=
 OpenBabel11042413053D

 40 42  0  0  1  0  0  0  0  0999 V2000
  180.0900  180.0320  139.9230 C   0  0  0  0  0  2  0  0  0  0  0  0
  184.1770  178.0040  142.5350 C   0  0  0  0  0  2  0  0  0  0  0  0
  180.2770  180.3480  138.4530 C   0  0  0  0  0  2  0  0  0  0  0  0
  186.1550  179.1550  141.4940 C   0  0  0  0  0  2  0  0  0  0  0  0
  182.5870  179.3480  139.7990 C   0  0  0  0  0  0  0  0  0  0  0  0
  183.6250  178.5550  140.1590 C   0  0  0  0  0  0  0  0  0  0  0  0
  184.9240  178.5890  139.4470 C   0  0  0  0  0  0  0  0  0  0  0  0
  181.3710  179.5210  141.8590 O   0  0  0  0  0  1  0  0  0  0  0  0
  185.6950  178.0010  142.3790 C   0  0  1  0  0  3  0  0  0  0  0  0
  181.2420  179.2050  140.5050 C   0  0  1  0  0  3  0  0  0  0  0  0
  186.0410  178.8200  140.0780 N   0  0  0  0  0  0  0  0  0  0  0  0
  181.5450  181.1640  138.3240 C   0  0  0  0  0  2  0  0  0  0  0  0
  183.4860  177.5420  141.2600 C   0  0  0  0  0  2  0  0  0  0  0  0
  182.7610  180.3000  138.6310 C   0  0  0  0  0  2  0  0  0  0  0  0
  184.9460  178.3190  138.0410 N   0  0  0  0  0  2  0  0  0  0  0  0
  187.4090  177.2250  144.1210 C   0  0  0  0  0  0  0  0  0  0  0  0
  187.8580  176.3300  143.3530 O   0  0  0  0  0  0  0  0  0  0  0  0
  186.3390  178.0760  143.6860 N   0  0  0  0  0  2  0  0  0  0  0  0
  187.2200  177.9570  146.4980 C   0  0  0  0  0  3  0  0  0  0  0  0
  189.8580  177.1530  147.0070 C   0  0  0  0  0  0  0  0  0  0  0  0
  187.9840  177.3940  145.4670 C   0  0  0  0  0  0  0  0  0  0  0  0
  189.3010  176.9940  145.7310 C   0  0  0  0  0  3  0  0  0  0  0  0
  189.0790  177.7180  148.0270 C   0  0  0  0  0  3  0  0  0  0  0  0
  187.7650  178.1190  147.7740 C   0  0  0  0  0  3  0  0  0  0  0  0
  191.2440  176.7310  147.2720 C   0  0  0  0  0  0  0  0  0  0  0  0
  191.9110  177.2770  148.1920 O   0  0  0  0  0  0  0  0  0  0  0  0
  191.8480  175.7040  146.4900 N   0  0  0  0  0  1  0  0  0  0  0  0
  186.1780  178.2620  137.2690 C   0  0  0  0  0  2  0  0  0  0  0  0
  186.0820  177.2110  136.2700 N   0  0  0  0  0  2  0  0  0  0  0  0
  186.8010  176.0610  136.7900 C   0  0  2  0  0  3  0  0  0  0  0  0
  188.1820  176.0110  136.1500 C   0  0  0  0  0  2  0  0  0  0  0  0
  189.2210  175.9780  137.1670 N   0  0  0  0  0  2  0  0  0  0  0  0
  188.6090  176.2650  138.3950 N   0  0  0  0  0  2  0  0  0  0  0  0
  189.5860  177.4580  139.1810 S   0  0  0  0  0  0  0  0  0  0  0  0
  191.2500  176.9970  139.0880 N   0  0  0  0  0  1  0  0  0  0  0  0
  189.1790  177.5790  140.6220 O   0  0  0  0  0  0  0  0  0  0  0  0
  189.3990  178.7820  138.4960 O   0  0  0  0  0  0  0  0  0  0  0  0
  186.0150  174.7950  136.4770 C   0  0  0  0  0  2  0  0  0  0  0  0
  184.4520  173.7560  137.6360 C   0  0  0  0  0  1  0  0  0  0  0  0
  184.6970  174.9260  136.9160 O   0  0  0  0  0  0  0  0  0  0  0  0
  1 10  1  0  0  0  0
  3  1  1  0  0  0  0
  4  9  1  0  0  0  0
  5  6  2  0  0  0  0
  5 10  1  0  0  0  0
  6 13  1  0  0  0  0
  7 11  2  0  0  0  0
  7  6  1  0  0  0  0
  9  2  1  0  0  0  0
  9 18  1  1  0  0  0
 10  8  1  1  0  0  0
 11  4  1  0  0  0  0
 12  3  1  0  0  0  0
 12 14  1  0  0  0  0
 13  2  1  0  0  0  0
 14  5  1  0  0  0  0
 15  7  1  0  0  0  0
 16 21  1  0  0  0  0
 17 16  2  0  0  0  0
 18 16  1  0  0  0  0
 19 24  1  0  0  0  0
 20 25  1  0  0  0  0
 20 23  1  0  0  0  0
 21 22  1  0  0  0  0
 21 19  2  0  0  0  0
 22 20  2  0  0  0  0
 24 23  2  0  0  0  0
 25 26  2  0  0  0  0
 27 25  1  0  0  0  0
 28 15  1  0  0  0  0
 29 30  1  0  0  0  0
 29 28  1  0  0  0  0
 30 31  1  6  0  0  0
 31 32  1  0  0  0  0
 32 33  1  0  0  0  0
 33 34  1  0  0  0  0
 34 36  2  0  0  0  0
 35 34  1  0  0  0  0
 37 34  2  0  0  0  0
 38 30  1  0  0  0  0
 38 40  1  0  0  0  0
 40 39  1  0  0  0  0
M  END
>  <MODEL>
1

>  <REMARK>
 VINA RESULT:      -8.1      0.000      0.000
  Name = 
  12 active torsions:
  status: ('A' for Active; 'I' for Inactive)
    1  A    between atoms: C_1  and  C_12
    2  A    between atoms: C_2  and  N_9
    3  A    between atoms: C_2  and  C_27
    4  A    between atoms: C_2  and  C_30
    5  A    between atoms: S_4  and  N_40
    6  A    between atoms: C_6  and  C_11
    7  A    between atoms: N_9  and  C_19
    8  A    between atoms: N_16  and  C_27
    9  A    between atoms: N_16  and  N_40
   10  A    between atoms: C_19  and  N_38
   11  A    between atoms: O_26  and  C_30
   12  A    between atoms: C_28  and  N_39
                            x       y       z     vdW  Elec       q    Type
                         _______ _______ _______ _____ _____    ______ ____

>  <TORSDO>
F 12

$$$$
=
 OpenBabel11042413053D

 40 42  0  0  1  0  0  0  0  0999 V2000
  191.5450  175.8760  147.7620 C   0  0  0  0  0  2  0  0  0  0  0  0
  187.6340  178.0490  145.0020 C   0  0  0  0  0  2  0  0  0  0  0  0
  192.8120  175.5020  147.0190 C   0  0  0  0  0  2  0  0  0  0  0  0
  187.7730  176.8760  142.7840 C   0  0  0  0  0  2  0  0  0  0  0  0
  190.7140  176.5790  145.4090 C   0  0  0  0  0  0  0  0  0  0  0  0
  190.0120  177.3950  144.5880 C   0  0  0  0  0  0  0  0  0  0  0  0
  190.1590  177.3440  143.1150 C   0  0  0  0  0  0  0  0  0  0  0  0
  189.2870  176.4790  147.3330 O   0  0  0  0  0  1  0  0  0  0  0  0
  187.1860  178.0610  143.5440 C   0  0  1  0  0  3  0  0  0  0  0  0
  190.5960  176.7370  146.9220 C   0  0  1  0  0  3  0  0  0  0  0  0
  189.1340  177.1510  142.3340 N   0  0  0  0  0  0  0  0  0  0  0  0
  192.4020  174.6930  145.8070 C   0  0  0  0  0  2  0  0  0  0  0  0
  189.0960  178.4520  145.1380 C   0  0  0  0  0  2  0  0  0  0  0  0
  191.6820  175.5810  144.8010 C   0  0  0  0  0  2  0  0  0  0  0  0
  191.4560  177.5570  142.5440 N   0  0  0  0  0  2  0  0  0  0  0  0
  184.9520  178.8730  142.5840 C   0  0  0  0  0  0  0  0  0  0  0  0
  185.5240  179.6900  141.8120 O   0  0  0  0  0  0  0  0  0  0  0  0
  185.7290  178.0450  143.4610 N   0  0  0  0  0  2  0  0  0  0  0  0
  182.7660  178.8730  143.7880 C   0  0  0  0  0  3  0  0  0  0  0  0
  181.3850  178.4690  141.3800 C   0  0  0  0  0  0  0  0  0  0  0  0
  183.4820  178.7710  142.5860 C   0  0  0  0  0  0  0  0  0  0  0  0
  182.7830  178.5700  141.3880 C   0  0  0  0  0  3  0  0  0  0  0  0
  180.6850  178.5730  142.5910 C   0  0  0  0  0  3  0  0  0  0  0  0
  181.3730  178.7750  143.7900 C   0  0  0  0  0  3  0  0  0  0  0  0
  180.6610  178.2540  140.1150 C   0  0  0  0  0  0  0  0  0  0  0  0
  179.4190  178.4570  140.0490 O   0  0  0  0  0  0  0  0  0  0  0  0
  181.3570  177.8130  138.9520 N   0  0  0  0  0  1  0  0  0  0  0  0
  191.6880  177.5930  141.1080 C   0  0  0  0  0  2  0  0  0  0  0  0
  191.0430  176.4520  140.4790 N   0  0  0  0  0  2  0  0  0  0  0  0
  190.9810  176.7300  139.0550 C   0  0  2  0  0  3  0  0  0  0  0  0
  189.8600  177.7280  138.7950 C   0  0  0  0  0  2  0  0  0  0  0  0
  188.5710  177.0560  138.7540 N   0  0  0  0  0  2  0  0  0  0  0  0
  187.6200  177.9520  139.2640 N   0  0  0  0  0  2  0  0  0  0  0  0
  186.4920  178.2710  137.9910 S   0  0  0  0  0  0  0  0  0  0  0  0
  185.9560  176.7780  137.3040 N   0  0  0  0  0  1  0  0  0  0  0  0
  187.1490  179.1050  136.9270 O   0  0  0  0  0  0  0  0  0  0  0  0
  185.3110  179.0140  138.5490 O   0  0  0  0  0  0  0  0  0  0  0  0
  190.7320  175.4300  138.3020 C   0  0  0  0  0  2  0  0  0  0  0  0
  191.5200  173.9550  136.8640 C   0  0  0  0  0  1  0  0  0  0  0  0
  191.6690  175.2790  137.2800 O   0  0  0  0  0  0  0  0  0  0  0  0
  2 13  1  0  0  0  0
  3  1  1  0  0  0  0
  4  9  1  0  0  0  0
  5 10  1  0  0  0  0
  6 13  1  0  0  0  0
  6  5  2  0  0  0  0
  7  6  1  0  0  0  0
  9 18  1  1  0  0  0
  9  2  1  0  0  0  0
 10  8  1  1  0  0  0
 10  1  1  0  0  0  0
 11  4  1  0  0  0  0
 11  7  2  0  0  0  0
 12  3  1  0  0  0  0
 14  5  1  0  0  0  0
 14 12  1  0  0  0  0
 15  7  1  0  0  0  0
 16 21  1  0  0  0  0
 16 18  1  0  0  0  0
 17 16  2  0  0  0  0
 19 24  1  0  0  0  0
 20 22  2  0  0  0  0
 20 23  1  0  0  0  0
 21 19  2  0  0  0  0
 22 21  1  0  0  0  0
 23 24  2  0  0  0  0
 25 20  1  0  0  0  0
 26 25  2  0  0  0  0
 27 25  1  0  0  0  0
 28 15  1  0  0  0  0
 29 28  1  0  0  0  0
 30 38  1  6  0  0  0
 30 29  1  0  0  0  0
 31 30  1  0  0  0  0
 32 31  1  0  0  0  0
 32 33  1  0  0  0  0
 34 37  2  0  0  0  0
 34 33  1  0  0  0  0
 35 34  1  0  0  0  0
 36 34  2  0  0  0  0
 39 40  1  0  0  0  0
 40 38  1  0  0  0  0
M  END
>  <MODEL>
2

>  <REMARK>
 VINA RESULT:      -7.2      2.800      8.276
  Name = 
  12 active torsions:
  status: ('A' for Active; 'I' for Inactive)
    1  A    between atoms: C_1  and  C_12
    2  A    between atoms: C_2  and  N_9
    3  A    between atoms: C_2  and  C_27
    4  A    between atoms: C_2  and  C_30
    5  A    between atoms: S_4  and  N_40
    6  A    between atoms: C_6  and  C_11
    7  A    between atoms: N_9  and  C_19
    8  A    between atoms: N_16  and  C_27
    9  A    between atoms: N_16  and  N_40
   10  A    between atoms: C_19  and  N_38
   11  A    between atoms: O_26  and  C_30
   12  A    between atoms: C_28  and  N_39
                            x       y       z     vdW  Elec       q    Type
                         _______ _______ _______ _____ _____    ______ ____

>  <TORSDO>
F 12

$$$$
=
 OpenBabel11042413053D

 40 42  0  0  1  0  0  0  0  0999 V2000
  180.0940  180.1370  139.9910 C   0  0  0  0  0  2  0  0  0  0  0  0
  184.1420  177.9890  142.5660 C   0  0  0  0  0  2  0  0  0  0  0  0
  180.2850  180.4700  138.5250 C   0  0  0  0  0  2  0  0  0  0  0  0
  186.1410  179.1150  141.5380 C   0  0  0  0  0  2  0  0  0  0  0  0
  182.5770  179.4040  139.8530 C   0  0  0  0  0  0  0  0  0  0  0  0
  183.5980  178.5860  140.1990 C   0  0  0  0  0  0  0  0  0  0  0  0
  184.8970  178.6040  139.4860 C   0  0  0  0  0  0  0  0  0  0  0  0
  181.3670  179.5710  141.9160 O   0  0  0  0  0  1  0  0  0  0  0  0
  185.6600  177.9580  142.4070 C   0  0  1  0  0  3  0  0  0  0  0  0
  181.2300  179.2780  140.5580 C   0  0  1  0  0  3  0  0  0  0  0  0
  186.0190  178.8020  140.1180 N   0  0  0  0  0  0  0  0  0  0  0  0
  181.5690  181.2620  138.4050 C   0  0  0  0  0  2  0  0  0  0  0  0
  183.4400  177.5590  141.2850 C   0  0  0  0  0  2  0  0  0  0  0  0
  182.7670  180.3690  138.6980 C   0  0  0  0  0  2  0  0  0  0  0  0
  184.9110  178.3530  138.0760 N   0  0  0  0  0  2  0  0  0  0  0  0
  187.4830  177.2600  144.0690 C   0  0  0  0  0  0  0  0  0  0  0  0
  188.0330  176.5020  143.2240 O   0  0  0  0  0  0  0  0  0  0  0  0
  186.3070  178.0010  143.7140 N   0  0  0  0  0  2  0  0  0  0  0  0
  187.2650  177.8670  146.4790 C   0  0  0  0  0  3  0  0  0  0  0  0
  189.9310  177.1370  146.9550 C   0  0  0  0  0  0  0  0  0  0  0  0
  188.0510  177.3840  145.4240 C   0  0  0  0  0  0  0  0  0  0  0  0
  189.3820  177.0200  145.6710 C   0  0  0  0  0  3  0  0  0  0  0  0
  189.1310  177.6220  148.0000 C   0  0  0  0  0  3  0  0  0  0  0  0
  187.8030  177.9850  147.7630 C   0  0  0  0  0  3  0  0  0  0  0  0
  191.3320  176.7550  147.2020 C   0  0  0  0  0  0  0  0  0  0  0  0
  191.9180  175.9490  146.4320 O   0  0  0  0  0  0  0  0  0  0  0  0
  192.0410  177.2920  148.3160 N   0  0  0  0  0  1  0  0  0  0  0  0
  186.1410  178.2830  137.3010 C   0  0  0  0  0  2  0  0  0  0  0  0
  186.8610  177.0650  137.6340 N   0  0  0  0  0  2  0  0  0  0  0  0
  187.2260  176.4290  136.3800 C   0  0  2  0  0  3  0  0  0  0  0  0
  186.3480  175.2010  136.1750 C   0  0  0  0  0  2  0  0  0  0  0  0
  185.1900  175.5260  135.3570 N   0  0  0  0  0  2  0  0  0  0  0  0
  184.0800  174.9010  135.9430 N   0  0  0  0  0  2  0  0  0  0  0  0
  182.7640  176.0210  135.8530 S   0  0  0  0  0  0  0  0  0  0  0  0
  182.1830  176.3620  137.4450 N   0  0  0  0  0  1  0  0  0  0  0  0
  181.6530  175.4340  135.0290 O   0  0  0  0  0  0  0  0  0  0  0  0
  183.2390  177.2960  135.2150 O   0  0  0  0  0  0  0  0  0  0  0  0
  188.6970  176.0390  136.4270 C   0  0  0  0  0  2  0  0  0  0  0  0
  190.2420  174.6810  137.2230 C   0  0  0  0  0  1  0  0  0  0  0  0
  188.8920  175.0110  137.3500 O   0  0  0  0  0  0  0  0  0  0  0  0
  1 10  1  0  0  0  0
  3  1  1  0  0  0  0
  4  9  1  0  0  0  0
  5  6  2  0  0  0  0
  5 10  1  0  0  0  0
  6 13  1  0  0  0  0
  7 11  2  0  0  0  0
  7  6  1  0  0  0  0
  9  2  1  0  0  0  0
  9 18  1  1  0  0  0
 10  8  1  1  0  0  0
 11  4  1  0  0  0  0
 12  3  1  0  0  0  0
 12 14  1  0  0  0  0
 13  2  1  0  0  0  0
 14  5  1  0  0  0  0
 15  7  1  0  0  0  0
 16 21  1  0  0  0  0
 17 16  2  0  0  0  0
 18 16  1  0  0  0  0
 19 24  1  0  0  0  0
 20 25  1  0  0  0  0
 20 23  1  0  0  0  0
 21 22  1  0  0  0  0
 21 19  2  0  0  0  0
 22 20  2  0  0  0  0
 24 23  2  0  0  0  0
 25 27  1  0  0  0  0
 26 25  2  0  0  0  0
 28 29  1  0  0  0  0
 28 15  1  0  0  0  0
 30 31  1  1  0  0  0
 30 38  1  0  0  0  0
 30 29  1  0  0  0  0
 32 33  1  0  0  0  0
 32 31  1  0  0  0  0
 34 33  1  0  0  0  0
 34 35  1  0  0  0  0
 36 34  2  0  0  0  0
 37 34  2  0  0  0  0
 38 40  1  0  0  0  0
 39 40  1  0  0  0  0
M  END
>  <MODEL>
3

>  <REMARK>
 VINA RESULT:      -7.1      1.940      3.224
  Name = 
  12 active torsions:
  status: ('A' for Active; 'I' for Inactive)
    1  A    between atoms: C_1  and  C_12
    2  A    between atoms: C_2  and  N_9
    3  A    between atoms: C_2  and  C_27
    4  A    between atoms: C_2  and  C_30
    5  A    between atoms: S_4  and  N_40
    6  A    between atoms: C_6  and  C_11
    7  A    between atoms: N_9  and  C_19
    8  A    between atoms: N_16  and  C_27
    9  A    between atoms: N_16  and  N_40
   10  A    between atoms: C_19  and  N_38
   11  A    between atoms: O_26  and  C_30
   12  A    between atoms: C_28  and  N_39
                            x       y       z     vdW  Elec       q    Type
                         _______ _______ _______ _____ _____    ______ ____

>  <TORSDO>
F 12

$$$$
=
 OpenBabel11042413053D

 40 42  0  0  1  0  0  0  0  0999 V2000
  191.5370  175.9720  147.7550 C   0  0  0  0  0  2  0  0  0  0  0  0
  187.5690  178.0310  144.9890 C   0  0  0  0  0  2  0  0  0  0  0  0
  192.7860  175.5610  147.0010 C   0  0  0  0  0  2  0  0  0  0  0  0
  187.6560  176.7600  142.8220 C   0  0  0  0  0  2  0  0  0  0  0  0
  190.6550  176.5720  145.3920 C   0  0  0  0  0  0  0  0  0  0  0  0
  189.9360  177.3530  144.5510 C   0  0  0  0  0  0  0  0  0  0  0  0
  190.0500  177.2360  143.0790 C   0  0  0  0  0  0  0  0  0  0  0  0
  189.2700  176.5620  147.3500 O   0  0  0  0  0  1  0  0  0  0  0  0
  187.0880  177.9790  143.5410 C   0  0  1  0  0  3  0  0  0  0  0  0
  190.5700  176.7980  146.8980 C   0  0  1  0  0  3  0  0  0  0  0  0
  189.0070  177.0110  142.3300 N   0  0  0  0  0  0  0  0  0  0  0  0
  192.3480  174.7010  145.8360 C   0  0  0  0  0  2  0  0  0  0  0  0
  189.0340  178.4360  145.0740 C   0  0  0  0  0  2  0  0  0  0  0  0
  191.6070  175.5450  144.8070 C   0  0  0  0  0  2  0  0  0  0  0  0
  191.3340  177.4190  142.4710 N   0  0  0  0  0  2  0  0  0  0  0  0
  184.8290  178.8810  142.7330 C   0  0  0  0  0  0  0  0  0  0  0  0
  185.3790  179.7840  142.0450 O   0  0  0  0  0  0  0  0  0  0  0  0
  185.6300  177.9640  143.4910 N   0  0  0  0  0  2  0  0  0  0  0  0
  182.6600  178.9040  143.9650 C   0  0  0  0  0  3  0  0  0  0  0  0
  181.2490  178.4180  141.5900 C   0  0  0  0  0  0  0  0  0  0  0  0
  183.3590  178.7700  142.7580 C   0  0  0  0  0  0  0  0  0  0  0  0
  182.6460  178.5280  141.5760 C   0  0  0  0  0  3  0  0  0  0  0  0
  180.5640  178.5560  142.8060 C   0  0  0  0  0  3  0  0  0  0  0  0
  181.2670  178.7980  143.9900 C   0  0  0  0  0  3  0  0  0  0  0  0
  180.5100  178.1610  140.3420 C   0  0  0  0  0  0  0  0  0  0  0  0
  180.8790  178.6940  139.2620 O   0  0  0  0  0  0  0  0  0  0  0  0
  179.3690  177.3080  140.3420 N   0  0  0  0  0  1  0  0  0  0  0  0
  191.5340  177.3910  141.0300 C   0  0  0  0  0  2  0  0  0  0  0  0
  190.8920  176.2130  140.4690 N   0  0  0  0  0  2  0  0  0  0  0  0
  190.8570  176.3920  139.0290 C   0  0  2  0  0  3  0  0  0  0  0  0
  192.2630  176.7140  138.5370 C   0  0  0  0  0  2  0  0  0  0  0  0
  192.9180  175.5190  138.0280 N   0  0  0  0  0  2  0  0  0  0  0  0
  194.2960  175.6880  138.2200 N   0  0  0  0  0  2  0  0  0  0  0  0
  195.0430  174.1620  137.8920 S   0  0  0  0  0  0  0  0  0  0  0  0
  196.4060  174.3950  136.8550 N   0  0  0  0  0  1  0  0  0  0  0  0
  194.0560  173.2470  137.2250 O   0  0  0  0  0  0  0  0  0  0  0  0
  195.5010  173.5470  139.1840 O   0  0  0  0  0  0  0  0  0  0  0  0
  189.8950  177.5220  138.6880 C   0  0  0  0  0  2  0  0  0  0  0  0
  188.3260  176.4190  137.5980 C   0  0  0  0  0  1  0  0  0  0  0  0
  188.5760  177.0810  138.8010 O   0  0  0  0  0  0  0  0  0  0  0  0
  2 13  1  0  0  0  0
  3  1  1  0  0  0  0
  4  9  1  0  0  0  0
  5 10  1  0  0  0  0
  6 13  1  0  0  0  0
  6  5  2  0  0  0  0
  7  6  1  0  0  0  0
  9 18  1  1  0  0  0
  9  2  1  0  0  0  0
 10  8  1  1  0  0  0
 10  1  1  0  0  0  0
 11  4  1  0  0  0  0
 11  7  2  0  0  0  0
 12  3  1  0  0  0  0
 14  5  1  0  0  0  0
 14 12  1  0  0  0  0
 15  7  1  0  0  0  0
 16 21  1  0  0  0  0
 16 18  1  0  0  0  0
 17 16  2  0  0  0  0
 19 24  1  0  0  0  0
 20 23  1  0  0  0  0
 21 19  2  0  0  0  0
 22 20  2  0  0  0  0
 22 21  1  0  0  0  0
 23 24  2  0  0  0  0
 25 20  1  0  0  0  0
 26 25  2  0  0  0  0
 27 25  1  0  0  0  0
 28 15  1  0  0  0  0
 29 28  1  0  0  0  0
 30 31  1  1  0  0  0
 30 29  1  0  0  0  0
 32 33  1  0  0  0  0
 32 31  1  0  0  0  0
 34 33  1  0  0  0  0
 34 37  2  0  0  0  0
 35 34  1  0  0  0  0
 36 34  2  0  0  0  0
 38 40  1  0  0  0  0
 38 30  1  0  0  0  0
 39 40  1  0  0  0  0
M  END
>  <MODEL>
4

>  <REMARK>
 VINA RESULT:      -7.0      3.377      8.430
  Name = 
  12 active torsions:
  status: ('A' for Active; 'I' for Inactive)
    1  A    between atoms: C_1  and  C_12
    2  A    between atoms: C_2  and  N_9
    3  A    between atoms: C_2  and  C_27
    4  A    between atoms: C_2  and  C_30
    5  A    between atoms: S_4  and  N_40
    6  A    between atoms: C_6  and  C_11
    7  A    between atoms: N_9  and  C_19
    8  A    between atoms: N_16  and  C_27
    9  A    between atoms: N_16  and  N_40
   10  A    between atoms: C_19  and  N_38
   11  A    between atoms: O_26  and  C_30
   12  A    between atoms: C_28  and  N_39
                            x       y       z     vdW  Elec       q    Type
                         _______ _______ _______ _____ _____    ______ ____

>  <TORSDO>
F 12

$$$$
=
 OpenBabel11042413053D

 40 42  0  0  1  0  0  0  0  0999 V2000
  184.7100  178.7880  140.5940 C   0  0  0  0  0  2  0  0  0  0  0  0
  189.5590  177.7100  138.8720 C   0  0  0  0  0  2  0  0  0  0  0  0
  184.5210  179.0110  142.0800 C   0  0  0  0  0  2  0  0  0  0  0  0
  190.5330  176.3200  140.7260 C   0  0  0  0  0  2  0  0  0  0  0  0
  187.1720  178.3310  141.2660 C   0  0  0  0  0  0  0  0  0  0  0  0
  188.5030  178.4010  141.0310 C   0  0  0  0  0  0  0  0  0  0  0  0
  189.5040  178.0900  142.0790 C   0  0  0  0  0  0  0  0  0  0  0  0
  186.3110  177.9220  139.0650 O   0  0  0  0  0  1  0  0  0  0  0  0
  190.8360  177.1240  139.4660 C   0  0  1  0  0  3  0  0  0  0  0  0
  186.1860  178.7530  140.1810 C   0  0  1  0  0  3  0  0  0  0  0  0
  190.4220  177.1840  141.8970 N   0  0  0  0  0  0  0  0  0  0  0  0
  185.1750  177.8500  142.7980 C   0  0  0  0  0  2  0  0  0  0  0  0
  189.0380  178.8710  139.7080 C   0  0  0  0  0  2  0  0  0  0  0  0
  186.6890  177.9220  142.6450 C   0  0  0  0  0  2  0  0  0  0  0  0
  189.4780  178.8390  143.3000 N   0  0  0  0  0  2  0  0  0  0  0  0
  192.9340  176.2750  138.2610 C   0  0  0  0  0  0  0  0  0  0  0  0
  193.6880  177.0240  138.9410 O   0  0  0  0  0  0  0  0  0  0  0  0
  191.5160  176.2880  138.4820 N   0  0  0  0  0  2  0  0  0  0  0  0
  193.6610  175.8320  135.9160 C   0  0  0  0  0  3  0  0  0  0  0  0
  194.4640  173.2340  136.6040 C   0  0  0  0  0  0  0  0  0  0  0  0
  193.5110  175.3860  137.2370 C   0  0  0  0  0  0  0  0  0  0  0  0
  193.9160  174.0870  137.5720 C   0  0  0  0  0  3  0  0  0  0  0  0
  194.6070  173.6950  135.2880 C   0  0  0  0  0  3  0  0  0  0  0  0
  194.2070  174.9900  134.9450 C   0  0  0  0  0  3  0  0  0  0  0  0
  194.8830  171.8690  136.9670 C   0  0  0  0  0  0  0  0  0  0  0  0
  194.8030  170.9330  136.1270 O   0  0  0  0  0  0  0  0  0  0  0  0
  195.3820  171.5900  138.2730 N   0  0  0  0  0  1  0  0  0  0  0  0
  190.4590  178.6540  144.3580 C   0  0  0  0  0  2  0  0  0  0  0  0
  189.7810  178.5430  145.6400 N   0  0  0  0  0  2  0  0  0  0  0  0
  189.6910  177.1280  145.9520 C   0  0  2  0  0  3  0  0  0  0  0  0
  189.0540  176.9660  147.3270 C   0  0  0  0  0  2  0  0  0  0  0  0
  187.9710  177.9190  147.5090 N   0  0  0  0  0  2  0  0  0  0  0  0
  187.0490  177.7010  146.4760 N   0  0  0  0  0  2  0  0  0  0  0  0
  185.8080  178.8950  146.6460 S   0  0  0  0  0  0  0  0  0  0  0  0
  184.3040  178.1220  147.0010 N   0  0  0  0  0  1  0  0  0  0  0  0
  185.6800  179.6800  145.3710 O   0  0  0  0  0  0  0  0  0  0  0  0
  186.1660  179.8260  147.7700 O   0  0  0  0  0  0  0  0  0  0  0  0
  191.0880  176.5210  145.9300 C   0  0  0  0  0  2  0  0  0  0  0  0
  192.4470  175.7060  147.4640 C   0  0  0  0  0  1  0  0  0  0  0  0
  191.7840  176.8740  147.0870 O   0  0  0  0  0  0  0  0  0  0  0  0
  1  3  1  0  0  0  0
  2  9  1  0  0  0  0
  2 13  1  0  0  0  0
  3 12  1  0  0  0  0
  4 11  1  0  0  0  0
  5 14  1  0  0  0  0
  6  5  2  0  0  0  0
  6  7  1  0  0  0  0
  7 15  1  0  0  0  0
  9 18  1  6  0  0  0
  9  4  1  0  0  0  0
 10  8  1  6  0  0  0
 10  1  1  0  0  0  0
 10  5  1  0  0  0  0
 11  7  2  0  0  0  0
 13  6  1  0  0  0  0
 14 12  1  0  0  0  0
 15 28  1  0  0  0  0
 16 18  1  0  0  0  0
 16 17  2  0  0  0  0
 19 21  1  0  0  0  0
 20 25  1  0  0  0  0
 20 22  1  0  0  0  0
 21 22  2  0  0  0  0
 21 16  1  0  0  0  0
 23 20  2  0  0  0  0
 24 23  1  0  0  0  0
 24 19  2  0  0  0  0
 25 27  1  0  0  0  0
 26 25  2  0  0  0  0
 28 29  1  0  0  0  0
 29 30  1  0  0  0  0
 30 38  1  1  0  0  0
 30 31  1  0  0  0  0
 31 32  1  0  0  0  0
 33 34  1  0  0  0  0
 33 32  1  0  0  0  0
 34 35  1  0  0  0  0
 34 37  2  0  0  0  0
 36 34  2  0  0  0  0
 38 40  1  0  0  0  0
 40 39  1  0  0  0  0
M  END
>  <MODEL>
5

>  <REMARK>
 VINA RESULT:      -6.7      4.471      9.166
  Name = 
  12 active torsions:
  status: ('A' for Active; 'I' for Inactive)
    1  A    between atoms: C_1  and  C_12
    2  A    between atoms: C_2  and  N_9
    3  A    between atoms: C_2  and  C_27
    4  A    between atoms: C_2  and  C_30
    5  A    between atoms: S_4  and  N_40
    6  A    between atoms: C_6  and  C_11
    7  A    between atoms: N_9  and  C_19
    8  A    between atoms: N_16  and  C_27
    9  A    between atoms: N_16  and  N_40
   10  A    between atoms: C_19  and  N_38
   11  A    between atoms: O_26  and  C_30
   12  A    between atoms: C_28  and  N_39
                            x       y       z     vdW  Elec       q    Type
                         _______ _______ _______ _____ _____    ______ ____

>  <TORSDO>
F 12

$$$$
=
 OpenBabel11042413053D

 40 42  0  0  1  0  0  0  0  0999 V2000
  190.3910  176.7940  147.1720 C   0  0  0  0  0  2  0  0  0  0  0  0
  190.7520  175.9540  141.9950 C   0  0  0  0  0  2  0  0  0  0  0  0
  189.1570  177.5060  147.6880 C   0  0  0  0  0  2  0  0  0  0  0  0
  189.6850  178.0040  141.0030 C   0  0  0  0  0  2  0  0  0  0  0  0
  189.3010  177.1930  144.8540 C   0  0  0  0  0  0  0  0  0  0  0  0
  189.0220  176.8080  143.5860 C   0  0  0  0  0  0  0  0  0  0  0  0
  188.0290  177.5200  142.7490 C   0  0  0  0  0  0  0  0  0  0  0  0
  191.5350  176.3680  145.1330 O   0  0  0  0  0  1  0  0  0  0  0  0
  190.1710  176.5840  140.7320 C   0  0  1  0  0  3  0  0  0  0  0  0
  190.2610  176.3680  145.7050 C   0  0  1  0  0  3  0  0  0  0  0  0
  188.3450  178.0070  141.5820 N   0  0  0  0  0  0  0  0  0  0  0  0
  188.9770  178.7570  146.8570 C   0  0  0  0  0  2  0  0  0  0  0  0
  189.6570  175.5850  142.9860 C   0  0  0  0  0  2  0  0  0  0  0  0
  188.5730  178.3910  145.4350 C   0  0  0  0  0  2  0  0  0  0  0  0
  186.6820  177.6320  143.2220 N   0  0  0  0  0  2  0  0  0  0  0  0
  191.1120  175.7470  138.4980 C   0  0  0  0  0  0  0  0  0  0  0  0
  190.1590  174.9350  138.3440 O   0  0  0  0  0  0  0  0  0  0  0  0
  191.1640  176.5830  139.6630 N   0  0  0  0  0  2  0  0  0  0  0  0
  191.9040  176.3830  136.2190 C   0  0  0  0  0  3  0  0  0  0  0  0
  194.4820  175.4430  136.7990 C   0  0  0  0  0  0  0  0  0  0  0  0
  192.1740  175.8330  137.4810 C   0  0  0  0  0  0  0  0  0  0  0  0
  193.4660  175.3680  137.7620 C   0  0  0  0  0  3  0  0  0  0  0  0
  194.1940  175.9960  135.5430 C   0  0  0  0  0  3  0  0  0  0  0  0
  192.9100  176.4640  135.2540 C   0  0  0  0  0  3  0  0  0  0  0  0
  195.8350  174.9470  137.1050 C   0  0  0  0  0  0  0  0  0  0  0  0
  196.2330  174.8780  138.2990 O   0  0  0  0  0  0  0  0  0  0  0  0
  196.7090  174.5420  136.0550 N   0  0  0  0  0  1  0  0  0  0  0  0
  185.6210  178.2530  142.4430 C   0  0  0  0  0  2  0  0  0  0  0  0
  184.9830  179.2970  143.2280 N   0  0  0  0  0  2  0  0  0  0  0  0
  183.7730  178.7250  143.7920 C   0  0  2  0  0  3  0  0  0  0  0  0
  182.5650  179.3460  143.1020 C   0  0  0  0  0  2  0  0  0  0  0  0
  182.0990  178.4970  142.0170 N   0  0  0  0  0  2  0  0  0  0  0  0
  181.8980  179.3230  140.9020 N   0  0  0  0  0  2  0  0  0  0  0  0
  182.9170  178.7230  139.6390 S   0  0  0  0  0  0  0  0  0  0  0  0
  184.2950  179.7530  139.4680 N   0  0  0  0  0  1  0  0  0  0  0  0
  182.1550  178.6870  138.3450 O   0  0  0  0  0  0  0  0  0  0  0  0
  183.3750  177.3350  139.9880 O   0  0  0  0  0  0  0  0  0  0  0  0
  183.7410  179.0030  145.2900 C   0  0  0  0  0  2  0  0  0  0  0  0
  185.2010  178.4080  146.8320 C   0  0  0  0  0  1  0  0  0  0  0  0
  185.0270  179.2790  145.7560 O   0  0  0  0  0  0  0  0  0  0  0  0
  1  3  1  0  0  0  0
  2 13  1  0  0  0  0
  4 11  1  0  0  0  0
  5 14  1  0  0  0  0
  5 10  1  0  0  0  0
  6  5  2  0  0  0  0
  7 15  1  0  0  0  0
  7  6  1  0  0  0  0
  9 18  1  6  0  0  0
  9  4  1  0  0  0  0
  9  2  1  0  0  0  0
 10  8  1  6  0  0  0
 10  1  1  0  0  0  0
 11  7  2  0  0  0  0
 12  3  1  0  0  0  0
 13  6  1  0  0  0  0
 14 12  1  0  0  0  0
 16 18  1  0  0  0  0
 17 16  2  0  0  0  0
 19 21  1  0  0  0  0
 20 25  1  0  0  0  0
 20 22  1  0  0  0  0
 21 22  2  0  0  0  0
 21 16  1  0  0  0  0
 23 20  2  0  0  0  0
 24 23  1  0  0  0  0
 24 19  2  0  0  0  0
 25 26  2  0  0  0  0
 27 25  1  0  0  0  0
 28 15  1  0  0  0  0
 28 29  1  0  0  0  0
 29 30  1  0  0  0  0
 30 31  1  6  0  0  0
 30 38  1  0  0  0  0
 32 31  1  0  0  0  0
 33 32  1  0  0  0  0
 34 37  2  0  0  0  0
 34 33  1  0  0  0  0
 35 34  1  0  0  0  0
 36 34  2  0  0  0  0
 38 40  1  0  0  0  0
 40 39  1  0  0  0  0
M  END
>  <MODEL>
6

>  <REMARK>
 VINA RESULT:      -6.3      3.903      9.075
  Name = 
  12 active torsions:
  status: ('A' for Active; 'I' for Inactive)
    1  A    between atoms: C_1  and  C_12
    2  A    between atoms: C_2  and  N_9
    3  A    between atoms: C_2  and  C_27
    4  A    between atoms: C_2  and  C_30
    5  A    between atoms: S_4  and  N_40
    6  A    between atoms: C_6  and  C_11
    7  A    between atoms: N_9  and  C_19
    8  A    between atoms: N_16  and  C_27
    9  A    between atoms: N_16  and  N_40
   10  A    between atoms: C_19  and  N_38
   11  A    between atoms: O_26  and  C_30
   12  A    between atoms: C_28  and  N_39
                            x       y       z     vdW  Elec       q    Type
                         _______ _______ _______ _____ _____    ______ ____

>  <TORSDO>
F 12

$$$$
=
 OpenBabel11042413053D

 40 42  0  0  1  0  0  0  0  0999 V2000
  190.6300  176.8120  147.1390 C   0  0  0  0  0  2  0  0  0  0  0  0
  190.7800  175.9650  141.9530 C   0  0  0  0  0  2  0  0  0  0  0  0
  189.3950  177.4780  147.7110 C   0  0  0  0  0  2  0  0  0  0  0  0
  189.5880  177.9670  141.0070 C   0  0  0  0  0  2  0  0  0  0  0  0
  189.4170  177.1590  144.8740 C   0  0  0  0  0  0  0  0  0  0  0  0
  189.0940  176.7580  143.6220 C   0  0  0  0  0  0  0  0  0  0  0  0
  188.0360  177.4270  142.8300 C   0  0  0  0  0  0  0  0  0  0  0  0
  191.6920  176.4220  145.0490 O   0  0  0  0  0  1  0  0  0  0  0  0
  190.1160  176.5660  140.7170 C   0  0  1  0  0  3  0  0  0  0  0  0
  190.4480  176.3760  145.6810 C   0  0  1  0  0  3  0  0  0  0  0  0
  188.2780  177.9210  141.6490 N   0  0  0  0  0  0  0  0  0  0  0  0
  189.1270  178.7180  146.8860 C   0  0  0  0  0  2  0  0  0  0  0  0
  189.7480  175.5580  142.9950 C   0  0  0  0  0  2  0  0  0  0  0  0
  188.6720  178.3310  145.4860 C   0  0  0  0  0  2  0  0  0  0  0  0
  186.7090  177.4890  143.3670 N   0  0  0  0  0  2  0  0  0  0  0  0
  190.9870  175.7510  138.4470 C   0  0  0  0  0  0  0  0  0  0  0  0
  190.0630  174.8980  138.3430 O   0  0  0  0  0  0  0  0  0  0  0  0
  191.0570  176.5990  139.6020 N   0  0  0  0  0  2  0  0  0  0  0  0
  191.6150  176.2620  136.0870 C   0  0  0  0  0  3  0  0  0  0  0  0
  194.3110  175.7200  136.6360 C   0  0  0  0  0  0  0  0  0  0  0  0
  191.9950  175.8750  137.3800 C   0  0  0  0  0  0  0  0  0  0  0  0
  193.3450  175.6080  137.6450 C   0  0  0  0  0  3  0  0  0  0  0  0
  193.9130  176.1080  135.3480 C   0  0  0  0  0  3  0  0  0  0  0  0
  192.5700  176.3780  135.0750 C   0  0  0  0  0  3  0  0  0  0  0  0
  195.7270  175.4330  136.9250 C   0  0  0  0  0  0  0  0  0  0  0  0
  196.6150  175.6770  136.0660 O   0  0  0  0  0  0  0  0  0  0  0  0
  196.1080  174.8740  138.1800 N   0  0  0  0  0  1  0  0  0  0  0  0
  185.5900  178.0640  142.6360 C   0  0  0  0  0  2  0  0  0  0  0  0
  185.2030  179.3250  143.2480 N   0  0  0  0  0  2  0  0  0  0  0  0
  184.5270  179.0050  144.4930 C   0  0  2  0  0  3  0  0  0  0  0  0
  183.1080  179.5540  144.4400 C   0  0  0  0  0  2  0  0  0  0  0  0
  182.1930  178.5690  143.8860 N   0  0  0  0  0  2  0  0  0  0  0  0
  181.8400  179.0070  142.6020 N   0  0  0  0  0  2  0  0  0  0  0  0
  180.1330  179.2920  142.6160 S   0  0  0  0  0  0  0  0  0  0  0  0
  179.4230  178.4910  143.9730 N   0  0  0  0  0  1  0  0  0  0  0  0
  179.5200  178.7690  141.3480 O   0  0  0  0  0  0  0  0  0  0  0  0
  179.8780  180.7690  142.7210 O   0  0  0  0  0  0  0  0  0  0  0  0
  185.3000  179.6170  145.6530 C   0  0  0  0  0  2  0  0  0  0  0  0
  185.4740  177.7240  146.7720 C   0  0  0  0  0  1  0  0  0  0  0  0
  184.9310  179.0060  146.8530 O   0  0  0  0  0  0  0  0  0  0  0  0
  1  3  1  0  0  0  0
  2 13  1  0  0  0  0
  4 11  1  0  0  0  0
  5 14  1  0  0  0  0
  5 10  1  0  0  0  0
  6  5  2  0  0  0  0
  7 15  1  0  0  0  0
  7  6  1  0  0  0  0
  9 18  1  6  0  0  0
  9  4  1  0  0  0  0
  9  2  1  0  0  0  0
 10  8  1  6  0  0  0
 10  1  1  0  0  0  0
 11  7  2  0  0  0  0
 12  3  1  0  0  0  0
 13  6  1  0  0  0  0
 14 12  1  0  0  0  0
 16 18  1  0  0  0  0
 17 16  2  0  0  0  0
 19 21  1  0  0  0  0
 20 25  1  0  0  0  0
 20 22  1  0  0  0  0
 21 22  2  0  0  0  0
 21 16  1  0  0  0  0
 23 20  2  0  0  0  0
 24 23  1  0  0  0  0
 24 19  2  0  0  0  0
 25 27  1  0  0  0  0
 26 25  2  0  0  0  0
 28 29  1  0  0  0  0
 28 15  1  0  0  0  0
 29 30  1  0  0  0  0
 30 31  1  6  0  0  0
 30 38  1  0  0  0  0
 32 31  1  0  0  0  0
 33 34  1  0  0  0  0
 33 32  1  0  0  0  0
 34 37  2  0  0  0  0
 34 35  1  0  0  0  0
 36 34  2  0  0  0  0
 38 40  1  0  0  0  0
 39 40  1  0  0  0  0
M  END
>  <MODEL>
7

>  <REMARK>
 VINA RESULT:      -6.1      4.127      9.597
  Name = 
  12 active torsions:
  status: ('A' for Active; 'I' for Inactive)
    1  A    between atoms: C_1  and  C_12
    2  A    between atoms: C_2  and  N_9
    3  A    between atoms: C_2  and  C_27
    4  A    between atoms: C_2  and  C_30
    5  A    between atoms: S_4  and  N_40
    6  A    between atoms: C_6  and  C_11
    7  A    between atoms: N_9  and  C_19
    8  A    between atoms: N_16  and  C_27
    9  A    between atoms: N_16  and  N_40
   10  A    between atoms: C_19  and  N_38
   11  A    between atoms: O_26  and  C_30
   12  A    between atoms: C_28  and  N_39
                            x       y       z     vdW  Elec       q    Type
                         _______ _______ _______ _____ _____    ______ ____

>  <TORSDO>
F 12

$$$$
=
 OpenBabel11042413053D

 40 42  0  0  1  0  0  0  0  0999 V2000
  190.3220  176.7280  147.4390 C   0  0  0  0  0  2  0  0  0  0  0  0
  190.1730  175.9590  142.2400 C   0  0  0  0  0  2  0  0  0  0  0  0
  189.2260  177.5700  148.0610 C   0  0  0  0  0  2  0  0  0  0  0  0
  189.2830  178.1390  141.3610 C   0  0  0  0  0  2  0  0  0  0  0  0
  189.1080  177.3010  145.2210 C   0  0  0  0  0  0  0  0  0  0  0  0
  188.6870  176.9780  143.9750 C   0  0  0  0  0  0  0  0  0  0  0  0
  187.7230  177.8190  143.2280 C   0  0  0  0  0  0  0  0  0  0  0  0
  191.2430  176.2120  145.3100 O   0  0  0  0  0  1  0  0  0  0  0  0
  189.5740  176.6780  141.0350 C   0  0  1  0  0  3  0  0  0  0  0  0
  190.0270  176.3510  145.9830 C   0  0  1  0  0  3  0  0  0  0  0  0
  188.0030  178.2890  142.0460 N   0  0  0  0  0  0  0  0  0  0  0  0
  189.1310  178.8510  147.2600 C   0  0  0  0  0  2  0  0  0  0  0  0
  189.1230  175.7010  143.3120 C   0  0  0  0  0  2  0  0  0  0  0  0
  188.5770  178.5640  145.8710 C   0  0  0  0  0  2  0  0  0  0  0  0
  186.4400  178.0790  143.8100 N   0  0  0  0  0  2  0  0  0  0  0  0
  190.0600  176.2770  138.5500 C   0  0  0  0  0  0  0  0  0  0  0  0
  188.8430  176.0670  138.2940 O   0  0  0  0  0  0  0  0  0  0  0  0
  190.4730  176.5820  139.8900 N   0  0  0  0  0  2  0  0  0  0  0  0
  190.6780  176.4180  136.1370 C   0  0  0  0  0  3  0  0  0  0  0  0
  193.3600  175.8600  136.7400 C   0  0  0  0  0  0  0  0  0  0  0  0
  191.0600  176.2080  137.4690 C   0  0  0  0  0  0  0  0  0  0  0  0
  192.4020  175.9310  137.7620 C   0  0  0  0  0  3  0  0  0  0  0  0
  192.9610  176.0730  135.4130 C   0  0  0  0  0  3  0  0  0  0  0  0
  191.6240  176.3510  135.1120 C   0  0  0  0  0  3  0  0  0  0  0  0
  194.7670  175.5640  137.0590 C   0  0  0  0  0  0  0  0  0  0  0  0
  195.6670  175.7400  136.1940 O   0  0  0  0  0  0  0  0  0  0  0  0
  195.1280  175.0750  138.3480 N   0  0  0  0  0  1  0  0  0  0  0  0
  185.4040  178.8360  143.1250 C   0  0  0  0  0  2  0  0  0  0  0  0
  184.4160  177.9240  142.5730 N   0  0  0  0  0  2  0  0  0  0  0  0
  183.9150  178.5280  141.3510 C   0  0  2  0  0  3  0  0  0  0  0  0
  183.0050  177.5310  140.6440 C   0  0  0  0  0  2  0  0  0  0  0  0
  181.6190  177.9720  140.6940 N   0  0  0  0  0  2  0  0  0  0  0  0
  181.6040  179.2210  141.3320 N   0  0  0  0  0  2  0  0  0  0  0  0
  180.5640  179.0730  142.7070 S   0  0  0  0  0  0  0  0  0  0  0  0
  179.3940  177.8340  142.4190 N   0  0  0  0  0  1  0  0  0  0  0  0
  179.8610  180.3780  142.9540 O   0  0  0  0  0  0  0  0  0  0  0  0
  181.3840  178.7120  143.9130 O   0  0  0  0  0  0  0  0  0  0  0  0
  185.0920  178.9070  140.4610 C   0  0  0  0  0  2  0  0  0  0  0  0
  185.2990  178.6200  138.2840 C   0  0  0  0  0  1  0  0  0  0  0  0
  184.6320  179.3920  139.2360 O   0  0  0  0  0  0  0  0  0  0  0  0
  1  3  1  0  0  0  0
  2 13  1  0  0  0  0
  4 11  1  0  0  0  0
  5 14  1  0  0  0  0
  5 10  1  0  0  0  0
  6  5  2  0  0  0  0
  7 15  1  0  0  0  0
  7  6  1  0  0  0  0
  9 18  1  6  0  0  0
  9  4  1  0  0  0  0
  9  2  1  0  0  0  0
 10  8  1  6  0  0  0
 10  1  1  0  0  0  0
 11  7  2  0  0  0  0
 12  3  1  0  0  0  0
 13  6  1  0  0  0  0
 14 12  1  0  0  0  0
 16 18  1  0  0  0  0
 17 16  2  0  0  0  0
 19 21  1  0  0  0  0
 20 25  1  0  0  0  0
 20 22  1  0  0  0  0
 21 22  2  0  0  0  0
 21 16  1  0  0  0  0
 23 20  2  0  0  0  0
 24 23  1  0  0  0  0
 24 19  2  0  0  0  0
 25 27  1  0  0  0  0
 26 25  2  0  0  0  0
 28 15  1  0  0  0  0
 29 28  1  0  0  0  0
 30 38  1  6  0  0  0
 30 29  1  0  0  0  0
 31 32  1  0  0  0  0
 31 30  1  0  0  0  0
 32 33  1  0  0  0  0
 33 34  1  0  0  0  0
 34 36  2  0  0  0  0
 34 37  2  0  0  0  0
 35 34  1  0  0  0  0
 39 40  1  0  0  0  0
 40 38  1  0  0  0  0
M  END
>  <MODEL>
8

>  <REMARK>
 VINA RESULT:      -6.0      3.633      8.866
  Name = 
  12 active torsions:
  status: ('A' for Active; 'I' for Inactive)
    1  A    between atoms: C_1  and  C_12
    2  A    between atoms: C_2  and  N_9
    3  A    between atoms: C_2  and  C_27
    4  A    between atoms: C_2  and  C_30
    5  A    between atoms: S_4  and  N_40
    6  A    between atoms: C_6  and  C_11
    7  A    between atoms: N_9  and  C_19
    8  A    between atoms: N_16  and  C_27
    9  A    between atoms: N_16  and  N_40
   10  A    between atoms: C_19  and  N_38
   11  A    between atoms: O_26  and  C_30
   12  A    between atoms: C_28  and  N_39
                            x       y       z     vdW  Elec       q    Type
                         _______ _______ _______ _____ _____    ______ ____

>  <TORSDO>
F 12

$$$$
=
 OpenBabel11042413053D

 40 42  0  0  1  0  0  0  0  0999 V2000
  187.3190  177.8670  147.7970 C   0  0  0  0  0  2  0  0  0  0  0  0
  188.8530  176.5980  142.9310 C   0  0  0  0  0  2  0  0  0  0  0  0
  186.0180  178.6280  147.9530 C   0  0  0  0  0  2  0  0  0  0  0  0
  188.0990  178.5650  141.5590 C   0  0  0  0  0  2  0  0  0  0  0  0
  186.8090  178.0800  145.2650 C   0  0  0  0  0  0  0  0  0  0  0  0
  186.8220  177.5930  144.0010 C   0  0  0  0  0  0  0  0  0  0  0  0
  186.0710  178.2400  142.9010 C   0  0  0  0  0  0  0  0  0  0  0  0
  188.8950  177.2660  146.1220 O   0  0  0  0  0  1  0  0  0  0  0  0
  188.5980  177.1240  141.5220 C   0  0  1  0  0  3  0  0  0  0  0  0
  187.5230  177.3230  146.3790 C   0  0  1  0  0  3  0  0  0  0  0  0
  186.6620  178.6260  141.8060 N   0  0  0  0  0  0  0  0  0  0  0  0
  186.0690  179.8080  147.0060 C   0  0  0  0  0  2  0  0  0  0  0  0
  187.5480  176.3200  143.6650 C   0  0  0  0  0  2  0  0  0  0  0  0
  185.9980  179.3270  145.5620 C   0  0  0  0  0  2  0  0  0  0  0  0
  184.6540  178.4000  143.0360 N   0  0  0  0  0  2  0  0  0  0  0  0
  189.8490  176.6540  139.3340 C   0  0  0  0  0  0  0  0  0  0  0  0
  188.7800  176.3770  138.7240 O   0  0  0  0  0  0  0  0  0  0  0  0
  189.8120  177.0280  140.7180 N   0  0  0  0  0  2  0  0  0  0  0  0
  192.3140  177.0310  139.2450 C   0  0  0  0  0  3  0  0  0  0  0  0
  192.4230  176.0300  136.6270 C   0  0  0  0  0  0  0  0  0  0  0  0
  191.1380  176.5910  138.6220 C   0  0  0  0  0  0  0  0  0  0  0  0
  191.2020  176.0920  137.3140 C   0  0  0  0  0  3  0  0  0  0  0  0
  193.5890  176.4750  137.2660 C   0  0  0  0  0  3  0  0  0  0  0  0
  193.5350  176.9730  138.5710 C   0  0  0  0  0  3  0  0  0  0  0  0
  192.4770  175.5070  135.2520 C   0  0  0  0  0  0  0  0  0  0  0  0
  191.4160  175.2130  134.6390 O   0  0  0  0  0  0  0  0  0  0  0  0
  193.7300  175.3240  134.5980 N   0  0  0  0  0  1  0  0  0  0  0  0
  183.8200  178.9610  141.9830 C   0  0  0  0  0  2  0  0  0  0  0  0
  182.7800  178.0110  141.6240 N   0  0  0  0  0  2  0  0  0  0  0  0
  182.6300  178.0700  140.1810 C   0  0  2  0  0  3  0  0  0  0  0  0
  183.6560  179.0440  139.6170 C   0  0  0  0  0  2  0  0  0  0  0  0
  183.9510  178.7350  138.2270 N   0  0  0  0  0  2  0  0  0  0  0  0
  184.0790  177.3420  138.1300 N   0  0  0  0  0  2  0  0  0  0  0  0
  185.3020  177.0270  136.9470 S   0  0  0  0  0  0  0  0  0  0  0  0
  185.9230  175.4290  137.1660 N   0  0  0  0  0  1  0  0  0  0  0  0
  186.4180  178.0230  137.0930 O   0  0  0  0  0  0  0  0  0  0  0  0
  184.7050  177.1440  135.5730 O   0  0  0  0  0  0  0  0  0  0  0  0
  181.2150  178.5220  139.8440 C   0  0  0  0  0  2  0  0  0  0  0  0
  180.1630  180.3280  140.5490 C   0  0  0  0  0  1  0  0  0  0  0  0
  181.1770  179.9080  139.6870 O   0  0  0  0  0  0  0  0  0  0  0  0
  1  3  1  0  0  0  0
  2 13  1  0  0  0  0
  4 11  1  0  0  0  0
  5 14  1  0  0  0  0
  5 10  1  0  0  0  0
  6  5  2  0  0  0  0
  7 15  1  0  0  0  0
  7  6  1  0  0  0  0
  9 18  1  6  0  0  0
  9  4  1  0  0  0  0
  9  2  1  0  0  0  0
 10  8  1  6  0  0  0
 10  1  1  0  0  0  0
 11  7  2  0  0  0  0
 12  3  1  0  0  0  0
 13  6  1  0  0  0  0
 14 12  1  0  0  0  0
 16 18  1  0  0  0  0
 17 16  2  0  0  0  0
 20 23  2  0  0  0  0
 20 22  1  0  0  0  0
 21 19  1  0  0  0  0
 21 16  1  0  0  0  0
 22 21  2  0  0  0  0
 23 24  1  0  0  0  0
 24 19  2  0  0  0  0
 25 20  1  0  0  0  0
 26 25  2  0  0  0  0
 27 25  1  0  0  0  0
 28 15  1  0  0  0  0
 29 28  1  0  0  0  0
 30 31  1  1  0  0  0
 30 29  1  0  0  0  0
 32 31  1  0  0  0  0
 33 32  1  0  0  0  0
 34 36  2  0  0  0  0
 34 35  1  0  0  0  0
 34 33  1  0  0  0  0
 37 34  2  0  0  0  0
 38 30  1  0  0  0  0
 40 38  1  0  0  0  0
 40 39  1  0  0  0  0
M  END
>  <MODEL>
9

>  <REMARK>
 VINA RESULT:      -6.0      3.004      7.671
  Name = 
  12 active torsions:
  status: ('A' for Active; 'I' for Inactive)
    1  A    between atoms: C_1  and  C_12
    2  A    between atoms: C_2  and  N_9
    3  A    between atoms: C_2  and  C_27
    4  A    between atoms: C_2  and  C_30
    5  A    between atoms: S_4  and  N_40
    6  A    between atoms: C_6  and  C_11
    7  A    between atoms: N_9  and  C_19
    8  A    between atoms: N_16  and  C_27
    9  A    between atoms: N_16  and  N_40
   10  A    between atoms: C_19  and  N_38
   11  A    between atoms: O_26  and  C_30
   12  A    between atoms: C_28  and  N_39
                            x       y       z     vdW  Elec       q    Type
                         _______ _______ _______ _____ _____    ______ ____

>  <TORSDO>
F 12

$$$$
