=
 OpenBabel11042411173D

 48 54  0  0  1  0  0  0  0  0999 V2000
  183.2450  178.6080  139.3910 S   0  0  0  0  0  0  0  0  0  0  0  0
  185.8880  178.2480  144.7940 C   0  0  0  0  0  0  0  0  0  0  0  0
  187.2980  178.6800  142.3730 C   0  0  1  0  0  3  0  0  0  0  0  0
  182.8960  178.5660  142.0950 C   0  0  0  0  0  2  0  0  0  0  0  0
  185.2360  178.9380  141.2650 C   0  0  0  0  0  0  0  0  0  0  0  0
  185.3210  179.0280  143.8570 C   0  0  0  0  0  0  0  0  0  0  0  0
  187.4820  178.3090  140.8990 C   0  0  0  0  0  2  0  0  0  0  0  0
  185.8870  178.9910  142.5370 N   0  0  0  0  0  0  0  0  0  0  0  0
  184.2780  180.0400  144.2090 C   0  0  0  0  0  1  0  0  0  0  0  0
  181.9960  177.5600  140.1380 C   0  0  0  0  0  0  0  0  0  0  0  0
  187.6760  177.5710  143.3230 C   0  0  0  0  0  0  0  0  0  0  0  0
  187.0230  177.4340  144.4450 N   0  0  0  0  0  0  0  0  0  0  0  0
  186.2340  178.8030  140.1750 C   0  0  0  0  0  2  0  0  0  0  0  0
  181.9080  177.6540  141.4600 C   0  0  0  0  0  3  0  0  0  0  0  0
  183.9130  178.8160  141.0410 C   0  0  0  0  0  0  0  0  0  0  0  0
  183.3510  175.2770  138.2790 O   0  0  0  0  0  1  0  0  0  0  0  0
  180.1530  178.3580  137.4250 C   0  0  1  0  0  3  0  0  0  0  0  0
  179.2720  177.3770  138.2290 C   0  0  0  0  0  2  0  0  0  0  0  0
  181.4700  177.7380  136.8950 C   0  0  1  0  0  3  0  0  0  0  0  0
  181.3740  176.3600  136.6400 O   0  0  0  0  0  0  0  0  0  0  0  0
  179.4020  178.8520  136.3720 F   0  0  0  0  0  0  0  0  0  0  0  0
  181.9200  178.4070  135.7560 O   0  0  0  0  0  1  0  0  0  0  0  0
  181.1120  176.7020  139.3910 N   0  0  0  0  0  0  0  0  0  0  0  0
  181.6980  175.6070  138.1310 P   0  0  2  0  0  0  0  0  0  0  0  0
  180.9300  174.3070  138.2050 O   0  0  0  0  0  0  0  0  0  0  0  0
  179.7690  176.9250  139.4850 O   0  0  0  0  0  0  0  0  0  0  0  0
  188.8990  176.7350  143.0630 C   0  0  2  0  0  3  0  0  0  0  0  0
  188.5220  175.3310  143.1150 N   0  0  0  0  0  1  0  0  0  0  0  0
  189.8490  178.3460  144.7740 C   0  0  0  0  0  2  0  0  0  0  0  0
  191.5100  178.5350  143.0370 C   0  0  0  0  0  2  0  0  0  0  0  0
  190.6560  179.3520  143.9860 C   0  0  0  0  0  2  0  0  0  0  0  0
  191.3870  177.1410  143.4350 N   0  0  0  0  0  0  0  0  0  0  0  0
  190.0590  177.0190  144.0600 C   0  0  2  0  0  3  0  0  0  0  0  0
  191.5800  176.3010  142.2560 C   0  0  0  0  0  2  0  0  0  0  0  0
  192.7150  177.3900  140.4870 F   0  0  0  0  0  0  0  0  0  0  0  0
  191.4530  177.1370  140.9950 C   0  0  1  0  0  3  0  0  0  0  0  0
  190.6660  176.4200  140.0050 N   0  0  0  0  0  2  0  0  0  0  0  0
  190.7210  177.1890  138.7730 C   0  0  0  0  0  2  0  0  0  0  0  0
  189.3520  177.1930  138.1210 C   0  0  0  0  0  2  0  0  0  0  0  0
  189.3350  178.1470  136.9410 C   0  0  0  0  0  2  0  0  0  0  0  0
  188.7570  179.4190  137.3380 N   0  0  0  0  0  2  0  0  0  0  0  0
  187.4610  179.3980  136.9490 O   0  0  0  0  0  1  0  0  0  0  0  0
  185.2890  178.2060  146.4850 S   0  0  0  0  0  0  0  0  0  0  0  0
  186.9010  178.7300  147.1430 C   0  0  0  0  0  2  0  0  0  0  0  0
  187.4360  177.6820  148.0970 C   0  0  1  0  0  0  0  0  0  0  0  0
  187.8340  178.2520  149.3180 O   0  0  0  0  0  0  0  0  0  0  0  0
  188.5510  176.8580  147.4960 C   0  0  0  0  0  2  0  0  0  0  0  0
  188.8530  178.0500  148.3730 C   0  0  1  0  0  3  0  0  0  0  0  0
  1 10  1  0  0  0  0
  1 15  1  0  0  0  0
  2 43  1  0  0  0  0
  3  7  1  6  0  0  0
  3  8  1  0  0  0  0
  3 11  1  0  0  0  0
  5  8  1  0  0  0  0
  6  9  1  0  0  0  0
  6  2  2  0  0  0  0
  8  6  1  0  0  0  0
 10 14  2  0  0  0  0
 11 12  2  0  0  0  0
 12  2  1  0  0  0  0
 13  7  1  0  0  0  0
 13  5  1  0  0  0  0
 14  4  1  0  0  0  0
 15  5  2  0  0  0  0
 15  4  1  0  0  0  0
 17 21  1  6  0  0  0
 17 18  1  0  0  0  0
 18 26  1  0  0  0  0
 19 22  1  6  0  0  0
 19 17  1  0  0  0  0
 20 19  1  0  0  0  0
 20 24  1  0  0  0  0
 23 26  1  0  0  0  0
 23 10  1  0  0  0  0
 24 25  2  1  0  0  0
 24 16  1  0  0  0  0
 24 23  1  0  0  0  0
 27 28  1  1  0  0  0
 27 11  1  0  0  0  0
 30 32  1  0  0  0  0
 30 31  1  0  0  0  0
 31 29  1  0  0  0  0
 32 33  1  0  0  0  0
 33 27  1  6  0  0  0
 33 29  1  0  0  0  0
 34 32  1  0  0  0  0
 36 35  1  6  0  0  0
 36 34  1  0  0  0  0
 37 36  1  0  0  0  0
 38 37  1  0  0  0  0
 39 38  1  0  0  0  0
 40 41  1  0  0  0  0
 40 39  1  0  0  0  0
 42 41  1  0  0  0  0
 43 44  1  0  0  0  0
 45 44  1  6  0  0  0
 45 48  1  0  0  0  0
 45 46  1  0  0  0  0
 47 45  1  0  0  0  0
 48 47  1  1  0  0  0
 48 46  1  0  0  0  0
M  END
>  <MODEL>
1

>  <REMARK>
 VINA RESULT:      -7.1      0.000      0.000
  Name = 
  13 active torsions:
  status: ('A' for Active; 'I' for Inactive)
    1  A    between atoms: S_1  and  C_7
    2  A    between atoms: S_1  and  C_31
    3  A    between atoms: C_3  and  N_34
    4  A    between atoms: C_3  and  C_35
    5  A    between atoms: C_10  and  C_31
    6  A    between atoms: N_11  and  C_20
    7  A    between atoms: C_20  and  C_35
    8  A    between atoms: C_21  and  C_29
    9  A    between atoms: C_21  and  C_44
   10  A    between atoms: C_27  and  C_32
   11  A    between atoms: C_27  and  N_34
   12  A    between atoms: C_28  and  N_30
   13  A    between atoms: C_32  and  N_41
                            x       y       z     vdW  Elec       q    Type
                         _______ _______ _______ _____ _____    ______ ____

>  <TORSDO>
F 13

$$$$
=
 OpenBabel11042411173D

 48 54  0  0  1  0  0  0  0  0999 V2000
  188.5070  177.3680  137.1980 S   0  0  0  0  0  0  0  0  0  0  0  0
  184.2120  178.3830  141.2990 C   0  0  0  0  0  0  0  0  0  0  0  0
  186.9640  178.9000  141.7360 C   0  0  1  0  0  3  0  0  0  0  0  0
  185.8310  177.5480  137.6920 C   0  0  0  0  0  2  0  0  0  0  0  0
  187.3690  178.4500  139.4600 C   0  0  0  0  0  0  0  0  0  0  0  0
  184.9400  178.8610  140.2760 C   0  0  0  0  0  0  0  0  0  0  0  0
  188.4110  178.4240  141.5790 C   0  0  0  0  0  2  0  0  0  0  0  0
  186.3700  178.8280  140.4110 N   0  0  0  0  0  0  0  0  0  0  0  0
  184.3010  179.5820  139.1310 C   0  0  0  0  0  1  0  0  0  0  0  0
  187.3770  176.1110  136.5970 C   0  0  0  0  0  0  0  0  0  0  0  0
  186.1550  178.0560  142.6900 C   0  0  0  0  0  0  0  0  0  0  0  0
  184.8810  177.8770  142.4700 N   0  0  0  0  0  0  0  0  0  0  0  0
  188.7150  178.4680  140.0850 C   0  0  0  0  0  2  0  0  0  0  0  0
  186.0980  176.3320  136.8790 C   0  0  0  0  0  3  0  0  0  0  0  0
  187.1590  177.9430  138.2300 C   0  0  0  0  0  0  0  0  0  0  0  0
  187.0190  173.1970  137.9680 O   0  0  0  0  0  1  0  0  0  0  0  0
  190.5230  175.1300  135.8630 C   0  0  1  0  0  3  0  0  0  0  0  0
  189.6970  174.7930  134.6020 C   0  0  0  0  0  2  0  0  0  0  0  0
  190.1000  174.3410  137.1270 C   0  0  1  0  0  3  0  0  0  0  0  0
  189.5640  173.0740  136.8400 O   0  0  0  0  0  0  0  0  0  0  0  0
  191.8580  174.8980  135.5810 F   0  0  0  0  0  0  0  0  0  0  0  0
  191.1610  174.2220  138.0250 O   0  0  0  0  0  1  0  0  0  0  0  0
  187.7850  174.9630  135.8290 N   0  0  0  0  0  0  0  0  0  0  0  0
  187.9120  173.3470  136.5390 P   0  0  2  0  0  0  0  0  0  0  0  0
  187.4170  172.3250  135.5420 O   0  0  0  0  0  0  0  0  0  0  0  0
  188.3250  175.1740  134.5940 O   0  0  0  0  0  0  0  0  0  0  0  0
  186.7680  177.5650  143.9720 C   0  0  2  0  0  3  0  0  0  0  0  0
  187.3030  176.2310  143.7500 N   0  0  0  0  0  1  0  0  0  0  0  0
  184.6980  178.6190  144.9860 C   0  0  0  0  0  2  0  0  0  0  0  0
  186.3600  179.3010  146.5950 C   0  0  0  0  0  2  0  0  0  0  0  0
  185.1900  179.8110  145.7770 C   0  0  0  0  0  2  0  0  0  0  0  0
  186.3750  177.8510  146.4740 N   0  0  0  0  0  0  0  0  0  0  0  0
  185.7690  177.5530  145.1640 C   0  0  2  0  0  3  0  0  0  0  0  0
  187.7500  177.3850  146.6240 C   0  0  0  0  0  2  0  0  0  0  0  0
  187.5570  177.6160  148.9720 F   0  0  0  0  0  0  0  0  0  0  0  0
  188.3570  177.9530  147.8950 C   0  0  1  0  0  3  0  0  0  0  0  0
  189.6900  177.4080  148.0910 N   0  0  0  0  0  2  0  0  0  0  0  0
  190.0750  176.7560  146.8510 C   0  0  0  0  0  2  0  0  0  0  0  0
  191.5840  176.7950  146.7090 C   0  0  0  0  0  2  0  0  0  0  0  0
  192.1980  175.5220  147.2630 C   0  0  0  0  0  2  0  0  0  0  0  0
  193.2650  175.8480  148.1920 N   0  0  0  0  0  2  0  0  0  0  0  0
  192.8590  176.9350  148.8880 O   0  0  0  0  0  1  0  0  0  0  0  0
  182.4180  178.3750  141.2680 S   0  0  0  0  0  0  0  0  0  0  0  0
  182.3710  176.8350  140.3040 C   0  0  0  0  0  2  0  0  0  0  0  0
  181.0510  176.7250  139.5690 C   0  0  1  0  0  0  0  0  0  0  0  0
  180.0960  176.0270  140.3280 O   0  0  0  0  0  0  0  0  0  0  0  0
  181.1960  176.1190  138.1930 C   0  0  0  0  0  2  0  0  0  0  0  0
  180.7980  175.2690  139.3760 C   0  0  1  0  0  3  0  0  0  0  0  0
  1 15  1  0  0  0  0
  2 12  1  0  0  0  0
  3  7  1  6  0  0  0
  3 11  1  0  0  0  0
  4 15  1  0  0  0  0
  5 13  1  0  0  0  0
  5  8  1  0  0  0  0
  6  8  1  0  0  0  0
  6  2  2  0  0  0  0
  8  3  1  0  0  0  0
  9  6  1  0  0  0  0
 10 14  2  0  0  0  0
 10  1  1  0  0  0  0
 11 27  1  0  0  0  0
 12 11  2  0  0  0  0
 13  7  1  0  0  0  0
 14  4  1  0  0  0  0
 15  5  2  0  0  0  0
 17 21  1  6  0  0  0
 17 19  1  0  0  0  0
 18 17  1  0  0  0  0
 19 22  1  1  0  0  0
 20 19  1  0  0  0  0
 23 24  1  0  0  0  0
 23 10  1  0  0  0  0
 24 25  2  6  0  0  0
 24 20  1  0  0  0  0
 24 16  1  0  0  0  0
 26 18  1  0  0  0  0
 26 23  1  0  0  0  0
 27 28  1  6  0  0  0
 29 33  1  0  0  0  0
 29 31  1  0  0  0  0
 31 30  1  0  0  0  0
 32 30  1  0  0  0  0
 32 34  1  0  0  0  0
 33 27  1  6  0  0  0
 33 32  1  0  0  0  0
 34 36  1  0  0  0  0
 36 37  1  0  0  0  0
 36 35  1  1  0  0  0
 38 37  1  0  0  0  0
 39 38  1  0  0  0  0
 39 40  1  0  0  0  0
 40 41  1  0  0  0  0
 41 42  1  0  0  0  0
 43  2  1  0  0  0  0
 44 43  1  0  0  0  0
 45 44  1  1  0  0  0
 45 46  1  0  0  0  0
 47 45  1  0  0  0  0
 48 47  1  6  0  0  0
 48 45  1  0  0  0  0
 48 46  1  0  0  0  0
M  END
>  <MODEL>
2

>  <REMARK>
 VINA RESULT:      -6.7      3.607      7.774
  Name = 
  13 active torsions:
  status: ('A' for Active; 'I' for Inactive)
    1  A    between atoms: S_1  and  C_7
    2  A    between atoms: S_1  and  C_31
    3  A    between atoms: C_3  and  N_34
    4  A    between atoms: C_3  and  C_35
    5  A    between atoms: C_10  and  C_31
    6  A    between atoms: N_11  and  C_20
    7  A    between atoms: C_20  and  C_35
    8  A    between atoms: C_21  and  C_29
    9  A    between atoms: C_21  and  C_44
   10  A    between atoms: C_27  and  C_32
   11  A    between atoms: C_27  and  N_34
   12  A    between atoms: C_28  and  N_30
   13  A    between atoms: C_32  and  N_41
                            x       y       z     vdW  Elec       q    Type
                         _______ _______ _______ _____ _____    ______ ____

>  <TORSDO>
F 13

$$$$
=
 OpenBabel11042411173D

 48 54  0  0  1  0  0  0  0  0999 V2000
  188.4890  178.6990  141.3740 S   0  0  0  0  0  0  0  0  0  0  0  0
  184.7220  176.9810  136.9980 C   0  0  0  0  0  0  0  0  0  0  0  0
  183.9190  178.4510  139.2850 C   0  0  1  0  0  3  0  0  0  0  0  0
  188.2420  177.6760  138.8590 C   0  0  0  0  0  2  0  0  0  0  0  0
  186.1860  178.7100  139.8650 C   0  0  0  0  0  0  0  0  0  0  0  0
  185.5550  177.9220  137.4740 C   0  0  0  0  0  0  0  0  0  0  0  0
  184.0190  178.6420  140.8000 C   0  0  0  0  0  2  0  0  0  0  0  0
  185.2860  178.4370  138.7890 N   0  0  0  0  0  0  0  0  0  0  0  0
  186.5950  178.5560  136.6080 C   0  0  0  0  0  1  0  0  0  0  0  0
  189.4340  177.2590  140.8720 C   0  0  0  0  0  0  0  0  0  0  0  0
  183.2330  177.1660  138.8870 C   0  0  0  0  0  0  0  0  0  0  0  0
  183.6110  176.5440  137.8040 N   0  0  0  0  0  0  0  0  0  0  0  0
  185.4380  179.1300  141.0750 C   0  0  0  0  0  2  0  0  0  0  0  0
  189.2440  176.8800  139.6140 C   0  0  0  0  0  3  0  0  0  0  0  0
  187.5070  178.4430  139.8980 C   0  0  0  0  0  0  0  0  0  0  0  0
  188.2050  175.3330  143.1710 O   0  0  0  0  0  0  0  0  0  0  0  0
  191.3550  178.5740  143.3180 C   0  0  1  0  0  3  0  0  0  0  0  0
  192.2290  177.4780  142.6710 C   0  0  0  0  0  2  0  0  0  0  0  0
  190.0740  178.0390  144.0050 C   0  0  1  0  0  3  0  0  0  0  0  0
  190.2130  176.7330  144.5030 O   0  0  0  0  0  0  0  0  0  0  0  0
  192.1320  179.2660  144.2310 F   0  0  0  0  0  0  0  0  0  0  0  0
  189.6500  178.8980  145.0190 O   0  0  0  0  0  1  0  0  0  0  0  0
  190.3650  176.5690  141.7270 N   0  0  0  0  0  0  0  0  0  0  0  0
  189.8530  175.7130  143.1890 P   0  0  2  0  0  0  0  0  0  0  0  0
  190.6500  174.4360  143.3230 O   0  0  0  0  0  1  0  0  0  0  0  0
  191.6980  176.7940  141.5400 O   0  0  0  0  0  0  0  0  0  0  0  0
  182.0160  176.6950  139.6340 C   0  0  2  0  0  3  0  0  0  0  0  0
  181.9690  175.2430  139.5760 N   0  0  0  0  0  1  0  0  0  0  0  0
  180.9570  178.2200  137.9080 C   0  0  0  0  0  2  0  0  0  0  0  0
  180.5160  179.4750  139.9190 C   0  0  0  0  0  2  0  0  0  0  0  0
  181.0210  179.6120  138.4960 C   0  0  0  0  0  2  0  0  0  0  0  0
  179.9570  178.1380  140.0540 N   0  0  0  0  0  0  0  0  0  0  0  0
  180.6900  177.3000  139.0890 C   0  0  2  0  0  3  0  0  0  0  0  0
  180.0910  177.7160  141.4450 C   0  0  0  0  0  2  0  0  0  0  0  0
  179.0770  179.4820  142.6520 F   0  0  0  0  0  0  0  0  0  0  0  0
  180.3040  178.9250  142.3380 C   0  0  1  0  0  3  0  0  0  0  0  0
  180.9820  178.5230  143.5600 N   0  0  0  0  0  2  0  0  0  0  0  0
  182.2240  179.2740  143.6290 C   0  0  0  0  0  2  0  0  0  0  0  0
  183.1190  178.6700  144.6940 C   0  0  0  0  0  2  0  0  0  0  0  0
  184.5090  179.2740  144.6170 C   0  0  0  0  0  2  0  0  0  0  0  0
  185.0990  179.3350  145.9430 N   0  0  0  0  0  2  0  0  0  0  0  0
  186.1580  178.4930  145.9380 O   0  0  0  0  0  1  0  0  0  0  0  0
  184.9340  176.2600  135.3680 S   0  0  0  0  0  0  0  0  0  0  0  0
  184.5370  174.5940  135.9760 C   0  0  0  0  0  2  0  0  0  0  0  0
  185.7410  173.9980  136.6760 C   0  0  1  0  0  0  0  0  0  0  0  0
  186.7090  173.5630  135.7540 O   0  0  0  0  0  0  0  0  0  0  0  0
  185.3720  172.8900  137.6350 C   0  0  0  0  0  2  0  0  0  0  0  0
  185.8260  172.5790  136.2290 C   0  0  1  0  0  3  0  0  0  0  0  0
  2  6  2  0  0  0  0
  2 12  1  0  0  0  0
  3  7  1  1  0  0  0
  4 14  1  0  0  0  0
  4 15  1  0  0  0  0
  5 15  2  0  0  0  0
  5 13  1  0  0  0  0
  6  8  1  0  0  0  0
  7 13  1  0  0  0  0
  8  3  1  0  0  0  0
  8  5  1  0  0  0  0
  9  6  1  0  0  0  0
 10  1  1  0  0  0  0
 10 23  1  0  0  0  0
 11  3  1  0  0  0  0
 11 27  1  0  0  0  0
 12 11  2  0  0  0  0
 14 10  2  0  0  0  0
 15  1  1  0  0  0  0
 17 19  1  0  0  0  0
 17 21  1  1  0  0  0
 18 17  1  0  0  0  0
 19 20  1  0  0  0  0
 19 22  1  1  0  0  0
 23 24  1  0  0  0  0
 24 16  2  6  0  0  0
 24 25  1  0  0  0  0
 24 20  1  0  0  0  0
 26 23  1  0  0  0  0
 26 18  1  0  0  0  0
 27 28  1  6  0  0  0
 29 31  1  0  0  0  0
 29 33  1  0  0  0  0
 30 32  1  0  0  0  0
 31 30  1  0  0  0  0
 32 34  1  0  0  0  0
 33 27  1  1  0  0  0
 33 32  1  0  0  0  0
 34 36  1  0  0  0  0
 36 35  1  1  0  0  0
 36 37  1  0  0  0  0
 37 38  1  0  0  0  0
 38 39  1  0  0  0  0
 40 39  1  0  0  0  0
 40 41  1  0  0  0  0
 42 41  1  0  0  0  0
 43 44  1  0  0  0  0
 43  2  1  0  0  0  0
 45 44  1  6  0  0  0
 45 47  1  0  0  0  0
 46 48  1  0  0  0  0
 46 45  1  0  0  0  0
 48 45  1  0  0  0  0
 48 47  1  1  0  0  0
M  END
>  <MODEL>
3

>  <REMARK>
 VINA RESULT:      -6.4      3.824      9.893
  Name = 
  13 active torsions:
  status: ('A' for Active; 'I' for Inactive)
    1  A    between atoms: S_1  and  C_7
    2  A    between atoms: S_1  and  C_31
    3  A    between atoms: C_3  and  N_34
    4  A    between atoms: C_3  and  C_35
    5  A    between atoms: C_10  and  C_31
    6  A    between atoms: N_11  and  C_20
    7  A    between atoms: C_20  and  C_35
    8  A    between atoms: C_21  and  C_29
    9  A    between atoms: C_21  and  C_44
   10  A    between atoms: C_27  and  C_32
   11  A    between atoms: C_27  and  N_34
   12  A    between atoms: C_28  and  N_30
   13  A    between atoms: C_32  and  N_41
                            x       y       z     vdW  Elec       q    Type
                         _______ _______ _______ _____ _____    ______ ____

>  <TORSDO>
F 13

$$$$
=
 OpenBabel11042411173D

 48 54  0  0  1  0  0  0  0  0999 V2000
  188.6510  177.7210  137.2020 S   0  0  0  0  0  0  0  0  0  0  0  0
  184.2050  178.1260  141.2480 C   0  0  0  0  0  0  0  0  0  0  0  0
  186.8800  178.9160  141.7570 C   0  0  1  0  0  3  0  0  0  0  0  0
  185.9640  177.5980  137.6480 C   0  0  0  0  0  2  0  0  0  0  0  0
  187.3670  178.5930  139.4760 C   0  0  0  0  0  0  0  0  0  0  0  0
  184.8950  178.7150  140.2560 C   0  0  0  0  0  0  0  0  0  0  0  0
  188.3710  178.6020  141.6140 C   0  0  0  0  0  2  0  0  0  0  0  0
  186.3180  178.8290  140.4190 N   0  0  0  0  0  0  0  0  0  0  0  0
  184.2020  179.4050  139.1250 C   0  0  0  0  0  1  0  0  0  0  0  0
  187.6720  176.3740  136.5360 C   0  0  0  0  0  0  0  0  0  0  0  0
  186.1500  177.9570  142.6660 C   0  0  0  0  0  0  0  0  0  0  0  0
  184.9060  177.6520  142.4140 N   0  0  0  0  0  0  0  0  0  0  0  0
  188.6930  178.7320  140.1290 C   0  0  0  0  0  2  0  0  0  0  0  0
  186.3720  176.4470  136.7990 C   0  0  0  0  0  3  0  0  0  0  0  0
  187.2330  178.1120  138.2250 C   0  0  0  0  0  0  0  0  0  0  0  0
  187.2740  173.3500  137.6300 O   0  0  0  0  0  1  0  0  0  0  0  0
  190.9190  175.5520  136.1110 C   0  0  1  0  0  3  0  0  0  0  0  0
  190.2600  175.2910  134.7390 C   0  0  0  0  0  2  0  0  0  0  0  0
  190.3830  174.6520  137.2520 C   0  0  1  0  0  3  0  0  0  0  0  0
  189.9370  173.3960  136.8090 O   0  0  0  0  0  0  0  0  0  0  0  0
  192.2860  175.3850  135.9750 F   0  0  0  0  0  0  0  0  0  0  0  0
  191.3360  174.4950  138.2600 O   0  0  0  0  0  1  0  0  0  0  0  0
  188.2120  175.3030  135.7380 N   0  0  0  0  0  0  0  0  0  0  0  0
  188.3210  173.6410  136.3340 P   0  0  2  0  0  0  0  0  0  0  0  0
  187.9870  172.6860  135.2100 O   0  0  0  0  0  0  0  0  0  0  0  0
  188.8840  175.6280  134.5960 O   0  0  0  0  0  0  0  0  0  0  0  0
  186.7900  177.4880  143.9430 C   0  0  2  0  0  3  0  0  0  0  0  0
  187.3950  176.1860  143.7080 N   0  0  0  0  0  1  0  0  0  0  0  0
  184.7720  178.5350  145.0620 C   0  0  0  0  0  2  0  0  0  0  0  0
  186.4670  178.9980  146.7120 C   0  0  0  0  0  2  0  0  0  0  0  0
  185.3180  179.6290  145.9520 C   0  0  0  0  0  2  0  0  0  0  0  0
  186.4180  177.5650  146.4630 N   0  0  0  0  0  0  0  0  0  0  0  0
  185.7950  177.4130  145.1360 C   0  0  2  0  0  3  0  0  0  0  0  0
  187.7720  177.0290  146.5610 C   0  0  0  0  0  2  0  0  0  0  0  0
  188.8110  177.7100  148.5750 F   0  0  0  0  0  0  0  0  0  0  0  0
  188.6840  178.0370  147.2370 C   0  0  1  0  0  3  0  0  0  0  0  0
  189.9940  178.0180  146.6060 N   0  0  0  0  0  2  0  0  0  0  0  0
  189.9780  176.9560  145.6150 C   0  0  0  0  0  2  0  0  0  0  0  0
  191.2140  177.0630  144.7430 C   0  0  0  0  0  2  0  0  0  0  0  0
  191.0080  176.3040  143.4440 C   0  0  0  0  0  2  0  0  0  0  0  0
  191.3460  177.1520  142.3140 N   0  0  0  0  0  2  0  0  0  0  0  0
  190.8670  176.5370  141.2080 O   0  0  0  0  0  1  0  0  0  0  0  0
  182.4230  177.9290  141.1800 S   0  0  0  0  0  0  0  0  0  0  0  0
  182.1790  178.9990  142.6300 C   0  0  0  0  0  2  0  0  0  0  0  0
  180.7040  179.2870  142.8180 C   0  0  1  0  0  0  0  0  0  0  0  0
  180.4200  180.6530  142.6480 O   0  0  0  0  0  0  0  0  0  0  0  0
  180.1730  178.7840  144.1400 C   0  0  0  0  0  2  0  0  0  0  0  0
  180.6030  180.2230  143.9730 C   0  0  1  0  0  3  0  0  0  0  0  0
  1 15  1  0  0  0  0
  2 12  1  0  0  0  0
  3  7  1  6  0  0  0
  3 11  1  0  0  0  0
  4 15  1  0  0  0  0
  5 13  1  0  0  0  0
  5  8  1  0  0  0  0
  6  8  1  0  0  0  0
  6  2  2  0  0  0  0
  8  3  1  0  0  0  0
  9  6  1  0  0  0  0
 10 14  2  0  0  0  0
 10  1  1  0  0  0  0
 11 27  1  0  0  0  0
 12 11  2  0  0  0  0
 13  7  1  0  0  0  0
 14  4  1  0  0  0  0
 15  5  2  0  0  0  0
 17 21  1  6  0  0  0
 17 19  1  0  0  0  0
 18 17  1  0  0  0  0
 19 22  1  1  0  0  0
 20 19  1  0  0  0  0
 23 24  1  0  0  0  0
 23 10  1  0  0  0  0
 24 25  2  6  0  0  0
 24 20  1  0  0  0  0
 24 16  1  0  0  0  0
 26 18  1  0  0  0  0
 26 23  1  0  0  0  0
 27 28  1  6  0  0  0
 29 33  1  0  0  0  0
 29 31  1  0  0  0  0
 31 30  1  0  0  0  0
 32 34  1  0  0  0  0
 32 30  1  0  0  0  0
 33 27  1  6  0  0  0
 33 32  1  0  0  0  0
 34 36  1  0  0  0  0
 36 35  1  1  0  0  0
 37 36  1  0  0  0  0
 38 37  1  0  0  0  0
 39 38  1  0  0  0  0
 40 39  1  0  0  0  0
 41 40  1  0  0  0  0
 42 41  1  0  0  0  0
 43  2  1  0  0  0  0
 43 44  1  0  0  0  0
 45 44  1  6  0  0  0
 45 48  1  0  0  0  0
 45 47  1  0  0  0  0
 46 45  1  0  0  0  0
 46 48  1  0  0  0  0
 48 47  1  1  0  0  0
M  END
>  <MODEL>
4

>  <REMARK>
 VINA RESULT:      -5.9      4.017      6.941
  Name = 
  13 active torsions:
  status: ('A' for Active; 'I' for Inactive)
    1  A    between atoms: S_1  and  C_7
    2  A    between atoms: S_1  and  C_31
    3  A    between atoms: C_3  and  N_34
    4  A    between atoms: C_3  and  C_35
    5  A    between atoms: C_10  and  C_31
    6  A    between atoms: N_11  and  C_20
    7  A    between atoms: C_20  and  C_35
    8  A    between atoms: C_21  and  C_29
    9  A    between atoms: C_21  and  C_44
   10  A    between atoms: C_27  and  C_32
   11  A    between atoms: C_27  and  N_34
   12  A    between atoms: C_28  and  N_30
   13  A    between atoms: C_32  and  N_41
                            x       y       z     vdW  Elec       q    Type
                         _______ _______ _______ _____ _____    ______ ____

>  <TORSDO>
F 13

$$$$
=
 OpenBabel11042411173D

 48 54  0  0  1  0  0  0  0  0999 V2000
  186.9320  178.5110  141.3410 S   0  0  0  0  0  0  0  0  0  0  0  0
  187.4060  176.5570  135.6620 C   0  0  0  0  0  0  0  0  0  0  0  0
  184.9960  177.5160  136.8050 C   0  0  1  0  0  3  0  0  0  0  0  0
  188.6110  177.7800  139.3210 C   0  0  0  0  0  2  0  0  0  0  0  0
  186.2140  178.1980  138.7010 C   0  0  0  0  0  0  0  0  0  0  0  0
  187.4750  177.5930  136.5150 C   0  0  0  0  0  0  0  0  0  0  0  0
  184.0550  177.5350  138.0120 C   0  0  0  0  0  2  0  0  0  0  0  0
  186.3120  177.8680  137.3140 N   0  0  0  0  0  0  0  0  0  0  0  0
  188.6270  178.5450  136.4990 C   0  0  0  0  0  1  0  0  0  0  0  0
  188.2990  177.3910  141.6450 C   0  0  0  0  0  0  0  0  0  0  0  0
  185.0700  176.1720  136.1230 C   0  0  0  0  0  0  0  0  0  0  0  0
  186.1920  175.7880  135.5760 N   0  0  0  0  0  0  0  0  0  0  0  0
  184.7910  178.2880  139.1150 C   0  0  0  0  0  2  0  0  0  0  0  0
  189.0590  177.1390  140.5850 C   0  0  0  0  0  3  0  0  0  0  0  0
  187.2210  178.2290  139.5950 C   0  0  0  0  0  0  0  0  0  0  0  0
  186.9050  178.7430  144.2390 O   0  0  0  0  0  0  0  0  0  0  0  0
  191.1960  177.6170  143.3640 C   0  0  1  0  0  3  0  0  0  0  0  0
  190.6730  176.1930  143.6520 C   0  0  0  0  0  2  0  0  0  0  0  0
  190.2800  178.7470  143.8960 C   0  0  1  0  0  3  0  0  0  0  0  0
  189.5500  178.3830  145.0390 O   0  0  0  0  0  0  0  0  0  0  0  0
  192.4620  177.7330  143.9120 F   0  0  0  0  0  0  0  0  0  0  0  0
  191.0080  179.9120  144.1420 O   0  0  0  0  0  1  0  0  0  0  0  0
  188.6050  176.8240  142.9340 N   0  0  0  0  0  0  0  0  0  0  0  0
  188.1500  177.6170  144.4480 P   0  0  2  0  0  0  0  0  0  0  0  0
  187.7030  176.5710  145.4430 O   0  0  0  0  0  1  0  0  0  0  0  0
  189.4840  175.7820  142.9850 O   0  0  0  0  0  0  0  0  0  0  0  0
  183.8250  175.3530  135.9270 C   0  0  2  0  0  3  0  0  0  0  0  0
  182.7230  176.2500  135.6140 N   0  0  0  0  0  1  0  0  0  0  0  0
  184.7210  173.8510  137.7620 C   0  0  0  0  0  2  0  0  0  0  0  0
  183.4810  172.2450  136.4580 C   0  0  0  0  0  2  0  0  0  0  0  0
  184.8090  172.4690  137.1540 C   0  0  0  0  0  2  0  0  0  0  0  0
  182.5940  173.3260  136.8600 N   0  0  0  0  0  0  0  0  0  0  0  0
  183.4700  174.4720  137.1590 C   0  0  2  0  0  3  0  0  0  0  0  0
  181.6330  173.5620  135.7870 C   0  0  0  0  0  2  0  0  0  0  0  0
  180.2400  172.6910  137.4900 F   0  0  0  0  0  0  0  0  0  0  0  0
  180.2160  173.4190  136.3140 C   0  0  1  0  0  3  0  0  0  0  0  0
  179.6480  174.7330  136.5660 N   0  0  0  0  0  2  0  0  0  0  0  0
  179.6250  174.9210  138.0070 C   0  0  0  0  0  2  0  0  0  0  0  0
  180.4180  176.1630  138.3650 C   0  0  0  0  0  2  0  0  0  0  0  0
  180.8730  176.0970  139.8110 C   0  0  0  0  0  2  0  0  0  0  0  0
  180.4700  177.3020  140.5150 N   0  0  0  0  0  2  0  0  0  0  0  0
  181.5940  178.0260  140.7250 O   0  0  0  0  0  1  0  0  0  0  0  0
  188.7800  176.1100  134.5970 S   0  0  0  0  0  0  0  0  0  0  0  0
  189.4470  174.9500  135.8270 C   0  0  0  0  0  2  0  0  0  0  0  0
  190.8270  175.3960  136.2640 C   0  0  1  0  0  0  0  0  0  0  0  0
  191.8360  174.6910  135.5850 O   0  0  0  0  0  0  0  0  0  0  0  0
  191.0240  175.3130  137.7600 C   0  0  0  0  0  2  0  0  0  0  0  0
  191.4890  174.1980  136.8540 C   0  0  1  0  0  3  0  0  0  0  0  0
  1 10  1  0  0  0  0
  2  6  2  0  0  0  0
  3  8  1  0  0  0  0
  3  7  1  1  0  0  0
  4 15  1  0  0  0  0
  4 14  1  0  0  0  0
  5 13  1  0  0  0  0
  5 15  2  0  0  0  0
  6  8  1  0  0  0  0
  7 13  1  0  0  0  0
  8  5  1  0  0  0  0
  9  6  1  0  0  0  0
 10 23  1  0  0  0  0
 11  3  1  0  0  0  0
 12  2  1  0  0  0  0
 12 11  2  0  0  0  0
 14 10  2  0  0  0  0
 15  1  1  0  0  0  0
 17 18  1  0  0  0  0
 17 19  1  0  0  0  0
 17 21  1  1  0  0  0
 19 22  1  1  0  0  0
 19 20  1  0  0  0  0
 23 26  1  0  0  0  0
 23 24  1  0  0  0  0
 24 16  2  6  0  0  0
 24 20  1  0  0  0  0
 24 25  1  0  0  0  0
 26 18  1  0  0  0  0
 27 28  1  1  0  0  0
 27 11  1  0  0  0  0
 30 32  1  0  0  0  0
 30 31  1  0  0  0  0
 31 29  1  0  0  0  0
 32 33  1  0  0  0  0
 33 27  1  6  0  0  0
 33 29  1  0  0  0  0
 34 36  1  0  0  0  0
 34 32  1  0  0  0  0
 36 37  1  0  0  0  0
 36 35  1  1  0  0  0
 37 38  1  0  0  0  0
 38 39  1  0  0  0  0
 39 40  1  0  0  0  0
 40 41  1  0  0  0  0
 41 42  1  0  0  0  0
 43  2  1  0  0  0  0
 43 44  1  0  0  0  0
 45 44  1  6  0  0  0
 45 48  1  0  0  0  0
 45 47  1  0  0  0  0
 46 45  1  0  0  0  0
 46 48  1  0  0  0  0
 48 47  1  1  0  0  0
M  END
>  <MODEL>
5

>  <REMARK>
 VINA RESULT:      -5.8      4.052     10.007
  Name = 
  13 active torsions:
  status: ('A' for Active; 'I' for Inactive)
    1  A    between atoms: S_1  and  C_7
    2  A    between atoms: S_1  and  C_31
    3  A    between atoms: C_3  and  N_34
    4  A    between atoms: C_3  and  C_35
    5  A    between atoms: C_10  and  C_31
    6  A    between atoms: N_11  and  C_20
    7  A    between atoms: C_20  and  C_35
    8  A    between atoms: C_21  and  C_29
    9  A    between atoms: C_21  and  C_44
   10  A    between atoms: C_27  and  C_32
   11  A    between atoms: C_27  and  N_34
   12  A    between atoms: C_28  and  N_30
   13  A    between atoms: C_32  and  N_41
                            x       y       z     vdW  Elec       q    Type
                         _______ _______ _______ _____ _____    ______ ____

>  <TORSDO>
F 13

$$$$
=
 OpenBabel11042411173D

 48 54  0  0  1  0  0  0  0  0999 V2000
  183.6470  178.6800  139.0980 S   0  0  0  0  0  0  0  0  0  0  0  0
  186.1000  178.0570  144.5650 C   0  0  0  0  0  0  0  0  0  0  0  0
  187.6050  178.4380  142.1940 C   0  0  1  0  0  3  0  0  0  0  0  0
  183.2150  178.6140  141.7890 C   0  0  0  0  0  2  0  0  0  0  0  0
  185.5980  178.8480  141.0330 C   0  0  0  0  0  0  0  0  0  0  0  0
  185.6120  178.8870  143.6280 C   0  0  0  0  0  0  0  0  0  0  0  0
  187.8090  178.0810  140.7190 C   0  0  0  0  0  2  0  0  0  0  0  0
  186.2130  178.8360  142.3230 N   0  0  0  0  0  0  0  0  0  0  0  0
  184.6260  179.9590  143.9690 C   0  0  0  0  0  1  0  0  0  0  0  0
  182.3110  177.7020  139.7890 C   0  0  0  0  0  0  0  0  0  0  0  0
  187.8830  177.2900  143.1330 C   0  0  0  0  0  0  0  0  0  0  0  0
  187.1910  177.1760  144.2340 N   0  0  0  0  0  0  0  0  0  0  0  0
  186.6180  178.6670  139.9700 C   0  0  0  0  0  2  0  0  0  0  0  0
  182.1900  177.7790  141.1090 C   0  0  0  0  0  3  0  0  0  0  0  0
  184.2770  178.8150  140.7700 C   0  0  0  0  0  0  0  0  0  0  0  0
  183.4400  174.9580  138.4860 O   0  0  0  0  0  1  0  0  0  0  0  0
  181.1100  178.4030  136.7130 C   0  0  1  0  0  3  0  0  0  0  0  0
  179.9340  177.7310  137.4550 C   0  0  0  0  0  2  0  0  0  0  0  0
  182.3380  177.4820  136.5060 C   0  0  1  0  0  3  0  0  0  0  0  0
  182.0030  176.1220  136.4010 O   0  0  0  0  0  0  0  0  0  0  0  0
  180.6470  178.8610  135.4920 F   0  0  0  0  0  0  0  0  0  0  0  0
  183.0850  177.8790  135.3960 O   0  0  0  0  0  1  0  0  0  0  0  0
  181.3960  176.9160  139.0010 N   0  0  0  0  0  0  0  0  0  0  0  0
  181.9330  175.5560  138.0050 P   0  0  2  0  0  0  0  0  0  0  0  0
  180.9130  174.4430  138.0910 O   0  0  0  0  0  0  0  0  0  0  0  0
  180.1290  177.3900  138.8240 O   0  0  0  0  0  0  0  0  0  0  0  0
  189.0570  176.3820  142.8920 C   0  0  2  0  0  3  0  0  0  0  0  0
  188.6660  175.0200  143.2200 N   0  0  0  0  0  1  0  0  0  0  0  0
  190.0610  178.0370  144.5280 C   0  0  0  0  0  2  0  0  0  0  0  0
  191.3530  178.5430  142.5560 C   0  0  0  0  0  2  0  0  0  0  0  0
  190.5740  179.1850  143.6870 C   0  0  0  0  0  2  0  0  0  0  0  0
  191.4930  177.1300  142.8720 N   0  0  0  0  0  0  0  0  0  0  0  0
  190.3230  176.7880  143.7000 C   0  0  2  0  0  3  0  0  0  0  0  0
  191.5910  176.3800  141.6240 C   0  0  0  0  0  2  0  0  0  0  0  0
  193.5460  177.2660  140.6270 F   0  0  0  0  0  0  0  0  0  0  0  0
  192.1660  177.2620  140.5300 C   0  0  1  0  0  3  0  0  0  0  0  0
  191.7720  176.7530  139.2270 N   0  0  0  0  0  2  0  0  0  0  0  0
  192.9580  176.7560  138.3880 C   0  0  0  0  0  2  0  0  0  0  0  0
  193.1790  175.3660  137.8230 C   0  0  0  0  0  2  0  0  0  0  0  0
  193.4270  175.4380  136.3280 C   0  0  0  0  0  2  0  0  0  0  0  0
  194.5880  174.6400  135.9770 N   0  0  0  0  0  2  0  0  0  0  0  0
  195.6730  175.4290  136.1540 O   0  0  0  0  0  1  0  0  0  0  0  0
  185.4500  178.0240  146.2380 S   0  0  0  0  0  0  0  0  0  0  0  0
  187.0200  178.6200  146.9340 C   0  0  0  0  0  2  0  0  0  0  0  0
  187.5540  177.6170  147.9360 C   0  0  1  0  0  0  0  0  0  0  0  0
  187.9710  178.2470  149.1220 O   0  0  0  0  0  0  0  0  0  0  0  0
  188.6550  176.7510  147.3690 C   0  0  0  0  0  2  0  0  0  0  0  0
  188.9780  177.9850  148.1790 C   0  0  1  0  0  3  0  0  0  0  0  0
  1 10  1  0  0  0  0
  1 15  1  0  0  0  0
  2 43  1  0  0  0  0
  3  7  1  6  0  0  0
  3  8  1  0  0  0  0
  3 11  1  0  0  0  0
  5  8  1  0  0  0  0
  6  9  1  0  0  0  0
  6  2  2  0  0  0  0
  8  6  1  0  0  0  0
 10 14  2  0  0  0  0
 11 12  2  0  0  0  0
 12  2  1  0  0  0  0
 13  7  1  0  0  0  0
 13  5  1  0  0  0  0
 14  4  1  0  0  0  0
 15  5  2  0  0  0  0
 15  4  1  0  0  0  0
 17 21  1  6  0  0  0
 17 18  1  0  0  0  0
 18 26  1  0  0  0  0
 19 22  1  6  0  0  0
 19 17  1  0  0  0  0
 20 19  1  0  0  0  0
 20 24  1  0  0  0  0
 23 10  1  0  0  0  0
 24 25  2  1  0  0  0
 24 16  1  0  0  0  0
 24 23  1  0  0  0  0
 26 23  1  0  0  0  0
 27 11  1  0  0  0  0
 27 28  1  1  0  0  0
 30 32  1  0  0  0  0
 30 31  1  0  0  0  0
 31 29  1  0  0  0  0
 32 33  1  0  0  0  0
 33 27  1  6  0  0  0
 33 29  1  0  0  0  0
 34 32  1  0  0  0  0
 36 35  1  6  0  0  0
 36 34  1  0  0  0  0
 37 36  1  0  0  0  0
 38 37  1  0  0  0  0
 39 38  1  0  0  0  0
 40 39  1  0  0  0  0
 41 42  1  0  0  0  0
 41 40  1  0  0  0  0
 43 44  1  0  0  0  0
 45 44  1  6  0  0  0
 45 48  1  0  0  0  0
 45 46  1  0  0  0  0
 47 45  1  0  0  0  0
 48 47  1  1  0  0  0
 48 46  1  0  0  0  0
M  END
>  <MODEL>
6

>  <REMARK>
 VINA RESULT:      -5.7      1.865      2.084
  Name = 
  13 active torsions:
  status: ('A' for Active; 'I' for Inactive)
    1  A    between atoms: S_1  and  C_7
    2  A    between atoms: S_1  and  C_31
    3  A    between atoms: C_3  and  N_34
    4  A    between atoms: C_3  and  C_35
    5  A    between atoms: C_10  and  C_31
    6  A    between atoms: N_11  and  C_20
    7  A    between atoms: C_20  and  C_35
    8  A    between atoms: C_21  and  C_29
    9  A    between atoms: C_21  and  C_44
   10  A    between atoms: C_27  and  C_32
   11  A    between atoms: C_27  and  N_34
   12  A    between atoms: C_28  and  N_30
   13  A    between atoms: C_32  and  N_41
                            x       y       z     vdW  Elec       q    Type
                         _______ _______ _______ _____ _____    ______ ____

>  <TORSDO>
F 13

$$$$
=
 OpenBabel11042411173D

 48 54  0  0  1  0  0  0  0  0999 V2000
  188.4280  178.6320  141.4520 S   0  0  0  0  0  0  0  0  0  0  0  0
  185.3530  177.1610  136.4840 C   0  0  0  0  0  0  0  0  0  0  0  0
  184.1610  178.2500  138.8140 C   0  0  1  0  0  3  0  0  0  0  0  0
  188.5610  177.9220  138.8230 C   0  0  0  0  0  2  0  0  0  0  0  0
  186.3140  178.6320  139.6890 C   0  0  0  0  0  0  0  0  0  0  0  0
  186.0280  178.1040  137.1640 C   0  0  0  0  0  0  0  0  0  0  0  0
  184.0760  178.2540  140.3430 C   0  0  0  0  0  2  0  0  0  0  0  0
  185.5670  178.4200  138.4880 N   0  0  0  0  0  0  0  0  0  0  0  0
  187.0860  178.9330  136.5090 C   0  0  0  0  0  1  0  0  0  0  0  0
  189.5640  177.3570  140.9020 C   0  0  0  0  0  0  0  0  0  0  0  0
  183.6570  176.9720  138.1890 C   0  0  0  0  0  0  0  0  0  0  0  0
  184.2120  176.5280  137.0940 N   0  0  0  0  0  0  0  0  0  0  0  0
  185.3990  178.8260  140.8410 C   0  0  0  0  0  2  0  0  0  0  0  0
  189.5520  177.1270  139.5940 C   0  0  0  0  0  3  0  0  0  0  0  0
  187.6430  178.4810  139.8480 C   0  0  0  0  0  0  0  0  0  0  0  0
  188.2490  175.4390  143.1590 O   0  0  0  0  0  0  0  0  0  0  0  0
  191.4440  178.6300  143.4010 C   0  0  1  0  0  3  0  0  0  0  0  0
  192.3170  177.5230  142.7700 C   0  0  0  0  0  2  0  0  0  0  0  0
  190.1390  178.1100  144.0530 C   0  0  1  0  0  3  0  0  0  0  0  0
  190.2450  176.8000  144.5480 O   0  0  0  0  0  0  0  0  0  0  0  0
  192.2080  179.3040  144.3370 F   0  0  0  0  0  0  0  0  0  0  0  0
  189.7030  178.9710  145.0620 O   0  0  0  0  0  1  0  0  0  0  0  0
  190.4640  176.6480  141.7760 N   0  0  0  0  0  0  0  0  0  0  0  0
  189.9020  175.7930  143.2200 P   0  0  2  0  0  0  0  0  0  0  0  0
  190.6760  174.5030  143.3660 O   0  0  0  0  0  1  0  0  0  0  0  0
  191.8040  176.8540  141.6230 O   0  0  0  0  0  0  0  0  0  0  0  0
  182.4210  176.3030  138.7240 C   0  0  2  0  0  3  0  0  0  0  0  0
  182.6020  174.8620  138.6470 N   0  0  0  0  0  1  0  0  0  0  0  0
  181.4480  177.2830  136.5990 C   0  0  0  0  0  2  0  0  0  0  0  0
  180.9250  179.0420  138.1630 C   0  0  0  0  0  2  0  0  0  0  0  0
  181.4920  178.7840  136.7820 C   0  0  0  0  0  2  0  0  0  0  0  0
  180.3540  177.7910  138.6390 N   0  0  0  0  0  0  0  0  0  0  0  0
  181.1240  176.7240  137.9760 C   0  0  2  0  0  3  0  0  0  0  0  0
  180.4240  177.7720  140.0970 C   0  0  0  0  0  2  0  0  0  0  0  0
  179.0650  175.9420  140.7350 F   0  0  0  0  0  0  0  0  0  0  0  0
  179.0950  177.3240  140.6770 C   0  0  1  0  0  3  0  0  0  0  0  0
  178.9310  177.8700  142.0140 N   0  0  0  0  0  2  0  0  0  0  0  0
  179.1220  179.3070  141.9180 C   0  0  0  0  0  2  0  0  0  0  0  0
  179.8230  179.8070  143.1660 C   0  0  0  0  0  2  0  0  0  0  0  0
  180.3660  178.6390  143.9680 C   0  0  0  0  0  2  0  0  0  0  0  0
  181.8160  178.6240  143.9060 N   0  0  0  0  0  2  0  0  0  0  0  0
  182.1910  179.7400  143.2400 O   0  0  0  0  0  1  0  0  0  0  0  0
  185.8130  176.6770  134.8190 S   0  0  0  0  0  0  0  0  0  0  0  0
  186.0990  174.9540  135.3230 C   0  0  0  0  0  2  0  0  0  0  0  0
  187.5870  174.6790  135.4030 C   0  0  1  0  0  0  0  0  0  0  0  0
  187.9050  173.4130  134.8820 O   0  0  0  0  0  0  0  0  0  0  0  0
  188.1390  174.8440  136.7990 C   0  0  0  0  0  2  0  0  0  0  0  0
  187.7460  173.4830  136.2760 C   0  0  1  0  0  3  0  0  0  0  0  0
  2 12  1  0  0  0  0
  2  6  2  0  0  0  0
  3  7  1  1  0  0  0
  4 14  1  0  0  0  0
  4 15  1  0  0  0  0
  5 15  2  0  0  0  0
  5 13  1  0  0  0  0
  6  8  1  0  0  0  0
  7 13  1  0  0  0  0
  8  3  1  0  0  0  0
  8  5  1  0  0  0  0
  9  6  1  0  0  0  0
 10  1  1  0  0  0  0
 10 23  1  0  0  0  0
 11 27  1  0  0  0  0
 11  3  1  0  0  0  0
 12 11  2  0  0  0  0
 14 10  2  0  0  0  0
 15  1  1  0  0  0  0
 17 19  1  0  0  0  0
 17 21  1  1  0  0  0
 18 17  1  0  0  0  0
 19 20  1  0  0  0  0
 19 22  1  1  0  0  0
 23 24  1  0  0  0  0
 24 16  2  6  0  0  0
 24 25  1  0  0  0  0
 24 20  1  0  0  0  0
 26 23  1  0  0  0  0
 26 18  1  0  0  0  0
 27 28  1  6  0  0  0
 29 31  1  0  0  0  0
 29 33  1  0  0  0  0
 30 32  1  0  0  0  0
 31 30  1  0  0  0  0
 32 34  1  0  0  0  0
 33 32  1  0  0  0  0
 33 27  1  1  0  0  0
 34 36  1  0  0  0  0
 36 35  1  1  0  0  0
 36 37  1  0  0  0  0
 38 37  1  0  0  0  0
 38 39  1  0  0  0  0
 39 40  1  0  0  0  0
 41 40  1  0  0  0  0
 42 41  1  0  0  0  0
 43 44  1  0  0  0  0
 43  2  1  0  0  0  0
 45 44  1  6  0  0  0
 45 48  1  0  0  0  0
 45 47  1  0  0  0  0
 46 45  1  0  0  0  0
 46 48  1  0  0  0  0
 48 47  1  1  0  0  0
M  END
>  <MODEL>
7

>  <REMARK>
 VINA RESULT:      -5.5      3.927     10.215
  Name = 
  13 active torsions:
  status: ('A' for Active; 'I' for Inactive)
    1  A    between atoms: S_1  and  C_7
    2  A    between atoms: S_1  and  C_31
    3  A    between atoms: C_3  and  N_34
    4  A    between atoms: C_3  and  C_35
    5  A    between atoms: C_10  and  C_31
    6  A    between atoms: N_11  and  C_20
    7  A    between atoms: C_20  and  C_35
    8  A    between atoms: C_21  and  C_29
    9  A    between atoms: C_21  and  C_44
   10  A    between atoms: C_27  and  C_32
   11  A    between atoms: C_27  and  N_34
   12  A    between atoms: C_28  and  N_30
   13  A    between atoms: C_32  and  N_41
                            x       y       z     vdW  Elec       q    Type
                         _______ _______ _______ _____ _____    ______ ____

>  <TORSDO>
F 13

$$$$
=
 OpenBabel11042411173D

 48 54  0  0  1  0  0  0  0  0999 V2000
  184.2930  178.6060  138.5920 S   0  0  0  0  0  0  0  0  0  0  0  0
  186.4010  177.8770  144.1880 C   0  0  0  0  0  0  0  0  0  0  0  0
  188.0530  178.2700  141.9190 C   0  0  1  0  0  3  0  0  0  0  0  0
  183.6980  178.5090  141.2510 C   0  0  0  0  0  2  0  0  0  0  0  0
  186.1250  178.7220  140.6440 C   0  0  0  0  0  0  0  0  0  0  0  0
  185.9810  178.7270  143.2350 C   0  0  0  0  0  0  0  0  0  0  0  0
  188.3420  177.9300  140.4550 C   0  0  0  0  0  2  0  0  0  0  0  0
  186.6600  178.6850  141.9690 N   0  0  0  0  0  0  0  0  0  0  0  0
  184.9900  179.8060  143.5310 C   0  0  0  0  0  1  0  0  0  0  0  0
  182.9060  177.6370  139.1860 C   0  0  0  0  0  0  0  0  0  0  0  0
  188.2590  177.1060  142.8570 C   0  0  0  0  0  0  0  0  0  0  0  0
  187.4990  176.9870  143.9110 N   0  0  0  0  0  0  0  0  0  0  0  0
  187.2050  178.5430  139.6420 C   0  0  0  0  0  2  0  0  0  0  0  0
  182.7060  177.6980  140.4980 C   0  0  0  0  0  3  0  0  0  0  0  0
  184.8220  178.7110  140.3000 C   0  0  0  0  0  0  0  0  0  0  0  0
  180.3970  179.1920  137.8500 O   0  0  0  0  0  1  0  0  0  0  0  0
  180.6680  175.2810  140.1030 C   0  0  1  0  0  3  0  0  0  0  0  0
  181.2490  174.7780  138.7630 C   0  0  0  0  0  2  0  0  0  0  0  0
  179.8840  176.6130  139.9920 C   0  0  1  0  0  3  0  0  0  0  0  0
  179.2770  176.8010  138.7400 O   0  0  0  0  0  0  0  0  0  0  0  0
  179.8520  174.2900  140.6210 F   0  0  0  0  0  0  0  0  0  0  0  0
  178.9340  176.7240  141.0080 O   0  0  0  0  0  1  0  0  0  0  0  0
  182.0310  176.8740  138.3330 N   0  0  0  0  0  0  0  0  0  0  0  0
  180.4800  177.5050  137.7630 P   0  0  2  0  0  0  0  0  0  0  0  0
  180.2640  177.0760  136.3300 O   0  0  0  0  0  0  0  0  0  0  0  0
  182.2910  175.5450  138.1690 O   0  0  0  0  0  0  0  0  0  0  0  0
  189.4330  176.1850  142.6750 C   0  0  2  0  0  3  0  0  0  0  0  0
  189.0440  174.8470  143.0910 N   0  0  0  0  0  1  0  0  0  0  0  0
  190.3670  177.7840  144.4060 C   0  0  0  0  0  2  0  0  0  0  0  0
  191.4870  178.5890  142.4280 C   0  0  0  0  0  2  0  0  0  0  0  0
  190.7180  179.0470  143.6510 C   0  0  0  0  0  2  0  0  0  0  0  0
  191.7810  177.1750  142.6050 N   0  0  0  0  0  0  0  0  0  0  0  0
  190.6990  176.6450  143.4530 C   0  0  2  0  0  3  0  0  0  0  0  0
  191.8770  176.5520  141.2880 C   0  0  0  0  0  2  0  0  0  0  0  0
  194.0640  177.1050  140.5710 F   0  0  0  0  0  0  0  0  0  0  0  0
  192.7290  177.4070  140.3670 C   0  0  1  0  0  3  0  0  0  0  0  0
  192.3770  177.1430  138.9820 N   0  0  0  0  0  2  0  0  0  0  0  0
  191.1910  176.3030  138.9930 C   0  0  0  0  0  2  0  0  0  0  0  0
  190.6610  176.1620  137.5790 C   0  0  0  0  0  2  0  0  0  0  0  0
  189.1480  176.0450  137.5940 C   0  0  0  0  0  2  0  0  0  0  0  0
  188.5640  177.0190  136.6900 N   0  0  0  0  0  2  0  0  0  0  0  0
  189.4180  178.0670  136.6400 O   0  0  0  0  0  1  0  0  0  0  0  0
  185.6500  177.8300  145.8180 S   0  0  0  0  0  0  0  0  0  0  0  0
  187.1290  177.0730  146.5550 C   0  0  0  0  0  2  0  0  0  0  0  0
  187.9410  178.1250  147.2820 C   0  0  1  0  0  0  0  0  0  0  0  0
  189.3210  177.9200  147.1110 O   0  0  0  0  0  0  0  0  0  0  0  0
  187.5880  178.2290  148.7470 C   0  0  0  0  0  2  0  0  0  0  0  0
  188.7630  177.3980  148.2890 C   0  0  1  0  0  3  0  0  0  0  0  0
  1 10  1  0  0  0  0
  1 15  1  0  0  0  0
  2 43  1  0  0  0  0
  3  7  1  6  0  0  0
  3  8  1  0  0  0  0
  3 11  1  0  0  0  0
  5  8  1  0  0  0  0
  6  9  1  0  0  0  0
  6  2  2  0  0  0  0
  8  6  1  0  0  0  0
 10 14  2  0  0  0  0
 11 12  2  0  0  0  0
 12  2  1  0  0  0  0
 13  7  1  0  0  0  0
 13  5  1  0  0  0  0
 14  4  1  0  0  0  0
 15  5  2  0  0  0  0
 15  4  1  0  0  0  0
 17 21  1  6  0  0  0
 18 17  1  0  0  0  0
 19 17  1  0  0  0  0
 19 22  1  1  0  0  0
 20 19  1  0  0  0  0
 23 10  1  0  0  0  0
 24 25  2  6  0  0  0
 24 16  1  0  0  0  0
 24 23  1  0  0  0  0
 24 20  1  0  0  0  0
 26 23  1  0  0  0  0
 26 18  1  0  0  0  0
 27 11  1  0  0  0  0
 27 28  1  1  0  0  0
 30 32  1  0  0  0  0
 30 31  1  0  0  0  0
 31 29  1  0  0  0  0
 32 33  1  0  0  0  0
 33 27  1  6  0  0  0
 33 29  1  0  0  0  0
 34 32  1  0  0  0  0
 36 35  1  6  0  0  0
 36 34  1  0  0  0  0
 37 38  1  0  0  0  0
 37 36  1  0  0  0  0
 39 40  1  0  0  0  0
 39 38  1  0  0  0  0
 41 40  1  0  0  0  0
 42 41  1  0  0  0  0
 43 44  1  0  0  0  0
 45 44  1  6  0  0  0
 45 48  1  0  0  0  0
 45 47  1  0  0  0  0
 46 45  1  0  0  0  0
 46 48  1  0  0  0  0
 48 47  1  1  0  0  0
M  END
>  <MODEL>
8

>  <REMARK>
 VINA RESULT:      -5.2      1.703      2.287
  Name = 
  13 active torsions:
  status: ('A' for Active; 'I' for Inactive)
    1  A    between atoms: S_1  and  C_7
    2  A    between atoms: S_1  and  C_31
    3  A    between atoms: C_3  and  N_34
    4  A    between atoms: C_3  and  C_35
    5  A    between atoms: C_10  and  C_31
    6  A    between atoms: N_11  and  C_20
    7  A    between atoms: C_20  and  C_35
    8  A    between atoms: C_21  and  C_29
    9  A    between atoms: C_21  and  C_44
   10  A    between atoms: C_27  and  C_32
   11  A    between atoms: C_27  and  N_34
   12  A    between atoms: C_28  and  N_30
   13  A    between atoms: C_32  and  N_41
                            x       y       z     vdW  Elec       q    Type
                         _______ _______ _______ _____ _____    ______ ____

>  <TORSDO>
F 13

$$$$
=
 OpenBabel11042411173D

 48 54  0  0  1  0  0  0  0  0999 V2000
  181.9770  178.7860  139.1590 S   0  0  0  0  0  0  0  0  0  0  0  0
  185.0960  178.2880  144.2900 C   0  0  0  0  0  0  0  0  0  0  0  0
  186.2610  178.9530  141.7930 C   0  0  1  0  0  3  0  0  0  0  0  0
  181.8670  178.5620  141.8740 C   0  0  0  0  0  2  0  0  0  0  0  0
  184.0990  179.1380  140.8790 C   0  0  0  0  0  0  0  0  0  0  0  0
  184.4020  179.0810  143.4550 C   0  0  0  0  0  0  0  0  0  0  0  0
  186.3400  178.6820  140.2890 C   0  0  0  0  0  2  0  0  0  0  0  0
  184.8530  179.1590  142.0930 N   0  0  0  0  0  0  0  0  0  0  0  0
  183.3340  179.9990  143.9560 C   0  0  0  0  0  1  0  0  0  0  0  0
  180.8650  177.6140  139.9380 C   0  0  0  0  0  0  0  0  0  0  0  0
  186.7880  177.8180  142.6360 C   0  0  0  0  0  0  0  0  0  0  0  0
  186.2450  177.5720  143.7970 N   0  0  0  0  0  0  0  0  0  0  0  0
  185.0060  179.1340  139.7040 C   0  0  0  0  0  2  0  0  0  0  0  0
  180.8850  177.6250  141.2660 C   0  0  0  0  0  3  0  0  0  0  0  0
  182.7720  178.9400  140.7580 C   0  0  0  0  0  0  0  0  0  0  0  0
  181.2910  174.4200  140.2790 O   0  0  0  0  0  1  0  0  0  0  0  0
  180.8080  177.0240  136.6140 C   0  0  1  0  0  3  0  0  0  0  0  0
  179.3250  177.0130  137.0460 C   0  0  0  0  0  2  0  0  0  0  0  0
  181.6600  175.8960  137.2470 C   0  0  1  0  0  3  0  0  0  0  0  0
  180.9220  174.7350  137.5350 O   0  0  0  0  0  0  0  0  0  0  0  0
  180.8580  176.9420  135.2340 F   0  0  0  0  0  0  0  0  0  0  0  0
  182.7560  175.5810  136.4430 O   0  0  0  0  0  1  0  0  0  0  0  0
  179.9730  176.7450  139.2130 N   0  0  0  0  0  0  0  0  0  0  0  0
  180.2540  175.0030  139.0770 P   0  0  2  0  0  0  0  0  0  0  0  0
  178.9320  174.2770  139.1750 O   0  0  0  0  0  0  0  0  0  0  0  0
  179.0340  177.3160  138.4060 O   0  0  0  0  0  0  0  0  0  0  0  0
  188.0320  177.0820  142.2230 C   0  0  2  0  0  3  0  0  0  0  0  0
  188.5680  176.3870  143.3830 N   0  0  0  0  0  1  0  0  0  0  0  0
  189.4260  177.6010  140.1710 C   0  0  0  0  0  2  0  0  0  0  0  0
  191.1510  176.8720  141.6900 C   0  0  0  0  0  2  0  0  0  0  0  0
  190.6470  176.7140  140.2690 C   0  0  0  0  0  2  0  0  0  0  0  0
  190.4180  177.9760  142.2900 N   0  0  0  0  0  0  0  0  0  0  0  0
  189.1150  178.0100  141.6020 C   0  0  2  0  0  3  0  0  0  0  0  0
  190.3360  177.7520  143.7300 C   0  0  0  0  0  2  0  0  0  0  0  0
  191.9060  179.4150  144.3430 F   0  0  0  0  0  0  0  0  0  0  0  0
  191.6750  178.0510  144.3810 C   0  0  1  0  0  3  0  0  0  0  0  0
  191.6640  177.5990  145.7620 N   0  0  0  0  0  2  0  0  0  0  0  0
  191.5640  176.1500  145.7390 C   0  0  0  0  0  2  0  0  0  0  0  0
  191.6620  175.6150  147.1550 C   0  0  0  0  0  2  0  0  0  0  0  0
  192.2750  176.6590  148.0700 C   0  0  0  0  0  2  0  0  0  0  0  0
  193.5320  176.1700  148.6100 N   0  0  0  0  0  2  0  0  0  0  0  0
  193.8460  176.9700  149.6550 O   0  0  0  0  0  1  0  0  0  0  0  0
  184.6500  178.1060  146.0190 S   0  0  0  0  0  0  0  0  0  0  0  0
  186.2160  178.8450  146.5720 C   0  0  0  0  0  2  0  0  0  0  0  0
  186.9990  177.8410  147.3930 C   0  0  1  0  0  0  0  0  0  0  0  0
  187.8990  178.4780  148.2650 O   0  0  0  0  0  0  0  0  0  0  0  0
  187.7080  176.8140  146.5410 C   0  0  0  0  0  2  0  0  0  0  0  0
  188.4340  178.0410  147.0420 C   0  0  1  0  0  3  0  0  0  0  0  0
  1 10  1  0  0  0  0
  1 15  1  0  0  0  0
  2 43  1  0  0  0  0
  3  7  1  6  0  0  0
  3  8  1  0  0  0  0
  3 11  1  0  0  0  0
  5  8  1  0  0  0  0
  6  9  1  0  0  0  0
  6  2  2  0  0  0  0
  8  6  1  0  0  0  0
 10 14  2  0  0  0  0
 11 12  2  0  0  0  0
 12  2  1  0  0  0  0
 13  7  1  0  0  0  0
 13  5  1  0  0  0  0
 14  4  1  0  0  0  0
 15  5  2  0  0  0  0
 15  4  1  0  0  0  0
 17 21  1  6  0  0  0
 17 18  1  0  0  0  0
 17 19  1  0  0  0  0
 18 26  1  0  0  0  0
 19 22  1  6  0  0  0
 19 20  1  0  0  0  0
 20 24  1  0  0  0  0
 23 10  1  0  0  0  0
 24 25  2  1  0  0  0
 24 23  1  0  0  0  0
 24 16  1  0  0  0  0
 26 23  1  0  0  0  0
 27 11  1  0  0  0  0
 27 28  1  1  0  0  0
 29 31  1  0  0  0  0
 29 33  1  0  0  0  0
 30 32  1  0  0  0  0
 31 30  1  0  0  0  0
 32 34  1  0  0  0  0
 33 27  1  1  0  0  0
 33 32  1  0  0  0  0
 34 36  1  0  0  0  0
 36 35  1  1  0  0  0
 36 37  1  0  0  0  0
 38 37  1  0  0  0  0
 38 39  1  0  0  0  0
 39 40  1  0  0  0  0
 40 41  1  0  0  0  0
 41 42  1  0  0  0  0
 43 44  1  0  0  0  0
 45 44  1  6  0  0  0
 45 46  1  0  0  0  0
 47 45  1  0  0  0  0
 48 47  1  1  0  0  0
 48 45  1  0  0  0  0
 48 46  1  0  0  0  0
M  END
>  <MODEL>
9

>  <REMARK>
 VINA RESULT:      -5.2      2.036      4.214
  Name = 
  13 active torsions:
  status: ('A' for Active; 'I' for Inactive)
    1  A    between atoms: S_1  and  C_7
    2  A    between atoms: S_1  and  C_31
    3  A    between atoms: C_3  and  N_34
    4  A    between atoms: C_3  and  C_35
    5  A    between atoms: C_10  and  C_31
    6  A    between atoms: N_11  and  C_20
    7  A    between atoms: C_20  and  C_35
    8  A    between atoms: C_21  and  C_29
    9  A    between atoms: C_21  and  C_44
   10  A    between atoms: C_27  and  C_32
   11  A    between atoms: C_27  and  N_34
   12  A    between atoms: C_28  and  N_30
   13  A    between atoms: C_32  and  N_41
                            x       y       z     vdW  Elec       q    Type
                         _______ _______ _______ _____ _____    ______ ____

>  <TORSDO>
F 13

$$$$
