=
 OpenBabel11042412093D

 37 41  0  0  1  0  0  0  0  0999 V2000
  190.8830  176.8870  139.2360 C   0  0  0  0  0  0  0  0  0  0  0  0
  188.5720  177.2610  138.1030 C   0  0  1  0  0  3  0  0  0  0  0  0
  190.0470  176.9900  138.0870 C   0  0  0  0  0  0  0  0  0  0  0  0
  190.6200  176.6790  136.8390 C   0  0  0  0  0  3  0  0  0  0  0  0
  185.8090  177.5460  138.0510 C   0  0  2  0  0  3  0  0  0  0  0  0
  188.6360  177.0920  142.3430 C   0  0  2  0  0  3  0  0  0  0  0  0
  188.0890  179.3210  141.1320 C   0  0  0  0  0  2  0  0  0  0  0  0
  192.2150  176.4840  139.0810 C   0  0  0  0  0  3  0  0  0  0  0  0
  188.6340  178.9550  139.8630 O   0  0  0  0  0  0  0  0  0  0  0  0
  192.7230  176.1800  137.8160 C   0  0  0  0  0  0  0  0  0  0  0  0
  186.4210  176.6680  137.2160 N   0  0  0  0  0  0  0  0  0  0  0  0
  187.7680  176.5200  137.2250 C   0  0  0  0  0  3  0  0  0  0  0  0
  186.5620  178.2960  138.8970 N   0  0  0  0  0  0  0  0  0  0  0  0
  187.9180  178.1860  138.9440 C   0  0  0  0  0  0  0  0  0  0  0  0
  189.3650  176.3840  141.1930 C   0  0  0  0  0  2  0  0  0  0  0  0
  190.4860  177.2460  140.6310 C   0  0  0  0  0  2  0  0  0  0  0  0
  187.5620  178.0920  141.8890 C   0  0  0  0  0  2  0  0  0  0  0  0
  191.9170  176.2930  136.7290 N   0  0  0  0  0  0  0  0  0  0  0  0
  184.3360  177.6610  138.0630 C   0  0  0  0  0  0  0  0  0  0  0  0
  181.6410  178.6890  140.3300 F   0  0  0  0  0  0  0  0  0  0  0  0
  182.1960  177.5010  136.9160 C   0  0  0  0  0  3  0  0  0  0  0  0
  181.5400  177.9420  138.0680 C   0  0  0  0  0  3  0  0  0  0  0  0
  183.5890  177.3640  136.9120 C   0  0  0  0  0  3  0  0  0  0  0  0
  183.6660  178.1070  139.2150 C   0  0  0  0  0  3  0  0  0  0  0  0
  182.2760  178.2430  139.2190 C   0  0  0  0  0  0  0  0  0  0  0  0
  194.7740  175.8830  136.4520 O   0  0  0  0  0  0  0  0  0  0  0  0
  194.1060  175.7180  137.6610 C   0  0  0  0  0  0  0  0  0  0  0  0
  194.7110  175.1890  138.6310 O   0  0  0  0  0  1  0  0  0  0  0  0
  189.5670  177.6800  143.3940 C   0  0  0  0  0  2  0  0  0  0  0  0
  189.7300  176.6920  144.5320 C   0  0  0  0  0  2  0  0  0  0  0  0
  189.7380  177.3290  146.9570 C   0  0  0  0  0  0  0  0  0  0  0  0
  187.7160  178.1220  148.0150 C   0  0  0  0  0  3  0  0  0  0  0  0
  189.0720  177.7950  148.0900 C   0  0  0  0  0  3  0  0  0  0  0  0
  191.0550  177.0100  147.0330 F   0  0  0  0  0  0  0  0  0  0  0  0
  187.7110  177.5140  145.7020 N   0  0  0  0  0  0  0  0  0  0  0  0
  187.0450  177.9710  146.7970 C   0  0  0  0  0  3  0  0  0  0  0  0
  189.0340  177.1900  145.7530 C   0  0  0  0  0  0  0  0  0  0  0  0
  1 16  1  0  0  0  0
  2 12  1  1  0  0  0
  2 14  1  0  0  0  0
  3  2  1  0  0  0  0
  3  1  2  0  0  0  0
  4  3  1  0  0  0  0
  5 19  1  1  0  0  0
  5 13  1  0  0  0  0
  6 29  1  6  0  0  0
  7 17  1  0  0  0  0
  8  1  1  0  0  0  0
  9  7  1  0  0  0  0
 10  8  2  0  0  0  0
 11 12  2  0  0  0  0
 11  5  1  0  0  0  0
 13 14  2  0  0  0  0
 14  9  1  0  0  0  0
 15  6  1  0  0  0  0
 16 15  1  0  0  0  0
 17  6  1  0  0  0  0
 18  4  2  0  0  0  0
 18 10  1  0  0  0  0
 19 24  1  0  0  0  0
 21 22  2  0  0  0  0
 22 25  1  0  0  0  0
 23 21  1  0  0  0  0
 23 19  2  0  0  0  0
 24 25  2  0  0  0  0
 25 20  1  0  0  0  0
 26 27  2  0  0  0  0
 27 10  1  0  0  0  0
 27 28  1  0  0  0  0
 29 30  1  0  0  0  0
 30 37  1  0  0  0  0
 31 34  1  0  0  0  0
 31 33  1  0  0  0  0
 32 33  2  0  0  0  0
 35 37  1  0  0  0  0
 35 36  2  0  0  0  0
 36 32  1  0  0  0  0
 37 31  2  0  0  0  0
M  END
>  <MODEL>
1

>  <REMARK>
 VINA RESULT:      -8.6      0.000      0.000
  Name = 
  5 active torsions:
  status: ('A' for Active; 'I' for Inactive)
    1  A    between atoms: C_3  and  C_7
    2  A    between atoms: C_10  and  C_25
    3  A    between atoms: CA_16  and  C_21
    4  A    between atoms: C_22  and  C_25
    5  A    between atoms: C_22  and  C_36
                            x       y       z     vdW  Elec       q    Type
                         _______ _______ _______ _____ _____    ______ ____

>  <TORSDO>
F 5

$$$$
=
 OpenBabel11042412093D

 37 41  0  0  1  0  0  0  0  0999 V2000
  190.6860  176.9440  145.3950 C   0  0  0  0  0  0  0  0  0  0  0  0
  188.1080  177.2240  145.1810 C   0  0  1  0  0  3  0  0  0  0  0  0
  189.3690  176.9400  145.9420 C   0  0  0  0  0  0  0  0  0  0  0  0
  189.2480  176.7920  147.3360 C   0  0  0  0  0  3  0  0  0  0  0  0
  185.7520  177.9460  143.9000 C   0  0  2  0  0  3  0  0  0  0  0  0
  190.4390  178.1300  141.7520 C   0  0  2  0  0  3  0  0  0  0  0  0
  188.8670  176.0640  141.7560 C   0  0  0  0  0  2  0  0  0  0  0  0
  191.7840  176.8060  146.2520 C   0  0  0  0  0  3  0  0  0  0  0  0
  188.7230  175.9720  143.1740 O   0  0  0  0  0  0  0  0  0  0  0  0
  191.5980  176.6720  147.6310 C   0  0  0  0  0  0  0  0  0  0  0  0
  186.0030  178.3780  145.1610 N   0  0  0  0  0  0  0  0  0  0  0  0
  187.1450  178.0310  145.8030 C   0  0  0  0  0  3  0  0  0  0  0  0
  186.6550  177.1430  143.2780 N   0  0  0  0  0  0  0  0  0  0  0  0
  187.8160  176.7660  143.8790 C   0  0  0  0  0  0  0  0  0  0  0  0
  190.5830  178.3060  143.2700 C   0  0  0  0  0  2  0  0  0  0  0  0
  191.0190  177.0120  143.9410 C   0  0  0  0  0  2  0  0  0  0  0  0
  189.1010  177.5160  141.3110 C   0  0  0  0  0  2  0  0  0  0  0  0
  190.3370  176.6590  148.1350 N   0  0  0  0  0  0  0  0  0  0  0  0
  184.5240  178.3710  143.1960 C   0  0  0  0  0  0  0  0  0  0  0  0
  183.2430  178.6860  139.7730 F   0  0  0  0  0  0  0  0  0  0  0  0
  182.2160  179.1410  143.2540 C   0  0  0  0  0  3  0  0  0  0  0  0
  182.1690  179.1200  141.8570 C   0  0  0  0  0  3  0  0  0  0  0  0
  183.3880  178.7660  143.9210 C   0  0  0  0  0  3  0  0  0  0  0  0
  184.4640  178.3510  141.7920 C   0  0  0  0  0  3  0  0  0  0  0  0
  183.2950  178.7250  141.1260 C   0  0  0  0  0  0  0  0  0  0  0  0
  193.0180  177.5770  149.4520 O   0  0  0  0  0  1  0  0  0  0  0  0
  192.7520  176.5700  148.5300 C   0  0  0  0  0  0  0  0  0  0  0  0
  193.4990  175.5560  148.4930 O   0  0  0  0  0  0  0  0  0  0  0  0
  191.6310  177.4480  141.0950 C   0  0  0  0  0  2  0  0  0  0  0  0
  191.6450  177.7750  139.6140 C   0  0  0  0  0  2  0  0  0  0  0  0
  191.1800  175.6820  138.3140 C   0  0  0  0  0  0  0  0  0  0  0  0
  193.0010  174.4070  137.3670 C   0  0  0  0  0  3  0  0  0  0  0  0
  191.6320  174.5830  137.5820 C   0  0  0  0  0  3  0  0  0  0  0  0
  189.8500  175.8500  138.5230 F   0  0  0  0  0  0  0  0  0  0  0  0
  193.4400  176.4030  138.6070 N   0  0  0  0  0  0  0  0  0  0  0  0
  193.9010  175.3390  137.8960 C   0  0  0  0  0  3  0  0  0  0  0  0
  192.1100  176.5950  138.8280 C   0  0  0  0  0  0  0  0  0  0  0  0
  1  3  2  0  0  0  0
  1  8  1  0  0  0  0
  2 12  1  6  0  0  0
  2  3  1  0  0  0  0
  3  4  1  0  0  0  0
  4 18  2  0  0  0  0
  5 19  1  6  0  0  0
  5 11  1  0  0  0  0
  6 29  1  1  0  0  0
  6 15  1  0  0  0  0
  7  9  1  0  0  0  0
  8 10  2  0  0  0  0
  9 14  1  0  0  0  0
 10 18  1  0  0  0  0
 10 27  1  0  0  0  0
 11 12  2  0  0  0  0
 13 14  2  0  0  0  0
 13  5  1  0  0  0  0
 14  2  1  0  0  0  0
 15 16  1  0  0  0  0
 16  1  1  0  0  0  0
 17  6  1  0  0  0  0
 17  7  1  0  0  0  0
 19 23  1  0  0  0  0
 20 25  1  0  0  0  0
 21 23  2  0  0  0  0
 22 21  1  0  0  0  0
 24 19  2  0  0  0  0
 25 24  1  0  0  0  0
 25 22  2  0  0  0  0
 27 26  1  0  0  0  0
 28 27  2  0  0  0  0
 30 29  1  0  0  0  0
 31 34  1  0  0  0  0
 31 37  1  0  0  0  0
 32 33  1  0  0  0  0
 32 36  2  0  0  0  0
 33 31  2  0  0  0  0
 35 37  2  0  0  0  0
 36 35  1  0  0  0  0
 37 30  1  0  0  0  0
M  END
>  <MODEL>
2

>  <REMARK>
 VINA RESULT:      -8.6      3.551      7.581
  Name = 
  5 active torsions:
  status: ('A' for Active; 'I' for Inactive)
    1  A    between atoms: C_3  and  C_7
    2  A    between atoms: C_10  and  C_25
    3  A    between atoms: CA_16  and  C_21
    4  A    between atoms: C_22  and  C_25
    5  A    between atoms: C_22  and  C_36
                            x       y       z     vdW  Elec       q    Type
                         _______ _______ _______ _____ _____    ______ ____

>  <TORSDO>
F 5

$$$$
=
 OpenBabel11042412093D

 37 41  0  0  1  0  0  0  0  0999 V2000
  189.0290  177.5100  144.4140 C   0  0  0  0  0  0  0  0  0  0  0  0
  189.5370  177.5920  141.8640 C   0  0  1  0  0  3  0  0  0  0  0  0
  189.9270  177.4780  143.3080 C   0  0  0  0  0  0  0  0  0  0  0  0
  191.2770  177.1800  143.5770 C   0  0  0  0  0  3  0  0  0  0  0  0
  188.8810  177.5790  139.1650 C   0  0  2  0  0  3  0  0  0  0  0  0
  185.4530  177.5980  143.0200 C   0  0  2  0  0  3  0  0  0  0  0  0
  186.5080  179.7070  141.9370 C   0  0  0  0  0  2  0  0  0  0  0  0
  189.5170  177.2450  145.7000 C   0  0  0  0  0  3  0  0  0  0  0  0
  187.8700  179.3520  142.1790 O   0  0  0  0  0  0  0  0  0  0  0  0
  190.8670  176.9460  145.9010 C   0  0  0  0  0  0  0  0  0  0  0  0
  189.8340  176.7390  139.6400 N   0  0  0  0  0  0  0  0  0  0  0  0
  190.1700  176.7350  140.9530 C   0  0  0  0  0  3  0  0  0  0  0  0
  188.2640  178.4380  140.0190 N   0  0  0  0  0  0  0  0  0  0  0  0
  188.5660  178.4740  141.3450 C   0  0  0  0  0  0  0  0  0  0  0  0
  186.7440  176.9270  143.5090 C   0  0  0  0  0  2  0  0  0  0  0  0
  187.5840  177.8800  144.3460 C   0  0  0  0  0  2  0  0  0  0  0  0
  185.6270  178.4610  141.7610 C   0  0  0  0  0  2  0  0  0  0  0  0
  191.7120  176.9310  144.8380 N   0  0  0  0  0  0  0  0  0  0  0  0
  188.4930  177.5380  137.7400 C   0  0  0  0  0  0  0  0  0  0  0  0
  185.4580  177.5510  135.6780 F   0  0  0  0  0  0  0  0  0  0  0  0
  189.1030  177.5230  135.3840 C   0  0  0  0  0  3  0  0  0  0  0  0
  187.7520  177.5230  135.0290 C   0  0  0  0  0  3  0  0  0  0  0  0
  189.4730  177.5330  136.7350 C   0  0  0  0  0  3  0  0  0  0  0  0
  187.1360  177.5410  137.3710 C   0  0  0  0  0  3  0  0  0  0  0  0
  186.7680  177.5310  136.0230 C   0  0  0  0  0  0  0  0  0  0  0  0
  191.7120  175.3220  147.5750 O   0  0  0  0  0  0  0  0  0  0  0  0
  191.3660  176.6280  147.2430 C   0  0  0  0  0  0  0  0  0  0  0  0
  191.5090  177.5400  148.1000 O   0  0  0  0  0  1  0  0  0  0  0  0
  184.6830  178.3230  144.1160 C   0  0  0  0  0  2  0  0  0  0  0  0
  183.8740  179.4480  143.5010 C   0  0  0  0  0  2  0  0  0  0  0  0
  181.9970  178.8490  141.9490 C   0  0  0  0  0  0  0  0  0  0  0  0
  179.8530  178.1750  142.8350 C   0  0  0  0  0  3  0  0  0  0  0  0
  180.6820  178.4340  141.7410 C   0  0  0  0  0  3  0  0  0  0  0  0
  182.8010  179.1020  140.8850 F   0  0  0  0  0  0  0  0  0  0  0  0
  181.6440  178.7470  144.3120 N   0  0  0  0  0  0  0  0  0  0  0  0
  180.3580  178.3410  144.1290 C   0  0  0  0  0  3  0  0  0  0  0  0
  182.4700  179.0040  143.2590 C   0  0  0  0  0  0  0  0  0  0  0  0
  1  8  1  0  0  0  0
  2 12  1  1  0  0  0
  2  3  1  0  0  0  0
  3  4  1  0  0  0  0
  3  1  2  0  0  0  0
  4 18  2  0  0  0  0
  5 19  1  1  0  0  0
  5 11  1  0  0  0  0
  5 13  1  0  0  0  0
  6 15  1  0  0  0  0
  6 29  1  1  0  0  0
  7  9  1  0  0  0  0
  8 10  2  0  0  0  0
 10 27  1  0  0  0  0
 11 12  2  0  0  0  0
 13 14  2  0  0  0  0
 14  2  1  0  0  0  0
 14  9  1  0  0  0  0
 15 16  1  0  0  0  0
 16  1  1  0  0  0  0
 17  7  1  0  0  0  0
 17  6  1  0  0  0  0
 18 10  1  0  0  0  0
 20 25  1  0  0  0  0
 21 23  1  0  0  0  0
 22 21  2  0  0  0  0
 22 25  1  0  0  0  0
 23 19  2  0  0  0  0
 24 19  1  0  0  0  0
 25 24  2  0  0  0  0
 27 26  2  0  0  0  0
 27 28  1  0  0  0  0
 30 29  1  0  0  0  0
 31 37  1  0  0  0  0
 32 36  2  0  0  0  0
 33 31  2  0  0  0  0
 33 32  1  0  0  0  0
 34 31  1  0  0  0  0
 36 35  1  0  0  0  0
 37 30  1  0  0  0  0
 37 35  2  0  0  0  0
M  END
>  <MODEL>
3

>  <REMARK>
 VINA RESULT:      -8.6      3.677      6.592
  Name = 
  5 active torsions:
  status: ('A' for Active; 'I' for Inactive)
    1  A    between atoms: C_3  and  C_7
    2  A    between atoms: C_10  and  C_25
    3  A    between atoms: CA_16  and  C_21
    4  A    between atoms: C_22  and  C_25
    5  A    between atoms: C_22  and  C_36
                            x       y       z     vdW  Elec       q    Type
                         _______ _______ _______ _____ _____    ______ ____

>  <TORSDO>
F 5

$$$$
=
 OpenBabel11042412093D

 37 41  0  0  1  0  0  0  0  0999 V2000
  182.4900  178.6080  141.6560 C   0  0  0  0  0  0  0  0  0  0  0  0
  185.0470  178.6180  142.1310 C   0  0  1  0  0  3  0  0  0  0  0  0
  183.6090  178.7970  142.5170 C   0  0  0  0  0  0  0  0  0  0  0  0
  183.3450  179.0390  143.8790 C   0  0  0  0  0  3  0  0  0  0  0  0
  187.7160  178.1020  141.5600 C   0  0  2  0  0  3  0  0  0  0  0  0
  183.8000  177.2480  138.3120 C   0  0  2  0  0  3  0  0  0  0  0  0
  185.1060  179.4790  138.5390 C   0  0  0  0  0  2  0  0  0  0  0  0
  181.1970  178.6670  142.1890 C   0  0  0  0  0  3  0  0  0  0  0  0
  184.8630  179.6700  139.9330 O   0  0  0  0  0  0  0  0  0  0  0  0
  181.0000  178.9020  143.5530 C   0  0  0  0  0  0  0  0  0  0  0  0
  187.1860  177.7180  142.7490 N   0  0  0  0  0  0  0  0  0  0  0  0
  185.8870  177.9660  143.0450 C   0  0  0  0  0  3  0  0  0  0  0  0
  186.9350  178.7560  140.6620 N   0  0  0  0  0  0  0  0  0  0  0  0
  185.6260  179.0300  140.9120 C   0  0  0  0  0  0  0  0  0  0  0  0
  183.2800  177.1450  139.7530 C   0  0  0  0  0  2  0  0  0  0  0  0
  182.5590  178.4160  140.1760 C   0  0  0  0  0  2  0  0  0  0  0  0
  185.1400  177.9860  138.1760 C   0  0  0  0  0  2  0  0  0  0  0  0
  182.0760  179.0910  144.3590 N   0  0  0  0  0  0  0  0  0  0  0  0
  189.1210  177.7820  141.2320 C   0  0  0  0  0  0  0  0  0  0  0  0
  191.2100  177.0970  138.2940 F   0  0  0  0  0  0  0  0  0  0  0  0
  191.4300  177.4540  141.9280 C   0  0  0  0  0  3  0  0  0  0  0  0
  191.8050  177.2360  140.6000 C   0  0  0  0  0  3  0  0  0  0  0  0
  190.0940  177.7280  142.2440 C   0  0  0  0  0  3  0  0  0  0  0  0
  189.5100  177.5640  139.8990 C   0  0  0  0  0  3  0  0  0  0  0  0
  190.8430  177.2900  139.5850 C   0  0  0  0  0  0  0  0  0  0  0  0
  179.1340  177.7980  144.7580 O   0  0  0  0  0  1  0  0  0  0  0  0
  179.6460  178.9210  144.1160 C   0  0  0  0  0  0  0  0  0  0  0  0
  178.9430  179.9640  144.0450 O   0  0  0  0  0  0  0  0  0  0  0  0
  182.7620  177.7460  137.3170 C   0  0  0  0  0  2  0  0  0  0  0  0
  182.1410  176.5620  136.6020 C   0  0  0  0  0  2  0  0  0  0  0  0
  181.1120  174.6500  137.8560 C   0  0  0  0  0  0  0  0  0  0  0  0
  178.9780  174.9220  138.9540 C   0  0  0  0  0  3  0  0  0  0  0  0
  180.0730  174.1220  138.6220 C   0  0  0  0  0  3  0  0  0  0  0  0
  182.1760  173.8710  137.5340 F   0  0  0  0  0  0  0  0  0  0  0  0
  179.9610  176.7430  137.7580 N   0  0  0  0  0  0  0  0  0  0  0  0
  178.9380  176.2460  138.5040 C   0  0  0  0  0  3  0  0  0  0  0  0
  181.0400  175.9810  137.4240 C   0  0  0  0  0  0  0  0  0  0  0  0
  1  8  2  0  0  0  0
  1  3  1  0  0  0  0
  2  3  1  0  0  0  0
  2 12  1  6  0  0  0
  3  4  2  0  0  0  0
  4 18  1  0  0  0  0
  5 19  1  6  0  0  0
  5 11  1  0  0  0  0
  6 29  1  6  0  0  0
  6 15  1  0  0  0  0
  7  9  1  0  0  0  0
  8 10  1  0  0  0  0
  9 14  1  0  0  0  0
 10 27  1  0  0  0  0
 10 18  2  0  0  0  0
 11 12  2  0  0  0  0
 13 14  2  0  0  0  0
 13  5  1  0  0  0  0
 14  2  1  0  0  0  0
 15 16  1  0  0  0  0
 16  1  1  0  0  0  0
 17  6  1  0  0  0  0
 17  7  1  0  0  0  0
 19 23  1  0  0  0  0
 20 25  1  0  0  0  0
 21 23  2  0  0  0  0
 22 21  1  0  0  0  0
 24 19  2  0  0  0  0
 25 24  1  0  0  0  0
 25 22  2  0  0  0  0
 27 26  1  0  0  0  0
 28 27  2  0  0  0  0
 30 29  1  0  0  0  0
 30 37  1  0  0  0  0
 31 33  1  0  0  0  0
 33 32  2  0  0  0  0
 34 31  1  0  0  0  0
 35 36  2  0  0  0  0
 36 32  1  0  0  0  0
 37 35  1  0  0  0  0
 37 31  2  0  0  0  0
M  END
>  <MODEL>
4

>  <REMARK>
 VINA RESULT:      -8.5      4.148     10.084
  Name = 
  5 active torsions:
  status: ('A' for Active; 'I' for Inactive)
    1  A    between atoms: C_3  and  C_7
    2  A    between atoms: C_10  and  C_25
    3  A    between atoms: CA_16  and  C_21
    4  A    between atoms: C_22  and  C_25
    5  A    between atoms: C_22  and  C_36
                            x       y       z     vdW  Elec       q    Type
                         _______ _______ _______ _____ _____    ______ ____

>  <TORSDO>
F 5

$$$$
=
 OpenBabel11042412093D

 37 41  0  0  1  0  0  0  0  0999 V2000
  182.5470  178.5720  141.6970 C   0  0  0  0  0  0  0  0  0  0  0  0
  185.1050  178.6080  142.1640 C   0  0  1  0  0  3  0  0  0  0  0  0
  183.6670  178.7760  142.5540 C   0  0  0  0  0  0  0  0  0  0  0  0
  183.4050  179.0250  143.9140 C   0  0  0  0  0  3  0  0  0  0  0  0
  187.7770  178.1140  141.5880 C   0  0  2  0  0  3  0  0  0  0  0  0
  183.8590  177.2040  138.3580 C   0  0  2  0  0  3  0  0  0  0  0  0
  185.1460  179.4480  138.5660 C   0  0  0  0  0  2  0  0  0  0  0  0
  181.2550  178.6220  142.2340 C   0  0  0  0  0  3  0  0  0  0  0  0
  184.9050  179.6460  139.9600 O   0  0  0  0  0  0  0  0  0  0  0  0
  181.0600  178.8640  143.5960 C   0  0  0  0  0  0  0  0  0  0  0  0
  187.2540  177.7320  142.7800 N   0  0  0  0  0  0  0  0  0  0  0  0
  185.9540  177.9690  143.0790 C   0  0  0  0  0  3  0  0  0  0  0  0
  186.9870  178.7550  140.6880 N   0  0  0  0  0  0  0  0  0  0  0  0
  185.6760  179.0180  140.9400 C   0  0  0  0  0  0  0  0  0  0  0  0
  183.3440  177.1050  139.8000 C   0  0  0  0  0  2  0  0  0  0  0  0
  182.6130  178.3720  140.2180 C   0  0  0  0  0  2  0  0  0  0  0  0
  185.1920  177.9540  138.2120 C   0  0  0  0  0  2  0  0  0  0  0  0
  182.1370  179.0680  144.3980 N   0  0  0  0  0  0  0  0  0  0  0  0
  189.1840  177.8040  141.2580 C   0  0  0  0  0  0  0  0  0  0  0  0
  191.2530  177.0320  138.3280 F   0  0  0  0  0  0  0  0  0  0  0  0
  191.5060  177.5470  141.9400 C   0  0  0  0  0  3  0  0  0  0  0  0
  191.8700  177.2790  140.6180 C   0  0  0  0  0  3  0  0  0  0  0  0
  190.1690  177.8110  142.2590 C   0  0  0  0  0  3  0  0  0  0  0  0
  189.5620  177.5370  139.9310 C   0  0  0  0  0  3  0  0  0  0  0  0
  190.8960  177.2730  139.6130 C   0  0  0  0  0  0  0  0  0  0  0  0
  178.9310  180.0270  144.1150 O   0  0  0  0  0  0  0  0  0  0  0  0
  179.7080  178.8740  144.1640 C   0  0  0  0  0  0  0  0  0  0  0  0
  179.2270  177.8290  144.6790 O   0  0  0  0  0  1  0  0  0  0  0  0
  182.8130  177.6870  137.3620 C   0  0  0  0  0  2  0  0  0  0  0  0
  182.9800  176.9370  136.0550 C   0  0  0  0  0  2  0  0  0  0  0  0
  184.1010  174.6950  136.1130 C   0  0  0  0  0  0  0  0  0  0  0  0
  182.8530  172.7260  136.7460 C   0  0  0  0  0  3  0  0  0  0  0  0
  184.0500  173.3200  136.3400 C   0  0  0  0  0  3  0  0  0  0  0  0
  185.2650  175.2710  135.7170 F   0  0  0  0  0  0  0  0  0  0  0  0
  181.7870  174.8650  136.6900 N   0  0  0  0  0  0  0  0  0  0  0  0
  181.7180  173.5250  136.9160 C   0  0  0  0  0  3  0  0  0  0  0  0
  182.9440  175.4650  136.2940 C   0  0  0  0  0  0  0  0  0  0  0  0
  1  8  2  0  0  0  0
  1  3  1  0  0  0  0
  2  3  1  0  0  0  0
  2 12  1  6  0  0  0
  3  4  2  0  0  0  0
  4 18  1  0  0  0  0
  5 19  1  6  0  0  0
  5 11  1  0  0  0  0
  6 29  1  6  0  0  0
  6 15  1  0  0  0  0
  7  9  1  0  0  0  0
  8 10  1  0  0  0  0
  9 14  1  0  0  0  0
 10 27  1  0  0  0  0
 10 18  2  0  0  0  0
 11 12  2  0  0  0  0
 13 14  2  0  0  0  0
 13  5  1  0  0  0  0
 14  2  1  0  0  0  0
 15 16  1  0  0  0  0
 16  1  1  0  0  0  0
 17  6  1  0  0  0  0
 17  7  1  0  0  0  0
 19 23  1  0  0  0  0
 20 25  1  0  0  0  0
 21 23  2  0  0  0  0
 22 21  1  0  0  0  0
 24 19  2  0  0  0  0
 25 24  1  0  0  0  0
 25 22  2  0  0  0  0
 26 27  2  0  0  0  0
 27 28  1  0  0  0  0
 30 37  1  0  0  0  0
 30 29  1  0  0  0  0
 31 37  2  0  0  0  0
 31 33  1  0  0  0  0
 32 36  1  0  0  0  0
 33 32  2  0  0  0  0
 34 31  1  0  0  0  0
 35 36  2  0  0  0  0
 37 35  1  0  0  0  0
M  END
>  <MODEL>
5

>  <REMARK>
 VINA RESULT:      -8.5      4.178     10.053
  Name = 
  5 active torsions:
  status: ('A' for Active; 'I' for Inactive)
    1  A    between atoms: C_3  and  C_7
    2  A    between atoms: C_10  and  C_25
    3  A    between atoms: CA_16  and  C_21
    4  A    between atoms: C_22  and  C_25
    5  A    between atoms: C_22  and  C_36
                            x       y       z     vdW  Elec       q    Type
                         _______ _______ _______ _____ _____    ______ ____

>  <TORSDO>
F 5

$$$$
=
 OpenBabel11042412093D

 37 41  0  0  1  0  0  0  0  0999 V2000
  188.2890  178.0310  141.2880 C   0  0  0  0  0  0  0  0  0  0  0  0
  185.9940  178.4610  140.1410 C   0  0  1  0  0  3  0  0  0  0  0  0
  187.4780  178.2430  140.1350 C   0  0  0  0  0  0  0  0  0  0  0  0
  188.0920  178.1020  138.8760 C   0  0  0  0  0  3  0  0  0  0  0  0
  183.2250  178.6580  140.0440 C   0  0  2  0  0  3  0  0  0  0  0  0
  185.9600  177.7880  144.3310 C   0  0  2  0  0  3  0  0  0  0  0  0
  185.3630  180.1270  143.3780 C   0  0  0  0  0  2  0  0  0  0  0  0
  189.6380  177.6950  141.1240 C   0  0  0  0  0  3  0  0  0  0  0  0
  185.9510  179.9340  142.0910 O   0  0  0  0  0  0  0  0  0  0  0  0
  190.1870  177.5600  139.8470 C   0  0  0  0  0  0  0  0  0  0  0  0
  183.8880  177.9070  139.1290 N   0  0  0  0  0  0  0  0  0  0  0  0
  185.2390  177.8040  139.1590 C   0  0  0  0  0  3  0  0  0  0  0  0
  183.9290  179.3260  140.9950 N   0  0  0  0  0  0  0  0  0  0  0  0
  185.2860  179.2560  141.0670 C   0  0  0  0  0  0  0  0  0  0  0  0
  186.7430  177.2480  143.1270 C   0  0  0  0  0  2  0  0  0  0  0  0
  187.8450  178.2070  142.7030 C   0  0  0  0  0  2  0  0  0  0  0  0
  184.8620  178.8000  143.9690 C   0  0  0  0  0  2  0  0  0  0  0  0
  189.4050  177.7760  138.7580 N   0  0  0  0  0  0  0  0  0  0  0  0
  181.7490  178.7220  140.0270 C   0  0  0  0  0  0  0  0  0  0  0  0
  178.9310  178.6490  142.3760 F   0  0  0  0  0  0  0  0  0  0  0  0
  179.6600  179.0000  138.8090 C   0  0  0  0  0  3  0  0  0  0  0  0
  178.9440  178.9070  140.0050 C   0  0  0  0  0  3  0  0  0  0  0  0
  181.0580  178.9110  138.8200 C   0  0  0  0  0  3  0  0  0  0  0  0
  181.0180  178.6320  141.2250 C   0  0  0  0  0  3  0  0  0  0  0  0
  179.6240  178.7210  141.2140 C   0  0  0  0  0  0  0  0  0  0  0  0
  191.9900  176.4430  138.5590 O   0  0  0  0  0  0  0  0  0  0  0  0
  191.5900  177.1660  139.6780 C   0  0  0  0  0  0  0  0  0  0  0  0
  192.4510  177.5020  140.5340 O   0  0  0  0  0  1  0  0  0  0  0  0
  186.8430  178.2780  145.4700 C   0  0  0  0  0  2  0  0  0  0  0  0
  187.2610  177.0980  146.3260 C   0  0  0  0  0  2  0  0  0  0  0  0
  189.3990  177.2070  147.6310 C   0  0  0  0  0  0  0  0  0  0  0  0
  191.5190  176.8580  146.5270 C   0  0  0  0  0  3  0  0  0  0  0  0
  190.7900  177.1290  147.6870 C   0  0  0  0  0  3  0  0  0  0  0  0
  188.6930  177.4720  148.7590 F   0  0  0  0  0  0  0  0  0  0  0  0
  189.4780  176.7540  145.2850 N   0  0  0  0  0  0  0  0  0  0  0  0
  190.8360  176.6740  145.3200 C   0  0  0  0  0  3  0  0  0  0  0  0
  188.7480  177.0160  146.4050 C   0  0  0  0  0  0  0  0  0  0  0  0
  1 16  1  0  0  0  0
  2 12  1  1  0  0  0
  2 14  1  0  0  0  0
  3  2  1  0  0  0  0
  3  1  2  0  0  0  0
  4  3  1  0  0  0  0
  5 19  1  1  0  0  0
  5 13  1  0  0  0  0
  6 29  1  1  0  0  0
  7 17  1  0  0  0  0
  8  1  1  0  0  0  0
  9  7  1  0  0  0  0
 10  8  2  0  0  0  0
 11 12  2  0  0  0  0
 11  5  1  0  0  0  0
 13 14  2  0  0  0  0
 14  9  1  0  0  0  0
 15  6  1  0  0  0  0
 16 15  1  0  0  0  0
 17  6  1  0  0  0  0
 18  4  2  0  0  0  0
 18 10  1  0  0  0  0
 19 24  1  0  0  0  0
 21 23  1  0  0  0  0
 21 22  2  0  0  0  0
 22 25  1  0  0  0  0
 23 19  2  0  0  0  0
 25 24  2  0  0  0  0
 25 20  1  0  0  0  0
 26 27  2  0  0  0  0
 27 10  1  0  0  0  0
 27 28  1  0  0  0  0
 29 30  1  0  0  0  0
 30 37  1  0  0  0  0
 31 33  1  0  0  0  0
 31 34  1  0  0  0  0
 32 33  2  0  0  0  0
 35 36  2  0  0  0  0
 35 37  1  0  0  0  0
 36 32  1  0  0  0  0
 37 31  2  0  0  0  0
M  END
>  <MODEL>
6

>  <REMARK>
 VINA RESULT:      -8.4      2.272      3.357
  Name = 
  5 active torsions:
  status: ('A' for Active; 'I' for Inactive)
    1  A    between atoms: C_3  and  C_7
    2  A    between atoms: C_10  and  C_25
    3  A    between atoms: CA_16  and  C_21
    4  A    between atoms: C_22  and  C_25
    5  A    between atoms: C_22  and  C_36
                            x       y       z     vdW  Elec       q    Type
                         _______ _______ _______ _____ _____    ______ ____

>  <TORSDO>
F 5

$$$$
=
 OpenBabel11042412093D

 37 41  0  0  1  0  0  0  0  0999 V2000
  186.2140  178.1210  143.6840 C   0  0  0  0  0  0  0  0  0  0  0  0
  187.7750  178.0220  145.7630 C   0  0  1  0  0  3  0  0  0  0  0  0
  186.4760  178.3110  145.0730 C   0  0  0  0  0  0  0  0  0  0  0  0
  185.3890  178.6710  145.8930 C   0  0  0  0  0  3  0  0  0  0  0  0
  190.0720  177.3130  147.1550 C   0  0  2  0  0  3  0  0  0  0  0  0
  189.2970  176.4410  142.1300 C   0  0  2  0  0  3  0  0  0  0  0  0
  190.3120  178.6050  143.1410 C   0  0  0  0  0  2  0  0  0  0  0  0
  184.9110  178.2940  143.2030 C   0  0  0  0  0  3  0  0  0  0  0  0
  189.2150  178.9140  144.0010 O   0  0  0  0  0  0  0  0  0  0  0  0
  183.8730  178.6420  144.0700 C   0  0  0  0  0  0  0  0  0  0  0  0
  188.8480  177.0510  147.6790 N   0  0  0  0  0  0  0  0  0  0  0  0
  187.7180  177.3940  147.0150 C   0  0  0  0  0  3  0  0  0  0  0  0
  190.1620  177.9410  145.9540 N   0  0  0  0  0  0  0  0  0  0  0  0
  189.0580  178.3070  145.2480 C   0  0  0  0  0  0  0  0  0  0  0  0
  187.9370  176.4770  142.8410 C   0  0  0  0  0  2  0  0  0  0  0  0
  187.2410  177.8150  142.6440 C   0  0  0  0  0  2  0  0  0  0  0  0
  190.4420  177.0890  142.9220 C   0  0  0  0  0  2  0  0  0  0  0  0
  184.1390  178.8310  145.3880 N   0  0  0  0  0  0  0  0  0  0  0  0
  191.2950  176.8900  147.8690 C   0  0  0  0  0  0  0  0  0  0  0  0
  193.4270  178.0010  150.6400 F   0  0  0  0  0  0  0  0  0  0  0  0
  193.0780  175.2740  148.2280 C   0  0  0  0  0  3  0  0  0  0  0  0
  193.5830  176.0550  149.2710 C   0  0  0  0  0  3  0  0  0  0  0  0
  191.9370  175.6880  147.5310 C   0  0  0  0  0  3  0  0  0  0  0  0
  191.8100  177.6660  148.9210 C   0  0  0  0  0  3  0  0  0  0  0  0
  192.9480  177.2530  149.6160 C   0  0  0  0  0  0  0  0  0  0  0  0
  182.2620  178.9960  142.2160 O   0  0  0  0  0  0  0  0  0  0  0  0
  182.5010  178.7810  143.5690 C   0  0  0  0  0  0  0  0  0  0  0  0
  181.5240  178.6810  144.3580 O   0  0  0  0  0  1  0  0  0  0  0  0
  189.2490  176.9200  140.6860 C   0  0  0  0  0  2  0  0  0  0  0  0
  190.6320  176.8130  140.0740 C   0  0  0  0  0  2  0  0  0  0  0  0
  190.0930  177.1870  137.6540 C   0  0  0  0  0  0  0  0  0  0  0  0
  190.3760  175.4000  136.0540 C   0  0  0  0  0  3  0  0  0  0  0  0
  190.0110  176.7160  136.3440 C   0  0  0  0  0  3  0  0  0  0  0  0
  189.7360  178.4660  137.9340 F   0  0  0  0  0  0  0  0  0  0  0  0
  190.8900  175.0470  138.3620 N   0  0  0  0  0  0  0  0  0  0  0  0
  190.8170  174.5700  137.0890 C   0  0  0  0  0  3  0  0  0  0  0  0
  190.5390  176.3270  138.6670 C   0  0  0  0  0  0  0  0  0  0  0  0
  1  3  1  0  0  0  0
  2 12  1  6  0  0  0
  3  2  1  0  0  0  0
  3  4  2  0  0  0  0
  5 11  1  0  0  0  0
  5 19  1  6  0  0  0
  6 29  1  6  0  0  0
  6 15  1  0  0  0  0
  6 17  1  0  0  0  0
  7  9  1  0  0  0  0
  8  1  2  0  0  0  0
  8 10  1  0  0  0  0
  9 14  1  0  0  0  0
 10 18  2  0  0  0  0
 12 11  2  0  0  0  0
 13  5  1  0  0  0  0
 14  2  1  0  0  0  0
 14 13  2  0  0  0  0
 16 15  1  0  0  0  0
 16  1  1  0  0  0  0
 17  7  1  0  0  0  0
 18  4  1  0  0  0  0
 19 24  1  0  0  0  0
 21 22  2  0  0  0  0
 22 25  1  0  0  0  0
 23 19  2  0  0  0  0
 23 21  1  0  0  0  0
 24 25  2  0  0  0  0
 25 20  1  0  0  0  0
 26 27  2  0  0  0  0
 27 10  1  0  0  0  0
 27 28  1  0  0  0  0
 30 29  1  0  0  0  0
 31 34  1  0  0  0  0
 31 37  1  0  0  0  0
 32 33  1  0  0  0  0
 32 36  2  0  0  0  0
 33 31  2  0  0  0  0
 35 37  2  0  0  0  0
 36 35  1  0  0  0  0
 37 30  1  0  0  0  0
M  END
>  <MODEL>
7

>  <REMARK>
 VINA RESULT:      -8.4      4.030     10.292
  Name = 
  5 active torsions:
  status: ('A' for Active; 'I' for Inactive)
    1  A    between atoms: C_3  and  C_7
    2  A    between atoms: C_10  and  C_25
    3  A    between atoms: CA_16  and  C_21
    4  A    between atoms: C_22  and  C_25
    5  A    between atoms: C_22  and  C_36
                            x       y       z     vdW  Elec       q    Type
                         _______ _______ _______ _____ _____    ______ ____

>  <TORSDO>
F 5

$$$$
=
 OpenBabel11042412093D

 37 41  0  0  1  0  0  0  0  0999 V2000
  191.1410  176.7050  138.2590 C   0  0  0  0  0  0  0  0  0  0  0  0
  188.7120  177.1400  137.4360 C   0  0  1  0  0  3  0  0  0  0  0  0
  190.1610  176.8110  137.2300 C   0  0  0  0  0  0  0  0  0  0  0  0
  190.5480  176.4470  135.9270 C   0  0  0  0  0  3  0  0  0  0  0  0
  185.9800  177.5300  137.7490 C   0  0  2  0  0  3  0  0  0  0  0  0
  189.3450  177.0740  141.6330 C   0  0  2  0  0  3  0  0  0  0  0  0
  188.7180  179.2920  140.4400 C   0  0  0  0  0  2  0  0  0  0  0  0
  192.4250  176.2470  137.9380 C   0  0  0  0  0  3  0  0  0  0  0  0
  189.0720  178.8740  139.1210 O   0  0  0  0  0  0  0  0  0  0  0  0
  192.7450  175.8920  136.6250 C   0  0  0  0  0  0  0  0  0  0  0  0
  186.4410  176.6080  136.8660 N   0  0  0  0  0  0  0  0  0  0  0  0
  187.7710  176.4090  136.6980 C   0  0  0  0  0  3  0  0  0  0  0  0
  186.8670  178.2710  138.4630 N   0  0  0  0  0  0  0  0  0  0  0  0
  188.2110  178.1100  138.3300 C   0  0  0  0  0  0  0  0  0  0  0  0
  189.8870  176.3100  140.4160 C   0  0  0  0  0  2  0  0  0  0  0  0
  190.9500  177.1140  139.6830 C   0  0  0  0  0  2  0  0  0  0  0  0
  188.2560  178.1040  141.2980 C   0  0  0  0  0  2  0  0  0  0  0  0
  191.8040  176.0090  135.6540 N   0  0  0  0  0  0  0  0  0  0  0  0
  184.5270  177.7020  137.9560 C   0  0  0  0  0  0  0  0  0  0  0  0
  182.2120  179.9050  139.7590 F   0  0  0  0  0  0  0  0  0  0  0  0
  182.2330  177.0550  137.4660 C   0  0  0  0  0  3  0  0  0  0  0  0
  181.7620  178.0720  138.3010 C   0  0  0  0  0  3  0  0  0  0  0  0
  183.6100  176.8720  137.2920 C   0  0  0  0  0  3  0  0  0  0  0  0
  184.0430  178.7240  138.7910 C   0  0  0  0  0  3  0  0  0  0  0  0
  182.6690  178.9070  138.9640 C   0  0  0  0  0  0  0  0  0  0  0  0
  194.2200  174.2590  135.4790 O   0  0  0  0  0  0  0  0  0  0  0  0
  194.0780  175.3730  136.3000 C   0  0  0  0  0  0  0  0  0  0  0  0
  195.1090  175.9480  136.7410 O   0  0  0  0  0  1  0  0  0  0  0  0
  190.4310  177.6520  142.5300 C   0  0  0  0  0  2  0  0  0  0  0  0
  189.7870  178.3610  143.7050 C   0  0  0  0  0  2  0  0  0  0  0  0
  189.2340  177.6130  146.0330 C   0  0  0  0  0  0  0  0  0  0  0  0
  190.8760  176.4300  147.3540 C   0  0  0  0  0  3  0  0  0  0  0  0
  189.5990  176.9820  147.2230 C   0  0  0  0  0  3  0  0  0  0  0  0
  187.9940  178.1490  145.9080 F   0  0  0  0  0  0  0  0  0  0  0  0
  191.3990  177.1450  145.1330 N   0  0  0  0  0  0  0  0  0  0  0  0
  191.7730  176.5250  146.2850 C   0  0  0  0  0  3  0  0  0  0  0  0
  190.1590  177.6890  144.9830 C   0  0  0  0  0  0  0  0  0  0  0  0
  1 16  1  0  0  0  0
  2 12  1  1  0  0  0
  2 14  1  0  0  0  0
  3  2  1  0  0  0  0
  3  1  2  0  0  0  0
  4  3  1  0  0  0  0
  5 19  1  1  0  0  0
  5 13  1  0  0  0  0
  6 29  1  6  0  0  0
  7 17  1  0  0  0  0
  8  1  1  0  0  0  0
  9  7  1  0  0  0  0
 10  8  2  0  0  0  0
 11  5  1  0  0  0  0
 12 11  2  0  0  0  0
 14 13  2  0  0  0  0
 14  9  1  0  0  0  0
 15  6  1  0  0  0  0
 16 15  1  0  0  0  0
 17  6  1  0  0  0  0
 18  4  2  0  0  0  0
 18 10  1  0  0  0  0
 19 24  1  0  0  0  0
 21 22  2  0  0  0  0
 22 25  1  0  0  0  0
 23 21  1  0  0  0  0
 23 19  2  0  0  0  0
 24 25  2  0  0  0  0
 25 20  1  0  0  0  0
 26 27  2  0  0  0  0
 27 10  1  0  0  0  0
 27 28  1  0  0  0  0
 29 30  1  0  0  0  0
 30 37  1  0  0  0  0
 31 33  1  0  0  0  0
 33 32  2  0  0  0  0
 34 31  1  0  0  0  0
 35 36  2  0  0  0  0
 36 32  1  0  0  0  0
 37 35  1  0  0  0  0
 37 31  2  0  0  0  0
M  END
>  <MODEL>
8

>  <REMARK>
 VINA RESULT:      -8.2      1.309      1.667
  Name = 
  5 active torsions:
  status: ('A' for Active; 'I' for Inactive)
    1  A    between atoms: C_3  and  C_7
    2  A    between atoms: C_10  and  C_25
    3  A    between atoms: CA_16  and  C_21
    4  A    between atoms: C_22  and  C_25
    5  A    between atoms: C_22  and  C_36
                            x       y       z     vdW  Elec       q    Type
                         _______ _______ _______ _____ _____    ______ ____

>  <TORSDO>
F 5

$$$$
=
 OpenBabel11042412093D

 37 41  0  0  1  0  0  0  0  0999 V2000
  185.2800  178.3860  138.7140 C   0  0  0  0  0  0  0  0  0  0  0  0
  186.4740  178.4120  141.0250 C   0  0  1  0  0  3  0  0  0  0  0  0
  185.3250  178.6970  140.1040 C   0  0  0  0  0  0  0  0  0  0  0  0
  184.1460  179.1880  140.6960 C   0  0  0  0  0  3  0  0  0  0  0  0
  188.4630  177.7290  142.8400 C   0  0  2  0  0  3  0  0  0  0  0  0
  188.4580  176.4110  137.8520 C   0  0  2  0  0  3  0  0  0  0  0  0
  189.4350  178.6090  138.8250 C   0  0  0  0  0  2  0  0  0  0  0  0
  184.0870  178.5760  138.0080 C   0  0  0  0  0  3  0  0  0  0  0  0
  188.2350  179.0560  139.4580 O   0  0  0  0  0  0  0  0  0  0  0  0
  182.9460  179.0580  138.6550 C   0  0  0  0  0  0  0  0  0  0  0  0
  187.1560  177.5800  143.1720 N   0  0  0  0  0  0  0  0  0  0  0  0
  186.1730  177.9130  142.3010 C   0  0  0  0  0  3  0  0  0  0  0  0
  188.7880  178.2310  141.6200 N   0  0  0  0  0  0  0  0  0  0  0  0
  187.8380  178.5820  140.7100 C   0  0  0  0  0  0  0  0  0  0  0  0
  187.0060  176.5830  138.3200 C   0  0  0  0  0  2  0  0  0  0  0  0
  186.4400  177.9290  137.8920 C   0  0  0  0  0  2  0  0  0  0  0  0
  189.4990  177.0750  138.7650 C   0  0  0  0  0  2  0  0  0  0  0  0
  183.0070  179.3600  139.9770 N   0  0  0  0  0  0  0  0  0  0  0  0
  189.5240  177.3170  143.7830 C   0  0  0  0  0  0  0  0  0  0  0  0
  190.2520  177.4310  147.3770 F   0  0  0  0  0  0  0  0  0  0  0  0
  191.6390  176.1980  144.2250 C   0  0  0  0  0  3  0  0  0  0  0  0
  191.5080  176.4780  145.5870 C   0  0  0  0  0  3  0  0  0  0  0  0
  190.6490  176.6130  143.3250 C   0  0  0  0  0  3  0  0  0  0  0  0
  189.4010  177.5900  145.1560 C   0  0  0  0  0  3  0  0  0  0  0  0
  190.3880  177.1760  146.0530 C   0  0  0  0  0  0  0  0  0  0  0  0
  181.6040  178.8660  136.5770 O   0  0  0  0  0  0  0  0  0  0  0  0
  181.6860  179.2150  137.9210 C   0  0  0  0  0  0  0  0  0  0  0  0
  180.6580  179.6450  138.5100 O   0  0  0  0  0  1  0  0  0  0  0  0
  188.6770  176.7490  136.3840 C   0  0  0  0  0  2  0  0  0  0  0  0
  189.2200  175.5320  135.6630 C   0  0  0  0  0  2  0  0  0  0  0  0
  188.6770  173.3080  136.6860 C   0  0  0  0  0  0  0  0  0  0  0  0
  186.5830  172.2140  136.1810 C   0  0  0  0  0  3  0  0  0  0  0  0
  187.8100  172.2270  136.8480 C   0  0  0  0  0  3  0  0  0  0  0  0
  189.8690  173.3190  137.3340 F   0  0  0  0  0  0  0  0  0  0  0  0
  187.1040  174.3340  135.2070 N   0  0  0  0  0  0  0  0  0  0  0  0
  186.2450  173.2890  135.3530 C   0  0  0  0  0  3  0  0  0  0  0  0
  188.3050  174.3680  135.8490 C   0  0  0  0  0  0  0  0  0  0  0  0
  1  3  1  0  0  0  0
  2 12  1  6  0  0  0
  3  4  2  0  0  0  0
  3  2  1  0  0  0  0
  5 11  1  0  0  0  0
  5 19  1  6  0  0  0
  6 29  1  6  0  0  0
  6 15  1  0  0  0  0
  6 17  1  0  0  0  0
  7  9  1  0  0  0  0
  8 10  1  0  0  0  0
  8  1  2  0  0  0  0
  9 14  1  0  0  0  0
 10 18  2  0  0  0  0
 12 11  2  0  0  0  0
 13  5  1  0  0  0  0
 14  2  1  0  0  0  0
 14 13  2  0  0  0  0
 16 15  1  0  0  0  0
 16  1  1  0  0  0  0
 17  7  1  0  0  0  0
 18  4  1  0  0  0  0
 19 24  1  0  0  0  0
 21 22  2  0  0  0  0
 22 25  1  0  0  0  0
 23 19  2  0  0  0  0
 23 21  1  0  0  0  0
 24 25  2  0  0  0  0
 25 20  1  0  0  0  0
 26 27  2  0  0  0  0
 27 28  1  0  0  0  0
 27 10  1  0  0  0  0
 30 37  1  0  0  0  0
 30 29  1  0  0  0  0
 31 33  1  0  0  0  0
 31 34  1  0  0  0  0
 32 33  2  0  0  0  0
 35 36  2  0  0  0  0
 35 37  1  0  0  0  0
 36 32  1  0  0  0  0
 37 31  2  0  0  0  0
M  END
>  <MODEL>
9

>  <REMARK>
 VINA RESULT:      -7.8      3.269      9.029
  Name = 
  5 active torsions:
  status: ('A' for Active; 'I' for Inactive)
    1  A    between atoms: C_3  and  C_7
    2  A    between atoms: C_10  and  C_25
    3  A    between atoms: CA_16  and  C_21
    4  A    between atoms: C_22  and  C_25
    5  A    between atoms: C_22  and  C_36
                            x       y       z     vdW  Elec       q    Type
                         _______ _______ _______ _____ _____    ______ ____

>  <TORSDO>
F 5

$$$$
