=
 OpenBabel11042410363D

 44 48  0  0  1  0  0  0  0  0999 V2000
  189.7190  177.1310  141.0080 C   0  0  2  0  0  3  0  0  0  0  0  0
  191.8470  177.0740  139.7660 C   0  0  0  0  0  0  0  0  0  0  0  0
  189.3310  174.9640  135.1940 N   0  0  0  0  0  0  0  0  0  0  0  0
  188.5860  177.0650  136.7920 C   0  0  0  0  0  0  0  0  0  0  0  0
  188.5970  175.9850  134.6870 C   0  0  0  0  0  3  0  0  0  0  0  0
  193.2970  177.3950  139.7030 C   0  0  0  0  0  1  0  0  0  0  0  0
  188.2260  177.0200  135.4830 N   0  0  0  0  0  0  0  0  0  0  0  0
  191.0980  177.4780  140.8760 O   0  0  0  0  0  0  0  0  0  0  0  0
  189.3530  176.0150  137.3430 C   0  0  0  0  0  0  0  0  0  0  0  0
  191.2810  176.4610  138.7670 N   0  0  0  0  0  0  0  0  0  0  0  0
  188.0870  178.2100  137.6410 C   0  0  2  0  0  3  0  0  0  0  0  0
  188.8710  178.3740  138.9440 C   0  0  0  0  0  2  0  0  0  0  0  0
  189.8640  176.0840  138.7640 C   0  0  1  0  0  3  0  0  0  0  0  0
  189.7110  174.9490  136.4980 C   0  0  0  0  0  0  0  0  0  0  0  0
  189.0270  177.0240  139.6430 C   0  0  1  0  0  3  0  0  0  0  0  0
  184.4160  177.4050  137.1660 C   0  0  0  0  0  3  0  0  0  0  0  0
  185.7970  177.4730  136.9660 C   0  0  0  0  0  3  0  0  0  0  0  0
  186.6110  178.1200  137.9000 C   0  0  0  0  0  0  0  0  0  0  0  0
  186.0320  178.7080  139.0350 C   0  0  0  0  0  3  0  0  0  0  0  0
  183.8380  177.9710  138.3120 C   0  0  0  0  0  0  0  0  0  0  0  0
  184.6500  178.6420  139.2350 C   0  0  0  0  0  3  0  0  0  0  0  0
  182.7000  175.8520  139.6020 O   0  0  0  0  0  1  0  0  0  0  0  0
  181.6920  176.8530  137.6970 C   0  0  0  0  0  2  0  0  0  0  0  0
  182.3410  177.9910  138.4710 C   0  0  1  0  0  3  0  0  0  0  0  0
  181.7370  176.7860  139.2090 C   0  0  2  0  0  3  0  0  0  0  0  0
  188.9920  177.9200  142.1200 C   0  0  2  0  0  3  0  0  0  0  0  0
  189.9250  178.3910  143.2230 C   0  0  0  0  0  1  0  0  0  0  0  0
  187.7120  177.3080  142.7020 C   0  0  2  0  0  3  0  0  0  0  0  0
  186.5820  178.0670  142.3930 O   0  0  0  0  0  1  0  0  0  0  0  0
  187.8240  177.1110  144.1780 C   0  0  0  0  0  3  0  0  0  0  0  0
  186.9380  177.6690  144.9980 C   0  0  0  0  0  3  0  0  0  0  0  0
  187.0600  177.4720  146.4720 C   0  0  0  0  0  2  0  0  0  0  0  0
  188.4080  177.9730  146.9570 C   0  0  0  0  0  2  0  0  0  0  0  0
  189.2640  176.8090  147.4210 C   0  0  0  0  0  2  0  0  0  0  0  0
  190.6070  176.8290  146.7170 C   0  0  0  0  0  2  0  0  0  0  0  0
  191.6370  176.9070  147.6580 O   0  0  0  0  0  0  0  0  0  0  0  0
  192.3860  175.7490  147.4540 C   0  0  0  0  0  1  0  0  0  0  0  0
  190.5150  173.7940  137.0080 C   0  0  0  0  0  2  0  0  0  0  0  0
  191.7340  173.5470  136.1290 C   0  0  0  0  0  2  0  0  0  0  0  0
  192.7700  174.5310  136.4160 N   0  0  0  0  0  2  0  0  0  0  0  0
  194.8480  174.5230  137.7630 C   0  0  0  0  0  0  0  0  0  0  0  0
  195.3800  175.4440  137.0280 N   0  0  0  0  0  2  0  0  0  0  0  0
  195.5900  173.9980  138.9370 C   0  0  0  0  0  1  0  0  0  0  0  0
  193.5220  174.0570  137.5020 N   0  0  0  0  0  2  0  0  0  0  0  0
  1 26  1  1  0  0  0
  2  8  1  0  0  0  0
  3 14  1  0  0  0  0
  4  9  1  0  0  0  0
  4 11  1  0  0  0  0
  5  3  2  0  0  0  0
  5  7  1  0  0  0  0
  6  2  1  0  0  0  0
  7  4  2  0  0  0  0
  8  1  1  0  0  0  0
 10  2  2  0  0  0  0
 11 18  1  1  0  0  0
 11 12  1  0  0  0  0
 13  9  1  6  0  0  0
 13 10  1  0  0  0  0
 13 15  1  0  0  0  0
 14 38  1  0  0  0  0
 14  9  2  0  0  0  0
 15 12  1  6  0  0  0
 15  1  1  0  0  0  0
 16 20  1  0  0  0  0
 17 16  2  0  0  0  0
 17 18  1  0  0  0  0
 18 19  2  0  0  0  0
 19 21  1  0  0  0  0
 20 21  2  0  0  0  0
 23 24  1  0  0  0  0
 23 25  1  0  0  0  0
 24 20  1  6  0  0  0
 24 25  1  0  0  0  0
 25 22  1  6  0  0  0
 26 28  1  0  0  0  0
 26 27  1  1  0  0  0
 28 29  1  1  0  0  0
 28 30  1  0  0  0  0
 30 31  2  0  0  0  0
 31 32  1  0  0  0  0
 32 33  1  0  0  0  0
 33 34  1  0  0  0  0
 35 34  1  0  0  0  0
 35 36  1  0  0  0  0
 37 36  1  0  0  0  0
 39 40  1  0  0  0  0
 39 38  1  0  0  0  0
 40 44  1  0  0  0  0
 41 43  1  0  0  0  0
 42 41  2  0  0  0  0
 44 41  1  0  0  0  0
M  END
>  <MODEL>
1

>  <REMARK>
 VINA RESULT:      -7.8      0.000      0.000
  Name = 
  14 active torsions:
  status: ('A' for Active; 'I' for Inactive)
    1  A    between atoms: C_2  and  C_31
    2  A    between atoms: C_4  and  O_27
    3  A    between atoms: C_4  and  C_36
    4  A    between atoms: C_8  and  C_23
    5  A    between atoms: C_8  and  N_42
    6  A    between atoms: C_11  and  C_34
    7  A    between atoms: C_11  and  C_38
    8  A    between atoms: C_12  and  C_13
    9  A    between atoms: C_12  and  C_31
   10  A    between atoms: C_23  and  C_41
   11  A    between atoms: C_24  and  C_26
   12  A    between atoms: N_29  and  N_42
   13  A    between atoms: C_30  and  C_33
   14  A    between atoms: C_34  and  C_36
                            x       y       z     vdW  Elec       q    Type
                         _______ _______ _______ _____ _____    ______ ____

>  <TORSDO>
F 14

$$$$
=
 OpenBabel11042410363D

 44 48  0  0  1  0  0  0  0  0999 V2000
  190.1070  176.9870  141.4910 C   0  0  2  0  0  3  0  0  0  0  0  0
  192.0970  177.0500  140.0380 C   0  0  0  0  0  0  0  0  0  0  0  0
  189.0700  175.5960  135.5200 N   0  0  0  0  0  0  0  0  0  0  0  0
  188.5580  177.4870  137.4400 C   0  0  0  0  0  0  0  0  0  0  0  0
  188.3230  176.6880  135.2240 C   0  0  0  0  0  3  0  0  0  0  0  0
  193.5430  177.3490  139.8670 C   0  0  0  0  0  1  0  0  0  0  0  0
  188.0660  177.6180  136.1790 N   0  0  0  0  0  0  0  0  0  0  0  0
  191.4760  177.3220  141.2620 O   0  0  0  0  0  0  0  0  0  0  0  0
  189.3410  176.3600  137.7710 C   0  0  0  0  0  0  0  0  0  0  0  0
  191.4160  176.5820  139.0340 N   0  0  0  0  0  0  0  0  0  0  0  0
  188.1820  178.5230  138.4730 C   0  0  2  0  0  3  0  0  0  0  0  0
  189.0980  178.5020  139.6990 C   0  0  0  0  0  2  0  0  0  0  0  0
  189.9930  176.2350  139.1290 C   0  0  1  0  0  3  0  0  0  0  0  0
  189.5790  175.4060  136.7660 C   0  0  0  0  0  0  0  0  0  0  0  0
  189.2790  177.0710  140.2010 C   0  0  1  0  0  3  0  0  0  0  0  0
  184.4280  178.0950  138.2240 C   0  0  0  0  0  3  0  0  0  0  0  0
  185.7810  178.1540  137.8880 C   0  0  0  0  0  3  0  0  0  0  0  0
  186.7370  178.4280  138.8690 C   0  0  0  0  0  0  0  0  0  0  0  0
  186.3280  178.6510  140.1930 C   0  0  0  0  0  3  0  0  0  0  0  0
  184.0170  178.2930  139.5510 C   0  0  0  0  0  0  0  0  0  0  0  0
  184.9730  178.5930  140.5300 C   0  0  0  0  0  3  0  0  0  0  0  0
  182.7230  175.8990  139.7560 O   0  0  0  0  0  1  0  0  0  0  0  0
  181.7080  177.7950  138.7440 C   0  0  0  0  0  2  0  0  0  0  0  0
  182.5510  178.3360  139.8890 C   0  0  1  0  0  3  0  0  0  0  0  0
  181.8580  176.9700  140.0040 C   0  0  2  0  0  3  0  0  0  0  0  0
  189.5200  177.6390  142.7630 C   0  0  2  0  0  3  0  0  0  0  0  0
  190.4760  178.6190  143.4230 C   0  0  0  0  0  1  0  0  0  0  0  0
  188.8720  176.7140  143.7980 C   0  0  2  0  0  3  0  0  0  0  0  0
  187.9570  175.8360  143.2160 O   0  0  0  0  0  1  0  0  0  0  0  0
  188.2240  177.4930  144.8950 C   0  0  0  0  0  3  0  0  0  0  0  0
  186.9120  177.4090  145.0940 C   0  0  0  0  0  3  0  0  0  0  0  0
  186.2710  178.1950  146.1880 C   0  0  0  0  0  2  0  0  0  0  0  0
  185.3200  179.2240  145.6050 C   0  0  0  0  0  2  0  0  0  0  0  0
  184.7650  178.7350  144.2800 C   0  0  0  0  0  2  0  0  0  0  0  0
  183.2560  178.6060  144.3550 C   0  0  0  0  0  2  0  0  0  0  0  0
  182.6640  179.3280  143.3170 O   0  0  0  0  0  0  0  0  0  0  0  0
  181.3100  179.0010  143.3890 C   0  0  0  0  0  1  0  0  0  0  0  0
  190.3920  174.1790  137.0400 C   0  0  0  0  0  2  0  0  0  0  0  0
  191.4820  174.0020  135.9910 C   0  0  0  0  0  2  0  0  0  0  0  0
  192.6350  174.8320  136.3170 N   0  0  0  0  0  2  0  0  0  0  0  0
  194.6870  174.5250  137.6700 C   0  0  0  0  0  0  0  0  0  0  0  0
  195.3150  175.4380  137.0030 N   0  0  0  0  0  2  0  0  0  0  0  0
  195.3600  173.8500  138.8080 C   0  0  0  0  0  1  0  0  0  0  0  0
  193.3240  174.2120  137.3720 N   0  0  0  0  0  2  0  0  0  0  0  0
  1 26  1  1  0  0  0
  2  8  1  0  0  0  0
  3 14  1  0  0  0  0
  4  9  1  0  0  0  0
  4 11  1  0  0  0  0
  5  3  2  0  0  0  0
  5  7  1  0  0  0  0
  6  2  1  0  0  0  0
  7  4  2  0  0  0  0
  8  1  1  0  0  0  0
 10 13  1  0  0  0  0
 10  2  2  0  0  0  0
 11 18  1  1  0  0  0
 11 12  1  0  0  0  0
 13  9  1  6  0  0  0
 13 15  1  0  0  0  0
 14 38  1  0  0  0  0
 14  9  2  0  0  0  0
 15 12  1  6  0  0  0
 15  1  1  0  0  0  0
 16 20  1  0  0  0  0
 17 16  2  0  0  0  0
 17 18  1  0  0  0  0
 18 19  2  0  0  0  0
 19 21  1  0  0  0  0
 20 21  2  0  0  0  0
 23 24  1  0  0  0  0
 23 25  1  0  0  0  0
 24 20  1  6  0  0  0
 24 25  1  0  0  0  0
 25 22  1  6  0  0  0
 26 27  1  1  0  0  0
 26 28  1  0  0  0  0
 28 29  1  6  0  0  0
 28 30  1  0  0  0  0
 30 31  2  0  0  0  0
 31 32  1  0  0  0  0
 33 32  1  0  0  0  0
 34 35  1  0  0  0  0
 34 33  1  0  0  0  0
 36 37  1  0  0  0  0
 36 35  1  0  0  0  0
 39 40  1  0  0  0  0
 39 38  1  0  0  0  0
 40 44  1  0  0  0  0
 41 43  1  0  0  0  0
 42 41  2  0  0  0  0
 44 41  1  0  0  0  0
M  END
>  <MODEL>
2

>  <REMARK>
 VINA RESULT:      -7.7      1.598      3.012
  Name = 
  14 active torsions:
  status: ('A' for Active; 'I' for Inactive)
    1  A    between atoms: C_2  and  C_31
    2  A    between atoms: C_4  and  O_27
    3  A    between atoms: C_4  and  C_36
    4  A    between atoms: C_8  and  C_23
    5  A    between atoms: C_8  and  N_42
    6  A    between atoms: C_11  and  C_34
    7  A    between atoms: C_11  and  C_38
    8  A    between atoms: C_12  and  C_13
    9  A    between atoms: C_12  and  C_31
   10  A    between atoms: C_23  and  C_41
   11  A    between atoms: C_24  and  C_26
   12  A    between atoms: N_29  and  N_42
   13  A    between atoms: C_30  and  C_33
   14  A    between atoms: C_34  and  C_36
                            x       y       z     vdW  Elec       q    Type
                         _______ _______ _______ _____ _____    ______ ____

>  <TORSDO>
F 14

$$$$
=
 OpenBabel11042410363D

 44 48  0  0  1  0  0  0  0  0999 V2000
  182.8840  178.9030  141.3020 C   0  0  2  0  0  3  0  0  0  0  0  0
  180.4510  178.6850  140.9760 C   0  0  0  0  0  0  0  0  0  0  0  0
  180.9740  179.1440  135.3900 N   0  0  0  0  0  0  0  0  0  0  0  0
  182.3910  177.6030  137.1630 C   0  0  0  0  0  0  0  0  0  0  0  0
  181.5390  177.9790  134.9870 C   0  0  0  0  0  3  0  0  0  0  0  0
  179.1030  178.4370  141.5520 C   0  0  0  0  0  1  0  0  0  0  0  0
  182.2450  177.2230  135.8660 N   0  0  0  0  0  0  0  0  0  0  0  0
  181.5790  178.6050  141.7990 O   0  0  0  0  0  0  0  0  0  0  0  0
  181.8100  178.8110  137.6070 C   0  0  0  0  0  0  0  0  0  0  0  0
  180.5690  178.9290  139.7030 N   0  0  0  0  0  0  0  0  0  0  0  0
  183.2420  176.7520  138.0750 C   0  0  2  0  0  3  0  0  0  0  0  0
  183.0010  177.0400  139.5580 C   0  0  0  0  0  2  0  0  0  0  0  0
  181.8590  179.2120  139.0630 C   0  0  1  0  0  3  0  0  0  0  0  0
  181.0970  179.5810  136.6700 C   0  0  0  0  0  0  0  0  0  0  0  0
  183.0200  178.5460  139.8150 C   0  0  1  0  0  3  0  0  0  0  0  0
  186.7430  175.7290  137.0530 C   0  0  0  0  0  3  0  0  0  0  0  0
  185.3780  175.6810  137.3440 C   0  0  0  0  0  3  0  0  0  0  0  0
  184.7010  176.8400  137.7320 C   0  0  0  0  0  0  0  0  0  0  0  0
  185.4020  178.0520  137.8330 C   0  0  0  0  0  3  0  0  0  0  0  0
  187.4410  176.9440  137.1300 C   0  0  0  0  0  0  0  0  0  0  0  0
  186.7680  178.1010  137.5420 C   0  0  0  0  0  3  0  0  0  0  0  0
  189.0080  176.8930  139.3640 O   0  0  0  0  0  1  0  0  0  0  0  0
  189.5410  178.2470  137.4860 C   0  0  0  0  0  2  0  0  0  0  0  0
  188.9320  176.9720  136.9210 C   0  0  1  0  0  3  0  0  0  0  0  0
  189.7810  176.9340  138.2000 C   0  0  2  0  0  3  0  0  0  0  0  0
  184.0190  178.4600  142.2520 C   0  0  2  0  0  3  0  0  0  0  0  0
  183.6320  178.5450  143.7190 C   0  0  0  0  0  1  0  0  0  0  0  0
  185.4140  179.0470  142.0120 C   0  0  2  0  0  3  0  0  0  0  0  0
  185.5010  179.7040  140.7840 O   0  0  0  0  0  1  0  0  0  0  0  0
  186.4730  177.9990  142.1210 C   0  0  0  0  0  3  0  0  0  0  0  0
  186.8400  177.5380  143.3130 C   0  0  0  0  0  3  0  0  0  0  0  0
  187.9030  176.4960  143.4150 C   0  0  0  0  0  2  0  0  0  0  0  0
  189.1880  177.1090  143.9410 C   0  0  0  0  0  2  0  0  0  0  0  0
  188.9160  177.8810  145.2190 C   0  0  0  0  0  2  0  0  0  0  0  0
  189.6110  177.2200  146.3930 C   0  0  0  0  0  2  0  0  0  0  0  0
  188.9480  177.5390  147.5810 O   0  0  0  0  0  0  0  0  0  0  0  0
  187.6000  177.5900  147.2270 C   0  0  0  0  0  1  0  0  0  0  0  0
  180.4580  180.8780  137.0600 C   0  0  0  0  0  2  0  0  0  0  0  0
  179.9420  181.6210  135.8360 C   0  0  0  0  0  2  0  0  0  0  0  0
  180.6230  182.9020  135.6980 N   0  0  0  0  0  2  0  0  0  0  0  0
  180.6130  184.7570  137.3400 C   0  0  0  0  0  0  0  0  0  0  0  0
  181.9050  184.7850  137.3820 N   0  0  0  0  0  2  0  0  0  0  0  0
  179.8300  185.7390  138.1310 C   0  0  0  0  0  1  0  0  0  0  0  0
  179.9300  183.8410  136.4800 N   0  0  0  0  0  2  0  0  0  0  0  0
  1  8  1  0  0  0  0
  1 26  1  1  0  0  0
  2  6  1  0  0  0  0
  2  8  1  0  0  0  0
  3 14  1  0  0  0  0
  4  9  1  0  0  0  0
  4 11  1  0  0  0  0
  5  3  2  0  0  0  0
  5  7  1  0  0  0  0
  7  4  2  0  0  0  0
 10  2  2  0  0  0  0
 11 18  1  6  0  0  0
 11 12  1  0  0  0  0
 13  9  1  6  0  0  0
 13 10  1  0  0  0  0
 13 15  1  0  0  0  0
 14 38  1  0  0  0  0
 14  9  2  0  0  0  0
 15 12  1  1  0  0  0
 15  1  1  0  0  0  0
 16 20  2  0  0  0  0
 16 17  1  0  0  0  0
 17 18  2  0  0  0  0
 18 19  1  0  0  0  0
 20 21  1  0  0  0  0
 21 19  2  0  0  0  0
 23 25  1  0  0  0  0
 24 20  1  1  0  0  0
 24 23  1  0  0  0  0
 24 25  1  0  0  0  0
 25 22  1  1  0  0  0
 26 27  1  1  0  0  0
 28 29  1  6  0  0  0
 28 30  1  0  0  0  0
 28 26  1  0  0  0  0
 30 31  2  0  0  0  0
 31 32  1  0  0  0  0
 32 33  1  0  0  0  0
 33 34  1  0  0  0  0
 34 35  1  0  0  0  0
 35 36  1  0  0  0  0
 37 36  1  0  0  0  0
 39 38  1  0  0  0  0
 40 39  1  0  0  0  0
 40 44  1  0  0  0  0
 41 42  2  0  0  0  0
 41 43  1  0  0  0  0
 44 41  1  0  0  0  0
M  END
>  <MODEL>
3

>  <REMARK>
 VINA RESULT:      -7.2      4.394      8.773
  Name = 
  14 active torsions:
  status: ('A' for Active; 'I' for Inactive)
    1  A    between atoms: C_2  and  C_31
    2  A    between atoms: C_4  and  O_27
    3  A    between atoms: C_4  and  C_36
    4  A    between atoms: C_8  and  C_23
    5  A    between atoms: C_8  and  N_42
    6  A    between atoms: C_11  and  C_34
    7  A    between atoms: C_11  and  C_38
    8  A    between atoms: C_12  and  C_13
    9  A    between atoms: C_12  and  C_31
   10  A    between atoms: C_23  and  C_41
   11  A    between atoms: C_24  and  C_26
   12  A    between atoms: N_29  and  N_42
   13  A    between atoms: C_30  and  C_33
   14  A    between atoms: C_34  and  C_36
                            x       y       z     vdW  Elec       q    Type
                         _______ _______ _______ _____ _____    ______ ____

>  <TORSDO>
F 14

$$$$
=
 OpenBabel11042410363D

 44 48  0  0  1  0  0  0  0  0999 V2000
  183.3830  179.3430  142.3630 C   0  0  2  0  0  3  0  0  0  0  0  0
  181.0760  178.7480  142.9930 C   0  0  0  0  0  0  0  0  0  0  0  0
  179.4350  178.6620  137.6090 N   0  0  0  0  0  0  0  0  0  0  0  0
  181.6450  177.5410  138.7860 C   0  0  0  0  0  0  0  0  0  0  0  0
  180.0060  177.5520  137.0790 C   0  0  0  0  0  3  0  0  0  0  0  0
  180.0970  178.3750  144.0470 C   0  0  0  0  0  1  0  0  0  0  0  0
  181.1030  177.0040  137.6620 N   0  0  0  0  0  0  0  0  0  0  0  0
  182.4230  178.9190  143.3310 O   0  0  0  0  0  0  0  0  0  0  0  0
  181.0670  178.6960  139.3580 C   0  0  0  0  0  0  0  0  0  0  0  0
  180.6780  178.8650  141.7600 N   0  0  0  0  0  0  0  0  0  0  0  0
  182.9040  176.9250  139.3490 C   0  0  2  0  0  3  0  0  0  0  0  0
  183.1750  177.3360  140.7970 C   0  0  0  0  0  2  0  0  0  0  0  0
  181.5750  179.2560  140.6670 C   0  0  1  0  0  3  0  0  0  0  0  0
  179.9400  179.2490  138.7260 C   0  0  0  0  0  0  0  0  0  0  0  0
  183.0270  178.8490  140.9550 C   0  0  1  0  0  3  0  0  0  0  0  0
  185.6470  176.3830  136.7940 C   0  0  0  0  0  3  0  0  0  0  0  0
  184.5190  176.1830  137.5920 C   0  0  0  0  0  3  0  0  0  0  0  0
  184.0980  177.1810  138.4750 C   0  0  0  0  0  0  0  0  0  0  0  0
  184.8180  178.3820  138.5590 C   0  0  0  0  0  3  0  0  0  0  0  0
  186.3550  177.5920  136.8580 C   0  0  0  0  0  0  0  0  0  0  0  0
  185.9480  178.5830  137.7610 C   0  0  0  0  0  3  0  0  0  0  0  0
  188.6310  176.5660  137.9610 O   0  0  0  0  0  1  0  0  0  0  0  0
  188.6160  178.6510  136.8220 C   0  0  0  0  0  2  0  0  0  0  0  0
  187.6310  177.7630  136.0770 C   0  0  1  0  0  3  0  0  0  0  0  0
  188.8890  177.1660  136.7250 C   0  0  2  0  0  3  0  0  0  0  0  0
  184.8450  179.1720  142.8340 C   0  0  2  0  0  3  0  0  0  0  0  0
  185.8290  179.0460  141.6830 C   0  0  0  0  0  1  0  0  0  0  0  0
  185.1220  178.1230  143.9170 C   0  0  2  0  0  3  0  0  0  0  0  0
  184.9020  178.6260  145.2000 O   0  0  0  0  0  1  0  0  0  0  0  0
  186.5040  177.5710  143.8000 C   0  0  0  0  0  3  0  0  0  0  0  0
  187.3080  177.5430  144.8600 C   0  0  0  0  0  3  0  0  0  0  0  0
  188.6900  176.9950  144.7340 C   0  0  0  0  0  2  0  0  0  0  0  0
  189.6770  177.8920  145.4580 C   0  0  0  0  0  2  0  0  0  0  0  0
  190.5470  177.0690  146.3900 C   0  0  0  0  0  2  0  0  0  0  0  0
  191.7220  176.4810  145.6330 C   0  0  0  0  0  2  0  0  0  0  0  0
  192.2970  175.4460  146.3750 O   0  0  0  0  0  0  0  0  0  0  0  0
  192.1310  175.8330  147.7040 C   0  0  0  0  0  1  0  0  0  0  0  0
  179.2740  180.4770  139.2650 C   0  0  0  0  0  2  0  0  0  0  0  0
  179.1720  181.5570  138.1950 C   0  0  0  0  0  2  0  0  0  0  0  0
  180.5020  181.9900  137.7870 N   0  0  0  0  0  2  0  0  0  0  0  0
  181.0680  184.0270  136.4970 C   0  0  0  0  0  0  0  0  0  0  0  0
  181.9130  184.4140  137.3960 N   0  0  0  0  0  2  0  0  0  0  0  0
  180.8890  184.8300  135.2610 C   0  0  0  0  0  1  0  0  0  0  0  0
  180.3580  182.7950  136.6460 N   0  0  0  0  0  2  0  0  0  0  0  0
  1 26  1  1  0  0  0
  1  8  1  0  0  0  0
  2  8  1  0  0  0  0
  2  6  1  0  0  0  0
  3 14  1  0  0  0  0
  4 11  1  0  0  0  0
  4  9  1  0  0  0  0
  5  3  2  0  0  0  0
  5  7  1  0  0  0  0
  7  4  2  0  0  0  0
 10  2  2  0  0  0  0
 11 18  1  6  0  0  0
 11 12  1  0  0  0  0
 13  9  1  6  0  0  0
 13 15  1  0  0  0  0
 13 10  1  0  0  0  0
 14 38  1  0  0  0  0
 14  9  2  0  0  0  0
 15 12  1  1  0  0  0
 15  1  1  0  0  0  0
 16 20  2  0  0  0  0
 16 17  1  0  0  0  0
 17 18  2  0  0  0  0
 18 19  1  0  0  0  0
 20 21  1  0  0  0  0
 21 19  2  0  0  0  0
 24 25  1  0  0  0  0
 24 23  1  0  0  0  0
 24 20  1  1  0  0  0
 25 23  1  0  0  0  0
 25 22  1  1  0  0  0
 26 27  1  6  0  0  0
 26 28  1  0  0  0  0
 28 29  1  1  0  0  0
 30 28  1  0  0  0  0
 30 31  2  0  0  0  0
 32 31  1  0  0  0  0
 32 33  1  0  0  0  0
 33 34  1  0  0  0  0
 35 36  1  0  0  0  0
 35 34  1  0  0  0  0
 36 37  1  0  0  0  0
 39 38  1  0  0  0  0
 40 39  1  0  0  0  0
 41 44  1  0  0  0  0
 41 42  2  0  0  0  0
 43 41  1  0  0  0  0
 44 40  1  0  0  0  0
M  END
>  <MODEL>
4

>  <REMARK>
 VINA RESULT:      -7.1      4.944      8.687
  Name = 
  14 active torsions:
  status: ('A' for Active; 'I' for Inactive)
    1  A    between atoms: C_2  and  C_31
    2  A    between atoms: C_4  and  O_27
    3  A    between atoms: C_4  and  C_36
    4  A    between atoms: C_8  and  C_23
    5  A    between atoms: C_8  and  N_42
    6  A    between atoms: C_11  and  C_34
    7  A    between atoms: C_11  and  C_38
    8  A    between atoms: C_12  and  C_13
    9  A    between atoms: C_12  and  C_31
   10  A    between atoms: C_23  and  C_41
   11  A    between atoms: C_24  and  C_26
   12  A    between atoms: N_29  and  N_42
   13  A    between atoms: C_30  and  C_33
   14  A    between atoms: C_34  and  C_36
                            x       y       z     vdW  Elec       q    Type
                         _______ _______ _______ _____ _____    ______ ____

>  <TORSDO>
F 14

$$$$
=
 OpenBabel11042410363D

 44 48  0  0  1  0  0  0  0  0999 V2000
  190.0770  176.9610  141.0520 C   0  0  2  0  0  3  0  0  0  0  0  0
  192.0800  177.1360  139.6270 C   0  0  0  0  0  0  0  0  0  0  0  0
  189.1610  175.7020  135.0330 N   0  0  0  0  0  0  0  0  0  0  0  0
  188.5570  177.5190  136.9970 C   0  0  0  0  0  0  0  0  0  0  0  0
  188.3780  176.7750  134.7580 C   0  0  0  0  0  3  0  0  0  0  0  0
  193.5160  177.4910  139.4830 C   0  0  0  0  0  1  0  0  0  0  0  0
  188.0770  177.6680  135.7350 N   0  0  0  0  0  0  0  0  0  0  0  0
  191.4350  177.3510  140.8510 O   0  0  0  0  0  0  0  0  0  0  0  0
  189.3770  176.4120  137.3080 C   0  0  0  0  0  0  0  0  0  0  0  0
  191.4280  176.6720  138.6020 N   0  0  0  0  0  0  0  0  0  0  0  0
  188.1330  178.5110  138.0550 C   0  0  2  0  0  3  0  0  0  0  0  0
  189.0350  178.4890  139.2910 C   0  0  0  0  0  2  0  0  0  0  0  0
  190.0180  176.2720  138.6690 C   0  0  1  0  0  3  0  0  0  0  0  0
  189.6610  175.4960  136.2790 C   0  0  0  0  0  0  0  0  0  0  0  0
  189.2620  177.0510  139.7550 C   0  0  1  0  0  3  0  0  0  0  0  0
  184.9320  178.6120  140.0770 C   0  0  0  0  0  3  0  0  0  0  0  0
  186.2640  178.7790  139.6910 C   0  0  0  0  0  3  0  0  0  0  0  0
  186.6880  178.3530  138.4300 C   0  0  0  0  0  0  0  0  0  0  0  0
  185.7700  177.7510  137.5560 C   0  0  0  0  0  3  0  0  0  0  0  0
  184.0070  178.0320  139.1970 C   0  0  0  0  0  0  0  0  0  0  0  0
  184.4370  177.5830  137.9420 C   0  0  0  0  0  3  0  0  0  0  0  0
  182.1560  179.9930  138.7710 O   0  0  0  0  0  1  0  0  0  0  0  0
  182.1880  178.7080  140.7690 C   0  0  0  0  0  2  0  0  0  0  0  0
  182.6000  177.7560  139.6550 C   0  0  1  0  0  3  0  0  0  0  0  0
  181.5850  178.8780  139.3910 C   0  0  2  0  0  3  0  0  0  0  0  0
  189.4520  177.5560  142.3340 C   0  0  2  0  0  3  0  0  0  0  0  0
  190.4910  178.0120  143.3450 C   0  0  0  0  0  1  0  0  0  0  0  0
  188.3330  176.7580  143.0130 C   0  0  2  0  0  3  0  0  0  0  0  0
  187.0690  177.1440  142.5630 O   0  0  0  0  0  1  0  0  0  0  0  0
  188.4140  176.8610  144.5000 C   0  0  0  0  0  3  0  0  0  0  0  0
  187.4400  177.4540  145.1860 C   0  0  0  0  0  3  0  0  0  0  0  0
  187.5320  177.5580  146.6710 C   0  0  0  0  0  2  0  0  0  0  0  0
  186.3760  178.3810  147.2100 C   0  0  0  0  0  2  0  0  0  0  0  0
  185.6760  179.1080  146.0760 C   0  0  0  0  0  2  0  0  0  0  0  0
  184.2450  178.6250  145.9440 C   0  0  0  0  0  2  0  0  0  0  0  0
  183.9710  178.3060  144.6120 O   0  0  0  0  0  0  0  0  0  0  0  0
  183.8030  179.5390  143.9830 C   0  0  0  0  0  1  0  0  0  0  0  0
  190.5150  174.2920  136.5300 C   0  0  0  0  0  2  0  0  0  0  0  0
  189.6980  173.1600  137.1380 C   0  0  0  0  0  2  0  0  0  0  0  0
  188.6010  172.7960  136.2500 N   0  0  0  0  0  2  0  0  0  0  0  0
  186.2270  173.2720  136.7690 C   0  0  0  0  0  0  0  0  0  0  0  0
  186.1130  174.0510  135.7430 N   0  0  0  0  0  2  0  0  0  0  0  0
  185.0450  173.0120  137.6290 C   0  0  0  0  0  1  0  0  0  0  0  0
  187.4580  172.5980  137.0410 N   0  0  0  0  0  2  0  0  0  0  0  0
  1 26  1  1  0  0  0
  2  8  1  0  0  0  0
  3 14  1  0  0  0  0
  4  9  1  0  0  0  0
  4 11  1  0  0  0  0
  5  3  2  0  0  0  0
  5  7  1  0  0  0  0
  6  2  1  0  0  0  0
  7  4  2  0  0  0  0
  8  1  1  0  0  0  0
 10 13  1  0  0  0  0
 10  2  2  0  0  0  0
 11 18  1  1  0  0  0
 11 12  1  0  0  0  0
 13  9  1  6  0  0  0
 13 15  1  0  0  0  0
 14 38  1  0  0  0  0
 14  9  2  0  0  0  0
 15 12  1  6  0  0  0
 15  1  1  0  0  0  0
 17 16  1  0  0  0  0
 18 17  2  0  0  0  0
 19 21  2  0  0  0  0
 19 18  1  0  0  0  0
 20 16  2  0  0  0  0
 21 20  1  0  0  0  0
 24 20  1  6  0  0  0
 24 23  1  0  0  0  0
 25 22  1  6  0  0  0
 25 24  1  0  0  0  0
 25 23  1  0  0  0  0
 26 28  1  0  0  0  0
 26 27  1  1  0  0  0
 28 29  1  6  0  0  0
 28 30  1  0  0  0  0
 30 31  2  0  0  0  0
 31 32  1  0  0  0  0
 32 33  1  0  0  0  0
 34 33  1  0  0  0  0
 35 34  1  0  0  0  0
 36 35  1  0  0  0  0
 37 36  1  0  0  0  0
 38 39  1  0  0  0  0
 40 44  1  0  0  0  0
 40 39  1  0  0  0  0
 41 44  1  0  0  0  0
 41 43  1  0  0  0  0
 42 41  2  0  0  0  0
M  END
>  <MODEL>
5

>  <REMARK>
 VINA RESULT:      -6.9      2.138      3.861
  Name = 
  14 active torsions:
  status: ('A' for Active; 'I' for Inactive)
    1  A    between atoms: C_2  and  C_31
    2  A    between atoms: C_4  and  O_27
    3  A    between atoms: C_4  and  C_36
    4  A    between atoms: C_8  and  C_23
    5  A    between atoms: C_8  and  N_42
    6  A    between atoms: C_11  and  C_34
    7  A    between atoms: C_11  and  C_38
    8  A    between atoms: C_12  and  C_13
    9  A    between atoms: C_12  and  C_31
   10  A    between atoms: C_23  and  C_41
   11  A    between atoms: C_24  and  C_26
   12  A    between atoms: N_29  and  N_42
   13  A    between atoms: C_30  and  C_33
   14  A    between atoms: C_34  and  C_36
                            x       y       z     vdW  Elec       q    Type
                         _______ _______ _______ _____ _____    ______ ____

>  <TORSDO>
F 14

$$$$
=
 OpenBabel11042410363D

 44 48  0  0  1  0  0  0  0  0999 V2000
  184.5610  176.7260  137.0840 C   0  0  2  0  0  3  0  0  0  0  0  0
  182.5030  177.5000  135.9710 C   0  0  0  0  0  0  0  0  0  0  0  0
  179.7390  177.7650  140.8680 N   0  0  0  0  0  0  0  0  0  0  0  0
  182.2350  178.6930  140.2120 C   0  0  0  0  0  0  0  0  0  0  0  0
  180.2670  178.8300  141.5200 C   0  0  0  0  0  3  0  0  0  0  0  0
  181.8110  177.9410  134.7320 C   0  0  0  0  0  1  0  0  0  0  0  0
  181.5060  179.2820  141.1960 N   0  0  0  0  0  0  0  0  0  0  0  0
  183.8730  177.2180  135.9340 O   0  0  0  0  0  0  0  0  0  0  0  0
  181.7050  177.5840  139.5170 C   0  0  0  0  0  0  0  0  0  0  0  0
  181.8370  177.4260  137.0860 N   0  0  0  0  0  0  0  0  0  0  0  0
  183.6320  179.2020  139.9430 C   0  0  2  0  0  3  0  0  0  0  0  0
  184.1790  178.7570  138.5850 C   0  0  0  0  0  2  0  0  0  0  0  0
  182.4390  176.9730  138.3450 C   0  0  1  0  0  3  0  0  0  0  0  0
  180.4250  177.1290  139.8830 C   0  0  0  0  0  0  0  0  0  0  0  0
  183.9470  177.2600  138.3850 C   0  0  1  0  0  3  0  0  0  0  0  0
  184.9260  178.1850  143.3550 C   0  0  0  0  0  3  0  0  0  0  0  0
  184.0650  178.4770  142.2950 C   0  0  0  0  0  3  0  0  0  0  0  0
  184.5810  178.8570  141.0540 C   0  0  0  0  0  0  0  0  0  0  0  0
  185.9710  178.9510  140.8810 C   0  0  0  0  0  3  0  0  0  0  0  0
  186.3160  178.2550  143.1780 C   0  0  0  0  0  0  0  0  0  0  0  0
  186.8340  178.6610  141.9410 C   0  0  0  0  0  3  0  0  0  0  0  0
  187.7630  175.9410  143.2180 O   0  0  0  0  0  1  0  0  0  0  0  0
  186.7970  176.8550  145.1880 C   0  0  0  0  0  2  0  0  0  0  0  0
  187.2380  178.0450  144.3490 C   0  0  1  0  0  3  0  0  0  0  0  0
  188.0410  176.7360  144.3340 C   0  0  2  0  0  3  0  0  0  0  0  0
  186.1000  176.7750  136.9450 C   0  0  2  0  0  3  0  0  0  0  0  0
  186.7500  175.4060  137.0510 C   0  0  0  0  0  1  0  0  0  0  0  0
  186.8540  177.8120  137.7840 C   0  0  2  0  0  3  0  0  0  0  0  0
  187.0380  179.0110  137.0930 O   0  0  0  0  0  1  0  0  0  0  0  0
  188.1630  177.2780  138.2640 C   0  0  0  0  0  3  0  0  0  0  0  0
  188.9580  178.0290  139.0210 C   0  0  0  0  0  3  0  0  0  0  0  0
  190.2670  177.4910  139.4910 C   0  0  0  0  0  2  0  0  0  0  0  0
  190.1290  176.9320  140.8960 C   0  0  0  0  0  2  0  0  0  0  0  0
  191.1670  177.5540  141.8120 C   0  0  0  0  0  2  0  0  0  0  0  0
  191.3820  176.6830  143.0340 C   0  0  0  0  0  2  0  0  0  0  0  0
  191.7290  177.4760  144.1300 O   0  0  0  0  0  0  0  0  0  0  0  0
  191.3220  178.7620  143.7750 C   0  0  0  0  0  1  0  0  0  0  0  0
  179.7970  175.9540  139.2000 C   0  0  0  0  0  2  0  0  0  0  0  0
  180.0310  174.6740  139.9910 C   0  0  0  0  0  2  0  0  0  0  0  0
  180.0700  173.5260  139.0940 N   0  0  0  0  0  2  0  0  0  0  0  0
  181.1530  173.2680  136.8820 C   0  0  0  0  0  0  0  0  0  0  0  0
  181.6210  172.1050  137.1990 N   0  0  0  0  0  2  0  0  0  0  0  0
  181.3940  173.8120  135.5220 C   0  0  0  0  0  1  0  0  0  0  0  0
  180.3420  174.0030  137.8020 N   0  0  0  0  0  2  0  0  0  0  0  0
  1 26  1  6  0  0  0
  1 15  1  0  0  0  0
  2 10  2  0  0  0  0
  3  5  1  0  0  0  0
  4  7  1  0  0  0  0
  6  2  1  0  0  0  0
  7  5  2  0  0  0  0
  8  2  1  0  0  0  0
  8  1  1  0  0  0  0
  9 14  1  0  0  0  0
  9  4  2  0  0  0  0
 11  4  1  0  0  0  0
 11 18  1  1  0  0  0
 12 11  1  0  0  0  0
 13 10  1  6  0  0  0
 13 15  1  0  0  0  0
 13  9  1  0  0  0  0
 14  3  2  0  0  0  0
 15 12  1  6  0  0  0
 17 16  2  0  0  0  0
 18 17  1  0  0  0  0
 19 18  2  0  0  0  0
 19 21  1  0  0  0  0
 20 16  1  0  0  0  0
 21 20  2  0  0  0  0
 24 20  1  6  0  0  0
 24 23  1  0  0  0  0
 25 22  1  6  0  0  0
 25 24  1  0  0  0  0
 25 23  1  0  0  0  0
 26 27  1  1  0  0  0
 26 28  1  0  0  0  0
 28 29  1  6  0  0  0
 28 30  1  0  0  0  0
 30 31  2  0  0  0  0
 31 32  1  0  0  0  0
 32 33  1  0  0  0  0
 33 34  1  0  0  0  0
 34 35  1  0  0  0  0
 35 36  1  0  0  0  0
 37 36  1  0  0  0  0
 38 14  1  0  0  0  0
 38 39  1  0  0  0  0
 40 39  1  0  0  0  0
 41 42  2  0  0  0  0
 41 44  1  0  0  0  0
 43 41  1  0  0  0  0
 44 40  1  0  0  0  0
M  END
>  <MODEL>
6

>  <REMARK>
 VINA RESULT:      -6.9      4.632      8.495
  Name = 
  14 active torsions:
  status: ('A' for Active; 'I' for Inactive)
    1  A    between atoms: C_2  and  C_31
    2  A    between atoms: C_4  and  O_27
    3  A    between atoms: C_4  and  C_36
    4  A    between atoms: C_8  and  C_23
    5  A    between atoms: C_8  and  N_42
    6  A    between atoms: C_11  and  C_34
    7  A    between atoms: C_11  and  C_38
    8  A    between atoms: C_12  and  C_13
    9  A    between atoms: C_12  and  C_31
   10  A    between atoms: C_23  and  C_41
   11  A    between atoms: C_24  and  C_26
   12  A    between atoms: N_29  and  N_42
   13  A    between atoms: C_30  and  C_33
   14  A    between atoms: C_34  and  C_36
                            x       y       z     vdW  Elec       q    Type
                         _______ _______ _______ _____ _____    ______ ____

>  <TORSDO>
F 14

$$$$
=
 OpenBabel11042410363D

 44 48  0  0  1  0  0  0  0  0999 V2000
  189.7670  177.0870  141.2520 C   0  0  2  0  0  3  0  0  0  0  0  0
  191.8410  177.2180  139.9270 C   0  0  0  0  0  0  0  0  0  0  0  0
  189.1630  175.6210  135.2400 N   0  0  0  0  0  0  0  0  0  0  0  0
  188.4580  177.5030  137.1070 C   0  0  0  0  0  0  0  0  0  0  0  0
  188.3940  176.6820  134.8880 C   0  0  0  0  0  3  0  0  0  0  0  0
  193.2820  177.5710  139.8440 C   0  0  0  0  0  1  0  0  0  0  0  0
  188.0430  177.6070  135.8180 N   0  0  0  0  0  0  0  0  0  0  0  0
  191.1340  177.4730  141.1070 O   0  0  0  0  0  0  0  0  0  0  0  0
  189.2610  176.4090  137.4970 C   0  0  0  0  0  0  0  0  0  0  0  0
  191.2420  176.7180  138.8850 N   0  0  0  0  0  0  0  0  0  0  0  0
  187.9790  178.5290  138.1070 C   0  0  2  0  0  3  0  0  0  0  0  0
  188.8160  178.5510  139.3880 C   0  0  0  0  0  2  0  0  0  0  0  0
  189.8310  176.3170  138.8940 C   0  0  1  0  0  3  0  0  0  0  0  0
  189.5980  175.4590  136.5170 C   0  0  0  0  0  0  0  0  0  0  0  0
  189.0190  177.1310  139.9120 C   0  0  1  0  0  3  0  0  0  0  0  0
  184.2920  177.7830  137.6650 C   0  0  0  0  0  3  0  0  0  0  0  0
  185.6610  177.8980  137.4180 C   0  0  0  0  0  3  0  0  0  0  0  0
  186.5170  178.3810  138.4120 C   0  0  0  0  0  0  0  0  0  0  0  0
  185.9900  178.7570  139.6570 C   0  0  0  0  0  3  0  0  0  0  0  0
  183.7660  178.1360  138.9170 C   0  0  0  0  0  0  0  0  0  0  0  0
  184.6190  178.6440  139.9050 C   0  0  0  0  0  3  0  0  0  0  0  0
  182.6420  175.7260  139.5320 O   0  0  0  0  0  1  0  0  0  0  0  0
  181.5740  177.2780  138.0850 C   0  0  0  0  0  2  0  0  0  0  0  0
  182.2780  178.1140  139.1440 C   0  0  1  0  0  3  0  0  0  0  0  0
  181.6820  176.7420  139.4960 C   0  0  2  0  0  3  0  0  0  0  0  0
  189.0760  177.7240  142.4790 C   0  0  2  0  0  3  0  0  0  0  0  0
  190.0600  178.1800  143.5430 C   0  0  0  0  0  1  0  0  0  0  0  0
  187.8980  176.9660  143.1010 C   0  0  2  0  0  3  0  0  0  0  0  0
  186.6690  177.5110  142.7270 O   0  0  0  0  0  1  0  0  0  0  0  0
  188.0140  176.9050  144.5890 C   0  0  0  0  0  3  0  0  0  0  0  0
  187.3730  177.7890  145.3490 C   0  0  0  0  0  3  0  0  0  0  0  0
  187.4990  177.7260  146.8340 C   0  0  0  0  0  2  0  0  0  0  0  0
  188.5920  176.7490  147.2260 C   0  0  0  0  0  2  0  0  0  0  0  0
  189.8570  177.5000  147.6000 C   0  0  0  0  0  2  0  0  0  0  0  0
  191.0690  176.8380  146.9750 C   0  0  0  0  0  2  0  0  0  0  0  0
  191.3220  175.6170  147.6040 O   0  0  0  0  0  0  0  0  0  0  0  0
  192.6940  175.6310  147.8570 C   0  0  0  0  0  1  0  0  0  0  0  0
  190.4390  174.2660  136.8520 C   0  0  0  0  0  2  0  0  0  0  0  0
  189.6050  172.9920  136.8450 C   0  0  0  0  0  2  0  0  0  0  0  0
  188.3380  173.2210  136.1620 N   0  0  0  0  0  2  0  0  0  0  0  0
  186.0390  173.4690  137.0480 C   0  0  0  0  0  0  0  0  0  0  0  0
  185.7830  174.4390  136.2320 N   0  0  0  0  0  2  0  0  0  0  0  0
  184.9800  172.9810  137.9670 C   0  0  0  0  0  1  0  0  0  0  0  0
  187.3080  172.8100  137.0220 N   0  0  0  0  0  2  0  0  0  0  0  0
  1 26  1  1  0  0  0
  2  8  1  0  0  0  0
  3 14  1  0  0  0  0
  4  9  1  0  0  0  0
  4 11  1  0  0  0  0
  5  3  2  0  0  0  0
  5  7  1  0  0  0  0
  6  2  1  0  0  0  0
  7  4  2  0  0  0  0
  8  1  1  0  0  0  0
 10 13  1  0  0  0  0
 10  2  2  0  0  0  0
 11 18  1  1  0  0  0
 11 12  1  0  0  0  0
 13  9  1  6  0  0  0
 13 15  1  0  0  0  0
 14 38  1  0  0  0  0
 14  9  2  0  0  0  0
 15 12  1  6  0  0  0
 15  1  1  0  0  0  0
 16 20  1  0  0  0  0
 17 16  2  0  0  0  0
 17 18  1  0  0  0  0
 18 19  2  0  0  0  0
 19 21  1  0  0  0  0
 20 21  2  0  0  0  0
 23 24  1  0  0  0  0
 23 25  1  0  0  0  0
 24 20  1  6  0  0  0
 24 25  1  0  0  0  0
 25 22  1  6  0  0  0
 26 28  1  0  0  0  0
 26 27  1  1  0  0  0
 28 29  1  1  0  0  0
 28 30  1  0  0  0  0
 30 31  2  0  0  0  0
 31 32  1  0  0  0  0
 32 33  1  0  0  0  0
 33 34  1  0  0  0  0
 35 34  1  0  0  0  0
 35 36  1  0  0  0  0
 36 37  1  0  0  0  0
 39 38  1  0  0  0  0
 40 39  1  0  0  0  0
 40 44  1  0  0  0  0
 41 43  1  0  0  0  0
 42 41  2  0  0  0  0
 44 41  1  0  0  0  0
M  END
>  <MODEL>
7

>  <REMARK>
 VINA RESULT:      -6.9      1.507      2.894
  Name = 
  14 active torsions:
  status: ('A' for Active; 'I' for Inactive)
    1  A    between atoms: C_2  and  C_31
    2  A    between atoms: C_4  and  O_27
    3  A    between atoms: C_4  and  C_36
    4  A    between atoms: C_8  and  C_23
    5  A    between atoms: C_8  and  N_42
    6  A    between atoms: C_11  and  C_34
    7  A    between atoms: C_11  and  C_38
    8  A    between atoms: C_12  and  C_13
    9  A    between atoms: C_12  and  C_31
   10  A    between atoms: C_23  and  C_41
   11  A    between atoms: C_24  and  C_26
   12  A    between atoms: N_29  and  N_42
   13  A    between atoms: C_30  and  C_33
   14  A    between atoms: C_34  and  C_36
                            x       y       z     vdW  Elec       q    Type
                         _______ _______ _______ _____ _____    ______ ____

>  <TORSDO>
F 14

$$$$
=
 OpenBabel11042410363D

 44 48  0  0  1  0  0  0  0  0999 V2000
  189.5690  177.0090  141.0650 C   0  0  2  0  0  3  0  0  0  0  0  0
  191.9160  177.3880  140.4170 C   0  0  0  0  0  0  0  0  0  0  0  0
  190.9840  175.4460  135.2160 N   0  0  0  0  0  0  0  0  0  0  0  0
  189.5340  177.2370  136.7050 C   0  0  0  0  0  0  0  0  0  0  0  0
  190.2400  176.4020  134.6060 C   0  0  0  0  0  3  0  0  0  0  0  0
  193.2640  177.9170  140.7550 C   0  0  0  0  0  1  0  0  0  0  0  0
  189.5190  177.2820  135.3470 N   0  0  0  0  0  0  0  0  0  0  0  0
  190.8610  177.5600  141.3200 O   0  0  0  0  0  0  0  0  0  0  0  0
  190.3040  176.2530  137.3640 C   0  0  0  0  0  0  0  0  0  0  0  0
  191.7230  176.8120  139.2670 N   0  0  0  0  0  0  0  0  0  0  0  0
  188.6600  178.2020  137.4710 C   0  0  2  0  0  3  0  0  0  0  0  0
  189.0620  178.3340  138.9410 C   0  0  0  0  0  2  0  0  0  0  0  0
  190.4310  176.2400  138.8690 C   0  0  1  0  0  3  0  0  0  0  0  0
  191.0290  175.3460  136.5710 C   0  0  0  0  0  0  0  0  0  0  0  0
  189.2610  176.9530  139.5630 C   0  0  1  0  0  3  0  0  0  0  0  0
  185.4030  176.9430  136.0050 C   0  0  0  0  0  3  0  0  0  0  0  0
  186.7590  177.2270  136.1750 C   0  0  0  0  0  3  0  0  0  0  0  0
  187.2010  177.8760  137.3310 C   0  0  0  0  0  0  0  0  0  0  0  0
  186.2730  178.2470  138.3160 C   0  0  0  0  0  3  0  0  0  0  0  0
  184.4760  177.2910  136.9980 C   0  0  0  0  0  0  0  0  0  0  0  0
  184.9150  177.9640  138.1450 C   0  0  0  0  0  3  0  0  0  0  0  0
  183.4120  174.9220  137.8360 O   0  0  0  0  0  1  0  0  0  0  0  0
  182.7600  175.9380  135.7900 C   0  0  0  0  0  2  0  0  0  0  0  0
  183.0030  177.0820  136.7640 C   0  0  1  0  0  3  0  0  0  0  0  0
  182.4390  175.7410  137.2560 C   0  0  2  0  0  3  0  0  0  0  0  0
  188.4710  177.5630  142.0010 C   0  0  2  0  0  3  0  0  0  0  0  0
  188.6590  179.0330  142.3320 C   0  0  0  0  0  1  0  0  0  0  0  0
  188.1350  176.7510  143.2570 C   0  0  2  0  0  3  0  0  0  0  0  0
  186.8070  176.9200  143.6500 O   0  0  0  0  0  1  0  0  0  0  0  0
  189.0610  177.0780  144.3820 C   0  0  0  0  0  3  0  0  0  0  0  0
  188.5760  177.4510  145.5630 C   0  0  0  0  0  3  0  0  0  0  0  0
  189.5080  177.7830  146.6800 C   0  0  0  0  0  2  0  0  0  0  0  0
  188.7440  177.8760  147.9890 C   0  0  0  0  0  2  0  0  0  0  0  0
  187.2700  177.5940  147.7570 C   0  0  0  0  0  2  0  0  0  0  0  0
  186.5740  178.8310  147.2240 C   0  0  0  0  0  2  0  0  0  0  0  0
  185.1930  178.6240  147.1920 O   0  0  0  0  0  0  0  0  0  0  0  0
  184.8320  178.8670  145.8670 C   0  0  0  0  0  1  0  0  0  0  0  0
  191.8620  174.2680  137.1920 C   0  0  0  0  0  2  0  0  0  0  0  0
  193.3040  174.3450  136.7070 C   0  0  0  0  0  2  0  0  0  0  0  0
  194.0690  175.2610  137.5430 N   0  0  0  0  0  2  0  0  0  0  0  0
  196.2550  174.2380  138.1010 C   0  0  0  0  0  0  0  0  0  0  0  0
  195.7520  173.6120  139.1150 N   0  0  0  0  0  2  0  0  0  0  0  0
  197.6840  174.0430  137.7500 C   0  0  0  0  0  1  0  0  0  0  0  0
  195.4300  175.0560  137.2670 N   0  0  0  0  0  2  0  0  0  0  0  0
  1  8  1  0  0  0  0
  1 26  1  1  0  0  0
  2  6  1  0  0  0  0
  2  8  1  0  0  0  0
  3 14  1  0  0  0  0
  4  9  1  0  0  0  0
  4 11  1  0  0  0  0
  5  3  2  0  0  0  0
  5  7  1  0  0  0  0
  7  4  2  0  0  0  0
 10  2  2  0  0  0  0
 11 18  1  1  0  0  0
 11 12  1  0  0  0  0
 13  9  1  6  0  0  0
 13 10  1  0  0  0  0
 13 15  1  0  0  0  0
 14 38  1  0  0  0  0
 14  9  2  0  0  0  0
 15 12  1  6  0  0  0
 15  1  1  0  0  0  0
 16 17  2  0  0  0  0
 16 20  1  0  0  0  0
 17 18  1  0  0  0  0
 18 19  2  0  0  0  0
 20 21  2  0  0  0  0
 21 19  1  0  0  0  0
 23 24  1  0  0  0  0
 23 25  1  0  0  0  0
 24 20  1  1  0  0  0
 24 25  1  0  0  0  0
 25 22  1  1  0  0  0
 26 27  1  1  0  0  0
 26 28  1  0  0  0  0
 28 29  1  1  0  0  0
 28 30  1  0  0  0  0
 30 31  2  0  0  0  0
 31 32  1  0  0  0  0
 32 33  1  0  0  0  0
 34 33  1  0  0  0  0
 35 34  1  0  0  0  0
 36 35  1  0  0  0  0
 37 36  1  0  0  0  0
 39 38  1  0  0  0  0
 39 40  1  0  0  0  0
 41 42  2  0  0  0  0
 43 41  1  0  0  0  0
 44 40  1  0  0  0  0
 44 41  1  0  0  0  0
M  END
>  <MODEL>
8

>  <REMARK>
 VINA RESULT:      -6.5      1.645      2.298
  Name = 
  14 active torsions:
  status: ('A' for Active; 'I' for Inactive)
    1  A    between atoms: C_2  and  C_31
    2  A    between atoms: C_4  and  O_27
    3  A    between atoms: C_4  and  C_36
    4  A    between atoms: C_8  and  C_23
    5  A    between atoms: C_8  and  N_42
    6  A    between atoms: C_11  and  C_34
    7  A    between atoms: C_11  and  C_38
    8  A    between atoms: C_12  and  C_13
    9  A    between atoms: C_12  and  C_31
   10  A    between atoms: C_23  and  C_41
   11  A    between atoms: C_24  and  C_26
   12  A    between atoms: N_29  and  N_42
   13  A    between atoms: C_30  and  C_33
   14  A    between atoms: C_34  and  C_36
                            x       y       z     vdW  Elec       q    Type
                         _______ _______ _______ _____ _____    ______ ____

>  <TORSDO>
F 14

$$$$
=
 OpenBabel11042410363D

 44 48  0  0  1  0  0  0  0  0999 V2000
  187.5140  177.4690  143.6890 C   0  0  2  0  0  3  0  0  0  0  0  0
  189.6910  178.5790  143.3650 C   0  0  0  0  0  0  0  0  0  0  0  0
  189.6300  177.4910  137.8420 N   0  0  0  0  0  0  0  0  0  0  0  0
  187.6550  178.5100  139.4510 C   0  0  0  0  0  0  0  0  0  0  0  0
  188.6800  178.3120  137.3270 C   0  0  0  0  0  3  0  0  0  0  0  0
  190.8140  179.3730  143.9270 C   0  0  0  0  0  1  0  0  0  0  0  0
  187.7010  178.8080  138.1260 N   0  0  0  0  0  0  0  0  0  0  0  0
  188.5830  178.2860  144.1670 O   0  0  0  0  0  0  0  0  0  0  0  0
  188.6330  177.6600  140.0110 C   0  0  0  0  0  0  0  0  0  0  0  0
  189.7310  178.2030  142.1200 N   0  0  0  0  0  0  0  0  0  0  0  0
  186.5030  179.0410  140.2720 C   0  0  2  0  0  3  0  0  0  0  0  0
  186.7710  178.9920  141.7770 C   0  0  0  0  0  2  0  0  0  0  0  0
  188.6770  177.3940  141.4980 C   0  0  1  0  0  3  0  0  0  0  0  0
  189.6270  177.1490  139.1570 C   0  0  0  0  0  0  0  0  0  0  0  0
  187.3180  177.6210  142.1740 C   0  0  1  0  0  3  0  0  0  0  0  0
  183.0360  177.5600  140.6320 C   0  0  0  0  0  3  0  0  0  0  0  0
  184.2370  178.2110  140.9200 C   0  0  0  0  0  3  0  0  0  0  0  0
  185.2060  178.3700  139.9250 C   0  0  0  0  0  0  0  0  0  0  0  0
  184.9670  177.8640  138.6380 C   0  0  0  0  0  3  0  0  0  0  0  0
  182.7850  177.0750  139.3400 C   0  0  0  0  0  0  0  0  0  0  0  0
  183.7660  177.2110  138.3490 C   0  0  0  0  0  3  0  0  0  0  0  0
  180.5810  178.4680  138.5310 O   0  0  0  0  0  1  0  0  0  0  0  0
  180.4280  176.6380  140.0390 C   0  0  0  0  0  2  0  0  0  0  0  0
  181.5370  176.2800  139.0610 C   0  0  1  0  0  3  0  0  0  0  0  0
  180.3200  177.0960  138.6010 C   0  0  2  0  0  3  0  0  0  0  0  0
  186.2550  177.5190  144.5830 C   0  0  2  0  0  3  0  0  0  0  0  0
  185.3610  178.7100  144.2840 C   0  0  0  0  0  1  0  0  0  0  0  0
  186.4520  177.3390  146.0930 C   0  0  2  0  0  3  0  0  0  0  0  0
  185.6740  178.2320  146.8320 O   0  0  0  0  0  1  0  0  0  0  0  0
  187.8910  177.4580  146.4740 C   0  0  0  0  0  3  0  0  0  0  0  0
  188.2330  177.7230  147.7310 C   0  0  0  0  0  3  0  0  0  0  0  0
  189.6720  177.8470  148.1030 C   0  0  0  0  0  2  0  0  0  0  0  0
  190.5510  177.4490  146.9310 C   0  0  0  0  0  2  0  0  0  0  0  0
  191.5240  176.3620  147.3510 C   0  0  0  0  0  2  0  0  0  0  0  0
  192.0550  175.6300  146.1340 C   0  0  0  0  0  2  0  0  0  0  0  0
  191.7900  176.3700  144.9800 O   0  0  0  0  0  0  0  0  0  0  0  0
  191.6810  175.4160  143.9690 C   0  0  0  0  0  1  0  0  0  0  0  0
  190.6950  176.2350  139.6720 C   0  0  0  0  0  2  0  0  0  0  0  0
  191.9880  176.4080  138.8850 C   0  0  0  0  0  2  0  0  0  0  0  0
  192.0800  175.3980  137.8390 N   0  0  0  0  0  2  0  0  0  0  0  0
  194.4620  175.1910  137.1950 C   0  0  0  0  0  0  0  0  0  0  0  0
  194.3810  176.2080  136.4000 N   0  0  0  0  0  2  0  0  0  0  0  0
  195.7640  174.5000  137.3760 C   0  0  0  0  0  1  0  0  0  0  0  0
  193.3300  174.7700  137.9600 N   0  0  0  0  0  2  0  0  0  0  0  0
  1  8  1  0  0  0  0
  1 26  1  1  0  0  0
  2  6  1  0  0  0  0
  2  8  1  0  0  0  0
  3 14  1  0  0  0  0
  4  9  1  0  0  0  0
  4 11  1  0  0  0  0
  5  3  2  0  0  0  0
  5  7  1  0  0  0  0
  7  4  2  0  0  0  0
 10  2  2  0  0  0  0
 11 18  1  1  0  0  0
 11 12  1  0  0  0  0
 13  9  1  6  0  0  0
 13 10  1  0  0  0  0
 13 15  1  0  0  0  0
 14 38  1  0  0  0  0
 14  9  2  0  0  0  0
 15 12  1  1  0  0  0
 15  1  1  0  0  0  0
 16 17  1  0  0  0  0
 18 17  2  0  0  0  0
 19 18  1  0  0  0  0
 20 16  2  0  0  0  0
 21 19  2  0  0  0  0
 21 20  1  0  0  0  0
 24 20  1  1  0  0  0
 24 23  1  0  0  0  0
 25 22  1  1  0  0  0
 25 24  1  0  0  0  0
 25 23  1  0  0  0  0
 26 27  1  1  0  0  0
 26 28  1  0  0  0  0
 28 30  1  0  0  0  0
 28 29  1  1  0  0  0
 30 31  2  0  0  0  0
 31 32  1  0  0  0  0
 33 34  1  0  0  0  0
 33 32  1  0  0  0  0
 35 34  1  0  0  0  0
 36 35  1  0  0  0  0
 37 36  1  0  0  0  0
 39 38  1  0  0  0  0
 40 44  1  0  0  0  0
 40 39  1  0  0  0  0
 41 43  1  0  0  0  0
 41 44  1  0  0  0  0
 42 41  2  0  0  0  0
M  END
>  <MODEL>
9

>  <REMARK>
 VINA RESULT:      -6.4      1.942      3.184
  Name = 
  14 active torsions:
  status: ('A' for Active; 'I' for Inactive)
    1  A    between atoms: C_2  and  C_31
    2  A    between atoms: C_4  and  O_27
    3  A    between atoms: C_4  and  C_36
    4  A    between atoms: C_8  and  C_23
    5  A    between atoms: C_8  and  N_42
    6  A    between atoms: C_11  and  C_34
    7  A    between atoms: C_11  and  C_38
    8  A    between atoms: C_12  and  C_13
    9  A    between atoms: C_12  and  C_31
   10  A    between atoms: C_23  and  C_41
   11  A    between atoms: C_24  and  C_26
   12  A    between atoms: N_29  and  N_42
   13  A    between atoms: C_30  and  C_33
   14  A    between atoms: C_34  and  C_36
                            x       y       z     vdW  Elec       q    Type
                         _______ _______ _______ _____ _____    ______ ____

>  <TORSDO>
F 14

$$$$
