=
 OpenBabel11032419183D

 25 29  0  0  0  0  0  0  0  0999 V2000
  188.0550  176.9910  143.0010 C   0  0  0  0  0  3  0  0  0  0  0  0
  188.8030  177.4080  143.9870 C   0  0  0  0  0  0  0  0  0  0  0  0
  189.5500  177.8290  144.9730 C   0  0  0  0  0  0  0  0  0  0  0  0
  190.5640  177.3560  138.5110 N   0  0  0  0  0  0  0  0  0  0  0  0
  190.9390  176.6520  139.6270 C   0  0  0  0  0  3  0  0  0  0  0  0
  188.6430  178.1190  139.6380 C   0  0  0  0  0  0  0  0  0  0  0  0
  187.4880  178.7630  139.8770 N   0  0  0  0  0  0  0  0  0  0  0  0
  190.1620  176.6740  140.7520 N   0  0  0  0  0  0  0  0  0  0  0  0
  187.1900  178.4020  141.1570 C   0  0  0  0  0  3  0  0  0  0  0  0
  188.1180  177.5720  141.6940 N   0  0  0  0  0  0  0  0  0  0  0  0
  189.4190  178.1020  138.4910 C   0  0  0  0  0  0  0  0  0  0  0  0
  189.0330  178.8190  137.3210 N   0  0  0  0  0  1  0  0  0  0  0  0
  189.0240  177.4090  140.7220 C   0  0  0  0  0  0  0  0  0  0  0  0
  191.4060  176.3680  144.2780 C   0  0  0  0  0  2  0  0  0  0  0  0
  191.6430  176.6970  145.7350 C   0  0  0  0  0  2  0  0  0  0  0  0
  191.0370  177.7390  144.8110 C   0  0  0  0  0  3  0  0  0  0  0  0
  188.9850  178.3670  146.1430 O   0  0  0  0  0  0  0  0  0  0  0  0
  188.0630  177.6740  146.9860 C   0  0  0  0  0  0  0  0  0  0  0  0
  188.5840  176.7350  148.0520 C   0  0  0  0  0  2  0  0  0  0  0  0
  188.1240  178.1430  148.4200 C   0  0  0  0  0  2  0  0  0  0  0  0
  186.6960  177.4990  146.5100 N   0  0  0  0  0  2  0  0  0  0  0  0
  185.9310  178.6860  146.8610 C   0  0  0  0  0  2  0  0  0  0  0  0
  185.3460  179.3140  145.6190 C   0  0  0  0  0  3  0  0  0  0  0  0
  183.9870  179.0900  145.6010 O   0  0  0  0  0  0  0  0  0  0  0  0
  184.7850  178.3410  144.8260 O   0  0  0  0  0  0  0  0  0  0  0  0
  1  2  2  0  0  0  0
  2  3  2  0  0  0  0
  3 17  1  0  0  0  0
  4  5  1  0  0  0  0
  5  8  2  0  0  0  0
  6  7  1  0  0  0  0
  6 13  2  0  0  0  0
  7  9  2  0  0  0  0
  9 10  1  0  0  0  0
 10  1  1  0  0  0  0
 11  4  2  0  0  0  0
 11  6  1  0  0  0  0
 12 11  1  0  0  0  0
 13  8  1  0  0  0  0
 13 10  1  0  0  0  0
 14 16  1  0  0  0  0
 14 15  1  0  0  0  0
 16  3  1  0  0  0  0
 16 15  1  0  0  0  0
 17 18  1  0  0  0  0
 18 19  1  0  0  0  0
 18 20  1  0  0  0  0
 19 20  1  0  0  0  0
 21 22  1  0  0  0  0
 21 18  1  0  0  0  0
 23 22  1  0  0  0  0
 24 23  1  0  0  0  0
 25 24  1  0  0  0  0
 25 23  1  0  0  0  0
M  END
>  <MODEL>
1

>  <REMARK>
 VINA RESULT:      -7.9      0.000      0.000
  Name = 
  7 active torsions:
  status: ('A' for Active; 'I' for Inactive)
    1  A    between atoms: C_3  and  C_7
    2  A    between atoms: C_4  and  O_18
    3  A    between atoms: C_4  and  N_22
    4  A    between atoms: C_7  and  N_22
    5  A    between atoms: C_10  and  N_20
    6  A    between atoms: C_12  and  C_13
    7  A    between atoms: C_12  and  O_18
                            x       y       z     vdW  Elec       q    Type
                         _______ _______ _______ _____ _____    ______ ____

>  <TORSDO>
F 7

$$$$
=
 OpenBabel11032419183D

 25 29  0  0  0  0  0  0  0  0999 V2000
  186.8330  177.0300  143.6230 C   0  0  0  0  0  3  0  0  0  0  0  0
  186.1220  178.0650  143.2660 C   0  0  0  0  0  0  0  0  0  0  0  0
  185.4130  179.1030  142.9090 C   0  0  0  0  0  0  0  0  0  0  0  0
  191.7720  176.3900  144.9580 N   0  0  0  0  0  0  0  0  0  0  0  0
  191.1860  176.1100  143.7490 C   0  0  0  0  0  3  0  0  0  0  0  0
  189.6890  177.0840  145.8060 C   0  0  0  0  0  0  0  0  0  0  0  0
  188.7610  177.5480  146.6610 N   0  0  0  0  0  0  0  0  0  0  0  0
  189.8480  176.3230  143.5630 N   0  0  0  0  0  0  0  0  0  0  0  0
  187.6220  177.5470  145.9140 C   0  0  0  0  0  3  0  0  0  0  0  0
  187.8270  177.1020  144.6500 N   0  0  0  0  0  0  0  0  0  0  0  0
  191.0430  176.8770  146.0070 C   0  0  0  0  0  0  0  0  0  0  0  0
  191.6650  177.1750  147.2530 N   0  0  0  0  0  1  0  0  0  0  0  0
  189.1340  176.8140  144.6050 C   0  0  0  0  0  0  0  0  0  0  0  0
  184.1020  178.7070  144.9560 C   0  0  0  0  0  2  0  0  0  0  0  0
  183.1280  179.2090  143.9140 C   0  0  0  0  0  2  0  0  0  0  0  0
  184.5470  179.7490  143.9480 C   0  0  0  0  0  3  0  0  0  0  0  0
  185.4700  179.6140  141.6000 O   0  0  0  0  0  0  0  0  0  0  0  0
  185.0450  178.9020  140.4370 C   0  0  0  0  0  0  0  0  0  0  0  0
  183.8980  177.9200  140.5370 C   0  0  0  0  0  2  0  0  0  0  0  0
  183.6720  179.3200  139.9700 C   0  0  0  0  0  2  0  0  0  0  0  0
  185.9920  178.7580  139.3370 N   0  0  0  0  0  2  0  0  0  0  0  0
  187.2680  178.3220  139.8830 C   0  0  0  0  0  2  0  0  0  0  0  0
  188.2470  178.0510  138.7660 C   0  0  0  0  0  3  0  0  0  0  0  0
  189.5260  178.2770  139.2240 O   0  0  0  0  0  0  0  0  0  0  0  0
  188.9300  179.2020  138.4570 O   0  0  0  0  0  0  0  0  0  0  0  0
  1 10  1  0  0  0  0
  2  1  2  0  0  0  0
  3  2  2  0  0  0  0
  3 16  1  0  0  0  0
  4 11  1  0  0  0  0
  5  4  2  0  0  0  0
  6 11  2  0  0  0  0
  6  7  1  0  0  0  0
  8  5  1  0  0  0  0
  8 13  2  0  0  0  0
  9  7  2  0  0  0  0
 10  9  1  0  0  0  0
 11 12  1  0  0  0  0
 13 10  1  0  0  0  0
 13  6  1  0  0  0  0
 15 16  1  0  0  0  0
 15 14  1  0  0  0  0
 16 14  1  0  0  0  0
 17  3  1  0  0  0  0
 18 19  1  0  0  0  0
 18 17  1  0  0  0  0
 20 18  1  0  0  0  0
 20 19  1  0  0  0  0
 21 22  1  0  0  0  0
 21 18  1  0  0  0  0
 23 24  1  0  0  0  0
 23 22  1  0  0  0  0
 25 23  1  0  0  0  0
 25 24  1  0  0  0  0
M  END
>  <MODEL>
2

>  <REMARK>
 VINA RESULT:      -7.8      3.165      6.780
  Name = 
  7 active torsions:
  status: ('A' for Active; 'I' for Inactive)
    1  A    between atoms: C_3  and  C_7
    2  A    between atoms: C_4  and  O_18
    3  A    between atoms: C_4  and  N_22
    4  A    between atoms: C_7  and  N_22
    5  A    between atoms: C_10  and  N_20
    6  A    between atoms: C_12  and  C_13
    7  A    between atoms: C_12  and  O_18
                            x       y       z     vdW  Elec       q    Type
                         _______ _______ _______ _____ _____    ______ ____

>  <TORSDO>
F 7

$$$$
=
 OpenBabel11032419183D

 25 29  0  0  0  0  0  0  0  0999 V2000
  187.1550  176.9590  143.3890 C   0  0  0  0  0  3  0  0  0  0  0  0
  186.4000  178.0010  143.1670 C   0  0  0  0  0  0  0  0  0  0  0  0
  185.6490  179.0470  142.9440 C   0  0  0  0  0  0  0  0  0  0  0  0
  189.0030  177.6280  148.1560 N   0  0  0  0  0  0  0  0  0  0  0  0
  187.7010  177.7390  147.7370 C   0  0  0  0  0  3  0  0  0  0  0  0
  189.6700  177.1420  145.9510 C   0  0  0  0  0  0  0  0  0  0  0  0
  190.4580  176.8460  144.9020 N   0  0  0  0  0  0  0  0  0  0  0  0
  187.3790  177.5460  146.4220 N   0  0  0  0  0  0  0  0  0  0  0  0
  189.5790  176.7710  143.8650 C   0  0  0  0  0  3  0  0  0  0  0  0
  188.3000  177.0110  144.2460 N   0  0  0  0  0  0  0  0  0  0  0  0
  190.0100  177.3320  147.2790 C   0  0  0  0  0  0  0  0  0  0  0  0
  191.3560  177.2070  147.7290 N   0  0  0  0  0  1  0  0  0  0  0  0
  188.3810  177.2440  145.5610 C   0  0  0  0  0  0  0  0  0  0  0  0
  184.3300  178.5970  144.9750 C   0  0  0  0  0  2  0  0  0  0  0  0
  183.4610  179.4520  144.0800 C   0  0  0  0  0  2  0  0  0  0  0  0
  184.9620  179.6770  144.1180 C   0  0  0  0  0  3  0  0  0  0  0  0
  185.4990  179.5800  141.6510 O   0  0  0  0  0  0  0  0  0  0  0  0
  185.0220  178.8420  140.5250 C   0  0  0  0  0  0  0  0  0  0  0  0
  183.9050  177.8370  140.7060 C   0  0  0  0  0  2  0  0  0  0  0  0
  183.6150  179.2240  140.1360 C   0  0  0  0  0  2  0  0  0  0  0  0
  185.9050  178.7030  139.3730 N   0  0  0  0  0  2  0  0  0  0  0  0
  187.2280  178.3300  139.8490 C   0  0  0  0  0  2  0  0  0  0  0  0
  188.1550  178.0970  138.6810 C   0  0  0  0  0  3  0  0  0  0  0  0
  189.4580  178.2250  139.1080 O   0  0  0  0  0  0  0  0  0  0  0  0
  188.8870  179.2340  138.4340 O   0  0  0  0  0  0  0  0  0  0  0  0
  1 10  1  0  0  0  0
  2  1  2  0  0  0  0
  3  2  2  0  0  0  0
  3 16  1  0  0  0  0
  5  4  1  0  0  0  0
  6 11  1  0  0  0  0
  7  6  1  0  0  0  0
  8  5  2  0  0  0  0
  9 10  1  0  0  0  0
  9  7  2  0  0  0  0
 10 13  1  0  0  0  0
 11 12  1  0  0  0  0
 11  4  2  0  0  0  0
 13  6  2  0  0  0  0
 13  8  1  0  0  0  0
 15 16  1  0  0  0  0
 15 14  1  0  0  0  0
 16 14  1  0  0  0  0
 17  3  1  0  0  0  0
 18 19  1  0  0  0  0
 18 17  1  0  0  0  0
 20 18  1  0  0  0  0
 20 19  1  0  0  0  0
 21 22  1  0  0  0  0
 21 18  1  0  0  0  0
 23 24  1  0  0  0  0
 23 22  1  0  0  0  0
 25 23  1  0  0  0  0
 25 24  1  0  0  0  0
M  END
>  <MODEL>
3

>  <REMARK>
 VINA RESULT:      -7.5      3.108      7.163
  Name = 
  7 active torsions:
  status: ('A' for Active; 'I' for Inactive)
    1  A    between atoms: C_3  and  C_7
    2  A    between atoms: C_4  and  O_18
    3  A    between atoms: C_4  and  N_22
    4  A    between atoms: C_7  and  N_22
    5  A    between atoms: C_10  and  N_20
    6  A    between atoms: C_12  and  C_13
    7  A    between atoms: C_12  and  O_18
                            x       y       z     vdW  Elec       q    Type
                         _______ _______ _______ _____ _____    ______ ____

>  <TORSDO>
F 7

$$$$
=
 OpenBabel11032419183D

 25 29  0  0  0  0  0  0  0  0999 V2000
  187.5570  176.8200  143.3110 C   0  0  0  0  0  3  0  0  0  0  0  0
  187.3480  177.7060  142.3740 C   0  0  0  0  0  0  0  0  0  0  0  0
  187.1430  178.5950  141.4380 C   0  0  0  0  0  0  0  0  0  0  0  0
  190.1740  177.3790  147.7180 N   0  0  0  0  0  0  0  0  0  0  0  0
  190.6480  176.9280  146.5110 C   0  0  0  0  0  3  0  0  0  0  0  0
  188.0240  177.6080  146.7880 C   0  0  0  0  0  0  0  0  0  0  0  0
  186.7110  177.8770  146.6850 N   0  0  0  0  0  0  0  0  0  0  0  0
  189.8100  176.8220  145.4360 N   0  0  0  0  0  0  0  0  0  0  0  0
  186.4350  177.5880  145.3830 C   0  0  0  0  0  3  0  0  0  0  0  0
  187.5250  177.1560  144.7020 N   0  0  0  0  0  0  0  0  0  0  0  0
  188.8620  177.7240  147.8840 C   0  0  0  0  0  0  0  0  0  0  0  0
  188.3840  178.2020  149.1380 N   0  0  0  0  0  1  0  0  0  0  0  0
  188.5130  177.1740  145.6060 C   0  0  0  0  0  0  0  0  0  0  0  0
  184.7240  178.3250  141.8200 C   0  0  0  0  0  2  0  0  0  0  0  0
  184.8880  178.7190  140.3690 C   0  0  0  0  0  2  0  0  0  0  0  0
  185.8180  179.2970  141.4210 C   0  0  0  0  0  3  0  0  0  0  0  0
  188.1330  178.9010  140.4880 O   0  0  0  0  0  0  0  0  0  0  0  0
  188.5190  178.0370  139.4180 C   0  0  0  0  0  0  0  0  0  0  0  0
  187.6930  177.9990  138.1510 C   0  0  0  0  0  2  0  0  0  0  0  0
  188.9950  178.7950  138.2030 C   0  0  0  0  0  2  0  0  0  0  0  0
  189.3660  176.8930  139.7340 N   0  0  0  0  0  2  0  0  0  0  0  0
  190.6230  177.3860  140.2740 C   0  0  0  0  0  2  0  0  0  0  0  0
  190.8100  176.8940  141.6890 C   0  0  0  0  0  3  0  0  0  0  0  0
  190.9580  177.9780  142.5260 O   0  0  0  0  0  0  0  0  0  0  0  0
  192.0430  177.2810  142.1570 O   0  0  0  0  0  0  0  0  0  0  0  0
  1 10  1  0  0  0  0
  2  1  2  0  0  0  0
  3  2  2  0  0  0  0
  4 11  1  0  0  0  0
  5  4  2  0  0  0  0
  6 11  2  0  0  0  0
  7  6  1  0  0  0  0
  8 13  2  0  0  0  0
  8  5  1  0  0  0  0
  9  7  2  0  0  0  0
 10  9  1  0  0  0  0
 10 13  1  0  0  0  0
 11 12  1  0  0  0  0
 13  6  1  0  0  0  0
 15 16  1  0  0  0  0
 15 14  1  0  0  0  0
 16  3  1  0  0  0  0
 16 14  1  0  0  0  0
 17  3  1  0  0  0  0
 18 21  1  0  0  0  0
 18 17  1  0  0  0  0
 19 20  1  0  0  0  0
 19 18  1  0  0  0  0
 20 18  1  0  0  0  0
 21 22  1  0  0  0  0
 22 23  1  0  0  0  0
 23 25  1  0  0  0  0
 23 24  1  0  0  0  0
 25 24  1  0  0  0  0
M  END
>  <MODEL>
4

>  <REMARK>
 VINA RESULT:      -7.3      2.447      7.274
  Name = 
  7 active torsions:
  status: ('A' for Active; 'I' for Inactive)
    1  A    between atoms: C_3  and  C_7
    2  A    between atoms: C_4  and  O_18
    3  A    between atoms: C_4  and  N_22
    4  A    between atoms: C_7  and  N_22
    5  A    between atoms: C_10  and  N_20
    6  A    between atoms: C_12  and  C_13
    7  A    between atoms: C_12  and  O_18
                            x       y       z     vdW  Elec       q    Type
                         _______ _______ _______ _____ _____    ______ ____

>  <TORSDO>
F 7

$$$$
=
 OpenBabel11032419183D

 25 29  0  0  0  0  0  0  0  0999 V2000
  186.4300  178.7620  141.9280 C   0  0  0  0  0  3  0  0  0  0  0  0
  187.0020  177.8850  142.7080 C   0  0  0  0  0  0  0  0  0  0  0  0
  187.5730  177.0050  143.4870 C   0  0  0  0  0  0  0  0  0  0  0  0
  181.5430  178.9420  143.5630 N   0  0  0  0  0  0  0  0  0  0  0  0
  182.6850  178.9900  144.3230 C   0  0  0  0  0  3  0  0  0  0  0  0
  182.8490  178.7240  141.6160 C   0  0  0  0  0  0  0  0  0  0  0  0
  183.1750  178.5890  140.3180 N   0  0  0  0  0  0  0  0  0  0  0  0
  183.9140  178.9120  143.7290 N   0  0  0  0  0  0  0  0  0  0  0  0
  184.5360  178.5780  140.3400 C   0  0  0  0  0  3  0  0  0  0  0  0
  185.0400  178.6980  141.5930 N   0  0  0  0  0  0  0  0  0  0  0  0
  181.5980  178.8060  142.2040 C   0  0  0  0  0  0  0  0  0  0  0  0
  180.4050  178.7690  141.4250 N   0  0  0  0  0  1  0  0  0  0  0  0
  183.9600  178.7860  142.3800 C   0  0  0  0  0  0  0  0  0  0  0  0
  186.8320  178.2570  145.4740 C   0  0  0  0  0  2  0  0  0  0  0  0
  188.0370  177.4480  145.9020 C   0  0  0  0  0  2  0  0  0  0  0  0
  187.0600  176.8760  144.8890 C   0  0  0  0  0  3  0  0  0  0  0  0
  188.6210  176.1890  143.0260 O   0  0  0  0  0  0  0  0  0  0  0  0
  189.8820  176.6780  142.5670 C   0  0  0  0  0  0  0  0  0  0  0  0
  190.4900  177.9030  143.2140 C   0  0  0  0  0  2  0  0  0  0  0  0
  190.9780  176.5060  143.5910 C   0  0  0  0  0  2  0  0  0  0  0  0
  190.3100  176.3160  141.2210 N   0  0  0  0  0  2  0  0  0  0  0  0
  190.3520  177.5230  140.4110 C   0  0  0  0  0  2  0  0  0  0  0  0
  189.1340  177.5970  139.5220 C   0  0  0  0  0  3  0  0  0  0  0  0
  189.4150  178.3990  138.4390 O   0  0  0  0  0  0  0  0  0  0  0  0
  188.6880  178.8940  139.4510 O   0  0  0  0  0  0  0  0  0  0  0  0
  1  2  2  0  0  0  0
  2  3  2  0  0  0  0
  3 16  1  0  0  0  0
  4  5  1  0  0  0  0
  6 11  1  0  0  0  0
  6 13  2  0  0  0  0
  7  9  2  0  0  0  0
  7  6  1  0  0  0  0
  8  5  2  0  0  0  0
  9 10  1  0  0  0  0
 10  1  1  0  0  0  0
 10 13  1  0  0  0  0
 11  4  2  0  0  0  0
 12 11  1  0  0  0  0
 13  8  1  0  0  0  0
 14 15  1  0  0  0  0
 16 14  1  0  0  0  0
 16 15  1  0  0  0  0
 17  3  1  0  0  0  0
 18 17  1  0  0  0  0
 18 19  1  0  0  0  0
 18 20  1  0  0  0  0
 19 20  1  0  0  0  0
 21 18  1  0  0  0  0
 22 21  1  0  0  0  0
 23 22  1  0  0  0  0
 24 25  1  0  0  0  0
 24 23  1  0  0  0  0
 25 23  1  0  0  0  0
M  END
>  <MODEL>
5

>  <REMARK>
 VINA RESULT:      -7.1      3.738      6.296
  Name = 
  7 active torsions:
  status: ('A' for Active; 'I' for Inactive)
    1  A    between atoms: C_3  and  C_7
    2  A    between atoms: C_4  and  O_18
    3  A    between atoms: C_4  and  N_22
    4  A    between atoms: C_7  and  N_22
    5  A    between atoms: C_10  and  N_20
    6  A    between atoms: C_12  and  C_13
    7  A    between atoms: C_12  and  O_18
                            x       y       z     vdW  Elec       q    Type
                         _______ _______ _______ _____ _____    ______ ____

>  <TORSDO>
F 7

$$$$
=
 OpenBabel11032419183D

 25 29  0  0  0  0  0  0  0  0999 V2000
  186.5900  177.4950  143.7870 C   0  0  0  0  0  3  0  0  0  0  0  0
  187.7920  177.5600  144.2950 C   0  0  0  0  0  0  0  0  0  0  0  0
  188.9930  177.6290  144.8040 C   0  0  0  0  0  0  0  0  0  0  0  0
  182.9280  179.2110  140.5890 N   0  0  0  0  0  0  0  0  0  0  0  0
  182.7620  178.6270  141.8190 C   0  0  0  0  0  3  0  0  0  0  0  0
  185.2600  178.9510  140.7810 C   0  0  0  0  0  0  0  0  0  0  0  0
  186.5690  179.0020  140.4790 N   0  0  0  0  0  0  0  0  0  0  0  0
  183.8470  178.2080  142.5380 N   0  0  0  0  0  0  0  0  0  0  0  0
  187.1620  178.4470  141.5720 C   0  0  0  0  0  3  0  0  0  0  0  0
  186.2660  178.0650  142.5150 N   0  0  0  0  0  0  0  0  0  0  0  0
  184.1710  179.3830  140.0440 C   0  0  0  0  0  0  0  0  0  0  0  0
  184.3310  180.0020  138.7710 N   0  0  0  0  0  1  0  0  0  0  0  0
  185.0760  178.3900  141.9950 C   0  0  0  0  0  0  0  0  0  0  0  0
  191.4090  177.7260  144.3330 C   0  0  0  0  0  2  0  0  0  0  0  0
  190.7050  177.9500  143.0130 C   0  0  0  0  0  2  0  0  0  0  0  0
  190.1140  176.9950  144.0350 C   0  0  0  0  0  3  0  0  0  0  0  0
  189.2380  178.2890  146.0210 O   0  0  0  0  0  0  0  0  0  0  0  0
  189.0450  177.7040  147.3090 C   0  0  0  0  0  0  0  0  0  0  0  0
  188.6160  178.5730  148.4710 C   0  0  0  0  0  2  0  0  0  0  0  0
  187.5970  177.7070  147.7350 C   0  0  0  0  0  2  0  0  0  0  0  0
  189.7110  176.4380  147.5940 N   0  0  0  0  0  2  0  0  0  0  0  0
  191.1390  176.6870  147.7170 C   0  0  0  0  0  2  0  0  0  0  0  0
  191.8970  175.3820  147.7130 C   0  0  0  0  0  3  0  0  0  0  0  0
  193.2240  175.6340  147.4420 O   0  0  0  0  0  0  0  0  0  0  0  0
  192.4340  175.1600  146.4680 O   0  0  0  0  0  0  0  0  0  0  0  0
  1  2  2  0  0  0  0
  2  3  2  0  0  0  0
  3 17  1  0  0  0  0
  4  5  1  0  0  0  0
  5  8  2  0  0  0  0
  6 13  2  0  0  0  0
  7  6  1  0  0  0  0
  7  9  2  0  0  0  0
  9 10  1  0  0  0  0
 10  1  1  0  0  0  0
 11  4  2  0  0  0  0
 11  6  1  0  0  0  0
 12 11  1  0  0  0  0
 13 10  1  0  0  0  0
 13  8  1  0  0  0  0
 15 16  1  0  0  0  0
 15 14  1  0  0  0  0
 16 14  1  0  0  0  0
 16  3  1  0  0  0  0
 17 18  1  0  0  0  0
 18 21  1  0  0  0  0
 18 20  1  0  0  0  0
 18 19  1  0  0  0  0
 20 19  1  0  0  0  0
 21 22  1  0  0  0  0
 23 22  1  0  0  0  0
 24 23  1  0  0  0  0
 25 24  1  0  0  0  0
 25 23  1  0  0  0  0
M  END
>  <MODEL>
6

>  <REMARK>
 VINA RESULT:      -7.1      2.737      4.831
  Name = 
  7 active torsions:
  status: ('A' for Active; 'I' for Inactive)
    1  A    between atoms: C_3  and  C_7
    2  A    between atoms: C_4  and  O_18
    3  A    between atoms: C_4  and  N_22
    4  A    between atoms: C_7  and  N_22
    5  A    between atoms: C_10  and  N_20
    6  A    between atoms: C_12  and  C_13
    7  A    between atoms: C_12  and  O_18
                            x       y       z     vdW  Elec       q    Type
                         _______ _______ _______ _____ _____    ______ ____

>  <TORSDO>
F 7

$$$$
=
 OpenBabel11032419183D

 25 29  0  0  0  0  0  0  0  0999 V2000
  187.3240  177.1280  143.4160 C   0  0  0  0  0  3  0  0  0  0  0  0
  188.4450  177.4640  143.9960 C   0  0  0  0  0  0  0  0  0  0  0  0
  189.5650  177.8050  144.5760 C   0  0  0  0  0  0  0  0  0  0  0  0
  183.2290  179.1400  141.0140 N   0  0  0  0  0  0  0  0  0  0  0  0
  183.2490  178.4290  142.1880 C   0  0  0  0  0  3  0  0  0  0  0  0
  185.5610  178.8790  140.8180 C   0  0  0  0  0  0  0  0  0  0  0  0
  186.8080  178.9720  140.3260 N   0  0  0  0  0  0  0  0  0  0  0  0
  184.4280  177.9460  142.6840 N   0  0  0  0  0  0  0  0  0  0  0  0
  187.5570  178.3100  141.2510 C   0  0  0  0  0  3  0  0  0  0  0  0
  186.8130  177.8260  142.2750 N   0  0  0  0  0  0  0  0  0  0  0  0
  184.3750  179.3780  140.3070 C   0  0  0  0  0  0  0  0  0  0  0  0
  184.3430  180.1280  139.0950 N   0  0  0  0  0  1  0  0  0  0  0  0
  185.5600  178.1930  141.9810 C   0  0  0  0  0  0  0  0  0  0  0  0
  190.7930  176.5200  142.8710 C   0  0  0  0  0  2  0  0  0  0  0  0
  191.6660  176.5370  144.1060 C   0  0  0  0  0  2  0  0  0  0  0  0
  190.8200  177.7490  143.7590 C   0  0  0  0  0  3  0  0  0  0  0  0
  189.5970  178.2280  145.9170 O   0  0  0  0  0  0  0  0  0  0  0  0
  189.4910  177.3530  147.0410 C   0  0  0  0  0  0  0  0  0  0  0  0
  190.6130  176.3840  147.3440 C   0  0  0  0  0  2  0  0  0  0  0  0
  190.4820  177.6860  148.1300 C   0  0  0  0  0  2  0  0  0  0  0  0
  188.1600  177.0640  147.5630 N   0  0  0  0  0  2  0  0  0  0  0  0
  187.3980  178.3030  147.5870 C   0  0  0  0  0  2  0  0  0  0  0  0
  186.0950  178.1260  146.8450 C   0  0  0  0  0  3  0  0  0  0  0  0
  186.0120  179.0760  145.8510 O   0  0  0  0  0  0  0  0  0  0  0  0
  185.3230  179.2540  146.9870 O   0  0  0  0  0  0  0  0  0  0  0  0
  1  2  2  0  0  0  0
  2  3  2  0  0  0  0
  3 17  1  0  0  0  0
  4  5  1  0  0  0  0
  5  8  2  0  0  0  0
  6 13  2  0  0  0  0
  7  6  1  0  0  0  0
  7  9  2  0  0  0  0
  9 10  1  0  0  0  0
 10  1  1  0  0  0  0
 11  6  1  0  0  0  0
 11  4  2  0  0  0  0
 12 11  1  0  0  0  0
 13 10  1  0  0  0  0
 13  8  1  0  0  0  0
 14 16  1  0  0  0  0
 14 15  1  0  0  0  0
 16 15  1  0  0  0  0
 16  3  1  0  0  0  0
 17 18  1  0  0  0  0
 18 19  1  0  0  0  0
 18 21  1  0  0  0  0
 18 20  1  0  0  0  0
 19 20  1  0  0  0  0
 21 22  1  0  0  0  0
 23 25  1  0  0  0  0
 23 22  1  0  0  0  0
 24 23  1  0  0  0  0
 24 25  1  0  0  0  0
M  END
>  <MODEL>
7

>  <REMARK>
 VINA RESULT:      -7.0      2.093      3.443
  Name = 
  7 active torsions:
  status: ('A' for Active; 'I' for Inactive)
    1  A    between atoms: C_3  and  C_7
    2  A    between atoms: C_4  and  O_18
    3  A    between atoms: C_4  and  N_22
    4  A    between atoms: C_7  and  N_22
    5  A    between atoms: C_10  and  N_20
    6  A    between atoms: C_12  and  C_13
    7  A    between atoms: C_12  and  O_18
                            x       y       z     vdW  Elec       q    Type
                         _______ _______ _______ _____ _____    ______ ____

>  <TORSDO>
F 7

$$$$
=
 OpenBabel11032419183D

 25 29  0  0  0  0  0  0  0  0999 V2000
  189.7570  178.4320  143.7670 C   0  0  0  0  0  3  0  0  0  0  0  0
  188.8130  177.8980  144.4940 C   0  0  0  0  0  0  0  0  0  0  0  0
  187.8700  177.3600  145.2220 C   0  0  0  0  0  0  0  0  0  0  0  0
  188.5700  177.6760  138.8060 N   0  0  0  0  0  0  0  0  0  0  0  0
  187.7890  178.2480  139.7790 C   0  0  0  0  0  3  0  0  0  0  0  0
  190.2720  177.3090  140.3910 C   0  0  0  0  0  0  0  0  0  0  0  0
  191.4440  176.9210  140.9230 N   0  0  0  0  0  0  0  0  0  0  0  0
  188.2510  178.3580  141.0610 N   0  0  0  0  0  0  0  0  0  0  0  0
  191.3320  177.2970  142.2270 C   0  0  0  0  0  3  0  0  0  0  0  0
  190.1450  177.8920  142.4990 N   0  0  0  0  0  0  0  0  0  0  0  0
  189.8180  177.1940  139.0880 C   0  0  0  0  0  0  0  0  0  0  0  0
  190.6240  176.6130  138.0670 N   0  0  0  0  0  1  0  0  0  0  0  0
  189.4920  177.8860  141.3300 C   0  0  0  0  0  0  0  0  0  0  0  0
  186.1170  178.6280  144.0440 C   0  0  0  0  0  2  0  0  0  0  0  0
  185.5180  178.1910  145.3620 C   0  0  0  0  0  2  0  0  0  0  0  0
  186.4930  177.2830  144.6340 C   0  0  0  0  0  3  0  0  0  0  0  0
  188.1340  176.8520  146.5060 O   0  0  0  0  0  0  0  0  0  0  0  0
  188.6670  177.6240  147.5840 C   0  0  0  0  0  0  0  0  0  0  0  0
  187.9050  178.8290  148.0900 C   0  0  0  0  0  2  0  0  0  0  0  0
  187.8440  177.5030  148.8440 C   0  0  0  0  0  2  0  0  0  0  0  0
  190.1000  177.5460  147.8400 N   0  0  0  0  0  2  0  0  0  0  0  0
  190.5890  176.2730  147.3350 C   0  0  0  0  0  2  0  0  0  0  0  0
  192.0610  176.3710  147.0130 C   0  0  0  0  0  3  0  0  0  0  0  0
  192.7030  175.2530  147.4950 O   0  0  0  0  0  0  0  0  0  0  0  0
  192.7910  176.4040  148.1760 O   0  0  0  0  0  0  0  0  0  0  0  0
  1  2  2  0  0  0  0
  2  3  2  0  0  0  0
  3 17  1  0  0  0  0
  4 11  2  0  0  0  0
  4  5  1  0  0  0  0
  5  8  2  0  0  0  0
  6  7  1  0  0  0  0
  6 13  2  0  0  0  0
  7  9  2  0  0  0  0
  8 13  1  0  0  0  0
  9 10  1  0  0  0  0
 10  1  1  0  0  0  0
 11  6  1  0  0  0  0
 12 11  1  0  0  0  0
 13 10  1  0  0  0  0
 14 16  1  0  0  0  0
 14 15  1  0  0  0  0
 16  3  1  0  0  0  0
 16 15  1  0  0  0  0
 17 18  1  0  0  0  0
 18 21  1  0  0  0  0
 18 19  1  0  0  0  0
 18 20  1  0  0  0  0
 19 20  1  0  0  0  0
 22 21  1  0  0  0  0
 23 22  1  0  0  0  0
 23 24  1  0  0  0  0
 23 25  1  0  0  0  0
 24 25  1  0  0  0  0
M  END
>  <MODEL>
8

>  <REMARK>
 VINA RESULT:      -7.0      2.078      4.310
  Name = 
  7 active torsions:
  status: ('A' for Active; 'I' for Inactive)
    1  A    between atoms: C_3  and  C_7
    2  A    between atoms: C_4  and  O_18
    3  A    between atoms: C_4  and  N_22
    4  A    between atoms: C_7  and  N_22
    5  A    between atoms: C_10  and  N_20
    6  A    between atoms: C_12  and  C_13
    7  A    between atoms: C_12  and  O_18
                            x       y       z     vdW  Elec       q    Type
                         _______ _______ _______ _____ _____    ______ ____

>  <TORSDO>
F 7

$$$$
=
 OpenBabel11032419183D

 25 29  0  0  0  0  0  0  0  0999 V2000
  186.1490  178.7910  142.0790 C   0  0  0  0  0  3  0  0  0  0  0  0
  186.5710  178.0080  143.0340 C   0  0  0  0  0  0  0  0  0  0  0  0
  186.9930  177.2210  143.9880 C   0  0  0  0  0  0  0  0  0  0  0  0
  181.0740  178.8170  142.9930 N   0  0  0  0  0  0  0  0  0  0  0  0
  182.0930  178.8750  143.9100 C   0  0  0  0  0  3  0  0  0  0  0  0
  182.6520  178.6760  141.2510 C   0  0  0  0  0  0  0  0  0  0  0  0
  183.1650  178.5790  140.0120 N   0  0  0  0  0  0  0  0  0  0  0  0
  183.3960  178.8400  143.4990 N   0  0  0  0  0  0  0  0  0  0  0  0
  184.5090  178.5990  140.2310 C   0  0  0  0  0  3  0  0  0  0  0  0
  184.8230  178.7020  141.5450 N   0  0  0  0  0  0  0  0  0  0  0  0
  181.3280  178.7140  141.6530 C   0  0  0  0  0  0  0  0  0  0  0  0
  180.2610  178.6670  140.7090 N   0  0  0  0  0  1  0  0  0  0  0  0
  183.6400  178.7470  142.1690 C   0  0  0  0  0  0  0  0  0  0  0  0
  186.1270  178.7070  145.7510 C   0  0  0  0  0  2  0  0  0  0  0  0
  187.1520  177.8120  146.4100 C   0  0  0  0  0  2  0  0  0  0  0  0
  186.2710  177.2660  145.3010 C   0  0  0  0  0  3  0  0  0  0  0  0
  188.0750  176.3450  143.7910 O   0  0  0  0  0  0  0  0  0  0  0  0
  189.4140  176.7650  143.5230 C   0  0  0  0  0  0  0  0  0  0  0  0
  190.3770  175.8130  142.8480 C   0  0  0  0  0  2  0  0  0  0  0  0
  189.6900  176.9160  142.0470 C   0  0  0  0  0  2  0  0  0  0  0  0
  189.9580  177.8650  144.3120 N   0  0  0  0  0  2  0  0  0  0  0  0
  191.2210  177.4350  144.8910 C   0  0  0  0  0  2  0  0  0  0  0  0
  190.9770  176.7150  146.1960 C   0  0  0  0  0  3  0  0  0  0  0  0
  191.9730  177.0480  147.0860 O   0  0  0  0  0  0  0  0  0  0  0  0
  192.0230  175.8640  146.4600 O   0  0  0  0  0  0  0  0  0  0  0  0
  1  2  2  0  0  0  0
  2  3  2  0  0  0  0
  3 16  1  0  0  0  0
  4  5  1  0  0  0  0
  6 11  1  0  0  0  0
  6 13  2  0  0  0  0
  7  9  2  0  0  0  0
  7  6  1  0  0  0  0
  8  5  2  0  0  0  0
  9 10  1  0  0  0  0
 10  1  1  0  0  0  0
 10 13  1  0  0  0  0
 11  4  2  0  0  0  0
 12 11  1  0  0  0  0
 13  8  1  0  0  0  0
 14 15  1  0  0  0  0
 16 14  1  0  0  0  0
 16 15  1  0  0  0  0
 17  3  1  0  0  0  0
 18 17  1  0  0  0  0
 18 21  1  0  0  0  0
 19 18  1  0  0  0  0
 20 19  1  0  0  0  0
 20 18  1  0  0  0  0
 21 22  1  0  0  0  0
 22 23  1  0  0  0  0
 23 25  1  0  0  0  0
 23 24  1  0  0  0  0
 25 24  1  0  0  0  0
M  END
>  <MODEL>
9

>  <REMARK>
 VINA RESULT:      -7.0      3.506      6.226
  Name = 
  7 active torsions:
  status: ('A' for Active; 'I' for Inactive)
    1  A    between atoms: C_3  and  C_7
    2  A    between atoms: C_4  and  O_18
    3  A    between atoms: C_4  and  N_22
    4  A    between atoms: C_7  and  N_22
    5  A    between atoms: C_10  and  N_20
    6  A    between atoms: C_12  and  C_13
    7  A    between atoms: C_12  and  O_18
                            x       y       z     vdW  Elec       q    Type
                         _______ _______ _______ _____ _____    ______ ____

>  <TORSDO>
F 7

$$$$
