=
 OpenBabel11032421043D

 59 61  0  0  1  0  0  0  0  0999 V2000
  190.2130  177.3130  136.0150 C   0  0  0  0  0  2  0  0  0  0  0  0
  188.9450  176.4550  138.0390 C   0  0  1  0  0  3  0  0  0  0  0  0
  188.8410  177.1490  136.6650 C   0  0  1  0  0  3  0  0  0  0  0  0
  190.8480  175.9350  135.8080 C   0  0  2  0  0  3  0  0  0  0  0  0
  189.5900  175.0700  137.8340 C   0  0  2  0  0  3  0  0  0  0  0  0
  190.9530  175.1850  137.1360 C   0  0  0  0  0  2  0  0  0  0  0  0
  188.0460  178.4160  136.6720 C   0  0  0  0  0  0  0  0  0  0  0  0
  188.6490  179.5190  136.7530 O   0  0  0  0  0  0  0  0  0  0  0  0
  186.6540  178.3740  136.5270 O   0  0  0  0  0  0  0  0  0  0  0  0
  185.7990  178.0400  137.5600 N   0  0  0  0  0  2  0  0  0  0  0  0
  185.1730  175.7270  136.7300 C   0  0  0  0  0  1  0  0  0  0  0  0
  183.6370  177.1700  137.8850 C   0  0  0  0  0  0  0  0  0  0  0  0
  184.8640  176.9570  137.5100 C   0  0  0  0  0  0  0  0  0  0  0  0
  182.4020  177.3960  138.2550 C   0  0  0  0  0  3  0  0  0  0  0  0
  182.0150  178.5360  139.1550 C   0  0  2  0  0  0  0  0  0  0  0  0
  183.2110  179.4610  139.3280 C   0  0  0  0  0  1  0  0  0  0  0  0
  181.4800  179.1460  141.5720 C   0  0  0  0  0  1  0  0  0  0  0  0
  181.5820  178.0310  140.5390 C   0  0  0  0  0  2  0  0  0  0  0  0
  180.8820  179.3160  138.4810 C   0  0  0  0  0  2  0  0  0  0  0  0
  181.2040  179.6250  137.1560 O   0  0  0  0  0  1  0  0  0  0  0  0
  189.5830  173.3350  136.4540 C   0  0  0  0  0  1  0  0  0  0  0  0
  188.7410  174.2380  137.1010 O   0  0  0  0  0  0  0  0  0  0  0  0
  192.2350  176.0820  135.2080 C   0  0  0  0  0  2  0  0  0  0  0  0
  193.2960  175.6190  136.1980 C   0  0  0  0  0  2  0  0  0  0  0  0
  193.4570  173.3350  135.1500 C   0  0  0  0  0  1  0  0  0  0  0  0
  194.2200  174.5920  135.5580 C   0  0  2  0  0  3  0  0  0  0  0  0
  195.4820  174.3120  136.4140 C   0  0  2  0  0  3  0  0  0  0  0  0
  195.1760  173.6860  137.7800 C   0  0  0  0  0  3  0  0  0  0  0  0
  195.5400  174.6010  138.9360 C   0  0  0  0  0  1  0  0  0  0  0  0
  195.9040  172.3680  137.9290 C   0  0  0  0  0  1  0  0  0  0  0  0
  196.5400  176.2360  135.3260 C   0  0  0  0  0  1  0  0  0  0  0  0
  196.5370  175.3470  136.4780 N   0  0  0  0  0  0  0  0  0  0  0  0
  197.8310  174.6900  136.5390 C   0  0  0  0  0  1  0  0  0  0  0  0
  189.6900  177.3080  139.1040 C   0  0  1  0  0  3  0  0  0  0  0  0
  188.2640  178.9680  140.0160 O   0  0  0  0  0  0  0  0  0  0  0  0
  188.7670  177.8630  140.1500 C   0  0  0  0  0  0  0  0  0  0  0  0
  188.4430  177.0500  141.3560 C   0  0  0  0  0  1  0  0  0  0  0  0
  190.8840  176.6020  139.7570 C   0  0  0  0  0  2  0  0  0  0  0  0
  191.8290  177.5700  140.4530 C   0  0  0  0  0  2  0  0  0  0  0  0
  192.1770  177.0180  141.8140 C   0  0  0  0  0  2  0  0  0  0  0  0
  192.1400  178.0590  142.7780 O   0  0  0  0  0  0  0  0  0  0  0  0
  191.9340  178.6560  144.9800 O   0  0  0  0  0  0  0  0  0  0  0  0
  191.6200  177.8580  144.0580 C   0  0  0  0  0  0  0  0  0  0  0  0
  189.5130  177.1560  145.2010 C   0  0  0  0  0  0  0  0  0  0  0  0
  190.7860  176.9190  147.3570 C   0  0  0  0  0  3  0  0  0  0  0  0
  189.6250  177.2870  146.5260 C   0  0  0  0  0  3  0  0  0  0  0  0
  191.7930  175.1630  145.8920 C   0  0  0  0  0  3  0  0  0  0  0  0
  191.2900  175.4450  144.6910 C   0  0  0  0  0  3  0  0  0  0  0  0
  190.6460  176.7420  144.3170 C   0  0  2  0  0  3  0  0  0  0  0  0
  191.7490  176.0290  147.0850 C   0  0  0  0  0  0  0  0  0  0  0  0
  192.9390  176.9900  148.8800 O   0  0  0  0  0  1  0  0  0  0  0  0
  192.8120  175.8300  148.1110 C   0  0  0  0  0  2  0  0  0  0  0  0
  188.2720  177.6510  144.5380 C   0  0  0  0  0  2  0  0  0  0  0  0
  187.0610  177.4360  145.4320 C   0  0  0  0  0  2  0  0  0  0  0  0
  184.9900  178.5630  146.2430 C   0  0  0  0  0  2  0  0  0  0  0  0
  185.9810  178.4590  145.1080 C   0  0  2  0  0  3  0  0  0  0  0  0
  183.9980  178.5910  144.0860 C   0  0  0  0  0  2  0  0  0  0  0  0
  183.6700  178.7200  145.5550 C   0  0  0  0  0  2  0  0  0  0  0  0
  185.2930  178.0660  143.9520 O   0  0  0  0  0  0  0  0  0  0  0  0
  1  3  1  0  0  0  0
  2 34  1  1  0  0  0
  3  7  1  1  0  0  0
  3  2  1  0  0  0  0
  4 23  1  1  0  0  0
  4  1  1  0  0  0  0
  4  6  1  0  0  0  0
  5 22  1  6  0  0  0
  5  2  1  0  0  0  0
  6  5  1  0  0  0  0
  7  8  2  0  0  0  0
  9  7  1  0  0  0  0
  9 10  1  0  0  0  0
 11 13  1  0  0  0  0
 12 14  2  0  0  0  0
 13 10  1  0  0  0  0
 13 12  2  0  0  0  0
 14 15  1  0  0  0  0
 15 16  1  1  0  0  0
 15 18  1  0  0  0  0
 18 17  1  0  0  0  0
 19 15  1  0  0  0  0
 20 19  1  0  0  0  0
 21 22  1  0  0  0  0
 23 24  1  0  0  0  0
 26 25  1  1  0  0  0
 26 24  1  0  0  0  0
 26 27  1  0  0  0  0
 27 32  1  0  0  0  0
 27 28  1  1  0  0  0
 28 30  1  0  0  0  0
 28 29  1  0  0  0  0
 31 32  1  0  0  0  0
 32 33  1  0  0  0  0
 34 38  1  1  0  0  0
 34 36  1  0  0  0  0
 35 36  2  0  0  0  0
 36 37  1  0  0  0  0
 38 39  1  0  0  0  0
 39 40  1  0  0  0  0
 40 41  1  0  0  0  0
 41 43  1  0  0  0  0
 43 42  2  0  0  0  0
 44 46  2  0  0  0  0
 46 45  1  0  0  0  0
 47 50  1  0  0  0  0
 48 47  2  0  0  0  0
 49 43  1  1  0  0  0
 49 48  1  0  0  0  0
 49 44  1  0  0  0  0
 50 45  2  0  0  0  0
 50 52  1  0  0  0  0
 52 51  1  0  0  0  0
 53 44  1  0  0  0  0
 53 54  1  0  0  0  0
 56 54  1  1  0  0  0
 56 55  1  0  0  0  0
 57 58  1  0  0  0  0
 58 55  1  0  0  0  0
 59 57  1  0  0  0  0
 59 56  1  0  0  0  0
M  END
>  <MODEL>
1

>  <REMARK>
 VINA RESULT:      -6.6      0.000      0.000
  Name = 
  26 active torsions:
  status: ('A' for Active; 'I' for Inactive)
    1  A    between atoms: C_1  and  C_50
    2  A    between atoms: C_3  and  C_5
    3  A    between atoms: C_4  and  C_18
    4  A    between atoms: C_5  and  C_6
    5  A    between atoms: C_5  and  C_29
    6  A    between atoms: C_6  and  C_57
    7  A    between atoms: O_13  and  C_38
    8  A    between atoms: O_13  and  C_54
    9  A    between atoms: N_15  and  C_42
   10  A    between atoms: C_17  and  C_28
   11  A    between atoms: C_17  and  C_47
   12  A    between atoms: C_18  and  C_53
   13  A    between atoms: C_18  and  C_59
   14  A    between atoms: C_20  and  C_21
   15  A    between atoms: C_21  and  O_30
   16  A    between atoms: C_23  and  C_33
   17  A    between atoms: C_25  and  C_28
   18  A    between atoms: O_30  and  N_56
   19  A    between atoms: C_33  and  C_50
   20  A    between atoms: C_34  and  O_58
   21  A    between atoms: C_37  and  C_42
   22  A    between atoms: C_38  and  C_39
   23  A    between atoms: C_41  and  C_46
   24  A    between atoms: C_42  and  C_47
   25  A    between atoms: C_43  and  N_56
   26  A    between atoms: C_54  and  C_57
                            x       y       z     vdW  Elec       q    Type
                         _______ _______ _______ _____ _____    ______ ____

>  <TORSDO>
F 26

$$$$
=
 OpenBabel11032421043D

 59 61  0  0  1  0  0  0  0  0999 V2000
  182.5200  177.0510  139.4650 C   0  0  0  0  0  2  0  0  0  0  0  0
  181.8440  179.3630  140.2630 C   0  0  1  0  0  3  0  0  0  0  0  0
  182.5920  178.5500  139.1860 C   0  0  1  0  0  3  0  0  0  0  0  0
  181.0570  176.6020  139.4720 C   0  0  2  0  0  3  0  0  0  0  0  0
  180.3710  178.9090  140.2760 C   0  0  2  0  0  3  0  0  0  0  0  0
  180.2540  177.3950  140.5050 C   0  0  0  0  0  2  0  0  0  0  0  0
  183.9840  179.0250  138.9110 C   0  0  0  0  0  0  0  0  0  0  0  0
  184.4120  180.0500  139.5050 O   0  0  0  0  0  0  0  0  0  0  0  0
  184.8180  178.2980  138.0540 O   0  0  0  0  0  0  0  0  0  0  0  0
  184.3670  177.2510  137.2730 N   0  0  0  0  0  2  0  0  0  0  0  0
  183.5010  177.2090  134.8890 C   0  0  0  0  0  1  0  0  0  0  0  0
  185.7620  176.6450  135.4780 C   0  0  0  0  0  0  0  0  0  0  0  0
  184.6190  177.1280  135.8690 C   0  0  0  0  0  0  0  0  0  0  0  0
  186.9100  176.1490  135.0930 C   0  0  0  0  0  3  0  0  0  0  0  0
  188.1340  176.1490  135.9670 C   0  0  2  0  0  0  0  0  0  0  0  0
  187.7180  175.8640  137.4030 C   0  0  0  0  0  1  0  0  0  0  0  0
  188.0270  178.6310  136.5450 C   0  0  0  0  0  1  0  0  0  0  0  0
  188.8490  177.5080  135.9240 C   0  0  0  0  0  2  0  0  0  0  0  0
  189.0630  175.0290  135.4900 C   0  0  0  0  0  2  0  0  0  0  0  0
  188.9160  173.8840  136.2800 O   0  0  0  0  0  1  0  0  0  0  0  0
  179.4530  180.6250  139.2160 C   0  0  0  0  0  1  0  0  0  0  0  0
  179.7370  179.2670  139.0850 O   0  0  0  0  0  0  0  0  0  0  0  0
  180.9630  175.1220  139.7980 C   0  0  0  0  0  2  0  0  0  0  0  0
  180.2620  174.3720  138.6730 C   0  0  0  0  0  2  0  0  0  0  0  0
  180.4750  175.2700  136.3310 C   0  0  0  0  0  1  0  0  0  0  0  0
  181.1040  174.3880  137.4060 C   0  0  2  0  0  3  0  0  0  0  0  0
  181.4700  172.9630  136.9160 C   0  0  2  0  0  3  0  0  0  0  0  0
  182.9690  172.7610  136.6660 C   0  0  0  0  0  3  0  0  0  0  0  0
  183.4260  171.3450  136.9700 C   0  0  0  0  0  1  0  0  0  0  0  0
  183.7760  173.7410  137.4910 C   0  0  0  0  0  1  0  0  0  0  0  0
  180.2930  170.9450  136.1740 C   0  0  0  0  0  1  0  0  0  0  0  0
  180.6240  172.3330  135.8800 N   0  0  0  0  0  0  0  0  0  0  0  0
  181.3370  172.3630  134.6140 C   0  0  0  0  0  1  0  0  0  0  0  0
  182.5060  179.2790  141.6670 C   0  0  1  0  0  3  0  0  0  0  0  0
  180.7880  180.4170  142.8400 O   0  0  0  0  0  0  0  0  0  0  0  0
  181.5150  179.4370  142.7840 C   0  0  0  0  0  0  0  0  0  0  0  0
  181.4010  178.3790  143.8270 C   0  0  0  0  0  1  0  0  0  0  0  0
  183.3710  178.0320  141.8860 C   0  0  0  0  0  2  0  0  0  0  0  0
  184.6490  178.3320  142.6540 C   0  0  0  0  0  2  0  0  0  0  0  0
  185.8330  177.9850  141.7850 C   0  0  0  0  0  2  0  0  0  0  0  0
  187.0220  178.4970  142.3660 O   0  0  0  0  0  0  0  0  0  0  0  0
  187.8220  176.5450  143.2590 O   0  0  0  0  0  0  0  0  0  0  0  0
  188.0780  177.6630  142.7390 C   0  0  0  0  0  0  0  0  0  0  0  0
  190.3310  176.9390  141.9390 C   0  0  0  0  0  0  0  0  0  0  0  0
  190.7690  175.8930  144.1830 C   0  0  0  0  0  3  0  0  0  0  0  0
  190.8190  175.9640  142.7110 C   0  0  0  0  0  3  0  0  0  0  0  0
  190.5990  178.3310  144.7030 C   0  0  0  0  0  3  0  0  0  0  0  0
  190.1360  178.8510  143.5670 C   0  0  0  0  0  3  0  0  0  0  0  0
  189.5000  178.0670  142.4640 C   0  0  2  0  0  3  0  0  0  0  0  0
  190.6410  176.9000  145.0570 C   0  0  0  0  0  0  0  0  0  0  0  0
  191.7880  177.0630  147.1110 O   0  0  0  0  0  1  0  0  0  0  0  0
  190.6340  176.5570  146.5070 C   0  0  0  0  0  2  0  0  0  0  0  0
  190.4260  176.7900  140.4570 C   0  0  0  0  0  2  0  0  0  0  0  0
  191.6940  177.4440  139.9320 C   0  0  0  0  0  2  0  0  0  0  0  0
  191.2030  175.6640  138.2560 C   0  0  0  0  0  2  0  0  0  0  0  0
  192.0520  176.8750  138.5660 C   0  0  2  0  0  3  0  0  0  0  0  0
  193.4820  175.4360  137.6300 C   0  0  0  0  0  2  0  0  0  0  0  0
  192.1470  174.7290  137.5680 C   0  0  0  0  0  2  0  0  0  0  0  0
  193.3990  176.4880  138.5550 O   0  0  0  0  0  0  0  0  0  0  0  0
  1  4  1  0  0  0  0
  2  5  1  0  0  0  0
  2 34  1  1  0  0  0
  3  7  1  1  0  0  0
  3  1  1  0  0  0  0
  3  2  1  0  0  0  0
  4 23  1  1  0  0  0
  4  6  1  0  0  0  0
  5 22  1  6  0  0  0
  5  6  1  0  0  0  0
  7  8  2  0  0  0  0
  9  7  1  0  0  0  0
 10  9  1  0  0  0  0
 11 13  1  0  0  0  0
 12 13  2  0  0  0  0
 13 10  1  0  0  0  0
 14 12  2  0  0  0  0
 14 15  1  0  0  0  0
 15 16  1  1  0  0  0
 18 15  1  0  0  0  0
 18 17  1  0  0  0  0
 19 15  1  0  0  0  0
 19 20  1  0  0  0  0
 22 21  1  0  0  0  0
 24 23  1  0  0  0  0
 26 25  1  6  0  0  0
 26 24  1  0  0  0  0
 27 28  1  6  0  0  0
 27 26  1  0  0  0  0
 28 29  1  0  0  0  0
 28 30  1  0  0  0  0
 32 31  1  0  0  0  0
 32 27  1  0  0  0  0
 33 32  1  0  0  0  0
 34 38  1  1  0  0  0
 34 36  1  0  0  0  0
 36 35  2  0  0  0  0
 36 37  1  0  0  0  0
 38 39  1  0  0  0  0
 40 41  1  0  0  0  0
 40 39  1  0  0  0  0
 41 43  1  0  0  0  0
 43 42  2  0  0  0  0
 44 49  1  0  0  0  0
 44 46  2  0  0  0  0
 45 50  2  0  0  0  0
 46 45  1  0  0  0  0
 47 50  1  0  0  0  0
 48 47  2  0  0  0  0
 49 43  1  1  0  0  0
 49 48  1  0  0  0  0
 50 52  1  0  0  0  0
 52 51  1  0  0  0  0
 53 44  1  0  0  0  0
 54 53  1  0  0  0  0
 55 56  1  0  0  0  0
 56 54  1  1  0  0  0
 57 59  1  0  0  0  0
 58 57  1  0  0  0  0
 58 55  1  0  0  0  0
 59 56  1  0  0  0  0
M  END
>  <MODEL>
2

>  <REMARK>
 VINA RESULT:      -5.7      2.757      8.952
  Name = 
  26 active torsions:
  status: ('A' for Active; 'I' for Inactive)
    1  A    between atoms: C_1  and  C_50
    2  A    between atoms: C_3  and  C_5
    3  A    between atoms: C_4  and  C_18
    4  A    between atoms: C_5  and  C_6
    5  A    between atoms: C_5  and  C_29
    6  A    between atoms: C_6  and  C_57
    7  A    between atoms: O_13  and  C_38
    8  A    between atoms: O_13  and  C_54
    9  A    between atoms: N_15  and  C_42
   10  A    between atoms: C_17  and  C_28
   11  A    between atoms: C_17  and  C_47
   12  A    between atoms: C_18  and  C_53
   13  A    between atoms: C_18  and  C_59
   14  A    between atoms: C_20  and  C_21
   15  A    between atoms: C_21  and  O_30
   16  A    between atoms: C_23  and  C_33
   17  A    between atoms: C_25  and  C_28
   18  A    between atoms: O_30  and  N_56
   19  A    between atoms: C_33  and  C_50
   20  A    between atoms: C_34  and  O_58
   21  A    between atoms: C_37  and  C_42
   22  A    between atoms: C_38  and  C_39
   23  A    between atoms: C_41  and  C_46
   24  A    between atoms: C_42  and  C_47
   25  A    between atoms: C_43  and  N_56
   26  A    between atoms: C_54  and  C_57
                            x       y       z     vdW  Elec       q    Type
                         _______ _______ _______ _____ _____    ______ ____

>  <TORSDO>
F 26

$$$$
=
 OpenBabel11032421043D

 59 61  0  0  1  0  0  0  0  0999 V2000
  190.1710  177.3450  136.2140 C   0  0  0  0  0  2  0  0  0  0  0  0
  188.8050  176.6020  138.2190 C   0  0  1  0  0  3  0  0  0  0  0  0
  188.7840  177.3130  136.8500 C   0  0  1  0  0  3  0  0  0  0  0  0
  190.6700  175.9140  136.0020 C   0  0  2  0  0  3  0  0  0  0  0  0
  189.3120  175.1620  138.0080 C   0  0  2  0  0  3  0  0  0  0  0  0
  190.6870  175.1470  137.3250 C   0  0  0  0  0  2  0  0  0  0  0  0
  188.1170  178.6520  136.8600 C   0  0  0  0  0  0  0  0  0  0  0  0
  188.7900  179.6710  137.1730 O   0  0  0  0  0  0  0  0  0  0  0  0
  186.7800  178.7760  136.4650 O   0  0  0  0  0  0  0  0  0  0  0  0
  185.8210  177.8190  136.7410 N   0  0  0  0  0  2  0  0  0  0  0  0
  185.2550  178.5710  139.0960 C   0  0  0  0  0  1  0  0  0  0  0  0
  183.8160  177.1640  137.7830 C   0  0  0  0  0  0  0  0  0  0  0  0
  184.8790  177.9130  137.8150 C   0  0  0  0  0  0  0  0  0  0  0  0
  182.7550  176.3990  137.7480 C   0  0  0  0  0  3  0  0  0  0  0  0
  182.2200  175.8020  136.4750 C   0  0  2  0  0  0  0  0  0  0  0  0
  183.3670  175.6190  135.4920 C   0  0  0  0  0  1  0  0  0  0  0  0
  181.6880  177.4570  134.6100 C   0  0  0  0  0  1  0  0  0  0  0  0
  181.1640  176.7140  135.8330 C   0  0  0  0  0  2  0  0  0  0  0  0
  181.6270  174.4290  136.8030 C   0  0  0  0  0  2  0  0  0  0  0  0
  180.5570  174.1280  135.9540 O   0  0  0  0  0  1  0  0  0  0  0  0
  189.1010  173.3110  136.8080 C   0  0  0  0  0  1  0  0  0  0  0  0
  188.3930  174.4220  137.2610 O   0  0  0  0  0  0  0  0  0  0  0  0
  192.0710  175.9270  135.4160 C   0  0  0  0  0  2  0  0  0  0  0  0
  193.0410  175.1970  136.3360 C   0  0  0  0  0  2  0  0  0  0  0  0
  194.5450  176.6030  134.8870 C   0  0  0  0  0  1  0  0  0  0  0  0
  194.4780  175.5920  136.0290 C   0  0  2  0  0  3  0  0  0  0  0  0
  195.4050  174.3630  135.8360 C   0  0  2  0  0  3  0  0  0  0  0  0
  194.8360  173.0640  136.4160 C   0  0  0  0  0  3  0  0  0  0  0  0
  195.6840  172.5090  137.5470 C   0  0  0  0  0  1  0  0  0  0  0  0
  194.6970  172.0200  135.3280 C   0  0  0  0  0  1  0  0  0  0  0  0
  197.3670  175.8240  135.6880 C   0  0  0  0  0  1  0  0  0  0  0  0
  196.8530  174.5230  136.0910 N   0  0  0  0  0  0  0  0  0  0  0  0
  197.5730  173.5070  135.3440 C   0  0  0  0  0  1  0  0  0  0  0  0
  189.6200  177.3690  139.2980 C   0  0  1  0  0  3  0  0  0  0  0  0
  188.2970  179.0380  140.3400 O   0  0  0  0  0  0  0  0  0  0  0  0
  188.7550  177.9080  140.4010 C   0  0  0  0  0  0  0  0  0  0  0  0
  188.4340  177.0480  141.5750 C   0  0  0  0  0  1  0  0  0  0  0  0
  190.8040  176.5850  139.8740 C   0  0  0  0  0  2  0  0  0  0  0  0
  191.8770  177.4880  140.4600 C   0  0  0  0  0  2  0  0  0  0  0  0
  192.1860  177.0310  141.8660 C   0  0  0  0  0  2  0  0  0  0  0  0
  192.1800  178.1440  142.7450 O   0  0  0  0  0  0  0  0  0  0  0  0
  191.5360  179.1180  144.7170 O   0  0  0  0  0  0  0  0  0  0  0  0
  191.4190  178.1530  143.9160 C   0  0  0  0  0  0  0  0  0  0  0  0
  189.4060  177.4400  145.2120 C   0  0  0  0  0  0  0  0  0  0  0  0
  190.8750  176.9820  147.2010 C   0  0  0  0  0  3  0  0  0  0  0  0
  189.6550  177.4590  146.5240 C   0  0  0  0  0  3  0  0  0  0  0  0
  191.6520  175.3140  145.5110 C   0  0  0  0  0  3  0  0  0  0  0  0
  191.0450  175.7100  144.3930 C   0  0  0  0  0  3  0  0  0  0  0  0
  190.4260  177.0560  144.1870 C   0  0  2  0  0  3  0  0  0  0  0  0
  191.7650  176.0810  146.7650 C   0  0  0  0  0  0  0  0  0  0  0  0
  192.9320  176.6550  148.7320 O   0  0  0  0  0  1  0  0  0  0  0  0
  192.9150  175.7610  147.6580 C   0  0  0  0  0  2  0  0  0  0  0  0
  188.1290  178.0330  144.7190 C   0  0  0  0  0  2  0  0  0  0  0  0
  186.9660  177.0870  144.9680 C   0  0  0  0  0  2  0  0  0  0  0  0
  185.5140  177.9520  143.1350 C   0  0  0  0  0  2  0  0  0  0  0  0
  185.6500  177.7720  144.6280 C   0  0  2  0  0  3  0  0  0  0  0  0
  184.7940  179.8240  144.4050 C   0  0  0  0  0  2  0  0  0  0  0  0
  184.8780  179.3000  142.9900 C   0  0  0  0  0  2  0  0  0  0  0  0
  185.6070  179.0350  145.2340 O   0  0  0  0  0  0  0  0  0  0  0  0
  1  3  1  0  0  0  0
  2 34  1  1  0  0  0
  3  7  1  1  0  0  0
  3  2  1  0  0  0  0
  4 23  1  1  0  0  0
  4  1  1  0  0  0  0
  4  6  1  0  0  0  0
  5 22  1  6  0  0  0
  5  2  1  0  0  0  0
  6  5  1  0  0  0  0
  7  8  2  0  0  0  0
  9 10  1  0  0  0  0
  9  7  1  0  0  0  0
 10 13  1  0  0  0  0
 12 13  2  0  0  0  0
 13 11  1  0  0  0  0
 14 12  2  0  0  0  0
 15 16  1  6  0  0  0
 15 19  1  0  0  0  0
 15 14  1  0  0  0  0
 17 18  1  0  0  0  0
 18 15  1  0  0  0  0
 20 19  1  0  0  0  0
 21 22  1  0  0  0  0
 23 24  1  0  0  0  0
 26 25  1  6  0  0  0
 26 24  1  0  0  0  0
 27 26  1  0  0  0  0
 27 32  1  0  0  0  0
 27 28  1  1  0  0  0
 28 29  1  0  0  0  0
 30 28  1  0  0  0  0
 31 32  1  0  0  0  0
 33 32  1  0  0  0  0
 34 38  1  1  0  0  0
 34 36  1  0  0  0  0
 35 36  2  0  0  0  0
 36 37  1  0  0  0  0
 38 39  1  0  0  0  0
 39 40  1  0  0  0  0
 40 41  1  0  0  0  0
 41 43  1  0  0  0  0
 43 42  2  0  0  0  0
 44 46  2  0  0  0  0
 46 45  1  0  0  0  0
 47 50  1  0  0  0  0
 48 47  2  0  0  0  0
 49 43  1  1  0  0  0
 49 48  1  0  0  0  0
 49 44  1  0  0  0  0
 50 45  2  0  0  0  0
 50 52  1  0  0  0  0
 52 51  1  0  0  0  0
 53 54  1  0  0  0  0
 53 44  1  0  0  0  0
 55 56  1  0  0  0  0
 56 54  1  6  0  0  0
 56 59  1  0  0  0  0
 57 59  1  0  0  0  0
 58 55  1  0  0  0  0
 58 57  1  0  0  0  0
M  END
>  <MODEL>
3

>  <REMARK>
 VINA RESULT:      -5.6      1.456      2.100
  Name = 
  26 active torsions:
  status: ('A' for Active; 'I' for Inactive)
    1  A    between atoms: C_1  and  C_50
    2  A    between atoms: C_3  and  C_5
    3  A    between atoms: C_4  and  C_18
    4  A    between atoms: C_5  and  C_6
    5  A    between atoms: C_5  and  C_29
    6  A    between atoms: C_6  and  C_57
    7  A    between atoms: O_13  and  C_38
    8  A    between atoms: O_13  and  C_54
    9  A    between atoms: N_15  and  C_42
   10  A    between atoms: C_17  and  C_28
   11  A    between atoms: C_17  and  C_47
   12  A    between atoms: C_18  and  C_53
   13  A    between atoms: C_18  and  C_59
   14  A    between atoms: C_20  and  C_21
   15  A    between atoms: C_21  and  O_30
   16  A    between atoms: C_23  and  C_33
   17  A    between atoms: C_25  and  C_28
   18  A    between atoms: O_30  and  N_56
   19  A    between atoms: C_33  and  C_50
   20  A    between atoms: C_34  and  O_58
   21  A    between atoms: C_37  and  C_42
   22  A    between atoms: C_38  and  C_39
   23  A    between atoms: C_41  and  C_46
   24  A    between atoms: C_42  and  C_47
   25  A    between atoms: C_43  and  N_56
   26  A    between atoms: C_54  and  C_57
                            x       y       z     vdW  Elec       q    Type
                         _______ _______ _______ _____ _____    ______ ____

>  <TORSDO>
F 26

$$$$
=
 OpenBabel11032421043D

 59 61  0  0  1  0  0  0  0  0999 V2000
  192.1260  178.0580  141.8000 C   0  0  0  0  0  2  0  0  0  0  0  0
  190.4810  176.8120  140.3230 C   0  0  1  0  0  3  0  0  0  0  0  0
  191.9620  176.9950  140.7160 C   0  0  1  0  0  3  0  0  0  0  0  0
  191.3470  177.6390  143.0490 C   0  0  2  0  0  3  0  0  0  0  0  0
  189.6940  176.3950  141.5810 C   0  0  2  0  0  3  0  0  0  0  0  0
  189.8720  177.4150  142.7150 C   0  0  0  0  0  2  0  0  0  0  0  0
  192.8880  177.1960  139.5580 C   0  0  0  0  0  0  0  0  0  0  0  0
  193.8900  177.9460  139.6970 O   0  0  0  0  0  0  0  0  0  0  0  0
  192.6750  176.5070  138.3590 O   0  0  0  0  0  0  0  0  0  0  0  0
  193.6710  175.8020  137.7080 N   0  0  0  0  0  2  0  0  0  0  0  0
  192.3850  175.4780  135.5470 C   0  0  0  0  0  1  0  0  0  0  0  0
  194.0630  173.9420  136.3220 C   0  0  0  0  0  0  0  0  0  0  0  0
  193.4820  175.0950  136.4780 C   0  0  0  0  0  0  0  0  0  0  0  0
  194.6440  172.7780  136.1770 C   0  0  0  0  0  3  0  0  0  0  0  0
  195.8450  172.3600  136.9800 C   0  0  2  0  0  0  0  0  0  0  0  0
  197.0310  172.1820  136.0430 C   0  0  0  0  0  1  0  0  0  0  0  0
  195.0850  169.9340  136.7810 C   0  0  0  0  0  1  0  0  0  0  0  0
  195.5920  171.0320  137.7090 C   0  0  0  0  0  2  0  0  0  0  0  0
  196.1670  173.4760  137.9780 C   0  0  0  0  0  2  0  0  0  0  0  0
  195.5000  173.2730  139.1900 O   0  0  0  0  0  1  0  0  0  0  0  0
  190.1260  175.2020  143.3980 C   0  0  0  0  0  1  0  0  0  0  0  0
  190.0860  175.1250  142.0070 O   0  0  0  0  0  0  0  0  0  0  0  0
  191.4580  178.7090  144.1200 C   0  0  0  0  0  2  0  0  0  0  0  0
  190.1160  178.9130  144.8120 C   0  0  0  0  0  2  0  0  0  0  0  0
  191.1630  177.0720  146.1730 C   0  0  0  0  0  1  0  0  0  0  0  0
  190.0480  178.1120  146.1040 C   0  0  2  0  0  3  0  0  0  0  0  0
  188.6330  177.5350  146.3730 C   0  0  2  0  0  3  0  0  0  0  0  0
  187.5710  178.0170  145.3780 C   0  0  0  0  0  3  0  0  0  0  0  0
  186.3740  178.6530  146.0640 C   0  0  0  0  0  1  0  0  0  0  0  0
  187.1040  176.8680  144.5100 C   0  0  0  0  0  1  0  0  0  0  0  0
  188.8690  178.3820  148.6610 C   0  0  0  0  0  1  0  0  0  0  0  0
  188.1400  177.4940  147.7660 N   0  0  0  0  0  0  0  0  0  0  0  0
  188.2820  176.1380  148.2700 C   0  0  0  0  0  1  0  0  0  0  0  0
  189.8720  178.0600  139.6240 C   0  0  1  0  0  3  0  0  0  0  0  0
  189.2560  178.6510  137.4120 O   0  0  0  0  0  0  0  0  0  0  0  0
  189.3700  177.7610  138.2410 C   0  0  0  0  0  0  0  0  0  0  0  0
  189.0260  176.3600  137.8650 C   0  0  0  0  0  1  0  0  0  0  0  0
  188.7970  178.7820  140.4430 C   0  0  0  0  0  2  0  0  0  0  0  0
  187.3860  178.4480  139.9850 C   0  0  0  0  0  2  0  0  0  0  0  0
  186.4470  178.5790  141.1600 C   0  0  0  0  0  2  0  0  0  0  0  0
  185.4050  179.4880  140.8420 O   0  0  0  0  0  0  0  0  0  0  0  0
  184.2480  180.2260  139.0070 O   0  0  0  0  0  0  0  0  0  0  0  0
  184.5370  179.2670  139.7700 C   0  0  0  0  0  0  0  0  0  0  0  0
  183.7350  177.6520  138.0420 C   0  0  0  0  0  0  0  0  0  0  0  0
  181.5070  178.8180  138.0150 C   0  0  0  0  0  3  0  0  0  0  0  0
  182.6610  178.1290  137.4070 C   0  0  0  0  0  3  0  0  0  0  0  0
  181.6380  177.8710  140.3230 C   0  0  0  0  0  3  0  0  0  0  0  0
  182.9030  177.4630  140.4120 C   0  0  0  0  0  3  0  0  0  0  0  0
  184.0050  177.8880  139.4940 C   0  0  2  0  0  3  0  0  0  0  0  0
  181.0710  178.7440  139.2790 C   0  0  0  0  0  0  0  0  0  0  0  0
  179.7180  179.5640  141.0270 O   0  0  0  0  0  1  0  0  0  0  0  0
  179.8600  179.5370  139.6380 C   0  0  0  0  0  2  0  0  0  0  0  0
  184.8290  177.0420  137.2320 C   0  0  0  0  0  2  0  0  0  0  0  0
  184.2930  176.5240  135.9070 C   0  0  0  0  0  2  0  0  0  0  0  0
  186.1660  175.2780  134.8320 C   0  0  0  0  0  2  0  0  0  0  0  0
  185.3830  176.5700  134.8450 C   0  0  2  0  0  3  0  0  0  0  0  0
  187.5040  177.2250  134.5940 C   0  0  0  0  0  2  0  0  0  0  0  0
  187.5780  175.7160  134.5950 C   0  0  0  0  0  2  0  0  0  0  0  0
  186.2660  177.6220  135.1230 O   0  0  0  0  0  0  0  0  0  0  0  0
  1  4  1  0  0  0  0
  2 34  1  1  0  0  0
  2  3  1  0  0  0  0
  2  5  1  0  0  0  0
  3  7  1  6  0  0  0
  3  1  1  0  0  0  0
  4 23  1  1  0  0  0
  5 22  1  1  0  0  0
  5  6  1  0  0  0  0
  6  4  1  0  0  0  0
  7  8  2  0  0  0  0
  9  7  1  0  0  0  0
 10  9  1  0  0  0  0
 11 13  1  0  0  0  0
 12 13  2  0  0  0  0
 13 10  1  0  0  0  0
 14 12  2  0  0  0  0
 14 15  1  0  0  0  0
 15 16  1  6  0  0  0
 15 18  1  0  0  0  0
 15 19  1  0  0  0  0
 17 18  1  0  0  0  0
 19 20  1  0  0  0  0
 22 21  1  0  0  0  0
 23 24  1  0  0  0  0
 24 26  1  0  0  0  0
 26 25  1  6  0  0  0
 26 27  1  0  0  0  0
 27 28  1  6  0  0  0
 27 32  1  0  0  0  0
 28 29  1  0  0  0  0
 30 28  1  0  0  0  0
 32 33  1  0  0  0  0
 32 31  1  0  0  0  0
 34 38  1  1  0  0  0
 35 36  2  0  0  0  0
 36 34  1  0  0  0  0
 37 36  1  0  0  0  0
 39 38  1  0  0  0  0
 39 40  1  0  0  0  0
 41 40  1  0  0  0  0
 42 43  2  0  0  0  0
 43 41  1  0  0  0  0
 44 49  1  0  0  0  0
 45 50  2  0  0  0  0
 46 45  1  0  0  0  0
 46 44  2  0  0  0  0
 47 48  2  0  0  0  0
 49 43  1  6  0  0  0
 49 48  1  0  0  0  0
 50 52  1  0  0  0  0
 50 47  1  0  0  0  0
 52 51  1  0  0  0  0
 53 44  1  0  0  0  0
 54 53  1  0  0  0  0
 55 56  1  0  0  0  0
 56 59  1  0  0  0  0
 56 54  1  1  0  0  0
 57 58  1  0  0  0  0
 57 59  1  0  0  0  0
 58 55  1  0  0  0  0
M  END
>  <MODEL>
4

>  <REMARK>
 VINA RESULT:      -5.6      2.495     10.556
  Name = 
  26 active torsions:
  status: ('A' for Active; 'I' for Inactive)
    1  A    between atoms: C_1  and  C_50
    2  A    between atoms: C_3  and  C_5
    3  A    between atoms: C_4  and  C_18
    4  A    between atoms: C_5  and  C_6
    5  A    between atoms: C_5  and  C_29
    6  A    between atoms: C_6  and  C_57
    7  A    between atoms: O_13  and  C_38
    8  A    between atoms: O_13  and  C_54
    9  A    between atoms: N_15  and  C_42
   10  A    between atoms: C_17  and  C_28
   11  A    between atoms: C_17  and  C_47
   12  A    between atoms: C_18  and  C_53
   13  A    between atoms: C_18  and  C_59
   14  A    between atoms: C_20  and  C_21
   15  A    between atoms: C_21  and  O_30
   16  A    between atoms: C_23  and  C_33
   17  A    between atoms: C_25  and  C_28
   18  A    between atoms: O_30  and  N_56
   19  A    between atoms: C_33  and  C_50
   20  A    between atoms: C_34  and  O_58
   21  A    between atoms: C_37  and  C_42
   22  A    between atoms: C_38  and  C_39
   23  A    between atoms: C_41  and  C_46
   24  A    between atoms: C_42  and  C_47
   25  A    between atoms: C_43  and  N_56
   26  A    between atoms: C_54  and  C_57
                            x       y       z     vdW  Elec       q    Type
                         _______ _______ _______ _____ _____    ______ ____

>  <TORSDO>
F 26

$$$$
=
 OpenBabel11032421043D

 59 61  0  0  1  0  0  0  0  0999 V2000
  182.8470  178.6240  138.1990 C   0  0  0  0  0  2  0  0  0  0  0  0
  181.6490  177.6990  140.2350 C   0  0  1  0  0  3  0  0  0  0  0  0
  181.4970  178.4330  138.8860 C   0  0  1  0  0  3  0  0  0  0  0  0
  183.4830  177.2580  137.9310 C   0  0  2  0  0  3  0  0  0  0  0  0
  182.2940  176.3240  139.9680 C   0  0  2  0  0  3  0  0  0  0  0  0
  183.6340  176.4690  139.2320 C   0  0  0  0  0  2  0  0  0  0  0  0
  180.6950  179.6940  138.9560 C   0  0  0  0  0  0  0  0  0  0  0  0
  181.1870  180.7030  139.5290 O   0  0  0  0  0  0  0  0  0  0  0  0
  179.4430  179.7660  138.3360 O   0  0  0  0  0  0  0  0  0  0  0  0
  179.0500  180.8370  137.5550 N   0  0  0  0  0  2  0  0  0  0  0  0
  179.5160  179.8760  135.2560 C   0  0  0  0  0  1  0  0  0  0  0  0
  180.0440  182.1390  135.8670 C   0  0  0  0  0  0  0  0  0  0  0  0
  179.4510  181.0300  136.1950 C   0  0  0  0  0  0  0  0  0  0  0  0
  180.6490  183.2550  135.5480 C   0  0  0  0  0  3  0  0  0  0  0  0
  180.5290  184.5120  136.3640 C   0  0  2  0  0  0  0  0  0  0  0  0
  180.6420  185.7170  135.4410 C   0  0  0  0  0  1  0  0  0  0  0  0
  182.2020  183.2340  137.8020 C   0  0  0  0  0  1  0  0  0  0  0  0
  181.6390  184.5980  137.4220 C   0  0  0  0  0  2  0  0  0  0  0  0
  179.1470  184.5230  137.0240 C   0  0  0  0  0  2  0  0  0  0  0  0
  179.2510  184.7120  138.4060 O   0  0  0  0  0  1  0  0  0  0  0  0
  180.1960  175.6180  139.8800 C   0  0  0  0  0  1  0  0  0  0  0  0
  181.4280  175.5090  139.2380 O   0  0  0  0  0  0  0  0  0  0  0  0
  184.8500  177.4320  137.2930 C   0  0  0  0  0  2  0  0  0  0  0  0
  184.8160  176.9950  135.8340 C   0  0  0  0  0  2  0  0  0  0  0  0
  186.9420  176.4100  134.6170 C   0  0  0  0  0  1  0  0  0  0  0  0
  185.8570  175.9150  135.5700 C   0  0  2  0  0  3  0  0  0  0  0  0
  185.2200  174.5640  135.1510 C   0  0  2  0  0  3  0  0  0  0  0  0
  183.7380  174.4380  135.5240 C   0  0  0  0  0  3  0  0  0  0  0  0
  183.2500  173.0000  135.4970 C   0  0  0  0  0  1  0  0  0  0  0  0
  182.8890  175.2780  134.5940 C   0  0  0  0  0  1  0  0  0  0  0  0
  186.1810  173.0300  136.8030 C   0  0  0  0  0  1  0  0  0  0  0  0
  185.9820  173.3200  135.3900 N   0  0  0  0  0  0  0  0  0  0  0  0
  187.2900  173.4480  134.7710 C   0  0  0  0  0  1  0  0  0  0  0  0
  182.4220  178.5240  141.3010 C   0  0  1  0  0  3  0  0  0  0  0  0
  182.1430  179.0350  143.6000 O   0  0  0  0  0  0  0  0  0  0  0  0
  181.6040  178.7910  142.5310 C   0  0  0  0  0  0  0  0  0  0  0  0
  180.1160  178.7780  142.4470 C   0  0  0  0  0  1  0  0  0  0  0  0
  183.7910  177.9460  141.6780 C   0  0  0  0  0  2  0  0  0  0  0  0
  184.8570  179.0190  141.8390 C   0  0  0  0  0  2  0  0  0  0  0  0
  186.0930  178.5960  141.0830 C   0  0  0  0  0  2  0  0  0  0  0  0
  187.2520  179.0290  141.7770 O   0  0  0  0  0  0  0  0  0  0  0  0
  187.5490  177.2590  143.2020 O   0  0  0  0  0  0  0  0  0  0  0  0
  188.0750  178.1350  142.4650 C   0  0  0  0  0  0  0  0  0  0  0  0
  190.1500  176.8280  141.9900 C   0  0  0  0  0  0  0  0  0  0  0  0
  190.1920  176.0640  144.3850 C   0  0  0  0  0  3  0  0  0  0  0  0
  190.3520  175.9000  142.9290 C   0  0  0  0  0  3  0  0  0  0  0  0
  190.5490  178.5310  144.5580 C   0  0  0  0  0  3  0  0  0  0  0  0
  190.2920  178.9610  143.3230 C   0  0  0  0  0  3  0  0  0  0  0  0
  189.5660  178.1750  142.2780 C   0  0  2  0  0  3  0  0  0  0  0  0
  190.2410  177.1940  145.1010 C   0  0  0  0  0  0  0  0  0  0  0  0
  188.8680  177.7090  146.9480 O   0  0  0  0  0  1  0  0  0  0  0  0
  190.0620  177.0840  146.5770 C   0  0  0  0  0  2  0  0  0  0  0  0
  190.3060  176.4410  140.5580 C   0  0  0  0  0  2  0  0  0  0  0  0
  190.4840  177.6720  139.6840 C   0  0  0  0  0  2  0  0  0  0  0  0
  190.0070  177.4480  137.2470 C   0  0  0  0  0  2  0  0  0  0  0  0
  189.4080  177.7130  138.6080 C   0  0  2  0  0  3  0  0  0  0  0  0
  188.3780  179.1750  137.2690 C   0  0  0  0  0  2  0  0  0  0  0  0
  189.2670  178.3810  136.3400 C   0  0  0  0  0  2  0  0  0  0  0  0
  188.8080  178.9790  138.5910 O   0  0  0  0  0  0  0  0  0  0  0  0
  1  3  1  0  0  0  0
  2 34  1  1  0  0  0
  3  7  1  1  0  0  0
  3  2  1  0  0  0  0
  4 23  1  1  0  0  0
  4  1  1  0  0  0  0
  4  6  1  0  0  0  0
  5 22  1  6  0  0  0
  5  2  1  0  0  0  0
  6  5  1  0  0  0  0
  7  8  2  0  0  0  0
  9  7  1  0  0  0  0
 10  9  1  0  0  0  0
 11 13  1  0  0  0  0
 12 13  2  0  0  0  0
 13 10  1  0  0  0  0
 14 12  2  0  0  0  0
 14 15  1  0  0  0  0
 15 16  1  6  0  0  0
 15 19  1  0  0  0  0
 15 18  1  0  0  0  0
 18 17  1  0  0  0  0
 19 20  1  0  0  0  0
 22 21  1  0  0  0  0
 24 23  1  0  0  0  0
 26 25  1  6  0  0  0
 26 24  1  0  0  0  0
 27 32  1  0  0  0  0
 27 28  1  1  0  0  0
 27 26  1  0  0  0  0
 29 28  1  0  0  0  0
 30 28  1  0  0  0  0
 32 31  1  0  0  0  0
 33 32  1  0  0  0  0
 34 38  1  1  0  0  0
 34 36  1  0  0  0  0
 36 35  2  0  0  0  0
 37 36  1  0  0  0  0
 38 39  1  0  0  0  0
 40 41  1  0  0  0  0
 40 39  1  0  0  0  0
 41 43  1  0  0  0  0
 43 42  2  0  0  0  0
 44 49  1  0  0  0  0
 44 46  2  0  0  0  0
 45 50  2  0  0  0  0
 46 45  1  0  0  0  0
 47 50  1  0  0  0  0
 48 47  2  0  0  0  0
 49 43  1  1  0  0  0
 49 48  1  0  0  0  0
 50 52  1  0  0  0  0
 52 51  1  0  0  0  0
 53 44  1  0  0  0  0
 54 53  1  0  0  0  0
 55 56  1  0  0  0  0
 56 54  1  1  0  0  0
 57 59  1  0  0  0  0
 58 55  1  0  0  0  0
 58 57  1  0  0  0  0
 59 56  1  0  0  0  0
M  END
>  <MODEL>
5

>  <REMARK>
 VINA RESULT:      -5.2      3.613      7.625
  Name = 
  26 active torsions:
  status: ('A' for Active; 'I' for Inactive)
    1  A    between atoms: C_1  and  C_50
    2  A    between atoms: C_3  and  C_5
    3  A    between atoms: C_4  and  C_18
    4  A    between atoms: C_5  and  C_6
    5  A    between atoms: C_5  and  C_29
    6  A    between atoms: C_6  and  C_57
    7  A    between atoms: O_13  and  C_38
    8  A    between atoms: O_13  and  C_54
    9  A    between atoms: N_15  and  C_42
   10  A    between atoms: C_17  and  C_28
   11  A    between atoms: C_17  and  C_47
   12  A    between atoms: C_18  and  C_53
   13  A    between atoms: C_18  and  C_59
   14  A    between atoms: C_20  and  C_21
   15  A    between atoms: C_21  and  O_30
   16  A    between atoms: C_23  and  C_33
   17  A    between atoms: C_25  and  C_28
   18  A    between atoms: O_30  and  N_56
   19  A    between atoms: C_33  and  C_50
   20  A    between atoms: C_34  and  O_58
   21  A    between atoms: C_37  and  C_42
   22  A    between atoms: C_38  and  C_39
   23  A    between atoms: C_41  and  C_46
   24  A    between atoms: C_42  and  C_47
   25  A    between atoms: C_43  and  N_56
   26  A    between atoms: C_54  and  C_57
                            x       y       z     vdW  Elec       q    Type
                         _______ _______ _______ _____ _____    ______ ____

>  <TORSDO>
F 26

$$$$
=
 OpenBabel11032421043D

 59 61  0  0  1  0  0  0  0  0999 V2000
  191.9670  177.7770  141.2760 C   0  0  0  0  0  2  0  0  0  0  0  0
  189.9670  176.7950  140.0610 C   0  0  1  0  0  3  0  0  0  0  0  0
  191.4930  176.7220  140.2800 C   0  0  1  0  0  3  0  0  0  0  0  0
  191.2790  177.5530  142.6250 C   0  0  2  0  0  3  0  0  0  0  0  0
  189.2720  176.5750  141.4200 C   0  0  2  0  0  3  0  0  0  0  0  0
  189.7580  177.5870  142.4670 C   0  0  0  0  0  2  0  0  0  0  0  0
  192.2970  176.7090  139.0190 C   0  0  0  0  0  0  0  0  0  0  0  0
  193.3090  177.4540  138.9290 O   0  0  0  0  0  0  0  0  0  0  0  0
  191.9630  175.8330  137.9800 O   0  0  0  0  0  0  0  0  0  0  0  0
  192.8830  174.9960  137.3750 N   0  0  0  0  0  2  0  0  0  0  0  0
  192.6000  175.7470  134.9690 C   0  0  0  0  0  1  0  0  0  0  0  0
  194.5960  174.6910  135.7910 C   0  0  0  0  0  0  0  0  0  0  0  0
  193.4450  175.2240  136.0780 C   0  0  0  0  0  0  0  0  0  0  0  0
  195.7500  174.1430  135.5080 C   0  0  0  0  0  3  0  0  0  0  0  0
  196.7290  173.7090  136.5640 C   0  0  2  0  0  0  0  0  0  0  0  0
  196.3230  174.3180  137.8980 C   0  0  0  0  0  1  0  0  0  0  0  0
  198.1820  175.3130  135.2160 C   0  0  0  0  0  1  0  0  0  0  0  0
  198.1540  174.1730  136.2260 C   0  0  0  0  0  2  0  0  0  0  0  0
  196.6660  172.1830  136.6780 C   0  0  0  0  0  2  0  0  0  0  0  0
  196.3760  171.7890  137.9880 O   0  0  0  0  0  1  0  0  0  0  0  0
  189.6170  175.3820  143.2550 C   0  0  0  0  0  1  0  0  0  0  0  0
  189.4840  175.2710  141.8730 O   0  0  0  0  0  0  0  0  0  0  0  0
  191.7000  178.6250  143.6140 C   0  0  0  0  0  2  0  0  0  0  0  0
  190.4990  179.1200  144.4080 C   0  0  0  0  0  2  0  0  0  0  0  0
  191.1720  177.0760  145.7150 C   0  0  0  0  0  1  0  0  0  0  0  0
  190.3920  178.3880  145.7390 C   0  0  2  0  0  3  0  0  0  0  0  0
  188.9250  178.2390  146.2200 C   0  0  2  0  0  3  0  0  0  0  0  0
  188.7970  177.8330  147.6920 C   0  0  0  0  0  3  0  0  0  0  0  0
  187.6320  178.5180  148.3870 C   0  0  0  0  0  1  0  0  0  0  0  0
  190.0800  178.1370  148.4360 C   0  0  0  0  0  1  0  0  0  0  0  0
  186.9630  178.4290  144.7640 C   0  0  0  0  0  1  0  0  0  0  0  0
  187.9610  177.5410  145.3430 N   0  0  0  0  0  0  0  0  0  0  0  0
  187.2630  176.5360  146.1260 C   0  0  0  0  0  1  0  0  0  0  0  0
  189.5080  178.1050  139.3620 C   0  0  1  0  0  3  0  0  0  0  0  0
  189.3880  178.8560  137.1160 O   0  0  0  0  0  0  0  0  0  0  0  0
  189.2620  177.9210  137.8930 C   0  0  0  0  0  0  0  0  0  0  0  0
  188.8780  176.5790  137.3690 C   0  0  0  0  0  1  0  0  0  0  0  0
  188.3100  178.7920  140.0280 C   0  0  0  0  0  2  0  0  0  0  0  0
  186.9800  178.3550  139.4370 C   0  0  0  0  0  2  0  0  0  0  0  0
  185.8800  178.6690  140.4220 C   0  0  0  0  0  2  0  0  0  0  0  0
  185.1040  179.7560  139.9450 O   0  0  0  0  0  0  0  0  0  0  0  0
  183.2520  180.5420  138.8470 O   0  0  0  0  0  0  0  0  0  0  0  0
  183.8350  179.5680  139.3920 C   0  0  0  0  0  0  0  0  0  0  0  0
  182.4880  177.8980  138.1130 C   0  0  0  0  0  0  0  0  0  0  0  0
  180.3990  179.1760  138.6840 C   0  0  0  0  0  3  0  0  0  0  0  0
  181.2860  178.3930  137.8050 C   0  0  0  0  0  3  0  0  0  0  0  0
  181.2050  178.3610  140.9040 C   0  0  0  0  0  3  0  0  0  0  0  0
  182.4220  177.8930  140.6310 C   0  0  0  0  0  3  0  0  0  0  0  0
  183.2000  178.2040  139.3930 C   0  0  2  0  0  3  0  0  0  0  0  0
  180.3720  179.2000  140.0230 C   0  0  0  0  0  0  0  0  0  0  0  0
  179.9720  180.8380  141.6710 O   0  0  0  0  0  1  0  0  0  0  0  0
  179.3570  180.0740  140.6760 C   0  0  0  0  0  2  0  0  0  0  0  0
  183.2590  177.1840  137.0540 C   0  0  0  0  0  2  0  0  0  0  0  0
  184.3380  176.3100  137.6710 C   0  0  0  0  0  2  0  0  0  0  0  0
  184.9700  173.9030  137.5150 C   0  0  0  0  0  2  0  0  0  0  0  0
  183.8470  174.8740  137.7910 C   0  0  2  0  0  3  0  0  0  0  0  0
  182.8920  173.2800  136.5490 C   0  0  0  0  0  2  0  0  0  0  0  0
  184.3140  172.8030  136.7420 C   0  0  0  0  0  2  0  0  0  0  0  0
  182.8250  174.6480  136.8590 O   0  0  0  0  0  0  0  0  0  0  0  0
  1  4  1  0  0  0  0
  2 34  1  1  0  0  0
  2  3  1  0  0  0  0
  2  5  1  0  0  0  0
  3  7  1  6  0  0  0
  3  1  1  0  0  0  0
  4 23  1  1  0  0  0
  5 22  1  1  0  0  0
  5  6  1  0  0  0  0
  6  4  1  0  0  0  0
  8  7  2  0  0  0  0
  9  7  1  0  0  0  0
 10  9  1  0  0  0  0
 11 13  1  0  0  0  0
 12 13  2  0  0  0  0
 13 10  1  0  0  0  0
 14 12  2  0  0  0  0
 14 15  1  0  0  0  0
 15 19  1  0  0  0  0
 15 16  1  1  0  0  0
 17 18  1  0  0  0  0
 18 15  1  0  0  0  0
 19 20  1  0  0  0  0
 22 21  1  0  0  0  0
 23 24  1  0  0  0  0
 24 26  1  0  0  0  0
 26 25  1  6  0  0  0
 26 27  1  0  0  0  0
 27 28  1  1  0  0  0
 28 29  1  0  0  0  0
 28 30  1  0  0  0  0
 31 32  1  0  0  0  0
 32 33  1  0  0  0  0
 32 27  1  0  0  0  0
 34 38  1  1  0  0  0
 35 36  2  0  0  0  0
 36 34  1  0  0  0  0
 37 36  1  0  0  0  0
 39 38  1  0  0  0  0
 39 40  1  0  0  0  0
 41 40  1  0  0  0  0
 42 43  2  0  0  0  0
 43 41  1  0  0  0  0
 44 49  1  0  0  0  0
 45 50  2  0  0  0  0
 46 44  2  0  0  0  0
 46 45  1  0  0  0  0
 48 47  2  0  0  0  0
 49 43  1  6  0  0  0
 49 48  1  0  0  0  0
 50 52  1  0  0  0  0
 50 47  1  0  0  0  0
 52 51  1  0  0  0  0
 53 54  1  0  0  0  0
 53 44  1  0  0  0  0
 55 56  1  0  0  0  0
 56 54  1  6  0  0  0
 57 58  1  0  0  0  0
 57 59  1  0  0  0  0
 58 55  1  0  0  0  0
 59 56  1  0  0  0  0
M  END
>  <MODEL>
6

>  <REMARK>
 VINA RESULT:      -4.3      2.518     10.555
  Name = 
  26 active torsions:
  status: ('A' for Active; 'I' for Inactive)
    1  A    between atoms: C_1  and  C_50
    2  A    between atoms: C_3  and  C_5
    3  A    between atoms: C_4  and  C_18
    4  A    between atoms: C_5  and  C_6
    5  A    between atoms: C_5  and  C_29
    6  A    between atoms: C_6  and  C_57
    7  A    between atoms: O_13  and  C_38
    8  A    between atoms: O_13  and  C_54
    9  A    between atoms: N_15  and  C_42
   10  A    between atoms: C_17  and  C_28
   11  A    between atoms: C_17  and  C_47
   12  A    between atoms: C_18  and  C_53
   13  A    between atoms: C_18  and  C_59
   14  A    between atoms: C_20  and  C_21
   15  A    between atoms: C_21  and  O_30
   16  A    between atoms: C_23  and  C_33
   17  A    between atoms: C_25  and  C_28
   18  A    between atoms: O_30  and  N_56
   19  A    between atoms: C_33  and  C_50
   20  A    between atoms: C_34  and  O_58
   21  A    between atoms: C_37  and  C_42
   22  A    between atoms: C_38  and  C_39
   23  A    between atoms: C_41  and  C_46
   24  A    between atoms: C_42  and  C_47
   25  A    between atoms: C_43  and  N_56
   26  A    between atoms: C_54  and  C_57
                            x       y       z     vdW  Elec       q    Type
                         _______ _______ _______ _____ _____    ______ ____

>  <TORSDO>
F 26

$$$$
=
 OpenBabel11032421043D

 59 61  0  0  1  0  0  0  0  0999 V2000
  191.8590  177.9610  141.6580 C   0  0  0  0  0  2  0  0  0  0  0  0
  190.0540  176.7590  140.3410 C   0  0  1  0  0  3  0  0  0  0  0  0
  191.5510  176.8040  140.7100 C   0  0  1  0  0  3  0  0  0  0  0  0
  191.0530  177.7930  142.9480 C   0  0  2  0  0  3  0  0  0  0  0  0
  189.2390  176.5960  141.6390 C   0  0  2  0  0  3  0  0  0  0  0  0
  189.5560  177.7150  142.6430 C   0  0  0  0  0  2  0  0  0  0  0  0
  192.4780  176.7500  139.5380 C   0  0  0  0  0  0  0  0  0  0  0  0
  193.4960  177.4930  139.5250 O   0  0  0  0  0  0  0  0  0  0  0  0
  192.2490  175.8380  138.5010 O   0  0  0  0  0  0  0  0  0  0  0  0
  193.2450  175.0470  137.9590 N   0  0  0  0  0  2  0  0  0  0  0  0
  193.0110  175.8380  135.5610 C   0  0  0  0  0  1  0  0  0  0  0  0
  194.9410  174.6590  136.3750 C   0  0  0  0  0  0  0  0  0  0  0  0
  193.8220  175.2550  136.6650 C   0  0  0  0  0  0  0  0  0  0  0  0
  196.0610  174.0480  136.0870 C   0  0  0  0  0  3  0  0  0  0  0  0
  197.0110  173.5470  137.1400 C   0  0  2  0  0  0  0  0  0  0  0  0
  198.4260  173.5580  136.5780 C   0  0  0  0  0  1  0  0  0  0  0  0
  197.0690  171.0720  136.5300 C   0  0  0  0  0  1  0  0  0  0  0  0
  196.6640  172.1130  137.5660 C   0  0  0  0  0  2  0  0  0  0  0  0
  196.9480  174.5010  138.3360 C   0  0  0  0  0  2  0  0  0  0  0  0
  198.1070  175.2780  138.4200 O   0  0  0  0  0  1  0  0  0  0  0  0
  188.5540  175.2390  143.2520 C   0  0  0  0  0  1  0  0  0  0  0  0
  189.4790  175.3480  142.2150 O   0  0  0  0  0  0  0  0  0  0  0  0
  191.3090  178.9620  143.8830 C   0  0  0  0  0  2  0  0  0  0  0  0
  190.2500  179.0130  144.9770 C   0  0  0  0  0  2  0  0  0  0  0  0
  188.3640  177.3840  145.3380 C   0  0  0  0  0  1  0  0  0  0  0  0
  189.8710  177.6090  145.4260 C   0  0  2  0  0  3  0  0  0  0  0  0
  190.4830  177.2390  146.8030 C   0  0  2  0  0  3  0  0  0  0  0  0
  191.3590  175.9820  146.7720 C   0  0  0  0  0  3  0  0  0  0  0  0
  192.4340  175.9930  147.8450 C   0  0  0  0  0  1  0  0  0  0  0  0
  192.0030  175.8240  145.4110 C   0  0  0  0  0  1  0  0  0  0  0  0
  188.2120  177.0740  147.7110 C   0  0  0  0  0  1  0  0  0  0  0  0
  189.6200  177.3110  148.0020 N   0  0  0  0  0  0  0  0  0  0  0  0
  189.7390  178.6360  148.5830 C   0  0  0  0  0  1  0  0  0  0  0  0
  189.5920  177.9800  139.4960 C   0  0  1  0  0  3  0  0  0  0  0  0
  189.3090  176.4670  137.6930 O   0  0  0  0  0  0  0  0  0  0  0  0
  189.3670  177.6330  138.0530 C   0  0  0  0  0  0  0  0  0  0  0  0
  189.1920  178.7200  137.0490 C   0  0  0  0  0  1  0  0  0  0  0  0
  188.3790  178.7230  140.0680 C   0  0  0  0  0  2  0  0  0  0  0  0
  187.0650  178.2480  139.4700 C   0  0  0  0  0  2  0  0  0  0  0  0
  185.9720  178.4150  140.4990 C   0  0  0  0  0  2  0  0  0  0  0  0
  185.2960  179.6440  140.2860 O   0  0  0  0  0  0  0  0  0  0  0  0
  183.7340  180.8190  139.0910 O   0  0  0  0  0  0  0  0  0  0  0  0
  184.1010  179.7130  139.5670 C   0  0  0  0  0  0  0  0  0  0  0  0
  182.2880  178.6470  138.2190 C   0  0  0  0  0  0  0  0  0  0  0  0
  180.5740  179.7970  139.6560 C   0  0  0  0  0  3  0  0  0  0  0  0
  181.1300  179.2920  138.3870 C   0  0  0  0  0  3  0  0  0  0  0  0
  181.7170  178.2460  141.2460 C   0  0  0  0  0  3  0  0  0  0  0  0
  182.7670  177.8170  140.5490 C   0  0  0  0  0  3  0  0  0  0  0  0
  183.2950  178.4690  139.3110 C   0  0  2  0  0  3  0  0  0  0  0  0
  180.8390  179.3800  140.9000 C   0  0  0  0  0  0  0  0  0  0  0  0
  179.3810  181.1260  141.5190 O   0  0  0  0  0  1  0  0  0  0  0  0
  180.1230  180.0530  142.0200 C   0  0  0  0  0  2  0  0  0  0  0  0
  182.7030  178.2750  136.8360 C   0  0  0  0  0  2  0  0  0  0  0  0
  181.5560  177.6130  136.0900 C   0  0  0  0  0  2  0  0  0  0  0  0
  180.6670  175.7310  137.4630 C   0  0  0  0  0  2  0  0  0  0  0  0
  181.5780  176.1080  136.3200 C   0  0  2  0  0  3  0  0  0  0  0  0
  182.7340  174.5640  137.4480 C   0  0  0  0  0  2  0  0  0  0  0  0
  181.4130  174.6490  138.1780 C   0  0  0  0  0  2  0  0  0  0  0  0
  182.8810  175.7000  136.6370 O   0  0  0  0  0  0  0  0  0  0  0  0
  1  4  1  0  0  0  0
  2 34  1  1  0  0  0
  2  3  1  0  0  0  0
  2  5  1  0  0  0  0
  3  7  1  6  0  0  0
  3  1  1  0  0  0  0
  4 23  1  1  0  0  0
  5 22  1  1  0  0  0
  5  6  1  0  0  0  0
  6  4  1  0  0  0  0
  8  7  2  0  0  0  0
  9  7  1  0  0  0  0
 10  9  1  0  0  0  0
 11 13  1  0  0  0  0
 12 13  2  0  0  0  0
 13 10  1  0  0  0  0
 14 12  2  0  0  0  0
 14 15  1  0  0  0  0
 15 16  1  6  0  0  0
 15 18  1  0  0  0  0
 15 19  1  0  0  0  0
 17 18  1  0  0  0  0
 19 20  1  0  0  0  0
 22 21  1  0  0  0  0
 23 24  1  0  0  0  0
 24 26  1  0  0  0  0
 26 25  1  1  0  0  0
 26 27  1  0  0  0  0
 27 28  1  6  0  0  0
 27 32  1  0  0  0  0
 28 29  1  0  0  0  0
 30 28  1  0  0  0  0
 31 32  1  0  0  0  0
 32 33  1  0  0  0  0
 34 38  1  1  0  0  0
 35 36  2  0  0  0  0
 36 34  1  0  0  0  0
 37 36  1  0  0  0  0
 39 38  1  0  0  0  0
 39 40  1  0  0  0  0
 41 40  1  0  0  0  0
 42 43  2  0  0  0  0
 43 41  1  0  0  0  0
 44 46  2  0  0  0  0
 44 49  1  0  0  0  0
 45 50  2  0  0  0  0
 46 45  1  0  0  0  0
 48 47  2  0  0  0  0
 49 43  1  1  0  0  0
 49 48  1  0  0  0  0
 50 47  1  0  0  0  0
 50 52  1  0  0  0  0
 51 52  1  0  0  0  0
 53 44  1  0  0  0  0
 54 53  1  0  0  0  0
 55 58  1  0  0  0  0
 56 54  1  1  0  0  0
 56 59  1  0  0  0  0
 56 55  1  0  0  0  0
 57 58  1  0  0  0  0
 59 57  1  0  0  0  0
M  END
>  <MODEL>
7

>  <REMARK>
 VINA RESULT:      -4.1      2.687     10.480
  Name = 
  26 active torsions:
  status: ('A' for Active; 'I' for Inactive)
    1  A    between atoms: C_1  and  C_50
    2  A    between atoms: C_3  and  C_5
    3  A    between atoms: C_4  and  C_18
    4  A    between atoms: C_5  and  C_6
    5  A    between atoms: C_5  and  C_29
    6  A    between atoms: C_6  and  C_57
    7  A    between atoms: O_13  and  C_38
    8  A    between atoms: O_13  and  C_54
    9  A    between atoms: N_15  and  C_42
   10  A    between atoms: C_17  and  C_28
   11  A    between atoms: C_17  and  C_47
   12  A    between atoms: C_18  and  C_53
   13  A    between atoms: C_18  and  C_59
   14  A    between atoms: C_20  and  C_21
   15  A    between atoms: C_21  and  O_30
   16  A    between atoms: C_23  and  C_33
   17  A    between atoms: C_25  and  C_28
   18  A    between atoms: O_30  and  N_56
   19  A    between atoms: C_33  and  C_50
   20  A    between atoms: C_34  and  O_58
   21  A    between atoms: C_37  and  C_42
   22  A    between atoms: C_38  and  C_39
   23  A    between atoms: C_41  and  C_46
   24  A    between atoms: C_42  and  C_47
   25  A    between atoms: C_43  and  N_56
   26  A    between atoms: C_54  and  C_57
                            x       y       z     vdW  Elec       q    Type
                         _______ _______ _______ _____ _____    ______ ____

>  <TORSDO>
F 26

$$$$
=
 OpenBabel11032421043D

 59 61  0  0  1  0  0  0  0  0999 V2000
  183.6200  178.7220  138.0300 C   0  0  0  0  0  2  0  0  0  0  0  0
  182.2280  177.8140  139.9470 C   0  0  1  0  0  3  0  0  0  0  0  0
  182.2140  178.5770  138.6070 C   0  0  1  0  0  3  0  0  0  0  0  0
  184.2180  177.3340  137.7840 C   0  0  2  0  0  3  0  0  0  0  0  0
  182.8350  176.4180  139.7030 C   0  0  2  0  0  3  0  0  0  0  0  0
  184.2330  176.5170  139.0760 C   0  0  0  0  0  2  0  0  0  0  0  0
  181.4620  179.8700  138.6400 C   0  0  0  0  0  0  0  0  0  0  0  0
  182.1050  180.9530  138.6470 O   0  0  0  0  0  0  0  0  0  0  0  0
  180.0630  179.8720  138.6010 O   0  0  0  0  0  0  0  0  0  0  0  0
  179.3320  180.7840  137.8630 N   0  0  0  0  0  2  0  0  0  0  0  0
  179.1530  179.7860  135.5380 C   0  0  0  0  0  1  0  0  0  0  0  0
  180.0600  181.9700  135.9660 C   0  0  0  0  0  0  0  0  0  0  0  0
  179.4340  180.9350  136.4430 C   0  0  0  0  0  0  0  0  0  0  0  0
  180.7010  183.0090  135.4950 C   0  0  0  0  0  3  0  0  0  0  0  0
  180.9120  184.2680  136.2900 C   0  0  2  0  0  0  0  0  0  0  0  0
  181.7690  185.2300  135.4800 C   0  0  0  0  0  1  0  0  0  0  0  0
  182.3950  185.1750  138.1550 C   0  0  0  0  0  1  0  0  0  0  0  0
  181.6250  183.9740  137.6180 C   0  0  0  0  0  2  0  0  0  0  0  0
  179.5450  184.9130  136.5370 C   0  0  0  0  0  2  0  0  0  0  0  0
  178.9890  185.3850  135.3440 O   0  0  0  0  0  1  0  0  0  0  0  0
  181.2900  174.8300  139.7680 C   0  0  0  0  0  1  0  0  0  0  0  0
  181.9950  175.6530  138.8920 O   0  0  0  0  0  0  0  0  0  0  0  0
  185.6360  177.4590  137.2570 C   0  0  0  0  0  2  0  0  0  0  0  0
  185.9600  176.3050  136.3180 C   0  0  0  0  0  2  0  0  0  0  0  0
  188.1970  176.0140  137.4350 C   0  0  0  0  0  1  0  0  0  0  0  0
  186.9150  175.3220  136.9790 C   0  0  2  0  0  3  0  0  0  0  0  0
  187.1560  174.0550  136.1180 C   0  0  2  0  0  3  0  0  0  0  0  0
  185.9750  173.0800  136.1100 C   0  0  0  0  0  3  0  0  0  0  0  0
  185.0140  173.3360  134.9620 C   0  0  0  0  0  1  0  0  0  0  0  0
  185.2240  173.1510  137.4230 C   0  0  0  0  0  1  0  0  0  0  0  0
  189.2230  173.4060  134.9720 C   0  0  0  0  0  1  0  0  0  0  0  0
  188.4650  173.3740  136.2150 N   0  0  0  0  0  0  0  0  0  0  0  0
  188.2410  171.9820  136.5650 C   0  0  0  0  0  1  0  0  0  0  0  0
  182.9500  178.5860  141.0870 C   0  0  1  0  0  3  0  0  0  0  0  0
  182.4760  179.2460  143.3150 O   0  0  0  0  0  0  0  0  0  0  0  0
  182.0300  178.9370  142.2210 C   0  0  0  0  0  0  0  0  0  0  0  0
  180.5550  178.9260  142.0070 C   0  0  0  0  0  1  0  0  0  0  0  0
  184.2170  177.9020  141.6120 C   0  0  0  0  0  2  0  0  0  0  0  0
  185.4400  178.8030  141.5470 C   0  0  0  0  0  2  0  0  0  0  0  0
  186.6550  177.9560  141.2550 C   0  0  0  0  0  2  0  0  0  0  0  0
  187.8330  178.6750  141.5860 O   0  0  0  0  0  0  0  0  0  0  0  0
  188.3980  177.3200  143.3440 O   0  0  0  0  0  0  0  0  0  0  0  0
  188.7630  178.1820  142.5020 C   0  0  0  0  0  0  0  0  0  0  0  0
  191.0690  177.6760  141.6850 C   0  0  0  0  0  0  0  0  0  0  0  0
  191.3610  176.0490  143.5790 C   0  0  0  0  0  3  0  0  0  0  0  0
  191.5100  176.5210  142.1910 C   0  0  0  0  0  3  0  0  0  0  0  0
  191.1420  178.2520  144.7370 C   0  0  0  0  0  3  0  0  0  0  0  0
  190.7540  179.0700  143.7600 C   0  0  0  0  0  3  0  0  0  0  0  0
  190.1980  178.6280  142.4440 C   0  0  2  0  0  3  0  0  0  0  0  0
  191.1700  176.7780  144.6860 C   0  0  0  0  0  0  0  0  0  0  0  0
  192.3100  176.0560  146.6190 O   0  0  0  0  0  1  0  0  0  0  0  0
  191.0670  176.0500  145.9820 C   0  0  0  0  0  2  0  0  0  0  0  0
  191.2650  177.9400  140.2300 C   0  0  0  0  0  2  0  0  0  0  0  0
  190.9660  176.6930  139.4130 C   0  0  0  0  0  2  0  0  0  0  0  0
  191.6950  175.3380  137.4510 C   0  0  0  0  0  2  0  0  0  0  0  0
  192.0710  176.4570  138.3930 C   0  0  2  0  0  3  0  0  0  0  0  0
  193.9630  175.2910  138.1530 C   0  0  0  0  0  2  0  0  0  0  0  0
  192.9790  174.5980  137.2380 C   0  0  0  0  0  2  0  0  0  0  0  0
  193.2550  176.1020  139.0540 O   0  0  0  0  0  0  0  0  0  0  0  0
  1  3  1  0  0  0  0
  2 34  1  1  0  0  0
  3  7  1  1  0  0  0
  3  2  1  0  0  0  0
  4 23  1  1  0  0  0
  4  1  1  0  0  0  0
  4  6  1  0  0  0  0
  5 22  1  6  0  0  0
  5  2  1  0  0  0  0
  6  5  1  0  0  0  0
  7  8  2  0  0  0  0
  9  7  1  0  0  0  0
 10  9  1  0  0  0  0
 11 13  1  0  0  0  0
 12 13  2  0  0  0  0
 13 10  1  0  0  0  0
 14 12  2  0  0  0  0
 14 15  1  0  0  0  0
 15 16  1  6  0  0  0
 15 19  1  0  0  0  0
 15 18  1  0  0  0  0
 18 17  1  0  0  0  0
 20 19  1  0  0  0  0
 22 21  1  0  0  0  0
 24 26  1  0  0  0  0
 24 23  1  0  0  0  0
 26 25  1  6  0  0  0
 27 28  1  1  0  0  0
 27 32  1  0  0  0  0
 27 26  1  0  0  0  0
 28 30  1  0  0  0  0
 29 28  1  0  0  0  0
 31 32  1  0  0  0  0
 32 33  1  0  0  0  0
 34 38  1  1  0  0  0
 34 36  1  0  0  0  0
 36 35  2  0  0  0  0
 37 36  1  0  0  0  0
 39 38  1  0  0  0  0
 40 39  1  0  0  0  0
 40 41  1  0  0  0  0
 41 43  1  0  0  0  0
 43 42  2  0  0  0  0
 44 46  2  0  0  0  0
 44 49  1  0  0  0  0
 45 50  2  0  0  0  0
 46 45  1  0  0  0  0
 48 47  2  0  0  0  0
 49 43  1  1  0  0  0
 49 48  1  0  0  0  0
 50 47  1  0  0  0  0
 50 52  1  0  0  0  0
 52 51  1  0  0  0  0
 53 44  1  0  0  0  0
 54 53  1  0  0  0  0
 55 56  1  0  0  0  0
 56 59  1  0  0  0  0
 56 54  1  1  0  0  0
 57 59  1  0  0  0  0
 58 55  1  0  0  0  0
 58 57  1  0  0  0  0
M  END
>  <MODEL>
8

>  <REMARK>
 VINA RESULT:      -3.9      3.018      7.257
  Name = 
  26 active torsions:
  status: ('A' for Active; 'I' for Inactive)
    1  A    between atoms: C_1  and  C_50
    2  A    between atoms: C_3  and  C_5
    3  A    between atoms: C_4  and  C_18
    4  A    between atoms: C_5  and  C_6
    5  A    between atoms: C_5  and  C_29
    6  A    between atoms: C_6  and  C_57
    7  A    between atoms: O_13  and  C_38
    8  A    between atoms: O_13  and  C_54
    9  A    between atoms: N_15  and  C_42
   10  A    between atoms: C_17  and  C_28
   11  A    between atoms: C_17  and  C_47
   12  A    between atoms: C_18  and  C_53
   13  A    between atoms: C_18  and  C_59
   14  A    between atoms: C_20  and  C_21
   15  A    between atoms: C_21  and  O_30
   16  A    between atoms: C_23  and  C_33
   17  A    between atoms: C_25  and  C_28
   18  A    between atoms: O_30  and  N_56
   19  A    between atoms: C_33  and  C_50
   20  A    between atoms: C_34  and  O_58
   21  A    between atoms: C_37  and  C_42
   22  A    between atoms: C_38  and  C_39
   23  A    between atoms: C_41  and  C_46
   24  A    between atoms: C_42  and  C_47
   25  A    between atoms: C_43  and  N_56
   26  A    between atoms: C_54  and  C_57
                            x       y       z     vdW  Elec       q    Type
                         _______ _______ _______ _____ _____    ______ ____

>  <TORSDO>
F 26

$$$$
=
 OpenBabel11032421043D

 59 61  0  0  1  0  0  0  0  0999 V2000
  183.0700  176.9130  139.5070 C   0  0  0  0  0  2  0  0  0  0  0  0
  182.4980  179.2610  140.2790 C   0  0  1  0  0  3  0  0  0  0  0  0
  183.2840  178.4050  139.2650 C   0  0  1  0  0  3  0  0  0  0  0  0
  181.5830  176.5790  139.3630 C   0  0  2  0  0  3  0  0  0  0  0  0
  181.0000  178.9230  140.1400 C   0  0  2  0  0  3  0  0  0  0  0  0
  180.7460  177.4200  140.3280 C   0  0  0  0  0  2  0  0  0  0  0  0
  184.7280  178.7730  139.1350 C   0  0  0  0  0  0  0  0  0  0  0  0
  185.2490  179.5310  139.9970 O   0  0  0  0  0  0  0  0  0  0  0  0
  185.5030  178.2270  138.1060 O   0  0  0  0  0  0  0  0  0  0  0  0
  185.0380  177.2430  137.2530 N   0  0  0  0  0  2  0  0  0  0  0  0
  185.6460  177.9540  134.8960 C   0  0  0  0  0  1  0  0  0  0  0  0
  185.8550  175.6930  135.6830 C   0  0  0  0  0  0  0  0  0  0  0  0
  185.6240  176.9370  135.9830 C   0  0  0  0  0  0  0  0  0  0  0  0
  186.0740  174.4380  135.3850 C   0  0  0  0  0  3  0  0  0  0  0  0
  186.2050  173.3620  136.4270 C   0  0  2  0  0  0  0  0  0  0  0  0
  185.4300  173.7770  137.6700 C   0  0  0  0  0  1  0  0  0  0  0  0
  188.4650  172.4010  135.7440 C   0  0  0  0  0  1  0  0  0  0  0  0
  187.6740  173.1390  136.8170 C   0  0  0  0  0  2  0  0  0  0  0  0
  185.5880  172.0760  135.8680 C   0  0  0  0  0  2  0  0  0  0  0  0
  184.6840  172.3590  134.8390 O   0  0  0  0  0  1  0  0  0  0  0  0
  179.1630  179.6100  139.1070 C   0  0  0  0  0  1  0  0  0  0  0  0
  180.5160  179.3440  138.9000 O   0  0  0  0  0  0  0  0  0  0  0  0
  181.3450  175.1080  139.6500 C   0  0  0  0  0  2  0  0  0  0  0  0
  181.4410  174.2920  138.3670 C   0  0  0  0  0  2  0  0  0  0  0  0
  179.5030  172.7030  138.1220 C   0  0  0  0  0  1  0  0  0  0  0  0
  180.0630  174.0760  137.7600 C   0  0  2  0  0  3  0  0  0  0  0  0
  180.0260  174.3900  136.2410 C   0  0  2  0  0  3  0  0  0  0  0  0
  181.1340  173.6960  135.4400 C   0  0  0  0  0  3  0  0  0  0  0  0
  181.1600  172.1940  135.6610 C   0  0  0  0  0  1  0  0  0  0  0  0
  182.4840  174.2840  135.7930 C   0  0  0  0  0  1  0  0  0  0  0  0
  179.1160  176.5910  136.8200 C   0  0  0  0  0  1  0  0  0  0  0  0
  179.7940  175.7860  135.8130 N   0  0  0  0  0  0  0  0  0  0  0  0
  178.9660  175.7760  134.6190 C   0  0  0  0  0  1  0  0  0  0  0  0
  183.0100  179.1100  141.7390 C   0  0  1  0  0  3  0  0  0  0  0  0
  180.8970  179.8330  142.5350 O   0  0  0  0  0  0  0  0  0  0  0  0
  181.9020  179.1730  142.7500 C   0  0  0  0  0  0  0  0  0  0  0  0
  182.0180  178.4060  144.0230 C   0  0  0  0  0  1  0  0  0  0  0  0
  183.8880  177.8760  141.9770 C   0  0  0  0  0  2  0  0  0  0  0  0
  184.8840  178.0750  143.1080 C   0  0  0  0  0  2  0  0  0  0  0  0
  186.2690  177.7510  142.6020 C   0  0  0  0  0  2  0  0  0  0  0  0
  187.2110  178.6470  143.1740 O   0  0  0  0  0  0  0  0  0  0  0  0
  188.4420  177.4250  144.6700 O   0  0  0  0  0  0  0  0  0  0  0  0
  188.4340  178.2030  143.6800 C   0  0  0  0  0  0  0  0  0  0  0  0
  190.2320  177.5560  142.0720 C   0  0  0  0  0  0  0  0  0  0  0  0
  191.2720  176.1120  143.8480 C   0  0  0  0  0  3  0  0  0  0  0  0
  190.8510  176.4430  142.4740 C   0  0  0  0  0  3  0  0  0  0  0  0
  191.5030  178.4220  144.7700 C   0  0  0  0  0  3  0  0  0  0  0  0
  190.7490  179.1530  143.9500 C   0  0  0  0  0  3  0  0  0  0  0  0
  189.7220  178.6000  143.0140 C   0  0  2  0  0  3  0  0  0  0  0  0
  191.5270  176.9500  144.8610 C   0  0  0  0  0  0  0  0  0  0  0  0
  191.5330  177.1730  147.2080 O   0  0  0  0  0  1  0  0  0  0  0  0
  191.9560  176.3540  146.1580 C   0  0  0  0  0  2  0  0  0  0  0  0
  189.8310  177.6710  140.6400 C   0  0  0  0  0  2  0  0  0  0  0  0
  189.7470  176.2980  139.9930 C   0  0  0  0  0  2  0  0  0  0  0  0
  189.7400  176.7930  137.5490 C   0  0  0  0  0  2  0  0  0  0  0  0
  190.5600  176.2740  138.7060 C   0  0  2  0  0  3  0  0  0  0  0  0
  191.0630  174.8930  137.0220 C   0  0  0  0  0  2  0  0  0  0  0  0
  190.1290  175.9100  136.4050 C   0  0  0  0  0  2  0  0  0  0  0  0
  190.9490  174.9580  138.4190 O   0  0  0  0  0  0  0  0  0  0  0  0
  2 34  1  1  0  0  0
  3  7  1  1  0  0  0
  3  1  1  0  0  0  0
  3  2  1  0  0  0  0
  4  1  1  0  0  0  0
  4 23  1  1  0  0  0
  4  6  1  0  0  0  0
  5 22  1  6  0  0  0
  5  2  1  0  0  0  0
  5  6  1  0  0  0  0
  7  8  2  0  0  0  0
  9  7  1  0  0  0  0
 10  9  1  0  0  0  0
 11 13  1  0  0  0  0
 12 13  2  0  0  0  0
 13 10  1  0  0  0  0
 14 12  2  0  0  0  0
 14 15  1  0  0  0  0
 15 18  1  0  0  0  0
 15 16  1  1  0  0  0
 17 18  1  0  0  0  0
 19 15  1  0  0  0  0
 20 19  1  0  0  0  0
 22 21  1  0  0  0  0
 24 23  1  0  0  0  0
 26 25  1  6  0  0  0
 26 24  1  0  0  0  0
 27 28  1  1  0  0  0
 27 26  1  0  0  0  0
 28 29  1  0  0  0  0
 28 30  1  0  0  0  0
 32 27  1  0  0  0  0
 32 31  1  0  0  0  0
 33 32  1  0  0  0  0
 34 38  1  6  0  0  0
 34 36  1  0  0  0  0
 35 36  2  0  0  0  0
 36 37  1  0  0  0  0
 38 39  1  0  0  0  0
 40 39  1  0  0  0  0
 40 41  1  0  0  0  0
 41 43  1  0  0  0  0
 43 42  2  0  0  0  0
 44 46  2  0  0  0  0
 44 49  1  0  0  0  0
 45 50  2  0  0  0  0
 46 45  1  0  0  0  0
 47 50  1  0  0  0  0
 48 47  2  0  0  0  0
 49 43  1  1  0  0  0
 49 48  1  0  0  0  0
 50 52  1  0  0  0  0
 52 51  1  0  0  0  0
 53 44  1  0  0  0  0
 54 53  1  0  0  0  0
 55 56  1  0  0  0  0
 56 54  1  1  0  0  0
 57 59  1  0  0  0  0
 58 57  1  0  0  0  0
 58 55  1  0  0  0  0
 59 56  1  0  0  0  0
M  END
>  <MODEL>
9

>  <REMARK>
 VINA RESULT:      -3.8      2.977      9.033
  Name = 
  26 active torsions:
  status: ('A' for Active; 'I' for Inactive)
    1  A    between atoms: C_1  and  C_50
    2  A    between atoms: C_3  and  C_5
    3  A    between atoms: C_4  and  C_18
    4  A    between atoms: C_5  and  C_6
    5  A    between atoms: C_5  and  C_29
    6  A    between atoms: C_6  and  C_57
    7  A    between atoms: O_13  and  C_38
    8  A    between atoms: O_13  and  C_54
    9  A    between atoms: N_15  and  C_42
   10  A    between atoms: C_17  and  C_28
   11  A    between atoms: C_17  and  C_47
   12  A    between atoms: C_18  and  C_53
   13  A    between atoms: C_18  and  C_59
   14  A    between atoms: C_20  and  C_21
   15  A    between atoms: C_21  and  O_30
   16  A    between atoms: C_23  and  C_33
   17  A    between atoms: C_25  and  C_28
   18  A    between atoms: O_30  and  N_56
   19  A    between atoms: C_33  and  C_50
   20  A    between atoms: C_34  and  O_58
   21  A    between atoms: C_37  and  C_42
   22  A    between atoms: C_38  and  C_39
   23  A    between atoms: C_41  and  C_46
   24  A    between atoms: C_42  and  C_47
   25  A    between atoms: C_43  and  N_56
   26  A    between atoms: C_54  and  C_57
                            x       y       z     vdW  Elec       q    Type
                         _______ _______ _______ _____ _____    ______ ____

>  <TORSDO>
F 26

$$$$
