=
 OpenBabel11042410043D

 29 32  0  0  1  0  0  0  0  0999 V2000
  188.1230  177.6680  145.0140 C   0  0  0  0  0  3  0  0  0  0  0  0
  186.7620  177.9370  145.1620 C   0  0  0  0  0  0  0  0  0  0  0  0
  184.5360  178.2860  145.9290 C   0  0  0  0  0  2  0  0  0  0  0  0
  187.8300  177.8420  142.6040 C   0  0  0  0  0  3  0  0  0  0  0  0
  184.6160  178.3640  144.4720 N   0  0  0  0  0  0  0  0  0  0  0  0
  186.4610  178.1000  142.7780 C   0  0  0  0  0  3  0  0  0  0  0  0
  185.9590  178.1440  144.0780 C   0  0  0  0  0  0  0  0  0  0  0  0
  186.4450  179.1690  147.2750 C   0  0  0  0  0  1  0  0  0  0  0  0
  188.6840  177.6410  143.7170 C   0  0  0  0  0  0  0  0  0  0  0  0
  185.9720  178.0060  146.4240 C   0  0  2  0  0  3  0  0  0  0  0  0
  182.2750  178.9370  144.0730 N   0  0  0  0  0  0  0  0  0  0  0  0
  183.5490  178.5600  142.2710 N   0  0  0  0  0  2  0  0  0  0  0  0
  181.5130  179.0940  143.0050 N   0  0  0  0  0  0  0  0  0  0  0  0
  183.4950  178.6170  143.6150 C   0  0  0  0  0  0  0  0  0  0  0  0
  182.2820  178.8660  141.9220 C   0  0  0  0  0  3  0  0  0  0  0  0
  190.1580  177.3000  143.5330 C   0  0  2  0  0  0  0  0  0  0  0  0
  191.8900  175.9560  147.2830 C   0  0  0  0  0  0  0  0  0  0  0  0
  192.4580  175.5340  148.4770 O   0  0  0  0  0  1  0  0  0  0  0  0
  191.7290  175.8120  144.8740 C   0  0  0  0  0  3  0  0  0  0  0  0
  190.7220  176.7950  144.8640 C   0  0  0  0  0  0  0  0  0  0  0  0
  192.3020  175.3900  146.0760 C   0  0  0  0  0  3  0  0  0  0  0  0
  190.3370  177.3740  146.0880 C   0  0  0  0  0  3  0  0  0  0  0  0
  190.9110  176.9510  147.2890 C   0  0  0  0  0  3  0  0  0  0  0  0
  190.8960  179.5770  144.0190 O   0  0  0  0  0  1  0  0  0  0  0  0
  190.9370  178.5520  143.0700 C   0  0  0  0  0  2  0  0  0  0  0  0
  190.2240  176.2360  142.4200 C   0  0  0  0  0  2  0  0  0  0  0  0
  190.8960  176.7280  141.2210 N   0  0  0  0  0  2  0  0  0  0  0  0
  190.2810  176.7390  139.9310 C   0  0  0  0  0  3  0  0  0  0  0  0
  189.7460  177.8410  139.4170 C   0  0  0  0  0  2  0  0  0  0  0  0
  1  2  1  0  0  0  0
  2 10  1  0  0  0  0
  3 10  1  0  0  0  0
  4  6  2  0  0  0  0
  4  9  1  0  0  0  0
  5  3  1  0  0  0  0
  6  7  1  0  0  0  0
  7  5  1  0  0  0  0
  7  2  2  0  0  0  0
  9  1  2  0  0  0  0
 10  8  1  1  0  0  0
 12 14  1  0  0  0  0
 13 11  1  0  0  0  0
 14 11  2  0  0  0  0
 14  5  1  0  0  0  0
 15 12  1  0  0  0  0
 15 13  2  0  0  0  0
 16 26  1  6  0  0  0
 16  9  1  0  0  0  0
 16 20  1  0  0  0  0
 17 23  1  0  0  0  0
 17 18  1  0  0  0  0
 19 21  1  0  0  0  0
 20 19  2  0  0  0  0
 20 22  1  0  0  0  0
 21 17  2  0  0  0  0
 22 23  2  0  0  0  0
 25 16  1  0  0  0  0
 25 24  1  0  0  0  0
 27 26  1  0  0  0  0
 28 27  1  0  0  0  0
 29 28  2  0  0  0  0
M  END
>  <MODEL>
1

>  <REMARK>
 VINA RESULT:      -8.8      0.000      0.000
  Name = 
  7 active torsions:
  status: ('A' for Active; 'I' for Inactive)
    1  A    between atoms: C_1  and  N_14
    2  A    between atoms: N_11  and  C_24
    3  A    between atoms: N_14  and  C_22
    4  A    between atoms: C_15  and  C_19
    5  A    between atoms: C_17  and  C_19
    6  A    between atoms: C_19  and  C_22
    7  A    between atoms: C_19  and  C_26
                            x       y       z     vdW  Elec       q    Type
                         _______ _______ _______ _____ _____    ______ ____

>  <TORSDO>
F 7

$$$$
=
 OpenBabel11042410043D

 29 32  0  0  1  0  0  0  0  0999 V2000
  190.2770  176.6210  140.2890 C   0  0  0  0  0  3  0  0  0  0  0  0
  190.7700  176.3260  139.0190 C   0  0  0  0  0  0  0  0  0  0  0  0
  191.1290  175.5970  136.7810 C   0  0  0  0  0  2  0  0  0  0  0  0
  192.4920  177.4310  140.8900 C   0  0  0  0  0  3  0  0  0  0  0  0
  192.3490  176.1560  137.3620 N   0  0  0  0  0  0  0  0  0  0  0  0
  192.9670  177.1160  139.6070 C   0  0  0  0  0  3  0  0  0  0  0  0
  192.0730  176.5650  138.6900 C   0  0  0  0  0  0  0  0  0  0  0  0
  188.9390  176.6280  137.3930 C   0  0  0  0  0  1  0  0  0  0  0  0
  191.1390  177.2070  141.2440 C   0  0  0  0  0  0  0  0  0  0  0  0
  190.0430  175.7060  137.8740 C   0  0  2  0  0  3  0  0  0  0  0  0
  194.7270  175.6610  137.1050 N   0  0  0  0  0  0  0  0  0  0  0  0
  193.7780  176.9290  135.5240 N   0  0  0  0  0  2  0  0  0  0  0  0
  195.6620  175.9640  136.2210 N   0  0  0  0  0  0  0  0  0  0  0  0
  193.6010  176.2490  136.6720 C   0  0  0  0  0  0  0  0  0  0  0  0
  195.0870  176.7280  135.2710 C   0  0  0  0  0  3  0  0  0  0  0  0
  190.6320  177.4900  142.6530 C   0  0  2  0  0  0  0  0  0  0  0  0
  186.3190  178.0080  142.6670 C   0  0  0  0  0  0  0  0  0  0  0  0
  184.9420  178.1810  142.6860 O   0  0  0  0  0  1  0  0  0  0  0  0
  188.3140  176.9860  143.5780 C   0  0  0  0  0  3  0  0  0  0  0  0
  189.1090  177.6370  142.6150 C   0  0  0  0  0  0  0  0  0  0  0  0
  186.9290  177.1650  143.5980 C   0  0  0  0  0  3  0  0  0  0  0  0
  188.4810  178.5030  141.7010 C   0  0  0  0  0  3  0  0  0  0  0  0
  187.0950  178.6810  141.7220 C   0  0  0  0  0  3  0  0  0  0  0  0
  190.4900  179.3860  144.1870 O   0  0  0  0  0  1  0  0  0  0  0  0
  191.2740  178.7880  143.1970 C   0  0  0  0  0  2  0  0  0  0  0  0
  191.0910  176.3070  143.5290 C   0  0  0  0  0  2  0  0  0  0  0  0
  191.8880  176.7400  144.6730 N   0  0  0  0  0  2  0  0  0  0  0  0
  191.5920  176.3600  146.0180 C   0  0  0  0  0  3  0  0  0  0  0  0
  190.5720  176.8840  146.6890 C   0  0  0  0  0  2  0  0  0  0  0  0
  1  9  1  0  0  0  0
  2  1  2  0  0  0  0
  3  5  1  0  0  0  0
  3 10  1  0  0  0  0
  4  9  2  0  0  0  0
  5  7  1  0  0  0  0
  6  4  1  0  0  0  0
  7  2  1  0  0  0  0
  7  6  2  0  0  0  0
  9 16  1  0  0  0  0
 10  8  1  6  0  0  0
 10  2  1  0  0  0  0
 12 14  1  0  0  0  0
 13 11  1  0  0  0  0
 14 11  2  0  0  0  0
 14  5  1  0  0  0  0
 15 12  1  0  0  0  0
 15 13  2  0  0  0  0
 16 25  1  1  0  0  0
 16 26  1  0  0  0  0
 17 18  1  0  0  0  0
 17 21  1  0  0  0  0
 19 21  2  0  0  0  0
 20 16  1  0  0  0  0
 20 19  1  0  0  0  0
 22 23  1  0  0  0  0
 22 20  2  0  0  0  0
 23 17  2  0  0  0  0
 25 24  1  0  0  0  0
 26 27  1  0  0  0  0
 27 28  1  0  0  0  0
 28 29  2  0  0  0  0
M  END
>  <MODEL>
2

>  <REMARK>
 VINA RESULT:      -7.7      4.105      8.485
  Name = 
  7 active torsions:
  status: ('A' for Active; 'I' for Inactive)
    1  A    between atoms: C_1  and  N_14
    2  A    between atoms: N_11  and  C_24
    3  A    between atoms: N_14  and  C_22
    4  A    between atoms: C_15  and  C_19
    5  A    between atoms: C_17  and  C_19
    6  A    between atoms: C_19  and  C_22
    7  A    between atoms: C_19  and  C_26
                            x       y       z     vdW  Elec       q    Type
                         _______ _______ _______ _____ _____    ______ ____

>  <TORSDO>
F 7

$$$$
=
 OpenBabel11042410043D

 29 32  0  0  1  0  0  0  0  0999 V2000
  187.4850  177.8570  144.4740 C   0  0  0  0  0  3  0  0  0  0  0  0
  186.1540  178.1320  144.7830 C   0  0  0  0  0  0  0  0  0  0  0  0
  184.0420  178.5120  145.8150 C   0  0  0  0  0  2  0  0  0  0  0  0
  186.8870  177.9410  142.1160 C   0  0  0  0  0  3  0  0  0  0  0  0
  183.9350  178.5370  144.3570 N   0  0  0  0  0  0  0  0  0  0  0  0
  185.5500  178.2070  142.4530 C   0  0  0  0  0  3  0  0  0  0  0  0
  185.2170  178.3000  143.8040 C   0  0  0  0  0  0  0  0  0  0  0  0
  186.1040  179.4430  146.8730 C   0  0  0  0  0  1  0  0  0  0  0  0
  187.8760  177.7820  143.1170 C   0  0  0  0  0  0  0  0  0  0  0  0
  185.5300  178.2490  146.1330 C   0  0  2  0  0  3  0  0  0  0  0  0
  181.5090  178.7950  144.2340 N   0  0  0  0  0  0  0  0  0  0  0  0
  182.6460  178.9520  142.3120 N   0  0  0  0  0  2  0  0  0  0  0  0
  180.6340  179.0180  143.2690 N   0  0  0  0  0  0  0  0  0  0  0  0
  182.7130  178.7580  143.6420 C   0  0  0  0  0  0  0  0  0  0  0  0
  181.3210  179.1120  142.1140 C   0  0  0  0  0  3  0  0  0  0  0  0
  189.3160  177.4320  142.7600 C   0  0  2  0  0  0  0  0  0  0  0  0
  189.7480  177.7220  138.4470 C   0  0  0  0  0  0  0  0  0  0  0  0
  189.8780  177.8010  137.0680 O   0  0  0  0  0  1  0  0  0  0  0  0
  190.3360  176.6830  140.5510 C   0  0  0  0  0  3  0  0  0  0  0  0
  189.5030  177.5790  141.2470 C   0  0  0  0  0  0  0  0  0  0  0  0
  190.4630  176.7600  139.1620 C   0  0  0  0  0  3  0  0  0  0  0  0
  188.7690  178.5260  140.5080 C   0  0  0  0  0  3  0  0  0  0  0  0
  188.8970  178.6020  139.1190 C   0  0  0  0  0  3  0  0  0  0  0  0
  188.5130  175.1520  143.1060 O   0  0  0  0  0  1  0  0  0  0  0  0
  189.6330  175.9830  143.1930 C   0  0  0  0  0  2  0  0  0  0  0  0
  190.2110  178.3960  143.5630 C   0  0  0  0  0  2  0  0  0  0  0  0
  191.2870  177.7010  144.2620 N   0  0  0  0  0  2  0  0  0  0  0  0
  191.2780  177.4660  145.6720 C   0  0  0  0  0  3  0  0  0  0  0  0
  191.8000  176.3670  146.2050 C   0  0  0  0  0  2  0  0  0  0  0  0
  1  2  1  0  0  0  0
  2 10  1  0  0  0  0
  3 10  1  0  0  0  0
  4  6  2  0  0  0  0
  4  9  1  0  0  0  0
  5  3  1  0  0  0  0
  6  7  1  0  0  0  0
  7  5  1  0  0  0  0
  7  2  2  0  0  0  0
  9  1  2  0  0  0  0
 10  8  1  6  0  0  0
 12 14  1  0  0  0  0
 13 11  1  0  0  0  0
 14 11  2  0  0  0  0
 14  5  1  0  0  0  0
 15 12  1  0  0  0  0
 15 13  2  0  0  0  0
 16  9  1  0  0  0  0
 16 25  1  1  0  0  0
 16 26  1  0  0  0  0
 17 23  2  0  0  0  0
 17 21  1  0  0  0  0
 18 17  1  0  0  0  0
 19 20  1  0  0  0  0
 20 16  1  0  0  0  0
 21 19  2  0  0  0  0
 22 20  2  0  0  0  0
 23 22  1  0  0  0  0
 24 25  1  0  0  0  0
 26 27  1  0  0  0  0
 27 28  1  0  0  0  0
 28 29  2  0  0  0  0
M  END
>  <MODEL>
3

>  <REMARK>
 VINA RESULT:      -7.7      1.972      4.455
  Name = 
  7 active torsions:
  status: ('A' for Active; 'I' for Inactive)
    1  A    between atoms: C_1  and  N_14
    2  A    between atoms: N_11  and  C_24
    3  A    between atoms: N_14  and  C_22
    4  A    between atoms: C_15  and  C_19
    5  A    between atoms: C_17  and  C_19
    6  A    between atoms: C_19  and  C_22
    7  A    between atoms: C_19  and  C_26
                            x       y       z     vdW  Elec       q    Type
                         _______ _______ _______ _____ _____    ______ ____

>  <TORSDO>
F 7

$$$$
=
 OpenBabel11042410043D

 29 32  0  0  1  0  0  0  0  0999 V2000
  191.0500  177.0020  141.2020 C   0  0  0  0  0  3  0  0  0  0  0  0
  190.7400  177.1240  139.8480 C   0  0  0  0  0  0  0  0  0  0  0  0
  190.7250  177.2000  137.4680 C   0  0  0  0  0  2  0  0  0  0  0  0
  188.8360  177.8680  141.7210 C   0  0  0  0  0  3  0  0  0  0  0  0
  189.4570  177.6680  138.0240 N   0  0  0  0  0  0  0  0  0  0  0  0
  188.5510  177.9910  140.3520 C   0  0  0  0  0  3  0  0  0  0  0  0
  189.5300  177.6050  139.4380 C   0  0  0  0  0  0  0  0  0  0  0  0
  191.9140  175.3320  138.6240 C   0  0  0  0  0  1  0  0  0  0  0  0
  190.0790  177.3550  142.1660 C   0  0  0  0  0  0  0  0  0  0  0  0
  191.6090  176.8180  138.6760 C   0  0  2  0  0  3  0  0  0  0  0  0
  187.9820  179.4070  137.1470 N   0  0  0  0  0  0  0  0  0  0  0  0
  187.5660  177.3030  136.5050 N   0  0  0  0  0  0  0  0  0  0  0  0
  186.9350  179.4340  136.3410 N   0  0  0  0  0  2  0  0  0  0  0  0
  188.3480  178.1190  137.2360 C   0  0  0  0  0  0  0  0  0  0  0  0
  186.6870  178.1660  135.9560 C   0  0  0  0  0  3  0  0  0  0  0  0
  190.4170  177.2750  143.6500 C   0  0  2  0  0  0  0  0  0  0  0  0
  186.7800  177.6850  145.9890 C   0  0  0  0  0  0  0  0  0  0  0  0
  185.6160  177.7990  146.7370 O   0  0  0  0  0  1  0  0  0  0  0  0
  187.8910  177.1160  143.9170 C   0  0  0  0  0  3  0  0  0  0  0  0
  189.1360  177.4760  144.4650 C   0  0  0  0  0  0  0  0  0  0  0  0
  186.7210  177.2280  144.6720 C   0  0  0  0  0  3  0  0  0  0  0  0
  189.1810  177.9090  145.8030 C   0  0  0  0  0  3  0  0  0  0  0  0
  188.0100  178.0200  146.5570 C   0  0  0  0  0  3  0  0  0  0  0  0
  190.9830  179.6500  143.7350 O   0  0  0  0  0  1  0  0  0  0  0  0
  191.4520  178.3640  144.0170 C   0  0  0  0  0  2  0  0  0  0  0  0
  191.0540  175.8900  143.8790 C   0  0  0  0  0  2  0  0  0  0  0  0
  192.1080  175.9240  144.8880 N   0  0  0  0  0  2  0  0  0  0  0  0
  191.9760  175.3150  146.1750 C   0  0  0  0  0  3  0  0  0  0  0  0
  191.9780  176.0290  147.2940 C   0  0  0  0  0  2  0  0  0  0  0  0
  1  9  1  0  0  0  0
  2  1  2  0  0  0  0
  3  5  1  0  0  0  0
  3 10  1  0  0  0  0
  4  9  2  0  0  0  0
  5  7  1  0  0  0  0
  6  4  1  0  0  0  0
  7  2  1  0  0  0  0
  7  6  2  0  0  0  0
  9 16  1  0  0  0  0
 10  8  1  6  0  0  0
 10  2  1  0  0  0  0
 11 14  2  0  0  0  0
 12 14  1  0  0  0  0
 13 11  1  0  0  0  0
 14  5  1  0  0  0  0
 15 13  1  0  0  0  0
 15 12  2  0  0  0  0
 16 26  1  1  0  0  0
 16 25  1  0  0  0  0
 16 20  1  0  0  0  0
 17 23  1  0  0  0  0
 17 18  1  0  0  0  0
 19 20  2  0  0  0  0
 19 21  1  0  0  0  0
 20 22  1  0  0  0  0
 21 17  2  0  0  0  0
 22 23  2  0  0  0  0
 24 25  1  0  0  0  0
 26 27  1  0  0  0  0
 27 28  1  0  0  0  0
 28 29  2  0  0  0  0
M  END
>  <MODEL>
4

>  <REMARK>
 VINA RESULT:      -7.6      3.682      6.223
  Name = 
  7 active torsions:
  status: ('A' for Active; 'I' for Inactive)
    1  A    between atoms: C_1  and  N_14
    2  A    between atoms: N_11  and  C_24
    3  A    between atoms: N_14  and  C_22
    4  A    between atoms: C_15  and  C_19
    5  A    between atoms: C_17  and  C_19
    6  A    between atoms: C_19  and  C_22
    7  A    between atoms: C_19  and  C_26
                            x       y       z     vdW  Elec       q    Type
                         _______ _______ _______ _____ _____    ______ ____

>  <TORSDO>
F 7

$$$$
=
 OpenBabel11042410043D

 29 32  0  0  1  0  0  0  0  0999 V2000
  189.8760  177.6070  141.6150 C   0  0  0  0  0  3  0  0  0  0  0  0
  189.0290  177.8270  140.5290 C   0  0  0  0  0  0  0  0  0  0  0  0
  188.0380  178.1770  138.3930 C   0  0  0  0  0  2  0  0  0  0  0  0
  187.9750  177.9750  143.0900 C   0  0  0  0  0  3  0  0  0  0  0  0
  187.0580  178.3310  139.4670 N   0  0  0  0  0  0  0  0  0  0  0  0
  187.1450  178.2030  141.9820 C   0  0  0  0  0  3  0  0  0  0  0  0
  187.7070  178.1170  140.7080 C   0  0  0  0  0  0  0  0  0  0  0  0
  189.8170  176.4430  138.6450 C   0  0  0  0  0  1  0  0  0  0  0  0
  189.3450  177.6560  142.9250 C   0  0  0  0  0  0  0  0  0  0  0  0
  189.3770  177.8290  139.0800 C   0  0  2  0  0  3  0  0  0  0  0  0
  185.0450  179.6420  139.9130 N   0  0  0  0  0  0  0  0  0  0  0  0
  184.8770  178.0090  138.3900 N   0  0  0  0  0  2  0  0  0  0  0  0
  183.8030  179.6410  139.4620 N   0  0  0  0  0  0  0  0  0  0  0  0
  185.6780  178.6550  139.2590 C   0  0  0  0  0  0  0  0  0  0  0  0
  183.7050  178.6570  138.5470 C   0  0  0  0  0  3  0  0  0  0  0  0
  190.2650  177.4670  144.1250 C   0  0  2  0  0  0  0  0  0  0  0  0
  187.9550  177.7780  147.7900 C   0  0  0  0  0  0  0  0  0  0  0  0
  187.2150  177.8620  148.9620 O   0  0  0  0  0  1  0  0  0  0  0  0
  188.0830  177.2950  145.4230 C   0  0  0  0  0  3  0  0  0  0  0  0
  189.4490  177.6330  145.4090 C   0  0  0  0  0  0  0  0  0  0  0  0
  187.3400  177.3750  146.6040 C   0  0  0  0  0  3  0  0  0  0  0  0
  190.0590  178.0130  146.6190 C   0  0  0  0  0  3  0  0  0  0  0  0
  189.3150  178.0920  147.8000 C   0  0  0  0  0  3  0  0  0  0  0  0
  190.9210  179.8180  144.0240 O   0  0  0  0  0  1  0  0  0  0  0  0
  191.4070  178.5090  144.0860 C   0  0  0  0  0  2  0  0  0  0  0  0
  190.8770  176.0580  143.9900 C   0  0  0  0  0  2  0  0  0  0  0  0
  192.0660  175.8880  144.8180 N   0  0  0  0  0  2  0  0  0  0  0  0
  192.0890  175.0700  145.9910 C   0  0  0  0  0  3  0  0  0  0  0  0
  192.3500  175.5720  147.1920 C   0  0  0  0  0  2  0  0  0  0  0  0
  1  9  1  0  0  0  0
  2  7  1  0  0  0  0
  2  1  2  0  0  0  0
  3 10  1  0  0  0  0
  3  5  1  0  0  0  0
  5  7  1  0  0  0  0
  6  4  1  0  0  0  0
  7  6  2  0  0  0  0
  9  4  2  0  0  0  0
  9 16  1  0  0  0  0
 10  8  1  6  0  0  0
 10  2  1  0  0  0  0
 12 15  1  0  0  0  0
 12 14  1  0  0  0  0
 13 11  1  0  0  0  0
 14  5  1  0  0  0  0
 14 11  2  0  0  0  0
 15 13  2  0  0  0  0
 16 26  1  6  0  0  0
 16 20  1  0  0  0  0
 17 23  1  0  0  0  0
 17 18  1  0  0  0  0
 19 21  1  0  0  0  0
 20 19  2  0  0  0  0
 20 22  1  0  0  0  0
 21 17  2  0  0  0  0
 22 23  2  0  0  0  0
 24 25  1  0  0  0  0
 25 16  1  0  0  0  0
 26 27  1  0  0  0  0
 27 28  1  0  0  0  0
 28 29  2  0  0  0  0
M  END
>  <MODEL>
5

>  <REMARK>
 VINA RESULT:      -7.6      2.562      4.749
  Name = 
  7 active torsions:
  status: ('A' for Active; 'I' for Inactive)
    1  A    between atoms: C_1  and  N_14
    2  A    between atoms: N_11  and  C_24
    3  A    between atoms: N_14  and  C_22
    4  A    between atoms: C_15  and  C_19
    5  A    between atoms: C_17  and  C_19
    6  A    between atoms: C_19  and  C_22
    7  A    between atoms: C_19  and  C_26
                            x       y       z     vdW  Elec       q    Type
                         _______ _______ _______ _____ _____    ______ ____

>  <TORSDO>
F 7

$$$$
=
 OpenBabel11042410043D

 29 32  0  0  1  0  0  0  0  0999 V2000
  187.1220  177.8180  143.2730 C   0  0  0  0  0  3  0  0  0  0  0  0
  185.8280  178.2160  142.9410 C   0  0  0  0  0  0  0  0  0  0  0  0
  183.5030  178.7280  142.8720 C   0  0  0  0  0  2  0  0  0  0  0  0
  187.7740  178.2420  140.9660 C   0  0  0  0  0  3  0  0  0  0  0  0
  184.1330  178.9310  141.5680 N   0  0  0  0  0  0  0  0  0  0  0  0
  186.4610  178.6270  140.6540 C   0  0  0  0  0  3  0  0  0  0  0  0
  185.5080  178.6060  141.6720 C   0  0  0  0  0  0  0  0  0  0  0  0
  184.8150  179.2770  144.9250 C   0  0  0  0  0  1  0  0  0  0  0  0
  188.1290  177.8510  142.2800 C   0  0  0  0  0  0  0  0  0  0  0  0
  184.6250  178.2530  143.8220 C   0  0  2  0  0  3  0  0  0  0  0  0
  182.1490  179.0940  140.1530 N   0  0  0  0  0  0  0  0  0  0  0  0
  183.9990  180.1270  139.4300 N   0  0  0  0  0  0  0  0  0  0  0  0
  181.8610  179.6680  138.9970 N   0  0  0  0  0  2  0  0  0  0  0  0
  183.4380  179.3780  140.3980 C   0  0  0  0  0  0  0  0  0  0  0  0
  182.9770  180.2890  138.5660 C   0  0  0  0  0  3  0  0  0  0  0  0
  189.5380  177.3730  142.6110 C   0  0  2  0  0  0  0  0  0  0  0  0
  191.8870  176.9120  138.9860 C   0  0  0  0  0  0  0  0  0  0  0  0
  192.6450  176.7530  137.8350 O   0  0  0  0  0  1  0  0  0  0  0  0
  191.7140  177.5770  141.3060 C   0  0  0  0  0  3  0  0  0  0  0  0
  190.3430  177.2590  141.3140 C   0  0  0  0  0  0  0  0  0  0  0  0
  192.4770  177.4130  140.1480 C   0  0  0  0  0  3  0  0  0  0  0  0
  189.7690  176.7310  140.1420 C   0  0  0  0  0  3  0  0  0  0  0  0
  190.5340  176.5670  138.9840 C   0  0  0  0  0  3  0  0  0  0  0  0
  190.4880  175.1390  142.8790 O   0  0  0  0  0  1  0  0  0  0  0  0
  189.4790  176.0000  143.3200 C   0  0  0  0  0  2  0  0  0  0  0  0
  190.1320  178.4080  143.5880 C   0  0  0  0  0  2  0  0  0  0  0  0
  190.2610  177.8820  144.9430 N   0  0  0  0  0  2  0  0  0  0  0  0
  191.5130  177.5020  145.5170 C   0  0  0  0  0  3  0  0  0  0  0  0
  191.6820  176.3330  146.1250 C   0  0  0  0  0  2  0  0  0  0  0  0
  2  1  1  0  0  0  0
  2 10  1  0  0  0  0
  3 10  1  0  0  0  0
  4  9  1  0  0  0  0
  5  7  1  0  0  0  0
  5  3  1  0  0  0  0
  6  4  2  0  0  0  0
  6  7  1  0  0  0  0
  7  2  2  0  0  0  0
  9 16  1  0  0  0  0
  9  1  2  0  0  0  0
 10  8  1  1  0  0  0
 11 14  2  0  0  0  0
 12 14  1  0  0  0  0
 13 11  1  0  0  0  0
 14  5  1  0  0  0  0
 15 13  1  0  0  0  0
 15 12  2  0  0  0  0
 16 25  1  1  0  0  0
 16 26  1  0  0  0  0
 17 21  1  0  0  0  0
 18 17  1  0  0  0  0
 19 20  1  0  0  0  0
 20 16  1  0  0  0  0
 21 19  2  0  0  0  0
 22 20  2  0  0  0  0
 23 17  2  0  0  0  0
 23 22  1  0  0  0  0
 24 25  1  0  0  0  0
 26 27  1  0  0  0  0
 27 28  1  0  0  0  0
 28 29  2  0  0  0  0
M  END
>  <MODEL>
6

>  <REMARK>
 VINA RESULT:      -7.6      2.462      4.642
  Name = 
  7 active torsions:
  status: ('A' for Active; 'I' for Inactive)
    1  A    between atoms: C_1  and  N_14
    2  A    between atoms: N_11  and  C_24
    3  A    between atoms: N_14  and  C_22
    4  A    between atoms: C_15  and  C_19
    5  A    between atoms: C_17  and  C_19
    6  A    between atoms: C_19  and  C_22
    7  A    between atoms: C_19  and  C_26
                            x       y       z     vdW  Elec       q    Type
                         _______ _______ _______ _____ _____    ______ ____

>  <TORSDO>
F 7

$$$$
=
 OpenBabel11042410043D

 29 32  0  0  1  0  0  0  0  0999 V2000
  189.3560  177.3360  141.3790 C   0  0  0  0  0  3  0  0  0  0  0  0
  189.6780  177.1060  140.0420 C   0  0  0  0  0  0  0  0  0  0  0  0
  189.6980  176.6720  137.7010 C   0  0  0  0  0  2  0  0  0  0  0  0
  191.7330  177.2680  141.8970 C   0  0  0  0  0  3  0  0  0  0  0  0
  191.0530  176.6990  138.2500 N   0  0  0  0  0  0  0  0  0  0  0  0
  192.0320  177.0270  140.5470 C   0  0  0  0  0  3  0  0  0  0  0  0
  190.9750  176.9550  139.6410 C   0  0  0  0  0  0  0  0  0  0  0  0
  188.0040  178.2500  138.6370 C   0  0  0  0  0  1  0  0  0  0  0  0
  190.3960  177.4450  142.3300 C   0  0  0  0  0  0  0  0  0  0  0  0
  188.7480  176.9520  138.8870 C   0  0  2  0  0  3  0  0  0  0  0  0
  193.4740  176.7530  137.9310 N   0  0  0  0  0  0  0  0  0  0  0  0
  192.2420  176.0000  136.2210 N   0  0  0  0  0  2  0  0  0  0  0  0
  194.3020  176.4340  136.9510 N   0  0  0  0  0  0  0  0  0  0  0  0
  192.2400  176.4870  137.4760 C   0  0  0  0  0  0  0  0  0  0  0  0
  193.5570  175.9820  135.9240 C   0  0  0  0  0  3  0  0  0  0  0  0
  190.0600  177.6470  143.8030 C   0  0  2  0  0  0  0  0  0  0  0  0
  185.7690  178.0970  144.3070 C   0  0  0  0  0  0  0  0  0  0  0  0
  184.4010  178.2540  144.4770 O   0  0  0  0  0  1  0  0  0  0  0  0
  187.9480  177.5830  145.2230 C   0  0  0  0  0  3  0  0  0  0  0  0
  188.5410  177.7540  143.9580 C   0  0  0  0  0  0  0  0  0  0  0  0
  186.5710  177.7450  145.3930 C   0  0  0  0  0  3  0  0  0  0  0  0
  187.7210  178.1340  142.8790 C   0  0  0  0  0  3  0  0  0  0  0  0
  186.3440  178.2960  143.0500 C   0  0  0  0  0  3  0  0  0  0  0  0
  190.5590  180.0130  143.4600 O   0  0  0  0  0  1  0  0  0  0  0  0
  190.7370  178.9340  144.3290 C   0  0  0  0  0  2  0  0  0  0  0  0
  190.6480  176.4360  144.5550 C   0  0  0  0  0  2  0  0  0  0  0  0
  191.5930  176.8340  145.5940 N   0  0  0  0  0  2  0  0  0  0  0  0
  191.4970  176.3880  146.9480 C   0  0  0  0  0  3  0  0  0  0  0  0
  192.4300  175.6240  147.5050 C   0  0  0  0  0  2  0  0  0  0  0  0
  1  9  1  0  0  0  0
  2  1  2  0  0  0  0
  3  5  1  0  0  0  0
  3 10  1  0  0  0  0
  4  9  2  0  0  0  0
  5  7  1  0  0  0  0
  6  4  1  0  0  0  0
  7  2  1  0  0  0  0
  7  6  2  0  0  0  0
  9 16  1  0  0  0  0
 10  8  1  6  0  0  0
 10  2  1  0  0  0  0
 12 14  1  0  0  0  0
 13 11  1  0  0  0  0
 14 11  2  0  0  0  0
 14  5  1  0  0  0  0
 15 12  1  0  0  0  0
 15 13  2  0  0  0  0
 16 20  1  0  0  0  0
 16 25  1  1  0  0  0
 16 26  1  0  0  0  0
 17 18  1  0  0  0  0
 17 21  1  0  0  0  0
 19 21  2  0  0  0  0
 20 19  1  0  0  0  0
 22 23  1  0  0  0  0
 22 20  2  0  0  0  0
 23 17  2  0  0  0  0
 24 25  1  0  0  0  0
 26 27  1  0  0  0  0
 27 28  1  0  0  0  0
 28 29  2  0  0  0  0
M  END
>  <MODEL>
7

>  <REMARK>
 VINA RESULT:      -7.4      3.907      7.607
  Name = 
  7 active torsions:
  status: ('A' for Active; 'I' for Inactive)
    1  A    between atoms: C_1  and  N_14
    2  A    between atoms: N_11  and  C_24
    3  A    between atoms: N_14  and  C_22
    4  A    between atoms: C_15  and  C_19
    5  A    between atoms: C_17  and  C_19
    6  A    between atoms: C_19  and  C_22
    7  A    between atoms: C_19  and  C_26
                            x       y       z     vdW  Elec       q    Type
                         _______ _______ _______ _____ _____    ______ ____

>  <TORSDO>
F 7

$$$$
=
 OpenBabel11042410043D

 29 32  0  0  1  0  0  0  0  0999 V2000
  189.6640  177.0320  141.1120 C   0  0  0  0  0  3  0  0  0  0  0  0
  189.4720  177.0410  142.4930 C   0  0  0  0  0  0  0  0  0  0  0  0
  189.5890  176.7560  144.8540 C   0  0  0  0  0  2  0  0  0  0  0  0
  187.5180  178.1560  140.8720 C   0  0  0  0  0  3  0  0  0  0  0  0
  188.3610  177.4440  144.4600 N   0  0  0  0  0  0  0  0  0  0  0  0
  187.3430  178.1440  142.2650 C   0  0  0  0  0  3  0  0  0  0  0  0
  188.3470  177.5790  143.0500 C   0  0  0  0  0  0  0  0  0  0  0  0
  191.6810  177.2300  143.5760 C   0  0  0  0  0  1  0  0  0  0  0  0
  188.6860  177.6190  140.2760 C   0  0  0  0  0  0  0  0  0  0  0  0
  190.3640  176.4780  143.5470 C   0  0  2  0  0  3  0  0  0  0  0  0
  187.5600  177.9950  146.7010 N   0  0  0  0  0  0  0  0  0  0  0  0
  186.1070  178.2390  145.0160 N   0  0  0  0  0  2  0  0  0  0  0  0
  186.4210  178.4280  147.2140 N   0  0  0  0  0  0  0  0  0  0  0  0
  187.3540  177.8870  145.3800 C   0  0  0  0  0  0  0  0  0  0  0  0
  185.5490  178.5730  146.1970 C   0  0  0  0  0  3  0  0  0  0  0  0
  188.8540  177.5740  138.7620 C   0  0  2  0  0  0  0  0  0  0  0  0
  192.2900  175.1640  137.6430 C   0  0  0  0  0  0  0  0  0  0  0  0
  193.3850  174.3980  137.2700 O   0  0  0  0  0  1  0  0  0  0  0  0
  189.8970  175.5130  137.6930 C   0  0  0  0  0  3  0  0  0  0  0  0
  190.0670  176.7050  138.4210 C   0  0  0  0  0  0  0  0  0  0  0  0
  191.0000  174.7450  137.3140 C   0  0  0  0  0  3  0  0  0  0  0  0
  191.3760  177.1270  138.7220 C   0  0  0  0  0  3  0  0  0  0  0  0
  192.4790  176.3570  138.3430 C   0  0  0  0  0  3  0  0  0  0  0  0
  189.3530  179.0010  136.8440 O   0  0  0  0  0  1  0  0  0  0  0  0
  189.0550  179.0040  138.2090 C   0  0  0  0  0  2  0  0  0  0  0  0
  187.5390  177.0050  138.1940 C   0  0  0  0  0  2  0  0  0  0  0  0
  186.5950  178.0540  137.8210 N   0  0  0  0  0  2  0  0  0  0  0  0
  185.1800  177.9170  137.9640 C   0  0  0  0  0  3  0  0  0  0  0  0
  184.4730  178.7120  138.7600 C   0  0  0  0  0  2  0  0  0  0  0  0
  1  2  1  0  0  0  0
  2  7  2  0  0  0  0
  2 10  1  0  0  0  0
  4  6  2  0  0  0  0
  5  3  1  0  0  0  0
  5 14  1  0  0  0  0
  6  7  1  0  0  0  0
  7  5  1  0  0  0  0
  9  4  1  0  0  0  0
  9  1  2  0  0  0  0
 10  8  1  1  0  0  0
 10  3  1  0  0  0  0
 11 13  1  0  0  0  0
 12 14  1  0  0  0  0
 12 15  1  0  0  0  0
 14 11  2  0  0  0  0
 15 13  2  0  0  0  0
 16 26  1  6  0  0  0
 16  9  1  0  0  0  0
 17 23  1  0  0  0  0
 18 17  1  0  0  0  0
 19 20  2  0  0  0  0
 20 22  1  0  0  0  0
 20 16  1  0  0  0  0
 21 17  2  0  0  0  0
 21 19  1  0  0  0  0
 23 22  2  0  0  0  0
 24 25  1  0  0  0  0
 25 16  1  0  0  0  0
 27 28  1  0  0  0  0
 27 26  1  0  0  0  0
 28 29  2  0  0  0  0
M  END
>  <MODEL>
8

>  <REMARK>
 VINA RESULT:      -7.4      3.421      6.086
  Name = 
  7 active torsions:
  status: ('A' for Active; 'I' for Inactive)
    1  A    between atoms: C_1  and  N_14
    2  A    between atoms: N_11  and  C_24
    3  A    between atoms: N_14  and  C_22
    4  A    between atoms: C_15  and  C_19
    5  A    between atoms: C_17  and  C_19
    6  A    between atoms: C_19  and  C_22
    7  A    between atoms: C_19  and  C_26
                            x       y       z     vdW  Elec       q    Type
                         _______ _______ _______ _____ _____    ______ ____

>  <TORSDO>
F 7

$$$$
=
 OpenBabel11042410043D

 29 32  0  0  1  0  0  0  0  0999 V2000
  186.2410  177.9590  143.6690 C   0  0  0  0  0  3  0  0  0  0  0  0
  185.0280  178.2490  143.0450 C   0  0  0  0  0  0  0  0  0  0  0  0
  182.7490  178.6060  142.4550 C   0  0  0  0  0  2  0  0  0  0  0  0
  187.3440  178.2640  141.5210 C   0  0  0  0  0  3  0  0  0  0  0  0
  183.6300  178.7590  141.2980 N   0  0  0  0  0  0  0  0  0  0  0  0
  186.1100  178.5420  140.9140 C   0  0  0  0  0  3  0  0  0  0  0  0
  184.9660  178.5300  141.7100 C   0  0  0  0  0  0  0  0  0  0  0  0
  183.5690  179.3770  144.6850 C   0  0  0  0  0  1  0  0  0  0  0  0
  187.4320  177.9880  142.9070 C   0  0  0  0  0  0  0  0  0  0  0  0
  183.6660  178.2700  143.6520 C   0  0  2  0  0  3  0  0  0  0  0  0
  183.1560  180.3280  139.4870 N   0  0  0  0  0  0  0  0  0  0  0  0
  182.7300  178.1660  139.0940 N   0  0  0  0  0  0  0  0  0  0  0  0
  182.6840  180.2310  138.2570 N   0  0  0  0  0  2  0  0  0  0  0  0
  183.1770  179.0790  139.9770 C   0  0  0  0  0  0  0  0  0  0  0  0
  182.4280  178.9290  138.0230 C   0  0  0  0  0  3  0  0  0  0  0  0
  188.7600  177.6250  143.5610 C   0  0  2  0  0  0  0  0  0  0  0  0
  188.1420  177.5110  147.8590 C   0  0  0  0  0  0  0  0  0  0  0  0
  187.9310  177.4660  149.2300 O   0  0  0  0  0  1  0  0  0  0  0  0
  187.4890  178.2900  145.6630 C   0  0  0  0  0  3  0  0  0  0  0  0
  188.5840  177.6240  145.0810 C   0  0  0  0  0  0  0  0  0  0  0  0
  187.2760  178.2410  147.0430 C   0  0  0  0  0  3  0  0  0  0  0  0
  189.4320  176.8710  145.9150 C   0  0  0  0  0  3  0  0  0  0  0  0
  189.2170  176.8220  147.2950 C   0  0  0  0  0  3  0  0  0  0  0  0
  190.6580  179.0060  144.2350 O   0  0  0  0  0  1  0  0  0  0  0  0
  189.8470  178.6480  143.1560 C   0  0  0  0  0  2  0  0  0  0  0  0
  189.1550  176.2410  143.0090 C   0  0  0  0  0  2  0  0  0  0  0  0
  190.3310  176.3010  142.1470 N   0  0  0  0  0  2  0  0  0  0  0  0
  190.2510  176.3710  140.7220 C   0  0  0  0  0  3  0  0  0  0  0  0
  191.0320  177.1770  140.0120 C   0  0  0  0  0  2  0  0  0  0  0  0
  2 10  1  0  0  0  0
  2  1  1  0  0  0  0
  3 10  1  0  0  0  0
  4  9  1  0  0  0  0
  5  7  1  0  0  0  0
  5  3  1  0  0  0  0
  6  4  2  0  0  0  0
  6  7  1  0  0  0  0
  7  2  2  0  0  0  0
  9 16  1  0  0  0  0
  9  1  2  0  0  0  0
 10  8  1  1  0  0  0
 11 14  2  0  0  0  0
 12 14  1  0  0  0  0
 13 11  1  0  0  0  0
 14  5  1  0  0  0  0
 15 13  1  0  0  0  0
 15 12  2  0  0  0  0
 16 26  1  6  0  0  0
 16 20  1  0  0  0  0
 17 18  1  0  0  0  0
 19 21  1  0  0  0  0
 20 19  2  0  0  0  0
 20 22  1  0  0  0  0
 21 17  2  0  0  0  0
 22 23  2  0  0  0  0
 23 17  1  0  0  0  0
 25 16  1  0  0  0  0
 25 24  1  0  0  0  0
 27 26  1  0  0  0  0
 28 27  1  0  0  0  0
 29 28  2  0  0  0  0
M  END
>  <MODEL>
9

>  <REMARK>
 VINA RESULT:      -7.4      2.033      3.165
  Name = 
  7 active torsions:
  status: ('A' for Active; 'I' for Inactive)
    1  A    between atoms: C_1  and  N_14
    2  A    between atoms: N_11  and  C_24
    3  A    between atoms: N_14  and  C_22
    4  A    between atoms: C_15  and  C_19
    5  A    between atoms: C_17  and  C_19
    6  A    between atoms: C_19  and  C_22
    7  A    between atoms: C_19  and  C_26
                            x       y       z     vdW  Elec       q    Type
                         _______ _______ _______ _____ _____    ______ ____

>  <TORSDO>
F 7

$$$$
