=
 OpenBabel11032421263D

 34 38  0  0  1  0  0  0  0  0999 V2000
  190.8370  176.3890  140.4070 N   0  0  0  0  0  0  0  0  0  0  0  0
  190.0660  176.8240  136.7380 C   0  0  0  0  0  3  0  0  0  0  0  0
  189.9600  176.8450  138.1250 C   0  0  0  0  0  0  0  0  0  0  0  0
  185.9760  177.5000  135.0770 N   0  0  0  0  0  2  0  0  0  0  0  0
  184.9200  177.0730  135.9400 C   0  0  0  0  0  0  0  0  0  0  0  0
  188.8100  177.3790  138.7150 C   0  0  0  0  0  0  0  0  0  0  0  0
  189.7660  176.8880  140.9510 C   0  0  0  0  0  0  0  0  0  0  0  0
  185.2210  178.0540  138.2990 C   0  0  0  0  0  0  0  0  0  0  0  0
  184.1300  178.5660  139.1680 C   0  0  0  0  0  1  0  0  0  0  0  0
  189.0690  177.3340  135.9710 N   0  0  0  0  0  0  0  0  0  0  0  0
  186.9630  178.4830  135.5350 C   0  0  0  0  0  2  0  0  0  0  0  0
  191.0750  176.2860  138.9630 C   0  0  0  0  0  2  0  0  0  0  0  0
  188.7020  177.3880  140.1370 N   0  0  0  0  0  2  0  0  0  0  0  0
  186.5870  178.3750  138.5980 N   0  0  0  0  0  2  0  0  0  0  0  0
  187.7630  177.8740  137.9200 C   0  0  0  0  0  0  0  0  0  0  0  0
  184.9370  177.5030  137.1620 C   0  0  0  0  0  0  0  0  0  0  0  0
  183.9110  176.0820  135.4850 C   0  0  0  0  0  1  0  0  0  0  0  0
  187.9350  177.8680  136.5030 C   0  0  0  0  0  0  0  0  0  0  0  0
  189.6430  176.9110  142.4390 C   0  0  1  0  0  3  0  0  0  0  0  0
  190.0270  178.2160  142.9600 N   0  0  0  0  0  2  0  0  0  0  0  0
  191.0760  178.3840  143.9140 C   0  0  0  0  0  0  0  0  0  0  0  0
  191.6800  177.3850  144.3870 O   0  0  0  0  0  0  0  0  0  0  0  0
  191.4570  179.7530  144.3530 C   0  0  0  0  0  1  0  0  0  0  0  0
  188.2130  176.5870  142.8440 C   0  0  0  0  0  2  0  0  0  0  0  0
  188.0440  176.7530  144.2810 N   0  0  0  0  0  0  0  0  0  0  0  0
  187.0050  177.7500  146.2130 C   0  0  2  0  0  3  0  0  0  0  0  0
  184.7660  178.7950  146.2180 C   0  0  0  0  0  3  0  0  0  0  0  0
  184.5000  178.2550  144.8490 C   0  0  0  0  0  2  0  0  0  0  0  0
  187.0630  177.6150  144.8710 C   0  0  0  0  0  0  0  0  0  0  0  0
  185.9170  178.5350  146.8440 C   0  0  0  0  0  3  0  0  0  0  0  0
  185.9530  178.5730  143.8060 S   0  0  0  0  0  0  0  0  0  0  0  0
  188.0540  177.7950  148.4640 C   0  0  0  0  0  2  0  0  0  0  0  0
  188.0570  177.1290  147.0960 C   0  0  0  0  0  3  0  0  0  0  0  0
  189.1360  178.1360  147.4670 C   0  0  0  0  0  2  0  0  0  0  0  0
  1  7  2  0  0  0  0
  2  3  1  0  0  0  0
  3  6  2  0  0  0  0
  3 12  1  0  0  0  0
  4 11  1  0  0  0  0
  4  5  1  0  0  0  0
  5 16  2  0  0  0  0
  6 13  1  0  0  0  0
  7 19  1  0  0  0  0
  8 14  1  0  0  0  0
  8  9  1  0  0  0  0
 10 18  1  0  0  0  0
 10  2  2  0  0  0  0
 11 18  1  0  0  0  0
 12  1  1  0  0  0  0
 13  7  1  0  0  0  0
 15 14  1  0  0  0  0
 15  6  1  0  0  0  0
 16  8  2  0  0  0  0
 17  5  1  0  0  0  0
 18 15  2  0  0  0  0
 19 24  1  6  0  0  0
 19 20  1  0  0  0  0
 20 21  1  0  0  0  0
 21 23  1  0  0  0  0
 21 22  2  0  0  0  0
 24 25  1  0  0  0  0
 25 29  2  0  0  0  0
 26 30  1  0  0  0  0
 26 33  1  6  0  0  0
 27 30  2  0  0  0  0
 28 27  1  0  0  0  0
 29 26  1  0  0  0  0
 31 28  1  0  0  0  0
 31 29  1  0  0  0  0
 33 34  1  0  0  0  0
 33 32  1  0  0  0  0
 34 32  1  0  0  0  0
M  END
>  <MODEL>
1

>  <REMARK>
 VINA RESULT:      -8.9      0.000      0.000
  Name = 
  6 active torsions:
  status: ('A' for Active; 'I' for Inactive)
    1  A    between atoms: N_1  and  C_3
    2  A    between atoms: C_3  and  C_17
    3  A    between atoms: C_3  and  C_32
    4  A    between atoms: N_4  and  C_24
    5  A    between atoms: N_4  and  C_32
    6  A    between atoms: C_5  and  C_9
                            x       y       z     vdW  Elec       q    Type
                         _______ _______ _______ _____ _____    ______ ____

>  <TORSDO>
F 6

$$$$
=
 OpenBabel11032421263D

 34 38  0  0  1  0  0  0  0  0999 V2000
  190.7510  176.4400  140.4460 N   0  0  0  0  0  0  0  0  0  0  0  0
  190.1040  176.8160  136.7470 C   0  0  0  0  0  3  0  0  0  0  0  0
  189.9490  176.8530  138.1290 C   0  0  0  0  0  0  0  0  0  0  0  0
  186.0660  177.4130  134.9340 N   0  0  0  0  0  2  0  0  0  0  0  0
  184.9870  176.9820  135.7660 C   0  0  0  0  0  0  0  0  0  0  0  0
  188.7720  177.3790  138.6710 C   0  0  0  0  0  0  0  0  0  0  0  0
  189.6550  176.9300  140.9460 C   0  0  0  0  0  0  0  0  0  0  0  0
  185.1910  177.9970  138.1200 C   0  0  0  0  0  0  0  0  0  0  0  0
  184.0630  178.5050  138.9430 C   0  0  0  0  0  1  0  0  0  0  0  0
  189.1280  177.3020  135.9390 N   0  0  0  0  0  0  0  0  0  0  0  0
  187.0230  178.4150  135.4130 C   0  0  0  0  0  2  0  0  0  0  0  0
  191.0420  176.3210  139.0130 C   0  0  0  0  0  2  0  0  0  0  0  0
  188.6140  177.4040  140.0880 N   0  0  0  0  0  2  0  0  0  0  0  0
  186.5410  178.3420  138.4630 N   0  0  0  0  0  2  0  0  0  0  0  0
  187.7470  177.8490  137.8330 C   0  0  0  0  0  0  0  0  0  0  0  0
  184.9550  177.4280  136.9820 C   0  0  0  0  0  0  0  0  0  0  0  0
  184.0080  175.9710  135.2890 C   0  0  0  0  0  1  0  0  0  0  0  0
  187.9690  177.8270  136.4230 C   0  0  0  0  0  0  0  0  0  0  0  0
  189.4790  176.9710  142.4280 C   0  0  1  0  0  3  0  0  0  0  0  0
  189.8950  178.2650  142.9530 N   0  0  0  0  0  2  0  0  0  0  0  0
  191.0520  178.4240  143.7750 C   0  0  0  0  0  0  0  0  0  0  0  0
  191.7330  177.4240  144.1260 O   0  0  0  0  0  0  0  0  0  0  0  0
  191.4530  179.7840  144.2230 C   0  0  0  0  0  1  0  0  0  0  0  0
  188.0240  176.7070  142.7820 C   0  0  0  0  0  2  0  0  0  0  0  0
  187.4120  177.9080  143.3340 N   0  0  0  0  0  2  0  0  0  0  0  0
  185.4980  178.5980  144.6260 C   0  0  0  0  0  0  0  0  0  0  0  0
  185.4000  178.5960  147.0940 C   0  0  0  0  0  3  0  0  0  0  0  0
  186.8700  178.3330  147.1630 C   0  0  0  0  0  2  0  0  0  0  0  0
  186.6700  177.9310  144.5590 C   0  0  0  0  0  0  0  0  0  0  0  0
  184.7840  178.7380  145.9180 C   0  0  0  0  0  3  0  0  0  0  0  0
  187.2790  177.0040  145.9930 S   0  0  0  0  0  0  0  0  0  0  0  0
  183.3620  179.2000  143.5130 C   0  0  0  0  0  2  0  0  0  0  0  0
  184.8770  179.1890  143.3860 C   0  0  0  0  0  3  0  0  0  0  0  0
  184.0330  178.1640  142.6440 C   0  0  0  0  0  2  0  0  0  0  0  0
  1  7  2  0  0  0  0
  2  3  1  0  0  0  0
  3  6  2  0  0  0  0
  3 12  1  0  0  0  0
  4 11  1  0  0  0  0
  4  5  1  0  0  0  0
  5 16  2  0  0  0  0
  6 13  1  0  0  0  0
  7 19  1  0  0  0  0
  8 14  1  0  0  0  0
  8  9  1  0  0  0  0
 10 18  1  0  0  0  0
 10  2  2  0  0  0  0
 11 18  1  0  0  0  0
 12  1  1  0  0  0  0
 13  7  1  0  0  0  0
 15 14  1  0  0  0  0
 15  6  1  0  0  0  0
 16  8  2  0  0  0  0
 17  5  1  0  0  0  0
 18 15  2  0  0  0  0
 19 24  1  6  0  0  0
 19 20  1  0  0  0  0
 20 21  1  0  0  0  0
 21 22  2  0  0  0  0
 21 23  1  0  0  0  0
 24 25  1  0  0  0  0
 25 29  1  0  0  0  0
 26 30  1  0  0  0  0
 27 28  1  0  0  0  0
 29 26  2  0  0  0  0
 29 31  1  0  0  0  0
 30 27  2  0  0  0  0
 31 28  1  0  0  0  0
 33 32  1  0  0  0  0
 33 26  1  0  0  0  0
 34 33  1  0  0  0  0
 34 32  1  0  0  0  0
M  END
>  <MODEL>
2

>  <REMARK>
 VINA RESULT:      -8.7      0.899      2.158
  Name = 
  6 active torsions:
  status: ('A' for Active; 'I' for Inactive)
    1  A    between atoms: N_1  and  C_3
    2  A    between atoms: C_3  and  C_17
    3  A    between atoms: C_3  and  C_32
    4  A    between atoms: N_4  and  C_24
    5  A    between atoms: N_4  and  C_32
    6  A    between atoms: C_5  and  C_9
                            x       y       z     vdW  Elec       q    Type
                         _______ _______ _______ _____ _____    ______ ____

>  <TORSDO>
F 6

$$$$
=
 OpenBabel11032421263D

 34 38  0  0  1  0  0  0  0  0999 V2000
  190.2240  177.4900  141.1160 N   0  0  0  0  0  0  0  0  0  0  0  0
  190.6370  176.7140  137.4450 C   0  0  0  0  0  3  0  0  0  0  0  0
  190.0840  177.0900  138.6660 C   0  0  0  0  0  0  0  0  0  0  0  0
  187.2570  175.9660  134.6230 N   0  0  0  0  0  2  0  0  0  0  0  0
  186.0440  175.5660  135.2640 C   0  0  0  0  0  0  0  0  0  0  0  0
  188.7460  177.4930  138.7140 C   0  0  0  0  0  0  0  0  0  0  0  0
  188.9790  177.8640  141.1570 C   0  0  0  0  0  0  0  0  0  0  0  0
  185.4310  177.1990  137.1540 C   0  0  0  0  0  0  0  0  0  0  0  0
  184.0600  177.6700  137.4790 C   0  0  0  0  0  1  0  0  0  0  0  0
  189.8860  176.7550  136.3160 N   0  0  0  0  0  0  0  0  0  0  0  0
  187.9050  177.2330  134.9770 C   0  0  0  0  0  2  0  0  0  0  0  0
  190.9300  177.0500  139.9070 C   0  0  0  0  0  2  0  0  0  0  0  0
  188.1820  177.8670  139.9700 N   0  0  0  0  0  2  0  0  0  0  0  0
  186.5710  177.8900  137.6840 N   0  0  0  0  0  2  0  0  0  0  0  0
  187.9590  177.5010  137.5510 C   0  0  0  0  0  0  0  0  0  0  0  0
  185.6060  176.3080  136.2320 C   0  0  0  0  0  0  0  0  0  0  0  0
  185.3750  174.2870  134.9090 C   0  0  0  0  0  1  0  0  0  0  0  0
  188.5810  177.1450  136.3170 C   0  0  0  0  0  0  0  0  0  0  0  0
  188.3770  178.2660  142.4620 C   0  0  1  0  0  3  0  0  0  0  0  0
  187.0050  177.7830  142.5590 N   0  0  0  0  0  2  0  0  0  0  0  0
  185.8820  178.5780  142.1780 C   0  0  0  0  0  0  0  0  0  0  0  0
  186.0380  179.7660  141.7890 O   0  0  0  0  0  0  0  0  0  0  0  0
  184.5150  177.9960  142.2430 C   0  0  0  0  0  1  0  0  0  0  0  0
  189.2090  177.7100  143.6080 C   0  0  0  0  0  2  0  0  0  0  0  0
  188.3650  176.9570  144.5260 N   0  0  0  0  0  2  0  0  0  0  0  0
  187.2470  177.6640  146.5410 C   0  0  0  0  0  0  0  0  0  0  0  0
  188.3930  178.2270  148.6560 C   0  0  0  0  0  3  0  0  0  0  0  0
  189.7170  178.1900  147.9610 C   0  0  0  0  0  2  0  0  0  0  0  0
  188.3510  177.1660  145.9440 C   0  0  0  0  0  0  0  0  0  0  0  0
  187.2610  178.0050  147.9840 C   0  0  0  0  0  3  0  0  0  0  0  0
  189.7930  176.6920  146.9340 S   0  0  0  0  0  0  0  0  0  0  0  0
  185.5520  179.3200  145.7990 C   0  0  0  0  0  2  0  0  0  0  0  0
  185.9720  177.8580  145.7620 C   0  0  0  0  0  3  0  0  0  0  0  0
  184.8330  178.3120  146.6640 C   0  0  0  0  0  2  0  0  0  0  0  0
  1  7  2  0  0  0  0
  2  3  1  0  0  0  0
  3  6  2  0  0  0  0
  3 12  1  0  0  0  0
  4 11  1  0  0  0  0
  4  5  1  0  0  0  0
  5 16  2  0  0  0  0
  6 13  1  0  0  0  0
  7 19  1  0  0  0  0
  8  9  1  0  0  0  0
  8 14  1  0  0  0  0
 10 18  1  0  0  0  0
 10  2  2  0  0  0  0
 11 18  1  0  0  0  0
 12  1  1  0  0  0  0
 13  7  1  0  0  0  0
 15 14  1  0  0  0  0
 15  6  1  0  0  0  0
 16  8  2  0  0  0  0
 17  5  1  0  0  0  0
 18 15  2  0  0  0  0
 19 20  1  0  0  0  0
 19 24  1  1  0  0  0
 21 23  1  0  0  0  0
 21 20  1  0  0  0  0
 22 21  2  0  0  0  0
 24 25  1  0  0  0  0
 25 29  1  0  0  0  0
 26 30  1  0  0  0  0
 28 27  1  0  0  0  0
 29 26  2  0  0  0  0
 29 31  1  0  0  0  0
 30 27  2  0  0  0  0
 31 28  1  0  0  0  0
 32 34  1  0  0  0  0
 33 32  1  0  0  0  0
 33 26  1  0  0  0  0
 33 34  1  0  0  0  0
M  END
>  <MODEL>
3

>  <REMARK>
 VINA RESULT:      -8.6      1.989      3.039
  Name = 
  6 active torsions:
  status: ('A' for Active; 'I' for Inactive)
    1  A    between atoms: N_1  and  C_3
    2  A    between atoms: C_3  and  C_17
    3  A    between atoms: C_3  and  C_32
    4  A    between atoms: N_4  and  C_24
    5  A    between atoms: N_4  and  C_32
    6  A    between atoms: C_5  and  C_9
                            x       y       z     vdW  Elec       q    Type
                         _______ _______ _______ _____ _____    ______ ____

>  <TORSDO>
F 6

$$$$
=
 OpenBabel11032421263D

 34 38  0  0  1  0  0  0  0  0999 V2000
  186.6560  178.7210  137.4990 N   0  0  0  0  0  0  0  0  0  0  0  0
  190.1810  177.7480  138.4320 C   0  0  0  0  0  3  0  0  0  0  0  0
  188.8180  178.0180  138.5050 C   0  0  0  0  0  0  0  0  0  0  0  0
  191.7400  177.5960  142.6140 N   0  0  0  0  0  2  0  0  0  0  0  0
  190.9920  178.3850  143.5410 C   0  0  0  0  0  0  0  0  0  0  0  0
  188.1530  177.8490  139.7240 C   0  0  0  0  0  0  0  0  0  0  0  0
  186.0410  178.5620  138.6340 C   0  0  0  0  0  0  0  0  0  0  0  0
  188.4840  177.8400  143.3840 C   0  0  0  0  0  0  0  0  0  0  0  0
  187.5480  177.7350  144.5330 C   0  0  0  0  0  1  0  0  0  0  0  0
  190.8490  177.3090  139.5290 N   0  0  0  0  0  0  0  0  0  0  0  0
  191.0850  176.5430  141.8310 C   0  0  0  0  0  2  0  0  0  0  0  0
  188.0890  178.4930  137.2800 C   0  0  0  0  0  2  0  0  0  0  0  0
  186.7580  178.1370  139.7960 N   0  0  0  0  0  2  0  0  0  0  0  0
  188.1070  177.3150  142.1030 N   0  0  0  0  0  2  0  0  0  0  0  0
  188.8520  177.4290  140.8680 C   0  0  0  0  0  0  0  0  0  0  0  0
  189.7090  178.2050  143.5810 C   0  0  0  0  0  0  0  0  0  0  0  0
  191.6460  179.4510  144.3440 C   0  0  0  0  0  1  0  0  0  0  0  0
  190.2410  177.1260  140.7320 C   0  0  0  0  0  0  0  0  0  0  0  0
  184.5800  178.8530  138.7230 C   0  0  1  0  0  3  0  0  0  0  0  0
  183.8050  177.6530  138.4310 N   0  0  0  0  0  2  0  0  0  0  0  0
  182.5950  177.6860  137.6740 C   0  0  0  0  0  0  0  0  0  0  0  0
  182.1180  178.7800  137.2720 O   0  0  0  0  0  0  0  0  0  0  0  0
  181.8910  176.4140  137.3600 C   0  0  0  0  0  1  0  0  0  0  0  0
  184.2390  179.3690  140.1120 C   0  0  0  0  0  2  0  0  0  0  0  0
  183.5230  178.3510  140.8690 N   0  0  0  0  0  2  0  0  0  0  0  0
  182.5750  178.6270  143.0670 C   0  0  0  0  0  0  0  0  0  0  0  0
  180.1570  178.5530  143.5690 C   0  0  0  0  0  3  0  0  0  0  0  0
  179.8740  178.0550  142.1870 C   0  0  0  0  0  2  0  0  0  0  0  0
  182.4110  178.6340  141.7270 C   0  0  0  0  0  0  0  0  0  0  0  0
  181.4080  178.7910  143.9680 C   0  0  0  0  0  3  0  0  0  0  0  0
  180.8070  179.0680  141.0020 S   0  0  0  0  0  0  0  0  0  0  0  0
  183.9450  179.0030  145.1030 C   0  0  0  0  0  2  0  0  0  0  0  0
  183.9460  178.4810  143.6740 C   0  0  0  0  0  3  0  0  0  0  0  0
  184.5560  179.8360  144.0020 C   0  0  0  0  0  2  0  0  0  0  0  0
  1  7  2  0  0  0  0
  2  3  2  0  0  0  0
  2 10  1  0  0  0  0
  3  6  1  0  0  0  0
  4  5  1  0  0  0  0
  5 16  2  0  0  0  0
  5 17  1  0  0  0  0
  6 13  1  0  0  0  0
  6 15  2  0  0  0  0
  7 19  1  0  0  0  0
  7 13  1  0  0  0  0
  8 16  2  0  0  0  0
  8  9  1  0  0  0  0
 10 18  2  0  0  0  0
 11  4  1  0  0  0  0
 12  1  1  0  0  0  0
 12  3  1  0  0  0  0
 14  8  1  0  0  0  0
 15 14  1  0  0  0  0
 18 15  1  0  0  0  0
 18 11  1  0  0  0  0
 19 24  1  1  0  0  0
 20 19  1  0  0  0  0
 21 20  1  0  0  0  0
 22 21  2  0  0  0  0
 23 21  1  0  0  0  0
 24 25  1  0  0  0  0
 25 29  1  0  0  0  0
 26 33  1  0  0  0  0
 26 30  1  0  0  0  0
 27 30  2  0  0  0  0
 28 27  1  0  0  0  0
 29 26  2  0  0  0  0
 31 29  1  0  0  0  0
 31 28  1  0  0  0  0
 33 34  1  0  0  0  0
 33 32  1  0  0  0  0
 34 32  1  0  0  0  0
M  END
>  <MODEL>
4

>  <REMARK>
 VINA RESULT:      -8.5      3.084      6.732
  Name = 
  6 active torsions:
  status: ('A' for Active; 'I' for Inactive)
    1  A    between atoms: N_1  and  C_3
    2  A    between atoms: C_3  and  C_17
    3  A    between atoms: C_3  and  C_32
    4  A    between atoms: N_4  and  C_24
    5  A    between atoms: N_4  and  C_32
    6  A    between atoms: C_5  and  C_9
                            x       y       z     vdW  Elec       q    Type
                         _______ _______ _______ _____ _____    ______ ____

>  <TORSDO>
F 6

$$$$
=
 OpenBabel11032421263D

 34 38  0  0  1  0  0  0  0  0999 V2000
  184.9540  178.6180  145.4100 N   0  0  0  0  0  0  0  0  0  0  0  0
  181.5400  179.2870  143.9450 C   0  0  0  0  0  3  0  0  0  0  0  0
  182.8870  178.9600  144.0700 C   0  0  0  0  0  0  0  0  0  0  0  0
  180.7540  180.0790  139.6210 N   0  0  0  0  0  2  0  0  0  0  0  0
  181.8980  180.5370  138.8970 C   0  0  0  0  0  0  0  0  0  0  0  0
  183.6130  178.6060  142.9290 C   0  0  0  0  0  0  0  0  0  0  0  0
  185.6250  178.2890  144.3450 C   0  0  0  0  0  0  0  0  0  0  0  0
  183.9050  178.9750  139.2840 C   0  0  0  0  0  0  0  0  0  0  0  0
  184.8890  178.5600  138.2510 C   0  0  0  0  0  1  0  0  0  0  0  0
  180.9380  179.2430  142.7290 N   0  0  0  0  0  0  0  0  0  0  0  0
  180.7870  178.7990  140.3370 C   0  0  0  0  0  2  0  0  0  0  0  0
  183.5380  179.0030  145.4240 C   0  0  0  0  0  2  0  0  0  0  0  0
  184.9960  178.2830  143.0620 N   0  0  0  0  0  2  0  0  0  0  0  0
  183.8220  178.2590  140.5240 N   0  0  0  0  0  2  0  0  0  0  0  0
  182.9980  178.5960  141.6650 C   0  0  0  0  0  0  0  0  0  0  0  0
  182.9840  179.8360  138.9900 C   0  0  0  0  0  0  0  0  0  0  0  0
  181.8750  181.8290  138.1640 C   0  0  0  0  0  1  0  0  0  0  0  0
  181.6050  178.8980  141.5940 C   0  0  0  0  0  0  0  0  0  0  0  0
  187.0710  177.9410  144.4700 C   0  0  1  0  0  3  0  0  0  0  0  0
  187.3230  177.2630  145.7360 N   0  0  0  0  0  2  0  0  0  0  0  0
  188.5030  177.4900  146.5070 C   0  0  0  0  0  0  0  0  0  0  0  0
  189.4090  178.2560  146.0860 O   0  0  0  0  0  0  0  0  0  0  0  0
  188.6620  176.8110  147.8210 C   0  0  0  0  0  1  0  0  0  0  0  0
  187.4910  177.0520  143.3090 C   0  0  0  0  0  2  0  0  0  0  0  0
  188.0410  177.8590  142.2280 N   0  0  0  0  0  2  0  0  0  0  0  0
  189.8010  177.6160  140.6010 C   0  0  0  0  0  0  0  0  0  0  0  0
  192.1790  177.2370  141.1540 C   0  0  0  0  0  3  0  0  0  0  0  0
  191.8190  176.9960  142.5850 C   0  0  0  0  0  2  0  0  0  0  0  0
  189.4290  177.8710  141.8730 C   0  0  0  0  0  0  0  0  0  0  0  0
  191.2370  177.4990  140.2450 C   0  0  0  0  0  3  0  0  0  0  0  0
  190.6710  178.2990  143.1220 S   0  0  0  0  0  0  0  0  0  0  0  0
  189.4530  177.3050  138.1620 C   0  0  0  0  0  2  0  0  0  0  0  0
  188.7700  177.4730  139.5110 C   0  0  0  0  0  3  0  0  0  0  0  0
  188.8360  178.6330  138.5280 C   0  0  0  0  0  2  0  0  0  0  0  0
  1 12  1  0  0  0  0
  2  3  1  0  0  0  0
  3 12  1  0  0  0  0
  4 11  1  0  0  0  0
  5 16  2  0  0  0  0
  5  4  1  0  0  0  0
  6 13  1  0  0  0  0
  6  3  2  0  0  0  0
  7 19  1  0  0  0  0
  7  1  2  0  0  0  0
  8 14  1  0  0  0  0
  9  8  1  0  0  0  0
 10  2  2  0  0  0  0
 11 18  1  0  0  0  0
 13  7  1  0  0  0  0
 14 15  1  0  0  0  0
 15  6  1  0  0  0  0
 16  8  2  0  0  0  0
 17  5  1  0  0  0  0
 18 15  2  0  0  0  0
 18 10  1  0  0  0  0
 19 24  1  6  0  0  0
 19 20  1  0  0  0  0
 20 21  1  0  0  0  0
 21 23  1  0  0  0  0
 22 21  2  0  0  0  0
 25 24  1  0  0  0  0
 26 29  2  0  0  0  0
 27 28  1  0  0  0  0
 28 31  1  0  0  0  0
 29 25  1  0  0  0  0
 29 31  1  0  0  0  0
 30 26  1  0  0  0  0
 30 27  2  0  0  0  0
 32 34  1  0  0  0  0
 32 33  1  0  0  0  0
 33 26  1  0  0  0  0
 34 33  1  0  0  0  0
M  END
>  <MODEL>
5

>  <REMARK>
 VINA RESULT:      -8.1      2.820      6.763
  Name = 
  6 active torsions:
  status: ('A' for Active; 'I' for Inactive)
    1  A    between atoms: N_1  and  C_3
    2  A    between atoms: C_3  and  C_17
    3  A    between atoms: C_3  and  C_32
    4  A    between atoms: N_4  and  C_24
    5  A    between atoms: N_4  and  C_32
    6  A    between atoms: C_5  and  C_9
                            x       y       z     vdW  Elec       q    Type
                         _______ _______ _______ _____ _____    ______ ____

>  <TORSDO>
F 6

$$$$
=
 OpenBabel11032421263D

 34 38  0  0  1  0  0  0  0  0999 V2000
  186.1090  177.2210  137.5920 N   0  0  0  0  0  0  0  0  0  0  0  0
  188.3250  174.8140  135.7090 C   0  0  0  0  0  3  0  0  0  0  0  0
  187.8630  175.7340  136.6460 C   0  0  0  0  0  0  0  0  0  0  0  0
  192.7750  174.6750  136.0560 N   0  0  0  0  0  2  0  0  0  0  0  0
  193.3580  175.8860  136.5440 C   0  0  0  0  0  0  0  0  0  0  0  0
  188.7140  176.1430  137.6780 C   0  0  0  0  0  0  0  0  0  0  0  0
  186.9030  177.5990  138.5500 C   0  0  0  0  0  0  0  0  0  0  0  0
  192.2040  176.6400  138.7150 C   0  0  0  0  0  0  0  0  0  0  0  0
  192.8860  177.2260  139.8980 C   0  0  0  0  0  1  0  0  0  0  0  0
  189.5810  174.3110  135.8100 N   0  0  0  0  0  0  0  0  0  0  0  0
  191.7630  173.9650  136.8430 C   0  0  0  0  0  2  0  0  0  0  0  0
  186.4670  176.2760  136.5270 C   0  0  0  0  0  2  0  0  0  0  0  0
  188.2380  177.0940  138.6290 N   0  0  0  0  0  2  0  0  0  0  0  0
  190.8620  176.1480  138.8320 N   0  0  0  0  0  2  0  0  0  0  0  0
  190.0260  175.6490  137.7620 C   0  0  0  0  0  0  0  0  0  0  0  0
  192.8810  176.3770  137.6440 C   0  0  0  0  0  0  0  0  0  0  0  0
  194.3890  176.6120  135.7580 C   0  0  0  0  0  1  0  0  0  0  0  0
  190.4400  174.6770  136.8010 C   0  0  0  0  0  0  0  0  0  0  0  0
  186.4170  178.5870  139.5570 C   0  0  1  0  0  3  0  0  0  0  0  0
  184.9980  178.3860  139.8230 N   0  0  0  0  0  2  0  0  0  0  0  0
  184.0130  179.3780  139.5310 C   0  0  0  0  0  0  0  0  0  0  0  0
  184.3500  180.5030  139.0760 O   0  0  0  0  0  0  0  0  0  0  0  0
  182.5760  179.0780  139.7680 C   0  0  0  0  0  1  0  0  0  0  0  0
  187.2140  178.4480  140.8450 C   0  0  0  0  0  2  0  0  0  0  0  0
  186.3180  178.4170  141.9930 N   0  0  0  0  0  2  0  0  0  0  0  0
  186.1000  178.4080  144.3930 C   0  0  0  0  0  0  0  0  0  0  0  0
  187.7890  177.5000  145.9500 C   0  0  0  0  0  3  0  0  0  0  0  0
  188.7690  177.3690  144.8280 C   0  0  0  0  0  2  0  0  0  0  0  0
  186.6980  177.9240  143.2840 C   0  0  0  0  0  0  0  0  0  0  0  0
  186.5700  178.0010  145.7400 C   0  0  0  0  0  3  0  0  0  0  0  0
  187.9300  176.6010  143.4110 S   0  0  0  0  0  0  0  0  0  0  0  0
  183.8820  179.0020  145.3380 C   0  0  0  0  0  2  0  0  0  0  0  0
  184.9260  179.3480  144.2870 C   0  0  0  0  0  3  0  0  0  0  0  0
  183.6540  178.6080  143.8980 C   0  0  0  0  0  2  0  0  0  0  0  0
  1  7  2  0  0  0  0
  2 10  2  0  0  0  0
  2  3  1  0  0  0  0
  3  6  2  0  0  0  0
  4  5  1  0  0  0  0
  4 11  1  0  0  0  0
  5 16  2  0  0  0  0
  6 15  1  0  0  0  0
  6 13  1  0  0  0  0
  7 13  1  0  0  0  0
  7 19  1  0  0  0  0
  8 14  1  0  0  0  0
  8  9  1  0  0  0  0
 10 18  1  0  0  0  0
 12  3  1  0  0  0  0
 12  1  1  0  0  0  0
 15 14  1  0  0  0  0
 16  8  2  0  0  0  0
 17  5  1  0  0  0  0
 18 11  1  0  0  0  0
 18 15  2  0  0  0  0
 19 20  1  0  0  0  0
 19 24  1  1  0  0  0
 21 23  1  0  0  0  0
 21 20  1  0  0  0  0
 22 21  2  0  0  0  0
 24 25  1  0  0  0  0
 25 29  1  0  0  0  0
 26 30  1  0  0  0  0
 28 27  1  0  0  0  0
 29 31  1  0  0  0  0
 29 26  2  0  0  0  0
 30 27  2  0  0  0  0
 31 28  1  0  0  0  0
 33 26  1  0  0  0  0
 33 32  1  0  0  0  0
 34 33  1  0  0  0  0
 34 32  1  0  0  0  0
M  END
>  <MODEL>
6

>  <REMARK>
 VINA RESULT:      -8.1      2.761      5.715
  Name = 
  6 active torsions:
  status: ('A' for Active; 'I' for Inactive)
    1  A    between atoms: N_1  and  C_3
    2  A    between atoms: C_3  and  C_17
    3  A    between atoms: C_3  and  C_32
    4  A    between atoms: N_4  and  C_24
    5  A    between atoms: N_4  and  C_32
    6  A    between atoms: C_5  and  C_9
                            x       y       z     vdW  Elec       q    Type
                         _______ _______ _______ _____ _____    ______ ____

>  <TORSDO>
F 6

$$$$
=
 OpenBabel11032421263D

 34 38  0  0  1  0  0  0  0  0999 V2000
  188.1930  178.5940  141.5090 N   0  0  0  0  0  0  0  0  0  0  0  0
  189.2300  178.2800  137.8930 C   0  0  0  0  0  3  0  0  0  0  0  0
  188.4570  178.3480  139.0490 C   0  0  0  0  0  0  0  0  0  0  0  0
  186.6510  176.5920  134.6610 N   0  0  0  0  0  2  0  0  0  0  0  0
  185.6040  175.7440  135.1370 C   0  0  0  0  0  0  0  0  0  0  0  0
  187.0660  178.2470  138.9470 C   0  0  0  0  0  0  0  0  0  0  0  0
  186.8990  178.5010  141.4100 C   0  0  0  0  0  0  0  0  0  0  0  0
  184.2560  176.9150  136.9880 C   0  0  0  0  0  0  0  0  0  0  0  0
  182.7820  176.8480  137.1590 C   0  0  0  0  0  1  0  0  0  0  0  0
  188.6340  178.1340  136.6830 N   0  0  0  0  0  0  0  0  0  0  0  0
  186.7610  177.9770  135.1300 C   0  0  0  0  0  2  0  0  0  0  0  0
  189.1300  178.5200  140.3820 C   0  0  0  0  0  2  0  0  0  0  0  0
  186.2800  178.3080  140.1360 N   0  0  0  0  0  2  0  0  0  0  0  0
  185.0110  177.9240  137.6740 N   0  0  0  0  0  2  0  0  0  0  0  0
  186.4520  178.0610  137.6970 C   0  0  0  0  0  0  0  0  0  0  0  0
  184.8330  176.2120  136.0670 C   0  0  0  0  0  0  0  0  0  0  0  0
  185.4790  174.3410  134.6650 C   0  0  0  0  0  1  0  0  0  0  0  0
  187.2840  178.0370  136.5380 C   0  0  0  0  0  0  0  0  0  0  0  0
  186.0630  178.5700  142.6450 C   0  0  1  0  0  3  0  0  0  0  0  0
  184.6510  178.4340  142.3090 N   0  0  0  0  0  2  0  0  0  0  0  0
  183.6150  179.0190  143.0990 C   0  0  0  0  0  0  0  0  0  0  0  0
  183.8880  179.6360  144.1620 O   0  0  0  0  0  0  0  0  0  0  0  0
  182.1990  178.8940  142.6610 C   0  0  0  0  0  1  0  0  0  0  0  0
  186.4780  177.4710  143.6110 C   0  0  0  0  0  2  0  0  0  0  0  0
  187.3710  178.0050  144.6310 N   0  0  0  0  0  2  0  0  0  0  0  0
  189.0780  177.5210  146.2610 C   0  0  0  0  0  0  0  0  0  0  0  0
  191.3630  176.7580  145.7140 C   0  0  0  0  0  3  0  0  0  0  0  0
  191.1260  177.0530  144.2670 C   0  0  0  0  0  2  0  0  0  0  0  0
  188.6110  177.3890  145.0020 C   0  0  0  0  0  0  0  0  0  0  0  0
  190.4180  177.0000  146.6260 C   0  0  0  0  0  3  0  0  0  0  0  0
  189.5070  176.3780  143.7940 S   0  0  0  0  0  0  0  0  0  0  0  0
  189.0150  178.2440  148.6360 C   0  0  0  0  0  2  0  0  0  0  0  0
  188.2390  178.1750  147.3290 C   0  0  0  0  0  3  0  0  0  0  0  0
  187.9300  177.2080  148.4630 C   0  0  0  0  0  2  0  0  0  0  0  0
  2  3  1  0  0  0  0
  3 12  1  0  0  0  0
  4 11  1  0  0  0  0
  4  5  1  0  0  0  0
  5 16  2  0  0  0  0
  6  3  2  0  0  0  0
  6 13  1  0  0  0  0
  7  1  2  0  0  0  0
  7 19  1  0  0  0  0
  8  9  1  0  0  0  0
  8 14  1  0  0  0  0
 10  2  2  0  0  0  0
 11 18  1  0  0  0  0
 12  1  1  0  0  0  0
 13  7  1  0  0  0  0
 14 15  1  0  0  0  0
 15  6  1  0  0  0  0
 16  8  2  0  0  0  0
 17  5  1  0  0  0  0
 18 10  1  0  0  0  0
 18 15  2  0  0  0  0
 19 24  1  1  0  0  0
 20 19  1  0  0  0  0
 20 21  1  0  0  0  0
 21 22  2  0  0  0  0
 23 21  1  0  0  0  0
 24 25  1  0  0  0  0
 25 29  1  0  0  0  0
 26 30  1  0  0  0  0
 26 33  1  0  0  0  0
 27 30  2  0  0  0  0
 28 27  1  0  0  0  0
 29 26  2  0  0  0  0
 31 28  1  0  0  0  0
 31 29  1  0  0  0  0
 33 34  1  0  0  0  0
 33 32  1  0  0  0  0
 34 32  1  0  0  0  0
M  END
>  <MODEL>
7

>  <REMARK>
 VINA RESULT:      -8.0      2.397      3.828
  Name = 
  6 active torsions:
  status: ('A' for Active; 'I' for Inactive)
    1  A    between atoms: N_1  and  C_3
    2  A    between atoms: C_3  and  C_17
    3  A    between atoms: C_3  and  C_32
    4  A    between atoms: N_4  and  C_24
    5  A    between atoms: N_4  and  C_32
    6  A    between atoms: C_5  and  C_9
                            x       y       z     vdW  Elec       q    Type
                         _______ _______ _______ _____ _____    ______ ____

>  <TORSDO>
F 6

$$$$
=
 OpenBabel11032421263D

 34 38  0  0  1  0  0  0  0  0999 V2000
  184.7410  178.6940  145.2430 N   0  0  0  0  0  0  0  0  0  0  0  0
  181.3040  179.1850  143.7630 C   0  0  0  0  0  3  0  0  0  0  0  0
  182.6660  178.9320  143.8940 C   0  0  0  0  0  0  0  0  0  0  0  0
  180.5010  179.9660  139.4400 N   0  0  0  0  0  2  0  0  0  0  0  0
  181.6230  180.4920  138.7270 C   0  0  0  0  0  0  0  0  0  0  0  0
  183.4170  178.6270  142.7550 C   0  0  0  0  0  0  0  0  0  0  0  0
  185.4360  178.4090  144.1810 C   0  0  0  0  0  0  0  0  0  0  0  0
  183.7090  179.0390  139.1140 C   0  0  0  0  0  0  0  0  0  0  0  0
  184.7210  178.6860  138.0840 C   0  0  0  0  0  1  0  0  0  0  0  0
  180.7130  179.1180  142.5430 N   0  0  0  0  0  0  0  0  0  0  0  0
  180.6000  178.6860  140.1470 C   0  0  0  0  0  2  0  0  0  0  0  0
  183.3060  179.0000  145.2520 C   0  0  0  0  0  2  0  0  0  0  0  0
  184.8150  178.3790  142.8940 N   0  0  0  0  0  2  0  0  0  0  0  0
  183.6590  178.3100  140.3480 N   0  0  0  0  0  2  0  0  0  0  0  0
  182.8120  178.5930  141.4870 C   0  0  0  0  0  0  0  0  0  0  0  0
  182.7450  179.8510  138.8210 C   0  0  0  0  0  0  0  0  0  0  0  0
  181.5330  181.7860  138.0030 C   0  0  0  0  0  1  0  0  0  0  0  0
  181.4050  178.8200  141.4090 C   0  0  0  0  0  0  0  0  0  0  0  0
  186.8980  178.1400  144.3120 C   0  0  1  0  0  3  0  0  0  0  0  0
  187.1700  177.3990  145.5370 N   0  0  0  0  0  2  0  0  0  0  0  0
  188.3980  177.5240  146.2540 C   0  0  0  0  0  0  0  0  0  0  0  0
  189.3280  178.2510  145.8140 O   0  0  0  0  0  0  0  0  0  0  0  0
  188.5810  176.7850  147.5320 C   0  0  0  0  0  1  0  0  0  0  0  0
  187.3890  177.3540  143.1060 C   0  0  0  0  0  2  0  0  0  0  0  0
  188.0470  178.2420  142.1570 N   0  0  0  0  0  2  0  0  0  0  0  0
  190.1800  177.4990  141.3160 C   0  0  0  0  0  0  0  0  0  0  0  0
  190.8100  177.4660  138.9270 C   0  0  0  0  0  3  0  0  0  0  0  0
  189.5840  178.2510  138.5830 C   0  0  0  0  0  2  0  0  0  0  0  0
  188.8800  177.7820  141.0860 C   0  0  0  0  0  0  0  0  0  0  0  0
  191.0840  177.1460  140.1940 C   0  0  0  0  0  3  0  0  0  0  0  0
  188.1620  177.5160  139.4430 S   0  0  0  0  0  0  0  0  0  0  0  0
  192.0570  176.7610  142.7640 C   0  0  0  0  0  2  0  0  0  0  0  0
  190.7330  177.5090  142.7180 C   0  0  0  0  0  3  0  0  0  0  0  0
  190.8060  176.1030  143.2970 C   0  0  0  0  0  2  0  0  0  0  0  0
  1 12  1  0  0  0  0
  2  3  1  0  0  0  0
  3 12  1  0  0  0  0
  4 11  1  0  0  0  0
  5 16  2  0  0  0  0
  5  4  1  0  0  0  0
  6 13  1  0  0  0  0
  6  3  2  0  0  0  0
  7 19  1  0  0  0  0
  7  1  2  0  0  0  0
  8 14  1  0  0  0  0
  9  8  1  0  0  0  0
 10  2  2  0  0  0  0
 11 18  1  0  0  0  0
 13  7  1  0  0  0  0
 14 15  1  0  0  0  0
 15  6  1  0  0  0  0
 16  8  2  0  0  0  0
 17  5  1  0  0  0  0
 18 15  2  0  0  0  0
 18 10  1  0  0  0  0
 19 24  1  6  0  0  0
 19 20  1  0  0  0  0
 20 21  1  0  0  0  0
 21 23  1  0  0  0  0
 22 21  2  0  0  0  0
 25 24  1  0  0  0  0
 26 33  1  0  0  0  0
 27 30  2  0  0  0  0
 28 27  1  0  0  0  0
 28 31  1  0  0  0  0
 29 26  2  0  0  0  0
 29 25  1  0  0  0  0
 30 26  1  0  0  0  0
 31 29  1  0  0  0  0
 32 34  1  0  0  0  0
 33 32  1  0  0  0  0
 33 34  1  0  0  0  0
M  END
>  <MODEL>
8

>  <REMARK>
 VINA RESULT:      -7.8      2.904      6.492
  Name = 
  6 active torsions:
  status: ('A' for Active; 'I' for Inactive)
    1  A    between atoms: N_1  and  C_3
    2  A    between atoms: C_3  and  C_17
    3  A    between atoms: C_3  and  C_32
    4  A    between atoms: N_4  and  C_24
    5  A    between atoms: N_4  and  C_32
    6  A    between atoms: C_5  and  C_9
                            x       y       z     vdW  Elec       q    Type
                         _______ _______ _______ _____ _____    ______ ____

>  <TORSDO>
F 6

$$$$
=
 OpenBabel11032421263D

 34 38  0  0  1  0  0  0  0  0999 V2000
  184.9680  178.7360  144.0110 N   0  0  0  0  0  0  0  0  0  0  0  0
  181.3180  179.3620  143.2830 C   0  0  0  0  0  3  0  0  0  0  0  0
  182.6540  179.0020  143.1400 C   0  0  0  0  0  0  0  0  0  0  0  0
  179.5780  179.6920  139.1840 N   0  0  0  0  0  2  0  0  0  0  0  0
  180.5320  180.0230  138.1730 C   0  0  0  0  0  0  0  0  0  0  0  0
  183.0980  178.4950  141.9150 C   0  0  0  0  0  0  0  0  0  0  0  0
  185.3760  178.2640  142.8700 C   0  0  0  0  0  0  0  0  0  0  0  0
  182.5570  178.4410  138.2800 C   0  0  0  0  0  0  0  0  0  0  0  0
  183.2760  177.8760  137.1090 C   0  0  0  0  0  1  0  0  0  0  0  0
  180.4550  179.2050  142.2480 N   0  0  0  0  0  0  0  0  0  0  0  0
  179.7590  178.5010  140.0200 C   0  0  0  0  0  2  0  0  0  0  0  0
  183.5970  179.1720  144.2990 C   0  0  0  0  0  2  0  0  0  0  0  0
  184.4710  178.1380  141.7710 N   0  0  0  0  0  2  0  0  0  0  0  0
  182.7510  177.8720  139.5820 N   0  0  0  0  0  2  0  0  0  0  0  0
  182.2120  178.3660  140.8320 C   0  0  0  0  0  0  0  0  0  0  0  0
  181.6030  179.2970  138.1010 C   0  0  0  0  0  0  0  0  0  0  0  0
  180.3570  181.2250  137.3160 C   0  0  0  0  0  1  0  0  0  0  0  0
  180.8430  178.7100  141.0400 C   0  0  0  0  0  0  0  0  0  0  0  0
  186.8090  177.8780  142.7070 C   0  0  1  0  0  3  0  0  0  0  0  0
  187.3620  178.4790  141.4990 N   0  0  0  0  0  2  0  0  0  0  0  0
  188.4460  177.8940  140.7770 C   0  0  0  0  0  0  0  0  0  0  0  0
  189.0080  176.8490  141.1980 O   0  0  0  0  0  0  0  0  0  0  0  0
  188.9160  178.5280  139.5170 C   0  0  0  0  0  1  0  0  0  0  0  0
  187.6060  178.3240  143.9230 C   0  0  0  0  0  2  0  0  0  0  0  0
  187.7910  177.2100  144.8430 N   0  0  0  0  0  2  0  0  0  0  0  0
  189.2120  176.8040  146.7460 C   0  0  0  0  0  0  0  0  0  0  0  0
  191.6810  176.7590  146.6680 C   0  0  0  0  0  3  0  0  0  0  0  0
  191.6570  177.3030  145.2750 C   0  0  0  0  0  2  0  0  0  0  0  0
  189.0580  176.8470  145.4060 C   0  0  0  0  0  0  0  0  0  0  0  0
  190.5470  176.5550  147.3430 C   0  0  0  0  0  3  0  0  0  0  0  0
  190.4240  176.3790  144.3110 S   0  0  0  0  0  0  0  0  0  0  0  0
  187.5880  178.4360  147.6770 C   0  0  0  0  0  2  0  0  0  0  0  0
  188.0290  176.9800  147.6640 C   0  0  0  0  0  3  0  0  0  0  0  0
  188.3690  177.8790  148.8430 C   0  0  0  0  0  2  0  0  0  0  0  0
  1 12  1  0  0  0  0
  3  2  1  0  0  0  0
  3 12  1  0  0  0  0
  4 11  1  0  0  0  0
  5  4  1  0  0  0  0
  6  3  2  0  0  0  0
  7  1  2  0  0  0  0
  8 14  1  0  0  0  0
  9  8  1  0  0  0  0
 10  2  2  0  0  0  0
 11 18  1  0  0  0  0
 13  6  1  0  0  0  0
 13  7  1  0  0  0  0
 14 15  1  0  0  0  0
 15 18  2  0  0  0  0
 15  6  1  0  0  0  0
 16  5  2  0  0  0  0
 16  8  2  0  0  0  0
 17  5  1  0  0  0  0
 18 10  1  0  0  0  0
 19  7  1  0  0  0  0
 19 24  1  1  0  0  0
 20 19  1  0  0  0  0
 21 22  2  0  0  0  0
 21 20  1  0  0  0  0
 23 21  1  0  0  0  0
 24 25  1  0  0  0  0
 25 29  1  0  0  0  0
 26 30  1  0  0  0  0
 26 33  1  0  0  0  0
 27 30  2  0  0  0  0
 28 27  1  0  0  0  0
 29 26  2  0  0  0  0
 31 28  1  0  0  0  0
 31 29  1  0  0  0  0
 32 34  1  0  0  0  0
 33 32  1  0  0  0  0
 33 34  1  0  0  0  0
M  END
>  <MODEL>
9

>  <REMARK>
 VINA RESULT:      -7.7      3.258      5.907
  Name = 
  6 active torsions:
  status: ('A' for Active; 'I' for Inactive)
    1  A    between atoms: N_1  and  C_3
    2  A    between atoms: C_3  and  C_17
    3  A    between atoms: C_3  and  C_32
    4  A    between atoms: N_4  and  C_24
    5  A    between atoms: N_4  and  C_32
    6  A    between atoms: C_5  and  C_9
                            x       y       z     vdW  Elec       q    Type
                         _______ _______ _______ _____ _____    ______ ____

>  <TORSDO>
F 6

$$$$
