=
 OpenBabel11032421263D

 34 39  0  0  1  0  0  0  0  0999 V2000
  187.4530  178.2420  141.8380 N   0  0  0  0  0  0  0  0  0  0  0  0
  189.0720  177.9720  139.9710 C   0  0  0  0  0  0  0  0  0  0  0  0
  190.6740  177.0470  141.1300 N   0  0  0  0  0  2  0  0  0  0  0  0
  187.2730  178.0210  143.1810 C   0  0  0  0  0  0  0  0  0  0  0  0
  188.6270  177.8830  141.2660 C   0  0  0  0  0  0  0  0  0  0  0  0
  189.5250  177.0550  143.3200 C   0  0  0  0  0  0  0  0  0  0  0  0
  190.3220  177.4570  139.9120 N   0  0  0  0  0  0  0  0  0  0  0  0
  188.3130  177.4160  143.9370 C   0  0  0  0  0  3  0  0  0  0  0  0
  189.6420  177.3050  141.9570 C   0  0  0  0  0  0  0  0  0  0  0  0
  183.6390  179.2230  143.7910 C   0  0  2  0  0  3  0  0  0  0  0  0
  184.6680  178.8010  141.7500 N   0  0  0  0  0  0  0  0  0  0  0  0
  182.6680  178.1570  140.4980 C   0  0  0  0  0  3  0  0  0  0  0  0
  184.9750  179.2670  143.1050 C   0  0  2  0  0  3  0  0  0  0  0  0
  183.5250  179.0010  145.2340 C   0  0  0  0  0  3  0  0  0  0  0  0
  185.9930  178.3980  143.8250 C   0  0  0  0  0  0  0  0  0  0  0  0
  185.8120  178.1090  145.1300 C   0  0  0  0  0  3  0  0  0  0  0  0
  183.3840  178.7000  141.6510 C   0  0  0  0  0  0  0  0  0  0  0  0
  180.5230  178.1350  141.8360 C   0  0  0  0  0  2  0  0  0  0  0  0
  184.5810  178.4840  145.8690 C   0  0  0  0  0  3  0  0  0  0  0  0
  181.3010  178.5850  143.0500 C   0  0  0  0  0  0  0  0  0  0  0  0
  182.7110  178.9500  142.8910 C   0  0  1  0  0  3  0  0  0  0  0  0
  180.7300  178.6690  144.1680 O   0  0  0  0  0  0  0  0  0  0  0  0
  181.3540  177.8940  140.5810 C   0  0  0  0  0  0  0  0  0  0  0  0
  180.1520  176.9460  138.4890 N   0  0  0  0  0  0  0  0  0  0  0  0
  180.6900  177.3690  139.4230 C   0  0  0  0  0  0  0  0  0  0  0  0
  190.6140  176.4000  144.0980 C   0  0  0  0  0  2  0  0  0  0  0  0
  191.2270  177.3900  145.0720 C   0  0  0  0  0  2  0  0  0  0  0  0
  192.2060  176.3560  146.9510 O   0  0  0  0  0  0  0  0  0  0  0  0
  189.9270  176.8500  147.2340 C   0  0  0  0  0  1  0  0  0  0  0  0
  191.1990  176.8380  146.4580 C   0  0  0  0  0  0  0  0  0  0  0  0
  188.3730  178.5000  138.8410 N   0  0  0  0  0  2  0  0  0  0  0  0
  186.1450  178.1800  137.9560 C   0  0  0  0  0  2  0  0  0  0  0  0
  187.0650  178.5160  136.8020 C   0  0  0  0  0  2  0  0  0  0  0  0
  187.5710  177.6730  137.9550 C   0  0  0  0  0  3  0  0  0  0  0  0
  1  4  1  0  0  0  0
  2  5  1  0  0  0  0
  3  9  1  0  0  0  0
  4 15  1  0  0  0  0
  4  8  2  0  0  0  0
  5  1  2  0  0  0  0
  5  9  1  0  0  0  0
  6  8  1  0  0  0  0
  6 26  1  0  0  0  0
  7  2  2  0  0  0  0
  7  3  1  0  0  0  0
  9  6  2  0  0  0  0
 10 14  1  1  0  0  0
 12 23  2  0  0  0  0
 12 17  1  0  0  0  0
 13 11  1  6  0  0  0
 13 10  1  0  0  0  0
 13 15  1  0  0  0  0
 14 19  2  0  0  0  0
 15 16  2  0  0  0  0
 16 19  1  0  0  0  0
 17 11  2  0  0  0  0
 18 20  1  0  0  0  0
 20 22  2  0  0  0  0
 21 17  1  1  0  0  0
 21 20  1  0  0  0  0
 21 10  1  0  0  0  0
 23 18  1  0  0  0  0
 24 25  3  0  0  0  0
 25 23  1  0  0  0  0
 26 27  1  0  0  0  0
 27 30  1  0  0  0  0
 30 28  2  0  0  0  0
 30 29  1  0  0  0  0
 31  2  1  0  0  0  0
 33 34  1  0  0  0  0
 33 32  1  0  0  0  0
 34 32  1  0  0  0  0
 34 31  1  0  0  0  0
M  END
>  <MODEL>
1

>  <REMARK>
 VINA RESULT:      -9.7      0.000      0.000
  Name = 
  7 active torsions:
  status: ('A' for Active; 'I' for Inactive)
    1  A    between atoms: C_7  and  N_27
    2  A    between atoms: C_8  and  C_20
    3  A    between atoms: C_12  and  C_16
    4  A    between atoms: C_12  and  C_26
    5  A    between atoms: C_16  and  C_33
    6  A    between atoms: C_19  and  C_34
    7  A    between atoms: C_24  and  N_27
                            x       y       z     vdW  Elec       q    Type
                         _______ _______ _______ _____ _____    ______ ____

>  <TORSDO>
F 7

$$$$
=
 OpenBabel11032421263D

 34 39  0  0  1  0  0  0  0  0999 V2000
  186.5410  178.4240  141.3880 N   0  0  0  0  0  0  0  0  0  0  0  0
  188.6940  178.2410  140.1610 C   0  0  0  0  0  0  0  0  0  0  0  0
  189.8840  177.4470  141.8110 N   0  0  0  0  0  2  0  0  0  0  0  0
  185.9460  178.2100  142.6070 C   0  0  0  0  0  0  0  0  0  0  0  0
  187.8570  178.1390  141.2430 C   0  0  0  0  0  0  0  0  0  0  0  0
  188.0840  177.4060  143.5060 C   0  0  0  0  0  0  0  0  0  0  0  0
  189.9240  177.8130  140.5300 N   0  0  0  0  0  0  0  0  0  0  0  0
  186.7160  177.6910  143.6820 C   0  0  0  0  0  3  0  0  0  0  0  0
  188.6240  177.6440  142.2470 C   0  0  0  0  0  0  0  0  0  0  0  0
  182.1580  178.7260  141.9720 C   0  0  2  0  0  3  0  0  0  0  0  0
  183.7290  177.8270  140.5140 N   0  0  0  0  0  0  0  0  0  0  0  0
  182.2240  176.3520  139.2740 C   0  0  0  0  0  3  0  0  0  0  0  0
  183.6090  178.8090  141.5950 C   0  0  2  0  0  3  0  0  0  0  0  0
  181.6990  179.0250  143.3300 C   0  0  0  0  0  3  0  0  0  0  0  0
  184.5050  178.5060  142.7860 C   0  0  0  0  0  0  0  0  0  0  0  0
  184.0270  178.6790  144.0360 C   0  0  0  0  0  3  0  0  0  0  0  0
  182.5390  177.4190  140.2220 C   0  0  0  0  0  0  0  0  0  0  0  0
  179.8240  176.3490  140.0690 C   0  0  0  0  0  2  0  0  0  0  0  0
  182.6080  179.0180  144.3080 C   0  0  0  0  0  3  0  0  0  0  0  0
  180.1940  177.3690  141.1210 C   0  0  0  0  0  0  0  0  0  0  0  0
  181.5390  177.9490  141.1000 C   0  0  1  0  0  3  0  0  0  0  0  0
  179.3440  177.7260  141.9780 O   0  0  0  0  0  0  0  0  0  0  0  0
  180.9780  175.8560  139.2040 C   0  0  0  0  0  0  0  0  0  0  0  0
  180.4950  173.9740  137.4880 N   0  0  0  0  0  0  0  0  0  0  0  0
  180.7110  174.8150  138.2540 C   0  0  0  0  0  0  0  0  0  0  0  0
  188.8960  176.8400  144.6200 C   0  0  0  0  0  2  0  0  0  0  0  0
  189.1480  177.9030  145.6740 C   0  0  0  0  0  2  0  0  0  0  0  0
  190.2060  176.5570  147.2940 O   0  0  0  0  0  0  0  0  0  0  0  0
  188.1920  177.5090  148.0370 C   0  0  0  0  0  1  0  0  0  0  0  0
  189.2580  177.2770  147.0240 C   0  0  0  0  0  0  0  0  0  0  0  0
  188.3730  178.7020  138.8470 N   0  0  0  0  0  2  0  0  0  0  0  0
  186.3200  178.1890  137.6740 C   0  0  0  0  0  2  0  0  0  0  0  0
  187.3280  178.6880  136.6620 C   0  0  0  0  0  2  0  0  0  0  0  0
  187.7850  177.8430  137.8330 C   0  0  0  0  0  3  0  0  0  0  0  0
  1  4  1  0  0  0  0
  2  7  2  0  0  0  0
  2  5  1  0  0  0  0
  3  9  1  0  0  0  0
  4 15  1  0  0  0  0
  4  8  2  0  0  0  0
  5  1  2  0  0  0  0
  5  9  1  0  0  0  0
  6  8  1  0  0  0  0
  6 26  1  0  0  0  0
  7  3  1  0  0  0  0
  9  6  2  0  0  0  0
 10 14  1  1  0  0  0
 12 17  1  0  0  0  0
 13 11  1  6  0  0  0
 13 10  1  0  0  0  0
 13 15  1  0  0  0  0
 14 19  2  0  0  0  0
 15 16  2  0  0  0  0
 16 19  1  0  0  0  0
 17 11  2  0  0  0  0
 18 20  1  0  0  0  0
 20 22  2  0  0  0  0
 21 17  1  1  0  0  0
 21 20  1  0  0  0  0
 21 10  1  0  0  0  0
 23 12  2  0  0  0  0
 23 18  1  0  0  0  0
 24 25  3  0  0  0  0
 25 23  1  0  0  0  0
 26 27  1  0  0  0  0
 27 30  1  0  0  0  0
 30 28  2  0  0  0  0
 30 29  1  0  0  0  0
 31  2  1  0  0  0  0
 32 34  1  0  0  0  0
 33 32  1  0  0  0  0
 33 34  1  0  0  0  0
 34 31  1  0  0  0  0
M  END
>  <MODEL>
2

>  <REMARK>
 VINA RESULT:      -9.3      1.385      1.942
  Name = 
  7 active torsions:
  status: ('A' for Active; 'I' for Inactive)
    1  A    between atoms: C_7  and  N_27
    2  A    between atoms: C_8  and  C_20
    3  A    between atoms: C_12  and  C_16
    4  A    between atoms: C_12  and  C_26
    5  A    between atoms: C_16  and  C_33
    6  A    between atoms: C_19  and  C_34
    7  A    between atoms: C_24  and  N_27
                            x       y       z     vdW  Elec       q    Type
                         _______ _______ _______ _____ _____    ______ ____

>  <TORSDO>
F 7

$$$$
=
 OpenBabel11032421263D

 34 39  0  0  1  0  0  0  0  0999 V2000
  185.6030  178.2630  140.0290 N   0  0  0  0  0  0  0  0  0  0  0  0
  185.4480  177.9510  137.5680 C   0  0  0  0  0  0  0  0  0  0  0  0
  187.5930  177.8990  137.1630 N   0  0  0  0  0  2  0  0  0  0  0  0
  186.4890  178.3910  141.0700 C   0  0  0  0  0  0  0  0  0  0  0  0
  186.0850  178.1100  138.7730 C   0  0  0  0  0  0  0  0  0  0  0  0
  188.3620  178.1990  139.4950 C   0  0  0  0  0  0  0  0  0  0  0  0
  186.3870  177.8250  136.6010 N   0  0  0  0  0  0  0  0  0  0  0  0
  187.8850  178.3550  140.8100 C   0  0  0  0  0  3  0  0  0  0  0  0
  187.4110  178.0730  138.4870 C   0  0  0  0  0  0  0  0  0  0  0  0
  185.9230  177.9840  144.8820 C   0  0  2  0  0  3  0  0  0  0  0  0
  187.5870  177.0100  143.5850 N   0  0  0  0  0  0  0  0  0  0  0  0
  189.2990  176.8310  145.3230 C   0  0  0  0  0  3  0  0  0  0  0  0
  186.1980  177.4670  143.4990 C   0  0  2  0  0  3  0  0  0  0  0  0
  184.9520  179.0550  145.1220 C   0  0  0  0  0  3  0  0  0  0  0  0
  185.9830  178.5490  142.4530 C   0  0  0  0  0  0  0  0  0  0  0  0
  185.1720  179.5900  142.7350 C   0  0  0  0  0  3  0  0  0  0  0  0
  187.9490  177.0850  144.8230 C   0  0  0  0  0  0  0  0  0  0  0  0
  188.6440  177.7690  147.5770 C   0  0  0  0  0  2  0  0  0  0  0  0
  184.5860  179.8060  144.0810 C   0  0  0  0  0  3  0  0  0  0  0  0
  187.2920  178.1310  147.0100 C   0  0  0  0  0  0  0  0  0  0  0  0
  186.9500  177.6840  145.6580 C   0  0  1  0  0  3  0  0  0  0  0  0
  186.4700  178.7810  147.7080 O   0  0  0  0  0  0  0  0  0  0  0  0
  189.6220  177.1470  146.5870 C   0  0  0  0  0  0  0  0  0  0  0  0
  192.0330  176.6520  147.4020 N   0  0  0  0  0  0  0  0  0  0  0  0
  190.9560  176.8740  147.0380 C   0  0  0  0  0  0  0  0  0  0  0  0
  189.8240  178.1370  139.2130 C   0  0  0  0  0  2  0  0  0  0  0  0
  190.4360  176.9310  139.9050 C   0  0  0  0  0  2  0  0  0  0  0  0
  192.6940  177.5180  140.2400 O   0  0  0  0  0  0  0  0  0  0  0  0
  191.4170  177.5400  142.2110 C   0  0  0  0  0  1  0  0  0  0  0  0
  191.5960  177.3510  140.7450 C   0  0  0  0  0  0  0  0  0  0  0  0
  184.0410  177.9100  137.3220 N   0  0  0  0  0  2  0  0  0  0  0  0
  183.4010  175.6490  137.8990 C   0  0  0  0  0  2  0  0  0  0  0  0
  182.1380  176.4550  137.6830 C   0  0  0  0  0  2  0  0  0  0  0  0
  183.3620  176.7220  136.8310 C   0  0  0  0  0  3  0  0  0  0  0  0
  1  4  1  0  0  0  0
  2  5  1  0  0  0  0
  3  9  1  0  0  0  0
  4 15  1  0  0  0  0
  5  1  2  0  0  0  0
  6  8  1  0  0  0  0
  7  3  1  0  0  0  0
  7  2  2  0  0  0  0
  8  4  2  0  0  0  0
  9  5  1  0  0  0  0
  9  6  2  0  0  0  0
 10 14  1  6  0  0  0
 10 21  1  0  0  0  0
 11 17  2  0  0  0  0
 12 23  2  0  0  0  0
 13 15  1  6  0  0  0
 13 11  1  0  0  0  0
 13 10  1  0  0  0  0
 15 16  2  0  0  0  0
 16 19  1  0  0  0  0
 17 12  1  0  0  0  0
 19 14  2  0  0  0  0
 20 18  1  0  0  0  0
 20 22  2  0  0  0  0
 21 17  1  6  0  0  0
 21 20  1  0  0  0  0
 23 25  1  0  0  0  0
 23 18  1  0  0  0  0
 25 24  3  0  0  0  0
 26  6  1  0  0  0  0
 26 27  1  0  0  0  0
 27 30  1  0  0  0  0
 28 30  2  0  0  0  0
 30 29  1  0  0  0  0
 31  2  1  0  0  0  0
 33 32  1  0  0  0  0
 34 31  1  0  0  0  0
 34 33  1  0  0  0  0
 34 32  1  0  0  0  0
M  END
>  <MODEL>
3

>  <REMARK>
 VINA RESULT:      -9.1      2.716      6.062
  Name = 
  7 active torsions:
  status: ('A' for Active; 'I' for Inactive)
    1  A    between atoms: C_7  and  N_27
    2  A    between atoms: C_8  and  C_20
    3  A    between atoms: C_12  and  C_16
    4  A    between atoms: C_12  and  C_26
    5  A    between atoms: C_16  and  C_33
    6  A    between atoms: C_19  and  C_34
    7  A    between atoms: C_24  and  N_27
                            x       y       z     vdW  Elec       q    Type
                         _______ _______ _______ _____ _____    ______ ____

>  <TORSDO>
F 7

$$$$
=
 OpenBabel11032421263D

 34 39  0  0  1  0  0  0  0  0999 V2000
  188.3540  177.5490  143.4810 N   0  0  0  0  0  0  0  0  0  0  0  0
  190.6840  176.7230  143.2210 C   0  0  0  0  0  0  0  0  0  0  0  0
  190.8910  177.1530  141.0900 N   0  0  0  0  0  2  0  0  0  0  0  0
  187.3040  178.1150  142.8020 C   0  0  0  0  0  0  0  0  0  0  0  0
  189.4950  177.2680  142.8070 C   0  0  0  0  0  0  0  0  0  0  0  0
  188.6310  178.0940  140.7370 C   0  0  0  0  0  0  0  0  0  0  0  0
  191.5200  176.6630  142.1580 N   0  0  0  0  0  0  0  0  0  0  0  0
  187.4360  178.3990  141.4160 C   0  0  0  0  0  3  0  0  0  0  0  0
  189.6570  177.5230  141.4840 C   0  0  0  0  0  0  0  0  0  0  0  0
  183.6810  179.2130  143.6320 C   0  0  2  0  0  3  0  0  0  0  0  0
  184.6160  178.8910  141.5290 N   0  0  0  0  0  0  0  0  0  0  0  0
  182.5710  178.2510  140.3520 C   0  0  0  0  0  3  0  0  0  0  0  0
  184.9800  179.3120  142.8850 C   0  0  2  0  0  3  0  0  0  0  0  0
  183.6430  178.9340  145.0700 C   0  0  0  0  0  3  0  0  0  0  0  0
  186.0500  178.4390  143.5210 C   0  0  0  0  0  0  0  0  0  0  0  0
  185.9390  178.0970  144.8210 C   0  0  0  0  0  3  0  0  0  0  0  0
  183.3310  178.7660  141.4890 C   0  0  0  0  0  0  0  0  0  0  0  0
  180.4950  178.1320  141.7900 C   0  0  0  0  0  2  0  0  0  0  0  0
  184.7380  178.4170  145.6320 C   0  0  0  0  0  3  0  0  0  0  0  0
  181.3220  178.5530  142.9810 C   0  0  0  0  0  0  0  0  0  0  0  0
  182.7150  178.9540  142.7680 C   0  0  1  0  0  3  0  0  0  0  0  0
  180.8050  178.5820  144.1280 O   0  0  0  0  0  0  0  0  0  0  0  0
  181.2690  177.9560  140.4880 C   0  0  0  0  0  0  0  0  0  0  0  0
  179.9840  177.0620  138.4210 N   0  0  0  0  0  0  0  0  0  0  0  0
  180.5580  177.4610  139.3440 C   0  0  0  0  0  0  0  0  0  0  0  0
  188.7900  178.4080  139.2890 C   0  0  0  0  0  2  0  0  0  0  0  0
  187.9490  177.4590  138.4540 C   0  0  0  0  0  2  0  0  0  0  0  0
  187.2320  179.1320  136.9570 O   0  0  0  0  0  0  0  0  0  0  0  0
  185.4710  177.8730  137.8680 C   0  0  0  0  0  1  0  0  0  0  0  0
  186.9100  178.2170  137.6970 C   0  0  0  0  0  0  0  0  0  0  0  0
  191.0350  176.2860  144.5360 N   0  0  0  0  0  2  0  0  0  0  0  0
  190.1490  177.0680  146.6470 C   0  0  0  0  0  2  0  0  0  0  0  0
  191.4920  176.4220  146.9110 C   0  0  0  0  0  2  0  0  0  0  0  0
  191.2660  177.2080  145.6360 C   0  0  0  0  0  3  0  0  0  0  0  0
  2 31  1  0  0  0  0
  3  9  1  0  0  0  0
  3  7  1  0  0  0  0
  4  1  2  0  0  0  0
  4 15  1  0  0  0  0
  5  2  1  0  0  0  0
  5  1  1  0  0  0  0
  6  8  2  0  0  0  0
  6  9  1  0  0  0  0
  7  2  2  0  0  0  0
  8  4  1  0  0  0  0
  9  5  2  0  0  0  0
 10 14  1  1  0  0  0
 12 23  2  0  0  0  0
 12 17  1  0  0  0  0
 13 11  1  6  0  0  0
 13 15  1  0  0  0  0
 13 10  1  0  0  0  0
 14 19  2  0  0  0  0
 15 16  2  0  0  0  0
 16 19  1  0  0  0  0
 17 11  2  0  0  0  0
 18 20  1  0  0  0  0
 20 22  2  0  0  0  0
 21 17  1  6  0  0  0
 21 20  1  0  0  0  0
 21 10  1  0  0  0  0
 23 18  1  0  0  0  0
 24 25  3  0  0  0  0
 25 23  1  0  0  0  0
 26  6  1  0  0  0  0
 27 26  1  0  0  0  0
 28 30  2  0  0  0  0
 30 29  1  0  0  0  0
 30 27  1  0  0  0  0
 31 34  1  0  0  0  0
 32 33  1  0  0  0  0
 34 32  1  0  0  0  0
 34 33  1  0  0  0  0
M  END
>  <MODEL>
4

>  <REMARK>
 VINA RESULT:      -9.0      2.173      4.870
  Name = 
  7 active torsions:
  status: ('A' for Active; 'I' for Inactive)
    1  A    between atoms: C_7  and  N_27
    2  A    between atoms: C_8  and  C_20
    3  A    between atoms: C_12  and  C_16
    4  A    between atoms: C_12  and  C_26
    5  A    between atoms: C_16  and  C_33
    6  A    between atoms: C_19  and  C_34
    7  A    between atoms: C_24  and  N_27
                            x       y       z     vdW  Elec       q    Type
                         _______ _______ _______ _____ _____    ______ ____

>  <TORSDO>
F 7

$$$$
=
 OpenBabel11032421263D

 34 39  0  0  1  0  0  0  0  0999 V2000
  186.8170  178.5110  141.0640 N   0  0  0  0  0  0  0  0  0  0  0  0
  188.1320  178.3880  138.9590 C   0  0  0  0  0  0  0  0  0  0  0  0
  186.4550  178.5890  137.5750 N   0  0  0  0  0  2  0  0  0  0  0  0
  185.5450  178.6500  141.5620 C   0  0  0  0  0  0  0  0  0  0  0  0
  186.9980  178.4990  139.7220 C   0  0  0  0  0  0  0  0  0  0  0  0
  184.6650  178.7640  139.2730 C   0  0  0  0  0  0  0  0  0  0  0  0
  187.7780  178.4450  137.6540 N   0  0  0  0  0  0  0  0  0  0  0  0
  184.4520  178.7850  140.6650 C   0  0  0  0  0  3  0  0  0  0  0  0
  185.9780  178.6220  138.8350 C   0  0  0  0  0  0  0  0  0  0  0  0
  185.7610  177.9060  145.3590 C   0  0  2  0  0  3  0  0  0  0  0  0
  187.1420  177.0930  143.6760 N   0  0  0  0  0  0  0  0  0  0  0  0
  189.1700  176.8190  145.0150 C   0  0  0  0  0  3  0  0  0  0  0  0
  185.7590  177.5150  143.9090 C   0  0  2  0  0  3  0  0  0  0  0  0
  184.8460  178.9230  145.8810 C   0  0  0  0  0  3  0  0  0  0  0  0
  185.3260  178.6760  143.0270 C   0  0  0  0  0  0  0  0  0  0  0  0
  184.5750  179.6650  143.5550 C   0  0  0  0  0  3  0  0  0  0  0  0
  187.7440  177.0740  144.8180 C   0  0  0  0  0  0  0  0  0  0  0  0
  188.9700  177.5430  147.4290 C   0  0  0  0  0  2  0  0  0  0  0  0
  184.2690  179.7480  145.0050 C   0  0  0  0  0  3  0  0  0  0  0  0
  187.5270  177.9110  147.1760 C   0  0  0  0  0  0  0  0  0  0  0  0
  186.9260  177.5700  145.8850 C   0  0  1  0  0  3  0  0  0  0  0  0
  186.8550  178.4760  148.0780 O   0  0  0  0  0  0  0  0  0  0  0  0
  189.7360  177.0360  146.2120 C   0  0  0  0  0  0  0  0  0  0  0  0
  192.2670  176.5460  146.4870 N   0  0  0  0  0  0  0  0  0  0  0  0
  191.1370  176.7640  146.3630 C   0  0  0  0  0  0  0  0  0  0  0  0
  183.5290  178.9280  138.3220 C   0  0  0  0  0  2  0  0  0  0  0  0
  182.2090  178.8060  139.0630 C   0  0  0  0  0  2  0  0  0  0  0  0
  180.1110  179.7640  138.5740 O   0  0  0  0  0  0  0  0  0  0  0  0
  181.8860  181.3010  138.4910 C   0  0  0  0  0  1  0  0  0  0  0  0
  181.3110  179.9440  138.7090 C   0  0  0  0  0  0  0  0  0  0  0  0
  189.4800  178.2430  139.4120 N   0  0  0  0  0  2  0  0  0  0  0  0
  191.4530  177.1880  140.3320 C   0  0  0  0  0  2  0  0  0  0  0  0
  190.3720  177.1680  141.3910 C   0  0  0  0  0  2  0  0  0  0  0  0
  190.0060  176.9920  139.9310 C   0  0  0  0  0  3  0  0  0  0  0  0
  1  4  1  0  0  0  0
  2 31  1  0  0  0  0
  2  5  1  0  0  0  0
  3  7  1  0  0  0  0
  3  9  1  0  0  0  0
  4 15  1  0  0  0  0
  5  1  2  0  0  0  0
  6  8  1  0  0  0  0
  7  2  2  0  0  0  0
  8  4  2  0  0  0  0
  9  6  2  0  0  0  0
  9  5  1  0  0  0  0
 10 14  1  6  0  0  0
 10 21  1  0  0  0  0
 11 13  1  0  0  0  0
 11 17  2  0  0  0  0
 12 23  2  0  0  0  0
 13 15  1  6  0  0  0
 13 10  1  0  0  0  0
 15 16  2  0  0  0  0
 16 19  1  0  0  0  0
 17 12  1  0  0  0  0
 19 14  2  0  0  0  0
 20 18  1  0  0  0  0
 20 22  2  0  0  0  0
 21 17  1  6  0  0  0
 21 20  1  0  0  0  0
 23 25  1  0  0  0  0
 23 18  1  0  0  0  0
 25 24  3  0  0  0  0
 26 27  1  0  0  0  0
 26  6  1  0  0  0  0
 28 30  2  0  0  0  0
 29 30  1  0  0  0  0
 30 27  1  0  0  0  0
 31 34  1  0  0  0  0
 32 33  1  0  0  0  0
 34 32  1  0  0  0  0
 34 33  1  0  0  0  0
M  END
>  <MODEL>
5

>  <REMARK>
 VINA RESULT:      -8.8      2.417      7.372
  Name = 
  7 active torsions:
  status: ('A' for Active; 'I' for Inactive)
    1  A    between atoms: C_7  and  N_27
    2  A    between atoms: C_8  and  C_20
    3  A    between atoms: C_12  and  C_16
    4  A    between atoms: C_12  and  C_26
    5  A    between atoms: C_16  and  C_33
    6  A    between atoms: C_19  and  C_34
    7  A    between atoms: C_24  and  N_27
                            x       y       z     vdW  Elec       q    Type
                         _______ _______ _______ _____ _____    ______ ____

>  <TORSDO>
F 7

$$$$
=
 OpenBabel11032421263D

 34 39  0  0  1  0  0  0  0  0999 V2000
  188.2400  177.9880  141.2540 N   0  0  0  0  0  0  0  0  0  0  0  0
  190.0980  177.6480  139.6380 C   0  0  0  0  0  0  0  0  0  0  0  0
  191.5610  176.8750  141.0620 N   0  0  0  0  0  2  0  0  0  0  0  0
  187.8910  177.8570  142.5750 C   0  0  0  0  0  0  0  0  0  0  0  0
  189.4890  177.6350  140.8680 C   0  0  0  0  0  0  0  0  0  0  0  0
  190.1340  176.9960  143.0790 C   0  0  0  0  0  0  0  0  0  0  0  0
  191.3600  177.1800  139.7810 N   0  0  0  0  0  0  0  0  0  0  0  0
  188.8400  177.3520  143.5040 C   0  0  0  0  0  3  0  0  0  0  0  0
  190.4220  177.1510  141.7270 C   0  0  0  0  0  0  0  0  0  0  0  0
  184.2300  179.1260  142.6430 C   0  0  2  0  0  3  0  0  0  0  0  0
  185.5870  178.8150  140.7820 N   0  0  0  0  0  0  0  0  0  0  0  0
  183.8210  178.3210  139.1640 C   0  0  0  0  0  3  0  0  0  0  0  0
  185.6640  179.1760  142.2000 C   0  0  2  0  0  3  0  0  0  0  0  0
  183.8650  178.8090  144.0260 C   0  0  0  0  0  3  0  0  0  0  0  0
  186.5270  178.2280  143.0180 C   0  0  0  0  0  0  0  0  0  0  0  0
  186.1180  177.8550  144.2480 C   0  0  0  0  0  3  0  0  0  0  0  0
  184.3370  178.7610  140.4590 C   0  0  0  0  0  0  0  0  0  0  0  0
  181.4780  178.2730  140.1110 C   0  0  0  0  0  2  0  0  0  0  0  0
  184.7850  178.2170  144.7910 C   0  0  0  0  0  3  0  0  0  0  0  0
  182.0430  178.6140  141.4700 C   0  0  0  0  0  0  0  0  0  0  0  0
  183.4650  178.9450  141.5800 C   0  0  1  0  0  3  0  0  0  0  0  0
  181.2890  178.6370  142.4770 O   0  0  0  0  0  0  0  0  0  0  0  0
  182.5080  178.0930  139.0020 C   0  0  0  0  0  0  0  0  0  0  0  0
  181.6670  177.3300  136.6720 N   0  0  0  0  0  0  0  0  0  0  0  0
  182.0430  177.6700  137.7120 C   0  0  0  0  0  0  0  0  0  0  0  0
  191.1300  176.4430  144.0390 C   0  0  0  0  0  2  0  0  0  0  0  0
  191.3460  177.4170  145.1840 C   0  0  0  0  0  2  0  0  0  0  0  0
  190.1840  177.0520  147.2020 O   0  0  0  0  0  0  0  0  0  0  0  0
  192.0750  175.6820  146.9480 C   0  0  0  0  0  1  0  0  0  0  0  0
  191.1250  176.7350  146.4920 C   0  0  0  0  0  0  0  0  0  0  0  0
  189.5390  178.0640  138.3900 N   0  0  0  0  0  2  0  0  0  0  0  0
  187.2490  178.1610  137.6160 C   0  0  0  0  0  2  0  0  0  0  0  0
  188.1480  178.0130  136.4080 C   0  0  0  0  0  2  0  0  0  0  0  0
  188.5000  177.3130  137.7040 C   0  0  0  0  0  3  0  0  0  0  0  0
  1  4  1  0  0  0  0
  2  7  2  0  0  0  0
  2  5  1  0  0  0  0
  3  9  1  0  0  0  0
  4 15  1  0  0  0  0
  4  8  2  0  0  0  0
  5  1  2  0  0  0  0
  5  9  1  0  0  0  0
  6  8  1  0  0  0  0
  6 26  1  0  0  0  0
  7  3  1  0  0  0  0
  9  6  2  0  0  0  0
 10 14  1  1  0  0  0
 12 17  1  0  0  0  0
 13 11  1  6  0  0  0
 13 10  1  0  0  0  0
 13 15  1  0  0  0  0
 14 19  2  0  0  0  0
 15 16  2  0  0  0  0
 16 19  1  0  0  0  0
 17 11  2  0  0  0  0
 18 20  1  0  0  0  0
 20 21  1  0  0  0  0
 20 22  2  0  0  0  0
 21 17  1  1  0  0  0
 21 10  1  0  0  0  0
 23 12  2  0  0  0  0
 23 18  1  0  0  0  0
 24 25  3  0  0  0  0
 25 23  1  0  0  0  0
 26 27  1  0  0  0  0
 27 30  1  0  0  0  0
 30 29  1  0  0  0  0
 30 28  2  0  0  0  0
 31  2  1  0  0  0  0
 32 34  1  0  0  0  0
 33 32  1  0  0  0  0
 33 34  1  0  0  0  0
 34 31  1  0  0  0  0
M  END
>  <MODEL>
6

>  <REMARK>
 VINA RESULT:      -8.7      1.209      1.396
  Name = 
  7 active torsions:
  status: ('A' for Active; 'I' for Inactive)
    1  A    between atoms: C_7  and  N_27
    2  A    between atoms: C_8  and  C_20
    3  A    between atoms: C_12  and  C_16
    4  A    between atoms: C_12  and  C_26
    5  A    between atoms: C_16  and  C_33
    6  A    between atoms: C_19  and  C_34
    7  A    between atoms: C_24  and  N_27
                            x       y       z     vdW  Elec       q    Type
                         _______ _______ _______ _____ _____    ______ ____

>  <TORSDO>
F 7

$$$$
=
 OpenBabel11032421263D

 34 39  0  0  1  0  0  0  0  0999 V2000
  185.1630  178.5740  141.9100 N   0  0  0  0  0  0  0  0  0  0  0  0
  184.3180  179.0340  139.6180 C   0  0  0  0  0  0  0  0  0  0  0  0
  182.2280  179.3610  140.1570 N   0  0  0  0  0  2  0  0  0  0  0  0
  184.7830  178.4770  143.2250 C   0  0  0  0  0  0  0  0  0  0  0  0
  184.2260  178.8670  140.9770 C   0  0  0  0  0  0  0  0  0  0  0  0
  182.4680  178.9930  142.5910 C   0  0  0  0  0  0  0  0  0  0  0  0
  183.0880  179.3340  139.1400 N   0  0  0  0  0  0  0  0  0  0  0  0
  183.4240  178.6930  143.5800 C   0  0  0  0  0  3  0  0  0  0  0  0
  182.9200  179.0770  141.2780 C   0  0  0  0  0  0  0  0  0  0  0  0
  187.9230  177.1450  145.0660 C   0  0  2  0  0  3  0  0  0  0  0  0
  187.4960  177.1030  142.7820 N   0  0  0  0  0  0  0  0  0  0  0  0
  189.8140  177.2010  142.0100 C   0  0  0  0  0  3  0  0  0  0  0  0
  186.8020  177.0460  144.0710 C   0  0  2  0  0  3  0  0  0  0  0  0
  187.7210  177.7310  146.3930 C   0  0  0  0  0  3  0  0  0  0  0  0
  185.7930  178.1670  144.2640 C   0  0  0  0  0  0  0  0  0  0  0  0
  185.7000  178.7740  145.4650 C   0  0  0  0  0  3  0  0  0  0  0  0
  188.7650  177.0530  143.0170 C   0  0  0  0  0  0  0  0  0  0  0  0
  191.5500  177.3760  143.8390 C   0  0  0  0  0  2  0  0  0  0  0  0
  186.6410  178.4950  146.5770 C   0  0  0  0  0  3  0  0  0  0  0  0
  190.4410  177.3400  144.8650 C   0  0  0  0  0  0  0  0  0  0  0  0
  189.0720  177.0800  144.4160 C   0  0  1  0  0  3  0  0  0  0  0  0
  190.7070  177.5040  146.0840 O   0  0  0  0  0  0  0  0  0  0  0  0
  191.0940  177.3520  142.3850 C   0  0  0  0  0  0  0  0  0  0  0  0
  192.8990  177.5910  140.5400 N   0  0  0  0  0  0  0  0  0  0  0  0
  192.0930  177.4850  141.3630 C   0  0  0  0  0  0  0  0  0  0  0  0
  181.0450  179.2430  142.9540 C   0  0  0  0  0  2  0  0  0  0  0  0
  180.2880  177.9290  143.0320 C   0  0  0  0  0  2  0  0  0  0  0  0
  179.2500  176.6070  141.3800 O   0  0  0  0  0  0  0  0  0  0  0  0
  178.9310  178.9130  141.0730 C   0  0  0  0  0  1  0  0  0  0  0  0
  179.4660  177.7310  141.8030 C   0  0  0  0  0  0  0  0  0  0  0  0
  185.4860  178.9290  138.8010 N   0  0  0  0  0  2  0  0  0  0  0  0
  186.3680  178.1820  136.6760 C   0  0  0  0  0  2  0  0  0  0  0  0
  187.2810  177.6710  137.7700 C   0  0  0  0  0  2  0  0  0  0  0  0
  185.7870  177.7500  138.0050 C   0  0  0  0  0  3  0  0  0  0  0  0
  1  4  1  0  0  0  0
  2  5  1  0  0  0  0
  3  9  1  0  0  0  0
  4  8  2  0  0  0  0
  4 15  1  0  0  0  0
  5  9  1  0  0  0  0
  5  1  2  0  0  0  0
  6 26  1  0  0  0  0
  6  8  1  0  0  0  0
  7  2  2  0  0  0  0
  7  3  1  0  0  0  0
  9  6  2  0  0  0  0
 10 14  1  6  0  0  0
 11 17  2  0  0  0  0
 12 23  2  0  0  0  0
 12 17  1  0  0  0  0
 13 11  1  6  0  0  0
 13 15  1  0  0  0  0
 13 10  1  0  0  0  0
 14 19  2  0  0  0  0
 15 16  2  0  0  0  0
 16 19  1  0  0  0  0
 18 20  1  0  0  0  0
 20 22  2  0  0  0  0
 21 17  1  6  0  0  0
 21 20  1  0  0  0  0
 21 10  1  0  0  0  0
 23 18  1  0  0  0  0
 24 25  3  0  0  0  0
 25 23  1  0  0  0  0
 26 27  1  0  0  0  0
 28 30  2  0  0  0  0
 29 30  1  0  0  0  0
 30 27  1  0  0  0  0
 31  2  1  0  0  0  0
 32 33  1  0  0  0  0
 32 34  1  0  0  0  0
 33 34  1  0  0  0  0
 34 31  1  0  0  0  0
M  END
>  <MODEL>
7

>  <REMARK>
 VINA RESULT:      -8.7      1.723      7.680
  Name = 
  7 active torsions:
  status: ('A' for Active; 'I' for Inactive)
    1  A    between atoms: C_7  and  N_27
    2  A    between atoms: C_8  and  C_20
    3  A    between atoms: C_12  and  C_16
    4  A    between atoms: C_12  and  C_26
    5  A    between atoms: C_16  and  C_33
    6  A    between atoms: C_19  and  C_34
    7  A    between atoms: C_24  and  N_27
                            x       y       z     vdW  Elec       q    Type
                         _______ _______ _______ _____ _____    ______ ____

>  <TORSDO>
F 7

$$$$
=
 OpenBabel11032421263D

 34 39  0  0  1  0  0  0  0  0999 V2000
  186.8440  177.8380  143.4830 N   0  0  0  0  0  0  0  0  0  0  0  0
  189.1580  177.1850  144.1110 C   0  0  0  0  0  0  0  0  0  0  0  0
  190.0780  177.5280  142.1600 N   0  0  0  0  0  2  0  0  0  0  0  0
  186.0700  178.2870  142.4420 C   0  0  0  0  0  0  0  0  0  0  0  0
  188.1630  177.6150  143.2710 C   0  0  0  0  0  0  0  0  0  0  0  0
  188.0380  178.2710  140.9760 C   0  0  0  0  0  0  0  0  0  0  0  0
  190.3170  177.1390  143.4130 N   0  0  0  0  0  0  0  0  0  0  0  0
  186.6660  178.5150  141.1720 C   0  0  0  0  0  3  0  0  0  0  0  0
  188.7650  177.8190  142.0720 C   0  0  0  0  0  0  0  0  0  0  0  0
  182.2560  178.7030  141.8970 C   0  0  2  0  0  3  0  0  0  0  0  0
  183.8140  177.8380  140.4050 N   0  0  0  0  0  0  0  0  0  0  0  0
  182.3170  176.3190  139.2080 C   0  0  0  0  0  3  0  0  0  0  0  0
  183.6950  178.8220  141.4850 C   0  0  2  0  0  3  0  0  0  0  0  0
  181.8220  178.9970  143.2650 C   0  0  0  0  0  3  0  0  0  0  0  0
  184.6270  178.5470  142.6550 C   0  0  0  0  0  0  0  0  0  0  0  0
  184.1740  178.7140  143.9150 C   0  0  0  0  0  3  0  0  0  0  0  0
  182.6270  177.3990  140.1430 C   0  0  0  0  0  0  0  0  0  0  0  0
  179.9380  176.2590  140.0610 C   0  0  0  0  0  2  0  0  0  0  0  0
  182.7550  179.0180  144.2210 C   0  0  0  0  0  3  0  0  0  0  0  0
  180.3070  177.2920  141.0990 C   0  0  0  0  0  0  0  0  0  0  0  0
  181.6360  177.9070  141.0430 C   0  0  1  0  0  3  0  0  0  0  0  0
  179.4700  177.6310  141.9750 O   0  0  0  0  0  0  0  0  0  0  0  0
  181.0830  175.7920  139.1700 C   0  0  0  0  0  0  0  0  0  0  0  0
  180.6090  173.8900  137.4730 N   0  0  0  0  0  0  0  0  0  0  0  0
  180.8200  174.7390  138.2310 C   0  0  0  0  0  0  0  0  0  0  0  0
  188.6790  178.5270  139.6550 C   0  0  0  0  0  2  0  0  0  0  0  0
  188.4230  177.3610  138.7170 C   0  0  0  0  0  2  0  0  0  0  0  0
  187.0170  178.8740  137.5820 O   0  0  0  0  0  0  0  0  0  0  0  0
  187.4770  176.9240  136.3570 C   0  0  0  0  0  1  0  0  0  0  0  0
  187.6030  177.8050  137.5520 C   0  0  0  0  0  0  0  0  0  0  0  0
  189.0470  176.8410  145.4930 N   0  0  0  0  0  2  0  0  0  0  0  0
  187.5220  177.8960  147.0460 C   0  0  0  0  0  2  0  0  0  0  0  0
  188.5720  177.1570  147.8480 C   0  0  0  0  0  2  0  0  0  0  0  0
  188.9500  177.8370  146.5470 C   0  0  0  0  0  3  0  0  0  0  0  0
  2 31  1  0  0  0  0
  3  7  1  0  0  0  0
  4 15  1  0  0  0  0
  4  1  2  0  0  0  0
  5  1  1  0  0  0  0
  5  2  1  0  0  0  0
  6  8  2  0  0  0  0
  6  9  1  0  0  0  0
  7  2  2  0  0  0  0
  8  4  1  0  0  0  0
  9  3  1  0  0  0  0
  9  5  2  0  0  0  0
 10 14  1  1  0  0  0
 12 17  1  0  0  0  0
 13 11  1  6  0  0  0
 13 10  1  0  0  0  0
 13 15  1  0  0  0  0
 14 19  2  0  0  0  0
 15 16  2  0  0  0  0
 16 19  1  0  0  0  0
 17 11  2  0  0  0  0
 18 20  1  0  0  0  0
 20 22  2  0  0  0  0
 21 17  1  1  0  0  0
 21 20  1  0  0  0  0
 21 10  1  0  0  0  0
 23 12  2  0  0  0  0
 23 18  1  0  0  0  0
 24 25  3  0  0  0  0
 25 23  1  0  0  0  0
 26  6  1  0  0  0  0
 27 26  1  0  0  0  0
 29 30  1  0  0  0  0
 30 28  2  0  0  0  0
 30 27  1  0  0  0  0
 31 34  1  0  0  0  0
 32 33  1  0  0  0  0
 34 32  1  0  0  0  0
 34 33  1  0  0  0  0
M  END
>  <MODEL>
8

>  <REMARK>
 VINA RESULT:      -8.6      2.496      5.168
  Name = 
  7 active torsions:
  status: ('A' for Active; 'I' for Inactive)
    1  A    between atoms: C_7  and  N_27
    2  A    between atoms: C_8  and  C_20
    3  A    between atoms: C_12  and  C_16
    4  A    between atoms: C_12  and  C_26
    5  A    between atoms: C_16  and  C_33
    6  A    between atoms: C_19  and  C_34
    7  A    between atoms: C_24  and  N_27
                            x       y       z     vdW  Elec       q    Type
                         _______ _______ _______ _____ _____    ______ ____

>  <TORSDO>
F 7

$$$$
=
 OpenBabel11032421263D

 34 39  0  0  1  0  0  0  0  0999 V2000
  185.0340  178.2480  142.6450 N   0  0  0  0  0  0  0  0  0  0  0  0
  185.7190  178.4510  145.0250 C   0  0  0  0  0  0  0  0  0  0  0  0
  183.7640  179.0010  145.8270 N   0  0  0  0  0  2  0  0  0  0  0  0
  183.9620  178.3540  141.7940 C   0  0  0  0  0  0  0  0  0  0  0  0
  184.8500  178.4910  143.9640 C   0  0  0  0  0  0  0  0  0  0  0  0
  182.5230  178.9600  143.6880 C   0  0  0  0  0  0  0  0  0  0  0  0
  185.0350  178.7650  146.1500 N   0  0  0  0  0  0  0  0  0  0  0  0
  182.6870  178.7080  142.3130 C   0  0  0  0  0  3  0  0  0  0  0  0
  183.6490  178.8340  144.4950 C   0  0  0  0  0  0  0  0  0  0  0  0
  185.4380  178.1030  138.2190 C   0  0  2  0  0  3  0  0  0  0  0  0
  186.5440  178.7200  140.1690 N   0  0  0  0  0  0  0  0  0  0  0  0
  188.7760  177.9420  139.5430 C   0  0  0  0  0  3  0  0  0  0  0  0
  185.2210  178.7820  139.5420 C   0  0  2  0  0  3  0  0  0  0  0  0
  184.3560  177.3930  137.5340 C   0  0  0  0  0  3  0  0  0  0  0  0
  184.1380  178.0820  140.3480 C   0  0  0  0  0  0  0  0  0  0  0  0
  183.2130  177.3370  139.7080 C   0  0  0  0  0  3  0  0  0  0  0  0
  187.3740  178.2660  139.2890 C   0  0  0  0  0  0  0  0  0  0  0  0
  188.9290  176.8190  137.2830 C   0  0  0  0  0  2  0  0  0  0  0  0
  183.2860  177.0480  138.2550 C   0  0  0  0  0  3  0  0  0  0  0  0
  187.4510  177.0590  137.0880 C   0  0  0  0  0  0  0  0  0  0  0  0
  186.7310  177.8720  138.0710 C   0  0  1  0  0  3  0  0  0  0  0  0
  186.8650  176.5870  136.0790 O   0  0  0  0  0  0  0  0  0  0  0  0
  189.4930  177.2750  138.6240 C   0  0  0  0  0  0  0  0  0  0  0  0
  191.9780  176.7520  139.1420 N   0  0  0  0  0  0  0  0  0  0  0  0
  190.8680  176.9850  138.9110 C   0  0  0  0  0  0  0  0  0  0  0  0
  181.1870  179.3100  144.2470 C   0  0  0  0  0  2  0  0  0  0  0  0
  180.1820  178.2220  143.9130 C   0  0  0  0  0  2  0  0  0  0  0  0
  178.9310  177.7980  141.9610 O   0  0  0  0  0  0  0  0  0  0  0  0
  179.0250  180.0730  142.5390 C   0  0  0  0  0  1  0  0  0  0  0  0
  179.3410  178.6330  142.7510 C   0  0  0  0  0  0  0  0  0  0  0  0
  187.1120  178.1310  145.0030 N   0  0  0  0  0  2  0  0  0  0  0  0
  188.3450  177.1970  143.1430 C   0  0  0  0  0  2  0  0  0  0  0  0
  189.1390  176.9470  144.4070 C   0  0  0  0  0  2  0  0  0  0  0  0
  187.6260  176.8930  144.4400 C   0  0  0  0  0  3  0  0  0  0  0  0
  1  5  1  0  0  0  0
  2  7  2  0  0  0  0
  3  7  1  0  0  0  0
  4  8  1  0  0  0  0
  4  1  2  0  0  0  0
  5  9  2  0  0  0  0
  5  2  1  0  0  0  0
  6 26  1  0  0  0  0
  6  9  1  0  0  0  0
  8  6  2  0  0  0  0
  9  3  1  0  0  0  0
 10 14  1  1  0  0  0
 10 13  1  0  0  0  0
 13 11  1  1  0  0  0
 13 15  1  0  0  0  0
 14 19  2  0  0  0  0
 15  4  1  0  0  0  0
 16 15  2  0  0  0  0
 17 12  1  0  0  0  0
 17 11  2  0  0  0  0
 18 23  1  0  0  0  0
 19 16  1  0  0  0  0
 20 18  1  0  0  0  0
 21 20  1  1  0  0  0
 21 10  1  0  0  0  0
 21 17  1  0  0  0  0
 22 20  2  0  0  0  0
 23 25  1  0  0  0  0
 23 12  2  0  0  0  0
 25 24  3  0  0  0  0
 27 26  1  0  0  0  0
 28 30  2  0  0  0  0
 29 30  1  0  0  0  0
 30 27  1  0  0  0  0
 31  2  1  0  0  0  0
 32 33  1  0  0  0  0
 32 34  1  0  0  0  0
 33 34  1  0  0  0  0
 34 31  1  0  0  0  0
M  END
>  <MODEL>
9

>  <REMARK>
 VINA RESULT:      -8.4      2.872      8.026
  Name = 
  7 active torsions:
  status: ('A' for Active; 'I' for Inactive)
    1  A    between atoms: C_7  and  N_27
    2  A    between atoms: C_8  and  C_20
    3  A    between atoms: C_12  and  C_16
    4  A    between atoms: C_12  and  C_26
    5  A    between atoms: C_16  and  C_33
    6  A    between atoms: C_19  and  C_34
    7  A    between atoms: C_24  and  N_27
                            x       y       z     vdW  Elec       q    Type
                         _______ _______ _______ _____ _____    ______ ____

>  <TORSDO>
F 7

$$$$
