=
 OpenBabel11042412463D

 59 63  0  0  1  0  0  0  0  0999 V2000
  188.3790  176.1450  143.4030 N   0  0  0  0  0  2  0  0  0  0  0  0
  189.1660  177.4550  145.2210 N   0  0  0  0  0  0  0  0  0  0  0  0
  185.5240  177.2190  147.1920 N   0  0  0  0  0  1  0  0  0  0  0  0
  186.7510  177.2670  144.9760 C   0  0  2  0  0  3  0  0  0  0  0  0
  188.9610  178.3600  146.3530 C   0  0  0  0  0  2  0  0  0  0  0  0
  186.7020  177.5280  146.4590 C   0  0  0  0  0  0  0  0  0  0  0  0
  188.1610  176.9570  144.5600 C   0  0  0  0  0  0  0  0  0  0  0  0
  187.7400  178.0060  147.0780 N   0  0  0  0  0  0  0  0  0  0  0  0
  186.2860  178.4390  144.2470 N   0  0  0  0  0  2  0  0  0  0  0  0
  182.3280  178.9820  142.8290 C   0  0  0  0  0  0  0  0  0  0  0  0
  184.6440  178.3820  142.4040 C   0  0  0  0  0  3  0  0  0  0  0  0
  183.9510  178.9990  144.6380 C   0  0  0  0  0  3  0  0  0  0  0  0
  183.3360  178.5730  141.9450 C   0  0  0  0  0  3  0  0  0  0  0  0
  184.9540  178.5950  143.7550 C   0  0  0  0  0  0  0  0  0  0  0  0
  182.6450  179.1910  144.1780 C   0  0  0  0  0  3  0  0  0  0  0  0
  180.3200  180.2380  142.7140 O   0  0  0  0  0  0  0  0  0  0  0  0
  180.9490  179.2080  142.3530 C   0  0  0  0  0  0  0  0  0  0  0  0
  180.2570  178.2170  141.4680 C   0  0  0  0  0  2  0  0  0  0  0  0
  179.1890  179.7400  139.9900 O   0  0  0  0  0  0  0  0  0  0  0  0
  179.9440  178.7850  140.1140 C   0  0  0  0  0  0  0  0  0  0  0  0
  184.7700  176.8900  136.8350 C   0  0  0  0  0  2  0  0  0  0  0  0
  183.0320  177.5220  138.3810 C   0  0  2  0  0  3  0  0  0  0  0  0
  182.2560  179.7930  138.1100 O   0  0  0  0  0  1  0  0  0  0  0  0
  181.1490  176.0290  137.6470 C   0  0  2  0  0  3  0  0  0  0  0  0
  180.6410  178.2230  138.9150 C   0  0  1  0  0  3  0  0  0  0  0  0
  183.5040  176.0960  136.5140 C   0  0  0  0  0  2  0  0  0  0  0  0
  182.3820  176.8430  137.2070 C   0  0  2  0  0  3  0  0  0  0  0  0
  182.1260  178.6500  138.8990 C   0  0  1  0  0  3  0  0  0  0  0  0
  180.4340  176.6970  138.8440 C   0  0  0  0  0  2  0  0  0  0  0  0
  184.3920  177.9450  137.8710 C   0  0  0  0  0  2  0  0  0  0  0  0
  181.0480  173.6780  136.9790 C   0  0  1  0  0  0  0  0  0  0  0  0
  180.2470  173.8900  138.1680 C   0  0  0  0  0  2  0  0  0  0  0  0
  181.5110  174.6510  137.9990 N   0  0  2  0  0  0  0  0  0  0  0  0
  181.8890  172.4210  136.9040 C   0  0  0  0  0  1  0  0  0  0  0  0
  180.5460  174.2290  135.7960 O   0  0  0  0  0  1  0  0  0  0  0  0
  189.6840  175.9690  142.7800 C   0  0  2  0  0  3  0  0  0  0  0  0
  190.7310  176.4190  143.6880 N   0  0  0  0  0  2  0  0  0  0  0  0
  191.6400  177.2720  142.9390 C   0  0  0  0  0  2  0  0  0  0  0  0
  192.0340  178.1810  145.0830 F   0  0  0  0  0  0  0  0  0  0  0  0
  191.9600  178.5120  143.7420 C   0  0  0  0  0  3  0  0  0  0  0  0
  190.9730  179.4610  143.5570 F   0  0  0  0  0  0  0  0  0  0  0  0
  189.7440  176.7440  141.4640 C   0  0  0  0  0  2  0  0  0  0  0  0
  188.3130  177.8560  141.2700 S   0  0  0  0  0  0  0  0  0  0  0  0
  188.8970  178.4310  139.6530 C   0  0  0  0  0  2  0  0  0  0  0  0
  187.9690  177.9170  138.5710 C   0  0  0  0  0  2  0  0  0  0  0  0
  188.6220  178.0650  137.2080 C   0  0  0  0  0  2  0  0  0  0  0  0
  189.2050  176.7300  136.7310 C   0  0  1  0  0  3  0  0  0  0  0  0
  188.0290  174.9800  135.7920 C   0  0  0  0  0  1  0  0  0  0  0  0
  188.6100  176.2360  135.5450 O   0  0  0  0  0  0  0  0  0  0  0  0
  190.7480  176.6980  136.7390 C   0  0  2  0  0  3  0  0  0  0  0  0
  191.2720  176.1300  135.5760 O   0  0  0  0  0  1  0  0  0  0  0  0
  190.7260  174.8750  138.3230 O   0  0  0  0  0  1  0  0  0  0  0  0
  191.3720  176.0680  137.9890 C   0  0  1  0  0  3  0  0  0  0  0  0
  192.8580  175.8690  137.8920 C   0  0  0  0  0  3  0  0  0  0  0  0
  193.3700  174.6930  137.8700 N   0  0  0  0  0  0  0  0  0  0  0  0
  195.7570  174.8560  139.0320 O   0  0  0  0  0  1  0  0  0  0  0  0
  195.4360  172.8840  137.3440 O   0  0  0  0  0  1  0  0  0  0  0  0
  195.6710  175.5000  136.4960 O   0  0  0  0  0  0  0  0  0  0  0  0
  195.0900  174.4940  137.7250 P   0  0  0  0  0  0  0  0  0  0  0  0
  1  7  1  0  0  0  0
  2  5  1  0  0  0  0
  4  9  1  6  0  0  0
  4  6  1  0  0  0  0
  5  8  1  0  0  0  0
  6  8  2  0  0  0  0
  6  3  1  0  0  0  0
  7  4  1  0  0  0  0
  7  2  2  0  0  0  0
 10 15  1  0  0  0  0
 11 14  2  0  0  0  0
 13 11  1  0  0  0  0
 13 10  2  0  0  0  0
 14  9  1  0  0  0  0
 14 12  1  0  0  0  0
 15 12  2  0  0  0  0
 17 16  2  0  0  0  0
 17 10  1  0  0  0  0
 18 17  1  0  0  0  0
 19 20  2  0  0  0  0
 20 18  1  0  0  0  0
 21 30  1  0  0  0  0
 22 30  1  6  0  0  0
 22 28  1  0  0  0  0
 24 33  1  0  0  0  0
 24 29  1  1  0  0  0
 25 20  1  1  0  0  0
 26 21  1  0  0  0  0
 27 26  1  1  0  0  0
 27 24  1  0  0  0  0
 27 22  1  0  0  0  0
 28 23  1  6  0  0  0
 28 25  1  0  0  0  0
 29 25  1  0  0  0  0
 31 34  1  6  0  0  0
 31 33  1  0  0  0  0
 31 32  1  0  0  0  0
 33 32  1  1  0  0  0
 35 31  1  0  0  0  0
 36 42  1  6  0  0  0
 36  1  1  0  0  0  0
 36 37  1  0  0  0  0
 38 37  1  0  0  0  0
 38 40  1  0  0  0  0
 40 39  1  0  0  0  0
 41 40  1  0  0  0  0
 43 42  1  0  0  0  0
 44 43  1  0  0  0  0
 45 44  1  0  0  0  0
 46 45  1  0  0  0  0
 47 50  1  0  0  0  0
 47 46  1  6  0  0  0
 49 48  1  0  0  0  0
 49 47  1  0  0  0  0
 50 51  1  6  0  0  0
 50 53  1  0  0  0  0
 53 52  1  6  0  0  0
 54 53  1  0  0  0  0
 55 54  2  0  0  0  0
 57 59  1  0  0  0  0
 58 59  2  0  0  0  0
 59 55  1  0  0  0  0
 59 56  1  0  0  0  0
M  END
>  <MODEL>
1

>  <REMARK>
 VINA RESULT:      -7.1      0.000      0.000
  Name = 
  22 active torsions:
  status: ('A' for Active; 'I' for Inactive)
    1  A    between atoms: C_1  and  C_34
    2  A    between atoms: C_3  and  C_33
    3  A    between atoms: C_3  and  C_41
    4  A    between atoms: C_3  and  O_54
    5  A    between atoms: C_4  and  C_8
    6  A    between atoms: C_4  and  N_47
    7  A    between atoms: N_9  and  C_16
    8  A    between atoms: C_12  and  C_16
    9  A    between atoms: C_12  and  S_59
   10  A    between atoms: C_14  and  C_33
   11  A    between atoms: C_14  and  C_49
   12  A    between atoms: C_16  and  N_47
   13  A    between atoms: N_19  and  C_35
   14  A    between atoms: N_19  and  C_48
   15  A    between atoms: C_23  and  N_26
   16  A    between atoms: C_27  and  C_29
   17  A    between atoms: C_29  and  C_56
   18  A    between atoms: C_31  and  C_40
   19  A    between atoms: C_31  and  C_41
   20  A    between atoms: C_34  and  C_56
   21  A    between atoms: N_44  and  P_45
   22  A    between atoms: C_49  and  S_59
                            x       y       z     vdW  Elec       q    Type
                         _______ _______ _______ _____ _____    ______ ____

>  <TORSDO>
F 22

$$$$
=
 OpenBabel11042412463D

 59 63  0  0  1  0  0  0  0  0999 V2000
  184.1040  177.1570  136.4830 N   0  0  0  0  0  2  0  0  0  0  0  0
  183.4080  175.8800  138.3630 N   0  0  0  0  0  0  0  0  0  0  0  0
  179.8350  177.9630  138.6720 N   0  0  0  0  0  1  0  0  0  0  0  0
  182.2800  178.0090  138.0110 C   0  0  2  0  0  3  0  0  0  0  0  0
  182.6330  175.6950  139.5900 C   0  0  0  0  0  2  0  0  0  0  0  0
  181.1310  177.3840  138.7580 C   0  0  0  0  0  0  0  0  0  0  0  0
  183.2760  176.9490  137.6320 C   0  0  0  0  0  0  0  0  0  0  0  0
  181.3090  176.3040  139.4570 N   0  0  0  0  0  0  0  0  0  0  0  0
  182.9380  179.0040  138.8470 N   0  0  0  0  0  2  0  0  0  0  0  0
  183.4020  178.7250  143.0510 C   0  0  0  0  0  0  0  0  0  0  0  0
  181.9760  179.0960  141.1180 C   0  0  0  0  0  3  0  0  0  0  0  0
  184.3230  178.6040  140.8060 C   0  0  0  0  0  3  0  0  0  0  0  0
  182.1420  179.0100  142.5050 C   0  0  0  0  0  3  0  0  0  0  0  0
  183.0700  178.8920  140.2640 C   0  0  0  0  0  0  0  0  0  0  0  0
  184.4890  178.5210  142.1910 C   0  0  0  0  0  3  0  0  0  0  0  0
  182.9310  179.4090  145.2720 O   0  0  0  0  0  0  0  0  0  0  0  0
  183.5950  178.6530  144.5120 C   0  0  0  0  0  0  0  0  0  0  0  0
  184.5940  177.7180  145.1230 C   0  0  0  0  0  2  0  0  0  0  0  0
  184.9380  178.8210  147.2000 O   0  0  0  0  0  0  0  0  0  0  0  0
  185.4370  178.3900  146.1680 C   0  0  0  0  0  0  0  0  0  0  0  0
  191.2450  176.5670  146.9190 C   0  0  0  0  0  2  0  0  0  0  0  0
  188.8850  176.9710  146.6370 C   0  0  2  0  0  3  0  0  0  0  0  0
  188.0030  178.6840  148.0930 O   0  0  0  0  0  1  0  0  0  0  0  0
  188.8170  177.9050  144.3060 C   0  0  2  0  0  3  0  0  0  0  0  0
  186.9180  178.4480  145.9750 C   0  0  1  0  0  3  0  0  0  0  0  0
  191.0060  177.1850  145.5420 C   0  0  0  0  0  2  0  0  0  0  0  0
  189.6210  177.7950  145.6180 C   0  0  2  0  0  3  0  0  0  0  0  0
  187.6480  177.7340  147.1340 C   0  0  1  0  0  3  0  0  0  0  0  0
  187.2950  177.9100  144.5800 C   0  0  0  0  0  2  0  0  0  0  0  0
  189.9270  176.6430  147.6850 C   0  0  0  0  0  2  0  0  0  0  0  0
  189.8870  177.3030  142.1910 C   0  0  1  0  0  0  0  0  0  0  0  0
  188.4560  177.1010  142.0970 C   0  0  0  0  0  2  0  0  0  0  0  0
  189.1460  176.8160  143.3810 N   0  0  2  0  0  0  0  0  0  0  0  0
  190.7950  176.2630  141.5660 C   0  0  0  0  0  1  0  0  0  0  0  0
  190.3160  178.6330  142.2440 O   0  0  0  0  0  1  0  0  0  0  0  0
  185.2470  176.3150  136.1560 C   0  0  2  0  0  3  0  0  0  0  0  0
  184.8460  174.9140  136.1520 N   0  0  0  0  0  2  0  0  0  0  0  0
  186.0400  174.1040  136.3300 C   0  0  0  0  0  2  0  0  0  0  0  0
  185.3090  172.9290  138.2430 F   0  0  0  0  0  0  0  0  0  0  0  0
  185.6690  172.7620  136.9180 C   0  0  0  0  0  3  0  0  0  0  0  0
  186.7460  171.9000  136.8400 F   0  0  0  0  0  0  0  0  0  0  0  0
  186.3730  176.5490  137.1620 C   0  0  0  0  0  2  0  0  0  0  0  0
  186.7700  178.3190  137.3320 S   0  0  0  0  0  0  0  0  0  0  0  0
  188.1160  177.9720  138.4960 C   0  0  0  0  0  2  0  0  0  0  0  0
  188.8150  176.6920  138.0870 C   0  0  0  0  0  2  0  0  0  0  0  0
  190.3150  176.9190  138.0070 C   0  0  0  0  0  2  0  0  0  0  0  0
  191.0500  175.6180  137.6650 C   0  0  1  0  0  3  0  0  0  0  0  0
  190.1710  173.8360  136.4930 C   0  0  0  0  0  1  0  0  0  0  0  0
  190.7490  175.1110  136.3780 O   0  0  0  0  0  0  0  0  0  0  0  0
  192.5550  175.6560  138.0080 C   0  0  2  0  0  3  0  0  0  0  0  0
  192.8710  176.6920  138.8890 O   0  0  0  0  0  1  0  0  0  0  0  0
  194.0690  176.9190  136.6120 O   0  0  0  0  0  1  0  0  0  0  0  0
  193.4900  175.6600  136.7940 C   0  0  1  0  0  3  0  0  0  0  0  0
  194.5380  174.5840  136.8320 C   0  0  0  0  0  3  0  0  0  0  0  0
  194.3160  173.4600  137.4120 N   0  0  0  0  0  0  0  0  0  0  0  0
  195.6000  171.5690  136.0520 O   0  0  0  0  0  0  0  0  0  0  0  0
  197.0330  172.9160  137.7760 O   0  0  0  0  0  1  0  0  0  0  0  0
  195.1560  171.0600  138.5810 O   0  0  0  0  0  1  0  0  0  0  0  0
  195.5350  172.2240  137.4130 P   0  0  0  0  0  0  0  0  0  0  0  0
  1  7  1  0  0  0  0
  2  5  1  0  0  0  0
  3  6  1  0  0  0  0
  4  6  1  0  0  0  0
  4  9  1  1  0  0  0
  6  8  2  0  0  0  0
  7  4  1  0  0  0  0
  7  2  2  0  0  0  0
  8  5  1  0  0  0  0
  9 14  1  0  0  0  0
 10 17  1  0  0  0  0
 11 13  2  0  0  0  0
 12 15  1  0  0  0  0
 13 10  1  0  0  0  0
 14 12  2  0  0  0  0
 14 11  1  0  0  0  0
 15 10  2  0  0  0  0
 17 18  1  0  0  0  0
 17 16  2  0  0  0  0
 18 20  1  0  0  0  0
 20 19  2  0  0  0  0
 21 30  1  0  0  0  0
 22 28  1  0  0  0  0
 22 30  1  1  0  0  0
 24 29  1  1  0  0  0
 24 27  1  0  0  0  0
 25 20  1  1  0  0  0
 25 28  1  0  0  0  0
 26 21  1  0  0  0  0
 27 26  1  6  0  0  0
 27 22  1  0  0  0  0
 28 23  1  1  0  0  0
 29 25  1  0  0  0  0
 31 34  1  6  0  0  0
 31 35  1  0  0  0  0
 31 33  1  0  0  0  0
 32 31  1  0  0  0  0
 33 32  1  6  0  0  0
 33 24  1  0  0  0  0
 36  1  1  0  0  0  0
 36 42  1  1  0  0  0
 37 36  1  0  0  0  0
 37 38  1  0  0  0  0
 38 40  1  0  0  0  0
 40 39  1  0  0  0  0
 41 40  1  0  0  0  0
 42 43  1  0  0  0  0
 43 44  1  0  0  0  0
 45 44  1  0  0  0  0
 46 45  1  0  0  0  0
 47 46  1  6  0  0  0
 47 50  1  0  0  0  0
 49 48  1  0  0  0  0
 49 47  1  0  0  0  0
 50 51  1  6  0  0  0
 53 52  1  1  0  0  0
 53 54  1  0  0  0  0
 53 50  1  0  0  0  0
 54 55  2  0  0  0  0
 55 59  1  0  0  0  0
 56 59  2  0  0  0  0
 59 57  1  0  0  0  0
 59 58  1  0  0  0  0
M  END
>  <MODEL>
2

>  <REMARK>
 VINA RESULT:      -7.1      3.336      7.692
  Name = 
  22 active torsions:
  status: ('A' for Active; 'I' for Inactive)
    1  A    between atoms: C_1  and  C_34
    2  A    between atoms: C_3  and  C_33
    3  A    between atoms: C_3  and  C_41
    4  A    between atoms: C_3  and  O_54
    5  A    between atoms: C_4  and  C_8
    6  A    between atoms: C_4  and  N_47
    7  A    between atoms: N_9  and  C_16
    8  A    between atoms: C_12  and  C_16
    9  A    between atoms: C_12  and  S_59
   10  A    between atoms: C_14  and  C_33
   11  A    between atoms: C_14  and  C_49
   12  A    between atoms: C_16  and  N_47
   13  A    between atoms: N_19  and  C_35
   14  A    between atoms: N_19  and  C_48
   15  A    between atoms: C_23  and  N_26
   16  A    between atoms: C_27  and  C_29
   17  A    between atoms: C_29  and  C_56
   18  A    between atoms: C_31  and  C_40
   19  A    between atoms: C_31  and  C_41
   20  A    between atoms: C_34  and  C_56
   21  A    between atoms: N_44  and  P_45
   22  A    between atoms: C_49  and  S_59
                            x       y       z     vdW  Elec       q    Type
                         _______ _______ _______ _____ _____    ______ ____

>  <TORSDO>
F 22

$$$$
=
 OpenBabel11042412463D

 59 63  0  0  1  0  0  0  0  0999 V2000
  183.5800  176.6300  137.0300 N   0  0  0  0  0  2  0  0  0  0  0  0
  181.6370  177.8820  136.4840 N   0  0  0  0  0  0  0  0  0  0  0  0
  182.8420  181.0940  138.8140 N   0  0  0  0  0  1  0  0  0  0  0  0
  182.8680  178.5850  138.4630 C   0  0  2  0  0  3  0  0  0  0  0  0
  180.6380  178.9150  136.7620 C   0  0  0  0  0  2  0  0  0  0  0  0
  182.2740  179.9450  138.2000 C   0  0  0  0  0  0  0  0  0  0  0  0
  182.6610  177.7000  137.2660 C   0  0  0  0  0  0  0  0  0  0  0  0
  181.2650  180.0770  137.3920 N   0  0  0  0  0  0  0  0  0  0  0  0
  182.2300  177.9770  139.6220 N   0  0  0  0  0  2  0  0  0  0  0  0
  183.4690  178.7750  143.5970 C   0  0  0  0  0  0  0  0  0  0  0  0
  181.7050  178.6910  141.9260 C   0  0  0  0  0  3  0  0  0  0  0  0
  183.9590  178.0410  141.3330 C   0  0  0  0  0  3  0  0  0  0  0  0
  182.1270  178.9600  143.2330 C   0  0  0  0  0  3  0  0  0  0  0  0
  182.6240  178.2300  140.9720 C   0  0  0  0  0  0  0  0  0  0  0  0
  184.3790  178.3120  142.6380 C   0  0  0  0  0  3  0  0  0  0  0  0
  183.1280  178.9800  145.9350 O   0  0  0  0  0  0  0  0  0  0  0  0
  183.9300  179.0750  144.9660 C   0  0  0  0  0  0  0  0  0  0  0  0
  185.3320  179.5270  145.2370 C   0  0  0  0  0  2  0  0  0  0  0  0
  185.5260  177.7260  146.7740 O   0  0  0  0  0  0  0  0  0  0  0  0
  186.1030  178.5330  146.0560 C   0  0  0  0  0  0  0  0  0  0  0  0
  191.7060  176.1700  146.8550 C   0  0  0  0  0  2  0  0  0  0  0  0
  189.4020  176.7940  146.5280 C   0  0  2  0  0  3  0  0  0  0  0  0
  188.6080  178.4660  148.0800 O   0  0  0  0  0  1  0  0  0  0  0  0
  189.5010  177.8980  144.2740 C   0  0  2  0  0  3  0  0  0  0  0  0
  187.5910  178.4780  145.9150 C   0  0  1  0  0  3  0  0  0  0  0  0
  191.5730  176.9050  145.5220 C   0  0  0  0  0  2  0  0  0  0  0  0
  190.2410  177.6240  145.5990 C   0  0  2  0  0  3  0  0  0  0  0  0
  188.2130  177.6220  147.0400 C   0  0  1  0  0  3  0  0  0  0  0  0
  187.9750  178.0120  144.4970 C   0  0  0  0  0  2  0  0  0  0  0  0
  190.3710  176.3030  147.5820 C   0  0  0  0  0  2  0  0  0  0  0  0
  189.4150  177.2870  141.9070 C   0  0  1  0  0  0  0  0  0  0  0  0
  188.4780  176.4800  142.6610 C   0  0  0  0  0  2  0  0  0  0  0  0
  189.7750  176.8550  143.2790 N   0  0  2  0  0  0  0  0  0  0  0  0
  190.2210  176.6100  140.8180 C   0  0  0  0  0  1  0  0  0  0  0  0
  189.0820  178.6380  141.7630 O   0  0  0  0  0  1  0  0  0  0  0  0
  183.3540  175.5800  136.0450 C   0  0  2  0  0  3  0  0  0  0  0  0
  182.9010  174.3650  136.7110 N   0  0  0  0  0  2  0  0  0  0  0  0
  181.5020  174.1620  136.3730 C   0  0  0  0  0  2  0  0  0  0  0  0
  179.9870  172.4200  136.8720 F   0  0  0  0  0  0  0  0  0  0  0  0
  181.2060  172.6830  136.2730 C   0  0  0  0  0  3  0  0  0  0  0  0
  182.1960  171.9610  136.9120 F   0  0  0  0  0  0  0  0  0  0  0  0
  184.6380  175.3160  135.2590 C   0  0  0  0  0  2  0  0  0  0  0  0
  185.4620  173.7850  135.8070 S   0  0  0  0  0  0  0  0  0  0  0  0
  186.7620  174.7150  136.6630 C   0  0  0  0  0  2  0  0  0  0  0  0
  187.2570  175.8300  135.7650 C   0  0  0  0  0  2  0  0  0  0  0  0
  188.7250  175.6210  135.4330 C   0  0  0  0  0  2  0  0  0  0  0  0
  189.6250  176.2950  136.4750 C   0  0  1  0  0  3  0  0  0  0  0  0
  189.0090  178.2740  137.4900 C   0  0  0  0  0  1  0  0  0  0  0  0
  188.9160  176.8730  137.5560 O   0  0  0  0  0  0  0  0  0  0  0  0
  190.8370  175.4320  136.8870 C   0  0  2  0  0  3  0  0  0  0  0  0
  190.5330  174.5560  137.9310 O   0  0  0  0  0  1  0  0  0  0  0  0
  191.9070  177.1430  138.2150 O   0  0  0  0  0  1  0  0  0  0  0  0
  192.1160  176.2220  137.1850 C   0  0  1  0  0  3  0  0  0  0  0  0
  193.3110  175.3560  137.4670 C   0  0  0  0  0  3  0  0  0  0  0  0
  194.4600  175.6260  136.9610 N   0  0  0  0  0  0  0  0  0  0  0  0
  197.0570  175.1600  136.6280 O   0  0  0  0  0  0  0  0  0  0  0  0
  196.0920  174.6290  139.0000 O   0  0  0  0  0  1  0  0  0  0  0  0
  195.5280  173.0430  136.8130 O   0  0  0  0  0  1  0  0  0  0  0  0
  195.8310  174.6250  137.3300 P   0  0  0  0  0  0  0  0  0  0  0  0
  1  7  1  0  0  0  0
  2  5  1  0  0  0  0
  2  7  2  0  0  0  0
  4  9  1  1  0  0  0
  5  8  1  0  0  0  0
  6  4  1  0  0  0  0
  6  3  1  0  0  0  0
  7  4  1  0  0  0  0
  8  6  2  0  0  0  0
  9 14  1  0  0  0  0
 10 17  1  0  0  0  0
 11 13  2  0  0  0  0
 12 15  1  0  0  0  0
 13 10  1  0  0  0  0
 14 12  2  0  0  0  0
 14 11  1  0  0  0  0
 15 10  2  0  0  0  0
 17 18  1  0  0  0  0
 17 16  2  0  0  0  0
 18 20  1  0  0  0  0
 20 19  2  0  0  0  0
 21 30  1  0  0  0  0
 22 28  1  0  0  0  0
 22 30  1  1  0  0  0
 24 29  1  1  0  0  0
 24 27  1  0  0  0  0
 25 20  1  6  0  0  0
 25 28  1  0  0  0  0
 26 21  1  0  0  0  0
 27 26  1  6  0  0  0
 27 22  1  0  0  0  0
 28 23  1  1  0  0  0
 29 25  1  0  0  0  0
 31 34  1  6  0  0  0
 31 32  1  0  0  0  0
 31 33  1  0  0  0  0
 33 32  1  1  0  0  0
 33 24  1  0  0  0  0
 35 31  1  0  0  0  0
 36 42  1  1  0  0  0
 36 37  1  0  0  0  0
 36  1  1  0  0  0  0
 38 37  1  0  0  0  0
 40 38  1  0  0  0  0
 40 39  1  0  0  0  0
 40 41  1  0  0  0  0
 42 43  1  0  0  0  0
 43 44  1  0  0  0  0
 45 44  1  0  0  0  0
 46 45  1  0  0  0  0
 47 46  1  1  0  0  0
 47 50  1  0  0  0  0
 47 49  1  0  0  0  0
 48 49  1  0  0  0  0
 50 53  1  0  0  0  0
 50 51  1  1  0  0  0
 53 54  1  0  0  0  0
 53 52  1  1  0  0  0
 55 59  1  0  0  0  0
 55 54  2  0  0  0  0
 56 59  2  0  0  0  0
 58 59  1  0  0  0  0
 59 57  1  0  0  0  0
M  END
>  <MODEL>
3

>  <REMARK>
 VINA RESULT:      -7.0      3.803      8.358
  Name = 
  22 active torsions:
  status: ('A' for Active; 'I' for Inactive)
    1  A    between atoms: C_1  and  C_34
    2  A    between atoms: C_3  and  C_33
    3  A    between atoms: C_3  and  C_41
    4  A    between atoms: C_3  and  O_54
    5  A    between atoms: C_4  and  C_8
    6  A    between atoms: C_4  and  N_47
    7  A    between atoms: N_9  and  C_16
    8  A    between atoms: C_12  and  C_16
    9  A    between atoms: C_12  and  S_59
   10  A    between atoms: C_14  and  C_33
   11  A    between atoms: C_14  and  C_49
   12  A    between atoms: C_16  and  N_47
   13  A    between atoms: N_19  and  C_35
   14  A    between atoms: N_19  and  C_48
   15  A    between atoms: C_23  and  N_26
   16  A    between atoms: C_27  and  C_29
   17  A    between atoms: C_29  and  C_56
   18  A    between atoms: C_31  and  C_40
   19  A    between atoms: C_31  and  C_41
   20  A    between atoms: C_34  and  C_56
   21  A    between atoms: N_44  and  P_45
   22  A    between atoms: C_49  and  S_59
                            x       y       z     vdW  Elec       q    Type
                         _______ _______ _______ _____ _____    ______ ____

>  <TORSDO>
F 22

$$$$
=
 OpenBabel11042412463D

 59 63  0  0  1  0  0  0  0  0999 V2000
  189.0280  174.5760  136.9540 N   0  0  0  0  0  2  0  0  0  0  0  0
  190.5720  175.3030  135.3010 N   0  0  0  0  0  0  0  0  0  0  0  0
  193.3310  176.4970  138.1580 N   0  0  0  0  0  1  0  0  0  0  0  0
  190.8930  176.1720  137.5530 C   0  0  2  0  0  3  0  0  0  0  0  0
  191.6880  176.1310  134.8430 C   0  0  0  0  0  2  0  0  0  0  0  0
  192.3380  176.3270  137.1550 C   0  0  0  0  0  0  0  0  0  0  0  0
  190.1750  175.3230  136.5410 C   0  0  0  0  0  0  0  0  0  0  0  0
  192.6860  176.2780  135.9040 N   0  0  0  0  0  0  0  0  0  0  0  0
  190.2500  177.4770  137.6210 N   0  0  0  0  0  2  0  0  0  0  0  0
  186.8240  178.3610  139.9560 C   0  0  0  0  0  0  0  0  0  0  0  0
  187.8090  177.7940  137.8070 C   0  0  0  0  0  3  0  0  0  0  0  0
  189.2210  178.0110  139.7590 C   0  0  0  0  0  3  0  0  0  0  0  0
  186.6860  178.0950  138.5850 C   0  0  0  0  0  3  0  0  0  0  0  0
  189.0820  177.7510  138.3950 C   0  0  0  0  0  0  0  0  0  0  0  0
  188.0990  178.3140  140.5360 C   0  0  0  0  0  3  0  0  0  0  0  0
  185.0690  179.8080  140.6250 O   0  0  0  0  0  0  0  0  0  0  0  0
  185.6500  178.7010  140.7820 C   0  0  0  0  0  0  0  0  0  0  0  0
  185.1430  177.7690  141.8400 C   0  0  0  0  0  2  0  0  0  0  0  0
  183.9220  178.8000  143.5970 O   0  0  0  0  0  0  0  0  0  0  0  0
  185.0130  178.4410  143.1760 C   0  0  0  0  0  0  0  0  0  0  0  0
  188.4510  177.5970  148.1850 C   0  0  0  0  0  2  0  0  0  0  0  0
  186.9860  177.6330  146.2720 C   0  0  2  0  0  3  0  0  0  0  0  0
  185.6410  179.6320  146.1030 O   0  0  0  0  0  1  0  0  0  0  0  0
  188.6400  177.7190  144.3830 C   0  0  2  0  0  3  0  0  0  0  0  0
  186.2300  178.5860  144.0340 C   0  0  1  0  0  3  0  0  0  0  0  0
  189.2940  177.6890  146.9140 C   0  0  0  0  0  2  0  0  0  0  0  0
  188.3320  178.1400  145.8340 C   0  0  2  0  0  3  0  0  0  0  0  0
  185.8740  178.3830  145.5230 C   0  0  1  0  0  3  0  0  0  0  0  0
  187.3500  177.6540  143.5310 C   0  0  0  0  0  2  0  0  0  0  0  0
  186.9930  177.7870  147.7780 C   0  0  0  0  0  2  0  0  0  0  0  0
  190.6500  176.5210  143.6700 C   0  0  1  0  0  0  0  0  0  0  0  0
  189.5070  176.0720  142.9020 C   0  0  0  0  0  2  0  0  0  0  0  0
  189.3270  176.4230  144.3330 N   0  0  2  0  0  0  0  0  0  0  0  0
  191.6480  175.4800  144.1350 C   0  0  0  0  0  1  0  0  0  0  0  0
  191.1000  177.8170  143.3980 O   0  0  0  0  0  1  0  0  0  0  0  0
  188.1280  173.9070  136.0230 C   0  0  2  0  0  3  0  0  0  0  0  0
  188.8960  173.2940  134.9470 N   0  0  0  0  0  2  0  0  0  0  0  0
  189.0890  171.8900  135.2750 C   0  0  0  0  0  2  0  0  0  0  0  0
  187.8520  171.4480  137.2370 F   0  0  0  0  0  0  0  0  0  0  0  0
  187.8170  171.3200  135.8600 C   0  0  0  0  0  3  0  0  0  0  0  0
  187.7040  169.9840  135.5270 F   0  0  0  0  0  0  0  0  0  0  0  0
  187.1190  174.9070  135.4610 C   0  0  0  0  0  2  0  0  0  0  0  0
  185.4220  174.2440  135.4900 S   0  0  0  0  0  0  0  0  0  0  0  0
  184.9390  175.3630  136.8330 C   0  0  0  0  0  2  0  0  0  0  0  0
  183.9640  174.6540  137.7500 C   0  0  0  0  0  2  0  0  0  0  0  0
  183.2750  173.5220  137.0070 C   0  0  0  0  0  2  0  0  0  0  0  0
  181.7720  173.7890  136.8720 C   0  0  1  0  0  3  0  0  0  0  0  0
  181.8830  171.5710  136.2420 C   0  0  0  0  0  1  0  0  0  0  0  0
  181.0370  172.6840  136.3770 O   0  0  0  0  0  0  0  0  0  0  0  0
  181.1550  174.4690  138.1120 C   0  0  2  0  0  3  0  0  0  0  0  0
  180.1270  173.7110  138.6760 O   0  0  0  0  0  1  0  0  0  0  0  0
  179.4340  175.9780  137.3410 O   0  0  0  0  0  1  0  0  0  0  0  0
  180.7150  175.9210  137.8970 C   0  0  1  0  0  3  0  0  0  0  0  0
  180.8070  176.7720  139.1320 C   0  0  0  0  0  3  0  0  0  0  0  0
  179.7730  177.3690  139.6050 N   0  0  0  0  0  0  0  0  0  0  0  0
  179.4090  177.5220  142.2360 O   0  0  0  0  0  1  0  0  0  0  0  0
  181.5210  178.7480  141.2960 O   0  0  0  0  0  1  0  0  0  0  0  0
  178.9710  179.7240  140.8880 O   0  0  0  0  0  0  0  0  0  0  0  0
  179.9040  178.3210  141.0520 P   0  0  0  0  0  0  0  0  0  0  0  0
  2  7  2  0  0  0  0
  4  9  1  6  0  0  0
  5  2  1  0  0  0  0
  5  8  1  0  0  0  0
  6  4  1  0  0  0  0
  6  3  1  0  0  0  0
  7  1  1  0  0  0  0
  7  4  1  0  0  0  0
  8  6  2  0  0  0  0
  9 14  1  0  0  0  0
 10 15  1  0  0  0  0
 10 17  1  0  0  0  0
 11 14  2  0  0  0  0
 11 13  1  0  0  0  0
 12 15  2  0  0  0  0
 13 10  2  0  0  0  0
 14 12  1  0  0  0  0
 16 17  2  0  0  0  0
 17 18  1  0  0  0  0
 18 20  1  0  0  0  0
 20 19  2  0  0  0  0
 22 30  1  1  0  0  0
 24 29  1  6  0  0  0
 24 27  1  0  0  0  0
 25 20  1  6  0  0  0
 25 28  1  0  0  0  0
 26 21  1  0  0  0  0
 27 22  1  0  0  0  0
 27 26  1  1  0  0  0
 28 23  1  1  0  0  0
 28 22  1  0  0  0  0
 29 25  1  0  0  0  0
 30 21  1  0  0  0  0
 31 34  1  1  0  0  0
 31 33  1  0  0  0  0
 32 31  1  0  0  0  0
 33 32  1  6  0  0  0
 33 24  1  0  0  0  0
 35 31  1  0  0  0  0
 36 42  1  6  0  0  0
 36  1  1  0  0  0  0
 37 38  1  0  0  0  0
 37 36  1  0  0  0  0
 38 40  1  0  0  0  0
 40 39  1  0  0  0  0
 41 40  1  0  0  0  0
 42 43  1  0  0  0  0
 43 44  1  0  0  0  0
 44 45  1  0  0  0  0
 46 45  1  0  0  0  0
 47 46  1  1  0  0  0
 47 50  1  0  0  0  0
 48 49  1  0  0  0  0
 49 47  1  0  0  0  0
 50 51  1  6  0  0  0
 53 52  1  1  0  0  0
 53 50  1  0  0  0  0
 53 54  1  0  0  0  0
 54 55  2  0  0  0  0
 55 59  1  0  0  0  0
 58 59  2  0  0  0  0
 59 57  1  0  0  0  0
 59 56  1  0  0  0  0
M  END
>  <MODEL>
4

>  <REMARK>
 VINA RESULT:      -7.0      4.323     10.011
  Name = 
  22 active torsions:
  status: ('A' for Active; 'I' for Inactive)
    1  A    between atoms: C_1  and  C_34
    2  A    between atoms: C_3  and  C_33
    3  A    between atoms: C_3  and  C_41
    4  A    between atoms: C_3  and  O_54
    5  A    between atoms: C_4  and  C_8
    6  A    between atoms: C_4  and  N_47
    7  A    between atoms: N_9  and  C_16
    8  A    between atoms: C_12  and  C_16
    9  A    between atoms: C_12  and  S_59
   10  A    between atoms: C_14  and  C_33
   11  A    between atoms: C_14  and  C_49
   12  A    between atoms: C_16  and  N_47
   13  A    between atoms: N_19  and  C_35
   14  A    between atoms: N_19  and  C_48
   15  A    between atoms: C_23  and  N_26
   16  A    between atoms: C_27  and  C_29
   17  A    between atoms: C_29  and  C_56
   18  A    between atoms: C_31  and  C_40
   19  A    between atoms: C_31  and  C_41
   20  A    between atoms: C_34  and  C_56
   21  A    between atoms: N_44  and  P_45
   22  A    between atoms: C_49  and  S_59
                            x       y       z     vdW  Elec       q    Type
                         _______ _______ _______ _____ _____    ______ ____

>  <TORSDO>
F 22

$$$$
=
 OpenBabel11042412463D

 59 63  0  0  1  0  0  0  0  0999 V2000
  188.5240  176.7510  144.4040 N   0  0  0  0  0  2  0  0  0  0  0  0
  188.6000  178.1840  146.2970 N   0  0  0  0  0  0  0  0  0  0  0  0
  184.6150  177.4790  147.2070 N   0  0  0  0  0  1  0  0  0  0  0  0
  186.3930  177.6620  145.4110 C   0  0  2  0  0  3  0  0  0  0  0  0
  187.9740  179.0690  147.2800 C   0  0  0  0  0  2  0  0  0  0  0  0
  185.9010  177.9360  146.8090 C   0  0  0  0  0  0  0  0  0  0  0  0
  187.8910  177.5430  145.4130 C   0  0  0  0  0  0  0  0  0  0  0  0
  186.6560  178.5610  147.6620 N   0  0  0  0  0  0  0  0  0  0  0  0
  186.0030  178.7480  144.5220 N   0  0  0  0  0  2  0  0  0  0  0  0
  182.7610  178.5960  141.7950 C   0  0  0  0  0  0  0  0  0  0  0  0
  185.1210  178.2610  142.2690 C   0  0  0  0  0  3  0  0  0  0  0  0
  183.6410  179.0370  144.0170 C   0  0  0  0  0  3  0  0  0  0  0  0
  184.0460  178.2230  141.3740 C   0  0  0  0  0  3  0  0  0  0  0  0
  184.9200  178.6690  143.5950 C   0  0  0  0  0  0  0  0  0  0  0  0
  182.5670  179.0010  143.1230 C   0  0  0  0  0  3  0  0  0  0  0  0
  180.9920  179.6450  140.6150 O   0  0  0  0  0  0  0  0  0  0  0  0
  181.6230  178.5810  140.8560 C   0  0  0  0  0  0  0  0  0  0  0  0
  181.1700  177.3130  140.1980 C   0  0  0  0  0  2  0  0  0  0  0  0
  182.2270  177.9690  138.1740 O   0  0  0  0  0  0  0  0  0  0  0  0
  181.8970  177.0500  138.9110 C   0  0  0  0  0  0  0  0  0  0  0  0
  181.9480  171.8940  135.5890 C   0  0  0  0  0  2  0  0  0  0  0  0
  181.9020  174.0750  136.6130 C   0  0  2  0  0  3  0  0  0  0  0  0
  180.3480  174.2620  138.4530 O   0  0  0  0  0  1  0  0  0  0  0  0
  184.2070  174.2060  137.6050 C   0  0  2  0  0  3  0  0  0  0  0  0
  182.2950  175.6470  138.5800 C   0  0  1  0  0  3  0  0  0  0  0  0
  183.2820  172.1430  136.2910 C   0  0  0  0  0  2  0  0  0  0  0  0
  183.0190  173.2910  137.2440 C   0  0  2  0  0  3  0  0  0  0  0  0
  181.2440  174.9840  137.6620 C   0  0  1  0  0  3  0  0  0  0  0  0
  183.7250  175.6200  138.0040 C   0  0  0  0  0  2  0  0  0  0  0  0
  181.0070  173.0270  135.9880 C   0  0  0  0  0  2  0  0  0  0  0  0
  186.4290  173.5920  136.7870 C   0  0  1  0  0  0  0  0  0  0  0  0
  186.3600  175.0220  137.0080 C   0  0  0  0  0  2  0  0  0  0  0  0
  185.1630  174.3080  136.4970 N   0  0  2  0  0  0  0  0  0  0  0  0
  187.1520  173.0970  135.5510 C   0  0  0  0  0  1  0  0  0  0  0  0
  186.4260  172.7930  137.9350 O   0  0  0  0  0  1  0  0  0  0  0  0
  189.9620  176.7470  144.1710 C   0  0  2  0  0  3  0  0  0  0  0  0
  190.6560  177.2440  145.3520 N   0  0  0  0  0  2  0  0  0  0  0  0
  191.7710  176.3520  145.6280 C   0  0  0  0  0  2  0  0  0  0  0  0
  192.9680  175.2950  147.3680 F   0  0  0  0  0  0  0  0  0  0  0  0
  191.9280  176.1720  147.1210 C   0  0  0  0  0  3  0  0  0  0  0  0
  190.7610  175.6640  147.6590 F   0  0  0  0  0  0  0  0  0  0  0  0
  190.2970  177.6030  142.9500 C   0  0  0  0  0  2  0  0  0  0  0  0
  188.8050  178.0280  141.9940 S   0  0  0  0  0  0  0  0  0  0  0  0
  189.3510  177.0360  140.5790 C   0  0  0  0  0  2  0  0  0  0  0  0
  188.6020  177.4760  139.3380 C   0  0  0  0  0  2  0  0  0  0  0  0
  189.5830  177.9090  138.2610 C   0  0  0  0  0  2  0  0  0  0  0  0
  189.2490  177.2520  136.9170 C   0  0  1  0  0  3  0  0  0  0  0  0
  187.4340  178.4430  136.1340 C   0  0  0  0  0  1  0  0  0  0  0  0
  188.7960  178.1630  135.9320 O   0  0  0  0  0  0  0  0  0  0  0  0
  190.3300  176.2640  136.4330 C   0  0  2  0  0  3  0  0  0  0  0  0
  189.8910  175.4790  135.3650 O   0  0  0  0  0  1  0  0  0  0  0  0
  190.3040  174.1600  137.6200 O   0  0  0  0  0  1  0  0  0  0  0  0
  190.9490  175.3970  137.5350 C   0  0  1  0  0  3  0  0  0  0  0  0
  192.4360  175.2240  137.4090 C   0  0  0  0  0  3  0  0  0  0  0  0
  193.0120  174.1380  137.7770 N   0  0  0  0  0  0  0  0  0  0  0  0
  195.3660  175.3100  137.3770 O   0  0  0  0  0  1  0  0  0  0  0  0
  195.3710  173.2450  138.9830 O   0  0  0  0  0  1  0  0  0  0  0  0
  195.0470  172.9650  136.2560 O   0  0  0  0  0  0  0  0  0  0  0  0
  194.7290  173.9560  137.5900 P   0  0  0  0  0  0  0  0  0  0  0  0
  1  7  1  0  0  0  0
  2  5  1  0  0  0  0
  4  9  1  6  0  0  0
  4  7  1  0  0  0  0
  4  6  1  0  0  0  0
  5  8  1  0  0  0  0
  6  3  1  0  0  0  0
  6  8  2  0  0  0  0
  7  2  2  0  0  0  0
 10 15  1  0  0  0  0
 11 14  2  0  0  0  0
 13 10  2  0  0  0  0
 13 11  1  0  0  0  0
 14 12  1  0  0  0  0
 14  9  1  0  0  0  0
 15 12  2  0  0  0  0
 16 17  2  0  0  0  0
 17 10  1  0  0  0  0
 18 17  1  0  0  0  0
 19 20  2  0  0  0  0
 20 18  1  0  0  0  0
 21 30  1  0  0  0  0
 21 26  1  0  0  0  0
 22 30  1  1  0  0  0
 22 27  1  0  0  0  0
 22 28  1  0  0  0  0
 24 29  1  6  0  0  0
 25 20  1  6  0  0  0
 27 26  1  6  0  0  0
 27 24  1  0  0  0  0
 28 23  1  1  0  0  0
 28 25  1  0  0  0  0
 29 25  1  0  0  0  0
 31 34  1  6  0  0  0
 31 32  1  0  0  0  0
 31 35  1  0  0  0  0
 33 31  1  0  0  0  0
 33 32  1  1  0  0  0
 33 24  1  0  0  0  0
 36 42  1  6  0  0  0
 36  1  1  0  0  0  0
 36 37  1  0  0  0  0
 37 38  1  0  0  0  0
 38 40  1  0  0  0  0
 40 39  1  0  0  0  0
 40 41  1  0  0  0  0
 43 42  1  0  0  0  0
 44 43  1  0  0  0  0
 45 44  1  0  0  0  0
 46 45  1  0  0  0  0
 47 46  1  1  0  0  0
 49 48  1  0  0  0  0
 49 47  1  0  0  0  0
 50 51  1  6  0  0  0
 50 47  1  0  0  0  0
 50 53  1  0  0  0  0
 53 52  1  6  0  0  0
 54 53  1  0  0  0  0
 54 55  2  0  0  0  0
 56 59  1  0  0  0  0
 58 59  2  0  0  0  0
 59 55  1  0  0  0  0
 59 57  1  0  0  0  0
M  END
>  <MODEL>
5

>  <REMARK>
 VINA RESULT:      -6.8      1.783      3.008
  Name = 
  22 active torsions:
  status: ('A' for Active; 'I' for Inactive)
    1  A    between atoms: C_1  and  C_34
    2  A    between atoms: C_3  and  C_33
    3  A    between atoms: C_3  and  C_41
    4  A    between atoms: C_3  and  O_54
    5  A    between atoms: C_4  and  C_8
    6  A    between atoms: C_4  and  N_47
    7  A    between atoms: N_9  and  C_16
    8  A    between atoms: C_12  and  C_16
    9  A    between atoms: C_12  and  S_59
   10  A    between atoms: C_14  and  C_33
   11  A    between atoms: C_14  and  C_49
   12  A    between atoms: C_16  and  N_47
   13  A    between atoms: N_19  and  C_35
   14  A    between atoms: N_19  and  C_48
   15  A    between atoms: C_23  and  N_26
   16  A    between atoms: C_27  and  C_29
   17  A    between atoms: C_29  and  C_56
   18  A    between atoms: C_31  and  C_40
   19  A    between atoms: C_31  and  C_41
   20  A    between atoms: C_34  and  C_56
   21  A    between atoms: N_44  and  P_45
   22  A    between atoms: C_49  and  S_59
                            x       y       z     vdW  Elec       q    Type
                         _______ _______ _______ _____ _____    ______ ____

>  <TORSDO>
F 22

$$$$
=
 OpenBabel11042412463D

 59 63  0  0  1  0  0  0  0  0999 V2000
  183.7780  177.8490  138.1950 N   0  0  0  0  0  2  0  0  0  0  0  0
  181.7050  178.1510  137.0730 N   0  0  0  0  0  0  0  0  0  0  0  0
  181.2100  181.9560  138.6480 N   0  0  0  0  0  1  0  0  0  0  0  0
  182.1500  179.6240  138.9600 C   0  0  2  0  0  3  0  0  0  0  0  0
  180.3840  178.7640  136.9310 C   0  0  0  0  0  2  0  0  0  0  0  0
  181.2130  180.5840  138.2740 C   0  0  0  0  0  0  0  0  0  0  0  0
  182.5260  178.5180  138.0140 C   0  0  0  0  0  0  0  0  0  0  0  0
  180.4280  180.1730  137.3240 N   0  0  0  0  0  0  0  0  0  0  0  0
  181.5060  179.0500  140.1330 N   0  0  0  0  0  2  0  0  0  0  0  0
  183.4660  178.6880  143.8750 C   0  0  0  0  0  0  0  0  0  0  0  0
  181.4310  179.0690  142.6010 C   0  0  0  0  0  3  0  0  0  0  0  0
  183.5130  178.6380  141.4460 C   0  0  0  0  0  3  0  0  0  0  0  0
  182.0900  178.9570  143.8300 C   0  0  0  0  0  3  0  0  0  0  0  0
  182.1440  178.9090  141.4030 C   0  0  0  0  0  0  0  0  0  0  0  0
  184.1700  178.5270  142.6740 C   0  0  0  0  0  3  0  0  0  0  0  0
  183.8000  179.2850  146.1450 O   0  0  0  0  0  0  0  0  0  0  0  0
  184.1760  178.5880  145.1650 C   0  0  0  0  0  0  0  0  0  0  0  0
  185.3660  177.6940  145.3340 C   0  0  0  0  0  2  0  0  0  0  0  0
  185.7910  178.3920  147.5650 O   0  0  0  0  0  0  0  0  0  0  0  0
  186.2540  178.1360  146.4610 C   0  0  0  0  0  0  0  0  0  0  0  0
  192.0230  176.1050  146.9250 C   0  0  0  0  0  2  0  0  0  0  0  0
  189.6710  176.5930  146.7280 C   0  0  2  0  0  3  0  0  0  0  0  0
  188.8600  178.1850  148.3540 O   0  0  0  0  0  1  0  0  0  0  0  0
  189.5880  177.7410  144.4950 C   0  0  2  0  0  3  0  0  0  0  0  0
  187.7330  178.1740  146.2440 C   0  0  1  0  0  3  0  0  0  0  0  0
  191.7770  176.8540  145.6160 C   0  0  0  0  0  2  0  0  0  0  0  0
  190.4100  177.4890  145.7750 C   0  0  2  0  0  3  0  0  0  0  0  0
  188.4630  177.3380  147.3180 C   0  0  1  0  0  3  0  0  0  0  0  0
  188.0710  177.7580  144.7980 C   0  0  0  0  0  2  0  0  0  0  0  0
  190.7220  176.1430  147.7210 C   0  0  0  0  0  2  0  0  0  0  0  0
  189.5420  177.2240  142.1050 C   0  0  1  0  0  0  0  0  0  0  0  0
  188.5830  176.3970  142.8090 C   0  0  0  0  0  2  0  0  0  0  0  0
  189.8710  176.7350  143.4670 N   0  0  2  0  0  0  0  0  0  0  0  0
  190.3640  176.5810  141.0070 C   0  0  0  0  0  1  0  0  0  0  0  0
  189.2250  178.5830  142.0080 O   0  0  0  0  0  1  0  0  0  0  0  0
  184.1430  176.6270  137.4910 C   0  0  2  0  0  3  0  0  0  0  0  0
  185.5590  176.6580  137.1480 N   0  0  0  0  0  2  0  0  0  0  0  0
  186.1060  177.9250  137.6060 C   0  0  0  0  0  2  0  0  0  0  0  0
  187.7090  177.5670  139.3020 F   0  0  0  0  0  0  0  0  0  0  0  0
  187.5710  177.7620  137.9400 C   0  0  0  0  0  3  0  0  0  0  0  0
  188.2680  178.8950  137.5660 F   0  0  0  0  0  0  0  0  0  0  0  0
  183.2890  176.4730  136.2330 C   0  0  0  0  0  2  0  0  0  0  0  0
  182.2830  174.9550  136.2810 S   0  0  0  0  0  0  0  0  0  0  0  0
  182.7860  174.4910  134.6030 C   0  0  0  0  0  2  0  0  0  0  0  0
  183.2730  173.0570  134.6020 C   0  0  0  0  0  2  0  0  0  0  0  0
  183.3010  172.5140  136.0210 C   0  0  0  0  0  2  0  0  0  0  0  0
  184.4130  171.4720  136.1890 C   0  0  1  0  0  3  0  0  0  0  0  0
  182.6780  170.0050  135.7880 C   0  0  0  0  0  1  0  0  0  0  0  0
  184.0690  170.1850  135.7100 O   0  0  0  0  0  0  0  0  0  0  0  0
  185.8000  171.9780  135.7380 C   0  0  2  0  0  3  0  0  0  0  0  0
  186.7400  170.9480  135.6630 O   0  0  0  0  0  1  0  0  0  0  0  0
  186.1300  172.9820  137.9100 O   0  0  0  0  0  1  0  0  0  0  0  0
  186.3440  173.1640  136.5410 C   0  0  1  0  0  3  0  0  0  0  0  0
  187.7850  173.4790  136.2560 C   0  0  0  0  0  3  0  0  0  0  0  0
  188.3990  174.4090  136.8930 N   0  0  0  0  0  0  0  0  0  0  0  0
  190.5920  173.7460  135.5410 O   0  0  0  0  0  0  0  0  0  0  0  0
  190.2340  176.3030  135.9640 O   0  0  0  0  0  1  0  0  0  0  0  0
  190.9670  174.5810  137.9930 O   0  0  0  0  0  1  0  0  0  0  0  0
  190.0740  174.7300  136.5640 P   0  0  0  0  0  0  0  0  0  0  0  0
  2  7  2  0  0  0  0
  4  9  1  1  0  0  0
  5  2  1  0  0  0  0
  5  8  1  0  0  0  0
  6  3  1  0  0  0  0
  6  4  1  0  0  0  0
  7  1  1  0  0  0  0
  7  4  1  0  0  0  0
  8  6  2  0  0  0  0
  9 14  1  0  0  0  0
 10 17  1  0  0  0  0
 11 13  2  0  0  0  0
 12 15  1  0  0  0  0
 13 10  1  0  0  0  0
 14 12  2  0  0  0  0
 14 11  1  0  0  0  0
 15 10  2  0  0  0  0
 17 18  1  0  0  0  0
 17 16  2  0  0  0  0
 18 20  1  0  0  0  0
 20 19  2  0  0  0  0
 21 30  1  0  0  0  0
 22 28  1  0  0  0  0
 22 30  1  1  0  0  0
 24 29  1  1  0  0  0
 24 27  1  0  0  0  0
 25 20  1  1  0  0  0
 25 28  1  0  0  0  0
 26 21  1  0  0  0  0
 27 26  1  6  0  0  0
 27 22  1  0  0  0  0
 28 23  1  1  0  0  0
 29 25  1  0  0  0  0
 31 34  1  6  0  0  0
 31 32  1  0  0  0  0
 31 33  1  0  0  0  0
 33 32  1  1  0  0  0
 33 24  1  0  0  0  0
 35 31  1  0  0  0  0
 36 42  1  6  0  0  0
 36  1  1  0  0  0  0
 37 36  1  0  0  0  0
 37 38  1  0  0  0  0
 38 40  1  0  0  0  0
 40 39  1  0  0  0  0
 41 40  1  0  0  0  0
 42 43  1  0  0  0  0
 44 43  1  0  0  0  0
 45 44  1  0  0  0  0
 45 46  1  0  0  0  0
 47 46  1  6  0  0  0
 49 48  1  0  0  0  0
 49 47  1  0  0  0  0
 50 51  1  1  0  0  0
 50 47  1  0  0  0  0
 50 53  1  0  0  0  0
 53 52  1  1  0  0  0
 54 53  1  0  0  0  0
 54 55  2  0  0  0  0
 56 59  2  0  0  0  0
 57 59  1  0  0  0  0
 59 55  1  0  0  0  0
 59 58  1  0  0  0  0
M  END
>  <MODEL>
6

>  <REMARK>
 VINA RESULT:      -6.7      3.672      8.465
  Name = 
  22 active torsions:
  status: ('A' for Active; 'I' for Inactive)
    1  A    between atoms: C_1  and  C_34
    2  A    between atoms: C_3  and  C_33
    3  A    between atoms: C_3  and  C_41
    4  A    between atoms: C_3  and  O_54
    5  A    between atoms: C_4  and  C_8
    6  A    between atoms: C_4  and  N_47
    7  A    between atoms: N_9  and  C_16
    8  A    between atoms: C_12  and  C_16
    9  A    between atoms: C_12  and  S_59
   10  A    between atoms: C_14  and  C_33
   11  A    between atoms: C_14  and  C_49
   12  A    between atoms: C_16  and  N_47
   13  A    between atoms: N_19  and  C_35
   14  A    between atoms: N_19  and  C_48
   15  A    between atoms: C_23  and  N_26
   16  A    between atoms: C_27  and  C_29
   17  A    between atoms: C_29  and  C_56
   18  A    between atoms: C_31  and  C_40
   19  A    between atoms: C_31  and  C_41
   20  A    between atoms: C_34  and  C_56
   21  A    between atoms: N_44  and  P_45
   22  A    between atoms: C_49  and  S_59
                            x       y       z     vdW  Elec       q    Type
                         _______ _______ _______ _____ _____    ______ ____

>  <TORSDO>
F 22

$$$$
=
 OpenBabel11042412463D

 59 63  0  0  1  0  0  0  0  0999 V2000
  183.4210  177.9010  137.4550 N   0  0  0  0  0  2  0  0  0  0  0  0
  181.1680  178.0540  136.7180 N   0  0  0  0  0  0  0  0  0  0  0  0
  180.5290  181.5560  138.8470 N   0  0  0  0  0  1  0  0  0  0  0  0
  181.7610  179.3470  138.6940 C   0  0  2  0  0  3  0  0  0  0  0  0
  179.7820  178.5000  136.8660 C   0  0  0  0  0  2  0  0  0  0  0  0
  180.6200  180.2480  138.2970 C   0  0  0  0  0  0  0  0  0  0  0  0
  182.0910  178.4160  137.5620 C   0  0  0  0  0  0  0  0  0  0  0  0
  179.7350  179.8480  137.4330 N   0  0  0  0  0  0  0  0  0  0  0  0
  181.3940  178.5630  139.8650 N   0  0  0  0  0  2  0  0  0  0  0  0
  183.4470  178.8700  143.5610 C   0  0  0  0  0  0  0  0  0  0  0  0
  181.3630  178.8960  142.3110 C   0  0  0  0  0  3  0  0  0  0  0  0
  183.4540  178.5090  141.1580 C   0  0  0  0  0  3  0  0  0  0  0  0
  182.0520  179.0050  143.5240 C   0  0  0  0  0  3  0  0  0  0  0  0
  182.0650  178.6470  141.1230 C   0  0  0  0  0  0  0  0  0  0  0  0
  184.1410  178.6190  142.3700 C   0  0  0  0  0  3  0  0  0  0  0  0
  183.5730  178.9190  145.9280 O   0  0  0  0  0  0  0  0  0  0  0  0
  184.1870  179.0030  144.8310 C   0  0  0  0  0  0  0  0  0  0  0  0
  185.6610  179.2730  144.8520 C   0  0  0  0  0  2  0  0  0  0  0  0
  186.0600  178.2480  146.9580 O   0  0  0  0  0  0  0  0  0  0  0  0
  186.3940  178.3540  145.7850 C   0  0  0  0  0  0  0  0  0  0  0  0
  191.3210  177.0880  142.3580 C   0  0  0  0  0  2  0  0  0  0  0  0
  189.5090  177.8810  143.7350 C   0  0  2  0  0  3  0  0  0  0  0  0
  187.3160  177.3740  142.8580 O   0  0  0  0  0  1  0  0  0  0  0  0
  189.8000  176.4750  145.7960 C   0  0  2  0  0  3  0  0  0  0  0  0
  187.4900  177.4950  145.2400 C   0  0  1  0  0  3  0  0  0  0  0  0
  191.3120  176.3050  143.6700 C   0  0  0  0  0  2  0  0  0  0  0  0
  189.9370  176.5400  144.2610 C   0  0  2  0  0  3  0  0  0  0  0  0
  187.9880  178.0410  143.8840 C   0  0  1  0  0  3  0  0  0  0  0  0
  188.6080  177.3280  146.2890 C   0  0  0  0  0  2  0  0  0  0  0  0
  190.0450  177.9230  142.3200 C   0  0  0  0  0  2  0  0  0  0  0  0
  191.4040  176.0170  147.5840 C   0  0  1  0  0  0  0  0  0  0  0  0
  190.6770  177.2360  147.8720 C   0  0  0  0  0  2  0  0  0  0  0  0
  191.0290  176.9160  146.4650 N   0  0  2  0  0  0  0  0  0  0  0  0
  192.8910  175.9900  147.8770 C   0  0  0  0  0  1  0  0  0  0  0  0
  190.6720  174.8290  147.6830 O   0  0  0  0  0  1  0  0  0  0  0  0
  183.7950  176.8250  136.5460 C   0  0  2  0  0  3  0  0  0  0  0  0
  183.6440  175.5380  137.2110 N   0  0  0  0  0  2  0  0  0  0  0  0
  183.5110  174.5150  136.1870 C   0  0  0  0  0  2  0  0  0  0  0  0
  184.3880  173.3140  138.0220 F   0  0  0  0  0  0  0  0  0  0  0  0
  184.1380  173.2240  136.6650 C   0  0  0  0  0  3  0  0  0  0  0  0
  185.3240  173.0000  135.9930 F   0  0  0  0  0  0  0  0  0  0  0  0
  185.2350  177.0190  136.0710 C   0  0  0  0  0  2  0  0  0  0  0  0
  186.4370  176.6080  137.3770 S   0  0  0  0  0  0  0  0  0  0  0  0
  187.8360  177.0980  136.3340 C   0  0  0  0  0  2  0  0  0  0  0  0
  189.0380  176.2390  136.6680 C   0  0  0  0  0  2  0  0  0  0  0  0
  190.3110  176.9030  136.1710 C   0  0  0  0  0  2  0  0  0  0  0  0
  191.5160  176.4840  137.0200 C   0  0  1  0  0  3  0  0  0  0  0  0
  192.1490  176.8890  139.2010 C   0  0  0  0  0  1  0  0  0  0  0  0
  191.2050  176.2490  138.3810 O   0  0  0  0  0  0  0  0  0  0  0  0
  192.3800  175.3890  136.3580 C   0  0  2  0  0  3  0  0  0  0  0  0
  191.8510  174.9620  135.1380 O   0  0  0  0  0  1  0  0  0  0  0  0
  192.0320  173.0500  136.8470 O   0  0  0  0  0  1  0  0  0  0  0  0
  192.7120  174.1980  137.2620 C   0  0  1  0  0  3  0  0  0  0  0  0
  194.1840  173.9330  137.4020 C   0  0  0  0  0  3  0  0  0  0  0  0
  195.0050  174.8790  137.6830 N   0  0  0  0  0  0  0  0  0  0  0  0
  197.5030  175.4260  136.9500 O   0  0  0  0  0  0  0  0  0  0  0  0
  197.1520  174.8250  139.4710 O   0  0  0  0  0  1  0  0  0  0  0  0
  196.9900  172.9150  137.4850 O   0  0  0  0  0  1  0  0  0  0  0  0
  196.6980  174.5370  137.8690 P   0  0  0  0  0  0  0  0  0  0  0  0
  1  7  1  0  0  0  0
  2  5  1  0  0  0  0
  2  7  2  0  0  0  0
  4  9  1  1  0  0  0
  5  8  1  0  0  0  0
  6  4  1  0  0  0  0
  6  3  1  0  0  0  0
  7  4  1  0  0  0  0
  8  6  2  0  0  0  0
  9 14  1  0  0  0  0
 10 17  1  0  0  0  0
 11 13  2  0  0  0  0
 12 15  1  0  0  0  0
 13 10  1  0  0  0  0
 14 12  2  0  0  0  0
 14 11  1  0  0  0  0
 15 10  2  0  0  0  0
 17 18  1  0  0  0  0
 17 16  2  0  0  0  0
 18 20  1  0  0  0  0
 20 19  2  0  0  0  0
 21 26  1  0  0  0  0
 22 30  1  6  0  0  0
 22 28  1  0  0  0  0
 22 27  1  0  0  0  0
 24 29  1  1  0  0  0
 24 33  1  0  0  0  0
 25 20  1  1  0  0  0
 25 29  1  0  0  0  0
 27 26  1  1  0  0  0
 27 24  1  0  0  0  0
 28 23  1  6  0  0  0
 28 25  1  0  0  0  0
 30 21  1  0  0  0  0
 31 35  1  0  0  0  0
 31 32  1  0  0  0  0
 31 34  1  1  0  0  0
 33 31  1  0  0  0  0
 33 32  1  1  0  0  0
 36 42  1  1  0  0  0
 36 37  1  0  0  0  0
 36  1  1  0  0  0  0
 38 40  1  0  0  0  0
 38 37  1  0  0  0  0
 40 39  1  0  0  0  0
 41 40  1  0  0  0  0
 42 43  1  0  0  0  0
 44 45  1  0  0  0  0
 44 43  1  0  0  0  0
 46 45  1  0  0  0  0
 47 46  1  6  0  0  0
 47 49  1  0  0  0  0
 49 48  1  0  0  0  0
 50 51  1  6  0  0  0
 50 47  1  0  0  0  0
 50 53  1  0  0  0  0
 53 52  1  6  0  0  0
 53 54  1  0  0  0  0
 54 55  2  0  0  0  0
 55 59  1  0  0  0  0
 56 59  2  0  0  0  0
 58 59  1  0  0  0  0
 59 57  1  0  0  0  0
M  END
>  <MODEL>
7

>  <REMARK>
 VINA RESULT:      -6.7      3.558      8.381
  Name = 
  22 active torsions:
  status: ('A' for Active; 'I' for Inactive)
    1  A    between atoms: C_1  and  C_34
    2  A    between atoms: C_3  and  C_33
    3  A    between atoms: C_3  and  C_41
    4  A    between atoms: C_3  and  O_54
    5  A    between atoms: C_4  and  C_8
    6  A    between atoms: C_4  and  N_47
    7  A    between atoms: N_9  and  C_16
    8  A    between atoms: C_12  and  C_16
    9  A    between atoms: C_12  and  S_59
   10  A    between atoms: C_14  and  C_33
   11  A    between atoms: C_14  and  C_49
   12  A    between atoms: C_16  and  N_47
   13  A    between atoms: N_19  and  C_35
   14  A    between atoms: N_19  and  C_48
   15  A    between atoms: C_23  and  N_26
   16  A    between atoms: C_27  and  C_29
   17  A    between atoms: C_29  and  C_56
   18  A    between atoms: C_31  and  C_40
   19  A    between atoms: C_31  and  C_41
   20  A    between atoms: C_34  and  C_56
   21  A    between atoms: N_44  and  P_45
   22  A    between atoms: C_49  and  S_59
                            x       y       z     vdW  Elec       q    Type
                         _______ _______ _______ _____ _____    ______ ____

>  <TORSDO>
F 22

$$$$
=
 OpenBabel11042412463D

 59 63  0  0  1  0  0  0  0  0999 V2000
  189.1900  178.3800  144.2710 N   0  0  0  0  0  2  0  0  0  0  0  0
  190.7060  176.5500  144.2380 N   0  0  0  0  0  0  0  0  0  0  0  0
  192.5050  177.8810  140.7450 N   0  0  0  0  0  1  0  0  0  0  0  0
  190.3940  177.7480  142.1410 C   0  0  2  0  0  3  0  0  0  0  0  0
  191.5960  175.6150  143.5490 C   0  0  0  0  0  2  0  0  0  0  0  0
  191.7780  177.2600  141.7980 C   0  0  0  0  0  0  0  0  0  0  0  0
  190.1260  177.5280  143.6030 C   0  0  0  0  0  0  0  0  0  0  0  0
  192.3230  176.2950  142.4760 N   0  0  0  0  0  0  0  0  0  0  0  0
  189.4010  177.0240  141.3590 N   0  0  0  0  0  2  0  0  0  0  0  0
  188.8010  177.4480  137.1840 C   0  0  0  0  0  0  0  0  0  0  0  0
  189.1060  178.4610  139.3730 C   0  0  0  0  0  3  0  0  0  0  0  0
  189.1290  176.0520  139.1460 C   0  0  0  0  0  3  0  0  0  0  0  0
  188.8980  178.5880  137.9950 C   0  0  0  0  0  3  0  0  0  0  0  0
  189.2220  177.1880  139.9520 C   0  0  0  0  0  0  0  0  0  0  0  0
  188.9200  176.1810  137.7700 C   0  0  0  0  0  3  0  0  0  0  0  0
  189.5300  177.5090  134.9290 O   0  0  0  0  0  0  0  0  0  0  0  0
  188.5620  177.5700  135.7330 C   0  0  0  0  0  0  0  0  0  0  0  0
  187.1870  177.8000  135.1850 C   0  0  0  0  0  2  0  0  0  0  0  0
  185.9520  178.3230  137.1460 O   0  0  0  0  0  0  0  0  0  0  0  0
  186.1170  177.5530  136.2090 C   0  0  0  0  0  0  0  0  0  0  0  0
  183.9980  171.8800  137.1800 C   0  0  0  0  0  2  0  0  0  0  0  0
  184.9160  174.1070  137.1090 C   0  0  2  0  0  3  0  0  0  0  0  0
  186.4190  174.4900  135.2580 O   0  0  0  0  0  1  0  0  0  0  0  0
  182.8580  175.4770  136.6590 C   0  0  2  0  0  3  0  0  0  0  0  0
  185.1900  176.3950  136.0220 C   0  0  1  0  0  3  0  0  0  0  0  0
  182.8770  172.8710  136.8720 C   0  0  0  0  0  2  0  0  0  0  0  0
  183.5800  174.1350  136.4200 C   0  0  2  0  0  3  0  0  0  0  0  0
  185.8860  175.0720  136.4100 C   0  0  1  0  0  3  0  0  0  0  0  0
  183.8680  176.6430  136.7750 C   0  0  0  0  0  2  0  0  0  0  0  0
  185.3150  172.6470  137.1070 C   0  0  0  0  0  2  0  0  0  0  0  0
  180.5780  175.3300  137.5320 C   0  0  1  0  0  0  0  0  0  0  0  0
  181.1440  176.6290  137.8380 C   0  0  0  0  0  2  0  0  0  0  0  0
  182.0210  175.4310  137.8620 N   0  0  2  0  0  0  0  0  0  0  0  0
  179.7510  174.6450  138.6000 C   0  0  0  0  0  1  0  0  0  0  0  0
  180.2780  175.0940  136.1860 O   0  0  0  0  0  1  0  0  0  0  0  0
  188.6850  178.1210  145.6130 C   0  0  2  0  0  3  0  0  0  0  0  0
  189.6670  177.3590  146.3730 N   0  0  0  0  0  2  0  0  0  0  0  0
  189.0690  177.0030  147.6500 C   0  0  0  0  0  2  0  0  0  0  0  0
  190.0290  178.6060  149.0950 F   0  0  0  0  0  0  0  0  0  0  0  0
  188.8440  178.2490  148.4770 C   0  0  0  0  0  3  0  0  0  0  0  0
  187.8800  178.0090  149.4370 F   0  0  0  0  0  0  0  0  0  0  0  0
  187.3600  177.3630  145.5340 C   0  0  0  0  0  2  0  0  0  0  0  0
  186.3660  177.8870  144.1000 S   0  0  0  0  0  0  0  0  0  0  0  0
  184.9960  178.4190  145.1620 C   0  0  0  0  0  2  0  0  0  0  0  0
  183.9790  179.1730  144.3310 C   0  0  0  0  0  2  0  0  0  0  0  0
  184.1420  178.8240  142.8620 C   0  0  0  0  0  2  0  0  0  0  0  0
  182.7830  178.5490  142.2080 C   0  0  1  0  0  3  0  0  0  0  0  0
  180.4950  178.7840  142.4020 C   0  0  0  0  0  1  0  0  0  0  0  0
  181.7370  179.3720  142.6920 O   0  0  0  0  0  0  0  0  0  0  0  0
  182.8540  178.4330  140.6710 C   0  0  2  0  0  3  0  0  0  0  0  0
  183.7600  177.4560  140.2540 O   0  0  0  0  0  1  0  0  0  0  0  0
  184.3930  179.8160  139.4240 O   0  0  0  0  0  1  0  0  0  0  0  0
  183.0950  179.7570  139.9380 C   0  0  1  0  0  3  0  0  0  0  0  0
  182.0780  180.0540  138.8720 C   0  0  0  0  0  3  0  0  0  0  0  0
  181.7710  181.2620  138.5660 N   0  0  0  0  0  0  0  0  0  0  0  0
  179.2140  181.4840  137.8680 O   0  0  0  0  0  1  0  0  0  0  0  0
  180.8720  183.1260  136.6860 O   0  0  0  0  0  1  0  0  0  0  0  0
  180.8050  180.4360  136.0720 O   0  0  0  0  0  0  0  0  0  0  0  0
  180.6150  181.5760  137.3080 P   0  0  0  0  0  0  0  0  0  0  0  0
  1 36  1  0  0  0  0
  3  6  1  0  0  0  0
  4  9  1  6  0  0  0
  4  7  1  0  0  0  0
  5  2  1  0  0  0  0
  6  4  1  0  0  0  0
  6  8  2  0  0  0  0
  7  2  2  0  0  0  0
  7  1  1  0  0  0  0
  8  5  1  0  0  0  0
 10 15  2  0  0  0  0
 10 13  1  0  0  0  0
 11 14  1  0  0  0  0
 12 14  2  0  0  0  0
 13 11  2  0  0  0  0
 14  9  1  0  0  0  0
 15 12  1  0  0  0  0
 16 17  2  0  0  0  0
 17 10  1  0  0  0  0
 18 17  1  0  0  0  0
 18 20  1  0  0  0  0
 20 19  2  0  0  0  0
 22 30  1  6  0  0  0
 24 29  1  1  0  0  0
 24 33  1  0  0  0  0
 25 20  1  1  0  0  0
 25 28  1  0  0  0  0
 25 29  1  0  0  0  0
 26 21  1  0  0  0  0
 27 24  1  0  0  0  0
 27 26  1  1  0  0  0
 27 22  1  0  0  0  0
 28 23  1  6  0  0  0
 28 22  1  0  0  0  0
 30 21  1  0  0  0  0
 31 32  1  0  0  0  0
 31 33  1  0  0  0  0
 31 34  1  1  0  0  0
 33 32  1  6  0  0  0
 35 31  1  0  0  0  0
 36 42  1  6  0  0  0
 36 37  1  0  0  0  0
 37 38  1  0  0  0  0
 38 40  1  0  0  0  0
 40 39  1  0  0  0  0
 40 41  1  0  0  0  0
 43 44  1  0  0  0  0
 43 42  1  0  0  0  0
 45 44  1  0  0  0  0
 46 45  1  0  0  0  0
 47 49  1  0  0  0  0
 47 46  1  6  0  0  0
 48 49  1  0  0  0  0
 50 51  1  1  0  0  0
 50 47  1  0  0  0  0
 53 52  1  6  0  0  0
 53 50  1  0  0  0  0
 54 53  1  0  0  0  0
 55 54  2  0  0  0  0
 57 59  1  0  0  0  0
 58 59  2  0  0  0  0
 59 56  1  0  0  0  0
 59 55  1  0  0  0  0
M  END
>  <MODEL>
8

>  <REMARK>
 VINA RESULT:      -6.4      3.404      7.937
  Name = 
  22 active torsions:
  status: ('A' for Active; 'I' for Inactive)
    1  A    between atoms: C_1  and  C_34
    2  A    between atoms: C_3  and  C_33
    3  A    between atoms: C_3  and  C_41
    4  A    between atoms: C_3  and  O_54
    5  A    between atoms: C_4  and  C_8
    6  A    between atoms: C_4  and  N_47
    7  A    between atoms: N_9  and  C_16
    8  A    between atoms: C_12  and  C_16
    9  A    between atoms: C_12  and  S_59
   10  A    between atoms: C_14  and  C_33
   11  A    between atoms: C_14  and  C_49
   12  A    between atoms: C_16  and  N_47
   13  A    between atoms: N_19  and  C_35
   14  A    between atoms: N_19  and  C_48
   15  A    between atoms: C_23  and  N_26
   16  A    between atoms: C_27  and  C_29
   17  A    between atoms: C_29  and  C_56
   18  A    between atoms: C_31  and  C_40
   19  A    between atoms: C_31  and  C_41
   20  A    between atoms: C_34  and  C_56
   21  A    between atoms: N_44  and  P_45
   22  A    between atoms: C_49  and  S_59
                            x       y       z     vdW  Elec       q    Type
                         _______ _______ _______ _____ _____    ______ ____

>  <TORSDO>
F 22

$$$$
=
 OpenBabel11042412463D

 59 63  0  0  1  0  0  0  0  0999 V2000
  189.1640  177.6610  137.7170 N   0  0  0  0  0  2  0  0  0  0  0  0
  189.8630  175.3980  137.9050 N   0  0  0  0  0  0  0  0  0  0  0  0
  192.5100  175.7730  134.7340 N   0  0  0  0  0  1  0  0  0  0  0  0
  190.3300  176.5140  135.7920 C   0  0  2  0  0  3  0  0  0  0  0  0
  190.4210  174.1620  137.3540 C   0  0  0  0  0  2  0  0  0  0  0  0
  191.4600  175.5250  135.6600 C   0  0  0  0  0  0  0  0  0  0  0  0
  189.7920  176.4870  137.1950 C   0  0  0  0  0  0  0  0  0  0  0  0
  191.4970  174.4630  136.4080 N   0  0  0  0  0  0  0  0  0  0  0  0
  189.2600  176.1750  134.8640 N   0  0  0  0  0  2  0  0  0  0  0  0
  185.1590  176.7970  135.7390 C   0  0  0  0  0  0  0  0  0  0  0  0
  187.2650  177.6290  134.8550 C   0  0  0  0  0  3  0  0  0  0  0  0
  187.1250  175.3690  135.7080 C   0  0  0  0  0  3  0  0  0  0  0  0
  185.9130  177.8260  135.1560 C   0  0  0  0  0  3  0  0  0  0  0  0
  187.8740  176.3960  135.1310 C   0  0  0  0  0  0  0  0  0  0  0  0
  185.7750  175.5680  136.0100 C   0  0  0  0  0  3  0  0  0  0  0  0
  182.9790  177.6080  135.2790 O   0  0  0  0  0  0  0  0  0  0  0  0
  183.7380  177.0010  136.0810 C   0  0  0  0  0  0  0  0  0  0  0  0
  183.1730  176.5280  137.3860 C   0  0  0  0  0  2  0  0  0  0  0  0
  181.1480  175.5490  136.6200 O   0  0  0  0  0  0  0  0  0  0  0  0
  181.6790  176.3840  137.3410 C   0  0  0  0  0  0  0  0  0  0  0  0
  180.4800  179.6020  142.4230 C   0  0  0  0  0  2  0  0  0  0  0  0
  181.2520  178.4470  140.4540 C   0  0  2  0  0  3  0  0  0  0  0  0
  180.6210  176.1170  140.3710 O   0  0  0  0  0  1  0  0  0  0  0  0
  179.9430  179.6090  138.6510 C   0  0  2  0  0  3  0  0  0  0  0  0
  180.8440  177.2180  138.2600 C   0  0  1  0  0  3  0  0  0  0  0  0
  179.7500  180.1580  141.2000 C   0  0  0  0  0  2  0  0  0  0  0  0
  179.9520  179.1210  140.1140 C   0  0  2  0  0  3  0  0  0  0  0  0
  181.3550  177.1050  139.7130 C   0  0  1  0  0  3  0  0  0  0  0  0
  180.7660  178.6670  137.7410 C   0  0  0  0  0  2  0  0  0  0  0  0
  181.2590  178.3730  141.9650 C   0  0  0  0  0  2  0  0  0  0  0  0
  179.9460  181.6660  137.3290 C   0  0  1  0  0  0  0  0  0  0  0  0
  181.2560  181.0480  137.2850 C   0  0  0  0  0  2  0  0  0  0  0  0
  180.4610  180.9770  138.5370 N   0  0  2  0  0  0  0  0  0  0  0  0
  179.8760  183.1730  137.4650 C   0  0  0  0  0  1  0  0  0  0  0  0
  178.9310  181.0000  136.6350 O   0  0  0  0  0  1  0  0  0  0  0  0
  188.4120  177.6800  138.9650 C   0  0  2  0  0  3  0  0  0  0  0  0
  187.1000  178.2760  138.7440 N   0  0  0  0  0  2  0  0  0  0  0  0
  186.5340  178.6100  140.0410 C   0  0  0  0  0  2  0  0  0  0  0  0
  184.6730  178.9720  138.6330 F   0  0  0  0  0  0  0  0  0  0  0  0
  185.0270  178.6900  139.9390 C   0  0  0  0  0  3  0  0  0  0  0  0
  184.5520  179.6870  140.7690 F   0  0  0  0  0  0  0  0  0  0  0  0
  189.1850  178.4610  140.0280 C   0  0  0  0  0  2  0  0  0  0  0  0
  190.6100  177.5160  140.6570 S   0  0  0  0  0  0  0  0  0  0  0  0
  189.5330  176.3530  141.5370 C   0  0  0  0  0  2  0  0  0  0  0  0
  190.1670  175.9850  142.8630 C   0  0  0  0  0  2  0  0  0  0  0  0
  189.3430  176.5450  144.0090 C   0  0  0  0  0  2  0  0  0  0  0  0
  190.1300  177.6070  144.7850 C   0  0  1  0  0  3  0  0  0  0  0  0
  191.6390  179.3120  144.4060 C   0  0  0  0  0  1  0  0  0  0  0  0
  190.3890  178.7840  144.0410 O   0  0  0  0  0  0  0  0  0  0  0  0
  189.5910  177.8510  146.2100 C   0  0  2  0  0  3  0  0  0  0  0  0
  190.5220  177.5090  147.1940 O   0  0  0  0  0  1  0  0  0  0  0  0
  188.1540  176.7650  147.8190 O   0  0  0  0  0  1  0  0  0  0  0  0
  188.2270  177.2170  146.4990 C   0  0  1  0  0  3  0  0  0  0  0  0
  187.0620  178.1060  146.1670 C   0  0  0  0  0  3  0  0  0  0  0  0
  186.1490  177.7260  145.3490 N   0  0  0  0  0  0  0  0  0  0  0  0
  183.8080  178.7050  146.1490 O   0  0  0  0  0  1  0  0  0  0  0  0
  185.3460  180.3510  144.8190 O   0  0  0  0  0  1  0  0  0  0  0  0
  184.0450  178.2560  143.5810 O   0  0  0  0  0  0  0  0  0  0  0  0
  184.7980  178.7640  145.0080 P   0  0  0  0  0  0  0  0  0  0  0  0
  1 36  1  0  0  0  0
  3  6  1  0  0  0  0
  4  9  1  6  0  0  0
  4  7  1  0  0  0  0
  5  2  1  0  0  0  0
  6  4  1  0  0  0  0
  6  8  2  0  0  0  0
  7  1  1  0  0  0  0
  7  2  2  0  0  0  0
  8  5  1  0  0  0  0
  9 14  1  0  0  0  0
 10 15  1  0  0  0  0
 10 17  1  0  0  0  0
 11 14  2  0  0  0  0
 11 13  1  0  0  0  0
 12 15  2  0  0  0  0
 13 10  2  0  0  0  0
 14 12  1  0  0  0  0
 16 17  2  0  0  0  0
 17 18  1  0  0  0  0
 19 20  2  0  0  0  0
 20 18  1  0  0  0  0
 22 30  1  1  0  0  0
 24 29  1  6  0  0  0
 24 27  1  0  0  0  0
 25 20  1  6  0  0  0
 25 28  1  0  0  0  0
 26 21  1  0  0  0  0
 27 22  1  0  0  0  0
 27 26  1  1  0  0  0
 28 23  1  1  0  0  0
 28 22  1  0  0  0  0
 29 25  1  0  0  0  0
 30 21  1  0  0  0  0
 31 34  1  1  0  0  0
 31 33  1  0  0  0  0
 32 31  1  0  0  0  0
 33 32  1  6  0  0  0
 33 24  1  0  0  0  0
 35 31  1  0  0  0  0
 36 42  1  1  0  0  0
 37 36  1  0  0  0  0
 37 38  1  0  0  0  0
 39 40  1  0  0  0  0
 40 38  1  0  0  0  0
 40 41  1  0  0  0  0
 42 43  1  0  0  0  0
 43 44  1  0  0  0  0
 44 45  1  0  0  0  0
 45 46  1  0  0  0  0
 47 46  1  6  0  0  0
 47 50  1  0  0  0  0
 49 48  1  0  0  0  0
 49 47  1  0  0  0  0
 50 53  1  0  0  0  0
 50 51  1  1  0  0  0
 53 52  1  1  0  0  0
 54 53  1  0  0  0  0
 55 54  2  0  0  0  0
 57 59  1  0  0  0  0
 58 59  2  0  0  0  0
 59 55  1  0  0  0  0
 59 56  1  0  0  0  0
M  END
>  <MODEL>
9

>  <REMARK>
 VINA RESULT:      -6.2      4.126      8.462
  Name = 
  22 active torsions:
  status: ('A' for Active; 'I' for Inactive)
    1  A    between atoms: C_1  and  C_34
    2  A    between atoms: C_3  and  C_33
    3  A    between atoms: C_3  and  C_41
    4  A    between atoms: C_3  and  O_54
    5  A    between atoms: C_4  and  C_8
    6  A    between atoms: C_4  and  N_47
    7  A    between atoms: N_9  and  C_16
    8  A    between atoms: C_12  and  C_16
    9  A    between atoms: C_12  and  S_59
   10  A    between atoms: C_14  and  C_33
   11  A    between atoms: C_14  and  C_49
   12  A    between atoms: C_16  and  N_47
   13  A    between atoms: N_19  and  C_35
   14  A    between atoms: N_19  and  C_48
   15  A    between atoms: C_23  and  N_26
   16  A    between atoms: C_27  and  C_29
   17  A    between atoms: C_29  and  C_56
   18  A    between atoms: C_31  and  C_40
   19  A    between atoms: C_31  and  C_41
   20  A    between atoms: C_34  and  C_56
   21  A    between atoms: N_44  and  P_45
   22  A    between atoms: C_49  and  S_59
                            x       y       z     vdW  Elec       q    Type
                         _______ _______ _______ _____ _____    ______ ____

>  <TORSDO>
F 22

$$$$
