=
 OpenBabel11032419383D

 49 52  0  0  1  0  0  0  0  0999 V2000
  186.2180  178.2150  137.4150 C   0  0  0  0  0  2  0  0  0  0  0  0
  189.9570  177.5920  138.5820 C   0  0  2  0  0  3  0  0  0  0  0  0
  188.6350  178.2430  138.0490 C   0  0  2  0  0  0  0  0  0  0  0  0
  187.7630  178.2530  139.3210 C   0  0  0  0  0  2  0  0  0  0  0  0
  187.3110  177.4620  138.1580 C   0  0  1  0  0  3  0  0  0  0  0  0
  189.4100  177.1730  137.2740 C   0  0  0  0  0  2  0  0  0  0  0  0
  189.7580  176.4840  139.5210 N   0  0  0  0  0  2  0  0  0  0  0  0
  190.8740  176.4210  140.3840 N   0  0  0  0  0  2  0  0  0  0  0  0
  190.8960  177.6370  141.1940 C   0  0  0  0  0  2  0  0  0  0  0  0
  189.8560  176.0020  142.7380 C   0  0  0  0  0  3  0  0  0  0  0  0
  190.4210  177.3880  142.6280 C   0  0  2  0  0  3  0  0  0  0  0  0
  189.2720  178.2430  142.9160 N   0  0  0  0  0  0  0  0  0  0  0  0
  188.2400  177.4890  143.1190 C   0  0  0  0  0  0  0  0  0  0  0  0
  188.5640  176.0690  143.0370 C   0  0  0  0  0  3  0  0  0  0  0  0
  186.9030  178.0710  143.4590 C   0  0  1  0  0  3  0  0  0  0  0  0
  184.7380  178.6210  142.6100 O   0  0  0  0  0  1  0  0  0  0  0  0
  185.8980  177.9040  142.3190 C   0  0  0  0  0  2  0  0  0  0  0  0
  186.3870  177.5450  144.7990 C   0  0  0  0  0  2  0  0  0  0  0  0
  187.0590  178.2020  145.9980 C   0  0  1  0  0  3  0  0  0  0  0  0
  185.9930  178.6320  146.9880 C   0  0  0  0  0  1  0  0  0  0  0  0
  187.9850  177.1970  146.6600 C   0  0  0  0  0  2  0  0  0  0  0  0
  189.4350  177.6570  146.5970 C   0  0  0  0  0  2  0  0  0  0  0  0
  190.2140  177.1900  147.8150 C   0  0  0  0  0  2  0  0  0  0  0  0
  191.6380  176.7910  147.4280 C   0  0  0  0  0  2  0  0  0  0  0  0
  191.7790  175.3440  147.4800 N   0  0  0  0  0  1  0  0  0  0  0  0
  185.0380  177.2860  137.1310 C   0  0  2  0  0  3  0  0  0  0  0  0
  182.6210  177.7180  137.8220 C   0  0  0  0  0  0  0  0  0  0  0  0
  181.7470  177.9090  138.7630 N   0  0  0  0  0  0  0  0  0  0  0  0
  183.9920  177.4480  138.1430 N   0  0  0  0  0  2  0  0  0  0  0  0
  182.2110  177.8180  136.4510 N   0  0  0  0  0  2  0  0  0  0  0  0
  182.0500  177.8050  140.1840 C   0  0  0  0  0  2  0  0  0  0  0  0
  181.5050  178.9780  142.3160 O   0  0  0  0  0  1  0  0  0  0  0  0
  180.4050  179.6010  140.3390 C   0  0  0  0  0  2  0  0  0  0  0  0
  181.2990  178.8390  140.9530 C   0  0  0  0  0  0  0  0  0  0  0  0
  180.9300  178.3760  136.0450 C   0  0  0  0  0  2  0  0  0  0  0  0
  181.1420  179.7760  135.4970 C   0  0  0  0  0  2  0  0  0  0  0  0
  180.5270  180.7470  136.3850 N   0  0  0  0  0  2  0  0  0  0  0  0
  180.2250  181.9310  135.5860 C   0  0  0  0  0  2  0  0  0  0  0  0
  180.9980  182.8690  137.7650 C   0  0  0  0  0  1  0  0  0  0  0  0
  180.3650  183.1980  136.4280 C   0  0  1  0  0  3  0  0  0  0  0  0
  181.1780  184.1150  135.7540 O   0  0  0  0  0  1  0  0  0  0  0  0
  185.4860  175.8870  137.0000 N   0  0  0  0  0  2  0  0  0  0  0  0
  185.2310  175.2700  135.6950 C   0  0  2  0  0  0  0  0  0  0  0  0
  187.6870  174.5580  135.6570 C   0  0  0  0  0  1  0  0  0  0  0  0
  186.3520  174.5530  134.9400 C   0  0  2  0  0  3  0  0  0  0  0  0
  185.9870  175.9890  134.5950 C   0  0  0  0  0  2  0  0  0  0  0  0
  183.7890  175.0160  135.2830 C   0  0  0  0  0  2  0  0  0  0  0  0
  183.0560  173.0340  135.8710 C   0  0  0  0  0  1  0  0  0  0  0  0
  183.1070  174.3550  136.2980 O   0  0  0  0  0  0  0  0  0  0  0  0
  2  7  1  1  0  0  0
  3  6  1  6  0  0  0
  3  5  1  0  0  0  0
  3  2  1  0  0  0  0
  3  4  1  0  0  0  0
  5  1  1  6  0  0  0
  5  4  1  0  0  0  0
  6  2  1  0  0  0  0
  7  8  1  0  0  0  0
  8  9  1  0  0  0  0
 10 14  2  0  0  0  0
 11  9  1  6  0  0  0
 11 10  1  0  0  0  0
 11 12  1  0  0  0  0
 12 13  2  0  0  0  0
 13 15  1  0  0  0  0
 14 13  1  0  0  0  0
 15 17  1  6  0  0  0
 15 18  1  0  0  0  0
 17 16  1  0  0  0  0
 18 19  1  0  0  0  0
 19 21  1  0  0  0  0
 19 20  1  1  0  0  0
 22 21  1  0  0  0  0
 22 23  1  0  0  0  0
 24 25  1  0  0  0  0
 24 23  1  0  0  0  0
 26  1  1  1  0  0  0
 26 29  1  0  0  0  0
 27 29  1  0  0  0  0
 27 28  2  0  0  0  0
 28 31  1  0  0  0  0
 30 27  1  0  0  0  0
 31 34  1  0  0  0  0
 33 34  2  0  0  0  0
 34 32  1  0  0  0  0
 35 30  1  0  0  0  0
 36 35  1  0  0  0  0
 36 37  1  0  0  0  0
 38 37  1  0  0  0  0
 38 40  1  0  0  0  0
 40 39  1  1  0  0  0
 41 40  1  0  0  0  0
 42 26  1  0  0  0  0
 43 47  1  6  0  0  0
 43 42  1  0  0  0  0
 45 44  1  1  0  0  0
 45 43  1  0  0  0  0
 46 45  1  0  0  0  0
 46 43  1  0  0  0  0
 47 49  1  0  0  0  0
 48 49  1  0  0  0  0
M  END
>  <MODEL>
1

>  <REMARK>
 VINA RESULT:      -5.6      0.000      0.000
  Name = 
  26 active torsions:
  status: ('A' for Active; 'I' for Inactive)
    1  A    between atoms: C_1  and  N_12
    2  A    between atoms: C_3  and  C_4
    3  A    between atoms: C_3  and  N_32
    4  A    between atoms: C_4  and  N_49
    5  A    between atoms: C_7  and  C_17
    6  A    between atoms: C_7  and  C_24
    7  A    between atoms: C_8  and  N_10
    8  A    between atoms: C_8  and  C_23
    9  A    between atoms: N_10  and  C_44
   10  A    between atoms: C_11  and  C_39
   11  A    between atoms: N_12  and  N_15
   12  A    between atoms: C_14  and  C_37
   13  A    between atoms: N_15  and  C_37
   14  A    between atoms: C_17  and  C_39
   15  A    between atoms: C_19  and  C_46
   16  A    between atoms: C_20  and  C_28
   17  A    between atoms: C_20  and  C_44
   18  A    between atoms: C_23  and  O_35
   19  A    between atoms: C_24  and  C_36
   20  A    between atoms: C_29  and  C_31
   21  A    between atoms: C_29  and  C_36
   22  A    between atoms: C_29  and  C_47
   23  A    between atoms: N_32  and  C_46
   24  A    between atoms: N_38  and  C_43
   25  A    between atoms: C_42  and  C_43
   26  A    between atoms: C_44  and  N_48
                            x       y       z     vdW  Elec       q    Type
                         _______ _______ _______ _____ _____    ______ ____

>  <TORSDO>
F 26

$$$$
=
 OpenBabel11032419383D

 49 52  0  0  1  0  0  0  0  0999 V2000
  186.1930  177.8370  136.8470 C   0  0  0  0  0  2  0  0  0  0  0  0
  189.8640  177.4840  138.3060 C   0  0  2  0  0  3  0  0  0  0  0  0
  188.5290  178.0470  137.7080 C   0  0  2  0  0  0  0  0  0  0  0  0
  187.5560  177.8450  138.8880 C   0  0  0  0  0  2  0  0  0  0  0  0
  187.2950  177.1300  137.6210 C   0  0  1  0  0  3  0  0  0  0  0  0
  189.4810  177.1420  136.9200 C   0  0  0  0  0  2  0  0  0  0  0  0
  189.7080  176.2750  139.1200 N   0  0  0  0  0  2  0  0  0  0  0  0
  190.7040  176.2770  140.1220 N   0  0  0  0  0  2  0  0  0  0  0  0
  190.6590  177.5650  140.8100 C   0  0  0  0  0  2  0  0  0  0  0  0
  189.9680  176.0270  142.6250 C   0  0  0  0  0  3  0  0  0  0  0  0
  190.4660  177.4090  142.3210 C   0  0  2  0  0  3  0  0  0  0  0  0
  189.3690  178.2670  142.7630 N   0  0  0  0  0  0  0  0  0  0  0  0
  188.4130  177.5140  143.2050 C   0  0  0  0  0  0  0  0  0  0  0  0
  188.7540  176.0970  143.1580 C   0  0  0  0  0  3  0  0  0  0  0  0
  187.1480  178.0990  143.7520 C   0  0  1  0  0  3  0  0  0  0  0  0
  185.0730  179.0770  143.0830 O   0  0  0  0  0  1  0  0  0  0  0  0
  186.0370  178.1440  142.7040 C   0  0  0  0  0  2  0  0  0  0  0  0
  186.7250  177.4080  145.0490 C   0  0  0  0  0  2  0  0  0  0  0  0
  186.4480  178.3850  146.1840 C   0  0  1  0  0  3  0  0  0  0  0  0
  184.9840  178.2910  146.5720 C   0  0  0  0  0  1  0  0  0  0  0  0
  187.3090  178.0140  147.3790 C   0  0  0  0  0  2  0  0  0  0  0  0
  188.4020  177.0290  146.9870 C   0  0  0  0  0  2  0  0  0  0  0  0
  189.7290  177.3920  147.6310 C   0  0  0  0  0  2  0  0  0  0  0  0
  190.8770  176.6200  146.9830 C   0  0  0  0  0  2  0  0  0  0  0  0
  191.4300  177.3860  145.8770 N   0  0  0  0  0  1  0  0  0  0  0  0
  185.1580  176.8250  136.3590 C   0  0  2  0  0  3  0  0  0  0  0  0
  183.2640  178.2100  137.3600 C   0  0  0  0  0  0  0  0  0  0  0  0
  182.0550  178.6730  137.2720 N   0  0  0  0  0  0  0  0  0  0  0  0
  183.8260  177.4290  136.2960 N   0  0  0  0  0  2  0  0  0  0  0  0
  184.0270  178.4540  138.5500 N   0  0  0  0  0  2  0  0  0  0  0  0
  181.2060  178.5080  136.1000 C   0  0  0  0  0  2  0  0  0  0  0  0
  179.8280  179.9800  134.6330 O   0  0  0  0  0  1  0  0  0  0  0  0
  180.2100  180.6000  136.8630 C   0  0  0  0  0  2  0  0  0  0  0  0
  180.3810  179.7300  135.8780 C   0  0  0  0  0  0  0  0  0  0  0  0
  183.4380  178.9690  139.7770 C   0  0  0  0  0  2  0  0  0  0  0  0
  182.6920  177.8520  140.4850 C   0  0  0  0  0  2  0  0  0  0  0  0
  181.8560  178.4090  141.5340 N   0  0  0  0  0  2  0  0  0  0  0  0
  180.6370  178.9020  140.8990 C   0  0  0  0  0  2  0  0  0  0  0  0
  179.5700  181.1340  140.5710 C   0  0  0  0  0  1  0  0  0  0  0  0
  180.1480  180.1730  141.5900 C   0  0  1  0  0  3  0  0  0  0  0  0
  179.1540  179.8420  142.5170 O   0  0  0  0  0  1  0  0  0  0  0  0
  185.1860  175.6010  137.1820 N   0  0  0  0  0  2  0  0  0  0  0  0
  184.9410  174.3530  136.4520 C   0  0  2  0  0  0  0  0  0  0  0  0
  187.3480  173.6760  136.9880 C   0  0  0  0  0  1  0  0  0  0  0  0
  186.0410  173.2990  136.3200 C   0  0  2  0  0  3  0  0  0  0  0  0
  185.7770  174.2850  135.1910 C   0  0  0  0  0  2  0  0  0  0  0  0
  183.5000  173.9510  136.1680 C   0  0  0  0  0  2  0  0  0  0  0  0
  181.6440  174.7180  137.0490 C   0  0  0  0  0  1  0  0  0  0  0  0
  182.7600  173.9480  137.3460 O   0  0  0  0  0  0  0  0  0  0  0  0
  2  7  1  1  0  0  0
  3  6  1  6  0  0  0
  3  2  1  0  0  0  0
  3  4  1  0  0  0  0
  5  1  1  6  0  0  0
  5  3  1  0  0  0  0
  5  4  1  0  0  0  0
  6  2  1  0  0  0  0
  7  8  1  0  0  0  0
  8  9  1  0  0  0  0
 10 14  2  0  0  0  0
 11  9  1  6  0  0  0
 11 10  1  0  0  0  0
 11 12  1  0  0  0  0
 12 13  2  0  0  0  0
 13 15  1  0  0  0  0
 14 13  1  0  0  0  0
 15 17  1  6  0  0  0
 15 18  1  0  0  0  0
 17 16  1  0  0  0  0
 18 19  1  0  0  0  0
 19 20  1  1  0  0  0
 19 21  1  0  0  0  0
 22 21  1  0  0  0  0
 22 23  1  0  0  0  0
 24 23  1  0  0  0  0
 25 24  1  0  0  0  0
 26  1  1  1  0  0  0
 26 42  1  0  0  0  0
 27 30  1  0  0  0  0
 28 27  2  0  0  0  0
 29 26  1  0  0  0  0
 29 27  1  0  0  0  0
 30 35  1  0  0  0  0
 31 28  1  0  0  0  0
 32 34  1  0  0  0  0
 34 31  1  0  0  0  0
 34 33  2  0  0  0  0
 35 36  1  0  0  0  0
 36 37  1  0  0  0  0
 38 37  1  0  0  0  0
 38 40  1  0  0  0  0
 40 39  1  6  0  0  0
 40 41  1  0  0  0  0
 43 47  1  6  0  0  0
 43 42  1  0  0  0  0
 45 43  1  0  0  0  0
 45 44  1  1  0  0  0
 46 45  1  0  0  0  0
 46 43  1  0  0  0  0
 47 49  1  0  0  0  0
 48 49  1  0  0  0  0
M  END
>  <MODEL>
2

>  <REMARK>
 VINA RESULT:      -5.5      1.338      2.908
  Name = 
  26 active torsions:
  status: ('A' for Active; 'I' for Inactive)
    1  A    between atoms: C_1  and  N_12
    2  A    between atoms: C_3  and  C_4
    3  A    between atoms: C_3  and  N_32
    4  A    between atoms: C_4  and  N_49
    5  A    between atoms: C_7  and  C_17
    6  A    between atoms: C_7  and  C_24
    7  A    between atoms: C_8  and  N_10
    8  A    between atoms: C_8  and  C_23
    9  A    between atoms: N_10  and  C_44
   10  A    between atoms: C_11  and  C_39
   11  A    between atoms: N_12  and  N_15
   12  A    between atoms: C_14  and  C_37
   13  A    between atoms: N_15  and  C_37
   14  A    between atoms: C_17  and  C_39
   15  A    between atoms: C_19  and  C_46
   16  A    between atoms: C_20  and  C_28
   17  A    between atoms: C_20  and  C_44
   18  A    between atoms: C_23  and  O_35
   19  A    between atoms: C_24  and  C_36
   20  A    between atoms: C_29  and  C_31
   21  A    between atoms: C_29  and  C_36
   22  A    between atoms: C_29  and  C_47
   23  A    between atoms: N_32  and  C_46
   24  A    between atoms: N_38  and  C_43
   25  A    between atoms: C_42  and  C_43
   26  A    between atoms: C_44  and  N_48
                            x       y       z     vdW  Elec       q    Type
                         _______ _______ _______ _____ _____    ______ ____

>  <TORSDO>
F 26

$$$$
=
 OpenBabel11032419383D

 49 52  0  0  1  0  0  0  0  0999 V2000
  185.7200  178.5960  139.0180 C   0  0  0  0  0  2  0  0  0  0  0  0
  189.4200  178.0040  140.3180 C   0  0  2  0  0  3  0  0  0  0  0  0
  188.1140  178.6420  139.7330 C   0  0  2  0  0  0  0  0  0  0  0  0
  187.2000  178.6630  140.9750 C   0  0  0  0  0  2  0  0  0  0  0  0
  186.7910  177.8570  139.8060 C   0  0  1  0  0  3  0  0  0  0  0  0
  188.9200  177.5670  138.9980 C   0  0  0  0  0  2  0  0  0  0  0  0
  189.1940  176.9060  141.2630 N   0  0  0  0  0  2  0  0  0  0  0  0
  190.4410  176.3250  141.5820 N   0  0  0  0  0  2  0  0  0  0  0  0
  190.4350  175.9770  143.0010 C   0  0  0  0  0  2  0  0  0  0  0  0
  191.3210  176.9630  145.0940 C   0  0  0  0  0  3  0  0  0  0  0  0
  190.4440  177.2140  143.9020 C   0  0  2  0  0  3  0  0  0  0  0  0
  189.1200  177.3980  144.4920 N   0  0  0  0  0  0  0  0  0  0  0  0
  189.2180  177.2480  145.7740 C   0  0  0  0  0  0  0  0  0  0  0  0
  190.5890  176.9930  146.2010 C   0  0  0  0  0  3  0  0  0  0  0  0
  188.0280  177.3950  146.6700 C   0  0  1  0  0  3  0  0  0  0  0  0
  189.4460  178.5890  148.1780 O   0  0  0  0  0  1  0  0  0  0  0  0
  188.4300  177.6360  148.1240 C   0  0  0  0  0  2  0  0  0  0  0  0
  187.0500  178.4410  146.1340 C   0  0  0  0  0  2  0  0  0  0  0  0
  185.7260  177.8430  145.6750 C   0  0  1  0  0  3  0  0  0  0  0  0
  184.5980  178.4580  146.4810 C   0  0  0  0  0  1  0  0  0  0  0  0
  185.5230  178.1590  144.2030 C   0  0  0  0  0  2  0  0  0  0  0  0
  184.2490  178.9620  143.9810 C   0  0  0  0  0  2  0  0  0  0  0  0
  183.8870  179.0250  142.5080 C   0  0  0  0  0  2  0  0  0  0  0  0
  182.3850  178.8320  142.3080 C   0  0  0  0  0  2  0  0  0  0  0  0
  181.6900  178.9870  143.5770 N   0  0  0  0  0  1  0  0  0  0  0  0
  185.0780  177.6600  137.9960 C   0  0  2  0  0  3  0  0  0  0  0  0
  182.6200  177.7600  138.6750 C   0  0  0  0  0  0  0  0  0  0  0  0
  181.5890  177.1880  139.2150 N   0  0  0  0  0  0  0  0  0  0  0  0
  183.8600  177.0530  138.5380 N   0  0  0  0  0  2  0  0  0  0  0  0
  182.5230  179.1260  138.2470 N   0  0  0  0  0  2  0  0  0  0  0  0
  181.5700  175.8000  139.6580 C   0  0  0  0  0  2  0  0  0  0  0  0
  179.4590  175.1630  138.4940 O   0  0  0  0  0  1  0  0  0  0  0  0
  179.6010  174.9580  140.8270 C   0  0  0  0  0  2  0  0  0  0  0  0
  180.1740  175.2770  139.6750 C   0  0  0  0  0  0  0  0  0  0  0  0
  181.4170  179.9960  138.6170 C   0  0  0  0  0  2  0  0  0  0  0  0
  181.8450  181.4440  138.4710 C   0  0  0  0  0  2  0  0  0  0  0  0
  181.2160  182.0260  137.2980 N   0  0  0  0  0  2  0  0  0  0  0  0
  180.1800  182.9390  137.7720 C   0  0  0  0  0  2  0  0  0  0  0  0
  179.9050  185.4080  138.0110 C   0  0  0  0  0  1  0  0  0  0  0  0
  180.2900  184.2890  137.0650 C   0  0  1  0  0  3  0  0  0  0  0  0
  181.6090  184.4840  136.6420 O   0  0  0  0  0  1  0  0  0  0  0  0
  186.0450  176.6540  137.5170 N   0  0  0  0  0  2  0  0  0  0  0  0
  185.8910  176.2590  136.1140 C   0  0  2  0  0  0  0  0  0  0  0  0
  187.6640  178.0050  135.5250 C   0  0  0  0  0  1  0  0  0  0  0  0
  186.7200  176.9330  135.0190 C   0  0  2  0  0  3  0  0  0  0  0  0
  185.2920  177.3830  135.2930 C   0  0  0  0  0  2  0  0  0  0  0  0
  185.2010  174.9380  135.8050 C   0  0  0  0  0  2  0  0  0  0  0  0
  183.2740  174.1100  135.1630 C   0  0  0  0  0  1  0  0  0  0  0  0
  183.8320  175.0480  136.0230 O   0  0  0  0  0  0  0  0  0  0  0  0
  2  7  1  1  0  0  0
  3  6  1  6  0  0  0
  3  5  1  0  0  0  0
  3  2  1  0  0  0  0
  3  4  1  0  0  0  0
  5  1  1  6  0  0  0
  5  4  1  0  0  0  0
  6  2  1  0  0  0  0
  7  8  1  0  0  0  0
  8  9  1  0  0  0  0
 10 14  2  0  0  0  0
 11  9  1  6  0  0  0
 11 12  1  0  0  0  0
 11 10  1  0  0  0  0
 12 13  2  0  0  0  0
 13 14  1  0  0  0  0
 13 15  1  0  0  0  0
 15 18  1  6  0  0  0
 15 17  1  0  0  0  0
 17 16  1  0  0  0  0
 19 18  1  0  0  0  0
 19 20  1  1  0  0  0
 21 19  1  0  0  0  0
 22 21  1  0  0  0  0
 23 22  1  0  0  0  0
 24 23  1  0  0  0  0
 24 25  1  0  0  0  0
 26 29  1  0  0  0  0
 26  1  1  1  0  0  0
 27 28  2  0  0  0  0
 28 31  1  0  0  0  0
 29 27  1  0  0  0  0
 30 35  1  0  0  0  0
 30 27  1  0  0  0  0
 31 34  1  0  0  0  0
 32 34  1  0  0  0  0
 34 33  2  0  0  0  0
 36 35  1  0  0  0  0
 37 38  1  0  0  0  0
 37 36  1  0  0  0  0
 40 38  1  0  0  0  0
 40 39  1  1  0  0  0
 41 40  1  0  0  0  0
 42 26  1  0  0  0  0
 43 47  1  6  0  0  0
 43 42  1  0  0  0  0
 45 46  1  0  0  0  0
 45 44  1  1  0  0  0
 45 43  1  0  0  0  0
 46 43  1  0  0  0  0
 47 49  1  0  0  0  0
 48 49  1  0  0  0  0
M  END
>  <MODEL>
3

>  <REMARK>
 VINA RESULT:      -5.3      2.124      3.777
  Name = 
  26 active torsions:
  status: ('A' for Active; 'I' for Inactive)
    1  A    between atoms: C_1  and  N_12
    2  A    between atoms: C_3  and  C_4
    3  A    between atoms: C_3  and  N_32
    4  A    between atoms: C_4  and  N_49
    5  A    between atoms: C_7  and  C_17
    6  A    between atoms: C_7  and  C_24
    7  A    between atoms: C_8  and  N_10
    8  A    between atoms: C_8  and  C_23
    9  A    between atoms: N_10  and  C_44
   10  A    between atoms: C_11  and  C_39
   11  A    between atoms: N_12  and  N_15
   12  A    between atoms: C_14  and  C_37
   13  A    between atoms: N_15  and  C_37
   14  A    between atoms: C_17  and  C_39
   15  A    between atoms: C_19  and  C_46
   16  A    between atoms: C_20  and  C_28
   17  A    between atoms: C_20  and  C_44
   18  A    between atoms: C_23  and  O_35
   19  A    between atoms: C_24  and  C_36
   20  A    between atoms: C_29  and  C_31
   21  A    between atoms: C_29  and  C_36
   22  A    between atoms: C_29  and  C_47
   23  A    between atoms: N_32  and  C_46
   24  A    between atoms: N_38  and  C_43
   25  A    between atoms: C_42  and  C_43
   26  A    between atoms: C_44  and  N_48
                            x       y       z     vdW  Elec       q    Type
                         _______ _______ _______ _____ _____    ______ ____

>  <TORSDO>
F 26

$$$$
=
 OpenBabel11032419383D

 49 52  0  0  1  0  0  0  0  0999 V2000
  186.9630  177.9070  138.2260 C   0  0  0  0  0  2  0  0  0  0  0  0
  190.6680  177.6200  139.6110 C   0  0  2  0  0  3  0  0  0  0  0  0
  189.3630  178.1060  138.8920 C   0  0  2  0  0  0  0  0  0  0  0  0
  188.4590  178.4450  140.0950 C   0  0  0  0  0  2  0  0  0  0  0  0
  188.0340  177.3770  139.1660 C   0  0  1  0  0  3  0  0  0  0  0  0
  190.1530  176.8730  138.4430 C   0  0  0  0  0  2  0  0  0  0  0  0
  190.4400  176.7950  140.8000 N   0  0  0  0  0  2  0  0  0  0  0  0
  191.3910  177.1510  141.7820 N   0  0  0  0  0  2  0  0  0  0  0  0
  191.0630  176.4410  143.0170 C   0  0  0  0  0  2  0  0  0  0  0  0
  191.8300  176.4610  145.3720 C   0  0  0  0  0  3  0  0  0  0  0  0
  191.2830  177.3060  144.2600 C   0  0  2  0  0  3  0  0  0  0  0  0
  189.9910  177.7500  144.7800 N   0  0  0  0  0  0  0  0  0  0  0  0
  189.8210  177.2290  145.9520 C   0  0  0  0  0  0  0  0  0  0  0  0
  190.9620  176.4260  146.3760 C   0  0  0  0  0  3  0  0  0  0  0  0
  188.5920  177.5110  146.7600 C   0  0  1  0  0  3  0  0  0  0  0  0
  188.1020  177.6310  149.0960 O   0  0  0  0  0  1  0  0  0  0  0  0
  188.9240  178.1620  148.1020 C   0  0  0  0  0  2  0  0  0  0  0  0
  187.5570  178.2930  145.9500 C   0  0  0  0  0  2  0  0  0  0  0  0
  186.1290  177.8200  146.1890 C   0  0  1  0  0  3  0  0  0  0  0  0
  185.4650  178.7380  147.2000 C   0  0  0  0  0  1  0  0  0  0  0  0
  185.3620  177.8770  144.8790 C   0  0  0  0  0  2  0  0  0  0  0  0
  184.1050  178.7260  145.0110 C   0  0  0  0  0  2  0  0  0  0  0  0
  183.9530  179.6730  143.8340 C   0  0  0  0  0  2  0  0  0  0  0  0
  184.7670  179.1870  142.6360 C   0  0  0  0  0  2  0  0  0  0  0  0
  184.0420  178.1370  141.9360 N   0  0  0  0  0  1  0  0  0  0  0  0
  186.3630  176.7620  137.4110 C   0  0  2  0  0  3  0  0  0  0  0  0
  184.0740  177.3500  138.3750 C   0  0  0  0  0  0  0  0  0  0  0  0
  182.9420  176.9600  138.8750 N   0  0  0  0  0  0  0  0  0  0  0  0
  185.0430  176.3920  137.9260 N   0  0  0  0  0  2  0  0  0  0  0  0
  184.3690  178.7520  138.3070 N   0  0  0  0  0  2  0  0  0  0  0  0
  182.5310  175.5650  138.9640 C   0  0  0  0  0  2  0  0  0  0  0  0
  180.8960  175.8940  137.1110 O   0  0  0  0  0  1  0  0  0  0  0  0
  180.2300  174.7610  139.0540 C   0  0  0  0  0  2  0  0  0  0  0  0
  181.1780  175.3820  138.3660 C   0  0  0  0  0  0  0  0  0  0  0  0
  183.5850  179.7610  139.0040 C   0  0  0  0  0  2  0  0  0  0  0  0
  182.3240  180.0540  138.2120 C   0  0  0  0  0  2  0  0  0  0  0  0
  181.3120  180.6130  139.0910 N   0  0  0  0  0  2  0  0  0  0  0  0
  180.7880  179.5160  139.8990 C   0  0  0  0  0  2  0  0  0  0  0  0
  180.2680  179.8210  142.3200 C   0  0  0  0  0  1  0  0  0  0  0  0
  179.7640  180.0330  140.9070 C   0  0  1  0  0  3  0  0  0  0  0  0
  179.5590  181.4010  140.6980 O   0  0  0  0  0  1  0  0  0  0  0  0
  187.2880  175.6140  137.3500 N   0  0  0  0  0  2  0  0  0  0  0  0
  187.2140  174.8190  136.1210 C   0  0  2  0  0  0  0  0  0  0  0  0
  185.7860  173.1330  137.4100 C   0  0  0  0  0  1  0  0  0  0  0  0
  186.4340  173.5030  136.0910 C   0  0  2  0  0  3  0  0  0  0  0  0
  187.9440  173.5000  136.2800 C   0  0  0  0  0  2  0  0  0  0  0  0
  187.5820  175.4850  134.8040 C   0  0  0  0  0  2  0  0  0  0  0  0
  188.5130  177.4600  134.5940 C   0  0  0  0  0  1  0  0  0  0  0  0
  188.8020  176.1420  134.9210 O   0  0  0  0  0  0  0  0  0  0  0  0
  2  7  1  1  0  0  0
  3  6  1  6  0  0  0
  3  5  1  0  0  0  0
  3  2  1  0  0  0  0
  3  4  1  0  0  0  0
  5  1  1  6  0  0  0
  5  4  1  0  0  0  0
  6  2  1  0  0  0  0
  7  8  1  0  0  0  0
  8  9  1  0  0  0  0
 10 14  2  0  0  0  0
 11  9  1  6  0  0  0
 11 12  1  0  0  0  0
 11 10  1  0  0  0  0
 12 13  2  0  0  0  0
 13 14  1  0  0  0  0
 13 15  1  0  0  0  0
 15 18  1  6  0  0  0
 15 17  1  0  0  0  0
 17 16  1  0  0  0  0
 18 19  1  0  0  0  0
 19 20  1  1  0  0  0
 21 22  1  0  0  0  0
 21 19  1  0  0  0  0
 23 22  1  0  0  0  0
 24 23  1  0  0  0  0
 25 24  1  0  0  0  0
 26 29  1  0  0  0  0
 26  1  1  1  0  0  0
 27 28  2  0  0  0  0
 28 31  1  0  0  0  0
 29 27  1  0  0  0  0
 30 27  1  0  0  0  0
 30 35  1  0  0  0  0
 32 34  1  0  0  0  0
 34 31  1  0  0  0  0
 34 33  2  0  0  0  0
 36 35  1  0  0  0  0
 36 37  1  0  0  0  0
 37 38  1  0  0  0  0
 38 40  1  0  0  0  0
 40 39  1  1  0  0  0
 41 40  1  0  0  0  0
 42 26  1  0  0  0  0
 43 47  1  6  0  0  0
 43 46  1  0  0  0  0
 43 42  1  0  0  0  0
 45 43  1  0  0  0  0
 45 46  1  0  0  0  0
 45 44  1  1  0  0  0
 47 49  1  0  0  0  0
 48 49  1  0  0  0  0
M  END
>  <MODEL>
4

>  <REMARK>
 VINA RESULT:      -5.2      2.391      4.175
  Name = 
  26 active torsions:
  status: ('A' for Active; 'I' for Inactive)
    1  A    between atoms: C_1  and  N_12
    2  A    between atoms: C_3  and  C_4
    3  A    between atoms: C_3  and  N_32
    4  A    between atoms: C_4  and  N_49
    5  A    between atoms: C_7  and  C_17
    6  A    between atoms: C_7  and  C_24
    7  A    between atoms: C_8  and  N_10
    8  A    between atoms: C_8  and  C_23
    9  A    between atoms: N_10  and  C_44
   10  A    between atoms: C_11  and  C_39
   11  A    between atoms: N_12  and  N_15
   12  A    between atoms: C_14  and  C_37
   13  A    between atoms: N_15  and  C_37
   14  A    between atoms: C_17  and  C_39
   15  A    between atoms: C_19  and  C_46
   16  A    between atoms: C_20  and  C_28
   17  A    between atoms: C_20  and  C_44
   18  A    between atoms: C_23  and  O_35
   19  A    between atoms: C_24  and  C_36
   20  A    between atoms: C_29  and  C_31
   21  A    between atoms: C_29  and  C_36
   22  A    between atoms: C_29  and  C_47
   23  A    between atoms: N_32  and  C_46
   24  A    between atoms: N_38  and  C_43
   25  A    between atoms: C_42  and  C_43
   26  A    between atoms: C_44  and  N_48
                            x       y       z     vdW  Elec       q    Type
                         _______ _______ _______ _____ _____    ______ ____

>  <TORSDO>
F 26

$$$$
=
 OpenBabel11032419383D

 49 52  0  0  1  0  0  0  0  0999 V2000
  185.8950  178.1900  137.6810 C   0  0  0  0  0  2  0  0  0  0  0  0
  189.7730  178.0930  138.5050 C   0  0  2  0  0  3  0  0  0  0  0  0
  188.3190  178.5630  138.1580 C   0  0  2  0  0  0  0  0  0  0  0  0
  187.5730  178.2470  139.4700 C   0  0  0  0  0  2  0  0  0  0  0  0
  187.1600  177.5510  138.2330 C   0  0  1  0  0  3  0  0  0  0  0  0
  189.1920  177.7630  137.1860 C   0  0  0  0  0  2  0  0  0  0  0  0
  189.8450  176.8520  139.2800 N   0  0  0  0  0  2  0  0  0  0  0  0
  190.8320  177.0030  140.2800 N   0  0  0  0  0  2  0  0  0  0  0  0
  190.2700  176.5540  141.5510 C   0  0  0  0  0  2  0  0  0  0  0  0
  191.1280  178.3870  142.9800 C   0  0  0  0  0  3  0  0  0  0  0  0
  189.8860  177.7230  142.4610 C   0  0  2  0  0  3  0  0  0  0  0  0
  189.2490  177.2100  143.6720 N   0  0  0  0  0  0  0  0  0  0  0  0
  190.0010  177.4980  144.6850 C   0  0  0  0  0  0  0  0  0  0  0  0
  191.1860  178.2570  144.3000 C   0  0  0  0  0  3  0  0  0  0  0  0
  189.6100  177.1200  146.0800 C   0  0  1  0  0  3  0  0  0  0  0  0
  191.9810  176.8450  146.1920 O   0  0  0  0  0  1  0  0  0  0  0  0
  190.7980  176.6010  146.8890 C   0  0  0  0  0  2  0  0  0  0  0  0
  188.8560  178.2530  146.7760 C   0  0  0  0  0  2  0  0  0  0  0  0
  187.5460  177.8000  147.4080 C   0  0  1  0  0  3  0  0  0  0  0  0
  187.7800  177.5020  148.8770 C   0  0  0  0  0  1  0  0  0  0  0  0
  186.5220  178.9150  147.2790 C   0  0  0  0  0  2  0  0  0  0  0  0
  185.3770  178.5090  146.3610 C   0  0  0  0  0  2  0  0  0  0  0  0
  185.8950  177.9320  145.0550 C   0  0  0  0  0  2  0  0  0  0  0  0
  185.3120  178.6840  143.8590 C   0  0  0  0  0  2  0  0  0  0  0  0
  185.7430  178.0570  142.6190 N   0  0  0  0  0  1  0  0  0  0  0  0
  184.9120  177.1090  137.2310 C   0  0  2  0  0  3  0  0  0  0  0  0
  182.4030  177.4110  137.5850 C   0  0  0  0  0  0  0  0  0  0  0  0
  181.3880  177.4500  138.3930 N   0  0  0  0  0  0  0  0  0  0  0  0
  183.7160  177.1080  138.0760 N   0  0  0  0  0  2  0  0  0  0  0  0
  182.2100  177.7100  136.1960 N   0  0  0  0  0  2  0  0  0  0  0  0
  181.4690  177.1360  139.8130 C   0  0  0  0  0  2  0  0  0  0  0  0
  181.4090  179.5910  140.2510 O   0  0  0  0  0  1  0  0  0  0  0  0
  180.3490  178.1230  141.7430 C   0  0  0  0  0  2  0  0  0  0  0  0
  181.0440  178.3090  140.6300 C   0  0  0  0  0  0  0  0  0  0  0  0
  180.9890  178.3110  135.6770 C   0  0  0  0  0  2  0  0  0  0  0  0
  181.1130  179.8230  135.7270 C   0  0  0  0  0  2  0  0  0  0  0  0
  180.0200  180.3790  136.5060 N   0  0  0  0  0  2  0  0  0  0  0  0
  179.6960  181.6800  135.9280 C   0  0  0  0  0  2  0  0  0  0  0  0
  180.5590  183.9690  135.4360 C   0  0  0  0  0  1  0  0  0  0  0  0
  180.8270  182.6760  136.1780 C   0  0  1  0  0  3  0  0  0  0  0  0
  180.9100  182.9460  137.5480 O   0  0  0  0  0  1  0  0  0  0  0  0
  185.5670  175.7890  137.1760 N   0  0  0  0  0  2  0  0  0  0  0  0
  185.1200  174.9160  136.0860 C   0  0  2  0  0  0  0  0  0  0  0  0
  187.3060  175.4660  134.8760 C   0  0  0  0  0  1  0  0  0  0  0  0
  185.9950  174.7050  134.8490 C   0  0  2  0  0  3  0  0  0  0  0  0
  184.8550  175.7130  134.8240 C   0  0  0  0  0  2  0  0  0  0  0  0
  183.9840  173.9410  136.3570 C   0  0  0  0  0  2  0  0  0  0  0  0
  181.8120  173.8760  136.6530 C   0  0  0  0  0  1  0  0  0  0  0  0
  182.7910  174.4360  135.8420 O   0  0  0  0  0  0  0  0  0  0  0  0
  2  7  1  1  0  0  0
  3  6  1  6  0  0  0
  3  5  1  0  0  0  0
  3  2  1  0  0  0  0
  3  4  1  0  0  0  0
  5  1  1  6  0  0  0
  5  4  1  0  0  0  0
  6  2  1  0  0  0  0
  7  8  1  0  0  0  0
  8  9  1  0  0  0  0
 10 14  2  0  0  0  0
 11  9  1  6  0  0  0
 11 10  1  0  0  0  0
 11 12  1  0  0  0  0
 12 13  2  0  0  0  0
 13 15  1  0  0  0  0
 14 13  1  0  0  0  0
 15 18  1  1  0  0  0
 15 17  1  0  0  0  0
 16 17  1  0  0  0  0
 18 19  1  0  0  0  0
 19 20  1  1  0  0  0
 21 19  1  0  0  0  0
 22 21  1  0  0  0  0
 23 22  1  0  0  0  0
 24 23  1  0  0  0  0
 25 24  1  0  0  0  0
 26  1  1  1  0  0  0
 26 29  1  0  0  0  0
 27 29  1  0  0  0  0
 27 28  2  0  0  0  0
 28 31  1  0  0  0  0
 30 27  1  0  0  0  0
 31 34  1  0  0  0  0
 32 34  1  0  0  0  0
 34 33  2  0  0  0  0
 35 36  1  0  0  0  0
 35 30  1  0  0  0  0
 36 37  1  0  0  0  0
 38 40  1  0  0  0  0
 38 37  1  0  0  0  0
 40 39  1  6  0  0  0
 40 41  1  0  0  0  0
 42 26  1  0  0  0  0
 43 47  1  1  0  0  0
 43 42  1  0  0  0  0
 45 44  1  1  0  0  0
 45 43  1  0  0  0  0
 46 45  1  0  0  0  0
 46 43  1  0  0  0  0
 49 47  1  0  0  0  0
 49 48  1  0  0  0  0
M  END
>  <MODEL>
5

>  <REMARK>
 VINA RESULT:      -5.1      1.658      2.819
  Name = 
  26 active torsions:
  status: ('A' for Active; 'I' for Inactive)
    1  A    between atoms: C_1  and  N_12
    2  A    between atoms: C_3  and  C_4
    3  A    between atoms: C_3  and  N_32
    4  A    between atoms: C_4  and  N_49
    5  A    between atoms: C_7  and  C_17
    6  A    between atoms: C_7  and  C_24
    7  A    between atoms: C_8  and  N_10
    8  A    between atoms: C_8  and  C_23
    9  A    between atoms: N_10  and  C_44
   10  A    between atoms: C_11  and  C_39
   11  A    between atoms: N_12  and  N_15
   12  A    between atoms: C_14  and  C_37
   13  A    between atoms: N_15  and  C_37
   14  A    between atoms: C_17  and  C_39
   15  A    between atoms: C_19  and  C_46
   16  A    between atoms: C_20  and  C_28
   17  A    between atoms: C_20  and  C_44
   18  A    between atoms: C_23  and  O_35
   19  A    between atoms: C_24  and  C_36
   20  A    between atoms: C_29  and  C_31
   21  A    between atoms: C_29  and  C_36
   22  A    between atoms: C_29  and  C_47
   23  A    between atoms: N_32  and  C_46
   24  A    between atoms: N_38  and  C_43
   25  A    between atoms: C_42  and  C_43
   26  A    between atoms: C_44  and  N_48
                            x       y       z     vdW  Elec       q    Type
                         _______ _______ _______ _____ _____    ______ ____

>  <TORSDO>
F 26

$$$$
=
 OpenBabel11032419383D

 49 52  0  0  1  0  0  0  0  0999 V2000
  184.9630  177.6270  142.2800 C   0  0  0  0  0  2  0  0  0  0  0  0
  182.4550  178.9980  139.5310 C   0  0  2  0  0  3  0  0  0  0  0  0
  183.2550  178.7700  140.8590 C   0  0  2  0  0  0  0  0  0  0  0  0
  184.6670  179.2340  140.4490 C   0  0  0  0  0  2  0  0  0  0  0  0
  184.4720  177.8260  140.8540 C   0  0  1  0  0  3  0  0  0  0  0  0
  182.2430  177.7590  140.3090 C   0  0  0  0  0  2  0  0  0  0  0  0
  183.1790  178.6360  138.3100 N   0  0  0  0  0  2  0  0  0  0  0  0
  182.2540  178.1220  137.3740 N   0  0  0  0  0  2  0  0  0  0  0  0
  182.7730  176.8550  136.8640 C   0  0  0  0  0  2  0  0  0  0  0  0
  184.8700  176.9900  135.5520 C   0  0  0  0  0  3  0  0  0  0  0  0
  184.3010  176.7870  136.9260 C   0  0  2  0  0  3  0  0  0  0  0  0
  184.7150  175.4270  137.2630 N   0  0  0  0  0  0  0  0  0  0  0  0
  185.3680  174.9360  136.2590 C   0  0  0  0  0  0  0  0  0  0  0  0
  185.5090  175.8910  135.1670 C   0  0  0  0  0  3  0  0  0  0  0  0
  185.9450  173.5550  136.3040 C   0  0  1  0  0  3  0  0  0  0  0  0
  187.7110  172.2660  137.2690 O   0  0  0  0  0  1  0  0  0  0  0  0
  187.3790  173.5480  136.8330 C   0  0  0  0  0  2  0  0  0  0  0  0
  185.0240  172.5870  137.0470 C   0  0  0  0  0  2  0  0  0  0  0  0
  184.0620  171.8490  136.1250 C   0  0  1  0  0  3  0  0  0  0  0  0
  184.7870  170.6800  135.4860 C   0  0  0  0  0  1  0  0  0  0  0  0
  182.8930  171.3290  136.9430 C   0  0  0  0  0  2  0  0  0  0  0  0
  181.6210  171.2620  136.1070 C   0  0  0  0  0  2  0  0  0  0  0  0
  180.9100  172.6040  136.0780 C   0  0  0  0  0  2  0  0  0  0  0  0
  180.8130  173.1990  137.4820 C   0  0  0  0  0  2  0  0  0  0  0  0
  179.4170  173.3350  137.8680 N   0  0  0  0  0  1  0  0  0  0  0  0
  186.1770  178.5160  142.5480 C   0  0  2  0  0  3  0  0  0  0  0  0
  188.3690  177.8000  141.4560 C   0  0  0  0  0  0  0  0  0  0  0  0
  189.4200  177.0380  141.4600 N   0  0  0  0  0  0  0  0  0  0  0  0
  187.4130  177.7310  142.5230 N   0  0  0  0  0  2  0  0  0  0  0  0
  188.1480  178.6890  140.3530 N   0  0  0  0  0  2  0  0  0  0  0  0
  189.7530  176.1210  142.5420 C   0  0  0  0  0  2  0  0  0  0  0  0
  191.7950  175.5760  143.8660 O   0  0  0  0  0  1  0  0  0  0  0  0
  191.4540  177.7730  143.1190 C   0  0  0  0  0  2  0  0  0  0  0  0
  191.0430  176.5140  143.1780 C   0  0  0  0  0  0  0  0  0  0  0  0
  188.8950  178.6070  139.1060 C   0  0  0  0  0  2  0  0  0  0  0  0
  188.1780  177.6710  138.1510 C   0  0  0  0  0  2  0  0  0  0  0  0
  188.8860  176.4040  138.0840 N   0  0  0  0  0  2  0  0  0  0  0  0
  189.7080  176.4320  136.8770 C   0  0  0  0  0  2  0  0  0  0  0  0
  192.0710  176.3950  137.6770 C   0  0  0  0  0  1  0  0  0  0  0  0
  190.9580  175.5730  137.0580 C   0  0  1  0  0  3  0  0  0  0  0  0
  190.6630  174.4980  137.9030 O   0  0  0  0  0  1  0  0  0  0  0  0
  186.0120  179.2710  143.8050 N   0  0  0  0  0  2  0  0  0  0  0  0
  185.8190  178.4510  145.0040 C   0  0  2  0  0  0  0  0  0  0  0  0
  183.3570  179.1380  144.9650 C   0  0  0  0  0  1  0  0  0  0  0  0
  184.4410  178.3390  145.6590 C   0  0  2  0  0  3  0  0  0  0  0  0
  185.4780  179.3100  146.2050 C   0  0  0  0  0  2  0  0  0  0  0  0
  186.8870  177.4250  145.3600 C   0  0  0  0  0  2  0  0  0  0  0  0
  188.4740  177.2940  146.8670 C   0  0  0  0  0  1  0  0  0  0  0  0
  188.0420  178.0650  145.7960 O   0  0  0  0  0  0  0  0  0  0  0  0
  2  7  1  6  0  0  0
  2  6  1  0  0  0  0
  2  3  1  0  0  0  0
  3  6  1  1  0  0  0
  4  5  1  0  0  0  0
  4  3  1  0  0  0  0
  5  3  1  0  0  0  0
  5  1  1  1  0  0  0
  8  7  1  0  0  0  0
  9  8  1  0  0  0  0
 10 11  1  0  0  0  0
 11  9  1  6  0  0  0
 11 12  1  0  0  0  0
 13 15  1  0  0  0  0
 13 12  2  0  0  0  0
 14 10  2  0  0  0  0
 14 13  1  0  0  0  0
 15 17  1  1  0  0  0
 15 18  1  0  0  0  0
 17 16  1  0  0  0  0
 19 20  1  1  0  0  0
 19 21  1  0  0  0  0
 19 18  1  0  0  0  0
 22 21  1  0  0  0  0
 23 22  1  0  0  0  0
 23 24  1  0  0  0  0
 24 25  1  0  0  0  0
 26  1  1  1  0  0  0
 26 42  1  0  0  0  0
 27 28  2  0  0  0  0
 27 29  1  0  0  0  0
 28 31  1  0  0  0  0
 29 26  1  0  0  0  0
 30 27  1  0  0  0  0
 31 34  1  0  0  0  0
 33 34  2  0  0  0  0
 34 32  1  0  0  0  0
 35 30  1  0  0  0  0
 36 35  1  0  0  0  0
 37 36  1  0  0  0  0
 38 40  1  0  0  0  0
 38 37  1  0  0  0  0
 40 39  1  1  0  0  0
 40 41  1  0  0  0  0
 42 43  1  0  0  0  0
 43 47  1  1  0  0  0
 43 45  1  0  0  0  0
 43 46  1  0  0  0  0
 45 44  1  6  0  0  0
 45 46  1  0  0  0  0
 47 49  1  0  0  0  0
 49 48  1  0  0  0  0
M  END
>  <MODEL>
6

>  <REMARK>
 VINA RESULT:      -5.1      3.271     10.094
  Name = 
  26 active torsions:
  status: ('A' for Active; 'I' for Inactive)
    1  A    between atoms: C_1  and  N_12
    2  A    between atoms: C_3  and  C_4
    3  A    between atoms: C_3  and  N_32
    4  A    between atoms: C_4  and  N_49
    5  A    between atoms: C_7  and  C_17
    6  A    between atoms: C_7  and  C_24
    7  A    between atoms: C_8  and  N_10
    8  A    between atoms: C_8  and  C_23
    9  A    between atoms: N_10  and  C_44
   10  A    between atoms: C_11  and  C_39
   11  A    between atoms: N_12  and  N_15
   12  A    between atoms: C_14  and  C_37
   13  A    between atoms: N_15  and  C_37
   14  A    between atoms: C_17  and  C_39
   15  A    between atoms: C_19  and  C_46
   16  A    between atoms: C_20  and  C_28
   17  A    between atoms: C_20  and  C_44
   18  A    between atoms: C_23  and  O_35
   19  A    between atoms: C_24  and  C_36
   20  A    between atoms: C_29  and  C_31
   21  A    between atoms: C_29  and  C_36
   22  A    between atoms: C_29  and  C_47
   23  A    between atoms: N_32  and  C_46
   24  A    between atoms: N_38  and  C_43
   25  A    between atoms: C_42  and  C_43
   26  A    between atoms: C_44  and  N_48
                            x       y       z     vdW  Elec       q    Type
                         _______ _______ _______ _____ _____    ______ ____

>  <TORSDO>
F 26

$$$$
=
 OpenBabel11032419383D

 49 52  0  0  1  0  0  0  0  0999 V2000
  182.4920  179.6210  139.4290 C   0  0  0  0  0  2  0  0  0  0  0  0
  186.0270  178.1880  140.5130 C   0  0  2  0  0  3  0  0  0  0  0  0
  184.4880  178.4330  140.3500 C   0  0  2  0  0  0  0  0  0  0  0  0
  184.2670  178.0180  138.8810 C   0  0  0  0  0  2  0  0  0  0  0  0
  183.9910  179.4160  139.2720 C   0  0  1  0  0  3  0  0  0  0  0  0
  185.4180  179.4140  141.0700 C   0  0  0  0  0  2  0  0  0  0  0  0
  186.8370  178.5820  139.3560 N   0  0  0  0  0  2  0  0  0  0  0  0
  188.1910  178.6340  139.7530 N   0  0  0  0  0  2  0  0  0  0  0  0
  188.4780  177.4510  140.5620 C   0  0  0  0  0  2  0  0  0  0  0  0
  190.3980  176.3850  141.7090 C   0  0  0  0  0  3  0  0  0  0  0  0
  189.6520  177.6730  141.5180 C   0  0  2  0  0  3  0  0  0  0  0  0
  189.1420  177.9670  142.8560 N   0  0  0  0  0  0  0  0  0  0  0  0
  189.5010  177.0110  143.6510 C   0  0  0  0  0  0  0  0  0  0  0  0
  190.3110  176.0030  142.9780 C   0  0  0  0  0  3  0  0  0  0  0  0
  189.1450  177.0310  145.1050 C   0  0  1  0  0  3  0  0  0  0  0  0
  191.4990  176.8610  145.4790 O   0  0  0  0  0  1  0  0  0  0  0  0
  190.3310  177.4320  145.9810 C   0  0  0  0  0  2  0  0  0  0  0  0
  187.8930  177.8690  145.3640 C   0  0  0  0  0  2  0  0  0  0  0  0
  187.2450  177.5770  146.7110 C   0  0  1  0  0  3  0  0  0  0  0  0
  187.8300  178.5090  147.7560 C   0  0  0  0  0  1  0  0  0  0  0  0
  185.7500  177.8160  146.6050 C   0  0  0  0  0  2  0  0  0  0  0  0
  185.4470  179.0620  145.7830 C   0  0  0  0  0  2  0  0  0  0  0  0
  184.6700  178.7170  144.5240 C   0  0  0  0  0  2  0  0  0  0  0  0
  183.3370  179.4620  144.4860 C   0  0  0  0  0  2  0  0  0  0  0  0
  182.5370  178.9940  143.3650 N   0  0  0  0  0  1  0  0  0  0  0  0
  181.7290  178.6100  138.5740 C   0  0  2  0  0  3  0  0  0  0  0  0
  182.0600  178.4310  136.0500 C   0  0  0  0  0  0  0  0  0  0  0  0
  181.9250  178.9500  134.8690 N   0  0  0  0  0  0  0  0  0  0  0  0
  181.5540  179.1090  137.2080 N   0  0  0  0  0  2  0  0  0  0  0  0
  182.7550  177.1850  136.1960 N   0  0  0  0  0  2  0  0  0  0  0  0
  181.2140  180.1940  134.6060 C   0  0  0  0  0  2  0  0  0  0  0  0
  179.2150  178.7050  134.6850 O   0  0  0  0  0  1  0  0  0  0  0  0
  178.9310  181.0300  134.8110 C   0  0  0  0  0  2  0  0  0  0  0  0
  179.7420  179.9860  134.7180 C   0  0  0  0  0  0  0  0  0  0  0  0
  183.5480  176.5900  135.1310 C   0  0  0  0  0  2  0  0  0  0  0  0
  184.6730  175.7720  135.7380 C   0  0  0  0  0  2  0  0  0  0  0  0
  185.9430  176.4420  135.5130 N   0  0  0  0  0  2  0  0  0  0  0  0
  186.7100  176.3380  136.7510 C   0  0  0  0  0  2  0  0  0  0  0  0
  188.8060  177.5720  136.1910 C   0  0  0  0  0  1  0  0  0  0  0  0
  188.2020  176.2060  136.4480 C   0  0  1  0  0  3  0  0  0  0  0  0
  188.8460  175.6230  137.5440 O   0  0  0  0  0  1  0  0  0  0  0  0
  180.4500  178.2390  139.2080 N   0  0  0  0  0  2  0  0  0  0  0  0
  180.1770  176.8000  139.2640 C   0  0  2  0  0  0  0  0  0  0  0  0
  179.8480  177.0560  141.7880 C   0  0  0  0  0  1  0  0  0  0  0  0
  179.8500  176.1210  140.5950 C   0  0  2  0  0  3  0  0  0  0  0  0
  181.2610  176.0680  140.0290 C   0  0  0  0  0  2  0  0  0  0  0  0
  179.8450  176.0740  137.9680 C   0  0  0  0  0  2  0  0  0  0  0  0
  180.4370  174.3600  136.7350 C   0  0  0  0  0  1  0  0  0  0  0  0
  180.2250  174.7390  138.0540 O   0  0  0  0  0  0  0  0  0  0  0  0
  2  7  1  6  0  0  0
  2  6  1  0  0  0  0
  3  4  1  1  0  0  0
  3  2  1  0  0  0  0
  3  6  1  0  0  0  0
  4  5  1  0  0  0  0
  5  1  1  1  0  0  0
  5  3  1  0  0  0  0
  7  8  1  0  0  0  0
  8  9  1  0  0  0  0
 10 14  2  0  0  0  0
 11  9  1  6  0  0  0
 11 10  1  0  0  0  0
 11 12  1  0  0  0  0
 12 13  2  0  0  0  0
 13 15  1  0  0  0  0
 14 13  1  0  0  0  0
 15 18  1  6  0  0  0
 15 17  1  0  0  0  0
 16 17  1  0  0  0  0
 18 19  1  0  0  0  0
 19 20  1  1  0  0  0
 21 19  1  0  0  0  0
 22 21  1  0  0  0  0
 23 22  1  0  0  0  0
 24 23  1  0  0  0  0
 25 24  1  0  0  0  0
 26 42  1  0  0  0  0
 26  1  1  1  0  0  0
 27 30  1  0  0  0  0
 27 29  1  0  0  0  0
 28 27  2  0  0  0  0
 29 26  1  0  0  0  0
 31 34  1  0  0  0  0
 31 28  1  0  0  0  0
 32 34  1  0  0  0  0
 34 33  2  0  0  0  0
 35 36  1  0  0  0  0
 35 30  1  0  0  0  0
 37 36  1  0  0  0  0
 37 38  1  0  0  0  0
 40 39  1  1  0  0  0
 40 38  1  0  0  0  0
 40 41  1  0  0  0  0
 42 43  1  0  0  0  0
 43 47  1  6  0  0  0
 43 46  1  0  0  0  0
 43 45  1  0  0  0  0
 45 44  1  1  0  0  0
 46 45  1  0  0  0  0
 47 49  1  0  0  0  0
 48 49  1  0  0  0  0
M  END
>  <MODEL>
7

>  <REMARK>
 VINA RESULT:      -4.4      2.591      5.748
  Name = 
  26 active torsions:
  status: ('A' for Active; 'I' for Inactive)
    1  A    between atoms: C_1  and  N_12
    2  A    between atoms: C_3  and  C_4
    3  A    between atoms: C_3  and  N_32
    4  A    between atoms: C_4  and  N_49
    5  A    between atoms: C_7  and  C_17
    6  A    between atoms: C_7  and  C_24
    7  A    between atoms: C_8  and  N_10
    8  A    between atoms: C_8  and  C_23
    9  A    between atoms: N_10  and  C_44
   10  A    between atoms: C_11  and  C_39
   11  A    between atoms: N_12  and  N_15
   12  A    between atoms: C_14  and  C_37
   13  A    between atoms: N_15  and  C_37
   14  A    between atoms: C_17  and  C_39
   15  A    between atoms: C_19  and  C_46
   16  A    between atoms: C_20  and  C_28
   17  A    between atoms: C_20  and  C_44
   18  A    between atoms: C_23  and  O_35
   19  A    between atoms: C_24  and  C_36
   20  A    between atoms: C_29  and  C_31
   21  A    between atoms: C_29  and  C_36
   22  A    between atoms: C_29  and  C_47
   23  A    between atoms: N_32  and  C_46
   24  A    between atoms: N_38  and  C_43
   25  A    between atoms: C_42  and  C_43
   26  A    between atoms: C_44  and  N_48
                            x       y       z     vdW  Elec       q    Type
                         _______ _______ _______ _____ _____    ______ ____

>  <TORSDO>
F 26

$$$$
=
 OpenBabel11032419383D

 49 52  0  0  1  0  0  0  0  0999 V2000
  188.0860  177.6600  136.9030 C   0  0  0  0  0  2  0  0  0  0  0  0
  184.1610  177.3430  137.3660 C   0  0  2  0  0  3  0  0  0  0  0  0
  185.6980  177.0450  137.3020 C   0  0  2  0  0  0  0  0  0  0  0  0
  186.2220  177.8880  138.4830 C   0  0  0  0  0  2  0  0  0  0  0  0
  186.6860  178.2120  137.1180 C   0  0  1  0  0  3  0  0  0  0  0  0
  184.8500  177.3300  136.0590 C   0  0  0  0  0  2  0  0  0  0  0  0
  183.8190  178.7340  137.6730 N   0  0  0  0  0  2  0  0  0  0  0  0
  182.4520  178.7940  138.0240 N   0  0  0  0  0  2  0  0  0  0  0  0
  182.0280  177.4620  138.4480 C   0  0  0  0  0  2  0  0  0  0  0  0
  181.4350  178.7110  140.5030 C   0  0  0  0  0  3  0  0  0  0  0  0
  181.8340  177.3690  139.9630 C   0  0  2  0  0  3  0  0  0  0  0  0
  183.1230  177.1190  140.6050 N   0  0  0  0  0  0  0  0  0  0  0  0
  183.4170  178.1390  141.3450 C   0  0  0  0  0  0  0  0  0  0  0  0
  182.3740  179.1580  141.3280 C   0  0  0  0  0  3  0  0  0  0  0  0
  184.6770  178.1790  142.1540 C   0  0  1  0  0  3  0  0  0  0  0  0
  186.8060  179.0940  141.5720 O   0  0  0  0  0  1  0  0  0  0  0  0
  185.4920  179.4430  141.8850 C   0  0  0  0  0  2  0  0  0  0  0  0
  184.3960  177.9470  143.6390 C   0  0  0  0  0  2  0  0  0  0  0  0
  185.3330  178.7260  144.5530 C   0  0  1  0  0  3  0  0  0  0  0  0
  184.6160  179.0300  145.8560 C   0  0  0  0  0  1  0  0  0  0  0  0
  186.5610  177.8810  144.8410 C   0  0  0  0  0  2  0  0  0  0  0  0
  187.2400  178.3140  146.1330 C   0  0  0  0  0  2  0  0  0  0  0  0
  187.5490  177.1210  147.0210 C   0  0  0  0  0  2  0  0  0  0  0  0
  188.9140  177.2800  147.6890 C   0  0  0  0  0  2  0  0  0  0  0  0
  189.9690  176.9110  146.7580 N   0  0  0  0  0  1  0  0  0  0  0  0
  188.2730  176.3720  137.7050 C   0  0  2  0  0  3  0  0  0  0  0  0
  190.1950  176.8590  139.3120 C   0  0  0  0  0  0  0  0  0  0  0  0
  190.6100  177.0550  140.5260 N   0  0  0  0  0  0  0  0  0  0  0  0
  188.8000  176.6610  139.0400 N   0  0  0  0  0  2  0  0  0  0  0  0
  191.1480  176.8030  138.2420 N   0  0  0  0  0  2  0  0  0  0  0  0
  189.7270  177.1570  141.6790 C   0  0  0  0  0  2  0  0  0  0  0  0
  191.4680  176.7390  143.4150 O   0  0  0  0  0  1  0  0  0  0  0  0
  190.2190  178.7240  143.4830 C   0  0  0  0  0  2  0  0  0  0  0  0
  190.4950  177.5720  142.8880 C   0  0  0  0  0  0  0  0  0  0  0  0
  192.5830  176.6940  138.4630 C   0  0  0  0  0  2  0  0  0  0  0  0
  193.1810  175.7570  137.4300 C   0  0  0  0  0  2  0  0  0  0  0  0
  194.5890  176.0650  137.2460 N   0  0  0  0  0  2  0  0  0  0  0  0
  195.2250  174.8690  136.7020 C   0  0  0  0  0  2  0  0  0  0  0  0
  196.2910  172.9720  137.9230 C   0  0  0  0  0  1  0  0  0  0  0  0
  196.4030  174.4430  137.5770 C   0  0  1  0  0  3  0  0  0  0  0  0
  197.5970  174.6570  136.8810 O   0  0  0  0  0  1  0  0  0  0  0  0
  189.1060  175.4050  136.9650 N   0  0  0  0  0  2  0  0  0  0  0  0
  188.3650  174.3610  136.2520 C   0  0  2  0  0  0  0  0  0  0  0  0
  190.3230  174.2210  134.6130 C   0  0  0  0  0  1  0  0  0  0  0  0
  188.9560  173.6970  135.0080 C   0  0  2  0  0  3  0  0  0  0  0  0
  187.9500  174.8310  134.8730 C   0  0  0  0  0  2  0  0  0  0  0  0
  187.2020  173.6840  136.9640 C   0  0  0  0  0  2  0  0  0  0  0  0
  185.0280  173.4070  136.8700 C   0  0  0  0  0  1  0  0  0  0  0  0
  186.1630  173.4470  136.0700 O   0  0  0  0  0  0  0  0  0  0  0  0
  2  7  1  1  0  0  0
  3  6  1  6  0  0  0
  3  2  1  0  0  0  0
  3  4  1  0  0  0  0
  5  1  1  1  0  0  0
  5  3  1  0  0  0  0
  5  4  1  0  0  0  0
  6  2  1  0  0  0  0
  7  8  1  0  0  0  0
  8  9  1  0  0  0  0
 10 14  2  0  0  0  0
 11  9  1  6  0  0  0
 11 10  1  0  0  0  0
 11 12  1  0  0  0  0
 12 13  2  0  0  0  0
 13 15  1  0  0  0  0
 14 13  1  0  0  0  0
 15 17  1  1  0  0  0
 15 18  1  0  0  0  0
 16 17  1  0  0  0  0
 18 19  1  0  0  0  0
 19 21  1  0  0  0  0
 19 20  1  1  0  0  0
 21 22  1  0  0  0  0
 22 23  1  0  0  0  0
 23 24  1  0  0  0  0
 25 24  1  0  0  0  0
 26  1  1  6  0  0  0
 26 29  1  0  0  0  0
 27 28  2  0  0  0  0
 28 31  1  0  0  0  0
 29 27  1  0  0  0  0
 30 35  1  0  0  0  0
 30 27  1  0  0  0  0
 31 34  1  0  0  0  0
 34 32  1  0  0  0  0
 34 33  2  0  0  0  0
 36 35  1  0  0  0  0
 37 36  1  0  0  0  0
 38 37  1  0  0  0  0
 38 40  1  0  0  0  0
 40 39  1  6  0  0  0
 41 40  1  0  0  0  0
 42 26  1  0  0  0  0
 43 47  1  1  0  0  0
 43 42  1  0  0  0  0
 45 44  1  1  0  0  0
 45 43  1  0  0  0  0
 46 45  1  0  0  0  0
 46 43  1  0  0  0  0
 49 48  1  0  0  0  0
 49 47  1  0  0  0  0
M  END
>  <MODEL>
8

>  <REMARK>
 VINA RESULT:      -4.4      3.382      8.049
  Name = 
  26 active torsions:
  status: ('A' for Active; 'I' for Inactive)
    1  A    between atoms: C_1  and  N_12
    2  A    between atoms: C_3  and  C_4
    3  A    between atoms: C_3  and  N_32
    4  A    between atoms: C_4  and  N_49
    5  A    between atoms: C_7  and  C_17
    6  A    between atoms: C_7  and  C_24
    7  A    between atoms: C_8  and  N_10
    8  A    between atoms: C_8  and  C_23
    9  A    between atoms: N_10  and  C_44
   10  A    between atoms: C_11  and  C_39
   11  A    between atoms: N_12  and  N_15
   12  A    between atoms: C_14  and  C_37
   13  A    between atoms: N_15  and  C_37
   14  A    between atoms: C_17  and  C_39
   15  A    between atoms: C_19  and  C_46
   16  A    between atoms: C_20  and  C_28
   17  A    between atoms: C_20  and  C_44
   18  A    between atoms: C_23  and  O_35
   19  A    between atoms: C_24  and  C_36
   20  A    between atoms: C_29  and  C_31
   21  A    between atoms: C_29  and  C_36
   22  A    between atoms: C_29  and  C_47
   23  A    between atoms: N_32  and  C_46
   24  A    between atoms: N_38  and  C_43
   25  A    between atoms: C_42  and  C_43
   26  A    between atoms: C_44  and  N_48
                            x       y       z     vdW  Elec       q    Type
                         _______ _______ _______ _____ _____    ______ ____

>  <TORSDO>
F 26

$$$$
=
 OpenBabel11032419383D

 49 52  0  0  1  0  0  0  0  0999 V2000
  188.0730  176.0130  143.2420 C   0  0  0  0  0  2  0  0  0  0  0  0
  186.4050  178.5830  145.7610 C   0  0  2  0  0  3  0  0  0  0  0  0
  187.4070  177.6210  145.0350 C   0  0  2  0  0  0  0  0  0  0  0  0
  187.6670  178.3850  143.7200 C   0  0  0  0  0  2  0  0  0  0  0  0
  187.0390  177.0500  143.6530 C   0  0  1  0  0  3  0  0  0  0  0  0
  186.1600  177.1250  145.7720 C   0  0  0  0  0  2  0  0  0  0  0  0
  185.4010  179.1940  144.8850 N   0  0  0  0  0  2  0  0  0  0  0  0
  184.1220  178.9620  145.4400 N   0  0  0  0  0  2  0  0  0  0  0  0
  183.2900  178.3230  144.4220 C   0  0  0  0  0  2  0  0  0  0  0  0
  181.1720  179.1510  143.4410 C   0  0  0  0  0  3  0  0  0  0  0  0
  182.6600  179.3380  143.4660 C   0  0  2  0  0  3  0  0  0  0  0  0
  183.0600  179.0300  142.0950 N   0  0  0  0  0  0  0  0  0  0  0  0
  182.0040  178.6990  141.4250 C   0  0  0  0  0  0  0  0  0  0  0  0
  180.7890  178.7800  142.2260 C   0  0  0  0  0  3  0  0  0  0  0  0
  182.0820  178.3420  139.9720 C   0  0  1  0  0  3  0  0  0  0  0  0
  182.3860  179.6300  137.9820 O   0  0  0  0  0  1  0  0  0  0  0  0
  182.9880  179.2960  139.1950 C   0  0  0  0  0  2  0  0  0  0  0  0
  182.4460  176.8700  139.7750 C   0  0  0  0  0  2  0  0  0  0  0  0
  182.2740  176.3990  138.3370 C   0  0  1  0  0  3  0  0  0  0  0  0
  183.4100  175.4560  137.9860 C   0  0  0  0  0  1  0  0  0  0  0  0
  180.9520  175.6620  138.2110 C   0  0  0  0  0  2  0  0  0  0  0  0
  180.3390  175.3890  139.5780 C   0  0  0  0  0  2  0  0  0  0  0  0
  179.4700  174.1440  139.5540 C   0  0  0  0  0  2  0  0  0  0  0  0
  178.9800  173.7960  140.9580 C   0  0  0  0  0  2  0  0  0  0  0  0
  179.2100  174.9170  141.8570 N   0  0  0  0  0  1  0  0  0  0  0  0
  189.4740  176.6220  143.2830 C   0  0  2  0  0  3  0  0  0  0  0  0
  189.7410  177.2100  140.8140 C   0  0  0  0  0  0  0  0  0  0  0  0
  190.3320  177.0050  139.6770 N   0  0  0  0  0  0  0  0  0  0  0  0
  190.1400  176.4850  141.9860 N   0  0  0  0  0  2  0  0  0  0  0  0
  188.6550  178.1440  140.8850 N   0  0  0  0  0  2  0  0  0  0  0  0
  191.4610  176.1010  139.5010 C   0  0  0  0  0  2  0  0  0  0  0  0
  193.5440  176.6940  138.2660 O   0  0  0  0  0  1  0  0  0  0  0  0
  191.5270  176.4700  137.0900 C   0  0  0  0  0  2  0  0  0  0  0  0
  192.1880  176.4160  138.2370 C   0  0  0  0  0  0  0  0  0  0  0  0
  188.0000  178.6880  139.7040 C   0  0  0  0  0  2  0  0  0  0  0  0
  186.5460  178.2540  139.6910 C   0  0  0  0  0  2  0  0  0  0  0  0
  186.1330  177.9690  138.3270 N   0  0  0  0  0  2  0  0  0  0  0  0
  187.3440  177.7130  137.5540 C   0  0  0  0  0  2  0  0  0  0  0  0
  187.0960  175.3120  136.9200 C   0  0  0  0  0  1  0  0  0  0  0  0
  187.0560  176.7400  136.4120 C   0  0  1  0  0  3  0  0  0  0  0  0
  185.7850  177.0010  135.8910 O   0  0  0  0  0  1  0  0  0  0  0  0
  190.2670  176.0520  144.3880 N   0  0  0  0  0  2  0  0  0  0  0  0
  191.1930  176.9850  145.0370 C   0  0  2  0  0  0  0  0  0  0  0  0
  191.0290  175.5400  147.1400 C   0  0  0  0  0  1  0  0  0  0  0  0
  191.6340  176.7650  146.4850 C   0  0  2  0  0  3  0  0  0  0  0  0
  190.5110  177.7400  146.1600 C   0  0  0  0  0  2  0  0  0  0  0  0
  191.9990  177.9340  144.1600 C   0  0  0  0  0  2  0  0  0  0  0  0
  190.9110  179.7550  143.6040 C   0  0  0  0  0  1  0  0  0  0  0  0
  191.7880  179.2500  144.5550 O   0  0  0  0  0  0  0  0  0  0  0  0
  2  7  1  6  0  0  0
  2  6  1  0  0  0  0
  3  4  1  1  0  0  0
  3  2  1  0  0  0  0
  3  6  1  0  0  0  0
  5  1  1  6  0  0  0
  5  4  1  0  0  0  0
  5  3  1  0  0  0  0
  7  8  1  0  0  0  0
  9  8  1  0  0  0  0
 10 11  1  0  0  0  0
 11  9  1  1  0  0  0
 12 11  1  0  0  0  0
 13 12  2  0  0  0  0
 13 14  1  0  0  0  0
 14 10  2  0  0  0  0
 15 17  1  6  0  0  0
 15 13  1  0  0  0  0
 16 17  1  0  0  0  0
 18 15  1  0  0  0  0
 19 20  1  1  0  0  0
 19 18  1  0  0  0  0
 21 19  1  0  0  0  0
 21 22  1  0  0  0  0
 23 22  1  0  0  0  0
 23 24  1  0  0  0  0
 24 25  1  0  0  0  0
 26  1  1  6  0  0  0
 26 42  1  0  0  0  0
 27 30  1  0  0  0  0
 27 29  1  0  0  0  0
 28 27  2  0  0  0  0
 29 26  1  0  0  0  0
 31 28  1  0  0  0  0
 33 34  2  0  0  0  0
 34 32  1  0  0  0  0
 34 31  1  0  0  0  0
 35 30  1  0  0  0  0
 36 35  1  0  0  0  0
 37 36  1  0  0  0  0
 38 37  1  0  0  0  0
 40 39  1  1  0  0  0
 40 38  1  0  0  0  0
 41 40  1  0  0  0  0
 42 43  1  0  0  0  0
 43 47  1  6  0  0  0
 43 46  1  0  0  0  0
 43 45  1  0  0  0  0
 45 44  1  1  0  0  0
 46 45  1  0  0  0  0
 47 49  1  0  0  0  0
 48 49  1  0  0  0  0
M  END
>  <MODEL>
9

>  <REMARK>
 VINA RESULT:      -4.3      3.067      9.518
  Name = 
  26 active torsions:
  status: ('A' for Active; 'I' for Inactive)
    1  A    between atoms: C_1  and  N_12
    2  A    between atoms: C_3  and  C_4
    3  A    between atoms: C_3  and  N_32
    4  A    between atoms: C_4  and  N_49
    5  A    between atoms: C_7  and  C_17
    6  A    between atoms: C_7  and  C_24
    7  A    between atoms: C_8  and  N_10
    8  A    between atoms: C_8  and  C_23
    9  A    between atoms: N_10  and  C_44
   10  A    between atoms: C_11  and  C_39
   11  A    between atoms: N_12  and  N_15
   12  A    between atoms: C_14  and  C_37
   13  A    between atoms: N_15  and  C_37
   14  A    between atoms: C_17  and  C_39
   15  A    between atoms: C_19  and  C_46
   16  A    between atoms: C_20  and  C_28
   17  A    between atoms: C_20  and  C_44
   18  A    between atoms: C_23  and  O_35
   19  A    between atoms: C_24  and  C_36
   20  A    between atoms: C_29  and  C_31
   21  A    between atoms: C_29  and  C_36
   22  A    between atoms: C_29  and  C_47
   23  A    between atoms: N_32  and  C_46
   24  A    between atoms: N_38  and  C_43
   25  A    between atoms: C_42  and  C_43
   26  A    between atoms: C_44  and  N_48
                            x       y       z     vdW  Elec       q    Type
                         _______ _______ _______ _____ _____    ______ ____

>  <TORSDO>
F 26

$$$$
