=
 OpenBabel11032420363D

 27 29  0  0  1  0  0  0  0  0999 V2000
  189.0760  177.8310  141.6470 C   0  0  1  0  0  3  0  0  0  0  0  0
  187.8420  177.1910  142.0820 N   0  0  0  0  0  2  0  0  0  0  0  0
  185.3880  178.6200  144.4220 C   0  0  0  0  0  0  0  0  0  0  0  0
  186.7870  177.9080  142.7220 C   0  0  0  0  0  0  0  0  0  0  0  0
  185.7180  178.9650  141.9770 S   0  0  0  0  0  0  0  0  0  0  0  0
  184.8370  179.3450  143.3610 C   0  0  0  0  0  3  0  0  0  0  0  0
  186.4870  177.8180  144.0670 C   0  0  0  0  0  3  0  0  0  0  0  0
  183.6510  179.0440  145.9650 O   0  0  0  0  0  0  0  0  0  0  0  0
  184.8620  178.7370  145.8010 C   0  0  0  0  0  0  0  0  0  0  0  0
  185.6700  178.5250  146.9680 N   0  0  0  0  0  2  0  0  0  0  0  0
  187.0010  177.9300  146.9800 C   0  0  0  0  0  2  0  0  0  0  0  0
  187.7640  178.3550  148.2240 C   0  0  0  0  0  2  0  0  0  0  0  0
  189.1930  177.8560  148.1610 C   0  0  0  0  0  1  0  0  0  0  0  0
  190.0630  176.8140  141.3220 N   0  0  0  0  0  2  0  0  0  0  0  0
  191.2530  177.2010  141.9020 O   0  0  0  0  0  0  0  0  0  0  0  0
  191.3270  179.5140  143.9050 O   0  0  0  0  0  0  0  0  0  0  0  0
  191.6080  176.0880  143.9550 N   0  0  0  0  0  0  0  0  0  0  0  0
  191.7440  176.5150  145.3190 C   0  0  0  0  0  0  0  0  0  0  0  0
  191.6580  177.7980  145.5040 N   0  0  0  0  0  0  0  0  0  0  0  0
  191.4510  178.2960  144.1960 C   0  0  0  0  0  0  0  0  0  0  0  0
  191.4290  177.1750  143.2860 C   0  0  0  0  0  0  0  0  0  0  0  0
  191.9650  175.5640  146.4400 C   0  0  0  0  0  1  0  0  0  0  0  0
  188.8060  178.6900  140.4230 C   0  0  0  0  0  2  0  0  0  0  0  0
  187.3270  177.9480  138.5860 C   0  0  0  0  0  2  0  0  0  0  0  0
  187.7850  178.7190  137.4390 N   0  0  0  0  0  2  0  0  0  0  0  0
  189.1400  178.6280  137.9620 C   0  0  0  0  0  2  0  0  0  0  0  0
  188.7120  177.8320  139.1720 C   0  0  0  0  0  3  0  0  0  0  0  0
  1 23  1  6  0  0  0
  1  2  1  0  0  0  0
  2  4  1  0  0  0  0
  3  9  1  0  0  0  0
  4  7  2  0  0  0  0
  5  4  1  0  0  0  0
  5  6  1  0  0  0  0
  6  3  2  0  0  0  0
  7  3  1  0  0  0  0
  9  8  2  0  0  0  0
  9 10  1  0  0  0  0
 10 11  1  0  0  0  0
 11 12  1  0  0  0  0
 13 12  1  0  0  0  0
 14  1  1  0  0  0  0
 14 15  1  0  0  0  0
 15 21  1  0  0  0  0
 16 20  2  0  0  0  0
 17 18  1  0  0  0  0
 18 19  2  0  0  0  0
 18 22  1  0  0  0  0
 20 19  1  0  0  0  0
 21 17  2  0  0  0  0
 21 20  1  0  0  0  0
 24 27  1  0  0  0  0
 25 26  1  0  0  0  0
 25 24  1  0  0  0  0
 26 27  1  0  0  0  0
 27 23  1  0  0  0  0
M  END
>  <MODEL>
1

>  <REMARK>
 VINA RESULT:      -7.7      0.000      0.000
  Name = 
  10 active torsions:
  status: ('A' for Active; 'I' for Inactive)
    1  A    between atoms: N_2  and  C_7
    2  A    between atoms: N_2  and  C_15
    3  A    between atoms: O_6  and  N_19
    4  A    between atoms: O_6  and  C_23
    5  A    between atoms: C_7  and  N_19
    6  A    between atoms: C_7  and  C_21
    7  A    between atoms: C_8  and  C_10
    8  A    between atoms: C_10  and  N_18
    9  A    between atoms: C_11  and  C_13
   10  A    between atoms: C_21  and  C_26
                            x       y       z     vdW  Elec       q    Type
                         _______ _______ _______ _____ _____    ______ ____

>  <TORSDO>
F 10

$$$$
=
 OpenBabel11032420363D

 27 29  0  0  1  0  0  0  0  0999 V2000
  187.0440  178.3090  142.2130 C   0  0  1  0  0  3  0  0  0  0  0  0
  187.9680  177.2400  142.5640 N   0  0  0  0  0  2  0  0  0  0  0  0
  190.5100  177.2510  145.2250 C   0  0  0  0  0  0  0  0  0  0  0  0
  189.1110  177.4520  143.3930 C   0  0  0  0  0  0  0  0  0  0  0  0
  190.4030  178.4670  143.0520 S   0  0  0  0  0  0  0  0  0  0  0  0
  191.2590  178.1590  144.4690 C   0  0  0  0  0  3  0  0  0  0  0  0
  189.3070  176.8480  144.6200 C   0  0  0  0  0  3  0  0  0  0  0  0
  191.9690  175.9550  146.5550 O   0  0  0  0  0  0  0  0  0  0  0  0
  190.9880  176.7460  146.5310 C   0  0  0  0  0  0  0  0  0  0  0  0
  190.3810  177.1080  147.7810 N   0  0  0  0  0  2  0  0  0  0  0  0
  189.4170  178.1840  147.9740 C   0  0  0  0  0  2  0  0  0  0  0  0
  188.0580  177.6210  148.3550 C   0  0  0  0  0  2  0  0  0  0  0  0
  187.0140  178.0270  147.3340 C   0  0  0  0  0  1  0  0  0  0  0  0
  187.0210  178.4760  140.7680 N   0  0  0  0  0  2  0  0  0  0  0  0
  188.2820  178.8800  140.3850 O   0  0  0  0  0  0  0  0  0  0  0  0
  188.5630  179.6090  137.4250 O   0  0  0  0  0  0  0  0  0  0  0  0
  189.6400  177.1350  139.5560 N   0  0  0  0  0  0  0  0  0  0  0  0
  190.1890  176.8140  138.2680 C   0  0  0  0  0  0  0  0  0  0  0  0
  189.8920  177.6510  137.3200 N   0  0  0  0  0  0  0  0  0  0  0  0
  189.0900  178.6110  137.9820 C   0  0  0  0  0  0  0  0  0  0  0  0
  188.9790  178.2250  139.3690 C   0  0  0  0  0  0  0  0  0  0  0  0
  191.0360  175.6160  138.0330 C   0  0  0  0  0  1  0  0  0  0  0  0
  185.6490  177.9670  142.7090 C   0  0  0  0  0  2  0  0  0  0  0  0
  183.4210  178.9110  143.2180 C   0  0  0  0  0  2  0  0  0  0  0  0
  183.4210  179.0400  144.6680 N   0  0  0  0  0  2  0  0  0  0  0  0
  184.8410  179.3550  144.6050 C   0  0  0  0  0  2  0  0  0  0  0  0
  184.8920  179.2250  143.1010 C   0  0  0  0  0  3  0  0  0  0  0  0
  1  2  1  0  0  0  0
  1 23  1  6  0  0  0
  2  4  1  0  0  0  0
  3  9  1  0  0  0  0
  4  7  2  0  0  0  0
  5  4  1  0  0  0  0
  5  6  1  0  0  0  0
  6  3  2  0  0  0  0
  7  3  1  0  0  0  0
  9  8  2  0  0  0  0
  9 10  1  0  0  0  0
 10 11  1  0  0  0  0
 11 12  1  0  0  0  0
 13 12  1  0  0  0  0
 14  1  1  0  0  0  0
 15 14  1  0  0  0  0
 16 20  2  0  0  0  0
 18 17  1  0  0  0  0
 19 20  1  0  0  0  0
 19 18  2  0  0  0  0
 20 21  1  0  0  0  0
 21 17  2  0  0  0  0
 21 15  1  0  0  0  0
 22 18  1  0  0  0  0
 23 27  1  0  0  0  0
 24 25  1  0  0  0  0
 26 25  1  0  0  0  0
 27 24  1  0  0  0  0
 27 26  1  0  0  0  0
M  END
>  <MODEL>
2

>  <REMARK>
 VINA RESULT:      -7.6      2.551      5.630
  Name = 
  10 active torsions:
  status: ('A' for Active; 'I' for Inactive)
    1  A    between atoms: N_2  and  C_7
    2  A    between atoms: N_2  and  C_15
    3  A    between atoms: O_6  and  N_19
    4  A    between atoms: O_6  and  C_23
    5  A    between atoms: C_7  and  N_19
    6  A    between atoms: C_7  and  C_21
    7  A    between atoms: C_8  and  C_10
    8  A    between atoms: C_10  and  N_18
    9  A    between atoms: C_11  and  C_13
   10  A    between atoms: C_21  and  C_26
                            x       y       z     vdW  Elec       q    Type
                         _______ _______ _______ _____ _____    ______ ____

>  <TORSDO>
F 10

$$$$
=
 OpenBabel11032420363D

 27 29  0  0  1  0  0  0  0  0999 V2000
  188.7150  177.7770  143.2630 C   0  0  1  0  0  3  0  0  0  0  0  0
  189.2980  176.8450  142.3090 N   0  0  0  0  0  2  0  0  0  0  0  0
  189.0560  178.1180  138.8650 C   0  0  0  0  0  0  0  0  0  0  0  0
  189.4820  177.1670  140.9310 C   0  0  0  0  0  0  0  0  0  0  0  0
  190.7200  176.6100  139.9430 S   0  0  0  0  0  0  0  0  0  0  0  0
  190.2190  177.4100  138.5490 C   0  0  0  0  0  3  0  0  0  0  0  0
  188.6440  177.9890  140.2030 C   0  0  0  0  0  3  0  0  0  0  0  0
  189.0170  179.8320  137.2410 O   0  0  0  0  0  0  0  0  0  0  0  0
  188.3590  178.9560  137.8640 C   0  0  0  0  0  0  0  0  0  0  0  0
  186.9600  178.8250  137.5700 N   0  0  0  0  0  2  0  0  0  0  0  0
  186.1050  177.7240  137.9950 C   0  0  0  0  0  2  0  0  0  0  0  0
  184.7800  178.2500  138.5240 C   0  0  0  0  0  2  0  0  0  0  0  0
  184.9490  178.7840  139.9310 C   0  0  0  0  0  1  0  0  0  0  0  0
  187.5090  177.1980  143.8340 N   0  0  0  0  0  2  0  0  0  0  0  0
  187.0320  178.0910  144.7700 O   0  0  0  0  0  0  0  0  0  0  0  0
  185.3270  178.9100  147.1770 O   0  0  0  0  0  0  0  0  0  0  0  0
  184.9080  178.4360  143.7970 N   0  0  0  0  0  0  0  0  0  0  0  0
  183.6250  178.8370  144.3020 C   0  0  0  0  0  0  0  0  0  0  0  0
  183.5860  179.0710  145.5790 N   0  0  0  0  0  0  0  0  0  0  0  0
  184.9160  178.8190  145.9910 C   0  0  0  0  0  0  0  0  0  0  0  0
  185.6810  178.4310  144.8290 C   0  0  0  0  0  0  0  0  0  0  0  0
  182.4280  178.9770  143.4310 C   0  0  0  0  0  1  0  0  0  0  0  0
  189.7130  178.0730  144.3690 C   0  0  0  0  0  2  0  0  0  0  0  0
  191.6300  176.7060  145.1230 C   0  0  0  0  0  2  0  0  0  0  0  0
  191.6890  176.9510  146.5580 N   0  0  0  0  0  2  0  0  0  0  0  0
  190.2350  177.0370  146.5670 C   0  0  0  0  0  2  0  0  0  0  0  0
  190.1250  176.7940  145.0800 C   0  0  0  0  0  3  0  0  0  0  0  0
  1 14  1  0  0  0  0
  1 23  1  1  0  0  0
  2  1  1  0  0  0  0
  3  7  1  0  0  0  0
  4  2  1  0  0  0  0
  5  4  1  0  0  0  0
  6  3  2  0  0  0  0
  6  5  1  0  0  0  0
  7  4  2  0  0  0  0
  8  9  2  0  0  0  0
  9  3  1  0  0  0  0
 10  9  1  0  0  0  0
 10 11  1  0  0  0  0
 11 12  1  0  0  0  0
 12 13  1  0  0  0  0
 14 15  1  0  0  0  0
 15 21  1  0  0  0  0
 17 18  1  0  0  0  0
 17 21  2  0  0  0  0
 18 19  2  0  0  0  0
 19 20  1  0  0  0  0
 20 16  2  0  0  0  0
 21 20  1  0  0  0  0
 22 18  1  0  0  0  0
 23 27  1  0  0  0  0
 24 25  1  0  0  0  0
 25 26  1  0  0  0  0
 27 24  1  0  0  0  0
 27 26  1  0  0  0  0
M  END
>  <MODEL>
3

>  <REMARK>
 VINA RESULT:      -7.6      2.394      7.406
  Name = 
  10 active torsions:
  status: ('A' for Active; 'I' for Inactive)
    1  A    between atoms: N_2  and  C_7
    2  A    between atoms: N_2  and  C_15
    3  A    between atoms: O_6  and  N_19
    4  A    between atoms: O_6  and  C_23
    5  A    between atoms: C_7  and  N_19
    6  A    between atoms: C_7  and  C_21
    7  A    between atoms: C_8  and  C_10
    8  A    between atoms: C_10  and  N_18
    9  A    between atoms: C_11  and  C_13
   10  A    between atoms: C_21  and  C_26
                            x       y       z     vdW  Elec       q    Type
                         _______ _______ _______ _____ _____    ______ ____

>  <TORSDO>
F 10

$$$$
=
 OpenBabel11032420363D

 27 29  0  0  1  0  0  0  0  0999 V2000
  189.3440  176.7530  142.9290 C   0  0  1  0  0  3  0  0  0  0  0  0
  187.9790  176.7080  142.4250 N   0  0  0  0  0  2  0  0  0  0  0  0
  185.4680  178.5230  144.4120 C   0  0  0  0  0  0  0  0  0  0  0  0
  186.9500  177.5700  142.9110 C   0  0  0  0  0  0  0  0  0  0  0  0
  186.0930  178.6940  142.0060 S   0  0  0  0  0  0  0  0  0  0  0  0
  185.1190  179.2430  143.2650 C   0  0  0  0  0  3  0  0  0  0  0  0
  186.5000  177.5880  144.2170 C   0  0  0  0  0  3  0  0  0  0  0  0
  183.5980  179.1000  145.7340 O   0  0  0  0  0  0  0  0  0  0  0  0
  184.8150  178.7730  145.7160 C   0  0  0  0  0  0  0  0  0  0  0  0
  185.5060  178.6690  146.9710 N   0  0  0  0  0  2  0  0  0  0  0  0
  186.8210  178.0720  147.1660 C   0  0  0  0  0  2  0  0  0  0  0  0
  187.5200  178.7000  148.3610 C   0  0  0  0  0  2  0  0  0  0  0  0
  188.8890  178.0800  148.5560 C   0  0  0  0  0  1  0  0  0  0  0  0
  190.2300  176.0790  141.9930 N   0  0  0  0  0  2  0  0  0  0  0  0
  190.6380  177.0190  141.0700 O   0  0  0  0  0  0  0  0  0  0  0  0
  188.8440  178.8160  139.3590 O   0  0  0  0  0  0  0  0  0  0  0  0
  190.7160  175.9590  138.9610 N   0  0  0  0  0  0  0  0  0  0  0  0
  190.1310  176.2310  137.6780 C   0  0  0  0  0  0  0  0  0  0  0  0
  189.3840  177.2910  137.6280 N   0  0  0  0  0  0  0  0  0  0  0  0
  189.4480  177.7900  138.9510 C   0  0  0  0  0  0  0  0  0  0  0  0
  190.2960  176.9110  139.7220 C   0  0  0  0  0  0  0  0  0  0  0  0
  190.3630  175.3660  136.4910 C   0  0  0  0  0  1  0  0  0  0  0  0
  189.7830  178.1970  143.0990 C   0  0  0  0  0  2  0  0  0  0  0  0
  190.1760  177.1740  145.3150 C   0  0  0  0  0  2  0  0  0  0  0  0
  191.6160  176.9620  145.3490 N   0  0  0  0  0  2  0  0  0  0  0  0
  191.7800  178.1860  144.5780 C   0  0  0  0  0  2  0  0  0  0  0  0
  190.2930  178.4440  144.5090 C   0  0  0  0  0  3  0  0  0  0  0  0
  1 23  1  6  0  0  0
  2  4  1  0  0  0  0
  2  1  1  0  0  0  0
  3  9  1  0  0  0  0
  4  7  2  0  0  0  0
  5  4  1  0  0  0  0
  5  6  1  0  0  0  0
  6  3  2  0  0  0  0
  7  3  1  0  0  0  0
  9  8  2  0  0  0  0
  9 10  1  0  0  0  0
 10 11  1  0  0  0  0
 11 12  1  0  0  0  0
 12 13  1  0  0  0  0
 14  1  1  0  0  0  0
 15 14  1  0  0  0  0
 17 21  2  0  0  0  0
 18 17  1  0  0  0  0
 19 18  2  0  0  0  0
 19 20  1  0  0  0  0
 20 16  2  0  0  0  0
 20 21  1  0  0  0  0
 21 15  1  0  0  0  0
 22 18  1  0  0  0  0
 23 27  1  0  0  0  0
 24 25  1  0  0  0  0
 26 25  1  0  0  0  0
 27 26  1  0  0  0  0
 27 24  1  0  0  0  0
M  END
>  <MODEL>
4

>  <REMARK>
 VINA RESULT:      -7.5      1.567      4.557
  Name = 
  10 active torsions:
  status: ('A' for Active; 'I' for Inactive)
    1  A    between atoms: N_2  and  C_7
    2  A    between atoms: N_2  and  C_15
    3  A    between atoms: O_6  and  N_19
    4  A    between atoms: O_6  and  C_23
    5  A    between atoms: C_7  and  N_19
    6  A    between atoms: C_7  and  C_21
    7  A    between atoms: C_8  and  C_10
    8  A    between atoms: C_10  and  N_18
    9  A    between atoms: C_11  and  C_13
   10  A    between atoms: C_21  and  C_26
                            x       y       z     vdW  Elec       q    Type
                         _______ _______ _______ _____ _____    ______ ____

>  <TORSDO>
F 10

$$$$
=
 OpenBabel11032420363D

 27 29  0  0  1  0  0  0  0  0999 V2000
  189.9350  177.9110  145.0500 C   0  0  1  0  0  3  0  0  0  0  0  0
  190.1410  178.6470  143.8110 N   0  0  0  0  0  2  0  0  0  0  0  0
  188.4360  178.0420  140.6070 C   0  0  0  0  0  0  0  0  0  0  0  0
  189.6940  178.1630  142.5450 C   0  0  0  0  0  0  0  0  0  0  0  0
  190.2960  176.8240  141.7320 S   0  0  0  0  0  0  0  0  0  0  0  0
  189.2700  176.9380  140.4010 C   0  0  0  0  0  3  0  0  0  0  0  0
  188.6760  178.7340  141.8060 C   0  0  0  0  0  3  0  0  0  0  0  0
  186.2330  178.6280  139.9910 O   0  0  0  0  0  0  0  0  0  0  0  0
  187.4200  178.4450  139.6090 C   0  0  0  0  0  0  0  0  0  0  0  0
  187.7190  178.6310  138.2170 N   0  0  0  0  0  2  0  0  0  0  0  0
  189.0550  178.7090  137.6410 C   0  0  0  0  0  2  0  0  0  0  0  0
  189.2740  177.5830  136.6440 C   0  0  0  0  0  2  0  0  0  0  0  0
  187.9570  177.1700  136.0190 C   0  0  0  0  0  1  0  0  0  0  0  0
  188.7030  177.1420  144.9600 N   0  0  0  0  0  2  0  0  0  0  0  0
  187.8020  177.7110  145.8350 O   0  0  0  0  0  0  0  0  0  0  0  0
  185.6880  179.3290  147.3450 O   0  0  0  0  0  0  0  0  0  0  0  0
  186.1060  177.9740  144.2130 N   0  0  0  0  0  0  0  0  0  0  0  0
  184.8250  178.6220  144.1950 C   0  0  0  0  0  0  0  0  0  0  0  0
  184.4890  179.2050  145.3050 N   0  0  0  0  0  0  0  0  0  0  0  0
  185.5970  178.9510  146.1480 C   0  0  0  0  0  0  0  0  0  0  0  0
  186.5640  178.1820  145.3990 C   0  0  0  0  0  0  0  0  0  0  0  0
  183.9450  178.6280  142.9970 C   0  0  0  0  0  1  0  0  0  0  0  0
  191.1050  176.9740  145.2930 C   0  0  0  0  0  2  0  0  0  0  0  0
  192.2380  175.5810  146.9930 C   0  0  0  0  0  2  0  0  0  0  0  0
  192.4320  176.4910  148.1140 N   0  0  0  0  0  2  0  0  0  0  0  0
  191.1680  177.1270  147.7720 C   0  0  0  0  0  2  0  0  0  0  0  0
  190.9260  176.2110  146.5950 C   0  0  0  0  0  3  0  0  0  0  0  0
  1 23  1  6  0  0  0
  2  1  1  0  0  0  0
  3  7  1  0  0  0  0
  4  2  1  0  0  0  0
  5  4  1  0  0  0  0
  6  3  2  0  0  0  0
  6  5  1  0  0  0  0
  7  4  2  0  0  0  0
  9  8  2  0  0  0  0
  9  3  1  0  0  0  0
 10  9  1  0  0  0  0
 11 10  1  0  0  0  0
 12 11  1  0  0  0  0
 13 12  1  0  0  0  0
 14  1  1  0  0  0  0
 14 15  1  0  0  0  0
 17 21  2  0  0  0  0
 18 17  1  0  0  0  0
 18 19  2  0  0  0  0
 19 20  1  0  0  0  0
 20 16  2  0  0  0  0
 21 15  1  0  0  0  0
 21 20  1  0  0  0  0
 22 18  1  0  0  0  0
 23 27  1  0  0  0  0
 24 25  1  0  0  0  0
 26 25  1  0  0  0  0
 27 24  1  0  0  0  0
 27 26  1  0  0  0  0
M  END
>  <MODEL>
5

>  <REMARK>
 VINA RESULT:      -7.4      2.402      7.432
  Name = 
  10 active torsions:
  status: ('A' for Active; 'I' for Inactive)
    1  A    between atoms: N_2  and  C_7
    2  A    between atoms: N_2  and  C_15
    3  A    between atoms: O_6  and  N_19
    4  A    between atoms: O_6  and  C_23
    5  A    between atoms: C_7  and  N_19
    6  A    between atoms: C_7  and  C_21
    7  A    between atoms: C_8  and  C_10
    8  A    between atoms: C_10  and  N_18
    9  A    between atoms: C_11  and  C_13
   10  A    between atoms: C_21  and  C_26
                            x       y       z     vdW  Elec       q    Type
                         _______ _______ _______ _____ _____    ______ ____

>  <TORSDO>
F 10

$$$$
=
 OpenBabel11032420363D

 27 29  0  0  1  0  0  0  0  0999 V2000
  185.3200  178.8910  142.2780 C   0  0  1  0  0  3  0  0  0  0  0  0
  185.9590  177.8800  143.1080 N   0  0  0  0  0  2  0  0  0  0  0  0
  187.2190  177.8710  146.5660 C   0  0  0  0  0  0  0  0  0  0  0  0
  186.1790  178.0590  144.5070 C   0  0  0  0  0  0  0  0  0  0  0  0
  185.1730  178.8840  145.5670 S   0  0  0  0  0  0  0  0  0  0  0  0
  186.1050  178.6260  146.9460 C   0  0  0  0  0  3  0  0  0  0  0  0
  187.2670  177.5580  145.1960 C   0  0  0  0  0  3  0  0  0  0  0  0
  187.9350  177.2870  148.7390 O   0  0  0  0  0  0  0  0  0  0  0  0
  188.2650  177.4830  147.5390 C   0  0  0  0  0  0  0  0  0  0  0  0
  189.6470  177.3250  147.1820 N   0  0  0  0  0  2  0  0  0  0  0  0
  190.1690  177.2630  145.8220 C   0  0  0  0  0  2  0  0  0  0  0  0
  191.5800  176.6990  145.8180 C   0  0  0  0  0  2  0  0  0  0  0  0
  191.8850  176.0300  147.1420 C   0  0  0  0  0  1  0  0  0  0  0  0
  186.0210  178.9890  141.0060 N   0  0  0  0  0  2  0  0  0  0  0  0
  187.3520  178.7260  141.2530 O   0  0  0  0  0  0  0  0  0  0  0  0
  189.7500  176.8340  141.4440 O   0  0  0  0  0  0  0  0  0  0  0  0
  188.0810  178.5990  139.0110 N   0  0  0  0  0  0  0  0  0  0  0  0
  189.1410  177.9020  138.3370 C   0  0  0  0  0  0  0  0  0  0  0  0
  189.8880  177.1660  139.1030 N   0  0  0  0  0  0  0  0  0  0  0  0
  189.3200  177.3590  140.3840 C   0  0  0  0  0  0  0  0  0  0  0  0
  188.2000  178.2600  140.2490 C   0  0  0  0  0  0  0  0  0  0  0  0
  189.3680  178.0110  136.8720 C   0  0  0  0  0  1  0  0  0  0  0  0
  183.8690  178.5140  142.0330 C   0  0  0  0  0  2  0  0  0  0  0  0
  183.0400  177.1870  140.1190 C   0  0  0  0  0  2  0  0  0  0  0  0
  181.6760  177.6630  139.9310 N   0  0  0  0  0  2  0  0  0  0  0  0
  182.1210  178.9900  140.3330 C   0  0  0  0  0  2  0  0  0  0  0  0
  183.5470  178.5420  140.5480 C   0  0  0  0  0  3  0  0  0  0  0  0
  1 23  1  6  0  0  0
  1  2  1  0  0  0  0
  2  4  1  0  0  0  0
  3  6  2  0  0  0  0
  3  9  1  0  0  0  0
  4  7  2  0  0  0  0
  4  5  1  0  0  0  0
  5  6  1  0  0  0  0
  7  3  1  0  0  0  0
  9  8  2  0  0  0  0
 10  9  1  0  0  0  0
 11 10  1  0  0  0  0
 12 11  1  0  0  0  0
 12 13  1  0  0  0  0
 14 15  1  0  0  0  0
 14  1  1  0  0  0  0
 17 21  2  0  0  0  0
 18 17  1  0  0  0  0
 18 19  2  0  0  0  0
 19 20  1  0  0  0  0
 20 16  2  0  0  0  0
 21 20  1  0  0  0  0
 21 15  1  0  0  0  0
 22 18  1  0  0  0  0
 24 27  1  0  0  0  0
 25 24  1  0  0  0  0
 25 26  1  0  0  0  0
 26 27  1  0  0  0  0
 27 23  1  0  0  0  0
M  END
>  <MODEL>
6

>  <REMARK>
 VINA RESULT:      -7.3      2.707      5.070
  Name = 
  10 active torsions:
  status: ('A' for Active; 'I' for Inactive)
    1  A    between atoms: N_2  and  C_7
    2  A    between atoms: N_2  and  C_15
    3  A    between atoms: O_6  and  N_19
    4  A    between atoms: O_6  and  C_23
    5  A    between atoms: C_7  and  N_19
    6  A    between atoms: C_7  and  C_21
    7  A    between atoms: C_8  and  C_10
    8  A    between atoms: C_10  and  N_18
    9  A    between atoms: C_11  and  C_13
   10  A    between atoms: C_21  and  C_26
                            x       y       z     vdW  Elec       q    Type
                         _______ _______ _______ _____ _____    ______ ____

>  <TORSDO>
F 10

$$$$
=
 OpenBabel11032420363D

 27 29  0  0  1  0  0  0  0  0999 V2000
  189.3690  177.7910  142.1060 C   0  0  1  0  0  3  0  0  0  0  0  0
  188.1310  177.1700  142.5550 N   0  0  0  0  0  2  0  0  0  0  0  0
  185.0450  178.6950  143.8570 C   0  0  0  0  0  0  0  0  0  0  0  0
  186.9300  177.9130  142.7670 C   0  0  0  0  0  0  0  0  0  0  0  0
  186.1940  178.9370  141.6600 S   0  0  0  0  0  0  0  0  0  0  0  0
  184.8990  179.3730  142.6430 C   0  0  0  0  0  3  0  0  0  0  0  0
  186.1870  177.8790  143.9310 C   0  0  0  0  0  3  0  0  0  0  0  0
  184.5230  179.0010  146.1400 O   0  0  0  0  0  0  0  0  0  0  0  0
  184.0810  178.8690  144.9670 C   0  0  0  0  0  0  0  0  0  0  0  0
  182.6590  178.8890  144.7740 N   0  0  0  0  0  2  0  0  0  0  0  0
  181.9800  179.0020  143.4890 C   0  0  0  0  0  2  0  0  0  0  0  0
  180.5340  178.5510  143.6070 C   0  0  0  0  0  2  0  0  0  0  0  0
  179.7160  179.0950  142.4540 C   0  0  0  0  0  1  0  0  0  0  0  0
  190.1820  178.1430  143.2600 N   0  0  0  0  0  2  0  0  0  0  0  0
  190.1970  177.0480  144.0970 O   0  0  0  0  0  0  0  0  0  0  0  0
  192.0590  176.1280  146.3470 O   0  0  0  0  0  0  0  0  0  0  0  0
  189.0470  177.7580  146.0340 N   0  0  0  0  0  0  0  0  0  0  0  0
  189.3110  177.6810  147.4440 C   0  0  0  0  0  0  0  0  0  0  0  0
  190.4250  177.0950  147.7630 N   0  0  0  0  0  0  0  0  0  0  0  0
  190.9710  176.7410  146.5070 C   0  0  0  0  0  0  0  0  0  0  0  0
  190.0600  177.1870  145.4780 C   0  0  0  0  0  0  0  0  0  0  0  0
  188.3820  178.2320  148.4650 C   0  0  0  0  0  1  0  0  0  0  0  0
  190.1350  176.8260  141.2170 C   0  0  0  0  0  2  0  0  0  0  0  0
  190.3840  176.5220  138.7760 C   0  0  0  0  0  2  0  0  0  0  0  0
  189.2380  177.2280  138.2200 N   0  0  0  0  0  2  0  0  0  0  0  0
  189.3560  178.1990  139.2980 C   0  0  0  0  0  2  0  0  0  0  0  0
  190.5430  177.4980  139.9160 C   0  0  0  0  0  3  0  0  0  0  0  0
  1 23  1  6  0  0  0
  1  2  1  0  0  0  0
  1 14  1  0  0  0  0
  2  4  1  0  0  0  0
  3  7  1  0  0  0  0
  3  9  1  0  0  0  0
  4  7  2  0  0  0  0
  5  6  1  0  0  0  0
  5  4  1  0  0  0  0
  6  3  2  0  0  0  0
  9  8  2  0  0  0  0
 10  9  1  0  0  0  0
 11 12  1  0  0  0  0
 11 10  1  0  0  0  0
 13 12  1  0  0  0  0
 14 15  1  0  0  0  0
 15 21  1  0  0  0  0
 16 20  2  0  0  0  0
 17 18  1  0  0  0  0
 18 19  2  0  0  0  0
 18 22  1  0  0  0  0
 20 19  1  0  0  0  0
 21 17  2  0  0  0  0
 21 20  1  0  0  0  0
 24 27  1  0  0  0  0
 25 24  1  0  0  0  0
 25 26  1  0  0  0  0
 26 27  1  0  0  0  0
 27 23  1  0  0  0  0
M  END
>  <MODEL>
7

>  <REMARK>
 VINA RESULT:      -7.3      2.272      3.768
  Name = 
  10 active torsions:
  status: ('A' for Active; 'I' for Inactive)
    1  A    between atoms: N_2  and  C_7
    2  A    between atoms: N_2  and  C_15
    3  A    between atoms: O_6  and  N_19
    4  A    between atoms: O_6  and  C_23
    5  A    between atoms: C_7  and  N_19
    6  A    between atoms: C_7  and  C_21
    7  A    between atoms: C_8  and  C_10
    8  A    between atoms: C_10  and  N_18
    9  A    between atoms: C_11  and  C_13
   10  A    between atoms: C_21  and  C_26
                            x       y       z     vdW  Elec       q    Type
                         _______ _______ _______ _____ _____    ______ ____

>  <TORSDO>
F 10

$$$$
=
 OpenBabel11032420363D

 27 29  0  0  1  0  0  0  0  0999 V2000
  184.8180  178.8520  141.7460 C   0  0  1  0  0  3  0  0  0  0  0  0
  185.0440  177.8250  142.7520 N   0  0  0  0  0  2  0  0  0  0  0  0
  186.8700  178.0530  145.9390 C   0  0  0  0  0  0  0  0  0  0  0  0
  185.5110  178.1240  144.0670 C   0  0  0  0  0  0  0  0  0  0  0  0
  184.7600  179.1370  145.1750 S   0  0  0  0  0  0  0  0  0  0  0  0
  185.8920  178.9380  146.4050 C   0  0  0  0  0  3  0  0  0  0  0  0
  186.6610  177.6000  144.6250 C   0  0  0  0  0  3  0  0  0  0  0  0
  187.8340  177.1590  147.9000 O   0  0  0  0  0  0  0  0  0  0  0  0
  188.0350  177.6740  146.7680 C   0  0  0  0  0  0  0  0  0  0  0  0
  189.3940  177.8720  146.3470 N   0  0  0  0  0  2  0  0  0  0  0  0
  189.8200  178.2130  144.9960 C   0  0  0  0  0  2  0  0  0  0  0  0
  191.2390  177.7270  144.7450 C   0  0  0  0  0  2  0  0  0  0  0  0
  191.6630  176.7570  145.8300 C   0  0  0  0  0  1  0  0  0  0  0  0
  186.0930  179.4220  141.3380 N   0  0  0  0  0  2  0  0  0  0  0  0
  186.5490  178.6760  140.2720 O   0  0  0  0  0  0  0  0  0  0  0  0
  188.5450  179.0110  137.9750 O   0  0  0  0  0  0  0  0  0  0  0  0
  188.4940  177.6470  141.1300 N   0  0  0  0  0  0  0  0  0  0  0  0
  189.8210  177.4290  140.6270 C   0  0  0  0  0  0  0  0  0  0  0  0
  190.0370  177.8880  139.4320 N   0  0  0  0  0  0  0  0  0  0  0  0
  188.7920  178.4580  139.0780 C   0  0  0  0  0  0  0  0  0  0  0  0
  187.8820  178.2720  140.1840 C   0  0  0  0  0  0  0  0  0  0  0  0
  190.8730  176.7320  141.4130 C   0  0  0  0  0  1  0  0  0  0  0  0
  184.1200  178.2470  140.5390 C   0  0  0  0  0  2  0  0  0  0  0  0
  183.0470  179.9280  139.0790 C   0  0  0  0  0  2  0  0  0  0  0  0
  182.2400  179.1300  138.1660 N   0  0  0  0  0  2  0  0  0  0  0  0
  181.9940  178.1960  139.2540 C   0  0  0  0  0  2  0  0  0  0  0  0
  182.8270  178.9850  140.2360 C   0  0  0  0  0  3  0  0  0  0  0  0
  1 23  1  6  0  0  0
  1  2  1  0  0  0  0
  2  4  1  0  0  0  0
  3  6  2  0  0  0  0
  3  9  1  0  0  0  0
  4  7  2  0  0  0  0
  4  5  1  0  0  0  0
  5  6  1  0  0  0  0
  7  3  1  0  0  0  0
  9  8  2  0  0  0  0
 10  9  1  0  0  0  0
 11 10  1  0  0  0  0
 12 11  1  0  0  0  0
 12 13  1  0  0  0  0
 14  1  1  0  0  0  0
 15 14  1  0  0  0  0
 16 20  2  0  0  0  0
 18 17  1  0  0  0  0
 18 22  1  0  0  0  0
 19 18  2  0  0  0  0
 20 19  1  0  0  0  0
 20 21  1  0  0  0  0
 21 15  1  0  0  0  0
 21 17  2  0  0  0  0
 24 27  1  0  0  0  0
 25 24  1  0  0  0  0
 25 26  1  0  0  0  0
 26 27  1  0  0  0  0
 27 23  1  0  0  0  0
M  END
>  <MODEL>
8

>  <REMARK>
 VINA RESULT:      -7.3      2.984      4.669
  Name = 
  10 active torsions:
  status: ('A' for Active; 'I' for Inactive)
    1  A    between atoms: N_2  and  C_7
    2  A    between atoms: N_2  and  C_15
    3  A    between atoms: O_6  and  N_19
    4  A    between atoms: O_6  and  C_23
    5  A    between atoms: C_7  and  N_19
    6  A    between atoms: C_7  and  C_21
    7  A    between atoms: C_8  and  C_10
    8  A    between atoms: C_10  and  N_18
    9  A    between atoms: C_11  and  C_13
   10  A    between atoms: C_21  and  C_26
                            x       y       z     vdW  Elec       q    Type
                         _______ _______ _______ _____ _____    ______ ____

>  <TORSDO>
F 10

$$$$
=
 OpenBabel11032420363D

 27 29  0  0  1  0  0  0  0  0999 V2000
  188.6110  177.5660  140.8470 C   0  0  1  0  0  3  0  0  0  0  0  0
  189.4630  176.6480  141.5890 N   0  0  0  0  0  2  0  0  0  0  0  0
  190.5710  177.2280  145.0510 C   0  0  0  0  0  0  0  0  0  0  0  0
  190.1450  177.0260  142.7850 C   0  0  0  0  0  0  0  0  0  0  0  0
  191.5650  177.9160  142.8720 S   0  0  0  0  0  0  0  0  0  0  0  0
  191.6740  177.9280  144.5520 C   0  0  0  0  0  3  0  0  0  0  0  0
  189.7140  176.7150  144.0610 C   0  0  0  0  0  3  0  0  0  0  0  0
  191.3700  176.7940  147.2300 O   0  0  0  0  0  0  0  0  0  0  0  0
  190.3680  177.0270  146.5030 C   0  0  0  0  0  0  0  0  0  0  0  0
  189.0760  177.0780  147.1270 N   0  0  0  0  0  2  0  0  0  0  0  0
  187.8540  177.5740  146.5070 C   0  0  0  0  0  2  0  0  0  0  0  0
  186.9780  178.2700  147.5350 C   0  0  0  0  0  2  0  0  0  0  0  0
  185.6320  178.6180  146.9320 C   0  0  0  0  0  1  0  0  0  0  0  0
  188.0670  178.5650  141.7550 N   0  0  0  0  0  2  0  0  0  0  0  0
  186.9990  179.1570  141.1140 O   0  0  0  0  0  0  0  0  0  0  0  0
  184.4180  178.7650  139.5160 O   0  0  0  0  0  0  0  0  0  0  0  0
  185.3700  178.9650  142.8140 N   0  0  0  0  0  0  0  0  0  0  0  0
  183.9480  178.7600  142.8250 C   0  0  0  0  0  0  0  0  0  0  0  0
  183.4000  178.6530  141.6530 N   0  0  0  0  0  0  0  0  0  0  0  0
  184.4990  178.7900  140.7720 C   0  0  0  0  0  0  0  0  0  0  0  0
  185.6910  178.9790  141.5660 C   0  0  0  0  0  0  0  0  0  0  0  0
  183.1600  178.6760  144.0820 C   0  0  0  0  0  1  0  0  0  0  0  0
  189.4190  178.2520  139.7590 C   0  0  0  0  0  2  0  0  0  0  0  0
  187.5610  177.5290  138.2960 C   0  0  0  0  0  2  0  0  0  0  0  0
  187.4090  178.6320  137.3580 N   0  0  0  0  0  2  0  0  0  0  0  0
  188.8500  178.8310  137.4110 C   0  0  0  0  0  2  0  0  0  0  0  0
  189.0580  177.7000  138.3900 C   0  0  0  0  0  3  0  0  0  0  0  0
  1 23  1  6  0  0  0
  1  2  1  0  0  0  0
  1 14  1  0  0  0  0
  2  4  1  0  0  0  0
  3  9  1  0  0  0  0
  4  5  1  0  0  0  0
  4  7  2  0  0  0  0
  5  6  1  0  0  0  0
  6  3  2  0  0  0  0
  7  3  1  0  0  0  0
  9 10  1  0  0  0  0
  9  8  2  0  0  0  0
 11 10  1  0  0  0  0
 11 12  1  0  0  0  0
 13 12  1  0  0  0  0
 15 21  1  0  0  0  0
 15 14  1  0  0  0  0
 16 20  2  0  0  0  0
 17 18  1  0  0  0  0
 18 22  1  0  0  0  0
 19 18  2  0  0  0  0
 20 21  1  0  0  0  0
 20 19  1  0  0  0  0
 21 17  2  0  0  0  0
 24 27  1  0  0  0  0
 25 26  1  0  0  0  0
 25 24  1  0  0  0  0
 26 27  1  0  0  0  0
 27 23  1  0  0  0  0
M  END
>  <MODEL>
9

>  <REMARK>
 VINA RESULT:      -7.2      2.708      5.342
  Name = 
  10 active torsions:
  status: ('A' for Active; 'I' for Inactive)
    1  A    between atoms: N_2  and  C_7
    2  A    between atoms: N_2  and  C_15
    3  A    between atoms: O_6  and  N_19
    4  A    between atoms: O_6  and  C_23
    5  A    between atoms: C_7  and  N_19
    6  A    between atoms: C_7  and  C_21
    7  A    between atoms: C_8  and  C_10
    8  A    between atoms: C_10  and  N_18
    9  A    between atoms: C_11  and  C_13
   10  A    between atoms: C_21  and  C_26
                            x       y       z     vdW  Elec       q    Type
                         _______ _______ _______ _____ _____    ______ ____

>  <TORSDO>
F 10

$$$$
