=
 OpenBabel11032420503D

 63 69  0  0  1  0  0  0  0  0999 V2000
  186.3620  176.4160  137.0490 C   0  0  2  0  0  3  0  0  0  0  0  0
  188.8340  176.0210  136.6100 C   0  0  0  0  0  2  0  0  0  0  0  0
  188.8670  177.1350  134.5950 C   0  0  0  0  0  2  0  0  0  0  0  0
  187.7130  177.7400  135.3740 C   0  0  0  0  0  2  0  0  0  0  0  0
  187.7380  177.0630  136.7440 C   0  0  1  0  0  0  0  0  0  0  0  0
  189.7380  176.4970  135.5650 N   0  0  0  0  0  0  0  0  0  0  0  0
  188.3210  177.6430  139.1730 N   0  0  0  0  0  2  0  0  0  0  0  0
  188.1260  178.0580  137.8150 C   0  0  0  0  0  0  0  0  0  0  0  0
  188.2630  179.2770  137.5210 O   0  0  0  0  0  0  0  0  0  0  0  0
  188.6450  178.5380  140.1370 O   0  0  0  0  0  0  0  0  0  0  0  0
  188.4930  177.8490  141.3450 C   0  0  0  0  0  1  0  0  0  0  0  0
  189.8210  174.0420  134.9480 C   0  0  0  0  0  1  0  0  0  0  0  0
  190.4930  175.4150  134.9120 C   0  0  2  0  0  3  0  0  0  0  0  0
  195.2080  172.0190  136.3260 C   0  0  0  0  0  2  0  0  0  0  0  0
  195.8970  174.5950  136.2130 O   0  0  0  0  0  1  0  0  0  0  0  0
  191.9430  175.3570  135.4030 C   0  0  1  0  0  3  0  0  0  0  0  0
  193.0460  173.2890  136.4600 C   0  0  2  0  0  3  0  0  0  0  0  0
  191.9800  175.5980  136.8450 N   0  0  1  0  0  0  0  0  0  0  0  0
  193.6890  171.9110  136.3100 C   0  0  0  0  0  2  0  0  0  0  0  0
  195.6320  172.6800  137.4980 O   0  0  0  0  0  0  0  0  0  0  0  0
  193.4550  175.6990  136.9900 C   0  0  2  0  0  3  0  0  0  0  0  0
  192.5910  173.9490  135.1260 C   0  0  0  0  0  2  0  0  0  0  0  0
  193.7970  174.2720  137.4260 C   0  0  2  0  0  3  0  0  0  0  0  0
  195.3190  174.0490  137.3680 C   0  0  2  0  0  3  0  0  0  0  0  0
  192.5900  176.7790  137.4580 C   0  0  2  0  0  3  0  0  0  0  0  0
  193.5480  177.1310  139.7390 O   0  0  0  0  0  1  0  0  0  0  0  0
  192.4810  176.7160  138.9520 C   0  0  0  0  0  0  0  0  0  0  0  0
  191.4230  176.3060  139.5040 O   0  0  0  0  0  0  0  0  0  0  0  0
  186.1560  175.0120  136.4320 C   0  0  1  0  0  3  0  0  0  0  0  0
  185.6820  174.0810  137.5170 C   0  0  0  0  0  3  0  0  0  0  0  0
  186.2480  172.9580  137.8130 N   0  0  0  0  0  0  0  0  0  0  0  0
  187.4080  172.4540  137.1280 C   0  0  0  0  0  1  0  0  0  0  0  0
  185.1900  175.0090  135.2420 C   0  0  0  0  0  2  0  0  0  0  0  0
  185.0550  173.6320  134.6140 C   0  0  0  0  0  2  0  0  0  0  0  0
  183.4940  171.8520  135.3380 C   0  0  0  0  0  1  0  0  0  0  0  0
  183.6070  173.1730  134.5940 C   0  0  1  0  0  3  0  0  0  0  0  0
  181.4700  173.6450  135.5750 O   0  0  0  0  0  1  0  0  0  0  0  0
  182.7140  174.2010  135.2680 C   0  0  0  0  0  2  0  0  0  0  0  0
  185.1830  177.3670  136.8090 C   0  0  0  0  0  2  0  0  0  0  0  0
  180.9310  179.8590  136.9770 C   0  0  0  0  0  3  0  0  0  0  0  0
  182.8190  177.8380  137.2260 C   0  0  0  0  0  0  0  0  0  0  0  0
  182.5870  178.6960  138.2680 C   0  0  0  0  0  0  0  0  0  0  0  0
  183.4310  178.4010  139.3630 N   0  0  0  0  0  0  0  0  0  0  0  0
  183.9420  176.9080  137.5560 C   0  0  2  0  0  3  0  0  0  0  0  0
  181.6550  179.7300  138.1760 C   0  0  0  0  0  3  0  0  0  0  0  0
  184.1720  177.1760  139.0620 C   0  0  0  0  0  2  0  0  0  0  0  0
  181.1680  178.9780  135.9020 C   0  0  0  0  0  3  0  0  0  0  0  0
  182.1280  177.9590  136.0180 C   0  0  0  0  0  3  0  0  0  0  0  0
  183.6930  179.2940  140.4830 C   0  0  0  0  0  2  0  0  0  0  0  0
  183.1680  178.6630  141.7780 C   0  0  0  0  0  2  0  0  0  0  0  0
  184.2180  178.3320  142.6440 O   0  0  0  0  0  0  0  0  0  0  0  0
  183.6840  178.3000  143.9440 C   0  0  2  0  0  3  0  0  0  0  0  0
  182.2980  178.9420  143.9720 C   0  0  0  0  0  1  0  0  0  0  0  0
  185.0940  180.2050  144.2720 O   0  0  0  0  0  1  0  0  0  0  0  0
  184.6090  179.0530  144.9040 C   0  0  2  0  0  3  0  0  0  0  0  0
  188.6610  177.0160  145.7640 C   0  0  0  0  0  3  0  0  0  0  0  0
  187.2740  178.2520  147.4490 C   0  0  0  0  0  0  0  0  0  0  0  0
  186.1520  178.5590  146.7750 C   0  0  0  0  0  3  0  0  0  0  0  0
  185.7600  178.1600  145.3900 C   0  0  2  0  0  3  0  0  0  0  0  0
  187.7180  176.9530  144.6080 C   0  0  0  0  0  2  0  0  0  0  0  0
  186.9410  178.2380  144.4440 C   0  0  0  0  0  2  0  0  0  0  0  0
  188.4170  177.5450  146.9270 N   0  0  0  0  0  0  0  0  0  0  0  0
  187.3620  178.7010  148.7260 F   0  0  0  0  0  0  0  0  0  0  0  0
  1 39  1  6  0  0  0
  2  5  1  0  0  0  0
  3  4  1  0  0  0  0
  3  6  1  0  0  0  0
  4  5  1  0  0  0  0
  5  1  1  0  0  0  0
  5  8  1  1  0  0  0
  6  2  1  0  0  0  0
  7 10  1  0  0  0  0
  8  7  1  0  0  0  0
  9  8  2  0  0  0  0
 10 11  1  0  0  0  0
 13 12  1  1  0  0  0
 13  6  1  0  0  0  0
 14 20  1  0  0  0  0
 15 24  1  0  0  0  0
 16 13  1  1  0  0  0
 16 18  1  0  0  0  0
 17 22  1  6  0  0  0
 17 23  1  0  0  0  0
 18 21  1  0  0  0  0
 18 25  1  0  0  0  0
 19 14  1  0  0  0  0
 19 17  1  0  0  0  0
 21 23  1  0  0  0  0
 21 25  1  0  0  0  0
 22 16  1  0  0  0  0
 24 23  1  0  0  0  0
 24 20  1  0  0  0  0
 25 27  1  0  0  0  0
 27 28  2  0  0  0  0
 27 26  1  0  0  0  0
 29  1  1  0  0  0  0
 29 30  1  0  0  0  0
 30 31  2  0  0  0  0
 32 31  1  0  0  0  0
 33 29  1  0  0  0  0
 34 33  1  0  0  0  0
 36 34  1  0  0  0  0
 36 38  1  0  0  0  0
 36 35  1  0  0  0  0
 38 37  1  0  0  0  0
 39 44  1  0  0  0  0
 40 45  1  0  0  0  0
 41 44  1  0  0  0  0
 41 42  1  0  0  0  0
 42 43  1  0  0  0  0
 43 49  1  0  0  0  0
 44 46  1  0  0  0  0
 45 42  2  0  0  0  0
 46 43  1  0  0  0  0
 47 48  1  0  0  0  0
 47 40  2  0  0  0  0
 48 41  2  0  0  0  0
 49 50  1  0  0  0  0
 50 51  1  0  0  0  0
 51 52  1  0  0  0  0
 52 53  1  0  0  0  0
 52 55  1  0  0  0  0
 54 55  1  0  0  0  0
 55 59  1  0  0  0  0
 56 62  2  0  0  0  0
 57 63  1  0  0  0  0
 58 57  2  0  0  0  0
 59 58  1  0  0  0  0
 60 56  1  0  0  0  0
 61 60  1  0  0  0  0
 61 59  1  0  0  0  0
 62 57  1  0  0  0  0
M  END
>  <MODEL>
1

>  <REMARK>
 VINA RESULT:      -7.0      0.000      0.000
  Name = 
  20 active torsions:
  status: ('A' for Active; 'I' for Inactive)
    1  A    between atoms: C_2  and  O_14
    2  A    between atoms: C_2  and  C_27
    3  A    between atoms: C_5  and  C_35
    4  A    between atoms: C_5  and  C_41
    5  A    between atoms: C_8  and  O_14
    6  A    between atoms: C_8  and  C_23
    7  A    between atoms: O_9  and  N_22
    8  A    between atoms: C_10  and  C_41
    9  A    between atoms: C_20  and  C_62
   10  A    between atoms: C_23  and  C_45
   11  A    between atoms: C_26  and  C_35
   12  A    between atoms: C_26  and  C_46
   13  A    between atoms: C_27  and  N_37
   14  A    between atoms: C_33  and  C_59
   15  A    between atoms: C_36  and  C_43
   16  A    between atoms: C_36  and  C_61
   17  A    between atoms: C_38  and  C_60
   18  A    between atoms: C_41  and  C_61
   19  A    between atoms: N_57  and  C_62
   20  A    between atoms: C_60  and  C_61
                            x       y       z     vdW  Elec       q    Type
                         _______ _______ _______ _____ _____    ______ ____

>  <TORSDO>
F 20

$$$$
=
 OpenBabel11032420503D

 63 69  0  0  1  0  0  0  0  0999 V2000
  186.8700  176.2190  137.7930 C   0  0  2  0  0  3  0  0  0  0  0  0
  184.8340  174.8230  137.1910 C   0  0  0  0  0  2  0  0  0  0  0  0
  184.2310  176.1080  135.3770 C   0  0  0  0  0  2  0  0  0  0  0  0
  185.7260  176.3150  135.5420 C   0  0  0  0  0  2  0  0  0  0  0  0
  186.1460  175.4010  136.6930 C   0  0  1  0  0  0  0  0  0  0  0  0
  183.9010  174.8740  136.0670 N   0  0  0  0  0  0  0  0  0  0  0  0
  186.9720  172.9740  136.7730 N   0  0  0  0  0  2  0  0  0  0  0  0
  187.0200  174.2780  136.1790 C   0  0  0  0  0  0  0  0  0  0  0  0
  187.8200  174.4890  135.2270 O   0  0  0  0  0  0  0  0  0  0  0  0
  187.7720  171.9750  136.3290 O   0  0  0  0  0  0  0  0  0  0  0  0
  186.9200  171.0950  135.6520 C   0  0  0  0  0  1  0  0  0  0  0  0
  181.4740  174.8040  135.3450 C   0  0  0  0  0  1  0  0  0  0  0  0
  182.4900  174.9050  136.4840 C   0  0  2  0  0  3  0  0  0  0  0  0
  179.5710  176.9430  141.2890 C   0  0  0  0  0  2  0  0  0  0  0  0
  181.3940  178.7100  140.4700 O   0  0  0  0  0  1  0  0  0  0  0  0
  182.1950  176.0880  137.4120 C   0  0  1  0  0  3  0  0  0  0  0  0
  180.1330  176.2710  138.9360 C   0  0  2  0  0  3  0  0  0  0  0  0
  181.2710  177.0080  136.7500 N   0  0  1  0  0  0  0  0  0  0  0  0
  179.3940  175.8790  140.2140 C   0  0  0  0  0  2  0  0  0  0  0  0
  179.1550  178.1980  140.7970 O   0  0  0  0  0  0  0  0  0  0  0  0
  181.3430  178.1080  137.7460 C   0  0  2  0  0  3  0  0  0  0  0  0
  181.5330  175.6150  138.7590 C   0  0  0  0  0  2  0  0  0  0  0  0
  180.1070  177.8030  138.5970 C   0  0  2  0  0  3  0  0  0  0  0  0
  180.1240  178.6540  139.8800 C   0  0  2  0  0  3  0  0  0  0  0  0
  181.6300  178.3650  136.3360 C   0  0  2  0  0  3  0  0  0  0  0  0
  180.1270  180.3470  136.0980 O   0  0  0  0  0  1  0  0  0  0  0  0
  180.4570  179.0550  135.7080 C   0  0  0  0  0  0  0  0  0  0  0  0
  179.7740  178.4810  134.8150 O   0  0  0  0  0  0  0  0  0  0  0  0
  186.5660  177.7360  137.7770 C   0  0  1  0  0  3  0  0  0  0  0  0
  186.8690  178.2680  136.4010 C   0  0  0  0  0  3  0  0  0  0  0  0
  187.5690  179.3290  136.1680 N   0  0  0  0  0  0  0  0  0  0  0  0
  188.1410  180.1420  137.2070 C   0  0  0  0  0  1  0  0  0  0  0  0
  185.1290  178.0700  138.1930 C   0  0  0  0  0  2  0  0  0  0  0  0
  185.0780  179.0840  139.3240 C   0  0  0  0  0  2  0  0  0  0  0  0
  186.8550  178.6320  140.9860 C   0  0  0  0  0  1  0  0  0  0  0  0
  185.3830  178.4360  140.6630 C   0  0  1  0  0  3  0  0  0  0  0  0
  184.4630  178.2180  142.8670 O   0  0  0  0  0  1  0  0  0  0  0  0
  184.5440  179.0680  141.7620 C   0  0  0  0  0  2  0  0  0  0  0  0
  188.3670  175.8980  137.8950 C   0  0  0  0  0  2  0  0  0  0  0  0
  193.0670  175.8810  136.4060 C   0  0  0  0  0  3  0  0  0  0  0  0
  190.5130  176.7390  137.0780 C   0  0  0  0  0  0  0  0  0  0  0  0
  191.5120  176.7500  138.0150 C   0  0  0  0  0  0  0  0  0  0  0  0
  191.0280  177.2030  139.2630 N   0  0  0  0  0  0  0  0  0  0  0  0
  189.2140  177.1440  137.6960 C   0  0  2  0  0  3  0  0  0  0  0  0
  192.8040  176.3150  137.7180 C   0  0  0  0  0  3  0  0  0  0  0  0
  189.6460  177.6490  139.0920 C   0  0  0  0  0  2  0  0  0  0  0  0
  192.0410  175.8680  135.4400 C   0  0  0  0  0  3  0  0  0  0  0  0
  190.7440  176.2920  135.7750 C   0  0  0  0  0  3  0  0  0  0  0  0
  191.7090  177.0270  140.5390 C   0  0  0  0  0  2  0  0  0  0  0  0
  190.7470  176.3940  141.5520 C   0  0  0  0  0  2  0  0  0  0  0  0
  190.8970  176.9690  142.8210 O   0  0  0  0  0  0  0  0  0  0  0  0
  189.6780  177.5960  143.1330 C   0  0  2  0  0  3  0  0  0  0  0  0
  189.9200  179.0020  143.6810 C   0  0  0  0  0  1  0  0  0  0  0  0
  187.6560  176.4380  143.6810 O   0  0  0  0  0  1  0  0  0  0  0  0
  188.9220  176.7700  144.1790 C   0  0  2  0  0  3  0  0  0  0  0  0
  187.9420  178.2250  148.4480 C   0  0  0  0  0  3  0  0  0  0  0  0
  190.1870  177.4240  147.6700 C   0  0  0  0  0  0  0  0  0  0  0  0
  190.0160  177.2240  146.3520 C   0  0  0  0  0  3  0  0  0  0  0  0
  188.8150  177.5190  145.5150 C   0  0  2  0  0  3  0  0  0  0  0  0
  187.2020  178.3040  147.1530 C   0  0  0  0  0  2  0  0  0  0  0  0
  187.5370  177.1480  146.2410 C   0  0  0  0  0  2  0  0  0  0  0  0
  189.1850  177.8770  148.6030 N   0  0  0  0  0  0  0  0  0  0  0  0
  191.4050  177.1150  148.1820 F   0  0  0  0  0  0  0  0  0  0  0  0
  1 39  1  6  0  0  0
  3  4  1  0  0  0  0
  3  6  1  0  0  0  0
  4  5  1  0  0  0  0
  5  8  1  6  0  0  0
  5  2  1  0  0  0  0
  5  1  1  0  0  0  0
  6 13  1  0  0  0  0
  6  2  1  0  0  0  0
  8  7  1  0  0  0  0
  9  8  2  0  0  0  0
 10  7  1  0  0  0  0
 11 10  1  0  0  0  0
 13 12  1  6  0  0  0
 16 13  1  6  0  0  0
 16 22  1  0  0  0  0
 17 22  1  1  0  0  0
 17 19  1  0  0  0  0
 18 16  1  0  0  0  0
 18 21  1  0  0  0  0
 19 14  1  0  0  0  0
 20 14  1  0  0  0  0
 21 23  1  0  0  0  0
 23 17  1  0  0  0  0
 23 24  1  0  0  0  0
 24 15  1  0  0  0  0
 24 20  1  0  0  0  0
 25 18  1  0  0  0  0
 25 21  1  0  0  0  0
 27 26  1  0  0  0  0
 27 25  1  0  0  0  0
 28 27  2  0  0  0  0
 29  1  1  0  0  0  0
 29 33  1  0  0  0  0
 30 29  1  0  0  0  0
 31 30  2  0  0  0  0
 31 32  1  0  0  0  0
 33 34  1  0  0  0  0
 34 36  1  0  0  0  0
 36 35  1  0  0  0  0
 36 38  1  0  0  0  0
 38 37  1  0  0  0  0
 40 45  1  0  0  0  0
 41 44  1  0  0  0  0
 41 42  1  0  0  0  0
 42 43  1  0  0  0  0
 43 49  1  0  0  0  0
 44 39  1  0  0  0  0
 44 46  1  0  0  0  0
 45 42  2  0  0  0  0
 46 43  1  0  0  0  0
 47 48  1  0  0  0  0
 47 40  2  0  0  0  0
 48 41  2  0  0  0  0
 49 50  1  0  0  0  0
 50 51  1  0  0  0  0
 51 52  1  0  0  0  0
 52 53  1  0  0  0  0
 52 55  1  0  0  0  0
 54 55  1  0  0  0  0
 55 59  1  0  0  0  0
 56 62  2  0  0  0  0
 57 63  1  0  0  0  0
 57 62  1  0  0  0  0
 58 57  2  0  0  0  0
 59 61  1  0  0  0  0
 59 58  1  0  0  0  0
 60 56  1  0  0  0  0
 61 60  1  0  0  0  0
M  END
>  <MODEL>
2

>  <REMARK>
 VINA RESULT:      -4.7      2.789      8.928
  Name = 
  20 active torsions:
  status: ('A' for Active; 'I' for Inactive)
    1  A    between atoms: C_2  and  O_14
    2  A    between atoms: C_2  and  C_27
    3  A    between atoms: C_5  and  C_35
    4  A    between atoms: C_5  and  C_41
    5  A    between atoms: C_8  and  O_14
    6  A    between atoms: C_8  and  C_23
    7  A    between atoms: O_9  and  N_22
    8  A    between atoms: C_10  and  C_41
    9  A    between atoms: C_20  and  C_62
   10  A    between atoms: C_23  and  C_45
   11  A    between atoms: C_26  and  C_35
   12  A    between atoms: C_26  and  C_46
   13  A    between atoms: C_27  and  N_37
   14  A    between atoms: C_33  and  C_59
   15  A    between atoms: C_36  and  C_43
   16  A    between atoms: C_36  and  C_61
   17  A    between atoms: C_38  and  C_60
   18  A    between atoms: C_41  and  C_61
   19  A    between atoms: N_57  and  C_62
   20  A    between atoms: C_60  and  C_61
                            x       y       z     vdW  Elec       q    Type
                         _______ _______ _______ _____ _____    ______ ____

>  <TORSDO>
F 20

$$$$
=
 OpenBabel11032420503D

 63 69  0  0  1  0  0  0  0  0999 V2000
  190.1490  176.6810  136.7270 C   0  0  2  0  0  3  0  0  0  0  0  0
  187.6160  176.5470  136.8610 C   0  0  0  0  0  2  0  0  0  0  0  0
  187.2760  176.7710  134.5940 C   0  0  0  0  0  2  0  0  0  0  0  0
  188.6690  176.1860  134.7400 C   0  0  0  0  0  2  0  0  0  0  0  0
  188.8680  175.9580  136.2380 C   0  0  1  0  0  0  0  0  0  0  0  0
  186.5760  176.4970  135.8350 N   0  0  0  0  0  0  0  0  0  0  0  0
  188.5030  173.5080  135.5700 N   0  0  0  0  0  2  0  0  0  0  0  0
  188.9240  174.4760  136.5410 C   0  0  0  0  0  0  0  0  0  0  0  0
  189.3260  174.0800  137.6680 O   0  0  0  0  0  0  0  0  0  0  0  0
  188.5300  172.1830  135.8500 O   0  0  0  0  0  0  0  0  0  0  0  0
  187.5030  171.6240  135.0820 C   0  0  0  0  0  1  0  0  0  0  0  0
  185.8920  178.6720  136.9400 C   0  0  0  0  0  1  0  0  0  0  0  0
  185.5150  177.4990  136.0340 C   0  0  2  0  0  3  0  0  0  0  0  0
  181.0650  177.2460  140.0210 C   0  0  0  0  0  2  0  0  0  0  0  0
  180.4570  175.8430  137.8340 O   0  0  0  0  0  1  0  0  0  0  0  0
  184.1920  176.8520  136.4540 C   0  0  1  0  0  3  0  0  0  0  0  0
  183.2520  176.8680  138.8470 C   0  0  2  0  0  3  0  0  0  0  0  0
  184.4540  175.5260  137.0120 N   0  0  1  0  0  0  0  0  0  0  0  0
  182.5450  177.6020  139.9860 C   0  0  0  0  0  2  0  0  0  0  0  0
  180.9080  175.8470  140.1100 O   0  0  0  0  0  0  0  0  0  0  0  0
  183.0410  175.0740  137.1170 C   0  0  2  0  0  3  0  0  0  0  0  0
  183.4530  177.7060  137.5510 C   0  0  0  0  0  2  0  0  0  0  0  0
  182.7460  175.4070  138.5820 C   0  0  2  0  0  3  0  0  0  0  0  0
  181.2360  175.2860  138.8580 C   0  0  2  0  0  3  0  0  0  0  0  0
  184.0200  174.2780  136.3810 C   0  0  2  0  0  3  0  0  0  0  0  0
  183.5550  172.0220  137.3520 O   0  0  0  0  0  0  0  0  0  0  0  0
  184.4240  173.0960  137.2110 C   0  0  0  0  0  0  0  0  0  0  0  0
  185.5550  173.0600  137.7730 O   0  0  0  0  0  1  0  0  0  0  0  0
  191.4200  175.7980  136.7530 C   0  0  1  0  0  3  0  0  0  0  0  0
  191.9080  175.6250  135.3390 C   0  0  0  0  0  3  0  0  0  0  0  0
  192.2060  174.4860  134.8060 N   0  0  0  0  0  0  0  0  0  0  0  0
  192.1140  173.2360  135.5090 C   0  0  0  0  0  1  0  0  0  0  0  0
  192.5270  176.3570  137.6550 C   0  0  0  0  0  2  0  0  0  0  0  0
  193.6020  175.3250  137.9530 C   0  0  0  0  0  2  0  0  0  0  0  0
  194.0890  176.6780  139.9680 C   0  0  0  0  0  1  0  0  0  0  0  0
  194.7100  175.9120  138.8110 C   0  0  1  0  0  3  0  0  0  0  0  0
  196.7680  174.6970  138.6150 O   0  0  0  0  0  1  0  0  0  0  0  0
  195.5950  174.8060  139.3640 C   0  0  0  0  0  2  0  0  0  0  0  0
  189.9350  177.4800  138.0190 C   0  0  0  0  0  2  0  0  0  0  0  0
  187.0750  179.0120  141.7310 C   0  0  0  0  0  3  0  0  0  0  0  0
  188.4590  177.3760  139.9660 C   0  0  0  0  0  0  0  0  0  0  0  0
  189.0410  177.7690  141.1410 C   0  0  0  0  0  0  0  0  0  0  0  0
  190.3560  177.2600  141.2480 N   0  0  0  0  0  0  0  0  0  0  0  0
  189.4270  176.5910  139.1410 C   0  0  2  0  0  3  0  0  0  0  0  0
  188.3820  178.6000  142.0470 C   0  0  0  0  0  3  0  0  0  0  0  0
  190.5970  176.3570  140.1240 C   0  0  0  0  0  2  0  0  0  0  0  0
  186.4720  178.6100  140.5220 C   0  0  0  0  0  3  0  0  0  0  0  0
  187.1700  177.7890  139.6200 C   0  0  0  0  0  3  0  0  0  0  0  0
  191.3670  177.7420  142.1790 C   0  0  0  0  0  2  0  0  0  0  0  0
  191.4630  176.7860  143.3740 C   0  0  0  0  0  2  0  0  0  0  0  0
  191.1060  177.4280  144.5680 O   0  0  0  0  0  0  0  0  0  0  0  0
  191.8160  176.7940  145.6030 C   0  0  2  0  0  3  0  0  0  0  0  0
  192.2620  175.3980  145.1730 C   0  0  0  0  0  1  0  0  0  0  0  0
  190.6480  175.3310  147.0940 O   0  0  0  0  0  1  0  0  0  0  0  0
  190.9290  176.6810  146.8460 C   0  0  2  0  0  3  0  0  0  0  0  0
  186.6080  178.1790  146.2220 C   0  0  0  0  0  3  0  0  0  0  0  0
  187.8930  178.3190  148.3700 C   0  0  0  0  0  0  0  0  0  0  0  0
  189.1180  177.8740  148.0390 C   0  0  0  0  0  3  0  0  0  0  0  0
  189.6370  177.4970  146.6900 C   0  0  2  0  0  3  0  0  0  0  0  0
  187.6770  177.7410  145.2760 C   0  0  0  0  0  2  0  0  0  0  0  0
  188.6000  176.7230  145.9020 C   0  0  0  0  0  2  0  0  0  0  0  0
  186.7570  178.4270  147.4900 N   0  0  0  0  0  0  0  0  0  0  0  0
  187.6920  178.6440  149.6720 F   0  0  0  0  0  0  0  0  0  0  0  0
  1 29  1  0  0  0  0
  1 39  1  1  0  0  0
  3  4  1  0  0  0  0
  3  6  1  0  0  0  0
  4  5  1  0  0  0  0
  5  8  1  1  0  0  0
  5  1  1  0  0  0  0
  5  2  1  0  0  0  0
  6 13  1  0  0  0  0
  6  2  1  0  0  0  0
  7 10  1  0  0  0  0
  7  8  1  0  0  0  0
  8  9  2  0  0  0  0
 11 10  1  0  0  0  0
 13 12  1  1  0  0  0
 14 20  1  0  0  0  0
 15 24  1  0  0  0  0
 16 13  1  1  0  0  0
 16 18  1  0  0  0  0
 16 22  1  0  0  0  0
 17 22  1  6  0  0  0
 17 19  1  0  0  0  0
 18 21  1  0  0  0  0
 19 14  1  0  0  0  0
 21 23  1  0  0  0  0
 23 17  1  0  0  0  0
 23 24  1  0  0  0  0
 24 20  1  0  0  0  0
 25 18  1  0  0  0  0
 25 21  1  0  0  0  0
 25 27  1  0  0  0  0
 27 26  2  0  0  0  0
 27 28  1  0  0  0  0
 29 33  1  0  0  0  0
 30 29  1  0  0  0  0
 31 30  2  0  0  0  0
 31 32  1  0  0  0  0
 33 34  1  0  0  0  0
 34 36  1  0  0  0  0
 36 38  1  0  0  0  0
 36 35  1  0  0  0  0
 37 38  1  0  0  0  0
 39 44  1  0  0  0  0
 40 45  1  0  0  0  0
 41 42  1  0  0  0  0
 42 43  1  0  0  0  0
 42 45  2  0  0  0  0
 43 49  1  0  0  0  0
 44 41  1  0  0  0  0
 44 46  1  0  0  0  0
 46 43  1  0  0  0  0
 47 40  2  0  0  0  0
 48 41  2  0  0  0  0
 48 47  1  0  0  0  0
 49 50  1  0  0  0  0
 50 51  1  0  0  0  0
 51 52  1  0  0  0  0
 52 55  1  0  0  0  0
 53 52  1  0  0  0  0
 55 54  1  0  0  0  0
 56 62  2  0  0  0  0
 57 63  1  0  0  0  0
 58 57  2  0  0  0  0
 59 55  1  0  0  0  0
 59 58  1  0  0  0  0
 60 61  1  0  0  0  0
 60 56  1  0  0  0  0
 61 59  1  0  0  0  0
 62 57  1  0  0  0  0
M  END
>  <MODEL>
3

>  <REMARK>
 VINA RESULT:      -4.7      2.609      8.298
  Name = 
  20 active torsions:
  status: ('A' for Active; 'I' for Inactive)
    1  A    between atoms: C_2  and  O_14
    2  A    between atoms: C_2  and  C_27
    3  A    between atoms: C_5  and  C_35
    4  A    between atoms: C_5  and  C_41
    5  A    between atoms: C_8  and  O_14
    6  A    between atoms: C_8  and  C_23
    7  A    between atoms: O_9  and  N_22
    8  A    between atoms: C_10  and  C_41
    9  A    between atoms: C_20  and  C_62
   10  A    between atoms: C_23  and  C_45
   11  A    between atoms: C_26  and  C_35
   12  A    between atoms: C_26  and  C_46
   13  A    between atoms: C_27  and  N_37
   14  A    between atoms: C_33  and  C_59
   15  A    between atoms: C_36  and  C_43
   16  A    between atoms: C_36  and  C_61
   17  A    between atoms: C_38  and  C_60
   18  A    between atoms: C_41  and  C_61
   19  A    between atoms: N_57  and  C_62
   20  A    between atoms: C_60  and  C_61
                            x       y       z     vdW  Elec       q    Type
                         _______ _______ _______ _____ _____    ______ ____

>  <TORSDO>
F 20

$$$$
