=
 OpenBabel11042412543D

 43 47  0  0  1  0  0  0  0  0999 V2000
  189.3230  176.9380  140.2580 C   0  0  0  0  0  0  0  0  0  0  0  0
  188.2880  177.7900  139.8020 C   0  0  0  0  0  0  0  0  0  0  0  0
  187.3180  177.7010  141.9990 C   0  0  0  0  0  0  0  0  0  0  0  0
  188.3060  176.8830  142.4410 N   0  0  0  0  0  0  0  0  0  0  0  0
  189.2990  176.4940  141.5950 C   0  0  0  0  0  3  0  0  0  0  0  0
  182.7230  177.2860  138.5910 O   0  0  0  0  0  0  0  0  0  0  0  0
  186.2250  178.2430  142.8320 C   0  0  0  0  0  2  0  0  0  0  0  0
  182.7310  177.7060  139.7790 C   0  0  0  0  0  0  0  0  0  0  0  0
  185.1250  178.4820  139.5470 C   0  0  0  0  0  2  0  0  0  0  0  0
  185.4730  179.1830  141.8780 C   0  0  2  0  0  3  0  0  0  0  0  0
  184.0450  178.6990  141.7100 C   0  0  0  0  0  2  0  0  0  0  0  0
  183.9200  178.2880  140.3270 N   0  0  0  0  0  0  0  0  0  0  0  0
  187.2830  178.1560  140.7090 C   0  0  0  0  0  0  0  0  0  0  0  0
  186.1500  179.0900  140.4910 C   0  0  1  0  0  3  0  0  0  0  0  0
  192.7680  176.5030  138.7150 C   0  0  0  0  0  3  0  0  0  0  0  0
  191.1610  175.2240  137.4450 C   0  0  0  0  0  3  0  0  0  0  0  0
  190.1450  175.6530  138.3010 C   0  0  0  0  0  3  0  0  0  0  0  0
  192.4820  175.6490  137.6440 C   0  0  0  0  0  0  0  0  0  0  0  0
  191.7590  176.9300  139.5840 C   0  0  0  0  0  0  0  0  0  0  0  0
  190.4270  176.5090  139.3720 C   0  0  0  0  0  0  0  0  0  0  0  0
  196.3600  173.4570  135.8630 O   0  0  0  0  0  1  0  0  0  0  0  0
  193.5370  175.2150  136.7690 N   0  0  0  0  0  0  0  0  0  0  0  0
  195.6130  174.6350  135.9510 C   0  0  1  0  0  3  0  0  0  0  0  0
  193.4140  175.3380  135.4200 O   0  0  0  0  0  0  0  0  0  0  0  0
  194.5240  174.6500  134.8970 C   0  0  0  0  0  2  0  0  0  0  0  0
  194.8320  174.7580  137.2400 C   0  0  2  0  0  3  0  0  0  0  0  0
  194.6690  173.4300  137.9820 C   0  0  0  0  0  2  0  0  0  0  0  0
  195.4770  173.4200  139.1200 O   0  0  0  0  0  1  0  0  0  0  0  0
  192.1200  177.8860  140.6740 C   0  0  0  0  0  2  0  0  0  0  0  0
  192.3090  177.1620  141.9190 N   0  0  0  0  0  2  0  0  0  0  0  0
  191.8790  178.0480  142.9840 C   0  0  0  0  0  1  0  0  0  0  0  0
  187.5610  177.7110  137.4120 C   0  0  0  0  0  0  0  0  0  0  0  0
  187.5540  178.2840  136.1080 N   0  0  0  0  0  1  0  0  0  0  0  0
  186.9170  176.6480  137.6200 O   0  0  0  0  0  0  0  0  0  0  0  0
  188.3010  178.3310  138.4750 N   0  0  0  0  0  0  0  0  0  0  0  0
  189.1060  179.5150  138.2140 C   0  0  0  0  0  1  0  0  0  0  0  0
  181.4810  177.5910  140.6000 C   0  0  0  0  0  2  0  0  0  0  0  0
  180.7280  178.9180  140.7490 C   0  0  1  0  0  3  0  0  0  0  0  0
  179.7170  179.0350  139.7920 O   0  0  0  0  0  1  0  0  0  0  0  0
  178.9780  178.5100  142.3360 F   0  0  0  0  0  0  0  0  0  0  0  0
  181.0890  178.7310  143.1030 F   0  0  0  0  0  0  0  0  0  0  0  0
  180.1810  179.1680  142.1550 C   0  0  0  0  0  0  0  0  0  0  0  0
  179.9770  180.5250  142.3270 F   0  0  0  0  0  0  0  0  0  0  0  0
  1  5  1  0  0  0  0
  2  1  2  0  0  0  0
  2 13  1  0  0  0  0
  3  4  1  0  0  0  0
  3  7  1  0  0  0  0
  5  4  2  0  0  0  0
  6  8  2  0  0  0  0
  8 12  1  0  0  0  0
  8 37  1  0  0  0  0
  9 12  1  0  0  0  0
 10 11  1  6  0  0  0
 10  7  1  0  0  0  0
 12 11  1  0  0  0  0
 13  3  2  0  0  0  0
 14  9  1  6  0  0  0
 14 13  1  0  0  0  0
 14 10  1  0  0  0  0
 15 19  1  0  0  0  0
 16 18  1  0  0  0  0
 16 17  2  0  0  0  0
 17 20  1  0  0  0  0
 18 15  2  0  0  0  0
 19 29  1  0  0  0  0
 20 19  2  0  0  0  0
 20  1  1  0  0  0  0
 22 26  1  0  0  0  0
 22 18  1  0  0  0  0
 23 21  1  1  0  0  0
 23 26  1  0  0  0  0
 24 22  1  0  0  0  0
 25 24  1  0  0  0  0
 25 23  1  0  0  0  0
 26 27  1  6  0  0  0
 27 28  1  0  0  0  0
 29 30  1  0  0  0  0
 30 31  1  0  0  0  0
 32 34  2  0  0  0  0
 32 35  1  0  0  0  0
 33 32  1  0  0  0  0
 35  2  1  0  0  0  0
 36 35  1  0  0  0  0
 37 38  1  0  0  0  0
 38 39  1  6  0  0  0
 38 42  1  0  0  0  0
 42 43  1  0  0  0  0
 42 40  1  0  0  0  0
 42 41  1  0  0  0  0
M  END
>  <MODEL>
1

>  <REMARK>
 VINA RESULT:      -6.1      0.000      0.000
  Name = 
  9 active torsions:
  status: ('A' for Active; 'I' for Inactive)
    1  A    between atoms: N_2  and  C_23
    2  A    between atoms: C_3  and  C_42
    3  A    between atoms: C_4  and  N_40
    4  A    between atoms: C_5  and  C_43
    5  A    between atoms: N_7  and  C_35
    6  A    between atoms: C_18  and  C_27
    7  A    between atoms: C_18  and  C_31
    8  A    between atoms: C_19  and  C_31
    9  A    between atoms: C_23  and  C_36
                            x       y       z     vdW  Elec       q    Type
                         _______ _______ _______ _____ _____    ______ ____

>  <TORSDO>
F 9

$$$$
=
 OpenBabel11042412543D

 43 47  0  0  1  0  0  0  0  0999 V2000
  189.5610  176.9570  139.8820 C   0  0  0  0  0  0  0  0  0  0  0  0
  188.5000  177.7610  139.4030 C   0  0  0  0  0  0  0  0  0  0  0  0
  187.5490  177.7320  141.6100 C   0  0  0  0  0  0  0  0  0  0  0  0
  188.5640  176.9600  142.0750 N   0  0  0  0  0  0  0  0  0  0  0  0
  189.5610  176.5660  141.2360 C   0  0  0  0  0  3  0  0  0  0  0  0
  182.9420  177.0540  138.2620 O   0  0  0  0  0  0  0  0  0  0  0  0
  186.4480  178.2740  142.4310 C   0  0  0  0  0  2  0  0  0  0  0  0
  182.9470  177.5200  139.4330 C   0  0  0  0  0  0  0  0  0  0  0  0
  185.3160  178.3530  139.1490 C   0  0  0  0  0  2  0  0  0  0  0  0
  185.6620  179.1550  141.4480 C   0  0  2  0  0  3  0  0  0  0  0  0
  184.2470  178.6240  141.3110 C   0  0  0  0  0  2  0  0  0  0  0  0
  184.1240  178.1560  139.9470 N   0  0  0  0  0  0  0  0  0  0  0  0
  187.4920  178.1340  140.3040 C   0  0  0  0  0  0  0  0  0  0  0  0
  186.3300  179.0270  140.0590 C   0  0  1  0  0  3  0  0  0  0  0  0
  191.5840  175.1280  137.2370 C   0  0  0  0  0  3  0  0  0  0  0  0
  192.9870  176.7730  138.3130 C   0  0  0  0  0  3  0  0  0  0  0  0
  191.9170  177.1520  139.1260 C   0  0  0  0  0  3  0  0  0  0  0  0
  192.8300  175.7550  137.3630 C   0  0  0  0  0  0  0  0  0  0  0  0
  190.5040  175.5060  138.0400 C   0  0  0  0  0  0  0  0  0  0  0  0
  190.6700  176.5250  139.0040 C   0  0  0  0  0  0  0  0  0  0  0  0
  196.7170  173.5470  135.6210 O   0  0  0  0  0  1  0  0  0  0  0  0
  193.9240  175.3560  136.5200 N   0  0  0  0  0  0  0  0  0  0  0  0
  196.0230  174.7500  135.7850 C   0  0  1  0  0  3  0  0  0  0  0  0
  193.9050  175.6240  135.1860 O   0  0  0  0  0  0  0  0  0  0  0  0
  195.0150  174.9330  134.6680 C   0  0  0  0  0  2  0  0  0  0  0  0
  195.1570  174.7820  137.0250 C   0  0  2  0  0  3  0  0  0  0  0  0
  194.8770  173.3960  137.6080 C   0  0  0  0  0  2  0  0  0  0  0  0
  195.3260  173.3370  138.9280 O   0  0  0  0  0  1  0  0  0  0  0  0
  189.2180  174.7600  137.8950 C   0  0  0  0  0  2  0  0  0  0  0  0
  189.4670  173.4660  137.2840 N   0  0  0  0  0  2  0  0  0  0  0  0
  188.2130  173.0360  136.6950 C   0  0  0  0  0  1  0  0  0  0  0  0
  187.7320  177.5860  137.0310 C   0  0  0  0  0  0  0  0  0  0  0  0
  187.6990  178.1070  135.7060 N   0  0  0  0  0  1  0  0  0  0  0  0
  187.0970  176.5280  137.2920 O   0  0  0  0  0  0  0  0  0  0  0  0
  188.4870  178.2500  138.0550 N   0  0  0  0  0  0  0  0  0  0  0  0
  189.2810  179.4270  137.7340 C   0  0  0  0  0  1  0  0  0  0  0  0
  181.7080  177.4020  140.2690 C   0  0  0  0  0  2  0  0  0  0  0  0
  180.8490  178.6720  140.2640 C   0  0  1  0  0  3  0  0  0  0  0  0
  179.8180  178.5810  139.3260 O   0  0  0  0  0  1  0  0  0  0  0  0
  179.1610  178.3360  141.9330 F   0  0  0  0  0  0  0  0  0  0  0  0
  181.2580  178.8220  142.6130 F   0  0  0  0  0  0  0  0  0  0  0  0
  180.3030  179.0590  141.6400 C   0  0  0  0  0  0  0  0  0  0  0  0
  179.9920  180.4050  141.6400 F   0  0  0  0  0  0  0  0  0  0  0  0
  1  5  1  0  0  0  0
  2  1  2  0  0  0  0
  2 13  1  0  0  0  0
  3  4  1  0  0  0  0
  3  7  1  0  0  0  0
  5  4  2  0  0  0  0
  6  8  2  0  0  0  0
  8 12  1  0  0  0  0
  8 37  1  0  0  0  0
  9 12  1  0  0  0  0
 10 11  1  6  0  0  0
 10  7  1  0  0  0  0
 12 11  1  0  0  0  0
 13  3  2  0  0  0  0
 14  9  1  6  0  0  0
 14 13  1  0  0  0  0
 14 10  1  0  0  0  0
 15 18  2  0  0  0  0
 15 19  1  0  0  0  0
 16 17  2  0  0  0  0
 18 16  1  0  0  0  0
 19 20  2  0  0  0  0
 20 17  1  0  0  0  0
 20  1  1  0  0  0  0
 22 26  1  0  0  0  0
 22 18  1  0  0  0  0
 23 21  1  6  0  0  0
 23 26  1  0  0  0  0
 24 22  1  0  0  0  0
 25 24  1  0  0  0  0
 25 23  1  0  0  0  0
 26 27  1  6  0  0  0
 27 28  1  0  0  0  0
 29 19  1  0  0  0  0
 30 29  1  0  0  0  0
 31 30  1  0  0  0  0
 32 34  2  0  0  0  0
 32 35  1  0  0  0  0
 33 32  1  0  0  0  0
 35  2  1  0  0  0  0
 36 35  1  0  0  0  0
 38 39  1  6  0  0  0
 38 37  1  0  0  0  0
 38 42  1  0  0  0  0
 42 40  1  0  0  0  0
 42 41  1  0  0  0  0
 43 42  1  0  0  0  0
M  END
>  <MODEL>
2

>  <REMARK>
 VINA RESULT:      -5.9      1.015      2.044
  Name = 
  9 active torsions:
  status: ('A' for Active; 'I' for Inactive)
    1  A    between atoms: N_2  and  C_23
    2  A    between atoms: C_3  and  C_42
    3  A    between atoms: C_4  and  N_40
    4  A    between atoms: C_5  and  C_43
    5  A    between atoms: N_7  and  C_35
    6  A    between atoms: C_18  and  C_27
    7  A    between atoms: C_18  and  C_31
    8  A    between atoms: C_19  and  C_31
    9  A    between atoms: C_23  and  C_36
                            x       y       z     vdW  Elec       q    Type
                         _______ _______ _______ _____ _____    ______ ____

>  <TORSDO>
F 9

$$$$
=
 OpenBabel11042412543D

 43 47  0  0  1  0  0  0  0  0999 V2000
  185.3800  175.8120  137.0170 C   0  0  0  0  0  0  0  0  0  0  0  0
  186.6170  176.1720  136.4310 C   0  0  0  0  0  0  0  0  0  0  0  0
  187.1790  173.8390  136.3060 C   0  0  0  0  0  0  0  0  0  0  0  0
  185.9950  173.4880  136.8680 N   0  0  0  0  0  0  0  0  0  0  0  0
  185.0990  174.4480  137.2290 C   0  0  0  0  0  3  0  0  0  0  0  0
  192.1100  176.2140  138.0190 O   0  0  0  0  0  0  0  0  0  0  0  0
  188.2020  172.8930  135.8160 C   0  0  0  0  0  2  0  0  0  0  0  0
  191.9860  175.1180  137.4110 C   0  0  0  0  0  0  0  0  0  0  0  0
  189.8530  175.9070  136.3100 C   0  0  0  0  0  2  0  0  0  0  0  0
  189.2640  173.8030  135.1810 C   0  0  2  0  0  3  0  0  0  0  0  0
  190.5830  173.6270  135.9110 C   0  0  0  0  0  2  0  0  0  0  0  0
  190.8540  174.8920  136.5610 N   0  0  0  0  0  0  0  0  0  0  0  0
  187.5100  175.1470  136.0850 C   0  0  0  0  0  0  0  0  0  0  0  0
  188.8200  175.2690  135.3950 C   0  0  1  0  0  3  0  0  0  0  0  0
  182.3630  178.1210  136.9770 C   0  0  0  0  0  3  0  0  0  0  0  0
  183.5790  178.4380  139.0390 C   0  0  0  0  0  3  0  0  0  0  0  0
  184.5080  177.4760  138.6380 C   0  0  0  0  0  3  0  0  0  0  0  0
  182.4990  178.7700  138.2100 C   0  0  0  0  0  0  0  0  0  0  0  0
  183.2830  177.1500  136.5700 C   0  0  0  0  0  0  0  0  0  0  0  0
  184.3760  176.8260  137.4040 C   0  0  0  0  0  0  0  0  0  0  0  0
  179.1590  181.2010  140.6490 O   0  0  0  0  0  1  0  0  0  0  0  0
  181.5360  179.7580  138.6120 N   0  0  0  0  0  0  0  0  0  0  0  0
  179.6170  180.7600  139.4040 C   0  0  1  0  0  3  0  0  0  0  0  0
  181.5670  181.0120  138.0840 O   0  0  0  0  0  0  0  0  0  0  0  0
  180.6250  181.7380  138.8350 C   0  0  0  0  0  2  0  0  0  0  0  0
  180.4040  179.4710  139.4730 C   0  0  2  0  0  3  0  0  0  0  0  0
  180.9020  179.1370  140.8810 C   0  0  0  0  0  2  0  0  0  0  0  0
  180.5210  177.8380  141.2230 O   0  0  0  0  0  1  0  0  0  0  0  0
  183.1130  176.5350  135.2190 C   0  0  0  0  0  2  0  0  0  0  0  0
  181.7920  175.9400  135.1130 N   0  0  0  0  0  2  0  0  0  0  0  0
  181.9740  174.5040  135.2110 C   0  0  0  0  0  1  0  0  0  0  0  0
  187.5540  178.3940  137.0910 C   0  0  0  0  0  0  0  0  0  0  0  0
  187.8880  179.7370  136.7570 N   0  0  0  0  0  1  0  0  0  0  0  0
  187.8080  177.9660  138.2500 O   0  0  0  0  0  0  0  0  0  0  0  0
  186.9260  177.5380  136.1240 N   0  0  0  0  0  0  0  0  0  0  0  0
  186.5630  178.0560  134.8140 C   0  0  0  0  0  1  0  0  0  0  0  0
  193.0390  174.0640  137.5860 C   0  0  0  0  0  2  0  0  0  0  0  0
  194.4480  174.6400  137.7740 C   0  0  1  0  0  3  0  0  0  0  0  0
  195.1710  173.9050  138.7160 O   0  0  0  0  0  1  0  0  0  0  0  0
  196.5560  174.4120  136.6550 F   0  0  0  0  0  0  0  0  0  0  0  0
  194.6710  174.0050  135.4820 F   0  0  0  0  0  0  0  0  0  0  0  0
  195.2370  174.7880  136.4720 C   0  0  0  0  0  0  0  0  0  0  0  0
  195.2020  176.1090  136.0700 F   0  0  0  0  0  0  0  0  0  0  0  0
  1  5  1  0  0  0  0
  1 20  1  0  0  0  0
  2  1  2  0  0  0  0
  3  4  1  0  0  0  0
  4  5  2  0  0  0  0
  7  3  1  0  0  0  0
  8 37  1  0  0  0  0
  8  6  2  0  0  0  0
  9 12  1  0  0  0  0
 10 14  1  0  0  0  0
 10  7  1  1  0  0  0
 10 11  1  0  0  0  0
 11 12  1  0  0  0  0
 12  8  1  0  0  0  0
 13  3  2  0  0  0  0
 13  2  1  0  0  0  0
 14 13  1  0  0  0  0
 14  9  1  1  0  0  0
 15 18  1  0  0  0  0
 17 16  1  0  0  0  0
 18 22  1  0  0  0  0
 18 16  2  0  0  0  0
 19 15  2  0  0  0  0
 19 20  1  0  0  0  0
 20 17  2  0  0  0  0
 22 26  1  0  0  0  0
 23 26  1  0  0  0  0
 23 21  1  1  0  0  0
 24 22  1  0  0  0  0
 24 25  1  0  0  0  0
 25 23  1  0  0  0  0
 26 27  1  1  0  0  0
 27 28  1  0  0  0  0
 29 19  1  0  0  0  0
 30 31  1  0  0  0  0
 30 29  1  0  0  0  0
 32 34  2  0  0  0  0
 33 32  1  0  0  0  0
 35  2  1  0  0  0  0
 35 32  1  0  0  0  0
 36 35  1  0  0  0  0
 37 38  1  0  0  0  0
 38 39  1  1  0  0  0
 41 42  1  0  0  0  0
 42 40  1  0  0  0  0
 42 38  1  0  0  0  0
 43 42  1  0  0  0  0
M  END
>  <MODEL>
3

>  <REMARK>
 VINA RESULT:      -5.8      5.346     11.403
  Name = 
  9 active torsions:
  status: ('A' for Active; 'I' for Inactive)
    1  A    between atoms: N_2  and  C_23
    2  A    between atoms: C_3  and  C_42
    3  A    between atoms: C_4  and  N_40
    4  A    between atoms: C_5  and  C_43
    5  A    between atoms: N_7  and  C_35
    6  A    between atoms: C_18  and  C_27
    7  A    between atoms: C_18  and  C_31
    8  A    between atoms: C_19  and  C_31
    9  A    between atoms: C_23  and  C_36
                            x       y       z     vdW  Elec       q    Type
                         _______ _______ _______ _____ _____    ______ ____

>  <TORSDO>
F 9

$$$$
=
 OpenBabel11042412543D

 43 47  0  0  1  0  0  0  0  0999 V2000
  184.8220  176.1970  137.2420 C   0  0  0  0  0  0  0  0  0  0  0  0
  186.0400  176.4180  136.5570 C   0  0  0  0  0  0  0  0  0  0  0  0
  186.5800  174.0980  136.8770 C   0  0  0  0  0  0  0  0  0  0  0  0
  185.4140  173.8810  137.5360 N   0  0  0  0  0  0  0  0  0  0  0  0
  184.5380  174.9060  137.7290 C   0  0  0  0  0  3  0  0  0  0  0  0
  191.5840  176.6970  137.9280 O   0  0  0  0  0  0  0  0  0  0  0  0
  187.5790  173.0600  136.5520 C   0  0  0  0  0  2  0  0  0  0  0  0
  191.4320  175.5040  137.5530 C   0  0  0  0  0  0  0  0  0  0  0  0
  189.2680  176.0890  136.3870 C   0  0  0  0  0  2  0  0  0  0  0  0
  188.6260  173.8120  135.7160 C   0  0  2  0  0  3  0  0  0  0  0  0
  189.9680  173.7660  136.4230 C   0  0  0  0  0  2  0  0  0  0  0  0
  190.2700  175.1310  136.8020 N   0  0  0  0  0  0  0  0  0  0  0  0
  186.9140  175.3330  136.3920 C   0  0  0  0  0  0  0  0  0  0  0  0
  188.2000  175.2980  135.6500 C   0  0  1  0  0  3  0  0  0  0  0  0
  182.9950  179.1990  138.6900 C   0  0  0  0  0  3  0  0  0  0  0  0
  181.8240  178.4280  136.7230 C   0  0  0  0  0  3  0  0  0  0  0  0
  182.7710  177.4150  136.5580 C   0  0  0  0  0  3  0  0  0  0  0  0
  181.9280  179.3270  137.7930 C   0  0  0  0  0  0  0  0  0  0  0  0
  183.9530  178.1930  138.5270 C   0  0  0  0  0  0  0  0  0  0  0  0
  183.8390  177.2820  137.4530 C   0  0  0  0  0  0  0  0  0  0  0  0
  178.9430  183.0040  137.0270 O   0  0  0  0  0  1  0  0  0  0  0  0
  180.9600  180.3750  137.9740 N   0  0  0  0  0  0  0  0  0  0  0  0
  179.8810  182.4090  137.8760 C   0  0  1  0  0  3  0  0  0  0  0  0
  180.1130  180.3590  139.0390 O   0  0  0  0  0  0  0  0  0  0  0  0
  179.2060  181.4050  138.7870 C   0  0  0  0  0  2  0  0  0  0  0  0
  180.9030  181.5660  137.1470 C   0  0  2  0  0  3  0  0  0  0  0  0
  180.4780  181.1850  135.7280 C   0  0  0  0  0  2  0  0  0  0  0  0
  180.9630  182.1270  134.8190 O   0  0  0  0  0  1  0  0  0  0  0  0
  185.0370  178.0750  139.5500 C   0  0  0  0  0  2  0  0  0  0  0  0
  185.1320  179.3090  140.3090 N   0  0  0  0  0  2  0  0  0  0  0  0
  185.0360  178.9440  141.7100 C   0  0  0  0  0  1  0  0  0  0  0  0
  187.0850  178.6840  136.7080 C   0  0  0  0  0  0  0  0  0  0  0  0
  187.4150  179.9300  136.1020 N   0  0  0  0  0  1  0  0  0  0  0  0
  187.4400  178.4650  137.8970 O   0  0  0  0  0  0  0  0  0  0  0  0
  186.3480  177.6920  135.9760 N   0  0  0  0  0  0  0  0  0  0  0  0
  185.8720  177.9770  134.6310 C   0  0  0  0  0  1  0  0  0  0  0  0
  192.4820  174.4920  137.8990 C   0  0  0  0  0  2  0  0  0  0  0  0
  193.7590  174.6300  137.0610 C   0  0  1  0  0  3  0  0  0  0  0  0
  194.6030  175.6120  137.5850 O   0  0  0  0  0  1  0  0  0  0  0  0
  195.0610  172.8740  138.0450 F   0  0  0  0  0  0  0  0  0  0  0  0
  193.6550  172.3490  136.3580 F   0  0  0  0  0  0  0  0  0  0  0  0
  194.5120  173.3150  136.8540 C   0  0  0  0  0  0  0  0  0  0  0  0
  195.5310  173.5160  135.9420 F   0  0  0  0  0  0  0  0  0  0  0  0
  1 20  1  0  0  0  0
  1  5  1  0  0  0  0
  2  1  2  0  0  0  0
  3  4  1  0  0  0  0
  4  5  2  0  0  0  0
  7  3  1  0  0  0  0
  8 37  1  0  0  0  0
  8  6  2  0  0  0  0
  9 12  1  0  0  0  0
 10 11  1  1  0  0  0
 10  7  1  0  0  0  0
 11 12  1  0  0  0  0
 12  8  1  0  0  0  0
 13  2  1  0  0  0  0
 13  3  2  0  0  0  0
 14 10  1  0  0  0  0
 14  9  1  1  0  0  0
 14 13  1  0  0  0  0
 16 18  1  0  0  0  0
 17 16  2  0  0  0  0
 17 20  1  0  0  0  0
 18 22  1  0  0  0  0
 18 15  2  0  0  0  0
 19 15  1  0  0  0  0
 19 29  1  0  0  0  0
 20 19  2  0  0  0  0
 22 24  1  0  0  0  0
 23 21  1  6  0  0  0
 23 25  1  0  0  0  0
 25 24  1  0  0  0  0
 26 27  1  6  0  0  0
 26 23  1  0  0  0  0
 26 22  1  0  0  0  0
 28 27  1  0  0  0  0
 29 30  1  0  0  0  0
 30 31  1  0  0  0  0
 32 34  2  0  0  0  0
 33 32  1  0  0  0  0
 35  2  1  0  0  0  0
 35 32  1  0  0  0  0
 36 35  1  0  0  0  0
 38 39  1  1  0  0  0
 38 37  1  0  0  0  0
 41 42  1  0  0  0  0
 42 38  1  0  0  0  0
 42 40  1  0  0  0  0
 43 42  1  0  0  0  0
M  END
>  <MODEL>
4

>  <REMARK>
 VINA RESULT:      -5.5      5.220     11.183
  Name = 
  9 active torsions:
  status: ('A' for Active; 'I' for Inactive)
    1  A    between atoms: N_2  and  C_23
    2  A    between atoms: C_3  and  C_42
    3  A    between atoms: C_4  and  N_40
    4  A    between atoms: C_5  and  C_43
    5  A    between atoms: N_7  and  C_35
    6  A    between atoms: C_18  and  C_27
    7  A    between atoms: C_18  and  C_31
    8  A    between atoms: C_19  and  C_31
    9  A    between atoms: C_23  and  C_36
                            x       y       z     vdW  Elec       q    Type
                         _______ _______ _______ _____ _____    ______ ____

>  <TORSDO>
F 9

$$$$
=
 OpenBabel11042412543D

 43 47  0  0  1  0  0  0  0  0999 V2000
  189.2310  177.3040  139.7900 C   0  0  0  0  0  0  0  0  0  0  0  0
  188.1660  177.8730  139.0520 C   0  0  0  0  0  0  0  0  0  0  0  0
  186.9220  178.0720  141.0990 C   0  0  0  0  0  0  0  0  0  0  0  0
  187.9390  177.5260  141.8110 N   0  0  0  0  0  0  0  0  0  0  0  0
  189.0830  177.1380  141.1810 C   0  0  0  0  0  3  0  0  0  0  0  0
  182.9360  176.2620  137.3940 O   0  0  0  0  0  0  0  0  0  0  0  0
  185.6630  178.5890  141.6720 C   0  0  0  0  0  2  0  0  0  0  0  0
  182.7250  176.9060  138.4560 C   0  0  0  0  0  0  0  0  0  0  0  0
  185.0040  177.9900  138.3170 C   0  0  0  0  0  2  0  0  0  0  0  0
  184.9320  179.1890  140.4620 C   0  0  2  0  0  3  0  0  0  0  0  0
  183.6170  178.4600  140.2520 C   0  0  0  0  0  2  0  0  0  0  0  0
  183.7400  177.7670  138.9870 N   0  0  0  0  0  0  0  0  0  0  0  0
  187.0050  178.2490  139.7450 C   0  0  0  0  0  0  0  0  0  0  0  0
  185.7990  178.9290  139.2090 C   0  0  1  0  0  3  0  0  0  0  0  0
  192.9200  176.7380  139.0740 C   0  0  0  0  0  3  0  0  0  0  0  0
  191.6070  175.7970  137.2780 C   0  0  0  0  0  3  0  0  0  0  0  0
  190.4370  176.2090  137.9190 C   0  0  0  0  0  3  0  0  0  0  0  0
  192.8590  176.0620  137.8500 C   0  0  0  0  0  0  0  0  0  0  0  0
  191.7530  177.1460  139.7280 C   0  0  0  0  0  0  0  0  0  0  0  0
  190.4930  176.8880  139.1420 C   0  0  0  0  0  0  0  0  0  0  0  0
  196.7320  173.5570  136.5270 O   0  0  0  0  0  1  0  0  0  0  0  0
  194.0720  175.6430  137.2000 N   0  0  0  0  0  0  0  0  0  0  0  0
  196.1880  174.8100  136.8260 C   0  0  1  0  0  3  0  0  0  0  0  0
  194.4400  176.1830  136.0070 O   0  0  0  0  0  0  0  0  0  0  0  0
  195.5440  175.4140  135.5940 C   0  0  0  0  0  2  0  0  0  0  0  0
  195.0400  174.7500  137.8090 C   0  0  2  0  0  3  0  0  0  0  0  0
  194.4320  173.3530  137.9490 C   0  0  0  0  0  2  0  0  0  0  0  0
  195.0560  172.6680  138.9930 O   0  0  0  0  0  1  0  0  0  0  0  0
  191.8870  177.9130  141.0040 C   0  0  0  0  0  2  0  0  0  0  0  0
  192.3580  177.0330  142.0590 N   0  0  0  0  0  2  0  0  0  0  0  0
  191.6900  177.4490  143.2770 C   0  0  0  0  0  1  0  0  0  0  0  0
  187.8170  177.1910  136.6730 C   0  0  0  0  0  0  0  0  0  0  0  0
  187.9130  177.4830  135.2820 N   0  0  0  0  0  1  0  0  0  0  0  0
  187.3210  176.0910  137.0380 O   0  0  0  0  0  0  0  0  0  0  0  0
  188.2890  178.1330  137.6480 N   0  0  0  0  0  0  0  0  0  0  0  0
  188.9310  179.3680  137.2230 C   0  0  0  0  0  1  0  0  0  0  0  0
  181.4000  176.7610  139.1440 C   0  0  0  0  0  2  0  0  0  0  0  0
  180.9210  175.3070  139.2370 C   0  0  1  0  0  3  0  0  0  0  0  0
  180.3760  175.0350  140.4940 O   0  0  0  0  0  1  0  0  0  0  0  0
  178.9560  174.0810  138.6190 F   0  0  0  0  0  0  0  0  0  0  0  0
  179.3880  176.0220  137.5510 F   0  0  0  0  0  0  0  0  0  0  0  0
  179.9560  174.8980  138.1230 C   0  0  0  0  0  0  0  0  0  0  0  0
  180.6540  174.2080  137.1510 F   0  0  0  0  0  0  0  0  0  0  0  0
  1  5  1  0  0  0  0
  2 13  1  0  0  0  0
  2  1  2  0  0  0  0
  3  7  1  0  0  0  0
  3  4  1  0  0  0  0
  5  4  2  0  0  0  0
  6  8  2  0  0  0  0
  8 12  1  0  0  0  0
  8 37  1  0  0  0  0
  9 12  1  0  0  0  0
 10 11  1  6  0  0  0
 10  7  1  0  0  0  0
 12 11  1  0  0  0  0
 13  3  2  0  0  0  0
 14  9  1  6  0  0  0
 14 13  1  0  0  0  0
 14 10  1  0  0  0  0
 15 19  1  0  0  0  0
 16 18  1  0  0  0  0
 16 17  2  0  0  0  0
 17 20  1  0  0  0  0
 18 15  2  0  0  0  0
 19 29  1  0  0  0  0
 20 19  2  0  0  0  0
 20  1  1  0  0  0  0
 22 26  1  0  0  0  0
 22 18  1  0  0  0  0
 23 21  1  6  0  0  0
 23 26  1  0  0  0  0
 24 22  1  0  0  0  0
 25 24  1  0  0  0  0
 25 23  1  0  0  0  0
 26 27  1  6  0  0  0
 27 28  1  0  0  0  0
 29 30  1  0  0  0  0
 30 31  1  0  0  0  0
 32 34  2  0  0  0  0
 32 35  1  0  0  0  0
 33 32  1  0  0  0  0
 35  2  1  0  0  0  0
 36 35  1  0  0  0  0
 37 38  1  0  0  0  0
 38 39  1  1  0  0  0
 41 42  1  0  0  0  0
 42 40  1  0  0  0  0
 42 38  1  0  0  0  0
 43 42  1  0  0  0  0
M  END
>  <MODEL>
5

>  <REMARK>
 VINA RESULT:      -5.3      2.096      2.403
  Name = 
  9 active torsions:
  status: ('A' for Active; 'I' for Inactive)
    1  A    between atoms: N_2  and  C_23
    2  A    between atoms: C_3  and  C_42
    3  A    between atoms: C_4  and  N_40
    4  A    between atoms: C_5  and  C_43
    5  A    between atoms: N_7  and  C_35
    6  A    between atoms: C_18  and  C_27
    7  A    between atoms: C_18  and  C_31
    8  A    between atoms: C_19  and  C_31
    9  A    between atoms: C_23  and  C_36
                            x       y       z     vdW  Elec       q    Type
                         _______ _______ _______ _____ _____    ______ ____

>  <TORSDO>
F 9

$$$$
=
 OpenBabel11042412543D

 43 47  0  0  1  0  0  0  0  0999 V2000
  189.2920  177.1510  139.9130 C   0  0  0  0  0  0  0  0  0  0  0  0
  188.2310  177.8510  139.2900 C   0  0  0  0  0  0  0  0  0  0  0  0
  187.0890  177.8970  141.4040 C   0  0  0  0  0  0  0  0  0  0  0  0
  188.1020  177.2250  142.0060 N   0  0  0  0  0  0  0  0  0  0  0  0
  189.1940  176.8460  141.2840 C   0  0  0  0  0  3  0  0  0  0  0  0
  182.8520  176.7040  137.7280 O   0  0  0  0  0  0  0  0  0  0  0  0
  185.8870  178.4150  142.0880 C   0  0  0  0  0  2  0  0  0  0  0  0
  182.7230  177.2420  138.8600 C   0  0  0  0  0  0  0  0  0  0  0  0
  185.0520  178.2120  138.7240 C   0  0  0  0  0  2  0  0  0  0  0  0
  185.1410  179.1780  140.9840 C   0  0  2  0  0  3  0  0  0  0  0  0
  183.7790  178.5470  140.7630 C   0  0  0  0  0  2  0  0  0  0  0  0
  183.8070  177.9870  139.4280 N   0  0  0  0  0  0  0  0  0  0  0  0
  187.1250  178.2120  140.0730 C   0  0  0  0  0  0  0  0  0  0  0  0
  185.9380  179.0080  139.6700 C   0  0  1  0  0  3  0  0  0  0  0  0
  191.6400  175.3300  137.5440 C   0  0  0  0  0  3  0  0  0  0  0  0
  192.8630  177.0630  138.7000 C   0  0  0  0  0  3  0  0  0  0  0  0
  191.7030  177.4210  139.3890 C   0  0  0  0  0  3  0  0  0  0  0  0
  192.8420  176.0120  137.7740 C   0  0  0  0  0  0  0  0  0  0  0  0
  190.4700  175.6870  138.2230 C   0  0  0  0  0  0  0  0  0  0  0  0
  190.4990  176.7400  139.1650 C   0  0  0  0  0  0  0  0  0  0  0  0
  196.7830  173.6980  136.3150 O   0  0  0  0  0  1  0  0  0  0  0  0
  194.0290  175.6330  137.0580 N   0  0  0  0  0  0  0  0  0  0  0  0
  196.1690  174.9270  136.5700 C   0  0  1  0  0  3  0  0  0  0  0  0
  194.2630  176.1070  135.8040 O   0  0  0  0  0  0  0  0  0  0  0  0
  195.3880  175.3890  135.3560 C   0  0  0  0  0  2  0  0  0  0  0  0
  195.1070  174.8590  137.6450 C   0  0  2  0  0  3  0  0  0  0  0  0
  194.6210  173.4370  137.9310 C   0  0  0  0  0  2  0  0  0  0  0  0
  195.2670  172.9330  139.0610 O   0  0  0  0  0  1  0  0  0  0  0  0
  189.2350  174.8840  137.9750 C   0  0  0  0  0  2  0  0  0  0  0  0
  189.5780  173.6570  137.2780 N   0  0  0  0  0  2  0  0  0  0  0  0
  188.4100  173.2760  136.5080 C   0  0  0  0  0  1  0  0  0  0  0  0
  187.6760  177.4860  136.8800 C   0  0  0  0  0  0  0  0  0  0  0  0
  187.7320  177.9200  135.5250 N   0  0  0  0  0  1  0  0  0  0  0  0
  187.0720  176.4150  137.1590 O   0  0  0  0  0  0  0  0  0  0  0  0
  188.3090  178.2520  137.9160 N   0  0  0  0  0  0  0  0  0  0  0  0
  189.0710  179.4460  137.5820 C   0  0  0  0  0  1  0  0  0  0  0  0
  181.4230  177.0950  139.5930 C   0  0  0  0  0  2  0  0  0  0  0  0
  180.9700  175.6370  139.7380 C   0  0  1  0  0  3  0  0  0  0  0  0
  180.2060  175.4580  140.8940 O   0  0  0  0  0  1  0  0  0  0  0  0
  179.7860  176.1210  137.7090 F   0  0  0  0  0  0  0  0  0  0  0  0
  181.0870  174.2770  137.7770 F   0  0  0  0  0  0  0  0  0  0  0  0
  180.2400  175.0880  138.5110 C   0  0  0  0  0  0  0  0  0  0  0  0
  179.1560  174.3380  138.9270 F   0  0  0  0  0  0  0  0  0  0  0  0
  1  5  1  0  0  0  0
  2  1  2  0  0  0  0
  2 13  1  0  0  0  0
  3  4  1  0  0  0  0
  3  7  1  0  0  0  0
  5  4  2  0  0  0  0
  6  8  2  0  0  0  0
  8 12  1  0  0  0  0
  8 37  1  0  0  0  0
  9 12  1  0  0  0  0
 10 11  1  6  0  0  0
 10  7  1  0  0  0  0
 12 11  1  0  0  0  0
 13  3  2  0  0  0  0
 14  9  1  6  0  0  0
 14 13  1  0  0  0  0
 14 10  1  0  0  0  0
 15 18  2  0  0  0  0
 15 19  1  0  0  0  0
 16 17  2  0  0  0  0
 18 16  1  0  0  0  0
 19 20  2  0  0  0  0
 20 17  1  0  0  0  0
 20  1  1  0  0  0  0
 22 26  1  0  0  0  0
 22 18  1  0  0  0  0
 23 21  1  6  0  0  0
 23 26  1  0  0  0  0
 24 22  1  0  0  0  0
 25 24  1  0  0  0  0
 25 23  1  0  0  0  0
 26 27  1  6  0  0  0
 27 28  1  0  0  0  0
 29 19  1  0  0  0  0
 30 29  1  0  0  0  0
 31 30  1  0  0  0  0
 32 34  2  0  0  0  0
 32 35  1  0  0  0  0
 33 32  1  0  0  0  0
 35  2  1  0  0  0  0
 36 35  1  0  0  0  0
 37 38  1  0  0  0  0
 38 39  1  1  0  0  0
 40 42  1  0  0  0  0
 41 42  1  0  0  0  0
 42 43  1  0  0  0  0
 42 38  1  0  0  0  0
M  END
>  <MODEL>
6

>  <REMARK>
 VINA RESULT:      -5.2      2.090      2.920
  Name = 
  9 active torsions:
  status: ('A' for Active; 'I' for Inactive)
    1  A    between atoms: N_2  and  C_23
    2  A    between atoms: C_3  and  C_42
    3  A    between atoms: C_4  and  N_40
    4  A    between atoms: C_5  and  C_43
    5  A    between atoms: N_7  and  C_35
    6  A    between atoms: C_18  and  C_27
    7  A    between atoms: C_18  and  C_31
    8  A    between atoms: C_19  and  C_31
    9  A    between atoms: C_23  and  C_36
                            x       y       z     vdW  Elec       q    Type
                         _______ _______ _______ _____ _____    ______ ____

>  <TORSDO>
F 9

$$$$
=
 OpenBabel11042412543D

 43 47  0  0  1  0  0  0  0  0999 V2000
  189.6340  176.4650  138.7440 C   0  0  0  0  0  0  0  0  0  0  0  0
  188.5220  176.9210  137.9960 C   0  0  0  0  0  0  0  0  0  0  0  0
  187.6280  177.8820  140.0090 C   0  0  0  0  0  0  0  0  0  0  0  0
  188.6900  177.4460  140.7310 N   0  0  0  0  0  0  0  0  0  0  0  0
  189.6850  176.7420  140.1240 C   0  0  0  0  0  3  0  0  0  0  0  0
  182.9810  175.5840  137.5560 O   0  0  0  0  0  0  0  0  0  0  0  0
  186.5200  178.7050  140.5360 C   0  0  0  0  0  2  0  0  0  0  0  0
  182.9910  176.5370  138.3790 C   0  0  0  0  0  0  0  0  0  0  0  0
  185.3080  177.2230  137.6400 C   0  0  0  0  0  2  0  0  0  0  0  0
  185.6680  179.0070  139.2940 C   0  0  2  0  0  3  0  0  0  0  0  0
  184.2790  178.4260  139.4800 C   0  0  0  0  0  2  0  0  0  0  0  0
  184.1460  177.3770  138.4900 N   0  0  0  0  0  0  0  0  0  0  0  0
  187.5190  177.6340  138.6680 C   0  0  0  0  0  0  0  0  0  0  0  0
  186.3090  178.2740  138.0920 C   0  0  1  0  0  3  0  0  0  0  0  0
  193.0890  175.4340  137.5450 C   0  0  0  0  0  3  0  0  0  0  0  0
  191.4800  173.7660  136.8630 C   0  0  0  0  0  3  0  0  0  0  0  0
  190.4600  174.5050  137.4660 C   0  0  0  0  0  3  0  0  0  0  0  0
  192.8030  174.2260  136.8950 C   0  0  0  0  0  0  0  0  0  0  0  0
  192.0760  176.1760  138.1600 C   0  0  0  0  0  0  0  0  0  0  0  0
  190.7410  175.7130  138.1150 C   0  0  0  0  0  0  0  0  0  0  0  0
  196.8210  171.7110  136.1530 O   0  0  0  0  0  1  0  0  0  0  0  0
  193.8620  173.4750  136.2780 N   0  0  0  0  0  0  0  0  0  0  0  0
  195.9520  172.7030  135.6880 C   0  0  1  0  0  3  0  0  0  0  0  0
  193.6700  172.8630  135.0780 O   0  0  0  0  0  0  0  0  0  0  0  0
  194.8250  172.0840  134.8860 C   0  0  0  0  0  2  0  0  0  0  0  0
  195.2180  173.4280  136.7930 C   0  0  2  0  0  3  0  0  0  0  0  0
  195.2330  172.6790  138.1280 C   0  0  0  0  0  2  0  0  0  0  0  0
  195.9380  173.4190  139.0780 O   0  0  0  0  0  1  0  0  0  0  0  0
  192.4370  177.4830  138.7870 C   0  0  0  0  0  2  0  0  0  0  0  0
  193.4160  177.2690  139.8380 N   0  0  0  0  0  2  0  0  0  0  0  0
  192.7210  177.4530  141.0980 C   0  0  0  0  0  1  0  0  0  0  0  0
  187.7680  175.6050  136.0090 C   0  0  0  0  0  0  0  0  0  0  0  0
  187.6750  175.4540  134.5960 N   0  0  0  0  0  1  0  0  0  0  0  0
  187.2490  174.7330  136.7570 O   0  0  0  0  0  0  0  0  0  0  0  0
  188.4520  176.7320  136.5770 N   0  0  0  0  0  0  0  0  0  0  0  0
  189.1160  177.6970  135.7130 C   0  0  0  0  0  1  0  0  0  0  0  0
  181.7790  176.7770  139.2300 C   0  0  0  0  0  2  0  0  0  0  0  0
  180.7360  177.6810  138.5600 C   0  0  1  0  0  3  0  0  0  0  0  0
  179.4730  177.0850  138.5670 O   0  0  0  0  0  1  0  0  0  0  0  0
  179.3770  179.5690  139.1370 F   0  0  0  0  0  0  0  0  0  0  0  0
  181.1660  179.1010  140.4320 F   0  0  0  0  0  0  0  0  0  0  0  0
  180.6770  179.0950  139.1380 C   0  0  0  0  0  0  0  0  0  0  0  0
  181.4570  179.9330  138.3640 F   0  0  0  0  0  0  0  0  0  0  0  0
  1  5  1  0  0  0  0
  2 13  1  0  0  0  0
  2  1  2  0  0  0  0
  3  7  1  0  0  0  0
  3  4  1  0  0  0  0
  5  4  2  0  0  0  0
  6  8  2  0  0  0  0
  8 12  1  0  0  0  0
  8 37  1  0  0  0  0
  9 12  1  0  0  0  0
 10 11  1  1  0  0  0
 10  7  1  0  0  0  0
 12 11  1  0  0  0  0
 13  3  2  0  0  0  0
 14  9  1  1  0  0  0
 14 13  1  0  0  0  0
 14 10  1  0  0  0  0
 15 19  1  0  0  0  0
 16 18  1  0  0  0  0
 16 17  2  0  0  0  0
 17 20  1  0  0  0  0
 18 15  2  0  0  0  0
 19 29  1  0  0  0  0
 20 19  2  0  0  0  0
 20  1  1  0  0  0  0
 22 26  1  0  0  0  0
 22 18  1  0  0  0  0
 23 21  1  1  0  0  0
 23 26  1  0  0  0  0
 24 22  1  0  0  0  0
 25 24  1  0  0  0  0
 25 23  1  0  0  0  0
 26 27  1  1  0  0  0
 27 28  1  0  0  0  0
 29 30  1  0  0  0  0
 30 31  1  0  0  0  0
 32 35  1  0  0  0  0
 32 34  2  0  0  0  0
 33 32  1  0  0  0  0
 35  2  1  0  0  0  0
 36 35  1  0  0  0  0
 38 39  1  1  0  0  0
 38 42  1  0  0  0  0
 38 37  1  0  0  0  0
 40 42  1  0  0  0  0
 42 41  1  0  0  0  0
 43 42  1  0  0  0  0
M  END
>  <MODEL>
7

>  <REMARK>
 VINA RESULT:      -5.1      1.884      2.238
  Name = 
  9 active torsions:
  status: ('A' for Active; 'I' for Inactive)
    1  A    between atoms: N_2  and  C_23
    2  A    between atoms: C_3  and  C_42
    3  A    between atoms: C_4  and  N_40
    4  A    between atoms: C_5  and  C_43
    5  A    between atoms: N_7  and  C_35
    6  A    between atoms: C_18  and  C_27
    7  A    between atoms: C_18  and  C_31
    8  A    between atoms: C_19  and  C_31
    9  A    between atoms: C_23  and  C_36
                            x       y       z     vdW  Elec       q    Type
                         _______ _______ _______ _____ _____    ______ ____

>  <TORSDO>
F 9

$$$$
=
 OpenBabel11042412543D

 43 47  0  0  1  0  0  0  0  0999 V2000
  189.4430  177.2240  137.8240 C   0  0  0  0  0  0  0  0  0  0  0  0
  188.3910  176.7470  137.0070 C   0  0  0  0  0  0  0  0  0  0  0  0
  186.8760  178.1650  138.2170 C   0  0  0  0  0  0  0  0  0  0  0  0
  187.8800  178.6260  139.0040 N   0  0  0  0  0  0  0  0  0  0  0  0
  189.1510  178.1690  138.8270 C   0  0  0  0  0  3  0  0  0  0  0  0
  183.8600  173.3200  137.6520 O   0  0  0  0  0  0  0  0  0  0  0  0
  185.4740  178.6280  138.2690 C   0  0  0  0  0  2  0  0  0  0  0  0
  183.3840  174.4750  137.8230 C   0  0  0  0  0  0  0  0  0  0  0  0
  185.3950  175.5260  136.7100 C   0  0  0  0  0  2  0  0  0  0  0  0
  184.8010  177.8790  137.1090 C   0  0  2  0  0  3  0  0  0  0  0  0
  183.7010  176.9860  137.6510 C   0  0  0  0  0  2  0  0  0  0  0  0
  184.1260  175.6250  137.3990 N   0  0  0  0  0  0  0  0  0  0  0  0
  187.0980  177.2400  137.2340 C   0  0  0  0  0  0  0  0  0  0  0  0
  185.8600  176.9530  136.4660 C   0  0  1  0  0  3  0  0  0  0  0  0
  193.0560  176.2700  138.5120 C   0  0  0  0  0  3  0  0  0  0  0  0
  192.5740  175.9220  136.1710 C   0  0  0  0  0  3  0  0  0  0  0  0
  191.2660  176.3650  136.3760 C   0  0  0  0  0  3  0  0  0  0  0  0
  193.4820  175.8740  137.2380 C   0  0  0  0  0  0  0  0  0  0  0  0
  191.7460  176.7060  138.7290 C   0  0  0  0  0  0  0  0  0  0  0  0
  190.8380  176.7640  137.6480 C   0  0  0  0  0  0  0  0  0  0  0  0
  197.4710  173.2090  137.1980 O   0  0  0  0  0  1  0  0  0  0  0  0
  194.8310  175.4200  137.0400 N   0  0  0  0  0  0  0  0  0  0  0  0
  196.9030  174.4720  137.3900 C   0  0  1  0  0  3  0  0  0  0  0  0
  195.6340  176.0140  136.1170 O   0  0  0  0  0  0  0  0  0  0  0  0
  196.7820  175.2020  136.0670 C   0  0  0  0  0  2  0  0  0  0  0  0
  195.4720  174.4220  137.8770 C   0  0  2  0  0  3  0  0  0  0  0  0
  194.8020  173.0640  137.6600 C   0  0  0  0  0  2  0  0  0  0  0  0
  195.0590  172.2300  138.7490 O   0  0  0  0  0  1  0  0  0  0  0  0
  191.3710  177.1680  140.1000 C   0  0  0  0  0  2  0  0  0  0  0  0
  190.6990  176.0950  140.8120 N   0  0  0  0  0  2  0  0  0  0  0  0
  190.4360  176.5870  142.1510 C   0  0  0  0  0  1  0  0  0  0  0  0
  188.7060  174.4230  136.1390 C   0  0  0  0  0  0  0  0  0  0  0  0
  188.9180  173.5360  135.0460 N   0  0  0  0  0  1  0  0  0  0  0  0
  188.5840  173.9500  137.3010 O   0  0  0  0  0  0  0  0  0  0  0  0
  188.6420  175.8410  135.9240 N   0  0  0  0  0  0  0  0  0  0  0  0
  188.8600  176.3910  134.5940 C   0  0  0  0  0  1  0  0  0  0  0  0
  182.0380  174.6200  138.4680 C   0  0  0  0  0  2  0  0  0  0  0  0
  180.8740  174.3040  137.5210 C   0  0  1  0  0  3  0  0  0  0  0  0
  181.3050  174.2480  136.1930 O   0  0  0  0  0  1  0  0  0  0  0  0
  178.9940  172.8860  137.0710 F   0  0  0  0  0  0  0  0  0  0  0  0
  180.9090  171.9300  137.7880 F   0  0  0  0  0  0  0  0  0  0  0  0
  180.0940  173.0420  137.8950 C   0  0  0  0  0  0  0  0  0  0  0  0
  179.6590  173.1520  139.2030 F   0  0  0  0  0  0  0  0  0  0  0  0
  1  5  1  0  0  0  0
  2 13  1  0  0  0  0
  2  1  2  0  0  0  0
  3  7  1  0  0  0  0
  3  4  1  0  0  0  0
  5  4  2  0  0  0  0
  6  8  2  0  0  0  0
  8 37  1  0  0  0  0
  9 12  1  0  0  0  0
 10 11  1  1  0  0  0
 10  7  1  0  0  0  0
 12 11  1  0  0  0  0
 12  8  1  0  0  0  0
 13  3  2  0  0  0  0
 14  9  1  1  0  0  0
 14 10  1  0  0  0  0
 14 13  1  0  0  0  0
 15 19  1  0  0  0  0
 16 17  2  0  0  0  0
 16 18  1  0  0  0  0
 17 20  1  0  0  0  0
 18 15  2  0  0  0  0
 19 29  1  0  0  0  0
 20  1  1  0  0  0  0
 20 19  2  0  0  0  0
 22 18  1  0  0  0  0
 22 26  1  0  0  0  0
 23 21  1  6  0  0  0
 23 26  1  0  0  0  0
 24 22  1  0  0  0  0
 25 24  1  0  0  0  0
 25 23  1  0  0  0  0
 26 27  1  6  0  0  0
 27 28  1  0  0  0  0
 29 30  1  0  0  0  0
 30 31  1  0  0  0  0
 32 34  2  0  0  0  0
 33 32  1  0  0  0  0
 35 32  1  0  0  0  0
 35  2  1  0  0  0  0
 36 35  1  0  0  0  0
 38 39  1  6  0  0  0
 38 42  1  0  0  0  0
 38 37  1  0  0  0  0
 40 42  1  0  0  0  0
 41 42  1  0  0  0  0
 42 43  1  0  0  0  0
M  END
>  <MODEL>
8

>  <REMARK>
 VINA RESULT:      -5.0      3.246      4.015
  Name = 
  9 active torsions:
  status: ('A' for Active; 'I' for Inactive)
    1  A    between atoms: N_2  and  C_23
    2  A    between atoms: C_3  and  C_42
    3  A    between atoms: C_4  and  N_40
    4  A    between atoms: C_5  and  C_43
    5  A    between atoms: N_7  and  C_35
    6  A    between atoms: C_18  and  C_27
    7  A    between atoms: C_18  and  C_31
    8  A    between atoms: C_19  and  C_31
    9  A    between atoms: C_23  and  C_36
                            x       y       z     vdW  Elec       q    Type
                         _______ _______ _______ _____ _____    ______ ____

>  <TORSDO>
F 9

$$$$
=
 OpenBabel11042412543D

 43 47  0  0  1  0  0  0  0  0999 V2000
  187.8390  177.7570  138.8500 C   0  0  0  0  0  0  0  0  0  0  0  0
  186.7370  177.6740  137.9670 C   0  0  0  0  0  0  0  0  0  0  0  0
  185.3730  178.7100  139.6520 C   0  0  0  0  0  0  0  0  0  0  0  0
  186.4260  178.7920  140.5030 N   0  0  0  0  0  0  0  0  0  0  0  0
  187.6480  178.3230  140.1260 C   0  0  0  0  0  3  0  0  0  0  0  0
  181.9230  174.6080  137.6110 O   0  0  0  0  0  0  0  0  0  0  0  0
  184.0200  179.2380  139.9190 C   0  0  0  0  0  2  0  0  0  0  0  0
  181.5570  175.6690  138.1840 C   0  0  0  0  0  0  0  0  0  0  0  0
  183.6390  176.8720  137.4060 C   0  0  0  0  0  2  0  0  0  0  0  0
  183.2660  178.9870  138.6040 C   0  0  2  0  0  3  0  0  0  0  0  0
  182.0970  178.0540  138.8600 C   0  0  0  0  0  2  0  0  0  0  0  0
  182.3930  176.8320  138.1430 N   0  0  0  0  0  0  0  0  0  0  0  0
  185.4970  178.1620  138.4050 C   0  0  0  0  0  0  0  0  0  0  0  0
  184.2270  178.2540  137.6400 C   0  0  1  0  0  3  0  0  0  0  0  0
  191.3730  176.3710  139.0180 C   0  0  0  0  0  3  0  0  0  0  0  0
  190.8020  176.8170  136.7140 C   0  0  0  0  0  3  0  0  0  0  0  0
  189.5430  177.2670  137.1140 C   0  0  0  0  0  3  0  0  0  0  0  0
  191.7290  176.3670  137.6640 C   0  0  0  0  0  0  0  0  0  0  0  0
  190.1110  176.8120  139.4280 C   0  0  0  0  0  0  0  0  0  0  0  0
  189.1840  177.2750  138.4670 C   0  0  0  0  0  0  0  0  0  0  0  0
  195.4190  173.5670  136.4130 O   0  0  0  0  0  1  0  0  0  0  0  0
  193.0290  175.9000  137.2640 N   0  0  0  0  0  0  0  0  0  0  0  0
  194.9810  174.6800  137.1360 C   0  0  1  0  0  3  0  0  0  0  0  0
  193.9150  176.7420  136.6660 O   0  0  0  0  0  0  0  0  0  0  0  0
  194.9720  175.9120  136.2530 C   0  0  0  0  0  2  0  0  0  0  0  0
  193.5400  174.5800  137.5830 C   0  0  2  0  0  3  0  0  0  0  0  0
  192.7380  173.5220  136.8220 C   0  0  0  0  0  2  0  0  0  0  0  0
  192.2290  174.0700  135.6440 O   0  0  0  0  0  1  0  0  0  0  0  0
  189.8130  176.8430  140.8920 C   0  0  0  0  0  2  0  0  0  0  0  0
  190.7520  175.9940  141.6020 N   0  0  0  0  0  2  0  0  0  0  0  0
  190.5260  176.2180  143.0180 C   0  0  0  0  0  1  0  0  0  0  0  0
  186.8060  175.7710  136.3470 C   0  0  0  0  0  0  0  0  0  0  0  0
  186.9220  175.2970  135.0090 N   0  0  0  0  0  1  0  0  0  0  0  0
  186.6370  174.9410  137.2810 O   0  0  0  0  0  0  0  0  0  0  0  0
  186.8900  177.1750  136.6310 N   0  0  0  0  0  0  0  0  0  0  0  0
  187.1610  178.1240  135.5610 C   0  0  0  0  0  1  0  0  0  0  0  0
  180.2390  175.6930  138.8980 C   0  0  0  0  0  2  0  0  0  0  0  0
  180.3670  175.5080  140.4150 C   0  0  1  0  0  3  0  0  0  0  0  0
  179.8770  176.6200  141.1030 O   0  0  0  0  0  1  0  0  0  0  0  0
  180.7090  173.3070  141.3050 F   0  0  0  0  0  0  0  0  0  0  0  0
  178.9310  174.4930  142.0320 F   0  0  0  0  0  0  0  0  0  0  0  0
  179.7330  174.2180  140.9400 C   0  0  0  0  0  0  0  0  0  0  0  0
  178.9530  173.6610  139.9440 F   0  0  0  0  0  0  0  0  0  0  0  0
  1  5  1  0  0  0  0
  2 13  1  0  0  0  0
  2  1  2  0  0  0  0
  3  7  1  0  0  0  0
  3  4  1  0  0  0  0
  5  4  2  0  0  0  0
  6  8  2  0  0  0  0
  8 37  1  0  0  0  0
  9 12  1  0  0  0  0
 10 11  1  1  0  0  0
 10  7  1  0  0  0  0
 12  8  1  0  0  0  0
 12 11  1  0  0  0  0
 13  3  2  0  0  0  0
 14  9  1  1  0  0  0
 14 13  1  0  0  0  0
 14 10  1  0  0  0  0
 15 19  1  0  0  0  0
 16 17  2  0  0  0  0
 16 18  1  0  0  0  0
 17 20  1  0  0  0  0
 18 15  2  0  0  0  0
 19 29  1  0  0  0  0
 20  1  1  0  0  0  0
 20 19  2  0  0  0  0
 22 26  1  0  0  0  0
 22 18  1  0  0  0  0
 23 21  1  6  0  0  0
 23 26  1  0  0  0  0
 24 22  1  0  0  0  0
 25 24  1  0  0  0  0
 25 23  1  0  0  0  0
 26 27  1  6  0  0  0
 28 27  1  0  0  0  0
 29 30  1  0  0  0  0
 30 31  1  0  0  0  0
 32 35  1  0  0  0  0
 32 34  2  0  0  0  0
 33 32  1  0  0  0  0
 35  2  1  0  0  0  0
 36 35  1  0  0  0  0
 37 38  1  0  0  0  0
 38 42  1  0  0  0  0
 38 39  1  1  0  0  0
 42 40  1  0  0  0  0
 42 41  1  0  0  0  0
 43 42  1  0  0  0  0
M  END
>  <MODEL>
9

>  <REMARK>
 VINA RESULT:      -5.0      2.317      3.100
  Name = 
  9 active torsions:
  status: ('A' for Active; 'I' for Inactive)
    1  A    between atoms: N_2  and  C_23
    2  A    between atoms: C_3  and  C_42
    3  A    between atoms: C_4  and  N_40
    4  A    between atoms: C_5  and  C_43
    5  A    between atoms: N_7  and  C_35
    6  A    between atoms: C_18  and  C_27
    7  A    between atoms: C_18  and  C_31
    8  A    between atoms: C_19  and  C_31
    9  A    between atoms: C_23  and  C_36
                            x       y       z     vdW  Elec       q    Type
                         _______ _______ _______ _____ _____    ______ ____

>  <TORSDO>
F 9

$$$$
