=
 OpenBabel11042411263D

 55 58  0  0  1  0  0  0  0  0999 V2000
  185.7800  177.3550  143.3950 C   0  0  0  0  0  2  0  0  0  0  0  0
  185.0080  178.6850  143.3630 C   0  0  2  0  0  3  0  0  0  0  0  0
  185.9430  178.9440  141.1310 O   0  0  0  0  0  1  0  0  0  0  0  0
  182.6500  178.4920  142.6340 C   0  0  2  0  0  3  0  0  0  0  0  0
  183.5710  178.5010  143.8570 C   0  0  0  0  0  2  0  0  0  0  0  0
  183.6040  178.4540  141.4450 C   0  0  2  0  0  3  0  0  0  0  0  0
  184.8330  179.1920  141.9390 C   0  0  1  0  0  3  0  0  0  0  0  0
  179.6740  178.6730  143.1260 O   0  0  0  0  0  1  0  0  0  0  0  0
  180.4290  179.8020  142.8050 C   0  0  0  0  0  0  0  0  0  0  0  0
  181.8410  179.7130  142.5910 N   0  0  0  0  0  2  0  0  0  0  0  0
  179.8620  180.9230  142.7330 O   0  0  0  0  0  0  0  0  0  0  0  0
  182.9810  178.9760  140.1260 C   0  0  1  0  0  3  0  0  0  0  0  0
  183.9080  179.5040  139.0690 C   0  0  0  0  0  0  0  0  0  0  0  0
  184.5930  178.6190  138.2490 O   0  0  0  0  0  0  0  0  0  0  0  0
  184.0600  180.7450  138.9080 O   0  0  0  0  0  1  0  0  0  0  0  0
  181.9320  178.1780  139.6170 O   0  0  0  0  0  0  0  0  0  0  0  0
  182.3310  176.8330  139.6630 C   0  0  0  0  0  2  0  0  0  0  0  0
  181.8950  176.1570  138.4530 N   0  0  0  0  0  2  0  0  0  0  0  0
  183.3320  173.6920  136.5980 C   0  0  2  0  0  0  0  0  0  0  0  0
  183.0530  175.4740  137.9030 C   0  0  2  0  0  3  0  0  0  0  0  0
  182.2630  173.0550  135.7410 C   0  0  0  0  0  2  0  0  0  0  0  0
  184.3840  172.6070  136.7730 C   0  0  2  0  0  3  0  0  0  0  0  0
  183.3600  176.0030  136.6380 O   0  0  0  0  0  0  0  0  0  0  0  0
  183.6190  171.2970  136.7870 C   0  0  0  0  0  2  0  0  0  0  0  0
  182.7850  174.0950  137.8180 O   0  0  0  0  0  0  0  0  0  0  0  0
  183.8880  174.9170  135.9440 C   0  0  0  0  0  2  0  0  0  0  0  0
  182.2850  171.5700  136.0970 C   0  0  0  0  0  2  0  0  0  0  0  0
  185.1010  172.7670  137.9590 O   0  0  0  0  0  1  0  0  0  0  0  0
  186.8820  177.3200  144.4510 C   0  0  0  0  0  2  0  0  0  0  0  0
  188.2320  177.7400  143.8940 C   0  0  1  0  0  3  0  0  0  0  0  0
  189.1520  178.1000  145.0520 C   0  0  0  0  0  2  0  0  0  0  0  0
  191.9430  177.0100  144.6030 O   0  0  0  0  0  0  0  0  0  0  0  0
  192.6740  175.7100  147.1440 N   0  0  0  0  0  1  0  0  0  0  0  0
  191.2610  176.9290  145.6170 C   0  0  0  0  0  0  0  0  0  0  0  0
  191.8150  176.8730  146.9960 C   0  0  1  0  0  3  0  0  0  0  0  0
  189.7830  176.8310  145.6190 C   0  0  1  0  0  3  0  0  0  0  0  0
  190.6220  176.7030  147.8090 N   0  0  0  0  0  0  0  0  0  0  0  0
  189.5420  176.7330  147.0870 C   0  0  0  0  0  0  0  0  0  0  0  0
  188.2390  176.4570  147.6290 N   0  0  0  0  0  0  0  0  0  0  0  0
  187.3690  177.3320  148.0440 C   0  0  0  0  0  3  0  0  0  0  0  0
  187.5960  178.8100  147.9990 C   0  0  0  0  0  2  0  0  0  0  0  0
  185.9710  180.5510  148.1190 O   0  0  0  0  0  1  0  0  0  0  0  0
  186.4330  179.5050  147.3170 C   0  0  2  0  0  3  0  0  0  0  0  0
  185.3240  178.5110  147.0950 C   0  0  0  0  0  1  0  0  0  0  0  0
  188.8340  176.6100  143.0860 C   0  0  0  0  0  2  0  0  0  0  0  0
  189.0160  177.0380  141.6430 C   0  0  0  0  0  2  0  0  0  0  0  0
  190.4900  177.1780  141.3360 C   0  0  0  0  0  2  0  0  0  0  0  0
  190.7780  176.8140  139.8860 C   0  0  0  0  0  2  0  0  0  0  0  0
  189.8910  177.5650  139.0100 N   0  0  0  0  0  2  0  0  0  0  0  0
  189.3420  176.6160  138.0600 C   0  0  0  0  0  2  0  0  0  0  0  0
  187.8710  176.9020  137.8340 C   0  0  0  0  0  2  0  0  0  0  0  0
  187.6450  177.8810  136.3620 S   0  0  0  0  0  0  0  0  0  0  0  0
  189.0440  177.6690  135.2880 C   0  0  0  0  0  1  0  0  0  0  0  0
  187.5320  179.3280  136.7510 O   0  0  0  0  0  0  0  0  0  0  0  0
  186.3940  177.4650  135.6400 O   0  0  0  0  0  0  0  0  0  0  0  0
  1 29  1  0  0  0  0
  2  1  1  6  0  0  0
  2  5  1  0  0  0  0
  4 10  1  6  0  0  0
  4  5  1  0  0  0  0
  6 12  1  6  0  0  0
  6  7  1  0  0  0  0
  6  4  1  0  0  0  0
  7  3  1  6  0  0  0
  7  2  1  0  0  0  0
  9  8  1  0  0  0  0
 10  9  1  0  0  0  0
 11  9  2  0  0  0  0
 12 13  1  6  0  0  0
 14 13  2  0  0  0  0
 15 13  1  0  0  0  0
 16 17  1  0  0  0  0
 16 12  1  0  0  0  0
 18 17  1  0  0  0  0
 19 21  1  6  0  0  0
 19 22  1  0  0  0  0
 19 25  1  0  0  0  0
 20 18  1  6  0  0  0
 21 27  1  0  0  0  0
 22 24  1  0  0  0  0
 22 28  1  1  0  0  0
 23 20  1  0  0  0  0
 25 20  1  0  0  0  0
 26 19  1  0  0  0  0
 26 23  1  0  0  0  0
 27 24  1  0  0  0  0
 30 45  1  1  0  0  0
 30 29  1  0  0  0  0
 30 31  1  0  0  0  0
 32 34  2  0  0  0  0
 34 36  1  0  0  0  0
 34 35  1  0  0  0  0
 35 33  1  6  0  0  0
 35 37  1  0  0  0  0
 36 31  1  1  0  0  0
 36 38  1  0  0  0  0
 38 39  1  0  0  0  0
 38 37  2  0  0  0  0
 39 40  2  0  0  0  0
 41 40  1  0  0  0  0
 43 44  1  1  0  0  0
 43 41  1  0  0  0  0
 43 42  1  0  0  0  0
 46 45  1  0  0  0  0
 47 46  1  0  0  0  0
 48 47  1  0  0  0  0
 49 48  1  0  0  0  0
 50 49  1  0  0  0  0
 51 50  1  0  0  0  0
 52 54  2  0  0  0  0
 52 51  1  0  0  0  0
 53 52  1  0  0  0  0
 55 52  2  0  0  0  0
M  END
>  <MODEL>
1

>  <REMARK>
 VINA RESULT:      -7.2      0.000      0.000
  Name = 
  23 active torsions:
  status: ('A' for Active; 'I' for Inactive)
    1  A    between atoms: C_1  and  C_23
    2  A    between atoms: C_1  and  C_47
    3  A    between atoms: C_2  and  C_29
    4  A    between atoms: S_5  and  C_31
    5  A    between atoms: C_7  and  C_20
    6  A    between atoms: C_8  and  N_45
    7  A    between atoms: N_9  and  C_26
    8  A    between atoms: N_9  and  C_47
    9  A    between atoms: N_12  and  C_49
   10  A    between atoms: C_15  and  C_16
   11  A    between atoms: C_15  and  C_23
   12  A    between atoms: C_16  and  C_40
   13  A    between atoms: C_16  and  C_55
   14  A    between atoms: C_19  and  C_43
   15  A    between atoms: C_20  and  O_38
   16  A    between atoms: C_20  and  C_46
   17  A    between atoms: C_21  and  O_38
   18  A    between atoms: C_21  and  N_45
   19  A    between atoms: C_25  and  C_40
   20  A    between atoms: C_26  and  C_31
   21  A    between atoms: C_29  and  C_55
   22  A    between atoms: C_30  and  N_42
   23  A    between atoms: C_41  and  C_43
                            x       y       z     vdW  Elec       q    Type
                         _______ _______ _______ _____ _____    ______ ____

>  <TORSDO>
F 23

$$$$
=
 OpenBabel11042411263D

 55 58  0  0  1  0  0  0  0  0999 V2000
  188.6230  177.6470  141.3400 C   0  0  0  0  0  2  0  0  0  0  0  0
  188.7970  178.3030  139.9590 C   0  0  2  0  0  3  0  0  0  0  0  0
  190.9640  177.1960  139.9290 O   0  0  0  0  0  1  0  0  0  0  0  0
  187.8250  177.0230  138.0780 C   0  0  2  0  0  3  0  0  0  0  0  0
  187.5430  178.1250  139.1010 C   0  0  0  0  0  2  0  0  0  0  0  0
  189.1650  176.4400  138.5130 C   0  0  2  0  0  3  0  0  0  0  0  0
  189.8840  177.6130  139.1500 C   0  0  1  0  0  3  0  0  0  0  0  0
  185.5780  177.3110  136.0780 O   0  0  0  0  0  1  0  0  0  0  0  0
  186.8800  177.7100  135.7730 C   0  0  0  0  0  0  0  0  0  0  0  0
  187.9360  177.5880  136.7300 N   0  0  0  0  0  2  0  0  0  0  0  0
  187.1220  178.2160  134.6460 O   0  0  0  0  0  0  0  0  0  0  0  0
  189.9270  175.7080  137.3790 C   0  0  1  0  0  3  0  0  0  0  0  0
  189.3990  174.3810  136.9160 C   0  0  0  0  0  0  0  0  0  0  0  0
  190.1120  173.2220  137.1890 O   0  0  0  0  0  1  0  0  0  0  0  0
  188.3060  174.3050  136.2930 O   0  0  0  0  0  0  0  0  0  0  0  0
  190.3600  176.5470  136.3280 O   0  0  0  0  0  0  0  0  0  0  0  0
  191.5890  176.0680  135.8500 C   0  0  0  0  0  2  0  0  0  0  0  0
  192.6360  176.3790  136.8090 N   0  0  0  0  0  2  0  0  0  0  0  0
  195.5190  174.6310  136.3410 C   0  0  2  0  0  0  0  0  0  0  0  0
  193.9070  176.1540  136.1410 C   0  0  2  0  0  3  0  0  0  0  0  0
  195.3840  173.2950  137.0340 C   0  0  0  0  0  2  0  0  0  0  0  0
  197.0160  174.9000  136.3100 C   0  0  2  0  0  3  0  0  0  0  0  0
  193.7220  175.2920  135.0470 O   0  0  0  0  0  0  0  0  0  0  0  0
  197.5690  174.2710  137.5750 C   0  0  0  0  0  2  0  0  0  0  0  0
  194.8260  175.6090  137.0580 O   0  0  0  0  0  0  0  0  0  0  0  0
  194.9230  174.5910  134.9710 C   0  0  0  0  0  2  0  0  0  0  0  0
  196.5510  173.2240  138.0150 C   0  0  0  0  0  2  0  0  0  0  0  0
  197.2970  176.2660  136.2800 O   0  0  0  0  0  1  0  0  0  0  0  0
  187.8120  178.4970  142.3160 C   0  0  0  0  0  2  0  0  0  0  0  0
  186.4510  177.8920  142.6170 C   0  0  1  0  0  3  0  0  0  0  0  0
  186.5120  177.1900  143.9680 C   0  0  0  0  0  2  0  0  0  0  0  0
  185.9670  179.2390  146.1320 O   0  0  0  0  0  0  0  0  0  0  0  0
  188.0190  178.7430  148.1880 N   0  0  0  0  0  1  0  0  0  0  0  0
  186.8490  178.3890  146.1100 C   0  0  0  0  0  0  0  0  0  0  0  0
  187.4190  177.7420  147.3220 C   0  0  1  0  0  3  0  0  0  0  0  0
  187.5090  177.9090  144.8740 C   0  0  1  0  0  3  0  0  0  0  0  0
  188.4600  176.8930  146.7660 N   0  0  0  0  0  0  0  0  0  0  0  0
  188.4750  176.9390  145.4670 C   0  0  0  0  0  0  0  0  0  0  0  0
  189.4900  176.2950  144.6790 N   0  0  0  0  0  0  0  0  0  0  0  0
  190.7170  176.6970  144.5160 C   0  0  0  0  0  3  0  0  0  0  0  0
  191.2790  177.9240  145.1610 C   0  0  0  0  0  2  0  0  0  0  0  0
  190.9230  179.9620  143.9750 O   0  0  0  0  0  1  0  0  0  0  0  0
  191.8020  178.8850  144.1100 C   0  0  2  0  0  3  0  0  0  0  0  0
  191.9210  178.1610  142.7940 C   0  0  0  0  0  1  0  0  0  0  0  0
  185.3960  178.9780  142.6460 C   0  0  0  0  0  2  0  0  0  0  0  0
  184.0590  178.4180  142.1990 C   0  0  0  0  0  2  0  0  0  0  0  0
  183.0000  178.7470  143.2270 C   0  0  0  0  0  2  0  0  0  0  0  0
  181.7620  179.3310  142.5610 C   0  0  0  0  0  2  0  0  0  0  0  0
  181.0150  178.2680  141.9050 N   0  0  0  0  0  2  0  0  0  0  0  0
  181.2260  178.4300  140.4790 C   0  0  0  0  0  2  0  0  0  0  0  0
  180.8570  179.8390  140.0580 C   0  0  0  0  0  2  0  0  0  0  0  0
  181.8710  180.3680  138.6910 S   0  0  0  0  0  0  0  0  0  0  0  0
  181.3780  179.5040  137.2190 C   0  0  0  0  0  1  0  0  0  0  0  0
  183.3070  180.0490  138.9970 O   0  0  0  0  0  0  0  0  0  0  0  0
  181.7300  181.8480  138.4730 O   0  0  0  0  0  0  0  0  0  0  0  0
  1 29  1  0  0  0  0
  2  1  1  1  0  0  0
  4 10  1  6  0  0  0
  4  6  1  0  0  0  0
  4  5  1  0  0  0  0
  5  2  1  0  0  0  0
  6 12  1  6  0  0  0
  6  7  1  0  0  0  0
  7  3  1  1  0  0  0
  7  2  1  0  0  0  0
  9  8  1  0  0  0  0
  9 10  1  0  0  0  0
 11  9  2  0  0  0  0
 12 16  1  6  0  0  0
 13 14  1  0  0  0  0
 13 12  1  0  0  0  0
 15 13  2  0  0  0  0
 17 16  1  0  0  0  0
 17 18  1  0  0  0  0
 19 26  1  6  0  0  0
 19 21  1  0  0  0  0
 19 25  1  0  0  0  0
 20 18  1  1  0  0  0
 20 25  1  0  0  0  0
 21 27  1  0  0  0  0
 22 28  1  1  0  0  0
 22 19  1  0  0  0  0
 22 24  1  0  0  0  0
 23 20  1  0  0  0  0
 24 27  1  0  0  0  0
 26 23  1  0  0  0  0
 30 29  1  1  0  0  0
 30 45  1  0  0  0  0
 30 31  1  0  0  0  0
 34 32  2  0  0  0  0
 34 35  1  0  0  0  0
 35 33  1  1  0  0  0
 36 31  1  6  0  0  0
 36 38  1  0  0  0  0
 36 34  1  0  0  0  0
 37 35  1  0  0  0  0
 38 37  2  0  0  0  0
 39 38  1  0  0  0  0
 40 39  2  0  0  0  0
 40 41  1  0  0  0  0
 42 43  1  0  0  0  0
 43 44  1  6  0  0  0
 43 41  1  0  0  0  0
 46 45  1  0  0  0  0
 46 47  1  0  0  0  0
 48 47  1  0  0  0  0
 49 48  1  0  0  0  0
 50 49  1  0  0  0  0
 51 50  1  0  0  0  0
 52 54  2  0  0  0  0
 52 51  1  0  0  0  0
 53 52  1  0  0  0  0
 55 52  2  0  0  0  0
M  END
>  <MODEL>
2

>  <REMARK>
 VINA RESULT:      -6.5      3.837      8.213
  Name = 
  23 active torsions:
  status: ('A' for Active; 'I' for Inactive)
    1  A    between atoms: C_1  and  C_23
    2  A    between atoms: C_1  and  C_47
    3  A    between atoms: C_2  and  C_29
    4  A    between atoms: S_5  and  C_31
    5  A    between atoms: C_7  and  C_20
    6  A    between atoms: C_8  and  N_45
    7  A    between atoms: N_9  and  C_26
    8  A    between atoms: N_9  and  C_47
    9  A    between atoms: N_12  and  C_49
   10  A    between atoms: C_15  and  C_16
   11  A    between atoms: C_15  and  C_23
   12  A    between atoms: C_16  and  C_40
   13  A    between atoms: C_16  and  C_55
   14  A    between atoms: C_19  and  C_43
   15  A    between atoms: C_20  and  O_38
   16  A    between atoms: C_20  and  C_46
   17  A    between atoms: C_21  and  O_38
   18  A    between atoms: C_21  and  N_45
   19  A    between atoms: C_25  and  C_40
   20  A    between atoms: C_26  and  C_31
   21  A    between atoms: C_29  and  C_55
   22  A    between atoms: C_30  and  N_42
   23  A    between atoms: C_41  and  C_43
                            x       y       z     vdW  Elec       q    Type
                         _______ _______ _______ _____ _____    ______ ____

>  <TORSDO>
F 23

$$$$
=
 OpenBabel11042411263D

 55 58  0  0  1  0  0  0  0  0999 V2000
  185.7420  179.6310  142.0620 C   0  0  0  0  0  2  0  0  0  0  0  0
  186.2300  178.2620  141.5560 C   0  0  2  0  0  3  0  0  0  0  0  0
  184.2440  178.3000  140.1490 O   0  0  0  0  0  1  0  0  0  0  0  0
  187.8640  178.3700  139.7010 C   0  0  2  0  0  3  0  0  0  0  0  0
  187.7230  178.2970  141.2230 C   0  0  0  0  0  2  0  0  0  0  0  0
  186.4420  178.5970  139.2010 C   0  0  2  0  0  3  0  0  0  0  0  0
  185.5770  177.8960  140.2310 C   0  0  1  0  0  3  0  0  0  0  0  0
  190.7820  177.6330  139.4220 O   0  0  0  0  0  1  0  0  0  0  0  0
  189.7690  176.7620  139.0200 C   0  0  0  0  0  0  0  0  0  0  0  0
  188.3890  177.1090  139.1710 N   0  0  0  0  0  2  0  0  0  0  0  0
  190.0750  175.6380  138.5440 O   0  0  0  0  0  0  0  0  0  0  0  0
  186.2210  178.1740  137.7270 C   0  0  1  0  0  3  0  0  0  0  0  0
  187.2390  178.6050  136.7090 C   0  0  0  0  0  0  0  0  0  0  0  0
  187.7350  179.9000  136.7370 O   0  0  0  0  0  1  0  0  0  0  0  0
  187.6580  177.7970  135.8370 O   0  0  0  0  0  0  0  0  0  0  0  0
  185.7760  176.8440  137.5590 O   0  0  0  0  0  0  0  0  0  0  0  0
  184.5550  176.8650  136.8670 C   0  0  0  0  0  2  0  0  0  0  0  0
  183.8490  175.6160  137.0940 N   0  0  0  0  0  2  0  0  0  0  0  0
  180.7190  175.9600  138.3860 C   0  0  2  0  0  0  0  0  0  0  0  0
  182.4290  175.8970  136.9620 C   0  0  2  0  0  3  0  0  0  0  0  0
  180.8310  176.0470  139.8900 C   0  0  0  0  0  2  0  0  0  0  0  0
  179.3210  175.4150  138.1340 C   0  0  2  0  0  3  0  0  0  0  0  0
  182.1950  177.2660  137.1780 O   0  0  0  0  0  0  0  0  0  0  0  0
  179.0290  174.4900  139.3000 C   0  0  0  0  0  2  0  0  0  0  0  0
  181.7100  175.1140  137.8850 O   0  0  0  0  0  0  0  0  0  0  0  0
  180.9260  177.2980  137.7510 C   0  0  0  0  0  2  0  0  0  0  0  0
  179.9610  174.9150  140.4310 C   0  0  0  0  0  2  0  0  0  0  0  0
  179.2460  174.7180  136.9280 O   0  0  0  0  0  1  0  0  0  0  0  0
  185.4230  179.6450  143.5550 C   0  0  0  0  0  2  0  0  0  0  0  0
  184.4610  178.5370  143.9510 C   0  0  1  0  0  3  0  0  0  0  0  0
  185.1450  177.6320  144.9680 C   0  0  0  0  0  2  0  0  0  0  0  0
  185.4720  179.4310  147.3840 O   0  0  0  0  0  0  0  0  0  0  0  0
  188.1690  178.8440  148.4130 N   0  0  0  0  0  1  0  0  0  0  0  0
  186.2820  178.6330  146.9280 C   0  0  0  0  0  0  0  0  0  0  0  0
  187.2880  177.9020  147.7450 C   0  0  1  0  0  3  0  0  0  0  0  0
  186.4090  178.3090  145.4880 C   0  0  1  0  0  3  0  0  0  0  0  0
  188.0360  177.1660  146.7400 N   0  0  0  0  0  0  0  0  0  0  0  0
  187.5400  177.3380  145.5510 C   0  0  0  0  0  0  0  0  0  0  0  0
  188.1720  176.8260  144.3650 N   0  0  0  0  0  0  0  0  0  0  0  0
  189.4380  176.8900  144.0710 C   0  0  0  0  0  3  0  0  0  0  0  0
  190.4650  177.5110  144.9640 C   0  0  0  0  0  2  0  0  0  0  0  0
  191.0130  179.6090  143.9700 O   0  0  0  0  0  1  0  0  0  0  0  0
  191.4700  178.3020  144.1480 C   0  0  2  0  0  3  0  0  0  0  0  0
  191.6460  177.6400  142.8060 C   0  0  0  0  0  1  0  0  0  0  0  0
  183.2040  179.1310  144.5510 C   0  0  0  0  0  2  0  0  0  0  0  0
  181.9770  178.5050  143.9160 C   0  0  0  0  0  2  0  0  0  0  0  0
  181.1520  179.5760  143.2380 C   0  0  0  0  0  2  0  0  0  0  0  0
  180.0760  178.9560  142.3600 C   0  0  0  0  0  2  0  0  0  0  0  0
  179.5340  179.9680  141.4640 N   0  0  0  0  0  2  0  0  0  0  0  0
  180.3720  179.9680  140.2800 C   0  0  0  0  0  2  0  0  0  0  0  0
  180.0390  181.1650  139.4120 C   0  0  0  0  0  2  0  0  0  0  0  0
  181.3170  181.4300  138.1980 S   0  0  0  0  0  0  0  0  0  0  0  0
  180.7760  180.8110  136.6230 C   0  0  0  0  0  1  0  0  0  0  0  0
  182.5540  180.6910  138.6230 O   0  0  0  0  0  0  0  0  0  0  0  0
  181.6330  182.8940  138.0780 O   0  0  0  0  0  0  0  0  0  0  0  0
  1 29  1  0  0  0  0
  2  1  1  6  0  0  0
  4 10  1  6  0  0  0
  4  5  1  0  0  0  0
  5  2  1  0  0  0  0
  6 12  1  6  0  0  0
  6  4  1  0  0  0  0
  6  7  1  0  0  0  0
  7  3  1  1  0  0  0
  7  2  1  0  0  0  0
  9 10  1  0  0  0  0
  9  8  1  0  0  0  0
 11  9  2  0  0  0  0
 12 13  1  6  0  0  0
 13 14  1  0  0  0  0
 15 13  2  0  0  0  0
 16 12  1  0  0  0  0
 17 18  1  0  0  0  0
 17 16  1  0  0  0  0
 19 26  1  6  0  0  0
 19 21  1  0  0  0  0
 20 18  1  1  0  0  0
 20 23  1  0  0  0  0
 20 25  1  0  0  0  0
 21 27  1  0  0  0  0
 22 28  1  6  0  0  0
 22 19  1  0  0  0  0
 22 24  1  0  0  0  0
 23 26  1  0  0  0  0
 24 27  1  0  0  0  0
 25 19  1  0  0  0  0
 30 29  1  1  0  0  0
 30 45  1  0  0  0  0
 30 31  1  0  0  0  0
 34 32  2  0  0  0  0
 34 35  1  0  0  0  0
 35 33  1  6  0  0  0
 36 31  1  1  0  0  0
 36 38  1  0  0  0  0
 36 34  1  0  0  0  0
 37 35  1  0  0  0  0
 38 37  2  0  0  0  0
 39 38  1  0  0  0  0
 40 39  2  0  0  0  0
 40 41  1  0  0  0  0
 42 43  1  0  0  0  0
 43 44  1  6  0  0  0
 43 41  1  0  0  0  0
 46 45  1  0  0  0  0
 47 46  1  0  0  0  0
 48 47  1  0  0  0  0
 49 48  1  0  0  0  0
 50 49  1  0  0  0  0
 51 50  1  0  0  0  0
 52 54  2  0  0  0  0
 52 51  1  0  0  0  0
 53 52  1  0  0  0  0
 55 52  2  0  0  0  0
M  END
>  <MODEL>
3

>  <REMARK>
 VINA RESULT:      -6.3      2.575      6.217
  Name = 
  23 active torsions:
  status: ('A' for Active; 'I' for Inactive)
    1  A    between atoms: C_1  and  C_23
    2  A    between atoms: C_1  and  C_47
    3  A    between atoms: C_2  and  C_29
    4  A    between atoms: S_5  and  C_31
    5  A    between atoms: C_7  and  C_20
    6  A    between atoms: C_8  and  N_45
    7  A    between atoms: N_9  and  C_26
    8  A    between atoms: N_9  and  C_47
    9  A    between atoms: N_12  and  C_49
   10  A    between atoms: C_15  and  C_16
   11  A    between atoms: C_15  and  C_23
   12  A    between atoms: C_16  and  C_40
   13  A    between atoms: C_16  and  C_55
   14  A    between atoms: C_19  and  C_43
   15  A    between atoms: C_20  and  O_38
   16  A    between atoms: C_20  and  C_46
   17  A    between atoms: C_21  and  O_38
   18  A    between atoms: C_21  and  N_45
   19  A    between atoms: C_25  and  C_40
   20  A    between atoms: C_26  and  C_31
   21  A    between atoms: C_29  and  C_55
   22  A    between atoms: C_30  and  N_42
   23  A    between atoms: C_41  and  C_43
                            x       y       z     vdW  Elec       q    Type
                         _______ _______ _______ _____ _____    ______ ____

>  <TORSDO>
F 23

$$$$
=
 OpenBabel11042411263D

 55 58  0  0  1  0  0  0  0  0999 V2000
  188.1620  177.8210  141.0080 C   0  0  0  0  0  2  0  0  0  0  0  0
  188.3150  178.2730  139.5460 C   0  0  2  0  0  3  0  0  0  0  0  0
  190.6710  177.7370  139.8360 O   0  0  0  0  0  1  0  0  0  0  0  0
  187.8540  176.5140  137.8680 C   0  0  2  0  0  3  0  0  0  0  0  0
  187.2260  177.6610  138.6620 C   0  0  0  0  0  2  0  0  0  0  0  0
  189.2430  176.3510  138.4750 C   0  0  2  0  0  3  0  0  0  0  0  0
  189.6060  177.7500  138.9350 C   0  0  1  0  0  3  0  0  0  0  0  0
  187.1650  179.1890  136.6420 O   0  0  0  0  0  1  0  0  0  0  0  0
  187.6220  178.1270  135.8620 C   0  0  0  0  0  0  0  0  0  0  0  0
  187.9630  176.8680  136.4500 N   0  0  0  0  0  2  0  0  0  0  0  0
  187.7660  178.2890  134.6220 O   0  0  0  0  0  0  0  0  0  0  0  0
  190.2610  175.6580  137.5350 C   0  0  1  0  0  3  0  0  0  0  0  0
  189.8250  174.4100  136.8210 C   0  0  0  0  0  0  0  0  0  0  0  0
  189.6890  174.4180  135.4400 O   0  0  0  0  0  0  0  0  0  0  0  0
  189.5940  173.3490  137.4610 O   0  0  0  0  0  1  0  0  0  0  0  0
  191.0100  176.5430  136.7290 O   0  0  0  0  0  0  0  0  0  0  0  0
  192.3260  176.0620  136.6410 C   0  0  0  0  0  2  0  0  0  0  0  0
  192.9430  176.0960  137.9560 N   0  0  0  0  0  2  0  0  0  0  0  0
  194.5870  173.3860  136.7180 C   0  0  2  0  0  0  0  0  0  0  0  0
  194.0770  175.1880  137.9200 C   0  0  2  0  0  3  0  0  0  0  0  0
  193.9280  172.9810  135.4190 C   0  0  0  0  0  2  0  0  0  0  0  0
  195.2230  172.1070  137.2420 C   0  0  2  0  0  3  0  0  0  0  0  0
  195.0180  175.6410  136.9800 O   0  0  0  0  0  0  0  0  0  0  0  0
  194.3090  170.9830  136.7920 C   0  0  0  0  0  2  0  0  0  0  0  0
  193.6290  173.8940  137.5970 O   0  0  0  0  0  0  0  0  0  0  0  0
  195.5940  174.4690  136.4970 C   0  0  0  0  0  2  0  0  0  0  0  0
  193.5120  171.5240  135.6090 C   0  0  0  0  0  2  0  0  0  0  0  0
  195.3370  172.1180  138.6330 O   0  0  0  0  0  1  0  0  0  0  0  0
  187.8930  178.9730  141.9730 C   0  0  0  0  0  2  0  0  0  0  0  0
  186.7140  178.6960  142.8920 C   0  0  1  0  0  3  0  0  0  0  0  0
  185.4450  179.2290  142.2390 C   0  0  0  0  0  2  0  0  0  0  0  0
  183.9200  179.1290  144.8550 O   0  0  0  0  0  0  0  0  0  0  0  0
  181.1430  178.5040  144.0960 N   0  0  0  0  0  1  0  0  0  0  0  0
  183.4830  178.9480  143.7250 C   0  0  0  0  0  0  0  0  0  0  0  0
  182.0920  179.2660  143.3040 C   0  0  1  0  0  3  0  0  0  0  0  0
  184.2620  178.3420  142.6200 C   0  0  1  0  0  3  0  0  0  0  0  0
  182.0640  178.7970  141.9280 N   0  0  0  0  0  0  0  0  0  0  0  0
  183.2260  178.3570  141.5470 C   0  0  0  0  0  0  0  0  0  0  0  0
  183.4350  177.7170  140.2770 N   0  0  0  0  0  0  0  0  0  0  0  0
  183.5310  178.3030  139.1190 C   0  0  0  0  0  3  0  0  0  0  0  0
  183.4540  179.7860  138.9320 C   0  0  0  0  0  2  0  0  0  0  0  0
  181.2170  180.5600  139.2190 O   0  0  0  0  0  1  0  0  0  0  0  0
  182.1510  180.1690  138.2570 C   0  0  2  0  0  3  0  0  0  0  0  0
  181.6230  178.9840  137.4920 C   0  0  0  0  0  1  0  0  0  0  0  0
  186.5850  177.2070  143.1350 C   0  0  0  0  0  2  0  0  0  0  0  0
  186.9540  176.8790  144.5690 C   0  0  0  0  0  2  0  0  0  0  0  0
  186.9690  178.1470  145.3930 C   0  0  0  0  0  2  0  0  0  0  0  0
  188.0580  178.0890  146.4550 C   0  0  0  0  0  2  0  0  0  0  0  0
  188.8510  176.8820  146.2740 N   0  0  0  0  0  2  0  0  0  0  0  0
  190.2310  177.3070  146.1330 C   0  0  0  0  0  2  0  0  0  0  0  0
  190.4660  177.8410  144.7340 C   0  0  0  0  0  2  0  0  0  0  0  0
  191.2450  176.6030  143.7170 S   0  0  0  0  0  0  0  0  0  0  0  0
  189.9980  175.6510  142.8820 C   0  0  0  0  0  1  0  0  0  0  0  0
  192.0590  175.6930  144.5930 O   0  0  0  0  0  0  0  0  0  0  0  0
  192.1460  177.2460  142.7010 O   0  0  0  0  0  0  0  0  0  0  0  0
  1 29  1  0  0  0  0
  2  1  1  1  0  0  0
  4 10  1  6  0  0  0
  4  6  1  0  0  0  0
  4  5  1  0  0  0  0
  5  2  1  0  0  0  0
  6 12  1  6  0  0  0
  6  7  1  0  0  0  0
  7  2  1  0  0  0  0
  7  3  1  1  0  0  0
  9 10  1  0  0  0  0
  9  8  1  0  0  0  0
 11  9  2  0  0  0  0
 12 16  1  6  0  0  0
 13 15  1  0  0  0  0
 13 12  1  0  0  0  0
 14 13  2  0  0  0  0
 17 16  1  0  0  0  0
 17 18  1  0  0  0  0
 19 21  1  6  0  0  0
 19 22  1  0  0  0  0
 19 25  1  0  0  0  0
 20 18  1  6  0  0  0
 21 27  1  0  0  0  0
 22 28  1  1  0  0  0
 23 20  1  0  0  0  0
 24 22  1  0  0  0  0
 25 20  1  0  0  0  0
 26 19  1  0  0  0  0
 26 23  1  0  0  0  0
 27 24  1  0  0  0  0
 30 29  1  6  0  0  0
 30 45  1  0  0  0  0
 31 30  1  0  0  0  0
 34 32  2  0  0  0  0
 35 34  1  0  0  0  0
 35 33  1  1  0  0  0
 36 31  1  6  0  0  0
 36 34  1  0  0  0  0
 37 35  1  0  0  0  0
 38 37  2  0  0  0  0
 38 36  1  0  0  0  0
 39 38  1  0  0  0  0
 40 39  2  0  0  0  0
 41 40  1  0  0  0  0
 43 44  1  1  0  0  0
 43 41  1  0  0  0  0
 43 42  1  0  0  0  0
 45 46  1  0  0  0  0
 46 47  1  0  0  0  0
 47 48  1  0  0  0  0
 49 48  1  0  0  0  0
 50 49  1  0  0  0  0
 51 50  1  0  0  0  0
 52 54  2  0  0  0  0
 52 51  1  0  0  0  0
 53 52  1  0  0  0  0
 55 52  2  0  0  0  0
M  END
>  <MODEL>
4

>  <REMARK>
 VINA RESULT:      -6.3      3.776      8.874
  Name = 
  23 active torsions:
  status: ('A' for Active; 'I' for Inactive)
    1  A    between atoms: C_1  and  C_23
    2  A    between atoms: C_1  and  C_47
    3  A    between atoms: C_2  and  C_29
    4  A    between atoms: S_5  and  C_31
    5  A    between atoms: C_7  and  C_20
    6  A    between atoms: C_8  and  N_45
    7  A    between atoms: N_9  and  C_26
    8  A    between atoms: N_9  and  C_47
    9  A    between atoms: N_12  and  C_49
   10  A    between atoms: C_15  and  C_16
   11  A    between atoms: C_15  and  C_23
   12  A    between atoms: C_16  and  C_40
   13  A    between atoms: C_16  and  C_55
   14  A    between atoms: C_19  and  C_43
   15  A    between atoms: C_20  and  O_38
   16  A    between atoms: C_20  and  C_46
   17  A    between atoms: C_21  and  O_38
   18  A    between atoms: C_21  and  N_45
   19  A    between atoms: C_25  and  C_40
   20  A    between atoms: C_26  and  C_31
   21  A    between atoms: C_29  and  C_55
   22  A    between atoms: C_30  and  N_42
   23  A    between atoms: C_41  and  C_43
                            x       y       z     vdW  Elec       q    Type
                         _______ _______ _______ _____ _____    ______ ____

>  <TORSDO>
F 23

$$$$
=
 OpenBabel11042411263D

 55 58  0  0  1  0  0  0  0  0999 V2000
  185.8900  177.7220  142.8250 C   0  0  0  0  0  2  0  0  0  0  0  0
  184.9340  178.9270  142.8700 C   0  0  2  0  0  3  0  0  0  0  0  0
  185.3510  179.0920  140.4770 O   0  0  0  0  0  1  0  0  0  0  0  0
  182.5360  178.3490  142.6760 C   0  0  2  0  0  3  0  0  0  0  0  0
  183.6720  178.6000  143.6700 C   0  0  0  0  0  2  0  0  0  0  0  0
  183.2240  178.3230  141.3160 C   0  0  2  0  0  3  0  0  0  0  0  0
  184.4020  179.2650  141.4860 C   0  0  1  0  0  3  0  0  0  0  0  0
  179.6260  178.0980  143.4530 O   0  0  0  0  0  1  0  0  0  0  0  0
  180.1760  179.3230  143.0740 C   0  0  0  0  0  0  0  0  0  0  0  0
  181.5580  179.4390  142.7250 N   0  0  0  0  0  2  0  0  0  0  0  0
  179.4490  180.3510  143.0710 O   0  0  0  0  0  0  0  0  0  0  0  0
  182.2760  178.6260  140.1280 C   0  0  1  0  0  3  0  0  0  0  0  0
  182.8520  179.3170  138.9250 C   0  0  0  0  0  0  0  0  0  0  0  0
  183.5560  178.5830  137.9810 O   0  0  0  0  0  0  0  0  0  0  0  0
  182.6900  180.5550  138.7550 O   0  0  0  0  0  1  0  0  0  0  0  0
  181.3810  177.5810  139.8120 O   0  0  0  0  0  0  0  0  0  0  0  0
  182.1180  176.3980  139.6410 C   0  0  0  0  0  2  0  0  0  0  0  0
  181.2430  175.3510  139.1410 N   0  0  0  0  0  2  0  0  0  0  0  0
  183.5350  174.1570  136.9250 C   0  0  2  0  0  0  0  0  0  0  0  0
  181.6820  175.0360  137.7920 C   0  0  2  0  0  3  0  0  0  0  0  0
  184.5830  173.3850  137.6930 C   0  0  0  0  0  2  0  0  0  0  0  0
  184.2480  174.6270  135.6660 C   0  0  2  0  0  3  0  0  0  0  0  0
  181.3350  173.7110  137.4770 O   0  0  0  0  0  0  0  0  0  0  0  0
  185.6880  174.8650  136.0780 C   0  0  0  0  0  2  0  0  0  0  0  0
  183.0740  175.2250  137.6970 O   0  0  0  0  0  0  0  0  0  0  0  0
  182.3500  173.2990  136.6170 C   0  0  0  0  0  2  0  0  0  0  0  0
  185.9140  174.0460  137.3460 C   0  0  0  0  0  2  0  0  0  0  0  0
  183.6850  175.7980  135.1580 O   0  0  0  0  0  1  0  0  0  0  0  0
  186.8210  177.6430  144.0320 C   0  0  0  0  0  2  0  0  0  0  0  0
  188.2870  177.7370  143.6400 C   0  0  1  0  0  3  0  0  0  0  0  0
  189.1060  178.0860  144.8770 C   0  0  0  0  0  2  0  0  0  0  0  0
  191.9130  177.0000  144.5310 O   0  0  0  0  0  0  0  0  0  0  0  0
  192.5460  175.6900  147.0930 N   0  0  0  0  0  1  0  0  0  0  0  0
  191.1920  176.9140  145.5170 C   0  0  0  0  0  0  0  0  0  0  0  0
  191.6930  176.8520  146.9170 C   0  0  1  0  0  3  0  0  0  0  0  0
  189.7150  176.8140  145.4610 C   0  0  1  0  0  3  0  0  0  0  0  0
  190.4690  176.6770  147.6820 N   0  0  0  0  0  0  0  0  0  0  0  0
  189.4170  176.7100  146.9190 C   0  0  0  0  0  0  0  0  0  0  0  0
  188.0950  176.4300  147.4090 N   0  0  0  0  0  0  0  0  0  0  0  0
  187.2210  177.2990  147.8260 C   0  0  0  0  0  3  0  0  0  0  0  0
  187.4640  178.7750  147.8410 C   0  0  0  0  0  2  0  0  0  0  0  0
  185.5950  179.4480  146.5220 O   0  0  0  0  0  1  0  0  0  0  0  0
  186.1500  179.5310  147.8010 C   0  0  2  0  0  3  0  0  0  0  0  0
  186.3980  180.9740  148.1520 C   0  0  0  0  0  1  0  0  0  0  0  0
  188.7560  176.4180  143.0640 C   0  0  0  0  0  2  0  0  0  0  0  0
  189.5300  176.6550  141.7820 C   0  0  0  0  0  2  0  0  0  0  0  0
  188.9480  177.8420  141.0480 C   0  0  0  0  0  2  0  0  0  0  0  0
  188.6230  177.4800  139.6060 C   0  0  0  0  0  2  0  0  0  0  0  0
  189.2540  178.4380  138.7090 N   0  0  0  0  0  2  0  0  0  0  0  0
  189.8110  177.6740  137.6090 C   0  0  0  0  0  2  0  0  0  0  0  0
  189.1910  176.2910  137.5730 C   0  0  0  0  0  2  0  0  0  0  0  0
  190.3950  175.0800  137.0650 S   0  0  0  0  0  0  0  0  0  0  0  0
  189.5630  173.5910  136.5650 C   0  0  0  0  0  1  0  0  0  0  0  0
  191.3010  174.7770  138.2240 O   0  0  0  0  0  0  0  0  0  0  0  0
  191.2160  175.6020  135.9200 O   0  0  0  0  0  0  0  0  0  0  0  0
  1 29  1  0  0  0  0
  2  1  1  6  0  0  0
  2  5  1  0  0  0  0
  4 10  1  6  0  0  0
  4  5  1  0  0  0  0
  6 12  1  6  0  0  0
  6  7  1  0  0  0  0
  6  4  1  0  0  0  0
  7  3  1  6  0  0  0
  7  2  1  0  0  0  0
  9  8  1  0  0  0  0
 10  9  1  0  0  0  0
 11  9  2  0  0  0  0
 12 13  1  6  0  0  0
 14 13  2  0  0  0  0
 15 13  1  0  0  0  0
 16 12  1  0  0  0  0
 17 16  1  0  0  0  0
 18 17  1  0  0  0  0
 19 26  1  6  0  0  0
 19 21  1  0  0  0  0
 19 25  1  0  0  0  0
 20 18  1  1  0  0  0
 22 28  1  1  0  0  0
 22 24  1  0  0  0  0
 22 19  1  0  0  0  0
 23 20  1  0  0  0  0
 24 27  1  0  0  0  0
 25 20  1  0  0  0  0
 26 23  1  0  0  0  0
 27 21  1  0  0  0  0
 30 45  1  1  0  0  0
 30 29  1  0  0  0  0
 30 31  1  0  0  0  0
 32 34  2  0  0  0  0
 34 35  1  0  0  0  0
 35 33  1  6  0  0  0
 35 37  1  0  0  0  0
 36 31  1  1  0  0  0
 36 34  1  0  0  0  0
 36 38  1  0  0  0  0
 38 39  1  0  0  0  0
 38 37  2  0  0  0  0
 39 40  2  0  0  0  0
 40 41  1  0  0  0  0
 42 43  1  0  0  0  0
 43 41  1  0  0  0  0
 43 44  1  6  0  0  0
 46 45  1  0  0  0  0
 47 46  1  0  0  0  0
 48 47  1  0  0  0  0
 49 48  1  0  0  0  0
 50 49  1  0  0  0  0
 51 50  1  0  0  0  0
 52 51  1  0  0  0  0
 52 54  2  0  0  0  0
 53 52  1  0  0  0  0
 55 52  2  0  0  0  0
M  END
>  <MODEL>
5

>  <REMARK>
 VINA RESULT:      -6.1      1.582      2.035
  Name = 
  23 active torsions:
  status: ('A' for Active; 'I' for Inactive)
    1  A    between atoms: C_1  and  C_23
    2  A    between atoms: C_1  and  C_47
    3  A    between atoms: C_2  and  C_29
    4  A    between atoms: S_5  and  C_31
    5  A    between atoms: C_7  and  C_20
    6  A    between atoms: C_8  and  N_45
    7  A    between atoms: N_9  and  C_26
    8  A    between atoms: N_9  and  C_47
    9  A    between atoms: N_12  and  C_49
   10  A    between atoms: C_15  and  C_16
   11  A    between atoms: C_15  and  C_23
   12  A    between atoms: C_16  and  C_40
   13  A    between atoms: C_16  and  C_55
   14  A    between atoms: C_19  and  C_43
   15  A    between atoms: C_20  and  O_38
   16  A    between atoms: C_20  and  C_46
   17  A    between atoms: C_21  and  O_38
   18  A    between atoms: C_21  and  N_45
   19  A    between atoms: C_25  and  C_40
   20  A    between atoms: C_26  and  C_31
   21  A    between atoms: C_29  and  C_55
   22  A    between atoms: C_30  and  N_42
   23  A    between atoms: C_41  and  C_43
                            x       y       z     vdW  Elec       q    Type
                         _______ _______ _______ _____ _____    ______ ____

>  <TORSDO>
F 23

$$$$
=
 OpenBabel11042411263D

 55 58  0  0  1  0  0  0  0  0999 V2000
  186.2920  178.2130  141.6670 C   0  0  0  0  0  2  0  0  0  0  0  0
  185.1370  179.2150  141.4970 C   0  0  2  0  0  3  0  0  0  0  0  0
  185.3240  178.7230  139.1210 O   0  0  0  0  0  1  0  0  0  0  0  0
  182.8790  178.2450  141.7860 C   0  0  2  0  0  3  0  0  0  0  0  0
  184.0240  178.9510  142.5140 C   0  0  0  0  0  2  0  0  0  0  0  0
  183.4500  177.9220  140.4090 C   0  0  2  0  0  3  0  0  0  0  0  0
  184.4430  179.0400  140.1560 C   0  0  1  0  0  3  0  0  0  0  0  0
  180.7690  178.7460  143.8900 O   0  0  0  0  0  1  0  0  0  0  0  0
  180.7120  179.3640  142.6410 C   0  0  0  0  0  0  0  0  0  0  0  0
  181.7240  179.1370  141.6550 N   0  0  0  0  0  2  0  0  0  0  0  0
  179.7710  180.1610  142.3880 O   0  0  0  0  0  0  0  0  0  0  0  0
  182.3710  177.7090  139.3180 C   0  0  1  0  0  3  0  0  0  0  0  0
  181.2010  176.8250  139.6450 C   0  0  0  0  0  0  0  0  0  0  0  0
  181.4160  175.4960  139.9840 O   0  0  0  0  0  1  0  0  0  0  0  0
  180.0260  177.2800  139.6290 O   0  0  0  0  0  0  0  0  0  0  0  0
  182.0200  178.8770  138.6050 O   0  0  0  0  0  0  0  0  0  0  0  0
  182.2850  178.6660  137.2430 C   0  0  0  0  0  2  0  0  0  0  0  0
  182.5590  177.2580  137.0150 N   0  0  0  0  0  2  0  0  0  0  0  0
  185.3450  175.5960  135.9870 C   0  0  2  0  0  0  0  0  0  0  0  0
  183.8080  177.1800  136.2770 C   0  0  2  0  0  3  0  0  0  0  0  0
  185.1540  174.1230  136.2690 C   0  0  0  0  0  2  0  0  0  0  0  0
  186.8530  175.7960  135.9930 C   0  0  2  0  0  3  0  0  0  0  0  0
  183.5670  176.6800  134.9860 O   0  0  0  0  0  0  0  0  0  0  0  0
  187.3910  174.8050  137.0080 C   0  0  0  0  0  2  0  0  0  0  0  0
  184.7110  176.3540  136.9730 O   0  0  0  0  0  0  0  0  0  0  0  0
  184.7300  175.9790  134.6790 C   0  0  0  0  0  2  0  0  0  0  0  0
  186.3290  173.7210  137.1560 C   0  0  0  0  0  2  0  0  0  0  0  0
  187.2010  177.0990  136.3500 O   0  0  0  0  0  1  0  0  0  0  0  0
  187.6720  178.8640  141.6050 C   0  0  0  0  0  2  0  0  0  0  0  0
  188.7780  177.8540  141.3520 C   0  0  1  0  0  3  0  0  0  0  0  0
  188.6460  176.7170  142.3570 C   0  0  0  0  0  2  0  0  0  0  0  0
  191.5220  177.5740  141.9450 O   0  0  0  0  0  0  0  0  0  0  0  0
  192.2800  178.9360  144.4460 N   0  0  0  0  0  1  0  0  0  0  0  0
  190.8230  177.7500  142.9340 C   0  0  0  0  0  0  0  0  0  0  0  0
  190.9520  178.9110  143.8560 C   0  0  1  0  0  3  0  0  0  0  0  0
  189.7700  176.8100  143.3860 C   0  0  1  0  0  3  0  0  0  0  0  0
  189.9690  178.6090  144.8840 N   0  0  0  0  0  0  0  0  0  0  0  0
  189.3060  177.5250  144.6100 C   0  0  0  0  0  0  0  0  0  0  0  0
  188.3690  176.9360  145.5280 N   0  0  0  0  0  0  0  0  0  0  0  0
  187.1610  177.3510  145.7770 C   0  0  0  0  0  3  0  0  0  0  0  0
  186.5380  178.5350  145.1080 C   0  0  0  0  0  2  0  0  0  0  0  0
  186.0020  179.1340  147.3530 O   0  0  0  0  0  1  0  0  0  0  0  0
  185.5440  179.2080  146.0360 C   0  0  2  0  0  3  0  0  0  0  0  0
  184.2130  178.5120  145.9240 C   0  0  0  0  0  1  0  0  0  0  0  0
  188.6730  177.3110  139.9420 C   0  0  0  0  0  2  0  0  0  0  0  0
  189.7340  177.9410  139.0600 C   0  0  0  0  0  2  0  0  0  0  0  0
  190.2560  176.9140  138.0800 C   0  0  0  0  0  2  0  0  0  0  0  0
  191.5100  176.2400  138.6190 C   0  0  0  0  0  2  0  0  0  0  0  0
  192.6760  176.7360  137.9020 N   0  0  0  0  0  2  0  0  0  0  0  0
  193.4040  175.5710  137.4340 C   0  0  0  0  0  2  0  0  0  0  0  0
  192.5510  174.3280  137.6010 C   0  0  0  0  0  2  0  0  0  0  0  0
  192.0670  173.6870  136.0110 S   0  0  0  0  0  0  0  0  0  0  0  0
  192.1310  174.9880  134.8020 C   0  0  0  0  0  1  0  0  0  0  0  0
  190.6610  173.1650  136.1030 O   0  0  0  0  0  0  0  0  0  0  0  0
  192.9810  172.5710  135.5920 O   0  0  0  0  0  0  0  0  0  0  0  0
  2  1  1  1  0  0  0
  2  5  1  0  0  0  0
  4 10  1  6  0  0  0
  4  5  1  0  0  0  0
  6 12  1  6  0  0  0
  6  4  1  0  0  0  0
  7  3  1  6  0  0  0
  7  6  1  0  0  0  0
  7  2  1  0  0  0  0
  9  8  1  0  0  0  0
 10  9  1  0  0  0  0
 11  9  2  0  0  0  0
 12 16  1  1  0  0  0
 12 13  1  0  0  0  0
 13 14  1  0  0  0  0
 15 13  2  0  0  0  0
 17 16  1  0  0  0  0
 18 17  1  0  0  0  0
 19 26  1  6  0  0  0
 19 22  1  0  0  0  0
 19 21  1  0  0  0  0
 19 25  1  0  0  0  0
 20 25  1  0  0  0  0
 20 18  1  1  0  0  0
 21 27  1  0  0  0  0
 22 28  1  1  0  0  0
 22 24  1  0  0  0  0
 23 20  1  0  0  0  0
 24 27  1  0  0  0  0
 26 23  1  0  0  0  0
 29  1  1  0  0  0  0
 30 45  1  6  0  0  0
 30 29  1  0  0  0  0
 30 31  1  0  0  0  0
 32 34  2  0  0  0  0
 34 36  1  0  0  0  0
 34 35  1  0  0  0  0
 35 33  1  1  0  0  0
 35 37  1  0  0  0  0
 36 31  1  6  0  0  0
 36 38  1  0  0  0  0
 38 37  2  0  0  0  0
 38 39  1  0  0  0  0
 39 40  2  0  0  0  0
 41 40  1  0  0  0  0
 41 43  1  0  0  0  0
 43 44  1  1  0  0  0
 43 42  1  0  0  0  0
 46 45  1  0  0  0  0
 47 48  1  0  0  0  0
 47 46  1  0  0  0  0
 49 48  1  0  0  0  0
 50 51  1  0  0  0  0
 50 49  1  0  0  0  0
 52 54  2  0  0  0  0
 52 51  1  0  0  0  0
 53 52  1  0  0  0  0
 55 52  2  0  0  0  0
M  END
>  <MODEL>
6

>  <REMARK>
 VINA RESULT:      -6.1      2.522      3.368
  Name = 
  23 active torsions:
  status: ('A' for Active; 'I' for Inactive)
    1  A    between atoms: C_1  and  C_23
    2  A    between atoms: C_1  and  C_47
    3  A    between atoms: C_2  and  C_29
    4  A    between atoms: S_5  and  C_31
    5  A    between atoms: C_7  and  C_20
    6  A    between atoms: C_8  and  N_45
    7  A    between atoms: N_9  and  C_26
    8  A    between atoms: N_9  and  C_47
    9  A    between atoms: N_12  and  C_49
   10  A    between atoms: C_15  and  C_16
   11  A    between atoms: C_15  and  C_23
   12  A    between atoms: C_16  and  C_40
   13  A    between atoms: C_16  and  C_55
   14  A    between atoms: C_19  and  C_43
   15  A    between atoms: C_20  and  O_38
   16  A    between atoms: C_20  and  C_46
   17  A    between atoms: C_21  and  O_38
   18  A    between atoms: C_21  and  N_45
   19  A    between atoms: C_25  and  C_40
   20  A    between atoms: C_26  and  C_31
   21  A    between atoms: C_29  and  C_55
   22  A    between atoms: C_30  and  N_42
   23  A    between atoms: C_41  and  C_43
                            x       y       z     vdW  Elec       q    Type
                         _______ _______ _______ _____ _____    ______ ____

>  <TORSDO>
F 23

$$$$
=
 OpenBabel11042411263D

 55 58  0  0  1  0  0  0  0  0999 V2000
  190.2090  176.8420  142.9240 C   0  0  0  0  0  2  0  0  0  0  0  0
  190.3370  177.8520  141.7700 C   0  0  2  0  0  3  0  0  0  0  0  0
  192.4330  176.7180  141.2760 O   0  0  0  0  0  1  0  0  0  0  0  0
  189.1850  177.1860  139.6840 C   0  0  2  0  0  3  0  0  0  0  0  0
  189.0260  177.9670  140.9900 C   0  0  0  0  0  2  0  0  0  0  0  0
  190.5130  176.4550  139.8410 C   0  0  2  0  0  3  0  0  0  0  0  0
  191.3340  177.3760  140.7240 C   0  0  1  0  0  3  0  0  0  0  0  0
  186.8210  178.2900  138.1570 O   0  0  0  0  0  1  0  0  0  0  0  0
  188.1310  178.6120  137.8030 C   0  0  0  0  0  0  0  0  0  0  0  0
  189.2460  178.1010  138.5410 N   0  0  0  0  0  2  0  0  0  0  0  0
  188.3350  179.3930  136.8370 O   0  0  0  0  0  0  0  0  0  0  0  0
  191.1640  176.0430  138.4970 C   0  0  1  0  0  3  0  0  0  0  0  0
  190.3770  175.1560  137.5740 C   0  0  0  0  0  0  0  0  0  0  0  0
  189.4410  175.7150  136.7150 O   0  0  0  0  0  0  0  0  0  0  0  0
  190.5660  173.9100  137.5620 O   0  0  0  0  0  1  0  0  0  0  0  0
  191.8530  177.0840  137.8360 O   0  0  0  0  0  0  0  0  0  0  0  0
  193.0350  176.5610  137.2890 C   0  0  0  0  0  2  0  0  0  0  0  0
  193.8510  175.9960  138.3500 N   0  0  0  0  0  2  0  0  0  0  0  0
  194.6280  173.3290  136.3830 C   0  0  2  0  0  0  0  0  0  0  0  0
  194.8060  175.0980  137.7220 C   0  0  2  0  0  3  0  0  0  0  0  0
  193.4000  172.9490  135.5880 C   0  0  0  0  0  2  0  0  0  0  0  0
  195.4360  172.0440  136.4820 C   0  0  2  0  0  3  0  0  0  0  0  0
  195.1430  175.5810  136.4460 O   0  0  0  0  0  0  0  0  0  0  0  0
  194.4150  170.9230  136.5290 C   0  0  0  0  0  2  0  0  0  0  0  0
  194.2500  173.8080  137.6390 O   0  0  0  0  0  0  0  0  0  0  0  0
  195.3890  174.4250  135.7090 C   0  0  0  0  0  2  0  0  0  0  0  0
  193.1310  171.4850  135.9260 C   0  0  0  0  0  2  0  0  0  0  0  0
  196.2380  172.0220  137.6230 O   0  0  0  0  0  1  0  0  0  0  0  0
  188.7860  176.3250  143.1200 C   0  0  0  0  0  2  0  0  0  0  0  0
  188.1920  176.7550  144.4510 C   0  0  1  0  0  3  0  0  0  0  0  0
  188.7180  178.1420  144.7990 C   0  0  0  0  0  2  0  0  0  0  0  0
  187.1220  179.2390  147.1290 O   0  0  0  0  0  0  0  0  0  0  0  0
  187.8100  177.5050  149.4100 N   0  0  0  0  0  1  0  0  0  0  0  0
  187.8900  178.2840  147.1300 C   0  0  0  0  0  0  0  0  0  0  0  0
  187.7500  177.0980  148.0170 C   0  0  1  0  0  3  0  0  0  0  0  0
  189.0970  178.1890  146.2770 C   0  0  1  0  0  3  0  0  0  0  0  0
  188.9310  176.3170  147.6870 N   0  0  0  0  0  0  0  0  0  0  0  0
  189.6180  176.8660  146.7300 C   0  0  0  0  0  0  0  0  0  0  0  0
  190.8970  176.3640  146.3060 N   0  0  0  0  0  0  0  0  0  0  0  0
  191.9950  176.3500  147.0050 C   0  0  0  0  0  3  0  0  0  0  0  0
  192.0890  176.8540  148.4110 C   0  0  0  0  0  2  0  0  0  0  0  0
  193.0110  174.9670  149.5400 O   0  0  0  0  0  1  0  0  0  0  0  0
  193.2990  176.2620  149.1070 C   0  0  2  0  0  3  0  0  0  0  0  0
  193.6580  177.1230  150.2910 C   0  0  0  0  0  1  0  0  0  0  0  0
  186.6810  176.7830  144.3600 C   0  0  0  0  0  2  0  0  0  0  0  0
  186.2320  177.9410  143.4880 C   0  0  0  0  0  2  0  0  0  0  0  0
  184.7950  178.2880  143.8040 C   0  0  0  0  0  2  0  0  0  0  0  0
  184.0100  178.5560  142.5280 C   0  0  0  0  0  2  0  0  0  0  0  0
  182.6040  178.7500  142.8520 N   0  0  0  0  0  2  0  0  0  0  0  0
  181.9300  179.0710  141.6080 C   0  0  0  0  0  2  0  0  0  0  0  0
  182.5320  178.2660  140.4720 C   0  0  0  0  0  2  0  0  0  0  0  0
  182.7120  179.2800  139.0170 S   0  0  0  0  0  0  0  0  0  0  0  0
  182.8720  178.2390  137.5860 C   0  0  0  0  0  1  0  0  0  0  0  0
  183.9480  180.1220  139.1600 O   0  0  0  0  0  0  0  0  0  0  0  0
  181.5190  180.1780  138.8510 O   0  0  0  0  0  0  0  0  0  0  0  0
  1 29  1  0  0  0  0
  2  1  1  1  0  0  0
  4 10  1  6  0  0  0
  4  6  1  0  0  0  0
  4  5  1  0  0  0  0
  5  2  1  0  0  0  0
  6 12  1  6  0  0  0
  6  7  1  0  0  0  0
  7  3  1  1  0  0  0
  7  2  1  0  0  0  0
  9  8  1  0  0  0  0
  9 10  1  0  0  0  0
 11  9  2  0  0  0  0
 12 13  1  6  0  0  0
 14 13  2  0  0  0  0
 15 13  1  0  0  0  0
 16 12  1  0  0  0  0
 17 16  1  0  0  0  0
 17 18  1  0  0  0  0
 19 21  1  6  0  0  0
 19 22  1  0  0  0  0
 19 25  1  0  0  0  0
 20 18  1  6  0  0  0
 21 27  1  0  0  0  0
 22 24  1  0  0  0  0
 22 28  1  1  0  0  0
 23 20  1  0  0  0  0
 25 20  1  0  0  0  0
 26 19  1  0  0  0  0
 26 23  1  0  0  0  0
 27 24  1  0  0  0  0
 30 29  1  6  0  0  0
 30 31  1  0  0  0  0
 32 34  2  0  0  0  0
 34 35  1  0  0  0  0
 35 33  1  1  0  0  0
 36 31  1  6  0  0  0
 36 38  1  0  0  0  0
 36 34  1  0  0  0  0
 37 35  1  0  0  0  0
 38 37  2  0  0  0  0
 39 38  1  0  0  0  0
 39 40  2  0  0  0  0
 40 41  1  0  0  0  0
 41 43  1  0  0  0  0
 43 42  1  0  0  0  0
 43 44  1  1  0  0  0
 45 30  1  0  0  0  0
 46 47  1  0  0  0  0
 46 45  1  0  0  0  0
 48 49  1  0  0  0  0
 48 47  1  0  0  0  0
 50 49  1  0  0  0  0
 51 50  1  0  0  0  0
 52 54  2  0  0  0  0
 52 51  1  0  0  0  0
 53 52  1  0  0  0  0
 55 52  2  0  0  0  0
M  END
>  <MODEL>
7

>  <REMARK>
 VINA RESULT:      -5.4      3.780      7.828
  Name = 
  23 active torsions:
  status: ('A' for Active; 'I' for Inactive)
    1  A    between atoms: C_1  and  C_23
    2  A    between atoms: C_1  and  C_47
    3  A    between atoms: C_2  and  C_29
    4  A    between atoms: S_5  and  C_31
    5  A    between atoms: C_7  and  C_20
    6  A    between atoms: C_8  and  N_45
    7  A    between atoms: N_9  and  C_26
    8  A    between atoms: N_9  and  C_47
    9  A    between atoms: N_12  and  C_49
   10  A    between atoms: C_15  and  C_16
   11  A    between atoms: C_15  and  C_23
   12  A    between atoms: C_16  and  C_40
   13  A    between atoms: C_16  and  C_55
   14  A    between atoms: C_19  and  C_43
   15  A    between atoms: C_20  and  O_38
   16  A    between atoms: C_20  and  C_46
   17  A    between atoms: C_21  and  O_38
   18  A    between atoms: C_21  and  N_45
   19  A    between atoms: C_25  and  C_40
   20  A    between atoms: C_26  and  C_31
   21  A    between atoms: C_29  and  C_55
   22  A    between atoms: C_30  and  N_42
   23  A    between atoms: C_41  and  C_43
                            x       y       z     vdW  Elec       q    Type
                         _______ _______ _______ _____ _____    ______ ____

>  <TORSDO>
F 23

$$$$
=
 OpenBabel11042411263D

 55 58  0  0  1  0  0  0  0  0999 V2000
  189.1460  177.1630  139.9760 C   0  0  0  0  0  2  0  0  0  0  0  0
  189.9430  177.5640  141.2290 C   0  0  2  0  0  3  0  0  0  0  0  0
  188.0660  179.0370  141.7070 O   0  0  0  0  0  1  0  0  0  0  0  0
  189.6130  176.0810  143.1820 C   0  0  2  0  0  3  0  0  0  0  0  0
  190.4900  176.3320  141.9530 C   0  0  0  0  0  2  0  0  0  0  0  0
  188.4460  177.0480  143.0160 C   0  0  2  0  0  3  0  0  0  0  0  0
  189.0490  178.2220  142.2690 C   0  0  1  0  0  3  0  0  0  0  0  0
  192.1420  174.7220  144.1270 O   0  0  0  0  0  0  0  0  0  0  0  0
  191.5360  175.7340  144.8730 C   0  0  0  0  0  0  0  0  0  0  0  0
  190.3490  176.3860  144.4110 N   0  0  0  0  0  2  0  0  0  0  0  0
  192.0620  176.1020  145.9550 O   0  0  0  0  0  1  0  0  0  0  0  0
  187.7200  177.3860  144.3430 C   0  0  1  0  0  3  0  0  0  0  0  0
  188.5600  177.6510  145.5590 C   0  0  0  0  0  0  0  0  0  0  0  0
  189.5390  178.6340  145.5200 O   0  0  0  0  0  0  0  0  0  0  0  0
  188.3770  176.9980  146.6220 O   0  0  0  0  0  1  0  0  0  0  0  0
  186.6260  178.2680  144.2030 O   0  0  0  0  0  0  0  0  0  0  0  0
  185.7120  177.7090  143.2960 C   0  0  0  0  0  2  0  0  0  0  0  0
  184.9210  178.7660  142.6910 N   0  0  0  0  0  2  0  0  0  0  0  0
  182.7020  178.2980  140.1530 C   0  0  2  0  0  0  0  0  0  0  0  0
  184.5800  178.3290  141.3470 C   0  0  2  0  0  3  0  0  0  0  0  0
  181.4530  179.0930  140.4600 C   0  0  0  0  0  2  0  0  0  0  0  0
  182.2280  177.1660  139.2540 C   0  0  2  0  0  3  0  0  0  0  0  0
  184.7090  179.4040  140.4510 O   0  0  0  0  0  0  0  0  0  0  0  0
  180.8200  176.8410  139.7170 C   0  0  0  0  0  2  0  0  0  0  0  0
  183.2660  177.8260  141.3390 O   0  0  0  0  0  0  0  0  0  0  0  0
  183.7340  179.1520  139.4890 C   0  0  0  0  0  2  0  0  0  0  0  0
  180.3110  178.0790  140.4510 C   0  0  0  0  0  2  0  0  0  0  0  0
  183.0480  176.0430  139.3600 O   0  0  0  0  0  1  0  0  0  0  0  0
  189.0900  178.2610  138.9170 C   0  0  0  0  0  2  0  0  0  0  0  0
  189.8430  177.8840  137.6520 C   0  0  1  0  0  3  0  0  0  0  0  0
  190.4630  176.5060  137.8400 C   0  0  0  0  0  2  0  0  0  0  0  0
  193.2750  177.0730  138.8150 O   0  0  0  0  0  0  0  0  0  0  0  0
  194.9900  175.1880  137.3360 N   0  0  0  0  0  1  0  0  0  0  0  0
  192.9230  176.2440  137.9850 C   0  0  0  0  0  0  0  0  0  0  0  0
  193.6170  174.9500  137.7460 C   0  0  1  0  0  3  0  0  0  0  0  0
  191.7760  176.4250  137.0650 C   0  0  1  0  0  3  0  0  0  0  0  0
  192.8680  174.3900  136.6330 N   0  0  0  0  0  0  0  0  0  0  0  0
  191.8600  175.1440  136.3060 C   0  0  0  0  0  0  0  0  0  0  0  0
  191.0390  174.8840  135.1540 N   0  0  0  0  0  0  0  0  0  0  0  0
  190.0280  174.0680  135.0910 C   0  0  0  0  0  3  0  0  0  0  0  0
  189.5390  173.2620  136.2530 C   0  0  0  0  0  2  0  0  0  0  0  0
  187.6120  172.2390  137.2130 O   0  0  0  0  0  1  0  0  0  0  0  0
  188.0490  173.0080  136.1330 C   0  0  2  0  0  3  0  0  0  0  0  0
  187.7740  172.2750  134.8460 C   0  0  0  0  0  1  0  0  0  0  0  0
  188.8970  177.8680  136.4700 C   0  0  0  0  0  2  0  0  0  0  0  0
  187.9240  176.7110  136.5950 C   0  0  0  0  0  2  0  0  0  0  0  0
  186.5060  177.2240  136.4840 C   0  0  0  0  0  2  0  0  0  0  0  0
  185.9020  176.8550  135.1370 C   0  0  0  0  0  2  0  0  0  0  0  0
  185.3570  175.5070  135.2000 N   0  0  0  0  0  2  0  0  0  0  0  0
  184.4150  175.4900  136.3040 C   0  0  0  0  0  2  0  0  0  0  0  0
  183.0490  175.0530  135.8110 C   0  0  0  0  0  2  0  0  0  0  0  0
  182.6130  173.4710  136.5040 S   0  0  0  0  0  0  0  0  0  0  0  0
  184.0550  172.7180  137.2190 C   0  0  0  0  0  1  0  0  0  0  0  0
  182.0830  172.5880  135.4100 O   0  0  0  0  0  0  0  0  0  0  0  0
  181.5570  173.6320  137.5620 O   0  0  0  0  0  0  0  0  0  0  0  0
  2  1  1  6  0  0  0
  2  5  1  0  0  0  0
  2  7  1  0  0  0  0
  4 10  1  1  0  0  0
  5  4  1  0  0  0  0
  6  4  1  0  0  0  0
  6 12  1  1  0  0  0
  7  3  1  6  0  0  0
  7  6  1  0  0  0  0
  8  9  2  0  0  0  0
  9 11  1  0  0  0  0
 10  9  1  0  0  0  0
 12 16  1  6  0  0  0
 12 13  1  0  0  0  0
 13 15  1  0  0  0  0
 14 13  2  0  0  0  0
 17 16  1  0  0  0  0
 18 17  1  0  0  0  0
 19 26  1  6  0  0  0
 19 21  1  0  0  0  0
 19 25  1  0  0  0  0
 20 18  1  1  0  0  0
 22 28  1  1  0  0  0
 22 24  1  0  0  0  0
 22 19  1  0  0  0  0
 23 20  1  0  0  0  0
 24 27  1  0  0  0  0
 25 20  1  0  0  0  0
 26 23  1  0  0  0  0
 27 21  1  0  0  0  0
 29  1  1  0  0  0  0
 30 45  1  6  0  0  0
 30 31  1  0  0  0  0
 30 29  1  0  0  0  0
 34 32  2  0  0  0  0
 35 33  1  6  0  0  0
 35 34  1  0  0  0  0
 36 31  1  1  0  0  0
 36 34  1  0  0  0  0
 37 35  1  0  0  0  0
 38 37  2  0  0  0  0
 38 36  1  0  0  0  0
 39 38  1  0  0  0  0
 40 39  2  0  0  0  0
 40 41  1  0  0  0  0
 43 44  1  6  0  0  0
 43 41  1  0  0  0  0
 43 42  1  0  0  0  0
 45 46  1  0  0  0  0
 47 46  1  0  0  0  0
 48 49  1  0  0  0  0
 48 47  1  0  0  0  0
 49 50  1  0  0  0  0
 51 50  1  0  0  0  0
 51 52  1  0  0  0  0
 52 53  1  0  0  0  0
 52 55  2  0  0  0  0
 54 52  2  0  0  0  0
M  END
>  <MODEL>
8

>  <REMARK>
 VINA RESULT:      -5.3      2.817      8.377
  Name = 
  23 active torsions:
  status: ('A' for Active; 'I' for Inactive)
    1  A    between atoms: C_1  and  C_23
    2  A    between atoms: C_1  and  C_47
    3  A    between atoms: C_2  and  C_29
    4  A    between atoms: S_5  and  C_31
    5  A    between atoms: C_7  and  C_20
    6  A    between atoms: C_8  and  N_45
    7  A    between atoms: N_9  and  C_26
    8  A    between atoms: N_9  and  C_47
    9  A    between atoms: N_12  and  C_49
   10  A    between atoms: C_15  and  C_16
   11  A    between atoms: C_15  and  C_23
   12  A    between atoms: C_16  and  C_40
   13  A    between atoms: C_16  and  C_55
   14  A    between atoms: C_19  and  C_43
   15  A    between atoms: C_20  and  O_38
   16  A    between atoms: C_20  and  C_46
   17  A    between atoms: C_21  and  O_38
   18  A    between atoms: C_21  and  N_45
   19  A    between atoms: C_25  and  C_40
   20  A    between atoms: C_26  and  C_31
   21  A    between atoms: C_29  and  C_55
   22  A    between atoms: C_30  and  N_42
   23  A    between atoms: C_41  and  C_43
                            x       y       z     vdW  Elec       q    Type
                         _______ _______ _______ _____ _____    ______ ____

>  <TORSDO>
F 23

$$$$
=
 OpenBabel11042411263D

 55 58  0  0  1  0  0  0  0  0999 V2000
  189.1910  177.2770  140.9900 C   0  0  0  0  0  2  0  0  0  0  0  0
  188.8950  178.1110  142.2490 C   0  0  2  0  0  3  0  0  0  0  0  0
  187.0750  179.0660  140.9440 O   0  0  0  0  0  1  0  0  0  0  0  0
  187.4550  176.9860  143.9170 C   0  0  2  0  0  3  0  0  0  0  0  0
  188.9070  177.2380  143.5050 C   0  0  0  0  0  2  0  0  0  0  0  0
  186.6330  177.5420  142.7600 C   0  0  2  0  0  3  0  0  0  0  0  0
  187.4830  178.6760  142.2210 C   0  0  1  0  0  3  0  0  0  0  0  0
  188.9310  176.7550  146.5440 O   0  0  0  0  0  0  0  0  0  0  0  0
  187.8220  177.5890  146.4030 C   0  0  0  0  0  0  0  0  0  0  0  0
  187.1370  177.7080  145.1520 N   0  0  0  0  0  2  0  0  0  0  0  0
  187.4350  178.2740  147.3860 O   0  0  0  0  0  1  0  0  0  0  0  0
  185.1760  177.9060  143.1440 C   0  0  1  0  0  3  0  0  0  0  0  0
  184.9480  179.1640  143.9320 C   0  0  0  0  0  0  0  0  0  0  0  0
  184.5230  179.0840  145.2500 O   0  0  0  0  0  1  0  0  0  0  0  0
  185.1510  180.2940  143.4120 O   0  0  0  0  0  0  0  0  0  0  0  0
  184.2300  177.6970  142.1170 O   0  0  0  0  0  0  0  0  0  0  0  0
  183.0780  178.4420  142.4120 C   0  0  0  0  0  2  0  0  0  0  0  0
  182.0860  178.2320  141.3710 N   0  0  0  0  0  2  0  0  0  0  0  0
  180.4690  180.2800  139.1850 C   0  0  2  0  0  0  0  0  0  0  0  0
  181.6560  179.5450  140.9190 C   0  0  2  0  0  3  0  0  0  0  0  0
  179.5730  179.4320  138.3120 C   0  0  0  0  0  2  0  0  0  0  0  0
  180.7750  181.5100  138.3450 C   0  0  2  0  0  3  0  0  0  0  0  0
  180.3900  179.8400  141.4530 O   0  0  0  0  0  0  0  0  0  0  0  0
  180.8020  181.0240  136.9080 C   0  0  0  0  0  2  0  0  0  0  0  0
  181.6240  179.5670  139.5120 O   0  0  0  0  0  0  0  0  0  0  0  0
  179.7930  180.6290  140.4730 C   0  0  0  0  0  2  0  0  0  0  0  0
  180.0060  179.7230  136.8780 C   0  0  0  0  0  2  0  0  0  0  0  0
  181.9990  182.0830  138.6900 O   0  0  0  0  0  1  0  0  0  0  0  0
  188.8390  177.9970  139.6910 C   0  0  0  0  0  2  0  0  0  0  0  0
  189.9900  177.9970  138.6990 C   0  0  1  0  0  3  0  0  0  0  0  0
  190.5520  176.5850  138.5970 C   0  0  0  0  0  2  0  0  0  0  0  0
  193.4960  176.8650  139.2550 O   0  0  0  0  0  0  0  0  0  0  0  0
  194.8850  175.1770  137.2790 N   0  0  0  0  0  1  0  0  0  0  0  0
  192.9880  176.1980  138.3620 C   0  0  0  0  0  0  0  0  0  0  0  0
  193.5630  174.9330  137.8300 C   0  0  1  0  0  3  0  0  0  0  0  0
  191.7470  176.5760  137.6470 C   0  0  1  0  0  3  0  0  0  0  0  0
  192.6430  174.5960  136.7560 N   0  0  0  0  0  0  0  0  0  0  0  0
  191.6520  175.4350  136.6910 C   0  0  0  0  0  0  0  0  0  0  0  0
  190.6760  175.4020  135.6360 N   0  0  0  0  0  0  0  0  0  0  0  0
  189.5740  174.7100  135.6200 C   0  0  0  0  0  3  0  0  0  0  0  0
  189.1340  173.8270  136.7440 C   0  0  0  0  0  2  0  0  0  0  0  0
  187.1800  172.6470  137.4330 O   0  0  0  0  0  1  0  0  0  0  0  0
  187.6230  173.8470  136.8750 C   0  0  2  0  0  3  0  0  0  0  0  0
  187.0110  174.0260  135.5100 C   0  0  0  0  0  1  0  0  0  0  0  0
  189.5050  178.4600  137.3410 C   0  0  0  0  0  2  0  0  0  0  0  0
  187.9990  178.6380  137.3570 C   0  0  0  0  0  2  0  0  0  0  0  0
  187.3540  177.5950  136.4720 C   0  0  0  0  0  2  0  0  0  0  0  0
  185.9130  177.3440  136.8930 C   0  0  0  0  0  2  0  0  0  0  0  0
  185.5740  178.2120  138.0120 N   0  0  0  0  0  2  0  0  0  0  0  0
  184.2600  177.8050  138.4710 C   0  0  0  0  0  2  0  0  0  0  0  0
  183.5670  176.9890  137.3970 C   0  0  0  0  0  2  0  0  0  0  0  0
  183.0670  175.4060  138.0430 S   0  0  0  0  0  0  0  0  0  0  0  0
  181.6890  174.7910  137.1040 C   0  0  0  0  0  1  0  0  0  0  0  0
  182.6540  175.5720  139.4780 O   0  0  0  0  0  0  0  0  0  0  0  0
  184.2020  174.4240  137.9660 O   0  0  0  0  0  0  0  0  0  0  0  0
  2  1  1  6  0  0  0
  2  5  1  0  0  0  0
  4 10  1  1  0  0  0
  5  4  1  0  0  0  0
  6 12  1  1  0  0  0
  6  4  1  0  0  0  0
  7  3  1  6  0  0  0
  7  2  1  0  0  0  0
  7  6  1  0  0  0  0
  9  8  2  0  0  0  0
  9 11  1  0  0  0  0
 10  9  1  0  0  0  0
 12 16  1  6  0  0  0
 12 13  1  0  0  0  0
 13 14  1  0  0  0  0
 15 13  2  0  0  0  0
 16 17  1  0  0  0  0
 18 17  1  0  0  0  0
 19 21  1  6  0  0  0
 19 25  1  0  0  0  0
 19 26  1  0  0  0  0
 20 18  1  6  0  0  0
 20 23  1  0  0  0  0
 22 28  1  1  0  0  0
 22 19  1  0  0  0  0
 24 22  1  0  0  0  0
 25 20  1  0  0  0  0
 26 23  1  0  0  0  0
 27 24  1  0  0  0  0
 27 21  1  0  0  0  0
 29  1  1  0  0  0  0
 30 45  1  6  0  0  0
 30 29  1  0  0  0  0
 31 30  1  0  0  0  0
 34 32  2  0  0  0  0
 35 33  1  6  0  0  0
 35 34  1  0  0  0  0
 36 34  1  0  0  0  0
 36 31  1  1  0  0  0
 37 35  1  0  0  0  0
 38 37  2  0  0  0  0
 38 36  1  0  0  0  0
 39 38  1  0  0  0  0
 40 39  2  0  0  0  0
 40 41  1  0  0  0  0
 41 43  1  0  0  0  0
 43 44  1  6  0  0  0
 43 42  1  0  0  0  0
 45 46  1  0  0  0  0
 47 48  1  0  0  0  0
 47 46  1  0  0  0  0
 48 49  1  0  0  0  0
 49 50  1  0  0  0  0
 51 52  1  0  0  0  0
 51 50  1  0  0  0  0
 52 54  2  0  0  0  0
 53 52  1  0  0  0  0
 55 52  2  0  0  0  0
M  END
>  <MODEL>
9

>  <REMARK>
 VINA RESULT:      -5.2      2.834      7.640
  Name = 
  23 active torsions:
  status: ('A' for Active; 'I' for Inactive)
    1  A    between atoms: C_1  and  C_23
    2  A    between atoms: C_1  and  C_47
    3  A    between atoms: C_2  and  C_29
    4  A    between atoms: S_5  and  C_31
    5  A    between atoms: C_7  and  C_20
    6  A    between atoms: C_8  and  N_45
    7  A    between atoms: N_9  and  C_26
    8  A    between atoms: N_9  and  C_47
    9  A    between atoms: N_12  and  C_49
   10  A    between atoms: C_15  and  C_16
   11  A    between atoms: C_15  and  C_23
   12  A    between atoms: C_16  and  C_40
   13  A    between atoms: C_16  and  C_55
   14  A    between atoms: C_19  and  C_43
   15  A    between atoms: C_20  and  O_38
   16  A    between atoms: C_20  and  C_46
   17  A    between atoms: C_21  and  O_38
   18  A    between atoms: C_21  and  N_45
   19  A    between atoms: C_25  and  C_40
   20  A    between atoms: C_26  and  C_31
   21  A    between atoms: C_29  and  C_55
   22  A    between atoms: C_30  and  N_42
   23  A    between atoms: C_41  and  C_43
                            x       y       z     vdW  Elec       q    Type
                         _______ _______ _______ _____ _____    ______ ____

>  <TORSDO>
F 23

$$$$
