=
 OpenBabel11042411553D

 37 39  0  0  1  0  0  0  0  0999 V2000
  185.6730  177.4180  143.6730 N   0  0  0  0  0  0  0  0  0  0  0  0
  188.9360  176.5480  142.4910 O   0  0  0  0  0  0  0  0  0  0  0  0
  185.2570  178.1440  142.6690 C   0  0  0  0  0  0  0  0  0  0  0  0
  186.1950  178.5880  141.6720 N   0  0  0  0  0  0  0  0  0  0  0  0
  187.0830  177.0970  143.9220 C   0  0  1  0  0  3  0  0  0  0  0  0
  187.8790  177.2130  142.6530 C   0  0  0  0  0  0  0  0  0  0  0  0
  187.4220  178.1570  141.6310 C   0  0  0  0  0  0  0  0  0  0  0  0
  181.0910  179.1270  142.2410 C   0  0  0  0  0  3  0  0  0  0  0  0
  181.6760  179.2030  143.5040 C   0  0  0  0  0  3  0  0  0  0  0  0
  183.6650  179.0910  145.3130 Cl  0  0  0  0  0  0  0  0  0  0  0  0
  181.1310  178.6580  139.5540 Cl  0  0  0  0  0  0  0  0  0  0  0  0
  183.8200  178.5030  142.5730 C   0  0  0  0  0  0  0  0  0  0  0  0
  181.8600  178.7500  141.1420 C   0  0  0  0  0  0  0  0  0  0  0  0
  183.0300  178.8980  143.6850 C   0  0  0  0  0  0  0  0  0  0  0  0
  183.2100  178.4420  141.3080 C   0  0  0  0  0  3  0  0  0  0  0  0
  188.3000  178.5750  140.6290 O   0  0  0  0  0  0  0  0  0  0  0  0
  188.1150  178.2240  139.2650 C   0  0  0  0  0  2  0  0  0  0  0  0
  189.3070  178.6860  138.4530 C   0  0  2  0  0  3  0  0  0  0  0  0
  188.9140  179.6970  137.5750 O   0  0  0  0  0  1  0  0  0  0  0  0
  189.8700  177.5110  137.6720 C   0  0  0  0  0  2  0  0  0  0  0  0
  191.4080  177.1490  139.4490 O   0  0  0  0  0  0  0  0  0  0  0  0
  190.6830  176.6290  138.5620 C   0  0  0  0  0  0  0  0  0  0  0  0
  191.6940  174.5530  137.9940 O   0  0  0  0  0  1  0  0  0  0  0  0
  190.6350  175.2420  138.4380 O   0  0  0  0  0  0  0  0  0  0  0  0
  187.6200  178.0650  144.9740 C   0  0  0  0  0  2  0  0  0  0  0  0
  186.4980  178.3040  147.0840 O   0  0  0  0  0  1  0  0  0  0  0  0
  187.4370  177.5350  146.3930 C   0  0  2  0  0  3  0  0  0  0  0  0
  188.6950  178.2290  148.4710 C   0  0  0  0  0  1  0  0  0  0  0  0
  188.7650  177.4680  147.1550 C   0  0  2  0  0  3  0  0  0  0  0  0
  189.7960  177.9980  146.3680 O   0  0  0  0  0  0  0  0  0  0  0  0
  190.6550  176.9330  146.0760 C   0  0  1  0  0  3  0  0  0  0  0  0
  190.7120  179.2990  143.7780 O   0  0  0  0  0  0  0  0  0  0  0  0
  191.7810  177.4210  145.1670 C   0  0  1  0  0  3  0  0  0  0  0  0
  191.7260  176.7980  143.9190 N   0  0  0  0  0  2  0  0  0  0  0  0
  191.2330  178.2250  144.1750 C   0  0  0  0  0  0  0  0  0  0  0  0
  192.3840  176.1350  147.4870 O   0  0  0  0  0  0  0  0  0  0  0  0
  191.1930  176.3700  147.3580 C   0  0  0  0  0  3  0  0  0  0  0  0
  1  5  1  0  0  0  0
  2  6  2  0  0  0  0
  3  1  2  0  0  0  0
  4  3  1  0  0  0  0
  5 25  1  1  0  0  0
  6  5  1  0  0  0  0
  7  4  2  0  0  0  0
  7  6  1  0  0  0  0
  8  9  1  0  0  0  0
  9 14  2  0  0  0  0
 11 13  1  0  0  0  0
 12  3  1  0  0  0  0
 12 14  1  0  0  0  0
 13 15  1  0  0  0  0
 13  8  2  0  0  0  0
 14 10  1  0  0  0  0
 15 12  2  0  0  0  0
 16  7  1  0  0  0  0
 17 16  1  0  0  0  0
 18 19  1  6  0  0  0
 18 17  1  0  0  0  0
 20 18  1  0  0  0  0
 20 22  1  0  0  0  0
 22 21  2  0  0  0  0
 23 24  1  0  0  0  0
 24 22  1  0  0  0  0
 25 27  1  0  0  0  0
 27 26  1  1  0  0  0
 27 29  1  0  0  0  0
 29 28  1  1  0  0  0
 30 29  1  0  0  0  0
 31 30  1  0  0  0  0
 31 37  1  1  0  0  0
 32 35  2  0  0  0  0
 33 31  1  1  0  0  0
 34 35  1  0  0  0  0
 34 33  1  0  0  0  0
 35 33  1  0  0  0  0
 37 36  2  0  0  0  0
M  END
>  <MODEL>
1

>  <REMARK>
 VINA RESULT:      -8.4      0.000      0.000
  Name = 
  14 active torsions:
  status: ('A' for Active; 'I' for Inactive)
    1  A    between atoms: C_7  and  C_10
    2  A    between atoms: C_7  and  O_25
    3  A    between atoms: C_8  and  C_29
    4  A    between atoms: C_8  and  C_31
    5  A    between atoms: C_9  and  C_12
    6  A    between atoms: C_10  and  C_32
    7  A    between atoms: C_12  and  CA_17
    8  A    between atoms: C_12  and  O_20
    9  A    between atoms: C_14  and  C_24
   10  A    between atoms: C_19  and  C_29
   11  A    between atoms: O_20  and  C_31
   12  A    between atoms: C_22  and  C_32
   13  A    between atoms: C_22  and  O_33
   14  A    between atoms: O_25  and  C_27
                            x       y       z     vdW  Elec       q    Type
                         _______ _______ _______ _____ _____    ______ ____

>  <TORSDO>
F 14

$$$$
=
 OpenBabel11042411553D

 37 39  0  0  1  0  0  0  0  0999 V2000
  187.7250  178.5150  141.3490 N   0  0  0  0  0  0  0  0  0  0  0  0
  191.1240  177.4600  140.9890 O   0  0  0  0  0  0  0  0  0  0  0  0
  187.3830  177.8160  142.4000 C   0  0  0  0  0  0  0  0  0  0  0  0
  188.2320  176.7450  142.8500 N   0  0  0  0  0  0  0  0  0  0  0  0
  188.8930  178.2180  140.5130 C   0  0  1  0  0  3  0  0  0  0  0  0
  189.9010  177.4160  141.2860 C   0  0  0  0  0  0  0  0  0  0  0  0
  189.4200  176.5450  142.3590 C   0  0  0  0  0  0  0  0  0  0  0  0
  183.6410  178.7140  144.3210 C   0  0  0  0  0  3  0  0  0  0  0  0
  184.7780  178.5370  145.1080 C   0  0  0  0  0  3  0  0  0  0  0  0
  187.3860  178.1120  145.6140 Cl  0  0  0  0  0  0  0  0  0  0  0  0
  182.3100  178.8370  141.9420 Cl  0  0  0  0  0  0  0  0  0  0  0  0
  186.1190  178.1340  143.1100 C   0  0  0  0  0  0  0  0  0  0  0  0
  183.7330  178.6110  142.9340 C   0  0  0  0  0  0  0  0  0  0  0  0
  186.0160  178.2510  144.5220 C   0  0  0  0  0  0  0  0  0  0  0  0
  184.9610  178.3240  142.3360 C   0  0  0  0  0  3  0  0  0  0  0  0
  190.2380  175.5220  142.8440 O   0  0  0  0  0  0  0  0  0  0  0  0
  191.4580  175.7850  143.5220 C   0  0  0  0  0  2  0  0  0  0  0  0
  191.1830  176.6110  144.7610 C   0  0  2  0  0  3  0  0  0  0  0  0
  191.6560  177.9110  144.5750 O   0  0  0  0  0  1  0  0  0  0  0  0
  191.8760  175.9750  145.9540 C   0  0  0  0  0  2  0  0  0  0  0  0
  192.2060  176.9210  148.1110 O   0  0  0  0  0  0  0  0  0  0  0  0
  191.3780  176.5690  147.2310 C   0  0  0  0  0  0  0  0  0  0  0  0
  189.5690  177.8200  148.1370 O   0  0  0  0  0  1  0  0  0  0  0  0
  190.0150  176.7580  147.4530 O   0  0  0  0  0  0  0  0  0  0  0  0
  188.4220  177.4360  139.2890 C   0  0  0  0  0  2  0  0  0  0  0  0
  189.0420  179.3500  137.9760 O   0  0  0  0  0  1  0  0  0  0  0  0
  189.0480  177.9530  137.9970 C   0  0  2  0  0  3  0  0  0  0  0  0
  187.1510  178.2110  136.3500 C   0  0  0  0  0  1  0  0  0  0  0  0
  188.3580  177.3790  136.7550 C   0  0  2  0  0  3  0  0  0  0  0  0
  187.9520  176.0610  137.0000 O   0  0  0  0  0  0  0  0  0  0  0  0
  188.6690  175.2560  136.1080 C   0  0  1  0  0  3  0  0  0  0  0  0
  191.0960  175.1070  138.3370 O   0  0  0  0  0  0  0  0  0  0  0  0
  189.2680  174.0700  136.8610 C   0  0  1  0  0  3  0  0  0  0  0  0
  190.4060  173.5850  136.2140 N   0  0  0  0  0  2  0  0  0  0  0  0
  190.4550  174.4770  137.4570 C   0  0  0  0  0  0  0  0  0  0  0  0
  186.5400  174.8680  135.1410 O   0  0  0  0  0  0  0  0  0  0  0  0
  187.7520  174.8000  135.0120 C   0  0  0  0  0  3  0  0  0  0  0  0
  1  3  2  0  0  0  0
  2  6  2  0  0  0  0
  3  4  1  0  0  0  0
  3 12  1  0  0  0  0
  5 25  1  6  0  0  0
  5  6  1  0  0  0  0
  5  1  1  0  0  0  0
  6  7  1  0  0  0  0
  7 16  1  0  0  0  0
  7  4  2  0  0  0  0
  8  9  1  0  0  0  0
 11 13  1  0  0  0  0
 12 14  1  0  0  0  0
 13  8  2  0  0  0  0
 14  9  2  0  0  0  0
 14 10  1  0  0  0  0
 15 13  1  0  0  0  0
 15 12  2  0  0  0  0
 16 17  1  0  0  0  0
 17 18  1  0  0  0  0
 18 19  1  6  0  0  0
 18 20  1  0  0  0  0
 20 22  1  0  0  0  0
 22 24  1  0  0  0  0
 22 21  2  0  0  0  0
 24 23  1  0  0  0  0
 27 26  1  6  0  0  0
 27 25  1  0  0  0  0
 29 28  1  1  0  0  0
 29 30  1  0  0  0  0
 29 27  1  0  0  0  0
 31 37  1  6  0  0  0
 31 30  1  0  0  0  0
 33 31  1  6  0  0  0
 33 35  1  0  0  0  0
 34 33  1  0  0  0  0
 34 35  1  0  0  0  0
 35 32  2  0  0  0  0
 37 36  2  0  0  0  0
M  END
>  <MODEL>
2

>  <REMARK>
 VINA RESULT:      -8.3      2.589      7.350
  Name = 
  14 active torsions:
  status: ('A' for Active; 'I' for Inactive)
    1  A    between atoms: C_7  and  C_10
    2  A    between atoms: C_7  and  O_25
    3  A    between atoms: C_8  and  C_29
    4  A    between atoms: C_8  and  C_31
    5  A    between atoms: C_9  and  C_12
    6  A    between atoms: C_10  and  C_32
    7  A    between atoms: C_12  and  CA_17
    8  A    between atoms: C_12  and  O_20
    9  A    between atoms: C_14  and  C_24
   10  A    between atoms: C_19  and  C_29
   11  A    between atoms: O_20  and  C_31
   12  A    between atoms: C_22  and  C_32
   13  A    between atoms: C_22  and  O_33
   14  A    between atoms: O_25  and  C_27
                            x       y       z     vdW  Elec       q    Type
                         _______ _______ _______ _____ _____    ______ ____

>  <TORSDO>
F 14

$$$$
=
 OpenBabel11042411553D

 37 39  0  0  1  0  0  0  0  0999 V2000
  187.6970  178.6820  141.3450 N   0  0  0  0  0  0  0  0  0  0  0  0
  191.1000  177.6360  141.0010 O   0  0  0  0  0  0  0  0  0  0  0  0
  187.3390  177.9490  142.3670 C   0  0  0  0  0  0  0  0  0  0  0  0
  188.1810  176.8630  142.7950 N   0  0  0  0  0  0  0  0  0  0  0  0
  188.8770  178.4110  140.5160 C   0  0  1  0  0  3  0  0  0  0  0  0
  189.8730  177.5840  141.2780 C   0  0  0  0  0  0  0  0  0  0  0  0
  189.3760  176.6790  142.3150 C   0  0  0  0  0  0  0  0  0  0  0  0
  183.7300  178.8180  144.5390 C   0  0  0  0  0  3  0  0  0  0  0  0
  183.7020  178.8470  143.1460 C   0  0  0  0  0  3  0  0  0  0  0  0
  184.6750  178.5710  140.6520 Cl  0  0  0  0  0  0  0  0  0  0  0  0
  184.9500  178.4550  146.9530 Cl  0  0  0  0  0  0  0  0  0  0  0  0
  186.0650  178.2460  143.0690 C   0  0  0  0  0  0  0  0  0  0  0  0
  184.9120  178.4980  145.2040 C   0  0  0  0  0  0  0  0  0  0  0  0
  184.8530  178.5640  142.4020 C   0  0  0  0  0  0  0  0  0  0  0  0
  186.0670  178.2150  144.4740 C   0  0  0  0  0  3  0  0  0  0  0  0
  190.1870  175.6400  142.7780 O   0  0  0  0  0  0  0  0  0  0  0  0
  191.2490  175.8590  143.6960 C   0  0  0  0  0  2  0  0  0  0  0  0
  190.9650  177.1010  144.5160 C   0  0  2  0  0  3  0  0  0  0  0  0
  191.8960  178.0930  144.2040 O   0  0  0  0  0  1  0  0  0  0  0  0
  191.0490  176.7570  145.9930 C   0  0  0  0  0  2  0  0  0  0  0  0
  188.6810  176.9140  146.1460 O   0  0  0  0  0  0  0  0  0  0  0  0
  189.7890  177.1440  146.6960 C   0  0  0  0  0  0  0  0  0  0  0  0
  188.7110  177.8330  148.7010 O   0  0  0  0  0  1  0  0  0  0  0  0
  189.8210  177.7370  147.9570 O   0  0  0  0  0  0  0  0  0  0  0  0
  188.4240  177.6700  139.2610 C   0  0  0  0  0  2  0  0  0  0  0  0
  187.6580  178.7980  137.2830 O   0  0  0  0  0  1  0  0  0  0  0  0
  188.8040  178.4120  137.9830 C   0  0  2  0  0  3  0  0  0  0  0  0
  189.0920  177.2440  135.7620 C   0  0  0  0  0  1  0  0  0  0  0  0
  189.7400  177.5830  137.0950 C   0  0  2  0  0  3  0  0  0  0  0  0
  190.0980  176.3990  137.7520 O   0  0  0  0  0  0  0  0  0  0  0  0
  191.2610  175.9380  137.1270 C   0  0  1  0  0  3  0  0  0  0  0  0
  194.2880  176.8270  136.1600 O   0  0  0  0  0  0  0  0  0  0  0  0
  192.4810  176.3830  137.9310 C   0  0  1  0  0  3  0  0  0  0  0  0
  193.3370  175.3090  138.1830 N   0  0  0  0  0  2  0  0  0  0  0  0
  193.5940  176.3590  137.0990 C   0  0  0  0  0  0  0  0  0  0  0  0
  190.3050  173.8120  137.5540 O   0  0  0  0  0  0  0  0  0  0  0  0
  191.1980  174.4440  137.0130 C   0  0  0  0  0  3  0  0  0  0  0  0
  1  3  2  0  0  0  0
  2  6  2  0  0  0  0
  3  4  1  0  0  0  0
  3 12  1  0  0  0  0
  5 25  1  6  0  0  0
  5  6  1  0  0  0  0
  5  1  1  0  0  0  0
  6  7  1  0  0  0  0
  7 16  1  0  0  0  0
  7  4  2  0  0  0  0
  8 13  1  0  0  0  0
  9  8  2  0  0  0  0
 10 14  1  0  0  0  0
 12 15  1  0  0  0  0
 13 11  1  0  0  0  0
 14 12  2  0  0  0  0
 14  9  1  0  0  0  0
 15 13  2  0  0  0  0
 16 17  1  0  0  0  0
 17 18  1  0  0  0  0
 18 19  1  6  0  0  0
 18 20  1  0  0  0  0
 20 22  1  0  0  0  0
 21 22  2  0  0  0  0
 22 24  1  0  0  0  0
 24 23  1  0  0  0  0
 27 26  1  6  0  0  0
 27 25  1  0  0  0  0
 29 28  1  6  0  0  0
 29 30  1  0  0  0  0
 29 27  1  0  0  0  0
 31 37  1  1  0  0  0
 31 30  1  0  0  0  0
 32 35  2  0  0  0  0
 33 31  1  6  0  0  0
 33 34  1  0  0  0  0
 35 33  1  0  0  0  0
 35 34  1  0  0  0  0
 37 36  2  0  0  0  0
M  END
>  <MODEL>
3

>  <REMARK>
 VINA RESULT:      -8.2      2.138      7.111
  Name = 
  14 active torsions:
  status: ('A' for Active; 'I' for Inactive)
    1  A    between atoms: C_7  and  C_10
    2  A    between atoms: C_7  and  O_25
    3  A    between atoms: C_8  and  C_29
    4  A    between atoms: C_8  and  C_31
    5  A    between atoms: C_9  and  C_12
    6  A    between atoms: C_10  and  C_32
    7  A    between atoms: C_12  and  CA_17
    8  A    between atoms: C_12  and  O_20
    9  A    between atoms: C_14  and  C_24
   10  A    between atoms: C_19  and  C_29
   11  A    between atoms: O_20  and  C_31
   12  A    between atoms: C_22  and  C_32
   13  A    between atoms: C_22  and  O_33
   14  A    between atoms: O_25  and  C_27
                            x       y       z     vdW  Elec       q    Type
                         _______ _______ _______ _____ _____    ______ ____

>  <TORSDO>
F 14

$$$$
=
 OpenBabel11042411553D

 37 39  0  0  1  0  0  0  0  0999 V2000
  187.5500  177.3800  142.3110 N   0  0  0  0  0  0  0  0  0  0  0  0
  190.4980  176.7640  140.3810 O   0  0  0  0  0  0  0  0  0  0  0  0
  186.8750  178.1100  141.4620 C   0  0  0  0  0  0  0  0  0  0  0  0
  187.5340  178.6460  140.3000 N   0  0  0  0  0  0  0  0  0  0  0  0
  188.9950  177.1440  142.2180 C   0  0  1  0  0  3  0  0  0  0  0  0
  189.4710  177.3530  140.8090 C   0  0  0  0  0  0  0  0  0  0  0  0
  188.7410  178.2970  139.9620 C   0  0  0  0  0  0  0  0  0  0  0  0
  182.7420  178.9180  142.3390 C   0  0  0  0  0  3  0  0  0  0  0  0
  183.1370  178.7890  141.0080 C   0  0  0  0  0  3  0  0  0  0  0  0
  184.8310  178.3170  138.9710 Cl  0  0  0  0  0  0  0  0  0  0  0  0
  183.1880  178.9280  145.0300 Cl  0  0  0  0  0  0  0  0  0  0  0  0
  185.4360  178.3780  141.7110 C   0  0  0  0  0  0  0  0  0  0  0  0
  183.6800  178.7720  143.3580 C   0  0  0  0  0  0  0  0  0  0  0  0
  184.4700  178.5190  140.6800 C   0  0  0  0  0  0  0  0  0  0  0  0
  185.0130  178.5040  143.0460 C   0  0  0  0  0  3  0  0  0  0  0  0
  189.3410  178.8040  138.8070 O   0  0  0  0  0  0  0  0  0  0  0  0
  188.7420  178.6780  137.5250 C   0  0  0  0  0  2  0  0  0  0  0  0
  189.4100  177.5540  136.7600 C   0  0  2  0  0  3  0  0  0  0  0  0
  189.3660  177.8260  135.3920 O   0  0  0  0  0  1  0  0  0  0  0  0
  188.6890  176.2490  137.0530 C   0  0  0  0  0  2  0  0  0  0  0  0
  189.7370  174.5170  135.8050 O   0  0  0  0  0  0  0  0  0  0  0  0
  189.6230  175.0910  136.9190 C   0  0  0  0  0  0  0  0  0  0  0  0
  191.6960  174.4210  137.8730 O   0  0  0  0  0  1  0  0  0  0  0  0
  190.3830  174.6510  138.0010 O   0  0  0  0  0  0  0  0  0  0  0  0
  189.7030  178.1100  143.1650 C   0  0  0  0  0  2  0  0  0  0  0  0
  190.9040  176.0820  143.6290 O   0  0  0  0  0  1  0  0  0  0  0  0
  190.7430  177.4090  144.0340 C   0  0  2  0  0  3  0  0  0  0  0  0
  191.4390  176.7930  146.3830 C   0  0  0  0  0  1  0  0  0  0  0  0
  190.3960  177.4930  145.5250 C   0  0  2  0  0  3  0  0  0  0  0  0
  189.1410  176.9160  145.7570 O   0  0  0  0  0  0  0  0  0  0  0  0
  188.4080  177.8530  146.4930 C   0  0  1  0  0  3  0  0  0  0  0  0
  185.7980  179.6500  147.4110 O   0  0  0  0  0  0  0  0  0  0  0  0
  187.0820  178.1310  145.7870 C   0  0  1  0  0  3  0  0  0  0  0  0
  186.0900  177.2460  146.2130 N   0  0  0  0  0  2  0  0  0  0  0  0
  186.2010  178.6930  146.7020 C   0  0  0  0  0  0  0  0  0  0  0  0
  188.6590  177.8950  148.8500 O   0  0  0  0  0  0  0  0  0  0  0  0
  188.1870  177.3240  147.8790 C   0  0  0  0  0  3  0  0  0  0  0  0
  2  6  2  0  0  0  0
  3 12  1  0  0  0  0
  3  1  2  0  0  0  0
  4  3  1  0  0  0  0
  5  1  1  0  0  0  0
  5 25  1  1  0  0  0
  6  5  1  0  0  0  0
  7  4  2  0  0  0  0
  7  6  1  0  0  0  0
  8 13  1  0  0  0  0
  9  8  2  0  0  0  0
 10 14  1  0  0  0  0
 12 15  1  0  0  0  0
 13 11  1  0  0  0  0
 14  9  1  0  0  0  0
 14 12  2  0  0  0  0
 15 13  2  0  0  0  0
 16  7  1  0  0  0  0
 17 16  1  0  0  0  0
 18 19  1  6  0  0  0
 18 20  1  0  0  0  0
 18 17  1  0  0  0  0
 21 22  2  0  0  0  0
 22 20  1  0  0  0  0
 22 24  1  0  0  0  0
 23 24  1  0  0  0  0
 25 27  1  0  0  0  0
 27 26  1  6  0  0  0
 27 29  1  0  0  0  0
 29 30  1  0  0  0  0
 29 28  1  1  0  0  0
 30 31  1  0  0  0  0
 31 37  1  1  0  0  0
 33 34  1  0  0  0  0
 33 31  1  1  0  0  0
 33 35  1  0  0  0  0
 34 35  1  0  0  0  0
 35 32  2  0  0  0  0
 37 36  2  0  0  0  0
M  END
>  <MODEL>
4

>  <REMARK>
 VINA RESULT:      -8.0      1.803      3.504
  Name = 
  14 active torsions:
  status: ('A' for Active; 'I' for Inactive)
    1  A    between atoms: C_7  and  C_10
    2  A    between atoms: C_7  and  O_25
    3  A    between atoms: C_8  and  C_29
    4  A    between atoms: C_8  and  C_31
    5  A    between atoms: C_9  and  C_12
    6  A    between atoms: C_10  and  C_32
    7  A    between atoms: C_12  and  CA_17
    8  A    between atoms: C_12  and  O_20
    9  A    between atoms: C_14  and  C_24
   10  A    between atoms: C_19  and  C_29
   11  A    between atoms: O_20  and  C_31
   12  A    between atoms: C_22  and  C_32
   13  A    between atoms: C_22  and  O_33
   14  A    between atoms: O_25  and  C_27
                            x       y       z     vdW  Elec       q    Type
                         _______ _______ _______ _____ _____    ______ ____

>  <TORSDO>
F 14

$$$$
=
 OpenBabel11042411553D

 37 39  0  0  1  0  0  0  0  0999 V2000
  188.7360  177.0170  142.1410 N   0  0  0  0  0  0  0  0  0  0  0  0
  190.6410  176.5860  139.1430 O   0  0  0  0  0  0  0  0  0  0  0  0
  187.8590  177.8930  141.7250 C   0  0  0  0  0  0  0  0  0  0  0  0
  188.0680  178.5730  140.4740 N   0  0  0  0  0  0  0  0  0  0  0  0
  190.0040  176.7400  141.4560 C   0  0  1  0  0  3  0  0  0  0  0  0
  189.9190  177.1430  140.0110 C   0  0  0  0  0  0  0  0  0  0  0  0
  189.0130  178.2330  139.6470 C   0  0  0  0  0  0  0  0  0  0  0  0
  184.4780  178.7040  144.2570 C   0  0  0  0  0  3  0  0  0  0  0  0
  184.3490  178.8830  142.8810 C   0  0  0  0  0  3  0  0  0  0  0  0
  185.1160  178.8290  140.3020 Cl  0  0  0  0  0  0  0  0  0  0  0  0
  185.8510  178.0230  146.5150 Cl  0  0  0  0  0  0  0  0  0  0  0  0
  186.6600  178.1760  142.5540 C   0  0  0  0  0  0  0  0  0  0  0  0
  185.6860  178.2550  144.7890 C   0  0  0  0  0  0  0  0  0  0  0  0
  185.4220  178.6250  142.0220 C   0  0  0  0  0  0  0  0  0  0  0  0
  186.7650  177.9940  143.9440 C   0  0  0  0  0  3  0  0  0  0  0  0
  189.1670  178.8850  138.4210 O   0  0  0  0  0  0  0  0  0  0  0  0
  188.2010  178.7880  137.3840 C   0  0  0  0  0  2  0  0  0  0  0  0
  188.3070  177.4320  136.7170 C   0  0  2  0  0  3  0  0  0  0  0  0
  188.4810  177.5970  135.3420 O   0  0  0  0  0  1  0  0  0  0  0  0
  187.0390  176.6400  136.9870 C   0  0  0  0  0  2  0  0  0  0  0  0
  188.5220  174.7880  137.1580 O   0  0  0  0  0  0  0  0  0  0  0  0
  187.3320  175.1750  137.0250 C   0  0  0  0  0  0  0  0  0  0  0  0
  186.2090  173.2380  137.8270 O   0  0  0  0  0  1  0  0  0  0  0  0
  186.3080  174.2340  136.9370 O   0  0  0  0  0  0  0  0  0  0  0  0
  191.1110  177.5230  142.1580 C   0  0  0  0  0  2  0  0  0  0  0  0
  191.2380  175.5150  143.4720 O   0  0  0  0  0  1  0  0  0  0  0  0
  191.5210  176.8830  143.4820 C   0  0  2  0  0  3  0  0  0  0  0  0
  190.7620  179.0780  144.4750 C   0  0  0  0  0  1  0  0  0  0  0  0
  190.8610  177.5740  144.6810 C   0  0  2  0  0  3  0  0  0  0  0  0
  191.5930  177.3130  145.8460 O   0  0  0  0  0  0  0  0  0  0  0  0
  190.7260  176.6380  146.7120 C   0  0  1  0  0  3  0  0  0  0  0  0
  193.1910  176.5280  148.9010 O   0  0  0  0  0  0  0  0  0  0  0  0
  191.4560  175.4540  147.3430 C   0  0  1  0  0  3  0  0  0  0  0  0
  192.6280  175.1550  146.6440 N   0  0  0  0  0  2  0  0  0  0  0  0
  192.6040  175.9230  147.9680 C   0  0  0  0  0  0  0  0  0  0  0  0
  189.0900  178.0220  147.7260 O   0  0  0  0  0  0  0  0  0  0  0  0
  190.2340  177.5950  147.7570 C   0  0  0  0  0  3  0  0  0  0  0  0
  2  6  2  0  0  0  0
  3  1  2  0  0  0  0
  3 12  1  0  0  0  0
  4  3  1  0  0  0  0
  5  1  1  0  0  0  0
  5 25  1  1  0  0  0
  6  5  1  0  0  0  0
  7  6  1  0  0  0  0
  7  4  2  0  0  0  0
  8 13  1  0  0  0  0
  9  8  2  0  0  0  0
 10 14  1  0  0  0  0
 12 15  1  0  0  0  0
 13 11  1  0  0  0  0
 14 12  2  0  0  0  0
 14  9  1  0  0  0  0
 15 13  2  0  0  0  0
 16  7  1  0  0  0  0
 17 16  1  0  0  0  0
 18 19  1  6  0  0  0
 18 20  1  0  0  0  0
 18 17  1  0  0  0  0
 20 22  1  0  0  0  0
 22 21  2  0  0  0  0
 24 22  1  0  0  0  0
 24 23  1  0  0  0  0
 25 27  1  0  0  0  0
 27 26  1  6  0  0  0
 27 29  1  0  0  0  0
 29 28  1  6  0  0  0
 29 30  1  0  0  0  0
 30 31  1  0  0  0  0
 31 37  1  1  0  0  0
 33 31  1  6  0  0  0
 33 35  1  0  0  0  0
 34 33  1  0  0  0  0
 34 35  1  0  0  0  0
 35 32  2  0  0  0  0
 36 37  2  0  0  0  0
M  END
>  <MODEL>
5

>  <REMARK>
 VINA RESULT:      -7.9      2.278      4.040
  Name = 
  14 active torsions:
  status: ('A' for Active; 'I' for Inactive)
    1  A    between atoms: C_7  and  C_10
    2  A    between atoms: C_7  and  O_25
    3  A    between atoms: C_8  and  C_29
    4  A    between atoms: C_8  and  C_31
    5  A    between atoms: C_9  and  C_12
    6  A    between atoms: C_10  and  C_32
    7  A    between atoms: C_12  and  CA_17
    8  A    between atoms: C_12  and  O_20
    9  A    between atoms: C_14  and  C_24
   10  A    between atoms: C_19  and  C_29
   11  A    between atoms: O_20  and  C_31
   12  A    between atoms: C_22  and  C_32
   13  A    between atoms: C_22  and  O_33
   14  A    between atoms: O_25  and  C_27
                            x       y       z     vdW  Elec       q    Type
                         _______ _______ _______ _____ _____    ______ ____

>  <TORSDO>
F 14

$$$$
=
 OpenBabel11042411553D

 37 39  0  0  1  0  0  0  0  0999 V2000
  187.5840  178.5820  141.4190 N   0  0  0  0  0  0  0  0  0  0  0  0
  190.9690  177.5450  140.8990 O   0  0  0  0  0  0  0  0  0  0  0  0
  187.2970  177.8820  142.4850 C   0  0  0  0  0  0  0  0  0  0  0  0
  188.1720  176.8170  142.8970 N   0  0  0  0  0  0  0  0  0  0  0  0
  188.7130  178.2900  140.5280 C   0  0  1  0  0  3  0  0  0  0  0  0
  189.7620  177.4950  141.2540 C   0  0  0  0  0  0  0  0  0  0  0  0
  189.3370  176.6230  142.3500 C   0  0  0  0  0  0  0  0  0  0  0  0
  183.8220  178.8080  144.8450 C   0  0  0  0  0  3  0  0  0  0  0  0
  183.6990  178.7470  143.4580 C   0  0  0  0  0  3  0  0  0  0  0  0
  184.5070  178.3340  140.9250 Cl  0  0  0  0  0  0  0  0  0  0  0  0
  185.2140  178.6280  147.1860 Cl  0  0  0  0  0  0  0  0  0  0  0  0
  186.0660  178.1950  143.2540 C   0  0  0  0  0  0  0  0  0  0  0  0
  185.0550  178.5580  145.4450 C   0  0  0  0  0  0  0  0  0  0  0  0
  184.8030  178.4430  142.6550 C   0  0  0  0  0  0  0  0  0  0  0  0
  186.1650  178.2540  144.6550 C   0  0  0  0  0  3  0  0  0  0  0  0
  190.1830  175.6060  142.7970 O   0  0  0  0  0  0  0  0  0  0  0  0
  191.4040  175.8770  143.4700 C   0  0  0  0  0  2  0  0  0  0  0  0
  191.1320  176.7300  144.6920 C   0  0  2  0  0  3  0  0  0  0  0  0
  191.6540  178.0100  144.4970 O   0  0  0  0  0  1  0  0  0  0  0  0
  191.7790  176.0870  145.9070 C   0  0  0  0  0  2  0  0  0  0  0  0
  189.9720  176.6980  147.3290 O   0  0  0  0  0  0  0  0  0  0  0  0
  191.2200  176.6640  147.1670 C   0  0  0  0  0  0  0  0  0  0  0  0
  192.9130  176.3290  148.8030 O   0  0  0  0  0  1  0  0  0  0  0  0
  192.0570  177.1440  148.1720 O   0  0  0  0  0  0  0  0  0  0  0  0
  188.1890  177.5030  139.3290 C   0  0  0  0  0  2  0  0  0  0  0  0
  189.0140  179.3110  137.9780 O   0  0  0  0  0  1  0  0  0  0  0  0
  188.8610  177.9230  138.0250 C   0  0  2  0  0  3  0  0  0  0  0  0
  188.5250  178.1370  135.5300 C   0  0  0  0  0  1  0  0  0  0  0  0
  188.1010  177.4090  136.7970 C   0  0  2  0  0  3  0  0  0  0  0  0
  186.7230  177.5700  136.9850 O   0  0  0  0  0  0  0  0  0  0  0  0
  186.1010  176.5840  136.2110 C   0  0  1  0  0  3  0  0  0  0  0  0
  185.8450  173.7140  134.6050 O   0  0  0  0  0  0  0  0  0  0  0  0
  186.8080  175.2480  136.4260 C   0  0  1  0  0  3  0  0  0  0  0  0
  186.0360  174.3920  137.2140 N   0  0  0  0  0  2  0  0  0  0  0  0
  186.1460  174.2720  135.6910 C   0  0  0  0  0  0  0  0  0  0  0  0
  184.2040  177.1840  137.4990 O   0  0  0  0  0  0  0  0  0  0  0  0
  184.6520  176.5030  136.5900 C   0  0  0  0  0  3  0  0  0  0  0  0
  1  3  2  0  0  0  0
  2  6  2  0  0  0  0
  3  4  1  0  0  0  0
  3 12  1  0  0  0  0
  5 25  1  6  0  0  0
  5  6  1  0  0  0  0
  5  1  1  0  0  0  0
  6  7  1  0  0  0  0
  7 16  1  0  0  0  0
  7  4  2  0  0  0  0
  8 13  1  0  0  0  0
  9  8  2  0  0  0  0
 10 14  1  0  0  0  0
 12 15  1  0  0  0  0
 13 11  1  0  0  0  0
 14 12  2  0  0  0  0
 14  9  1  0  0  0  0
 15 13  2  0  0  0  0
 16 17  1  0  0  0  0
 17 18  1  0  0  0  0
 18 19  1  6  0  0  0
 18 20  1  0  0  0  0
 20 22  1  0  0  0  0
 22 21  2  0  0  0  0
 22 24  1  0  0  0  0
 24 23  1  0  0  0  0
 27 26  1  6  0  0  0
 27 25  1  0  0  0  0
 29 28  1  6  0  0  0
 29 30  1  0  0  0  0
 29 27  1  0  0  0  0
 31 37  1  1  0  0  0
 31 30  1  0  0  0  0
 32 35  2  0  0  0  0
 33 31  1  6  0  0  0
 33 34  1  0  0  0  0
 35 33  1  0  0  0  0
 35 34  1  0  0  0  0
 37 36  2  0  0  0  0
M  END
>  <MODEL>
6

>  <REMARK>
 VINA RESULT:      -7.8      2.782      7.841
  Name = 
  14 active torsions:
  status: ('A' for Active; 'I' for Inactive)
    1  A    between atoms: C_7  and  C_10
    2  A    between atoms: C_7  and  O_25
    3  A    between atoms: C_8  and  C_29
    4  A    between atoms: C_8  and  C_31
    5  A    between atoms: C_9  and  C_12
    6  A    between atoms: C_10  and  C_32
    7  A    between atoms: C_12  and  CA_17
    8  A    between atoms: C_12  and  O_20
    9  A    between atoms: C_14  and  C_24
   10  A    between atoms: C_19  and  C_29
   11  A    between atoms: O_20  and  C_31
   12  A    between atoms: C_22  and  C_32
   13  A    between atoms: C_22  and  O_33
   14  A    between atoms: O_25  and  C_27
                            x       y       z     vdW  Elec       q    Type
                         _______ _______ _______ _____ _____    ______ ____

>  <TORSDO>
F 14

$$$$
=
 OpenBabel11042411553D

 37 39  0  0  1  0  0  0  0  0999 V2000
  187.3890  178.5800  141.5140 N   0  0  0  0  0  0  0  0  0  0  0  0
  190.7830  177.5490  141.0530 O   0  0  0  0  0  0  0  0  0  0  0  0
  187.0880  177.8900  142.5840 C   0  0  0  0  0  0  0  0  0  0  0  0
  187.9610  176.8320  143.0190 N   0  0  0  0  0  0  0  0  0  0  0  0
  188.5310  178.2820  140.6420 C   0  0  1  0  0  3  0  0  0  0  0  0
  189.5710  177.4980  141.3910 C   0  0  0  0  0  0  0  0  0  0  0  0
  189.1340  176.6370  142.4910 C   0  0  0  0  0  0  0  0  0  0  0  0
  183.4040  178.7820  144.6170 C   0  0  0  0  0  3  0  0  0  0  0  0
  184.5680  178.6200  145.3680 C   0  0  0  0  0  3  0  0  0  0  0  0
  187.1940  178.2170  145.7940 Cl  0  0  0  0  0  0  0  0  0  0  0  0
  181.9960  178.8740  142.2830 Cl  0  0  0  0  0  0  0  0  0  0  0  0
  185.8460  178.2070  143.3320 C   0  0  0  0  0  0  0  0  0  0  0  0
  183.4520  178.6660  143.2290 C   0  0  0  0  0  0  0  0  0  0  0  0
  185.7880  178.3360  144.7450 C   0  0  0  0  0  0  0  0  0  0  0  0
  184.6620  178.3820  142.5950 C   0  0  0  0  0  3  0  0  0  0  0  0
  189.9770  175.6270  142.9600 O   0  0  0  0  0  0  0  0  0  0  0  0
  191.2470  175.9050  143.5320 C   0  0  0  0  0  2  0  0  0  0  0  0
  191.0730  176.7760  144.7580 C   0  0  2  0  0  3  0  0  0  0  0  0
  191.6430  178.0300  144.5290 O   0  0  0  0  0  1  0  0  0  0  0  0
  191.7460  176.1110  145.9460 C   0  0  0  0  0  2  0  0  0  0  0  0
  192.1010  176.8170  148.1890 O   0  0  0  0  0  0  0  0  0  0  0  0
  191.2970  176.7390  147.2250 C   0  0  0  0  0  0  0  0  0  0  0  0
  189.0000  176.4870  147.7890 O   0  0  0  0  0  1  0  0  0  0  0  0
  190.0090  177.2550  147.3590 O   0  0  0  0  0  0  0  0  0  0  0  0
  188.0260  177.4810  139.4450 C   0  0  0  0  0  2  0  0  0  0  0  0
  189.0390  179.3550  138.3340 O   0  0  0  0  0  1  0  0  0  0  0  0
  188.3930  178.1360  138.1160 C   0  0  2  0  0  3  0  0  0  0  0  0
  185.8730  178.2600  137.9980 C   0  0  0  0  0  1  0  0  0  0  0  0
  187.1720  178.3130  137.2070 C   0  0  2  0  0  3  0  0  0  0  0  0
  187.1580  177.3140  136.2250 O   0  0  0  0  0  0  0  0  0  0  0  0
  185.9890  176.5730  136.4350 C   0  0  1  0  0  3  0  0  0  0  0  0
  182.8830  177.5110  135.8400 O   0  0  0  0  0  0  0  0  0  0  0  0
  185.1630  176.5510  135.1500 C   0  0  1  0  0  3  0  0  0  0  0  0
  184.3820  175.3960  135.0750 N   0  0  0  0  0  2  0  0  0  0  0  0
  183.8300  176.7670  135.4760 C   0  0  0  0  0  0  0  0  0  0  0  0
  187.5270  174.8770  137.0510 O   0  0  0  0  0  0  0  0  0  0  0  0
  186.3600  175.1850  136.8690 C   0  0  0  0  0  3  0  0  0  0  0  0
  1  3  2  0  0  0  0
  2  6  2  0  0  0  0
  3  4  1  0  0  0  0
  3 12  1  0  0  0  0
  5 25  1  6  0  0  0
  5  6  1  0  0  0  0
  5  1  1  0  0  0  0
  6  7  1  0  0  0  0
  7 16  1  0  0  0  0
  7  4  2  0  0  0  0
  8  9  1  0  0  0  0
 11 13  1  0  0  0  0
 12 14  1  0  0  0  0
 13  8  2  0  0  0  0
 14  9  2  0  0  0  0
 14 10  1  0  0  0  0
 15 13  1  0  0  0  0
 15 12  2  0  0  0  0
 16 17  1  0  0  0  0
 17 18  1  0  0  0  0
 18 19  1  6  0  0  0
 18 20  1  0  0  0  0
 20 22  1  0  0  0  0
 22 24  1  0  0  0  0
 22 21  2  0  0  0  0
 24 23  1  0  0  0  0
 27 26  1  1  0  0  0
 27 25  1  0  0  0  0
 29 28  1  1  0  0  0
 29 27  1  0  0  0  0
 30 31  1  0  0  0  0
 30 29  1  0  0  0  0
 31 37  1  6  0  0  0
 33 35  1  0  0  0  0
 33 31  1  1  0  0  0
 34 33  1  0  0  0  0
 34 35  1  0  0  0  0
 35 32  2  0  0  0  0
 37 36  2  0  0  0  0
M  END
>  <MODEL>
7

>  <REMARK>
 VINA RESULT:      -7.8      2.889      7.591
  Name = 
  14 active torsions:
  status: ('A' for Active; 'I' for Inactive)
    1  A    between atoms: C_7  and  C_10
    2  A    between atoms: C_7  and  O_25
    3  A    between atoms: C_8  and  C_29
    4  A    between atoms: C_8  and  C_31
    5  A    between atoms: C_9  and  C_12
    6  A    between atoms: C_10  and  C_32
    7  A    between atoms: C_12  and  CA_17
    8  A    between atoms: C_12  and  O_20
    9  A    between atoms: C_14  and  C_24
   10  A    between atoms: C_19  and  C_29
   11  A    between atoms: O_20  and  C_31
   12  A    between atoms: C_22  and  C_32
   13  A    between atoms: C_22  and  O_33
   14  A    between atoms: O_25  and  C_27
                            x       y       z     vdW  Elec       q    Type
                         _______ _______ _______ _____ _____    ______ ____

>  <TORSDO>
F 14

$$$$
=
 OpenBabel11042411553D

 37 39  0  0  1  0  0  0  0  0999 V2000
  185.8740  177.4240  143.9680 N   0  0  0  0  0  0  0  0  0  0  0  0
  189.2320  176.6460  143.0100 O   0  0  0  0  0  0  0  0  0  0  0  0
  185.5050  178.1330  142.9330 C   0  0  0  0  0  0  0  0  0  0  0  0
  186.4940  178.6010  141.9990 N   0  0  0  0  0  0  0  0  0  0  0  0
  187.2730  177.1450  144.3110 C   0  0  1  0  0  3  0  0  0  0  0  0
  188.1480  177.2800  143.0970 C   0  0  0  0  0  0  0  0  0  0  0  0
  187.7330  178.2060  142.0420 C   0  0  0  0  0  0  0  0  0  0  0  0
  181.3510  178.9940  142.2240 C   0  0  0  0  0  3  0  0  0  0  0  0
  181.8430  179.0700  143.5260 C   0  0  0  0  0  3  0  0  0  0  0  0
  183.7020  178.9940  145.4700 Cl  0  0  0  0  0  0  0  0  0  0  0  0
  181.5940  178.5650  139.5400 Cl  0  0  0  0  0  0  0  0  0  0  0  0
  184.0670  178.4500  142.7410 C   0  0  0  0  0  0  0  0  0  0  0  0
  182.2060  178.6560  141.1770 C   0  0  0  0  0  0  0  0  0  0  0  0
  183.1890  178.8040  143.7990 C   0  0  0  0  0  0  0  0  0  0  0  0
  183.5510  178.3870  141.4340 C   0  0  0  0  0  3  0  0  0  0  0  0
  188.6630  178.6450  141.0970 O   0  0  0  0  0  0  0  0  0  0  0  0
  188.5340  178.3500  139.7140 C   0  0  0  0  0  2  0  0  0  0  0  0
  189.5610  177.3100  139.3180 C   0  0  2  0  0  3  0  0  0  0  0  0
  190.6850  177.4230  140.1370 O   0  0  0  0  0  1  0  0  0  0  0  0
  189.9560  177.5200  137.8660 C   0  0  0  0  0  2  0  0  0  0  0  0
  188.3970  177.8380  136.0980 O   0  0  0  0  0  0  0  0  0  0  0  0
  188.8730  177.0460  136.9530 C   0  0  0  0  0  0  0  0  0  0  0  0
  187.0890  175.4870  137.1610 O   0  0  0  0  0  1  0  0  0  0  0  0
  188.3970  175.7380  137.0180 O   0  0  0  0  0  0  0  0  0  0  0  0
  187.7100  178.1330  145.3900 C   0  0  0  0  0  2  0  0  0  0  0  0
  186.8900  178.5650  147.6070 O   0  0  0  0  0  1  0  0  0  0  0  0
  187.4790  177.5900  146.7980 C   0  0  2  0  0  3  0  0  0  0  0  0
  189.5540  178.1630  148.1200 C   0  0  0  0  0  1  0  0  0  0  0  0
  188.7720  177.0580  147.4270 C   0  0  2  0  0  3  0  0  0  0  0  0
  189.5750  176.4680  146.4420 O   0  0  0  0  0  0  0  0  0  0  0  0
  190.8970  176.7900  146.7690 C   0  0  1  0  0  3  0  0  0  0  0  0
  193.2410  176.6810  149.0880 O   0  0  0  0  0  0  0  0  0  0  0  0
  191.5460  175.6070  147.4850 C   0  0  1  0  0  3  0  0  0  0  0  0
  192.7390  175.2350  146.8610 N   0  0  0  0  0  2  0  0  0  0  0  0
  192.6790  176.0590  148.1510 C   0  0  0  0  0  0  0  0  0  0  0  0
  191.3770  178.1650  144.8990 O   0  0  0  0  0  0  0  0  0  0  0  0
  191.6400  177.1440  145.5150 C   0  0  0  0  0  3  0  0  0  0  0  0
  1  5  1  0  0  0  0
  2  6  2  0  0  0  0
  3  1  2  0  0  0  0
  4  7  2  0  0  0  0
  4  3  1  0  0  0  0
  5 25  1  1  0  0  0
  6  5  1  0  0  0  0
  7  6  1  0  0  0  0
  8  9  1  0  0  0  0
  9 14  2  0  0  0  0
 11 13  1  0  0  0  0
 12  3  1  0  0  0  0
 12 14  1  0  0  0  0
 13 15  1  0  0  0  0
 13  8  2  0  0  0  0
 14 10  1  0  0  0  0
 15 12  2  0  0  0  0
 16  7  1  0  0  0  0
 17 16  1  0  0  0  0
 18 17  1  0  0  0  0
 18 19  1  1  0  0  0
 20 18  1  0  0  0  0
 21 22  2  0  0  0  0
 22 24  1  0  0  0  0
 22 20  1  0  0  0  0
 24 23  1  0  0  0  0
 25 27  1  0  0  0  0
 27 29  1  0  0  0  0
 27 26  1  1  0  0  0
 29 28  1  6  0  0  0
 30 31  1  0  0  0  0
 30 29  1  0  0  0  0
 31 37  1  6  0  0  0
 33 31  1  6  0  0  0
 33 35  1  0  0  0  0
 34 33  1  0  0  0  0
 34 35  1  0  0  0  0
 35 32  2  0  0  0  0
 36 37  2  0  0  0  0
M  END
>  <MODEL>
8

>  <REMARK>
 VINA RESULT:      -7.7      1.306      2.226
  Name = 
  14 active torsions:
  status: ('A' for Active; 'I' for Inactive)
    1  A    between atoms: C_7  and  C_10
    2  A    between atoms: C_7  and  O_25
    3  A    between atoms: C_8  and  C_29
    4  A    between atoms: C_8  and  C_31
    5  A    between atoms: C_9  and  C_12
    6  A    between atoms: C_10  and  C_32
    7  A    between atoms: C_12  and  CA_17
    8  A    between atoms: C_12  and  O_20
    9  A    between atoms: C_14  and  C_24
   10  A    between atoms: C_19  and  C_29
   11  A    between atoms: O_20  and  C_31
   12  A    between atoms: C_22  and  C_32
   13  A    between atoms: C_22  and  O_33
   14  A    between atoms: O_25  and  C_27
                            x       y       z     vdW  Elec       q    Type
                         _______ _______ _______ _____ _____    ______ ____

>  <TORSDO>
F 14

$$$$
=
 OpenBabel11042411553D

 37 39  0  0  1  0  0  0  0  0999 V2000
  187.6660  178.5330  141.3620 N   0  0  0  0  0  0  0  0  0  0  0  0
  191.0350  177.4430  140.8510 O   0  0  0  0  0  0  0  0  0  0  0  0
  187.3670  177.8420  142.4310 C   0  0  0  0  0  0  0  0  0  0  0  0
  188.2260  176.7660  142.8490 N   0  0  0  0  0  0  0  0  0  0  0  0
  188.7910  178.2190  140.4740 C   0  0  1  0  0  3  0  0  0  0  0  0
  189.8270  177.4130  141.2050 C   0  0  0  0  0  0  0  0  0  0  0  0
  189.3880  176.5520  142.3050 C   0  0  0  0  0  0  0  0  0  0  0  0
  183.9040  178.8280  144.7840 C   0  0  0  0  0  3  0  0  0  0  0  0
  183.7880  178.7910  143.3950 C   0  0  0  0  0  3  0  0  0  0  0  0
  184.6000  178.3930  140.8610 Cl  0  0  0  0  0  0  0  0  0  0  0  0
  185.2750  178.5760  147.1300 Cl  0  0  0  0  0  0  0  0  0  0  0  0
  186.1400  178.1770  143.1980 C   0  0  0  0  0  0  0  0  0  0  0  0
  185.1260  178.5350  145.3870 C   0  0  0  0  0  0  0  0  0  0  0  0
  184.8880  178.4680  142.5940 C   0  0  0  0  0  0  0  0  0  0  0  0
  186.2320  178.2130  144.6000 C   0  0  0  0  0  3  0  0  0  0  0  0
  190.2180  175.5250  142.7580 O   0  0  0  0  0  0  0  0  0  0  0  0
  191.4300  175.7810  143.4540 C   0  0  0  0  0  2  0  0  0  0  0  0
  191.1660  176.7340  144.6010 C   0  0  2  0  0  3  0  0  0  0  0  0
  191.7320  177.9780  144.3180 O   0  0  0  0  0  1  0  0  0  0  0  0
  191.7700  176.1680  145.8740 C   0  0  0  0  0  2  0  0  0  0  0  0
  191.9510  176.9990  148.0950 O   0  0  0  0  0  0  0  0  0  0  0  0
  191.2270  176.8740  147.0730 C   0  0  0  0  0  0  0  0  0  0  0  0
  189.2230  177.4850  148.1980 O   0  0  0  0  0  1  0  0  0  0  0  0
  189.9420  177.4130  147.0710 O   0  0  0  0  0  0  0  0  0  0  0  0
  188.2570  177.4340  139.2780 C   0  0  0  0  0  2  0  0  0  0  0  0
  186.5770  178.5080  137.9380 O   0  0  0  0  0  1  0  0  0  0  0  0
  187.9550  178.3350  138.0840 C   0  0  2  0  0  3  0  0  0  0  0  0
  187.6510  177.9730  135.6030 C   0  0  0  0  0  1  0  0  0  0  0  0
  188.5860  177.8040  136.7910 C   0  0  2  0  0  3  0  0  0  0  0  0
  188.9090  176.4500  136.9390 O   0  0  0  0  0  0  0  0  0  0  0  0
  188.4520  175.8080  135.7820 C   0  0  1  0  0  3  0  0  0  0  0  0
  190.5960  173.5200  136.8080 O   0  0  0  0  0  0  0  0  0  0  0  0
  189.6290  175.1450  135.0690 C   0  0  1  0  0  3  0  0  0  0  0  0
  190.8290  175.7950  135.3680 N   0  0  0  0  0  2  0  0  0  0  0  0
  190.3980  174.4750  136.0130 C   0  0  0  0  0  0  0  0  0  0  0  0
  186.9780  174.7420  137.3020 O   0  0  0  0  0  0  0  0  0  0  0  0
  187.4050  174.8020  136.1590 C   0  0  0  0  0  3  0  0  0  0  0  0
  1  3  2  0  0  0  0
  2  6  2  0  0  0  0
  3  4  1  0  0  0  0
  3 12  1  0  0  0  0
  5 25  1  6  0  0  0
  5  6  1  0  0  0  0
  5  1  1  0  0  0  0
  6  7  1  0  0  0  0
  7 16  1  0  0  0  0
  7  4  2  0  0  0  0
  8 13  1  0  0  0  0
  9  8  2  0  0  0  0
 10 14  1  0  0  0  0
 12 15  1  0  0  0  0
 13 11  1  0  0  0  0
 14 12  2  0  0  0  0
 14  9  1  0  0  0  0
 15 13  2  0  0  0  0
 16 17  1  0  0  0  0
 17 18  1  0  0  0  0
 18 19  1  6  0  0  0
 18 20  1  0  0  0  0
 20 22  1  0  0  0  0
 22 21  2  0  0  0  0
 24 22  1  0  0  0  0
 24 23  1  0  0  0  0
 27 26  1  6  0  0  0
 27 25  1  0  0  0  0
 29 28  1  6  0  0  0
 29 30  1  0  0  0  0
 29 27  1  0  0  0  0
 31 37  1  1  0  0  0
 31 30  1  0  0  0  0
 33 34  1  0  0  0  0
 33 31  1  1  0  0  0
 33 35  1  0  0  0  0
 34 35  1  0  0  0  0
 35 32  2  0  0  0  0
 37 36  2  0  0  0  0
M  END
>  <MODEL>
9

>  <REMARK>
 VINA RESULT:      -7.7      2.548      7.534
  Name = 
  14 active torsions:
  status: ('A' for Active; 'I' for Inactive)
    1  A    between atoms: C_7  and  C_10
    2  A    between atoms: C_7  and  O_25
    3  A    between atoms: C_8  and  C_29
    4  A    between atoms: C_8  and  C_31
    5  A    between atoms: C_9  and  C_12
    6  A    between atoms: C_10  and  C_32
    7  A    between atoms: C_12  and  CA_17
    8  A    between atoms: C_12  and  O_20
    9  A    between atoms: C_14  and  C_24
   10  A    between atoms: C_19  and  C_29
   11  A    between atoms: O_20  and  C_31
   12  A    between atoms: C_22  and  C_32
   13  A    between atoms: C_22  and  O_33
   14  A    between atoms: O_25  and  C_27
                            x       y       z     vdW  Elec       q    Type
                         _______ _______ _______ _____ _____    ______ ____

>  <TORSDO>
F 14

$$$$
