=
 OpenBabel11042413143D

 63 70  0  0  1  0  0  0  0  0999 V2000
  186.4040  177.9490  144.4710 C   0  0  1  0  0  3  0  0  0  0  0  0
  186.9100  178.3500  141.3930 C   0  0  0  0  0  2  0  0  0  0  0  0
  186.0270  179.4560  141.9510 C   0  0  0  0  0  2  0  0  0  0  0  0
  184.8700  178.8910  142.7270 C   0  0  0  0  0  0  0  0  0  0  0  0
  187.9100  177.8780  142.4440 C   0  0  1  0  0  3  0  0  0  0  0  0
  187.2460  177.0650  143.5510 C   0  0  0  0  0  2  0  0  0  0  0  0
  185.0550  178.2280  143.8730 C   0  0  0  0  0  3  0  0  0  0  0  0
  184.9440  176.9870  146.1240 O   0  0  0  0  0  1  0  0  0  0  0  0
  186.2730  177.3390  145.8760 C   0  0  2  0  0  3  0  0  0  0  0  0
  186.4980  179.4990  147.0050 C   0  0  0  0  0  2  0  0  0  0  0  0
  186.8320  178.2120  146.9810 C   0  0  0  0  0  0  0  0  0  0  0  0
  188.0730  176.3680  147.8430 O   0  0  0  0  0  1  0  0  0  0  0  0
  187.9280  177.7550  147.9010 C   0  0  1  0  0  3  0  0  0  0  0  0
  189.1860  178.4060  147.5620 N   0  0  0  0  0  2  0  0  0  0  0  0
  190.1770  178.3180  145.2220 C   0  0  0  0  0  2  0  0  0  0  0  0
  191.9500  176.1430  146.2910 C   0  0  0  0  0  2  0  0  0  0  0  0
  191.3930  177.8510  144.4420 C   0  0  0  0  0  2  0  0  0  0  0  0
  190.8830  176.8210  147.0980 C   0  0  0  0  0  3  0  0  0  0  0  0
  191.5100  176.0460  144.5320 S   0  0  0  0  0  0  0  0  0  0  0  0
  190.1380  177.8410  146.6580 C   0  0  0  0  0  0  0  0  0  0  0  0
  189.0470  177.0910  141.8010 C   0  0  0  0  0  2  0  0  0  0  0  0
  189.4780  177.6760  140.4640 C   0  0  0  0  0  2  0  0  0  0  0  0
  189.9070  176.5690  139.5580 C   0  0  0  0  0  3  0  0  0  0  0  0
  189.5040  176.4570  138.2810 C   0  0  0  0  0  0  0  0  0  0  0  0
  188.9640  178.8590  137.9620 C   0  0  0  0  0  2  0  0  0  0  0  0
  189.1830  178.2650  136.5920 C   0  0  0  0  0  2  0  0  0  0  0  0
  188.5220  177.4320  137.6790 C   0  0  0  0  0  3  0  0  0  0  0  0
  189.9200  175.2530  137.4740 C   0  0  2  0  0  3  0  0  0  0  0  0
  191.7340  175.9840  135.9060 O   0  0  0  0  0  0  0  0  0  0  0  0
  191.3590  175.3260  137.0710 C   0  0  0  0  0  0  0  0  0  0  0  0
  192.2400  174.8070  137.8070 O   0  0  0  0  0  1  0  0  0  0  0  0
  188.8230  174.9950  136.0410 S   0  0  0  0  0  0  0  0  0  0  0  0
  188.0000  173.5570  136.7880 C   0  0  0  0  0  2  0  0  0  0  0  0
  186.8210  173.9620  137.4220 O   0  0  0  0  0  0  0  0  0  0  0  0
  185.3350  173.4360  135.4850 C   0  0  0  0  0  2  0  0  0  0  0  0
  186.2450  172.2440  135.7790 C   0  0  2  0  0  3  0  0  0  0  0  0
  184.8660  172.6200  137.7920 O   0  0  0  0  0  1  0  0  0  0  0  0
  185.4900  171.0680  135.7620 O   0  0  0  0  0  1  0  0  0  0  0  0
  185.7940  173.1650  136.8990 C   0  0  1  0  0  0  0  0  0  0  0  0
  183.5640  179.0490  142.2600 O   0  0  0  0  0  0  0  0  0  0  0  0
  182.4440  178.4980  142.9410 C   0  0  0  0  0  2  0  0  0  0  0  0
  181.2910  179.4830  142.9140 C   0  0  0  0  0  2  0  0  0  0  0  0
  179.5780  177.7720  139.3750 C   0  0  0  0  0  0  0  0  0  0  0  0
  179.3700  177.0260  138.2880 C   0  0  0  0  0  2  0  0  0  0  0  0
  180.4660  179.9520  140.4660 C   0  0  0  0  0  3  0  0  0  0  0  0
  179.4930  175.6890  140.8410 C   0  0  0  0  0  3  0  0  0  0  0  0
  179.5000  177.1480  140.7050 C   0  0  0  0  0  0  0  0  0  0  0  0
  179.9330  177.9810  141.5800 C   0  0  0  0  0  3  0  0  0  0  0  0
  179.2590  174.9510  139.7510 C   0  0  0  0  0  3  0  0  0  0  0  0
  180.0240  179.1540  139.2800 N   0  0  0  0  0  0  0  0  0  0  0  0
  178.9380  175.5790  138.4050 C   0  0  2  0  0  3  0  0  0  0  0  0
  180.3770  179.1760  141.7780 C   0  0  0  0  0  0  0  0  0  0  0  0
  179.5490  174.7980  137.3410 N   0  0  0  0  0  2  0  0  0  0  0  0
  180.2200  175.6430  135.2740 O   0  0  0  0  0  1  0  0  0  0  0  0
  180.4930  175.6600  136.6420 C   0  0  2  0  0  3  0  0  0  0  0  0
  181.9340  175.2190  136.8970 C   0  0  0  0  0  2  0  0  0  0  0  0
  182.9380  176.2900  136.4940 C   0  0  1  0  0  3  0  0  0  0  0  0
  184.7640  177.7900  138.0350 C   0  0  0  0  0  2  0  0  0  0  0  0
  185.1740  176.8500  136.9820 C   0  0  1  0  0  3  0  0  0  0  0  0
  182.6960  177.4470  137.2020 O   0  0  0  0  0  0  0  0  0  0  0  0
  183.7850  176.6660  137.6800 C   0  0  1  0  0  0  0  0  0  0  0  0
  185.2320  177.6550  135.6800 C   0  0  0  0  0  2  0  0  0  0  0  0
  185.8790  176.8200  134.5950 C   0  0  0  0  0  1  0  0  0  0  0  0
  1  9  1  1  0  0  0
  2  3  1  0  0  0  0
  2  5  1  0  0  0  0
  3  4  1  0  0  0  0
  4  7  2  0  0  0  0
  5 21  1  6  0  0  0
  5  6  1  0  0  0  0
  6  1  1  0  0  0  0
  7  1  1  0  0  0  0
  9  8  1  1  0  0  0
  9 11  1  0  0  0  0
 11 10  2  0  0  0  0
 11 13  1  0  0  0  0
 13 12  1  6  0  0  0
 14 13  1  0  0  0  0
 15 20  1  0  0  0  0
 16 18  1  0  0  0  0
 17 19  1  0  0  0  0
 17 15  1  0  0  0  0
 19 16  1  0  0  0  0
 20 18  2  0  0  0  0
 20 14  1  0  0  0  0
 22 21  1  0  0  0  0
 23 22  1  0  0  0  0
 24 23  2  0  0  0  0
 26 27  1  0  0  0  0
 26 25  1  0  0  0  0
 27 25  1  0  0  0  0
 27 24  1  0  0  0  0
 28 32  1  6  0  0  0
 28 24  1  0  0  0  0
 29 30  2  0  0  0  0
 30 28  1  0  0  0  0
 30 31  1  0  0  0  0
 32 33  1  0  0  0  0
 33 34  1  0  0  0  0
 35 36  1  0  0  0  0
 35 39  1  0  0  0  0
 36 38  1  1  0  0  0
 36 39  1  0  0  0  0
 39 34  1  0  0  0  0
 39 37  1  1  0  0  0
 40  4  1  0  0  0  0
 40 41  1  0  0  0  0
 42 41  1  0  0  0  0
 43 47  1  0  0  0  0
 44 51  1  0  0  0  0
 44 43  1  0  0  0  0
 45 52  2  0  0  0  0
 47 46  1  0  0  0  0
 47 48  2  0  0  0  0
 48 52  1  0  0  0  0
 49 46  2  0  0  0  0
 50 43  2  0  0  0  0
 50 45  1  0  0  0  0
 51 53  1  6  0  0  0
 51 49  1  0  0  0  0
 52 42  1  0  0  0  0
 55 54  1  6  0  0  0
 55 56  1  0  0  0  0
 55 53  1  0  0  0  0
 57 56  1  1  0  0  0
 57 60  1  0  0  0  0
 57 61  1  0  0  0  0
 59 62  1  6  0  0  0
 59 61  1  0  0  0  0
 59 58  1  0  0  0  0
 60 61  1  0  0  0  0
 61 58  1  1  0  0  0
 63 62  1  0  0  0  0
M  END
>  <MODEL>
1

>  <REMARK>
 VINA RESULT:      -6.2      0.000      0.000
  Name = 
  24 active torsions:
  status: ('A' for Active; 'I' for Inactive)
    1  A    between atoms: C_1  and  C_49
    2  A    between atoms: C_3  and  C_52
    3  A    between atoms: C_5  and  C_10
    4  A    between atoms: C_5  and  C_26
    5  A    between atoms: C_6  and  O_28
    6  A    between atoms: C_6  and  S_29
    7  A    between atoms: O_8  and  C_21
    8  A    between atoms: O_8  and  C_61
    9  A    between atoms: N_13  and  C_26
   10  A    between atoms: N_13  and  C_58
   11  A    between atoms: C_17  and  C_22
   12  A    between atoms: C_17  and  C_42
   13  A    between atoms: C_18  and  C_43
   14  A    between atoms: O_28  and  C_45
   15  A    between atoms: S_29  and  C_52
   16  A    between atoms: C_30  and  C_59
   17  A    between atoms: C_30  and  C_61
   18  A    between atoms: N_34  and  C_60
   19  A    between atoms: N_34  and  C_63
   20  A    between atoms: C_37  and  C_53
   21  A    between atoms: C_40  and  C_49
   22  A    between atoms: C_40  and  C_60
   23  A    between atoms: C_42  and  C_44
   24  A    between atoms: C_52  and  C_53
                            x       y       z     vdW  Elec       q    Type
                         _______ _______ _______ _____ _____    ______ ____

>  <TORSDO>
F 24

$$$$
=
 OpenBabel11042413143D

 63 70  0  0  1  0  0  0  0  0999 V2000
  190.8850  176.4170  139.0760 C   0  0  1  0  0  3  0  0  0  0  0  0
  189.4450  178.1120  141.3010 C   0  0  0  0  0  2  0  0  0  0  0  0
  188.4340  177.4620  140.3680 C   0  0  0  0  0  2  0  0  0  0  0  0
  188.7620  177.7420  138.9270 C   0  0  0  0  0  0  0  0  0  0  0  0
  190.6760  177.2260  141.4610 C   0  0  1  0  0  3  0  0  0  0  0  0
  191.5440  177.2080  140.2060 C   0  0  0  0  0  2  0  0  0  0  0  0
  189.8640  177.2480  138.3530 C   0  0  0  0  0  3  0  0  0  0  0  0
  192.5900  176.8870  137.4450 O   0  0  0  0  0  1  0  0  0  0  0  0
  191.9270  175.8470  138.1020 C   0  0  2  0  0  3  0  0  0  0  0  0
  190.1910  174.2760  137.3900 C   0  0  0  0  0  2  0  0  0  0  0  0
  191.3670  174.8370  137.1210 C   0  0  0  0  0  0  0  0  0  0  0  0
  191.9390  174.9620  134.8110 O   0  0  0  0  0  1  0  0  0  0  0  0
  192.1770  174.2620  135.9960 C   0  0  1  0  0  3  0  0  0  0  0  0
  193.5960  174.2900  136.3180 N   0  0  0  0  0  2  0  0  0  0  0  0
  194.9140  172.7220  137.8260 C   0  0  0  0  0  2  0  0  0  0  0  0
  195.5220  171.1780  135.3230 C   0  0  0  0  0  2  0  0  0  0  0  0
  195.4990  171.3220  137.8970 C   0  0  0  0  0  2  0  0  0  0  0  0
  194.7290  172.4520  135.3450 C   0  0  0  0  0  3  0  0  0  0  0  0
  196.7810  171.1410  136.6310 S   0  0  0  0  0  0  0  0  0  0  0  0
  194.3880  173.1080  136.4600 C   0  0  0  0  0  0  0  0  0  0  0  0
  191.4930  177.6420  142.6800 C   0  0  0  0  0  2  0  0  0  0  0  0
  191.1360  176.8410  143.9230 C   0  0  0  0  0  2  0  0  0  0  0  0
  189.9850  177.4940  144.6150 C   0  0  0  0  0  3  0  0  0  0  0  0
  189.6480  177.2450  145.8920 C   0  0  0  0  0  0  0  0  0  0  0  0
  191.8600  176.2040  146.3250 C   0  0  0  0  0  2  0  0  0  0  0  0
  191.4310  176.8880  147.6000 C   0  0  0  0  0  2  0  0  0  0  0  0
  190.3910  176.2210  146.7150 C   0  0  0  0  0  3  0  0  0  0  0  0
  188.4140  177.8870  146.4730 C   0  0  2  0  0  3  0  0  0  0  0  0
  187.7710  176.9890  148.7230 O   0  0  0  0  0  1  0  0  0  0  0  0
  188.4620  177.9300  147.9680 C   0  0  0  0  0  0  0  0  0  0  0  0
  189.1530  178.8100  148.5460 O   0  0  0  0  0  0  0  0  0  0  0  0
  186.8920  177.0900  145.8620 S   0  0  0  0  0  0  0  0  0  0  0  0
  186.4810  178.4710  144.7530 C   0  0  0  0  0  2  0  0  0  0  0  0
  186.2420  177.9870  143.4620 O   0  0  0  0  0  0  0  0  0  0  0  0
  185.3520  179.0980  141.4110 C   0  0  0  0  0  2  0  0  0  0  0  0
  184.3180  178.1150  141.9580 C   0  0  2  0  0  3  0  0  0  0  0  0
  184.7040  179.8120  143.7080 O   0  0  0  0  0  1  0  0  0  0  0  0
  183.0600  178.7220  141.9690 O   0  0  0  0  0  1  0  0  0  0  0  0
  185.2750  178.8280  142.8950 C   0  0  1  0  0  0  0  0  0  0  0  0
  187.9130  178.5340  138.1520 O   0  0  0  0  0  0  0  0  0  0  0  0
  187.6980  178.2840  136.7690 C   0  0  0  0  0  2  0  0  0  0  0  0
  186.9340  176.9850  136.5940 C   0  0  0  0  0  2  0  0  0  0  0  0
  182.6680  176.5520  136.5890 C   0  0  0  0  0  0  0  0  0  0  0  0
  181.4340  176.0540  136.6940 C   0  0  0  0  0  2  0  0  0  0  0  0
  184.7490  177.1080  135.1430 C   0  0  0  0  0  3  0  0  0  0  0  0
  183.0510  176.1730  139.0800 C   0  0  0  0  0  3  0  0  0  0  0  0
  183.4670  176.7650  137.8050 C   0  0  0  0  0  0  0  0  0  0  0  0
  184.6730  177.0440  137.4670 C   0  0  0  0  0  3  0  0  0  0  0  0
  181.8040  175.7000  139.1830 C   0  0  0  0  0  3  0  0  0  0  0  0
  183.3030  176.7540  135.2950 N   0  0  0  0  0  0  0  0  0  0  0  0
  180.8000  175.8190  138.0490 C   0  0  2  0  0  3  0  0  0  0  0  0
  185.4740  177.2580  136.4790 C   0  0  0  0  0  0  0  0  0  0  0  0
  179.9700  174.6250  138.0000 N   0  0  0  0  0  2  0  0  0  0  0  0
  178.9530  173.9480  136.0140 O   0  0  0  0  0  1  0  0  0  0  0  0
  180.1670  173.9980  136.7000 C   0  0  2  0  0  3  0  0  0  0  0  0
  180.7460  172.5920  136.8490 C   0  0  0  0  0  2  0  0  0  0  0  0
  182.2240  172.6190  137.2110 C   0  0  1  0  0  3  0  0  0  0  0  0
  184.4980  171.7480  135.7870 C   0  0  0  0  0  2  0  0  0  0  0  0
  184.2650  173.1510  136.1590 C   0  0  1  0  0  3  0  0  0  0  0  0
  182.7450  171.3450  137.1480 O   0  0  0  0  0  0  0  0  0  0  0  0
  183.0470  172.1750  136.0320 C   0  0  1  0  0  0  0  0  0  0  0  0
  184.9000  173.3440  137.5400 C   0  0  0  0  0  2  0  0  0  0  0  0
  186.4090  173.3210  137.4130 C   0  0  0  0  0  1  0  0  0  0  0  0
  1  9  1  6  0  0  0
  1  6  1  0  0  0  0
  2  5  1  0  0  0  0
  3  2  1  0  0  0  0
  4  3  1  0  0  0  0
  5 21  1  1  0  0  0
  6  5  1  0  0  0  0
  7  4  2  0  0  0  0
  7  1  1  0  0  0  0
  9  8  1  6  0  0  0
 11 10  2  0  0  0  0
 11  9  1  0  0  0  0
 13 12  1  6  0  0  0
 13 14  1  0  0  0  0
 13 11  1  0  0  0  0
 14 20  1  0  0  0  0
 15 17  1  0  0  0  0
 16 18  1  0  0  0  0
 16 19  1  0  0  0  0
 18 20  2  0  0  0  0
 19 17  1  0  0  0  0
 20 15  1  0  0  0  0
 21 22  1  0  0  0  0
 22 23  1  0  0  0  0
 23 24  2  0  0  0  0
 24 28  1  0  0  0  0
 24 27  1  0  0  0  0
 25 27  1  0  0  0  0
 25 26  1  0  0  0  0
 27 26  1  0  0  0  0
 28 32  1  1  0  0  0
 28 30  1  0  0  0  0
 30 31  2  0  0  0  0
 30 29  1  0  0  0  0
 33 32  1  0  0  0  0
 34 33  1  0  0  0  0
 35 36  1  0  0  0  0
 35 39  1  0  0  0  0
 36 38  1  1  0  0  0
 36 39  1  0  0  0  0
 39 34  1  0  0  0  0
 39 37  1  1  0  0  0
 40  4  1  0  0  0  0
 41 40  1  0  0  0  0
 42 41  1  0  0  0  0
 43 44  1  0  0  0  0
 43 47  1  0  0  0  0
 44 51  1  0  0  0  0
 45 50  1  0  0  0  0
 45 52  2  0  0  0  0
 46 49  2  0  0  0  0
 47 46  1  0  0  0  0
 48 47  2  0  0  0  0
 50 43  2  0  0  0  0
 51 53  1  6  0  0  0
 51 49  1  0  0  0  0
 52 42  1  0  0  0  0
 52 48  1  0  0  0  0
 55 54  1  1  0  0  0
 55 56  1  0  0  0  0
 55 53  1  0  0  0  0
 57 56  1  6  0  0  0
 58 59  1  0  0  0  0
 59 62  1  1  0  0  0
 60 57  1  0  0  0  0
 61 58  1  6  0  0  0
 61 59  1  0  0  0  0
 61 60  1  0  0  0  0
 61 57  1  0  0  0  0
 63 62  1  0  0  0  0
M  END
>  <MODEL>
2

>  <REMARK>
 VINA RESULT:      -6.2      2.989      8.207
  Name = 
  24 active torsions:
  status: ('A' for Active; 'I' for Inactive)
    1  A    between atoms: C_1  and  C_49
    2  A    between atoms: C_3  and  C_52
    3  A    between atoms: C_5  and  C_10
    4  A    between atoms: C_5  and  C_26
    5  A    between atoms: C_6  and  O_28
    6  A    between atoms: C_6  and  S_29
    7  A    between atoms: O_8  and  C_21
    8  A    between atoms: O_8  and  C_61
    9  A    between atoms: N_13  and  C_26
   10  A    between atoms: N_13  and  C_58
   11  A    between atoms: C_17  and  C_22
   12  A    between atoms: C_17  and  C_42
   13  A    between atoms: C_18  and  C_43
   14  A    between atoms: O_28  and  C_45
   15  A    between atoms: S_29  and  C_52
   16  A    between atoms: C_30  and  C_59
   17  A    between atoms: C_30  and  C_61
   18  A    between atoms: N_34  and  C_60
   19  A    between atoms: N_34  and  C_63
   20  A    between atoms: C_37  and  C_53
   21  A    between atoms: C_40  and  C_49
   22  A    between atoms: C_40  and  C_60
   23  A    between atoms: C_42  and  C_44
   24  A    between atoms: C_52  and  C_53
                            x       y       z     vdW  Elec       q    Type
                         _______ _______ _______ _____ _____    ______ ____

>  <TORSDO>
F 24

$$$$
=
 OpenBabel11042413143D

 63 70  0  0  1  0  0  0  0  0999 V2000
  186.1960  178.0850  144.4930 C   0  0  1  0  0  3  0  0  0  0  0  0
  186.5510  178.5220  141.3980 C   0  0  0  0  0  2  0  0  0  0  0  0
  185.7600  179.6610  142.0250 C   0  0  0  0  0  2  0  0  0  0  0  0
  184.6200  179.1410  142.8560 C   0  0  0  0  0  0  0  0  0  0  0  0
  187.5820  177.9790  142.3830 C   0  0  1  0  0  3  0  0  0  0  0  0
  186.9390  177.1780  143.5120 C   0  0  0  0  0  2  0  0  0  0  0  0
  184.8330  178.4460  143.9770 C   0  0  0  0  0  3  0  0  0  0  0  0
  184.7770  177.2290  146.2370 O   0  0  0  0  0  1  0  0  0  0  0  0
  186.1120  177.4550  145.8920 C   0  0  2  0  0  3  0  0  0  0  0  0
  186.4240  179.4710  147.2440 C   0  0  0  0  0  2  0  0  0  0  0  0
  186.8390  178.2380  146.9660 C   0  0  0  0  0  0  0  0  0  0  0  0
  188.3130  176.4130  147.3890 O   0  0  0  0  0  1  0  0  0  0  0  0
  188.1440  177.7890  147.5560 C   0  0  1  0  0  3  0  0  0  0  0  0
  189.2560  178.5070  146.9500 N   0  0  0  0  0  2  0  0  0  0  0  0
  190.2590  178.3620  144.6170 C   0  0  0  0  0  2  0  0  0  0  0  0
  191.9170  176.1080  145.7070 C   0  0  0  0  0  2  0  0  0  0  0  0
  191.4570  177.8340  143.8470 C   0  0  0  0  0  2  0  0  0  0  0  0
  190.8770  176.8400  146.5040 C   0  0  0  0  0  3  0  0  0  0  0  0
  191.4850  176.0260  143.9450 S   0  0  0  0  0  0  0  0  0  0  0  0
  190.1870  177.8930  146.0540 C   0  0  0  0  0  0  0  0  0  0  0  0
  188.6390  177.1480  141.6620 C   0  0  0  0  0  2  0  0  0  0  0  0
  189.0660  177.7670  140.3400 C   0  0  0  0  0  2  0  0  0  0  0  0
  189.0290  176.7210  139.2730 C   0  0  0  0  0  3  0  0  0  0  0  0
  188.5380  176.9360  138.0410 C   0  0  0  0  0  0  0  0  0  0  0  0
  189.0050  179.2290  137.2130 C   0  0  0  0  0  2  0  0  0  0  0  0
  188.1350  178.5510  136.1830 C   0  0  0  0  0  2  0  0  0  0  0  0
  187.9230  178.2600  137.6600 C   0  0  0  0  0  3  0  0  0  0  0  0
  188.4620  175.7910  137.0630 C   0  0  2  0  0  3  0  0  0  0  0  0
  187.1920  173.6400  137.2620 O   0  0  0  0  0  0  0  0  0  0  0  0
  187.1820  175.0280  137.2000 C   0  0  0  0  0  0  0  0  0  0  0  0
  186.0910  175.6500  137.2840 O   0  0  0  0  0  1  0  0  0  0  0  0
  189.9210  174.7040  137.1900 S   0  0  0  0  0  0  0  0  0  0  0  0
  191.0490  175.9510  136.4990 C   0  0  0  0  0  2  0  0  0  0  0  0
  191.9200  175.3470  135.5850 O   0  0  0  0  0  0  0  0  0  0  0  0
  194.1220  176.4300  136.0440 C   0  0  0  0  0  2  0  0  0  0  0  0
  193.3430  176.2690  137.3480 C   0  0  2  0  0  3  0  0  0  0  0  0
  193.7160  174.0040  136.4390 O   0  0  0  0  0  1  0  0  0  0  0  0
  194.1910  175.7630  138.3360 O   0  0  0  0  0  1  0  0  0  0  0  0
  193.1690  175.2720  136.2170 C   0  0  1  0  0  0  0  0  0  0  0  0
  183.3000  179.3750  142.4660 O   0  0  0  0  0  0  0  0  0  0  0  0
  182.1920  178.9240  143.2330 C   0  0  0  0  0  2  0  0  0  0  0  0
  180.8970  179.2830  142.5290 C   0  0  0  0  0  2  0  0  0  0  0  0
  180.1820  177.0840  138.9170 C   0  0  0  0  0  0  0  0  0  0  0  0
  180.0950  176.7290  137.6350 C   0  0  0  0  0  2  0  0  0  0  0  0
  179.0900  178.0850  141.0480 C   0  0  0  0  0  3  0  0  0  0  0  0
  182.7150  177.2670  138.7140 C   0  0  0  0  0  3  0  0  0  0  0  0
  181.5070  177.2240  139.5410 C   0  0  0  0  0  0  0  0  0  0  0  0
  181.3670  177.7680  140.6950 C   0  0  0  0  0  3  0  0  0  0  0  0
  182.6240  176.8840  137.4360 C   0  0  0  0  0  3  0  0  0  0  0  0
  179.0080  177.4830  139.6810 N   0  0  0  0  0  0  0  0  0  0  0  0
  181.3310  176.3490  136.8450 C   0  0  2  0  0  3  0  0  0  0  0  0
  180.5230  178.2130  141.5620 C   0  0  0  0  0  0  0  0  0  0  0  0
  181.1930  176.8050  135.4710 N   0  0  0  0  0  2  0  0  0  0  0  0
  179.0430  176.4880  134.6250 O   0  0  0  0  0  1  0  0  0  0  0  0
  179.8610  177.3770  135.3230 C   0  0  2  0  0  3  0  0  0  0  0  0
  179.9160  178.7210  134.5980 C   0  0  0  0  0  2  0  0  0  0  0  0
  180.5060  179.8180  135.4730 C   0  0  1  0  0  3  0  0  0  0  0  0
  179.7020  182.4900  135.8870 C   0  0  0  0  0  2  0  0  0  0  0  0
  179.7180  181.4760  136.9510 C   0  0  1  0  0  3  0  0  0  0  0  0
  180.8070  180.9200  134.7030 O   0  0  0  0  0  0  0  0  0  0  0  0
  179.6050  181.0230  135.4570 C   0  0  1  0  0  0  0  0  0  0  0  0
  181.1110  181.5370  137.5870 C   0  0  0  0  0  2  0  0  0  0  0  0
  181.0520  180.9740  138.9920 C   0  0  0  0  0  1  0  0  0  0  0  0
  1  9  1  1  0  0  0
  2  3  1  0  0  0  0
  2  5  1  0  0  0  0
  3  4  1  0  0  0  0
  4  7  2  0  0  0  0
  5 21  1  6  0  0  0
  5  6  1  0  0  0  0
  6  1  1  0  0  0  0
  7  1  1  0  0  0  0
  9  8  1  1  0  0  0
  9 11  1  0  0  0  0
 11 10  2  0  0  0  0
 11 13  1  0  0  0  0
 13 12  1  6  0  0  0
 14 13  1  0  0  0  0
 15 20  1  0  0  0  0
 16 18  1  0  0  0  0
 17 19  1  0  0  0  0
 17 15  1  0  0  0  0
 19 16  1  0  0  0  0
 20 18  2  0  0  0  0
 20 14  1  0  0  0  0
 22 21  1  0  0  0  0
 23 22  1  0  0  0  0
 24 23  2  0  0  0  0
 25 27  1  0  0  0  0
 26 25  1  0  0  0  0
 26 27  1  0  0  0  0
 27 24  1  0  0  0  0
 28 32  1  1  0  0  0
 28 30  1  0  0  0  0
 28 24  1  0  0  0  0
 30 29  2  0  0  0  0
 30 31  1  0  0  0  0
 33 32  1  0  0  0  0
 34 39  1  0  0  0  0
 34 33  1  0  0  0  0
 35 39  1  0  0  0  0
 35 36  1  0  0  0  0
 36 38  1  1  0  0  0
 39 37  1  1  0  0  0
 39 36  1  0  0  0  0
 40  4  1  0  0  0  0
 40 41  1  0  0  0  0
 42 41  1  0  0  0  0
 43 47  2  0  0  0  0
 43 50  1  0  0  0  0
 44 43  1  0  0  0  0
 45 52  1  0  0  0  0
 46 47  1  0  0  0  0
 47 48  1  0  0  0  0
 48 52  2  0  0  0  0
 49 46  2  0  0  0  0
 50 45  2  0  0  0  0
 51 53  1  6  0  0  0
 51 49  1  0  0  0  0
 51 44  1  0  0  0  0
 52 42  1  0  0  0  0
 55 54  1  6  0  0  0
 55 53  1  0  0  0  0
 56 55  1  0  0  0  0
 57 56  1  6  0  0  0
 58 59  1  0  0  0  0
 59 62  1  6  0  0  0
 60 61  1  0  0  0  0
 60 57  1  0  0  0  0
 61 57  1  0  0  0  0
 61 58  1  6  0  0  0
 61 59  1  0  0  0  0
 62 63  1  0  0  0  0
M  END
>  <MODEL>
3

>  <REMARK>
 VINA RESULT:      -6.0      1.884      3.855
  Name = 
  24 active torsions:
  status: ('A' for Active; 'I' for Inactive)
    1  A    between atoms: C_1  and  C_49
    2  A    between atoms: C_3  and  C_52
    3  A    between atoms: C_5  and  C_10
    4  A    between atoms: C_5  and  C_26
    5  A    between atoms: C_6  and  O_28
    6  A    between atoms: C_6  and  S_29
    7  A    between atoms: O_8  and  C_21
    8  A    between atoms: O_8  and  C_61
    9  A    between atoms: N_13  and  C_26
   10  A    between atoms: N_13  and  C_58
   11  A    between atoms: C_17  and  C_22
   12  A    between atoms: C_17  and  C_42
   13  A    between atoms: C_18  and  C_43
   14  A    between atoms: O_28  and  C_45
   15  A    between atoms: S_29  and  C_52
   16  A    between atoms: C_30  and  C_59
   17  A    between atoms: C_30  and  C_61
   18  A    between atoms: N_34  and  C_60
   19  A    between atoms: N_34  and  C_63
   20  A    between atoms: C_37  and  C_53
   21  A    between atoms: C_40  and  C_49
   22  A    between atoms: C_40  and  C_60
   23  A    between atoms: C_42  and  C_44
   24  A    between atoms: C_52  and  C_53
                            x       y       z     vdW  Elec       q    Type
                         _______ _______ _______ _____ _____    ______ ____

>  <TORSDO>
F 24

$$$$
=
 OpenBabel11042413143D

 63 70  0  0  1  0  0  0  0  0999 V2000
  186.1430  178.0200  144.4620 C   0  0  1  0  0  3  0  0  0  0  0  0
  186.2670  178.5920  141.3710 C   0  0  0  0  0  2  0  0  0  0  0  0
  185.3850  179.6080  142.0810 C   0  0  0  0  0  2  0  0  0  0  0  0
  184.3630  178.9300  142.9510 C   0  0  0  0  0  0  0  0  0  0  0  0
  187.4090  178.1450  142.2780 C   0  0  1  0  0  3  0  0  0  0  0  0
  186.9290  177.2380  143.4090 C   0  0  0  0  0  2  0  0  0  0  0  0
  184.7190  178.2310  144.0330 C   0  0  0  0  0  3  0  0  0  0  0  0
  184.9280  177.0080  146.2750 O   0  0  0  0  0  1  0  0  0  0  0  0
  186.2130  177.3410  145.8380 C   0  0  2  0  0  3  0  0  0  0  0  0
  186.5990  179.4010  147.1030 C   0  0  0  0  0  2  0  0  0  0  0  0
  186.9650  178.1410  146.8820 C   0  0  0  0  0  0  0  0  0  0  0  0
  188.3490  176.2750  147.4160 O   0  0  0  0  0  1  0  0  0  0  0  0
  188.2470  177.6650  147.5020 C   0  0  1  0  0  3  0  0  0  0  0  0
  189.3930  178.2920  146.8590 N   0  0  0  0  0  2  0  0  0  0  0  0
  190.3210  177.7160  144.5620 C   0  0  0  0  0  2  0  0  0  0  0  0
  192.1960  175.8790  146.0220 C   0  0  0  0  0  2  0  0  0  0  0  0
  191.5310  177.1210  143.8620 C   0  0  0  0  0  2  0  0  0  0  0  0
  191.1280  176.6900  146.6970 C   0  0  0  0  0  3  0  0  0  0  0  0
  191.7100  175.3850  144.3430 S   0  0  0  0  0  0  0  0  0  0  0  0
  190.3380  177.5680  146.0680 C   0  0  0  0  0  0  0  0  0  0  0  0
  188.5120  177.4680  141.4720 C   0  0  0  0  0  2  0  0  0  0  0  0
  188.7990  178.1830  140.1610 C   0  0  0  0  0  2  0  0  0  0  0  0
  189.8360  177.4210  139.4010 C   0  0  0  0  0  3  0  0  0  0  0  0
  189.7670  177.1910  138.0790 C   0  0  0  0  0  0  0  0  0  0  0  0
  188.6610  179.1460  137.0230 C   0  0  0  0  0  2  0  0  0  0  0  0
  189.0310  178.1900  135.9150 C   0  0  0  0  0  2  0  0  0  0  0  0
  188.5830  177.6470  137.2630 C   0  0  0  0  0  3  0  0  0  0  0  0
  190.8180  176.3340  137.4200 C   0  0  2  0  0  3  0  0  0  0  0  0
  190.3930  173.8890  137.7750 O   0  0  0  0  0  1  0  0  0  0  0  0
  190.2610  175.0170  136.9750 C   0  0  0  0  0  0  0  0  0  0  0  0
  189.6480  174.9380  135.8780 O   0  0  0  0  0  0  0  0  0  0  0  0
  192.2820  176.1290  138.4880 S   0  0  0  0  0  0  0  0  0  0  0  0
  193.4500  176.2490  137.1000 C   0  0  0  0  0  2  0  0  0  0  0  0
  193.8230  174.9670  136.6830 O   0  0  0  0  0  0  0  0  0  0  0  0
  195.9950  173.8290  136.2110 C   0  0  0  0  0  2  0  0  0  0  0  0
  196.1190  175.3230  135.9200 C   0  0  2  0  0  3  0  0  0  0  0  0
  195.5760  175.0930  138.3170 O   0  0  0  0  0  1  0  0  0  0  0  0
  197.3080  175.8070  136.4720 O   0  0  0  0  0  1  0  0  0  0  0  0
  195.1800  174.8240  137.0030 C   0  0  1  0  0  0  0  0  0  0  0  0
  183.0040  179.0180  142.6410 O   0  0  0  0  0  0  0  0  0  0  0  0
  181.9900  178.6910  143.5810 C   0  0  0  0  0  2  0  0  0  0  0  0
  180.7300  179.4780  143.2730 C   0  0  0  0  0  2  0  0  0  0  0  0
  180.0730  177.4460  139.5540 C   0  0  0  0  0  0  0  0  0  0  0  0
  180.1800  176.6120  138.5180 C   0  0  0  0  0  2  0  0  0  0  0  0
  180.6090  179.7300  140.6620 C   0  0  0  0  0  3  0  0  0  0  0  0
  179.6040  175.4810  141.1090 C   0  0  0  0  0  3  0  0  0  0  0  0
  179.6370  176.9250  140.8590 C   0  0  0  0  0  0  0  0  0  0  0  0
  179.8050  177.8360  141.7470 C   0  0  0  0  0  3  0  0  0  0  0  0
  179.6860  174.6540  140.0610 C   0  0  0  0  0  3  0  0  0  0  0  0
  180.5170  178.8290  139.4710 N   0  0  0  0  0  0  0  0  0  0  0  0
  179.7440  175.1660  138.6320 C   0  0  2  0  0  3  0  0  0  0  0  0
  180.1680  179.0560  141.9600 C   0  0  0  0  0  0  0  0  0  0  0  0
  180.6310  174.3240  137.8440 N   0  0  0  0  0  2  0  0  0  0  0  0
  179.6910  174.7870  135.7610 O   0  0  0  0  0  1  0  0  0  0  0  0
  180.8260  174.9690  136.5520 C   0  0  2  0  0  3  0  0  0  0  0  0
  182.0590  174.4140  135.8400 C   0  0  0  0  0  2  0  0  0  0  0  0
  183.1320  175.4760  135.6480 C   0  0  1  0  0  3  0  0  0  0  0  0
  184.4330  177.1530  137.5070 C   0  0  0  0  0  2  0  0  0  0  0  0
  185.1320  176.1400  136.7030 C   0  0  1  0  0  3  0  0  0  0  0  0
  182.6930  176.6810  136.1500 O   0  0  0  0  0  0  0  0  0  0  0  0
  183.6020  175.9750  136.9880 C   0  0  1  0  0  0  0  0  0  0  0  0
  185.5590  176.8330  135.4060 C   0  0  0  0  0  2  0  0  0  0  0  0
  186.4460  175.9050  134.6010 C   0  0  0  0  0  1  0  0  0  0  0  0
  1  9  1  1  0  0  0
  2  3  1  0  0  0  0
  2  5  1  0  0  0  0
  3  4  1  0  0  0  0
  4  7  2  0  0  0  0
  5 21  1  6  0  0  0
  5  6  1  0  0  0  0
  6  1  1  0  0  0  0
  7  1  1  0  0  0  0
  9  8  1  1  0  0  0
  9 11  1  0  0  0  0
 11 10  2  0  0  0  0
 11 13  1  0  0  0  0
 13 12  1  6  0  0  0
 14 13  1  0  0  0  0
 15 20  1  0  0  0  0
 16 18  1  0  0  0  0
 17 19  1  0  0  0  0
 17 15  1  0  0  0  0
 19 16  1  0  0  0  0
 20 18  2  0  0  0  0
 20 14  1  0  0  0  0
 22 21  1  0  0  0  0
 23 22  1  0  0  0  0
 24 23  2  0  0  0  0
 25 27  1  0  0  0  0
 26 25  1  0  0  0  0
 26 27  1  0  0  0  0
 27 24  1  0  0  0  0
 28 30  1  1  0  0  0
 28 24  1  0  0  0  0
 28 32  1  0  0  0  0
 30 29  1  0  0  0  0
 31 30  2  0  0  0  0
 33 32  1  0  0  0  0
 34 39  1  0  0  0  0
 34 33  1  0  0  0  0
 35 39  1  0  0  0  0
 36 35  1  0  0  0  0
 36 38  1  1  0  0  0
 36 39  1  0  0  0  0
 39 37  1  1  0  0  0
 40  4  1  0  0  0  0
 40 41  1  0  0  0  0
 42 41  1  0  0  0  0
 43 47  1  0  0  0  0
 44 51  1  0  0  0  0
 44 43  1  0  0  0  0
 45 52  2  0  0  0  0
 47 46  1  0  0  0  0
 47 48  2  0  0  0  0
 48 52  1  0  0  0  0
 49 46  2  0  0  0  0
 50 43  2  0  0  0  0
 50 45  1  0  0  0  0
 51 53  1  6  0  0  0
 51 49  1  0  0  0  0
 52 42  1  0  0  0  0
 55 54  1  6  0  0  0
 55 53  1  0  0  0  0
 56 55  1  0  0  0  0
 57 56  1  1  0  0  0
 57 60  1  0  0  0  0
 57 61  1  0  0  0  0
 59 62  1  6  0  0  0
 59 61  1  0  0  0  0
 59 58  1  0  0  0  0
 60 61  1  0  0  0  0
 61 58  1  1  0  0  0
 63 62  1  0  0  0  0
M  END
>  <MODEL>
4

>  <REMARK>
 VINA RESULT:      -5.9      1.648      3.461
  Name = 
  24 active torsions:
  status: ('A' for Active; 'I' for Inactive)
    1  A    between atoms: C_1  and  C_49
    2  A    between atoms: C_3  and  C_52
    3  A    between atoms: C_5  and  C_10
    4  A    between atoms: C_5  and  C_26
    5  A    between atoms: C_6  and  O_28
    6  A    between atoms: C_6  and  S_29
    7  A    between atoms: O_8  and  C_21
    8  A    between atoms: O_8  and  C_61
    9  A    between atoms: N_13  and  C_26
   10  A    between atoms: N_13  and  C_58
   11  A    between atoms: C_17  and  C_22
   12  A    between atoms: C_17  and  C_42
   13  A    between atoms: C_18  and  C_43
   14  A    between atoms: O_28  and  C_45
   15  A    between atoms: S_29  and  C_52
   16  A    between atoms: C_30  and  C_59
   17  A    between atoms: C_30  and  C_61
   18  A    between atoms: N_34  and  C_60
   19  A    between atoms: N_34  and  C_63
   20  A    between atoms: C_37  and  C_53
   21  A    between atoms: C_40  and  C_49
   22  A    between atoms: C_40  and  C_60
   23  A    between atoms: C_42  and  C_44
   24  A    between atoms: C_52  and  C_53
                            x       y       z     vdW  Elec       q    Type
                         _______ _______ _______ _____ _____    ______ ____

>  <TORSDO>
F 24

$$$$
=
 OpenBabel11042413143D

 63 70  0  0  1  0  0  0  0  0999 V2000
  189.2820  175.1590  134.7960 C   0  0  1  0  0  3  0  0  0  0  0  0
  186.4260  176.3130  135.4350 C   0  0  0  0  0  2  0  0  0  0  0  0
  187.2930  177.3510  134.7380 C   0  0  0  0  0  2  0  0  0  0  0  0
  188.6250  177.4960  135.4190 C   0  0  0  0  0  0  0  0  0  0  0  0
  186.7720  174.9090  134.9470 C   0  0  1  0  0  3  0  0  0  0  0  0
  188.1220  174.4300  135.4740 C   0  0  0  0  0  2  0  0  0  0  0  0
  189.5200  176.5030  135.4220 C   0  0  0  0  0  3  0  0  0  0  0  0
  190.2480  172.9650  134.5950 O   0  0  0  0  0  1  0  0  0  0  0  0
  190.5630  174.3100  134.8010 C   0  0  2  0  0  3  0  0  0  0  0  0
  190.8530  174.3770  137.2300 C   0  0  0  0  0  2  0  0  0  0  0  0
  191.4230  174.4980  136.0340 C   0  0  0  0  0  0  0  0  0  0  0  0
  192.7990  176.4430  135.9840 O   0  0  0  0  0  1  0  0  0  0  0  0
  192.8190  175.0470  135.9760 C   0  0  1  0  0  3  0  0  0  0  0  0
  193.6130  174.5500  137.0900 N   0  0  0  0  0  0  0  0  0  0  0  0
  195.7870  174.7490  135.7850 C   0  0  0  0  0  2  0  0  0  0  0  0
  197.1540  174.1950  138.4010 C   0  0  0  0  0  2  0  0  0  0  0  0
  197.2780  174.9870  135.9500 C   0  0  0  0  0  2  0  0  0  0  0  0
  195.6630  174.2180  138.2270 C   0  0  0  0  0  2  0  0  0  0  0  0
  198.0020  173.6250  136.9000 S   0  0  0  0  0  0  0  0  0  0  0  0
  195.0430  174.5370  137.0860 C   0  0  0  0  0  0  0  0  0  0  0  0
  185.6680  173.9200  135.3050 C   0  0  0  0  0  2  0  0  0  0  0  0
  185.2900  173.9770  136.7780 C   0  0  0  0  0  2  0  0  0  0  0  0
  183.9220  174.5620  136.9110 C   0  0  0  0  0  3  0  0  0  0  0  0
  182.8100  173.8230  137.0610 C   0  0  0  0  0  0  0  0  0  0  0  0
  181.5190  171.7510  136.6090 C   0  0  0  0  0  2  0  0  0  0  0  0
  182.6730  171.7800  135.6360 C   0  0  0  0  0  2  0  0  0  0  0  0
  182.8610  172.3150  137.0460 C   0  0  0  0  0  3  0  0  0  0  0  0
  181.4650  174.5040  137.0970 C   0  0  2  0  0  3  0  0  0  0  0  0
  182.0120  175.2380  134.7640 O   0  0  0  0  0  0  0  0  0  0  0  0
  181.2750  175.4180  135.9280 C   0  0  0  0  0  0  0  0  0  0  0  0
  180.4230  176.3430  135.9920 O   0  0  0  0  0  1  0  0  0  0  0  0
  181.1900  175.3600  138.6840 S   0  0  0  0  0  0  0  0  0  0  0  0
  182.4870  176.5940  138.3720 C   0  0  0  0  0  2  0  0  0  0  0  0
  183.3150  176.7060  139.4950 O   0  0  0  0  0  0  0  0  0  0  0  0
  184.3170  178.5190  140.8880 C   0  0  0  0  0  2  0  0  0  0  0  0
  184.5580  178.8100  139.4090 C   0  0  2  0  0  3  0  0  0  0  0  0
  182.1130  178.7670  139.7510 O   0  0  0  0  0  1  0  0  0  0  0  0
  184.2660  180.1510  139.1450 O   0  0  0  0  0  1  0  0  0  0  0  0
  183.3160  178.0600  139.8540 C   0  0  1  0  0  0  0  0  0  0  0  0
  188.9570  178.6850  136.0710 O   0  0  0  0  0  0  0  0  0  0  0  0
  189.1620  178.7460  137.4760 C   0  0  0  0  0  2  0  0  0  0  0  0
  188.5990  177.5000  138.1330 C   0  0  0  0  0  2  0  0  0  0  0  0
  190.9350  176.9350  141.6850 C   0  0  0  0  0  0  0  0  0  0  0  0
  191.4590  177.0710  142.9040 C   0  0  0  0  0  2  0  0  0  0  0  0
  191.0240  177.4150  139.1370 C   0  0  0  0  0  3  0  0  0  0  0  0
  188.6440  176.4750  142.7020 C   0  0  0  0  0  3  0  0  0  0  0  0
  189.5410  176.4870  141.5430 C   0  0  0  0  0  0  0  0  0  0  0  0
  189.1820  176.6260  140.3190 C   0  0  0  0  0  3  0  0  0  0  0  0
  189.1810  176.5870  143.9220 C   0  0  0  0  0  3  0  0  0  0  0  0
  191.6550  177.3570  140.4930 N   0  0  0  0  0  0  0  0  0  0  0  0
  190.6830  176.6580  144.1380 C   0  0  2  0  0  3  0  0  0  0  0  0
  189.5640  176.9650  139.1340 C   0  0  0  0  0  0  0  0  0  0  0  0
  190.9790  177.5710  145.2310 N   0  0  0  0  0  2  0  0  0  0  0  0
  192.0830  175.5830  145.7470 O   0  0  0  0  0  1  0  0  0  0  0  0
  191.6900  176.8210  146.2580 C   0  0  2  0  0  3  0  0  0  0  0  0
  190.8190  176.6260  147.4990 C   0  0  0  0  0  2  0  0  0  0  0  0
  189.3390  176.7960  147.1890 C   0  0  1  0  0  3  0  0  0  0  0  0
  187.3970  178.5100  148.3080 C   0  0  0  0  0  2  0  0  0  0  0  0
  187.8140  178.5700  146.9000 C   0  0  1  0  0  3  0  0  0  0  0  0
  188.5960  176.6000  148.3330 O   0  0  0  0  0  0  0  0  0  0  0  0
  188.7860  177.9610  147.9650 C   0  0  1  0  0  0  0  0  0  0  0  0
  186.8890  177.6190  146.1330 C   0  0  0  0  0  2  0  0  0  0  0  0
  185.8480  178.4200  145.3800 C   0  0  0  0  0  1  0  0  0  0  0  0
  1  9  1  1  0  0  0
  1  7  1  0  0  0  0
  1  6  1  0  0  0  0
  3  4  1  0  0  0  0
  3  2  1  0  0  0  0
  4  7  2  0  0  0  0
  4 40  1  0  0  0  0
  5 21  1  1  0  0  0
  5  2  1  0  0  0  0
  5  6  1  0  0  0  0
  9  8  1  1  0  0  0
  9 11  1  0  0  0  0
 11 10  2  0  0  0  0
 13 12  1  1  0  0  0
 13 11  1  0  0  0  0
 13 14  1  0  0  0  0
 15 17  1  0  0  0  0
 15 20  1  0  0  0  0
 17 19  1  0  0  0  0
 18 16  1  0  0  0  0
 19 16  1  0  0  0  0
 20 14  2  0  0  0  0
 20 18  1  0  0  0  0
 21 22  1  0  0  0  0
 22 23  1  0  0  0  0
 23 24  2  0  0  0  0
 24 28  1  0  0  0  0
 25 27  1  0  0  0  0
 26 25  1  0  0  0  0
 26 27  1  0  0  0  0
 27 24  1  0  0  0  0
 28 30  1  6  0  0  0
 28 32  1  0  0  0  0
 29 30  2  0  0  0  0
 30 31  1  0  0  0  0
 33 32  1  0  0  0  0
 33 34  1  0  0  0  0
 34 39  1  0  0  0  0
 36 38  1  1  0  0  0
 36 39  1  0  0  0  0
 36 35  1  0  0  0  0
 39 37  1  6  0  0  0
 39 35  1  0  0  0  0
 40 41  1  0  0  0  0
 41 42  1  0  0  0  0
 42 52  1  0  0  0  0
 43 44  1  0  0  0  0
 44 51  1  0  0  0  0
 45 50  1  0  0  0  0
 46 49  2  0  0  0  0
 47 43  1  0  0  0  0
 47 46  1  0  0  0  0
 48 47  2  0  0  0  0
 49 51  1  0  0  0  0
 50 43  2  0  0  0  0
 51 53  1  1  0  0  0
 52 45  2  0  0  0  0
 52 48  1  0  0  0  0
 53 55  1  0  0  0  0
 55 54  1  6  0  0  0
 55 56  1  0  0  0  0
 57 56  1  1  0  0  0
 57 61  1  0  0  0  0
 57 60  1  0  0  0  0
 59 62  1  6  0  0  0
 59 61  1  0  0  0  0
 59 58  1  0  0  0  0
 61 58  1  1  0  0  0
 61 60  1  0  0  0  0
 63 62  1  0  0  0  0
M  END
>  <MODEL>
5

>  <REMARK>
 VINA RESULT:      -5.5      3.576     10.403
  Name = 
  24 active torsions:
  status: ('A' for Active; 'I' for Inactive)
    1  A    between atoms: C_1  and  C_49
    2  A    between atoms: C_3  and  C_52
    3  A    between atoms: C_5  and  C_10
    4  A    between atoms: C_5  and  C_26
    5  A    between atoms: C_6  and  O_28
    6  A    between atoms: C_6  and  S_29
    7  A    between atoms: O_8  and  C_21
    8  A    between atoms: O_8  and  C_61
    9  A    between atoms: N_13  and  C_26
   10  A    between atoms: N_13  and  C_58
   11  A    between atoms: C_17  and  C_22
   12  A    between atoms: C_17  and  C_42
   13  A    between atoms: C_18  and  C_43
   14  A    between atoms: O_28  and  C_45
   15  A    between atoms: S_29  and  C_52
   16  A    between atoms: C_30  and  C_59
   17  A    between atoms: C_30  and  C_61
   18  A    between atoms: N_34  and  C_60
   19  A    between atoms: N_34  and  C_63
   20  A    between atoms: C_37  and  C_53
   21  A    between atoms: C_40  and  C_49
   22  A    between atoms: C_40  and  C_60
   23  A    between atoms: C_42  and  C_44
   24  A    between atoms: C_52  and  C_53
                            x       y       z     vdW  Elec       q    Type
                         _______ _______ _______ _____ _____    ______ ____

>  <TORSDO>
F 24

$$$$
=
 OpenBabel11042413143D

 63 70  0  0  1  0  0  0  0  0999 V2000
  185.7660  178.1980  138.0770 C   0  0  1  0  0  3  0  0  0  0  0  0
  182.7380  177.9840  137.2520 C   0  0  0  0  0  2  0  0  0  0  0  0
  183.0380  179.3320  137.8900 C   0  0  0  0  0  2  0  0  0  0  0  0
  183.7490  179.1680  139.2040 C   0  0  0  0  0  0  0  0  0  0  0  0
  183.9480  177.4760  136.4760 C   0  0  1  0  0  3  0  0  0  0  0  0
  185.0750  177.0150  137.3980 C   0  0  0  0  0  2  0  0  0  0  0  0
  184.9880  178.6710  139.2710 C   0  0  0  0  0  3  0  0  0  0  0  0
  187.6370  178.6760  139.5120 O   0  0  0  0  0  1  0  0  0  0  0  0
  187.2160  177.8630  138.4560 C   0  0  2  0  0  3  0  0  0  0  0  0
  188.2250  179.0170  136.5480 C   0  0  0  0  0  2  0  0  0  0  0  0
  188.1860  177.9150  137.2930 C   0  0  0  0  0  0  0  0  0  0  0  0
  190.2650  176.7540  137.1840 O   0  0  0  0  0  1  0  0  0  0  0  0
  188.9250  176.7060  136.7960 C   0  0  1  0  0  3  0  0  0  0  0  0
  188.3030  175.4860  137.2910 N   0  0  0  0  0  2  0  0  0  0  0  0
  186.8730  174.0160  135.7870 C   0  0  0  0  0  2  0  0  0  0  0  0
  189.2290  172.1550  135.7320 C   0  0  0  0  0  2  0  0  0  0  0  0
  186.9500  172.8860  134.7750 C   0  0  0  0  0  2  0  0  0  0  0  0
  189.1880  173.4260  136.5280 C   0  0  0  0  0  3  0  0  0  0  0  0
  187.5860  171.3960  135.5830 S   0  0  0  0  0  0  0  0  0  0  0  0
  188.1760  174.3000  136.5020 C   0  0  0  0  0  0  0  0  0  0  0  0
  183.5500  176.3650  135.5100 C   0  0  0  0  0  2  0  0  0  0  0  0
  183.7590  174.9780  136.0990 C   0  0  0  0  0  2  0  0  0  0  0  0
  182.4290  174.3460  136.3540 C   0  0  0  0  0  3  0  0  0  0  0  0
  182.2800  173.0990  136.8320 C   0  0  0  0  0  0  0  0  0  0  0  0
  183.0730  170.7500  136.9500 C   0  0  0  0  0  2  0  0  0  0  0  0
  183.8470  171.4270  135.8450 C   0  0  0  0  0  2  0  0  0  0  0  0
  183.4710  172.2100  137.0930 C   0  0  0  0  0  3  0  0  0  0  0  0
  180.8950  172.5190  136.9710 C   0  0  2  0  0  3  0  0  0  0  0  0
  179.6240  170.7360  135.7510 O   0  0  0  0  0  1  0  0  0  0  0  0
  180.4390  171.8610  135.7070 C   0  0  0  0  0  0  0  0  0  0  0  0
  180.7780  172.3440  134.5940 O   0  0  0  0  0  0  0  0  0  0  0  0
  179.7020  173.7680  137.5580 S   0  0  0  0  0  0  0  0  0  0  0  0
  179.8390  173.2460  139.2930 C   0  0  0  0  0  2  0  0  0  0  0  0
  179.1730  174.1600  140.1170 O   0  0  0  0  0  0  0  0  0  0  0  0
  178.9800  176.3370  138.9100 C   0  0  0  0  0  2  0  0  0  0  0  0
  178.9320  176.5750  140.4180 C   0  0  2  0  0  3  0  0  0  0  0  0
  181.1200  175.5480  139.9140 O   0  0  0  0  0  1  0  0  0  0  0  0
  179.7690  177.6450  140.7460 O   0  0  0  0  0  1  0  0  0  0  0  0
  179.7290  175.4170  139.8450 C   0  0  1  0  0  0  0  0  0  0  0  0
  183.1210  179.5350  140.3960 O   0  0  0  0  0  0  0  0  0  0  0  0
  182.9970  178.6410  141.4940 C   0  0  0  0  0  2  0  0  0  0  0  0
  183.5850  179.2730  142.7410 C   0  0  0  0  0  2  0  0  0  0  0  0
  186.6700  177.4030  145.0610 C   0  0  0  0  0  0  0  0  0  0  0  0
  187.7740  177.1830  145.7760 C   0  0  0  0  0  2  0  0  0  0  0  0
  185.4400  177.4140  142.7760 C   0  0  0  0  0  3  0  0  0  0  0  0
  185.8030  178.9910  146.8560 C   0  0  0  0  0  3  0  0  0  0  0  0
  185.5790  178.2000  145.6420 C   0  0  0  0  0  0  0  0  0  0  0  0
  184.7210  178.4620  144.7250 C   0  0  0  0  0  3  0  0  0  0  0  0
  186.9000  178.7450  147.5800 C   0  0  0  0  0  3  0  0  0  0  0  0
  186.5710  177.0010  143.6650 N   0  0  0  0  0  0  0  0  0  0  0  0
  187.8740  177.6360  147.2180 C   0  0  2  0  0  3  0  0  0  0  0  0
  184.3980  178.2730  143.4900 C   0  0  0  0  0  0  0  0  0  0  0  0
  189.2340  178.0640  147.5040 N   0  0  0  0  0  2  0  0  0  0  0  0
  190.6800  176.2650  147.8300 O   0  0  0  0  0  1  0  0  0  0  0  0
  190.1420  177.1190  146.8670 C   0  0  2  0  0  3  0  0  0  0  0  0
  191.2610  177.8460  146.1230 C   0  0  0  0  0  2  0  0  0  0  0  0
  191.0650  177.8020  144.6140 C   0  0  1  0  0  3  0  0  0  0  0  0
  190.8670  175.6220  142.8340 C   0  0  0  0  0  2  0  0  0  0  0  0
  189.7780  176.5840  143.0610 C   0  0  1  0  0  3  0  0  0  0  0  0
  192.0910  177.0920  144.0300 O   0  0  0  0  0  0  0  0  0  0  0  0
  190.8670  176.3790  144.1660 C   0  0  1  0  0  0  0  0  0  0  0  0
  189.9780  177.7130  142.0450 C   0  0  0  0  0  2  0  0  0  0  0  0
  190.5770  177.1510  140.7720 C   0  0  0  0  0  1  0  0  0  0  0  0
  1  9  1  1  0  0  0
  1  7  1  0  0  0  0
  2  3  1  0  0  0  0
  3  4  1  0  0  0  0
  4  7  2  0  0  0  0
  4 40  1  0  0  0  0
  5 21  1  1  0  0  0
  5  2  1  0  0  0  0
  5  6  1  0  0  0  0
  6  1  1  0  0  0  0
  9  8  1  1  0  0  0
 10 11  2  0  0  0  0
 11  9  1  0  0  0  0
 13 12  1  1  0  0  0
 13 14  1  0  0  0  0
 13 11  1  0  0  0  0
 15 20  1  0  0  0  0
 16 18  1  0  0  0  0
 17 19  1  0  0  0  0
 17 15  1  0  0  0  0
 19 16  1  0  0  0  0
 20 18  2  0  0  0  0
 20 14  1  0  0  0  0
 21 22  1  0  0  0  0
 22 23  1  0  0  0  0
 23 24  2  0  0  0  0
 24 28  1  0  0  0  0
 24 27  1  0  0  0  0
 25 27  1  0  0  0  0
 26 25  1  0  0  0  0
 26 27  1  0  0  0  0
 28 30  1  6  0  0  0
 28 32  1  0  0  0  0
 30 29  1  0  0  0  0
 31 30  2  0  0  0  0
 32 33  1  0  0  0  0
 33 34  1  0  0  0  0
 35 39  1  0  0  0  0
 35 36  1  0  0  0  0
 36 38  1  6  0  0  0
 39 37  1  1  0  0  0
 39 34  1  0  0  0  0
 39 36  1  0  0  0  0
 40 41  1  0  0  0  0
 41 42  1  0  0  0  0
 42 52  1  0  0  0  0
 43 47  1  0  0  0  0
 43 44  1  0  0  0  0
 44 51  1  0  0  0  0
 45 52  2  0  0  0  0
 45 50  1  0  0  0  0
 46 49  2  0  0  0  0
 47 46  1  0  0  0  0
 48 47  2  0  0  0  0
 50 43  2  0  0  0  0
 51 53  1  6  0  0  0
 51 49  1  0  0  0  0
 52 48  1  0  0  0  0
 55 53  1  0  0  0  0
 55 54  1  1  0  0  0
 56 55  1  0  0  0  0
 57 56  1  1  0  0  0
 58 59  1  0  0  0  0
 59 62  1  6  0  0  0
 59 61  1  0  0  0  0
 60 61  1  0  0  0  0
 60 57  1  0  0  0  0
 61 58  1  1  0  0  0
 61 57  1  0  0  0  0
 63 62  1  0  0  0  0
M  END
>  <MODEL>
6

>  <REMARK>
 VINA RESULT:      -5.2      2.948      9.382
  Name = 
  24 active torsions:
  status: ('A' for Active; 'I' for Inactive)
    1  A    between atoms: C_1  and  C_49
    2  A    between atoms: C_3  and  C_52
    3  A    between atoms: C_5  and  C_10
    4  A    between atoms: C_5  and  C_26
    5  A    between atoms: C_6  and  O_28
    6  A    between atoms: C_6  and  S_29
    7  A    between atoms: O_8  and  C_21
    8  A    between atoms: O_8  and  C_61
    9  A    between atoms: N_13  and  C_26
   10  A    between atoms: N_13  and  C_58
   11  A    between atoms: C_17  and  C_22
   12  A    between atoms: C_17  and  C_42
   13  A    between atoms: C_18  and  C_43
   14  A    between atoms: O_28  and  C_45
   15  A    between atoms: S_29  and  C_52
   16  A    between atoms: C_30  and  C_59
   17  A    between atoms: C_30  and  C_61
   18  A    between atoms: N_34  and  C_60
   19  A    between atoms: N_34  and  C_63
   20  A    between atoms: C_37  and  C_53
   21  A    between atoms: C_40  and  C_49
   22  A    between atoms: C_40  and  C_60
   23  A    between atoms: C_42  and  C_44
   24  A    between atoms: C_52  and  C_53
                            x       y       z     vdW  Elec       q    Type
                         _______ _______ _______ _____ _____    ______ ____

>  <TORSDO>
F 24

$$$$
=
 OpenBabel11042413143D

 63 70  0  0  1  0  0  0  0  0999 V2000
  187.2040  177.7440  143.7790 C   0  0  1  0  0  3  0  0  0  0  0  0
  188.2020  178.0160  140.8090 C   0  0  0  0  0  2  0  0  0  0  0  0
  187.3930  179.2340  141.2280 C   0  0  0  0  0  2  0  0  0  0  0  0
  186.0730  178.8340  141.8260 C   0  0  0  0  0  0  0  0  0  0  0  0
  188.9700  177.4460  141.9970 C   0  0  1  0  0  3  0  0  0  0  0  0
  188.0540  176.7440  142.9950 C   0  0  0  0  0  2  0  0  0  0  0  0
  186.0030  178.1760  142.9870 C   0  0  0  0  0  3  0  0  0  0  0  0
  185.5430  176.5640  145.0600 O   0  0  0  0  0  1  0  0  0  0  0  0
  186.7920  177.1840  145.1490 C   0  0  2  0  0  3  0  0  0  0  0  0
  185.8950  179.1540  146.2920 C   0  0  0  0  0  2  0  0  0  0  0  0
  186.8280  178.2050  146.2680 C   0  0  0  0  0  0  0  0  0  0  0  0
  187.5820  178.8840  148.4250 O   0  0  0  0  0  1  0  0  0  0  0  0
  187.9930  178.3440  147.2050 C   0  0  1  0  0  3  0  0  0  0  0  0
  188.6370  177.0550  147.4180 N   0  0  0  0  0  2  0  0  0  0  0  0
  190.2340  176.9710  145.4410 C   0  0  0  0  0  2  0  0  0  0  0  0
  192.1990  175.7570  147.3610 C   0  0  0  0  0  2  0  0  0  0  0  0
  191.7050  176.8540  145.0800 C   0  0  0  0  0  2  0  0  0  0  0  0
  190.7920  176.1260  147.7290 C   0  0  0  0  0  3  0  0  0  0  0  0
  192.3310  175.2440  145.6240 S   0  0  0  0  0  0  0  0  0  0  0  0
  189.9320  176.7350  146.9060 C   0  0  0  0  0  0  0  0  0  0  0  0
  190.0810  176.5110  141.5300 C   0  0  0  0  0  2  0  0  0  0  0  0
  190.7870  177.0200  140.2830 C   0  0  0  0  0  2  0  0  0  0  0  0
  190.2110  176.3450  139.0810 C   0  0  0  0  0  3  0  0  0  0  0  0
  190.8780  176.1920  137.9250 C   0  0  0  0  0  0  0  0  0  0  0  0
  193.2760  175.9230  138.5070 C   0  0  0  0  0  2  0  0  0  0  0  0
  193.1590  175.7650  137.0110 C   0  0  0  0  0  2  0  0  0  0  0  0
  192.2640  176.7570  137.7370 C   0  0  0  0  0  3  0  0  0  0  0  0
  190.1770  175.5760  136.7410 C   0  0  2  0  0  3  0  0  0  0  0  0
  191.1460  173.6230  135.5040 O   0  0  0  0  0  0  0  0  0  0  0  0
  190.4750  174.1150  136.6170 C   0  0  0  0  0  0  0  0  0  0  0  0
  190.1360  173.3290  137.5410 O   0  0  0  0  0  1  0  0  0  0  0  0
  190.5460  176.4790  135.1990 S   0  0  0  0  0  0  0  0  0  0  0  0
  188.8350  176.3720  134.5950 C   0  0  0  0  0  2  0  0  0  0  0  0
  187.9550  176.2760  135.6780 O   0  0  0  0  0  0  0  0  0  0  0  0
  186.2810  177.6970  136.8670 C   0  0  0  0  0  2  0  0  0  0  0  0
  187.6760  178.3010  137.0210 C   0  0  2  0  0  3  0  0  0  0  0  0
  187.1600  178.2710  134.6070 O   0  0  0  0  0  1  0  0  0  0  0  0
  187.6160  179.6770  136.7830 O   0  0  0  0  0  1  0  0  0  0  0  0
  187.3090  177.5160  135.7750 C   0  0  1  0  0  0  0  0  0  0  0  0
  184.8800  179.1430  141.1700 O   0  0  0  0  0  0  0  0  0  0  0  0
  183.6120  178.7630  141.6860 C   0  0  0  0  0  2  0  0  0  0  0  0
  182.5870  178.7380  140.5670 C   0  0  0  0  0  2  0  0  0  0  0  0
  181.2730  175.1530  138.6150 C   0  0  0  0  0  0  0  0  0  0  0  0
  180.8850  174.2680  137.6950 C   0  0  0  0  0  2  0  0  0  0  0  0
  180.6810  176.9390  140.4010 C   0  0  0  0  0  3  0  0  0  0  0  0
  183.5600  175.3310  137.5050 C   0  0  0  0  0  3  0  0  0  0  0  0
  182.6720  175.6050  138.6390 C   0  0  0  0  0  0  0  0  0  0  0  0
  182.7760  176.5930  139.4510 C   0  0  0  0  0  3  0  0  0  0  0  0
  183.1750  174.4240  136.6020 C   0  0  0  0  0  3  0  0  0  0  0  0
  180.3190  175.7960  139.5060 N   0  0  0  0  0  0  0  0  0  0  0  0
  181.8870  173.6320  136.7530 C   0  0  2  0  0  3  0  0  0  0  0  0
  182.1520  177.3380  140.2990 C   0  0  0  0  0  0  0  0  0  0  0  0
  181.2750  173.4350  135.4480 N   0  0  0  0  0  2  0  0  0  0  0  0
  178.9980  173.2310  134.9880 O   0  0  0  0  0  1  0  0  0  0  0  0
  179.9810  174.1040  135.4580 C   0  0  2  0  0  3  0  0  0  0  0  0
  180.0100  175.3710  134.6050 C   0  0  0  0  0  2  0  0  0  0  0  0
  180.4220  176.5940  135.4130 C   0  0  1  0  0  3  0  0  0  0  0  0
  180.4960  179.3290  134.7280 C   0  0  0  0  0  2  0  0  0  0  0  0
  179.6310  178.7820  135.7830 C   0  0  1  0  0  3  0  0  0  0  0  0
  181.4240  177.2730  134.7560 O   0  0  0  0  0  0  0  0  0  0  0  0
  180.1270  177.8450  134.6320 C   0  0  1  0  0  0  0  0  0  0  0  0
  180.4450  178.8320  137.0800 C   0  0  0  0  0  2  0  0  0  0  0  0
  181.0990  180.1910  137.2180 C   0  0  0  0  0  1  0  0  0  0  0  0
  1  9  1  1  0  0  0
  2  3  1  0  0  0  0
  2  5  1  0  0  0  0
  3  4  1  0  0  0  0
  4  7  2  0  0  0  0
  5 21  1  6  0  0  0
  5  6  1  0  0  0  0
  6  1  1  0  0  0  0
  7  1  1  0  0  0  0
  9  8  1  6  0  0  0
  9 11  1  0  0  0  0
 11 10  2  0  0  0  0
 11 13  1  0  0  0  0
 13 14  1  0  0  0  0
 13 12  1  1  0  0  0
 15 20  1  0  0  0  0
 16 18  1  0  0  0  0
 17 15  1  0  0  0  0
 17 19  1  0  0  0  0
 19 16  1  0  0  0  0
 20 14  1  0  0  0  0
 20 18  2  0  0  0  0
 22 21  1  0  0  0  0
 23 22  1  0  0  0  0
 24 23  2  0  0  0  0
 26 27  1  0  0  0  0
 26 25  1  0  0  0  0
 27 24  1  0  0  0  0
 27 25  1  0  0  0  0
 28 32  1  6  0  0  0
 28 24  1  0  0  0  0
 29 30  2  0  0  0  0
 30 28  1  0  0  0  0
 30 31  1  0  0  0  0
 33 32  1  0  0  0  0
 33 34  1  0  0  0  0
 34 39  1  0  0  0  0
 35 36  1  0  0  0  0
 36 38  1  6  0  0  0
 39 37  1  6  0  0  0
 39 35  1  0  0  0  0
 39 36  1  0  0  0  0
 40 41  1  0  0  0  0
 40  4  1  0  0  0  0
 42 41  1  0  0  0  0
 43 47  2  0  0  0  0
 43 50  1  0  0  0  0
 44 43  1  0  0  0  0
 46 47  1  0  0  0  0
 47 48  1  0  0  0  0
 48 52  2  0  0  0  0
 49 51  1  0  0  0  0
 49 46  2  0  0  0  0
 50 45  2  0  0  0  0
 51 53  1  6  0  0  0
 51 44  1  0  0  0  0
 52 45  1  0  0  0  0
 52 42  1  0  0  0  0
 53 55  1  0  0  0  0
 55 54  1  6  0  0  0
 56 55  1  0  0  0  0
 57 56  1  6  0  0  0
 58 59  1  0  0  0  0
 59 62  1  1  0  0  0
 60 57  1  0  0  0  0
 61 58  1  6  0  0  0
 61 60  1  0  0  0  0
 61 57  1  0  0  0  0
 61 59  1  0  0  0  0
 62 63  1  0  0  0  0
M  END
>  <MODEL>
7

>  <REMARK>
 VINA RESULT:      -5.1      2.109      3.399
  Name = 
  24 active torsions:
  status: ('A' for Active; 'I' for Inactive)
    1  A    between atoms: C_1  and  C_49
    2  A    between atoms: C_3  and  C_52
    3  A    between atoms: C_5  and  C_10
    4  A    between atoms: C_5  and  C_26
    5  A    between atoms: C_6  and  O_28
    6  A    between atoms: C_6  and  S_29
    7  A    between atoms: O_8  and  C_21
    8  A    between atoms: O_8  and  C_61
    9  A    between atoms: N_13  and  C_26
   10  A    between atoms: N_13  and  C_58
   11  A    between atoms: C_17  and  C_22
   12  A    between atoms: C_17  and  C_42
   13  A    between atoms: C_18  and  C_43
   14  A    between atoms: O_28  and  C_45
   15  A    between atoms: S_29  and  C_52
   16  A    between atoms: C_30  and  C_59
   17  A    between atoms: C_30  and  C_61
   18  A    between atoms: N_34  and  C_60
   19  A    between atoms: N_34  and  C_63
   20  A    between atoms: C_37  and  C_53
   21  A    between atoms: C_40  and  C_49
   22  A    between atoms: C_40  and  C_60
   23  A    between atoms: C_42  and  C_44
   24  A    between atoms: C_52  and  C_53
                            x       y       z     vdW  Elec       q    Type
                         _______ _______ _______ _____ _____    ______ ____

>  <TORSDO>
F 24

$$$$
=
 OpenBabel11042413143D

 63 70  0  0  1  0  0  0  0  0999 V2000
  186.0770  178.0260  138.0840 C   0  0  1  0  0  3  0  0  0  0  0  0
  183.0500  177.6740  137.3030 C   0  0  0  0  0  2  0  0  0  0  0  0
  183.3160  179.0680  137.8510 C   0  0  0  0  0  2  0  0  0  0  0  0
  184.0420  179.0090  139.1660 C   0  0  0  0  0  0  0  0  0  0  0  0
  184.2700  177.1510  136.5500 C   0  0  1  0  0  3  0  0  0  0  0  0
  185.4160  176.7830  137.4890 C   0  0  0  0  0  2  0  0  0  0  0  0
  185.2950  178.5520  139.2530 C   0  0  0  0  0  3  0  0  0  0  0  0
  188.1240  178.9210  138.9760 O   0  0  0  0  0  1  0  0  0  0  0  0
  187.5390  177.7570  138.4710 C   0  0  2  0  0  3  0  0  0  0  0  0
  188.6380  177.9040  136.2890 C   0  0  0  0  0  2  0  0  0  0  0  0
  188.3720  177.1560  137.3560 C   0  0  0  0  0  0  0  0  0  0  0  0
  187.5390  174.9230  137.3220 O   0  0  0  0  0  1  0  0  0  0  0  0
  188.7020  175.6930  137.2880 C   0  0  1  0  0  3  0  0  0  0  0  0
  189.4650  175.3950  136.0830 N   0  0  0  0  0  2  0  0  0  0  0  0
  191.2000  173.5360  136.0520 C   0  0  0  0  0  2  0  0  0  0  0  0
  193.2360  175.7290  136.3080 C   0  0  0  0  0  2  0  0  0  0  0  0
  192.6740  173.2630  135.8070 C   0  0  0  0  0  2  0  0  0  0  0  0
  191.7540  175.9640  136.2950 C   0  0  0  0  0  3  0  0  0  0  0  0
  193.6610  174.1290  137.0540 S   0  0  0  0  0  0  0  0  0  0  0  0
  190.8400  175.0050  136.1060 C   0  0  0  0  0  0  0  0  0  0  0  0
  183.8960  175.9690  135.6610 C   0  0  0  0  0  2  0  0  0  0  0  0
  183.7580  174.6720  136.4430 C   0  0  0  0  0  2  0  0  0  0  0  0
  182.3190  174.2760  136.4890 C   0  0  0  0  0  3  0  0  0  0  0  0
  181.8950  173.0640  136.8860 C   0  0  0  0  0  0  0  0  0  0  0  0
  183.2570  171.1710  136.0360 C   0  0  0  0  0  2  0  0  0  0  0  0
  184.2150  172.1960  136.5930 C   0  0  0  0  0  2  0  0  0  0  0  0
  182.8690  171.9760  137.2650 C   0  0  0  0  0  3  0  0  0  0  0  0
  180.4260  172.7300  136.8100 C   0  0  2  0  0  3  0  0  0  0  0  0
  180.4010  171.5590  134.5940 O   0  0  0  0  0  0  0  0  0  0  0  0
  180.1740  171.5220  135.9650 C   0  0  0  0  0  0  0  0  0  0  0  0
  179.7760  170.4560  136.5040 O   0  0  0  0  0  1  0  0  0  0  0  0
  179.4410  174.1640  136.2620 S   0  0  0  0  0  0  0  0  0  0  0  0
  178.9850  174.6400  137.9560 C   0  0  0  0  0  2  0  0  0  0  0  0
  179.5510  175.8810  138.2680 O   0  0  0  0  0  0  0  0  0  0  0  0
  179.9970  177.0290  140.4400 C   0  0  0  0  0  2  0  0  0  0  0  0
  178.9350  175.9490  140.6340 C   0  0  2  0  0  3  0  0  0  0  0  0
  180.9900  174.8170  139.8660 O   0  0  0  0  0  1  0  0  0  0  0  0
  179.2300  175.2070  141.7810 O   0  0  0  0  0  1  0  0  0  0  0  0
  180.0190  175.7840  139.5850 C   0  0  1  0  0  0  0  0  0  0  0  0
  183.4130  179.4340  140.3380 O   0  0  0  0  0  0  0  0  0  0  0  0
  183.3010  178.6000  141.4830 C   0  0  0  0  0  2  0  0  0  0  0  0
  184.1060  179.1880  142.6270 C   0  0  0  0  0  2  0  0  0  0  0  0
  187.3910  177.2490  144.5870 C   0  0  0  0  0  0  0  0  0  0  0  0
  188.5260  177.0150  145.2480 C   0  0  0  0  0  2  0  0  0  0  0  0
  186.1120  177.5170  142.3450 C   0  0  0  0  0  3  0  0  0  0  0  0
  186.4340  178.4480  146.6220 C   0  0  0  0  0  3  0  0  0  0  0  0
  186.2500  177.8450  145.2990 C   0  0  0  0  0  0  0  0  0  0  0  0
  185.3520  178.1730  144.4440 C   0  0  0  0  0  3  0  0  0  0  0  0
  187.5650  178.1870  147.2880 C   0  0  0  0  0  3  0  0  0  0  0  0
  187.2940  177.0680  143.1460 N   0  0  0  0  0  0  0  0  0  0  0  0
  188.6210  177.2400  146.7430 C   0  0  2  0  0  3  0  0  0  0  0  0
  185.0180  178.1570  143.1980 C   0  0  0  0  0  0  0  0  0  0  0  0
  189.9460  177.7340  147.0810 N   0  0  0  0  0  2  0  0  0  0  0  0
  192.0210  176.7160  146.7790 O   0  0  0  0  0  1  0  0  0  0  0  0
  190.8870  177.1830  146.1150 C   0  0  2  0  0  3  0  0  0  0  0  0
  191.2810  178.2280  145.0720 C   0  0  0  0  0  2  0  0  0  0  0  0
  191.8020  177.5890  143.7930 C   0  0  1  0  0  3  0  0  0  0  0  0
  190.4830  176.8880  141.4000 C   0  0  0  0  0  2  0  0  0  0  0  0
  191.5540  177.8920  141.4690 C   0  0  1  0  0  3  0  0  0  0  0  0
  191.0960  176.4380  143.5230 O   0  0  0  0  0  0  0  0  0  0  0  0
  190.7160  177.5710  142.7510 C   0  0  1  0  0  0  0  0  0  0  0  0
  192.8700  177.1380  141.2540 C   0  0  0  0  0  2  0  0  0  0  0  0
  193.1860  177.0790  139.7730 C   0  0  0  0  0  1  0  0  0  0  0  0
  1  9  1  1  0  0  0
  1  7  1  0  0  0  0
  2  3  1  0  0  0  0
  3  4  1  0  0  0  0
  4  7  2  0  0  0  0
  4 40  1  0  0  0  0
  5 21  1  1  0  0  0
  5  2  1  0  0  0  0
  5  6  1  0  0  0  0
  6  1  1  0  0  0  0
  9  8  1  6  0  0  0
 10 11  2  0  0  0  0
 11  9  1  0  0  0  0
 13 12  1  6  0  0  0
 13 11  1  0  0  0  0
 14 20  1  0  0  0  0
 14 13  1  0  0  0  0
 15 20  1  0  0  0  0
 16 19  1  0  0  0  0
 17 15  1  0  0  0  0
 17 19  1  0  0  0  0
 18 16  1  0  0  0  0
 20 18  2  0  0  0  0
 21 22  1  0  0  0  0
 22 23  1  0  0  0  0
 23 24  2  0  0  0  0
 24 27  1  0  0  0  0
 25 26  1  0  0  0  0
 25 27  1  0  0  0  0
 26 27  1  0  0  0  0
 28 30  1  6  0  0  0
 28 24  1  0  0  0  0
 29 30  2  0  0  0  0
 30 31  1  0  0  0  0
 32 28  1  0  0  0  0
 32 33  1  0  0  0  0
 33 34  1  0  0  0  0
 34 39  1  0  0  0  0
 35 36  1  0  0  0  0
 36 38  1  1  0  0  0
 39 37  1  1  0  0  0
 39 35  1  0  0  0  0
 39 36  1  0  0  0  0
 40 41  1  0  0  0  0
 41 42  1  0  0  0  0
 42 52  1  0  0  0  0
 43 44  1  0  0  0  0
 43 47  1  0  0  0  0
 44 51  1  0  0  0  0
 45 50  1  0  0  0  0
 45 52  2  0  0  0  0
 46 49  2  0  0  0  0
 47 46  1  0  0  0  0
 48 47  2  0  0  0  0
 50 43  2  0  0  0  0
 51 53  1  6  0  0  0
 51 49  1  0  0  0  0
 52 48  1  0  0  0  0
 55 54  1  1  0  0  0
 55 53  1  0  0  0  0
 56 55  1  0  0  0  0
 57 56  1  1  0  0  0
 58 59  1  0  0  0  0
 59 62  1  1  0  0  0
 59 61  1  0  0  0  0
 60 57  1  0  0  0  0
 61 58  1  1  0  0  0
 61 60  1  0  0  0  0
 61 57  1  0  0  0  0
 63 62  1  0  0  0  0
M  END
>  <MODEL>
8

>  <REMARK>
 VINA RESULT:      -5.1      3.028      9.305
  Name = 
  24 active torsions:
  status: ('A' for Active; 'I' for Inactive)
    1  A    between atoms: C_1  and  C_49
    2  A    between atoms: C_3  and  C_52
    3  A    between atoms: C_5  and  C_10
    4  A    between atoms: C_5  and  C_26
    5  A    between atoms: C_6  and  O_28
    6  A    between atoms: C_6  and  S_29
    7  A    between atoms: O_8  and  C_21
    8  A    between atoms: O_8  and  C_61
    9  A    between atoms: N_13  and  C_26
   10  A    between atoms: N_13  and  C_58
   11  A    between atoms: C_17  and  C_22
   12  A    between atoms: C_17  and  C_42
   13  A    between atoms: C_18  and  C_43
   14  A    between atoms: O_28  and  C_45
   15  A    between atoms: S_29  and  C_52
   16  A    between atoms: C_30  and  C_59
   17  A    between atoms: C_30  and  C_61
   18  A    between atoms: N_34  and  C_60
   19  A    between atoms: N_34  and  C_63
   20  A    between atoms: C_37  and  C_53
   21  A    between atoms: C_40  and  C_49
   22  A    between atoms: C_40  and  C_60
   23  A    between atoms: C_42  and  C_44
   24  A    between atoms: C_52  and  C_53
                            x       y       z     vdW  Elec       q    Type
                         _______ _______ _______ _____ _____    ______ ____

>  <TORSDO>
F 24

$$$$
=
 OpenBabel11042413143D

 63 70  0  0  1  0  0  0  0  0999 V2000
  186.2300  178.9900  142.9560 C   0  0  1  0  0  3  0  0  0  0  0  0
  184.5350  178.3620  145.5310 C   0  0  0  0  0  2  0  0  0  0  0  0
  185.9190  178.8770  145.8980 C   0  0  0  0  0  2  0  0  0  0  0  0
  186.9940  178.1140  145.1760 C   0  0  0  0  0  0  0  0  0  0  0  0
  184.0500  179.0030  144.2340 C   0  0  1  0  0  3  0  0  0  0  0  0
  184.7930  178.4710  143.0120 C   0  0  0  0  0  2  0  0  0  0  0  0
  187.1330  178.1890  143.8490 C   0  0  0  0  0  3  0  0  0  0  0  0
  185.6990  178.9780  140.6090 O   0  0  0  0  0  1  0  0  0  0  0  0
  186.7620  179.0250  141.5150 C   0  0  2  0  0  3  0  0  0  0  0  0
  188.1280  177.1060  142.1790 C   0  0  0  0  0  2  0  0  0  0  0  0
  187.7980  177.9610  141.2140 C   0  0  0  0  0  0  0  0  0  0  0  0
  188.9900  176.6740  139.6000 O   0  0  0  0  0  1  0  0  0  0  0  0
  188.6380  177.9740  139.9710 C   0  0  1  0  0  3  0  0  0  0  0  0
  187.9320  178.6320  138.8800 N   0  0  0  0  0  2  0  0  0  0  0  0
  186.1970  177.2800  137.6040 C   0  0  0  0  0  2  0  0  0  0  0  0
  188.2070  177.2160  135.3740 C   0  0  0  0  0  2  0  0  0  0  0  0
  185.7950  176.8430  136.2060 C   0  0  0  0  0  2  0  0  0  0  0  0
  188.4600  177.8570  136.7060 C   0  0  0  0  0  3  0  0  0  0  0  0
  187.0930  175.7880  135.5100 S   0  0  0  0  0  0  0  0  0  0  0  0
  187.5480  177.9580  137.6800 C   0  0  0  0  0  0  0  0  0  0  0  0
  182.5430  178.8300  144.0710 C   0  0  0  0  0  2  0  0  0  0  0  0
  182.0420  179.3290  142.7240 C   0  0  0  0  0  2  0  0  0  0  0  0
  181.6120  178.1620  141.8960 C   0  0  0  0  0  3  0  0  0  0  0  0
  181.6630  178.1470  140.5540 C   0  0  0  0  0  0  0  0  0  0  0  0
  182.0350  179.0700  138.2800 C   0  0  0  0  0  2  0  0  0  0  0  0
  180.9740  179.9180  138.9380 C   0  0  0  0  0  2  0  0  0  0  0  0
  182.1150  179.3550  139.7700 C   0  0  0  0  0  3  0  0  0  0  0  0
  181.1220  176.9550  139.8050 C   0  0  2  0  0  3  0  0  0  0  0  0
  179.8110  174.9850  140.6320 O   0  0  0  0  0  0  0  0  0  0  0  0
  179.9310  176.3620  140.4910 C   0  0  0  0  0  0  0  0  0  0  0  0
  179.0440  177.1190  140.9650 O   0  0  0  0  0  1  0  0  0  0  0  0
  182.4200  175.7120  139.4960 S   0  0  0  0  0  0  0  0  0  0  0  0
  181.6470  175.1240  137.9590 C   0  0  0  0  0  2  0  0  0  0  0  0
  182.0610  173.8140  137.6920 O   0  0  0  0  0  0  0  0  0  0  0  0
  184.3500  173.1900  136.9150 C   0  0  0  0  0  2  0  0  0  0  0  0
  183.3040  172.5890  135.9790 C   0  0  2  0  0  3  0  0  0  0  0  0
  183.0430  175.0420  135.8790 O   0  0  0  0  0  1  0  0  0  0  0  0
  183.6870  172.8060  134.6530 O   0  0  0  0  0  1  0  0  0  0  0  0
  183.0370  173.9020  136.6900 C   0  0  1  0  0  0  0  0  0  0  0  0
  187.8800  177.3010  145.8860 O   0  0  0  0  0  0  0  0  0  0  0  0
  187.8860  177.2480  147.3070 C   0  0  0  0  0  2  0  0  0  0  0  0
  189.1990  177.7930  147.8360 C   0  0  0  0  0  2  0  0  0  0  0  0
  191.5050  176.6700  144.3990 C   0  0  0  0  0  0  0  0  0  0  0  0
  191.8770  176.3650  143.1550 C   0  0  0  0  0  2  0  0  0  0  0  0
  190.6800  175.9210  146.7420 C   0  0  0  0  0  3  0  0  0  0  0  0
  190.9200  179.0380  143.6630 C   0  0  0  0  0  3  0  0  0  0  0  0
  191.1520  178.0590  144.7280 C   0  0  0  0  0  0  0  0  0  0  0  0
  190.6300  178.0890  145.9000 C   0  0  0  0  0  3  0  0  0  0  0  0
  191.3200  178.7350  142.4230 C   0  0  0  0  0  3  0  0  0  0  0  0
  191.2960  175.6410  145.4070 N   0  0  0  0  0  0  0  0  0  0  0  0
  192.0590  177.4450  142.1070 C   0  0  2  0  0  3  0  0  0  0  0  0
  190.3210  177.3920  146.9410 C   0  0  0  0  0  0  0  0  0  0  0  0
  191.6380  176.9430  140.8090 N   0  0  0  0  0  2  0  0  0  0  0  0
  193.5630  178.0170  140.0490 O   0  0  0  0  0  1  0  0  0  0  0  0
  192.8230  176.8370  139.9670 C   0  0  2  0  0  3  0  0  0  0  0  0
  192.4430  176.5540  138.5150 C   0  0  0  0  0  2  0  0  0  0  0  0
  193.6440  176.1250  137.6840 C   0  0  1  0  0  3  0  0  0  0  0  0
  193.8640  174.2870  135.5550 C   0  0  0  0  0  2  0  0  0  0  0  0
  194.1370  175.7240  135.4150 C   0  0  1  0  0  3  0  0  0  0  0  0
  193.8020  174.7580  137.7600 O   0  0  0  0  0  0  0  0  0  0  0  0
  193.1950  175.2280  136.5620 C   0  0  1  0  0  0  0  0  0  0  0  0
  195.6240  175.9160  135.7280 C   0  0  0  0  0  2  0  0  0  0  0  0
  196.4370  174.8650  134.9990 C   0  0  0  0  0  1  0  0  0  0  0  0
  1  9  1  6  0  0  0
  1  6  1  0  0  0  0
  1  7  1  0  0  0  0
  2  3  1  0  0  0  0
  4 40  1  0  0  0  0
  4  3  1  0  0  0  0
  5 21  1  6  0  0  0
  5  2  1  0  0  0  0
  6  5  1  0  0  0  0
  7  4  2  0  0  0  0
  9  8  1  6  0  0  0
 11  9  1  0  0  0  0
 11 10  2  0  0  0  0
 13 12  1  6  0  0  0
 13 11  1  0  0  0  0
 14 13  1  0  0  0  0
 15 20  1  0  0  0  0
 16 19  1  0  0  0  0
 16 18  1  0  0  0  0
 17 15  1  0  0  0  0
 18 20  2  0  0  0  0
 19 17  1  0  0  0  0
 20 14  1  0  0  0  0
 22 21  1  0  0  0  0
 23 22  1  0  0  0  0
 24 23  2  0  0  0  0
 25 26  1  0  0  0  0
 25 27  1  0  0  0  0
 26 27  1  0  0  0  0
 27 24  1  0  0  0  0
 28 32  1  1  0  0  0
 28 30  1  0  0  0  0
 28 24  1  0  0  0  0
 30 29  2  0  0  0  0
 30 31  1  0  0  0  0
 33 32  1  0  0  0  0
 34 33  1  0  0  0  0
 36 38  1  6  0  0  0
 36 39  1  0  0  0  0
 36 35  1  0  0  0  0
 39 37  1  6  0  0  0
 39 35  1  0  0  0  0
 39 34  1  0  0  0  0
 40 41  1  0  0  0  0
 41 42  1  0  0  0  0
 43 47  2  0  0  0  0
 43 50  1  0  0  0  0
 44 43  1  0  0  0  0
 45 52  1  0  0  0  0
 46 47  1  0  0  0  0
 47 48  1  0  0  0  0
 48 52  2  0  0  0  0
 49 46  2  0  0  0  0
 50 45  2  0  0  0  0
 51 53  1  6  0  0  0
 51 49  1  0  0  0  0
 51 44  1  0  0  0  0
 52 42  1  0  0  0  0
 55 54  1  6  0  0  0
 55 53  1  0  0  0  0
 56 55  1  0  0  0  0
 57 60  1  0  0  0  0
 57 56  1  1  0  0  0
 59 58  1  0  0  0  0
 59 62  1  1  0  0  0
 59 61  1  0  0  0  0
 61 58  1  6  0  0  0
 61 57  1  0  0  0  0
 61 60  1  0  0  0  0
 63 62  1  0  0  0  0
M  END
>  <MODEL>
9

>  <REMARK>
 VINA RESULT:      -4.9      2.794      9.248
  Name = 
  24 active torsions:
  status: ('A' for Active; 'I' for Inactive)
    1  A    between atoms: C_1  and  C_49
    2  A    between atoms: C_3  and  C_52
    3  A    between atoms: C_5  and  C_10
    4  A    between atoms: C_5  and  C_26
    5  A    between atoms: C_6  and  O_28
    6  A    between atoms: C_6  and  S_29
    7  A    between atoms: O_8  and  C_21
    8  A    between atoms: O_8  and  C_61
    9  A    between atoms: N_13  and  C_26
   10  A    between atoms: N_13  and  C_58
   11  A    between atoms: C_17  and  C_22
   12  A    between atoms: C_17  and  C_42
   13  A    between atoms: C_18  and  C_43
   14  A    between atoms: O_28  and  C_45
   15  A    between atoms: S_29  and  C_52
   16  A    between atoms: C_30  and  C_59
   17  A    between atoms: C_30  and  C_61
   18  A    between atoms: N_34  and  C_60
   19  A    between atoms: N_34  and  C_63
   20  A    between atoms: C_37  and  C_53
   21  A    between atoms: C_40  and  C_49
   22  A    between atoms: C_40  and  C_60
   23  A    between atoms: C_42  and  C_44
   24  A    between atoms: C_52  and  C_53
                            x       y       z     vdW  Elec       q    Type
                         _______ _______ _______ _____ _____    ______ ____

>  <TORSDO>
F 24

$$$$
