=
 OpenBabel11042410553D

 26 30  0  0  1  0  0  0  0  0999 V2000
  184.9210  178.7590  141.4940 C   0  0  0  0  0  0  0  0  0  0  0  0
  186.9040  177.5450  144.6470 C   0  0  0  0  0  0  0  0  0  0  0  0
  188.0180  178.5000  141.2090 C   0  0  1  0  0  3  0  0  0  0  0  0
  189.2240  176.8800  145.1110 C   0  0  0  0  0  3  0  0  0  0  0  0
  183.7130  179.2470  142.2220 C   0  0  0  0  0  2  0  0  0  0  0  0
  187.9080  177.8730  146.8570 C   0  0  0  0  0  3  0  0  0  0  0  0
  187.5170  178.2010  139.8220 C   0  0  0  0  0  0  0  0  0  0  0  0
  186.2490  178.4420  139.3960 C   0  0  0  0  0  3  0  0  0  0  0  0
  188.1570  176.9760  144.2160 C   0  0  0  0  0  0  0  0  0  0  0  0
  187.2090  178.8520  142.1420 N   0  0  0  0  0  2  0  0  0  0  0  0
  185.0570  178.8990  140.1730 C   0  0  0  0  0  3  0  0  0  0  0  0
  189.1050  177.3230  146.4200 C   0  0  0  0  0  0  0  0  0  0  0  0
  185.9950  178.0880  142.2380 C   0  0  1  0  0  3  0  0  0  0  0  0
  184.8080  180.2630  144.1250 O   0  0  0  0  0  1  0  0  0  0  0  0
  189.4660  177.6530  141.8440 S   0  0  0  0  0  0  0  0  0  0  0  0
  186.8070  177.9910  145.9990 C   0  0  0  0  0  0  0  0  0  0  0  0
  183.9560  179.2220  143.7370 C   0  0  2  0  0  3  0  0  0  0  0  0
  184.4260  177.9640  144.2000 O   0  0  0  0  0  0  0  0  0  0  0  0
  185.7110  177.6490  143.6740 C   0  0  2  0  0  3  0  0  0  0  0  0
  190.4610  177.1910  147.5180 Cl  0  0  0  0  0  0  0  0  0  0  0  0
  188.4360  176.4640  142.8190 C   0  0  0  0  0  2  0  0  0  0  0  0
  188.4900  178.4720  137.5660 C   0  0  0  0  0  2  0  0  0  0  0  0
  189.4850  178.6140  138.5460 O   0  0  0  0  0  0  0  0  0  0  0  0
  188.4840  177.6570  138.8070 C   0  0  1  0  0  3  0  0  0  0  0  0
  185.6050  179.6170  147.2700 O   0  0  0  0  0  0  0  0  0  0  0  0
  185.5790  178.5790  146.5550 C   0  0  0  0  0  3  0  0  0  0  0  0
  1  5  1  0  0  0  0
  2 16  1  0  0  0  0
  3  7  1  6  0  0  0
  3 15  1  0  0  0  0
  3 10  1  0  0  0  0
  4 12  2  0  0  0  0
  5 17  1  0  0  0  0
  8  7  2  0  0  0  0
  8 11  1  0  0  0  0
  9  2  2  0  0  0  0
  9  4  1  0  0  0  0
 10 13  1  0  0  0  0
 11  1  2  0  0  0  0
 12  6  1  0  0  0  0
 12 20  1  0  0  0  0
 13  1  1  1  0  0  0
 13 19  1  0  0  0  0
 15 21  1  0  0  0  0
 16 26  1  0  0  0  0
 16  6  2  0  0  0  0
 17 14  1  6  0  0  0
 17 18  1  0  0  0  0
 19 18  1  1  0  0  0
 19  2  1  0  0  0  0
 21  9  1  0  0  0  0
 22 23  1  0  0  0  0
 22 24  1  0  0  0  0
 23 24  1  0  0  0  0
 24  7  1  1  0  0  0
 26 25  2  0  0  0  0
M  END
>  <MODEL>
1

>  <REMARK>
 VINA RESULT:      -9.0      0.000      0.000
  Name = 
  2 active torsions:
  status: ('A' for Active; 'I' for Inactive)
    1  A    between atoms: C_9  and  C_17
    2  A    between atoms: C_19  and  C_23
                            x       y       z     vdW  Elec       q    Type
                         _______ _______ _______ _____ _____    ______ ____

>  <TORSDO>
F 2

$$$$
=
 OpenBabel11042410553D

 26 30  0  0  1  0  0  0  0  0999 V2000
  187.0590  178.2570  140.6520 C   0  0  0  0  0  0  0  0  0  0  0  0
  186.8930  177.7140  144.5280 C   0  0  0  0  0  0  0  0  0  0  0  0
  189.7770  178.0740  142.1770 C   0  0  1  0  0  3  0  0  0  0  0  0
  188.5250  177.2360  146.3040 C   0  0  0  0  0  3  0  0  0  0  0  0
  185.6870  178.8210  140.4940 C   0  0  0  0  0  2  0  0  0  0  0  0
  186.5360  178.4770  146.8290 C   0  0  0  0  0  3  0  0  0  0  0  0
  190.1020  177.5090  140.8190 C   0  0  0  0  0  0  0  0  0  0  0  0
  189.2960  177.6170  139.7300 C   0  0  0  0  0  3  0  0  0  0  0  0
  188.1340  177.1260  144.9680 C   0  0  0  0  0  0  0  0  0  0  0  0
  188.6140  178.5560  142.4280 N   0  0  0  0  0  2  0  0  0  0  0  0
  187.9090  178.1600  139.6260 C   0  0  0  0  0  3  0  0  0  0  0  0
  187.7350  177.9050  147.2280 C   0  0  0  0  0  0  0  0  0  0  0  0
  187.4980  177.7760  141.9680 C   0  0  1  0  0  3  0  0  0  0  0  0
  185.6210  180.2070  142.4750 O   0  0  0  0  0  1  0  0  0  0  0  0
  190.5760  177.4130  143.6400 S   0  0  0  0  0  0  0  0  0  0  0  0
  186.1000  178.3940  145.5000 C   0  0  0  0  0  0  0  0  0  0  0  0
  185.0540  179.0810  141.8670 C   0  0  2  0  0  3  0  0  0  0  0  0
  185.1050  177.9470  142.7210 O   0  0  0  0  0  0  0  0  0  0  0  0
  186.4420  177.5930  143.0580 C   0  0  2  0  0  3  0  0  0  0  0  0
  188.2510  178.0270  148.8960 Cl  0  0  0  0  0  0  0  0  0  0  0  0
  189.1000  176.3820  144.0710 C   0  0  0  0  0  2  0  0  0  0  0  0
  191.9970  177.1210  139.2810 C   0  0  0  0  0  2  0  0  0  0  0  0
  192.4340  177.7970  140.4300 O   0  0  0  0  0  0  0  0  0  0  0  0
  191.4280  176.8280  140.6210 C   0  0  1  0  0  3  0  0  0  0  0  0
  183.8550  179.0440  145.9930 O   0  0  0  0  0  0  0  0  0  0  0  0
  184.8120  179.0240  145.1730 C   0  0  0  0  0  3  0  0  0  0  0  0
  2  9  2  0  0  0  0
  2 16  1  0  0  0  0
  3  7  1  6  0  0  0
  3 10  1  0  0  0  0
  3 15  1  0  0  0  0
  4 12  2  0  0  0  0
  5  1  1  0  0  0  0
  5 17  1  0  0  0  0
  6 12  1  0  0  0  0
  8  7  2  0  0  0  0
  9  4  1  0  0  0  0
 11  8  1  0  0  0  0
 11  1  2  0  0  0  0
 12 20  1  0  0  0  0
 13  1  1  6  0  0  0
 13 10  1  0  0  0  0
 13 19  1  0  0  0  0
 15 21  1  0  0  0  0
 16  6  2  0  0  0  0
 17 14  1  1  0  0  0
 17 18  1  0  0  0  0
 19 18  1  6  0  0  0
 19  2  1  0  0  0  0
 21  9  1  0  0  0  0
 22 23  1  0  0  0  0
 22 24  1  0  0  0  0
 23 24  1  0  0  0  0
 24  7  1  6  0  0  0
 26 16  1  0  0  0  0
 26 25  2  0  0  0  0
M  END
>  <MODEL>
2

>  <REMARK>
 VINA RESULT:      -9.0      1.815      2.264
  Name = 
  2 active torsions:
  status: ('A' for Active; 'I' for Inactive)
    1  A    between atoms: C_9  and  C_17
    2  A    between atoms: C_19  and  C_23
                            x       y       z     vdW  Elec       q    Type
                         _______ _______ _______ _____ _____    ______ ____

>  <TORSDO>
F 2

$$$$
=
 OpenBabel11042410553D

 26 30  0  0  1  0  0  0  0  0999 V2000
  185.3080  178.5300  143.9680 C   0  0  0  0  0  0  0  0  0  0  0  0
  187.4250  178.3920  140.6740 C   0  0  0  0  0  0  0  0  0  0  0  0
  187.9130  176.8110  144.0270 C   0  0  1  0  0  3  0  0  0  0  0  0
  189.6280  177.5030  140.0410 C   0  0  0  0  0  3  0  0  0  0  0  0
  184.0160  178.9210  143.3310 C   0  0  0  0  0  2  0  0  0  0  0  0
  187.8780  177.6050  138.3990 C   0  0  0  0  0  3  0  0  0  0  0  0
  187.7870  177.2980  145.4460 C   0  0  0  0  0  0  0  0  0  0  0  0
  186.6690  177.8740  145.9630 C   0  0  0  0  0  3  0  0  0  0  0  0
  188.7840  178.0490  141.0110 C   0  0  0  0  0  0  0  0  0  0  0  0
  187.0050  177.0730  143.1570 N   0  0  0  0  0  2  0  0  0  0  0  0
  185.4070  178.2810  145.2760 C   0  0  0  0  0  3  0  0  0  0  0  0
  189.1820  177.2820  138.7460 C   0  0  0  0  0  0  0  0  0  0  0  0
  186.5200  178.4250  143.1450 C   0  0  1  0  0  3  0  0  0  0  0  0
  184.1340  177.5260  141.3580 O   0  0  0  0  0  1  0  0  0  0  0  0
  189.5340  176.6110  143.2860 S   0  0  0  0  0  0  0  0  0  0  0  0
  186.9930  178.1560  139.3350 C   0  0  0  0  0  0  0  0  0  0  0  0
  184.1310  178.8530  141.8020 C   0  0  2  0  0  3  0  0  0  0  0  0
  185.2490  179.5710  141.3020 O   0  0  0  0  0  0  0  0  0  0  0  0
  186.4830  179.0050  141.7310 C   0  0  2  0  0  3  0  0  0  0  0  0
  190.2610  176.5950  137.5520 Cl  0  0  0  0  0  0  0  0  0  0  0  0
  189.4020  178.2210  142.3820 C   0  0  0  0  0  2  0  0  0  0  0  0
  188.9050  178.0460  147.5190 C   0  0  0  0  0  2  0  0  0  0  0  0
  188.4570  176.7240  147.6580 O   0  0  0  0  0  0  0  0  0  0  0  0
  188.9410  177.0880  146.3850 C   0  0  1  0  0  3  0  0  0  0  0  0
  185.0750  177.8170  137.9530 O   0  0  0  0  0  0  0  0  0  0  0  0
  185.6340  178.4740  138.8720 C   0  0  0  0  0  3  0  0  0  0  0  0
  1 11  2  0  0  0  0
  2  9  1  0  0  0  0
  3 10  1  6  0  0  0
  3  7  1  0  0  0  0
  4  9  2  0  0  0  0
  5  1  1  0  0  0  0
  6 12  2  0  0  0  0
  6 16  1  0  0  0  0
  7  8  2  0  0  0  0
  9 21  1  0  0  0  0
 11  8  1  0  0  0  0
 12  4  1  0  0  0  0
 13 10  1  6  0  0  0
 13  1  1  0  0  0  0
 15  3  1  0  0  0  0
 16  2  2  0  0  0  0
 17 14  1  1  0  0  0
 17  5  1  0  0  0  0
 18 19  1  0  0  0  0
 18 17  1  0  0  0  0
 19  2  1  6  0  0  0
 19 13  1  0  0  0  0
 20 12  1  0  0  0  0
 21 15  1  0  0  0  0
 22 23  1  0  0  0  0
 24  7  1  6  0  0  0
 24 22  1  0  0  0  0
 24 23  1  0  0  0  0
 25 26  2  0  0  0  0
 26 16  1  0  0  0  0
M  END
>  <MODEL>
3

>  <REMARK>
 VINA RESULT:      -8.8      2.635      5.868
  Name = 
  2 active torsions:
  status: ('A' for Active; 'I' for Inactive)
    1  A    between atoms: C_9  and  C_17
    2  A    between atoms: C_19  and  C_23
                            x       y       z     vdW  Elec       q    Type
                         _______ _______ _______ _____ _____    ______ ____

>  <TORSDO>
F 2

$$$$
=
 OpenBabel11042410553D

 26 30  0  0  1  0  0  0  0  0999 V2000
  183.9370  178.5580  144.2520 C   0  0  0  0  0  0  0  0  0  0  0  0
  187.7100  177.6250  144.7450 C   0  0  0  0  0  0  0  0  0  0  0  0
  185.8760  179.1930  141.8900 C   0  0  1  0  0  3  0  0  0  0  0  0
  189.7070  177.5810  143.3130 C   0  0  0  0  0  3  0  0  0  0  0  0
  183.5790  178.6190  145.7000 C   0  0  0  0  0  2  0  0  0  0  0  0
  189.9490  177.9920  145.6670 C   0  0  0  0  0  3  0  0  0  0  0  0
  184.5680  178.9090  141.1980 C   0  0  0  0  0  0  0  0  0  0  0  0
  183.3680  178.8330  141.8300 C   0  0  0  0  0  3  0  0  0  0  0  0
  188.3220  177.4690  143.4490 C   0  0  0  0  0  0  0  0  0  0  0  0
  185.9530  179.2120  143.1710 N   0  0  0  0  0  2  0  0  0  0  0  0
  183.0600  178.8640  143.2920 C   0  0  0  0  0  3  0  0  0  0  0  0
  190.5160  177.8400  144.4100 C   0  0  0  0  0  0  0  0  0  0  0  0
  185.2870  178.1380  143.8550 C   0  0  1  0  0  3  0  0  0  0  0  0
  185.5770  179.6990  146.5340 O   0  0  0  0  0  1  0  0  0  0  0  0
  187.4230  178.7170  141.1170 S   0  0  0  0  0  0  0  0  0  0  0  0
  188.5650  177.8880  145.8560 C   0  0  0  0  0  0  0  0  0  0  0  0
  184.8410  178.5090  146.5670 C   0  0  2  0  0  3  0  0  0  0  0  0
  185.6460  177.3890  146.2290 O   0  0  0  0  0  0  0  0  0  0  0  0
  186.1810  177.4950  144.9140 C   0  0  2  0  0  3  0  0  0  0  0  0
  192.2490  177.9750  144.2080 Cl  0  0  0  0  0  0  0  0  0  0  0  0
  187.5660  177.1980  142.1660 C   0  0  0  0  0  2  0  0  0  0  0  0
  183.4400  179.5070  139.0830 C   0  0  0  0  0  2  0  0  0  0  0  0
  184.7470  180.0170  139.0980 O   0  0  0  0  0  0  0  0  0  0  0  0
  184.5620  178.7580  139.7030 C   0  0  1  0  0  3  0  0  0  0  0  0
  188.8260  178.3100  148.1930 O   0  0  0  0  0  0  0  0  0  0  0  0
  188.0570  178.0560  147.2260 C   0  0  0  0  0  3  0  0  0  0  0  0
  1  5  1  0  0  0  0
  2 16  1  0  0  0  0
  3 15  1  1  0  0  0
  3 10  1  0  0  0  0
  4  9  1  0  0  0  0
  4 12  2  0  0  0  0
  5 17  1  0  0  0  0
  6 16  2  0  0  0  0
  7  8  2  0  0  0  0
  7  3  1  0  0  0  0
  8 11  1  0  0  0  0
  9  2  2  0  0  0  0
 11  1  2  0  0  0  0
 12  6  1  0  0  0  0
 13 10  1  1  0  0  0
 13  1  1  0  0  0  0
 13 19  1  0  0  0  0
 15 21  1  0  0  0  0
 16 26  1  0  0  0  0
 17 14  1  6  0  0  0
 18 17  1  0  0  0  0
 19  2  1  1  0  0  0
 19 18  1  0  0  0  0
 20 12  1  0  0  0  0
 21  9  1  0  0  0  0
 22 23  1  0  0  0  0
 22 24  1  0  0  0  0
 23 24  1  0  0  0  0
 24  7  1  1  0  0  0
 26 25  2  0  0  0  0
M  END
>  <MODEL>
4

>  <REMARK>
 VINA RESULT:      -8.8      2.131      2.968
  Name = 
  2 active torsions:
  status: ('A' for Active; 'I' for Inactive)
    1  A    between atoms: C_9  and  C_17
    2  A    between atoms: C_19  and  C_23
                            x       y       z     vdW  Elec       q    Type
                         _______ _______ _______ _____ _____    ______ ____

>  <TORSDO>
F 2

$$$$
=
 OpenBabel11042410553D

 26 30  0  0  1  0  0  0  0  0999 V2000
  190.5510  177.1440  142.8930 C   0  0  0  0  0  0  0  0  0  0  0  0
  186.6850  177.6820  143.2260 C   0  0  0  0  0  0  0  0  0  0  0  0
  189.4720  177.9870  145.6980 C   0  0  1  0  0  3  0  0  0  0  0  0
  185.1230  178.0830  145.0810 C   0  0  0  0  0  3  0  0  0  0  0  0
  190.6280  177.3310  141.4150 C   0  0  0  0  0  2  0  0  0  0  0  0
  184.6200  178.9590  142.9020 C   0  0  0  0  0  3  0  0  0  0  0  0
  190.6790  177.1500  146.0280 C   0  0  0  0  0  0  0  0  0  0  0  0
  191.6220  176.7740  145.1250 C   0  0  0  0  0  3  0  0  0  0  0  0
  186.3120  177.5230  144.6100 C   0  0  0  0  0  0  0  0  0  0  0  0
  189.1700  178.2570  144.4800 N   0  0  0  0  0  2  0  0  0  0  0  0
  191.6400  176.9520  143.6420 C   0  0  0  0  0  3  0  0  0  0  0  0
  184.2820  178.7950  144.2380 C   0  0  0  0  0  0  0  0  0  0  0  0
  189.2410  177.1560  143.5580 C   0  0  1  0  0  3  0  0  0  0  0  0
  189.0690  179.1660  141.1860 O   0  0  0  0  0  1  0  0  0  0  0  0
  188.0330  177.9500  146.7680 S   0  0  0  0  0  0  0  0  0  0  0  0
  185.8010  178.4160  142.3800 C   0  0  0  0  0  0  0  0  0  0  0  0
  189.2810  177.8200  140.8660 C   0  0  2  0  0  3  0  0  0  0  0  0
  188.1910  177.0090  141.2780 O   0  0  0  0  0  0  0  0  0  0  0  0
  187.9900  177.0610  142.6860 C   0  0  2  0  0  3  0  0  0  0  0  0
  182.7990  179.4860  144.8580 Cl  0  0  0  0  0  0  0  0  0  0  0  0
  187.1340  176.7850  145.6450 C   0  0  0  0  0  2  0  0  0  0  0  0
  191.7710  175.5420  147.5550 C   0  0  0  0  0  2  0  0  0  0  0  0
  192.2800  176.8330  147.7630 O   0  0  0  0  0  0  0  0  0  0  0  0
  190.9070  176.7450  147.4580 C   0  0  1  0  0  3  0  0  0  0  0  0
  185.3560  179.4030  140.2510 O   0  0  0  0  0  0  0  0  0  0  0  0
  186.0700  178.6360  140.9510 C   0  0  0  0  0  3  0  0  0  0  0  0
  1 11  2  0  0  0  0
  2  9  1  0  0  0  0
  3 10  1  6  0  0  0
  3  7  1  0  0  0  0
  3 15  1  0  0  0  0
  5  1  1  0  0  0  0
  6 12  2  0  0  0  0
  8  7  2  0  0  0  0
  9  4  2  0  0  0  0
  9 21  1  0  0  0  0
 11  8  1  0  0  0  0
 12 20  1  0  0  0  0
 12  4  1  0  0  0  0
 13  1  1  6  0  0  0
 13 10  1  0  0  0  0
 16  6  1  0  0  0  0
 16  2  2  0  0  0  0
 17 14  1  1  0  0  0
 17 18  1  0  0  0  0
 17  5  1  0  0  0  0
 19 18  1  6  0  0  0
 19  2  1  0  0  0  0
 19 13  1  0  0  0  0
 21 15  1  0  0  0  0
 22 23  1  0  0  0  0
 24  7  1  6  0  0  0
 24 22  1  0  0  0  0
 24 23  1  0  0  0  0
 25 26  2  0  0  0  0
 26 16  1  0  0  0  0
M  END
>  <MODEL>
5

>  <REMARK>
 VINA RESULT:      -8.7      3.130      6.155
  Name = 
  2 active torsions:
  status: ('A' for Active; 'I' for Inactive)
    1  A    between atoms: C_9  and  C_17
    2  A    between atoms: C_19  and  C_23
                            x       y       z     vdW  Elec       q    Type
                         _______ _______ _______ _____ _____    ______ ____

>  <TORSDO>
F 2

$$$$
=
 OpenBabel11042410553D

 26 30  0  0  1  0  0  0  0  0999 V2000
  185.3060  178.5470  142.2950 C   0  0  0  0  0  0  0  0  0  0  0  0
  187.9480  177.1710  144.8400 C   0  0  0  0  0  0  0  0  0  0  0  0
  188.2800  178.4690  141.3510 C   0  0  1  0  0  3  0  0  0  0  0  0
  190.3330  176.5850  144.7480 C   0  0  0  0  0  3  0  0  0  0  0  0
  184.2650  178.9100  143.3010 C   0  0  0  0  0  2  0  0  0  0  0  0
  189.3860  177.3600  146.8140 C   0  0  0  0  0  3  0  0  0  0  0  0
  187.5060  178.2640  140.0750 C   0  0  0  0  0  0  0  0  0  0  0  0
  186.1700  178.4750  139.9470 C   0  0  0  0  0  3  0  0  0  0  0  0
  189.0980  176.7030  144.1070 C   0  0  0  0  0  0  0  0  0  0  0  0
  187.6750  178.6990  142.4590 N   0  0  0  0  0  2  0  0  0  0  0  0
  185.1560  178.8050  140.9930 C   0  0  0  0  0  3  0  0  0  0  0  0
  190.4790  176.9100  146.0890 C   0  0  0  0  0  0  0  0  0  0  0  0
  186.5340  177.8700  142.7340 C   0  0  1  0  0  3  0  0  0  0  0  0
  185.7060  179.8140  145.0210 O   0  0  0  0  0  1  0  0  0  0  0  0
  189.8550  177.6440  141.5880 S   0  0  0  0  0  0  0  0  0  0  0  0
  188.1250  177.4950  146.2180 C   0  0  0  0  0  0  0  0  0  0  0  0
  184.8230  178.7700  144.7230 C   0  0  2  0  0  3  0  0  0  0  0  0
  185.4190  177.5020  144.9580 O   0  0  0  0  0  0  0  0  0  0  0  0
  186.5730  177.2970  144.1500 C   0  0  2  0  0  3  0  0  0  0  0  0
  192.0400  176.7530  146.8640 Cl  0  0  0  0  0  0  0  0  0  0  0  0
  189.0920  176.3270  142.6410 C   0  0  0  0  0  2  0  0  0  0  0  0
  187.7950  178.6190  137.6470 C   0  0  0  0  0  2  0  0  0  0  0  0
  188.9720  178.9600  138.3320 O   0  0  0  0  0  0  0  0  0  0  0  0
  188.2530  177.8570  138.8360 C   0  0  1  0  0  3  0  0  0  0  0  0
  187.1760  178.1620  148.3060 O   0  0  0  0  0  0  0  0  0  0  0  0
  187.0250  177.9720  147.0690 C   0  0  0  0  0  3  0  0  0  0  0  0
  1  5  1  0  0  0  0
  2 16  1  0  0  0  0
  3  7  1  6  0  0  0
  3 15  1  0  0  0  0
  3 10  1  0  0  0  0
  4 12  2  0  0  0  0
  5 17  1  0  0  0  0
  8  7  2  0  0  0  0
  8 11  1  0  0  0  0
  9  4  1  0  0  0  0
  9  2  2  0  0  0  0
 10 13  1  0  0  0  0
 11  1  2  0  0  0  0
 12  6  1  0  0  0  0
 12 20  1  0  0  0  0
 13  1  1  1  0  0  0
 13 19  1  0  0  0  0
 15 21  1  0  0  0  0
 16  6  2  0  0  0  0
 16 26  1  0  0  0  0
 17 18  1  0  0  0  0
 17 14  1  6  0  0  0
 19  2  1  1  0  0  0
 19 18  1  0  0  0  0
 21  9  1  0  0  0  0
 22 23  1  0  0  0  0
 22 24  1  0  0  0  0
 23 24  1  0  0  0  0
 24  7  1  1  0  0  0
 26 25  2  0  0  0  0
M  END
>  <MODEL>
6

>  <REMARK>
 VINA RESULT:      -8.2      0.999      1.155
  Name = 
  2 active torsions:
  status: ('A' for Active; 'I' for Inactive)
    1  A    between atoms: C_9  and  C_17
    2  A    between atoms: C_19  and  C_23
                            x       y       z     vdW  Elec       q    Type
                         _______ _______ _______ _____ _____    ______ ____

>  <TORSDO>
F 2

$$$$
=
 OpenBabel11042410553D

 26 30  0  0  1  0  0  0  0  0999 V2000
  187.5380  177.9860  146.5000 C   0  0  0  0  0  0  0  0  0  0  0  0
  185.3330  178.8590  143.3820 C   0  0  0  0  0  0  0  0  0  0  0  0
  188.3920  176.7460  143.7660 C   0  0  1  0  0  3  0  0  0  0  0  0
  185.5000  178.4920  140.9570 C   0  0  0  0  0  3  0  0  0  0  0  0
  186.5030  178.2770  147.5350 C   0  0  0  0  0  2  0  0  0  0  0  0
  183.3330  178.6290  141.9850 C   0  0  0  0  0  3  0  0  0  0  0  0
  189.6990  176.9120  144.4940 C   0  0  0  0  0  0  0  0  0  0  0  0
  189.8080  177.1800  145.8220 C   0  0  0  0  0  3  0  0  0  0  0  0
  186.1260  178.6860  142.1900 C   0  0  0  0  0  0  0  0  0  0  0  0
  187.2770  177.0210  144.3410 N   0  0  0  0  0  2  0  0  0  0  0  0
  188.7410  177.5010  146.8170 C   0  0  0  0  0  3  0  0  0  0  0  0
  184.1170  178.4630  140.8520 C   0  0  0  0  0  0  0  0  0  0  0  0
  187.2430  178.2500  145.0850 C   0  0  1  0  0  3  0  0  0  0  0  0
  184.5760  177.3420  146.4100 O   0  0  0  0  0  1  0  0  0  0  0  0
  188.3190  176.9680  141.9880 S   0  0  0  0  0  0  0  0  0  0  0  0
  183.9130  178.8280  143.2450 C   0  0  0  0  0  0  0  0  0  0  0  0
  185.1420  178.5350  146.8730 C   0  0  2  0  0  3  0  0  0  0  0  0
  185.2060  179.5140  145.8460 O   0  0  0  0  0  0  0  0  0  0  0  0
  186.0080  179.0850  144.7510 C   0  0  2  0  0  3  0  0  0  0  0  0
  183.3610  178.2160  139.2930 Cl  0  0  0  0  0  0  0  0  0  0  0  0
  187.6390  178.6820  142.1550 C   0  0  0  0  0  2  0  0  0  0  0  0
  191.5990  178.0090  143.3570 C   0  0  0  0  0  2  0  0  0  0  0  0
  192.0540  177.2660  144.4580 O   0  0  0  0  0  0  0  0  0  0  0  0
  190.9800  176.7130  143.7320 C   0  0  1  0  0  3  0  0  0  0  0  0
  181.7980  178.6300  144.3370 O   0  0  0  0  0  0  0  0  0  0  0  0
  183.0020  179.0020  144.3860 C   0  0  0  0  0  3  0  0  0  0  0  0
  1 11  2  0  0  0  0
  1  5  1  0  0  0  0
  3 15  1  6  0  0  0
  3 10  1  0  0  0  0
  3  7  1  0  0  0  0
  4  9  1  0  0  0  0
  6 16  2  0  0  0  0
  7  8  2  0  0  0  0
  8 11  1  0  0  0  0
  9  2  2  0  0  0  0
 12  4  2  0  0  0  0
 12  6  1  0  0  0  0
 13 10  1  6  0  0  0
 13  1  1  0  0  0  0
 15 21  1  0  0  0  0
 16  2  1  0  0  0  0
 16 26  1  0  0  0  0
 17 14  1  6  0  0  0
 17  5  1  0  0  0  0
 18 17  1  0  0  0  0
 19  2  1  6  0  0  0
 19 13  1  0  0  0  0
 19 18  1  0  0  0  0
 20 12  1  0  0  0  0
 21  9  1  0  0  0  0
 22 24  1  0  0  0  0
 22 23  1  0  0  0  0
 24 23  1  0  0  0  0
 24  7  1  1  0  0  0
 25 26  2  0  0  0  0
M  END
>  <MODEL>
7

>  <REMARK>
 VINA RESULT:      -8.0      3.011      5.283
  Name = 
  2 active torsions:
  status: ('A' for Active; 'I' for Inactive)
    1  A    between atoms: C_9  and  C_17
    2  A    between atoms: C_19  and  C_23
                            x       y       z     vdW  Elec       q    Type
                         _______ _______ _______ _____ _____    ______ ____

>  <TORSDO>
F 2

$$$$
=
 OpenBabel11042410553D

 26 30  0  0  1  0  0  0  0  0999 V2000
  191.0010  176.6410  144.6210 C   0  0  0  0  0  0  0  0  0  0  0  0
  188.0080  177.3300  142.1890 C   0  0  0  0  0  0  0  0  0  0  0  0
  188.5180  178.1140  145.8080 C   0  0  1  0  0  3  0  0  0  0  0  0
  185.7110  178.1720  142.4290 C   0  0  0  0  0  3  0  0  0  0  0  0
  192.0510  176.4900  143.5720 C   0  0  0  0  0  2  0  0  0  0  0  0
  186.9010  178.5510  140.3770 C   0  0  0  0  0  3  0  0  0  0  0  0
  189.0590  177.3440  146.9840 C   0  0  0  0  0  0  0  0  0  0  0  0
  190.2830  176.7530  147.0160 C   0  0  0  0  0  3  0  0  0  0  0  0
  186.8060  177.4930  142.9680 C   0  0  0  0  0  0  0  0  0  0  0  0
  189.1320  178.1120  144.6800 N   0  0  0  0  0  2  0  0  0  0  0  0
  191.2900  176.5950  145.9250 C   0  0  0  0  0  3  0  0  0  0  0  0
  185.7550  178.6970  141.1450 C   0  0  0  0  0  0  0  0  0  0  0  0
  189.6000  176.8320  144.2240 C   0  0  1  0  0  3  0  0  0  0  0  0
  191.3500  178.2640  142.0840 O   0  0  0  0  0  1  0  0  0  0  0  0
  186.7500  178.3510  145.6260 S   0  0  0  0  0  0  0  0  0  0  0  0
  188.0260  177.8780  140.8720 C   0  0  0  0  0  0  0  0  0  0  0  0
  191.4910  176.8760  142.1960 C   0  0  2  0  0  3  0  0  0  0  0  0
  190.2790  176.2030  141.8860 O   0  0  0  0  0  0  0  0  0  0  0  0
  189.2230  176.5730  142.7660 C   0  0  2  0  0  3  0  0  0  0  0  0
  184.3680  179.5450  140.4970 Cl  0  0  0  0  0  0  0  0  0  0  0  0
  186.6190  176.9870  144.3820 C   0  0  0  0  0  2  0  0  0  0  0  0
  188.6760  178.2530  149.2500 C   0  0  0  0  0  2  0  0  0  0  0  0
  187.5560  178.4850  148.4370 O   0  0  0  0  0  0  0  0  0  0  0  0
  188.2310  177.2640  148.2360 C   0  0  1  0  0  3  0  0  0  0  0  0
  189.4300  178.6250  139.0900 O   0  0  0  0  0  0  0  0  0  0  0  0
  189.1900  177.7650  139.9810 C   0  0  0  0  0  3  0  0  0  0  0  0
  1 11  2  0  0  0  0
  2 19  1  0  0  0  0
  2  9  1  0  0  0  0
  3 10  1  6  0  0  0
  3  7  1  0  0  0  0
  4  9  2  0  0  0  0
  5  1  1  0  0  0  0
  6 16  1  0  0  0  0
  6 12  2  0  0  0  0
  7  8  2  0  0  0  0
  9 21  1  0  0  0  0
 11  8  1  0  0  0  0
 12  4  1  0  0  0  0
 13  1  1  6  0  0  0
 13 10  1  0  0  0  0
 15  3  1  0  0  0  0
 16  2  2  0  0  0  0
 17 14  1  1  0  0  0
 17  5  1  0  0  0  0
 18 17  1  0  0  0  0
 19 18  1  6  0  0  0
 19 13  1  0  0  0  0
 20 12  1  0  0  0  0
 21 15  1  0  0  0  0
 23 22  1  0  0  0  0
 24  7  1  6  0  0  0
 24 23  1  0  0  0  0
 24 22  1  0  0  0  0
 25 26  2  0  0  0  0
 26 16  1  0  0  0  0
M  END
>  <MODEL>
8

>  <REMARK>
 VINA RESULT:      -7.8      2.993      7.054
  Name = 
  2 active torsions:
  status: ('A' for Active; 'I' for Inactive)
    1  A    between atoms: C_9  and  C_17
    2  A    between atoms: C_19  and  C_23
                            x       y       z     vdW  Elec       q    Type
                         _______ _______ _______ _____ _____    ______ ____

>  <TORSDO>
F 2

$$$$
=
 OpenBabel11042410553D

 26 30  0  0  1  0  0  0  0  0999 V2000
  186.7120  177.8890  147.2400 C   0  0  0  0  0  0  0  0  0  0  0  0
  189.5140  176.8910  144.6900 C   0  0  0  0  0  0  0  0  0  0  0  0
  186.2940  178.7420  144.2670 C   0  0  1  0  0  3  0  0  0  0  0  0
  189.7730  176.9770  142.2470 C   0  0  0  0  0  3  0  0  0  0  0  0
  187.5550  177.8090  148.4680 C   0  0  0  0  0  2  0  0  0  0  0  0
  191.7160  177.1530  143.6490 C   0  0  0  0  0  3  0  0  0  0  0  0
  184.8890  178.5350  144.7690 C   0  0  0  0  0  0  0  0  0  0  0  0
  184.5550  178.4040  146.0790 C   0  0  0  0  0  3  0  0  0  0  0  0
  188.9450  176.8600  143.3650 C   0  0  0  0  0  0  0  0  0  0  0  0
  187.2990  178.6350  145.0580 N   0  0  0  0  0  2  0  0  0  0  0  0
  185.4390  178.2920  147.2780 C   0  0  0  0  0  3  0  0  0  0  0  0
  191.1460  177.1220  142.3840 C   0  0  0  0  0  0  0  0  0  0  0  0
  187.2820  177.5030  145.9430 C   0  0  1  0  0  3  0  0  0  0  0  0
  189.5860  178.7910  147.5940 O   0  0  0  0  0  1  0  0  0  0  0  0
  186.7110  178.3360  142.5700 S   0  0  0  0  0  0  0  0  0  0  0  0
  190.9280  177.0390  144.8020 C   0  0  0  0  0  0  0  0  0  0  0  0
  189.0300  177.6080  148.0930 C   0  0  2  0  0  3  0  0  0  0  0  0
  189.2270  176.5220  147.1990 O   0  0  0  0  0  0  0  0  0  0  0  0
  188.6140  176.7530  145.9360 C   0  0  2  0  0  3  0  0  0  0  0  0
  192.1590  177.2680  140.9640 Cl  0  0  0  0  0  0  0  0  0  0  0  0
  187.4680  176.7210  143.0640 C   0  0  0  0  0  2  0  0  0  0  0  0
  182.4930  179.0030  144.3850 C   0  0  0  0  0  2  0  0  0  0  0  0
  183.2860  179.8460  143.5920 O   0  0  0  0  0  0  0  0  0  0  0  0
  183.7610  178.5320  143.7740 C   0  0  1  0  0  3  0  0  0  0  0  0
  192.1980  176.0580  146.5710 O   0  0  0  0  0  0  0  0  0  0  0  0
  191.6220  177.0750  146.0980 C   0  0  0  0  0  3  0  0  0  0  0  0
  1 11  2  0  0  0  0
  1  5  1  0  0  0  0
  2 16  1  0  0  0  0
  3 15  1  6  0  0  0
  3  7  1  0  0  0  0
  3 10  1  0  0  0  0
  4 12  2  0  0  0  0
  4  9  1  0  0  0  0
  6 16  2  0  0  0  0
  7  8  2  0  0  0  0
  8 11  1  0  0  0  0
  9  2  2  0  0  0  0
 12  6  1  0  0  0  0
 13 10  1  6  0  0  0
 13  1  1  0  0  0  0
 15 21  1  0  0  0  0
 16 26  1  0  0  0  0
 17 14  1  6  0  0  0
 17  5  1  0  0  0  0
 18 17  1  0  0  0  0
 19  2  1  6  0  0  0
 19 13  1  0  0  0  0
 19 18  1  0  0  0  0
 20 12  1  0  0  0  0
 21  9  1  0  0  0  0
 23 24  1  0  0  0  0
 23 22  1  0  0  0  0
 24 22  1  0  0  0  0
 24  7  1  1  0  0  0
 26 25  2  0  0  0  0
M  END
>  <MODEL>
9

>  <REMARK>
 VINA RESULT:      -7.6      3.213      5.621
  Name = 
  2 active torsions:
  status: ('A' for Active; 'I' for Inactive)
    1  A    between atoms: C_9  and  C_17
    2  A    between atoms: C_19  and  C_23
                            x       y       z     vdW  Elec       q    Type
                         _______ _______ _______ _____ _____    ______ ____

>  <TORSDO>
F 2

$$$$
