=
 OpenBabel11032419193D

 25 28  0  0  1  0  0  0  0  0999 V2000
  189.5110  177.4510  141.7440 C   0  0  0  0  0  0  0  0  0  0  0  0
  188.9610  178.0440  140.8290 O   0  0  0  0  0  0  0  0  0  0  0  0
  190.9260  177.7760  142.1150 C   0  0  2  0  0  3  0  0  0  0  0  0
  191.7570  177.5750  141.0120 O   0  0  0  0  0  1  0  0  0  0  0  0
  191.3940  176.9000  143.2690 C   0  0  0  0  0  2  0  0  0  0  0  0
  190.9200  178.9490  144.3800 O   0  0  0  0  0  1  0  0  0  0  0  0
  191.5680  177.7230  144.5330 C   0  0  1  0  0  3  0  0  0  0  0  0
  190.9900  177.0080  145.6620 N   0  0  0  0  0  2  0  0  0  0  0  0
  192.2930  175.2110  146.4110 C   0  0  0  0  0  2  0  0  0  0  0  0
  191.6710  177.0880  147.8380 O   0  0  0  0  0  0  0  0  0  0  0  0
  192.0760  176.6790  146.5680 C   0  0  1  0  0  0  0  0  0  0  0  0
  192.6100  175.2830  148.6120 F   0  0  0  0  0  0  0  0  0  0  0  0
  191.6720  175.6980  147.6870 C   0  0  2  0  0  0  0  0  0  0  0  0
  188.7620  176.3920  142.4880 C   0  0  0  0  0  2  0  0  0  0  0  0
  185.7970  178.0960  145.0430 C   0  0  0  0  0  0  0  0  0  0  0  0
  183.6030  179.2830  145.2440 N   0  0  0  0  0  0  0  0  0  0  0  0
  186.5850  177.4880  142.8710 N   0  0  0  0  0  0  0  0  0  0  0  0
  185.6180  178.0400  143.6520 C   0  0  0  0  0  0  0  0  0  0  0  0
  187.7370  176.9880  143.3960 C   0  0  0  0  0  0  0  0  0  0  0  0
  186.9700  177.5790  145.6030 C   0  0  0  0  0  3  0  0  0  0  0  0
  183.4080  179.2330  143.9600 C   0  0  0  0  0  3  0  0  0  0  0  0
  187.9450  177.0180  144.7790 C   0  0  0  0  0  3  0  0  0  0  0  0
  184.8710  178.7640  147.1250 O   0  0  0  0  0  0  0  0  0  0  0  0
  184.7550  178.7130  145.8720 C   0  0  0  0  0  0  0  0  0  0  0  0
  184.3560  178.5460  143.0080 C   0  0  0  0  0  2  0  0  0  0  0  0
  1  3  1  0  0  0  0
  1 14  1  0  0  0  0
  2  1  2  0  0  0  0
  3  4  1  6  0  0  0
  3  5  1  0  0  0  0
  5  7  1  0  0  0  0
  7  6  1  6  0  0  0
  7  8  1  0  0  0  0
  9 11  1  0  0  0  0
  9 13  1  0  0  0  0
 11  8  1  6  0  0  0
 11 13  1  0  0  0  0
 11 10  1  0  0  0  0
 13 10  1  0  0  0  0
 13 12  1  1  0  0  0
 14 19  1  0  0  0  0
 15 20  1  0  0  0  0
 15 24  1  0  0  0  0
 16 24  1  0  0  0  0
 17 19  2  0  0  0  0
 17 18  1  0  0  0  0
 18 15  2  0  0  0  0
 19 22  1  0  0  0  0
 21 16  2  0  0  0  0
 22 20  2  0  0  0  0
 24 23  2  0  0  0  0
 25 18  1  0  0  0  0
 25 21  1  0  0  0  0
M  END
>  <MODEL>
1

>  <REMARK>
 VINA RESULT:      -8.1      0.000      0.000
  Name = 
  7 active torsions:
  status: ('A' for Active; 'I' for Inactive)
    1  A    between atoms: C_2  and  C_6
    2  A    between atoms: C_2  and  C_25
    3  A    between atoms: C_6  and  C_13
    4  A    between atoms: C_9  and  N_24
    5  A    between atoms: C_13  and  C_22
    6  A    between atoms: C_14  and  C_25
    7  A    between atoms: C_22  and  N_24
                            x       y       z     vdW  Elec       q    Type
                         _______ _______ _______ _____ _____    ______ ____

>  <TORSDO>
F 7

$$$$
=
 OpenBabel11032419193D

 25 28  0  0  1  0  0  0  0  0999 V2000
  191.2690  177.1810  145.1610 C   0  0  0  0  0  0  0  0  0  0  0  0
  191.9800  178.1720  145.1100 O   0  0  0  0  0  0  0  0  0  0  0  0
  191.2120  176.2300  144.0040 C   0  0  2  0  0  3  0  0  0  0  0  0
  192.1490  175.2130  144.1870 O   0  0  0  0  0  1  0  0  0  0  0  0
  191.4990  176.9550  142.6960 C   0  0  0  0  0  2  0  0  0  0  0  0
  189.4990  175.7620  142.2110 O   0  0  0  0  0  1  0  0  0  0  0  0
  190.4420  176.6290  141.6570 C   0  0  1  0  0  3  0  0  0  0  0  0
  189.7790  177.8560  141.2350 N   0  0  0  0  0  2  0  0  0  0  0  0
  189.9910  177.4400  138.9400 C   0  0  0  0  0  2  0  0  0  0  0  0
  188.0560  178.5590  139.9150 O   0  0  0  0  0  0  0  0  0  0  0  0
  189.0000  177.5420  140.0510 C   0  0  1  0  0  0  0  0  0  0  0  0
  188.3940  178.4530  137.7680 F   0  0  0  0  0  0  0  0  0  0  0  0
  189.0730  178.6260  138.9570 C   0  0  2  0  0  0  0  0  0  0  0  0
  190.4500  176.9250  146.3860 C   0  0  0  0  0  2  0  0  0  0  0  0
  186.4020  178.1360  145.7810 C   0  0  0  0  0  0  0  0  0  0  0  0
  184.5560  178.6240  144.1620 N   0  0  0  0  0  0  0  0  0  0  0  0
  188.5030  177.3710  144.9390 N   0  0  0  0  0  0  0  0  0  0  0  0
  187.2180  177.7520  144.7060 C   0  0  0  0  0  0  0  0  0  0  0  0
  189.0330  177.3540  146.1910 C   0  0  0  0  0  0  0  0  0  0  0  0
  186.9260  178.1180  147.0780 C   0  0  0  0  0  3  0  0  0  0  0  0
  185.2880  178.2630  143.1510 C   0  0  0  0  0  3  0  0  0  0  0  0
  188.2460  177.7220  147.2880 C   0  0  0  0  0  3  0  0  0  0  0  0
  184.2560  178.8980  146.4540 O   0  0  0  0  0  0  0  0  0  0  0  0
  185.0240  178.5650  145.5130 C   0  0  0  0  0  0  0  0  0  0  0  0
  186.6870  177.7160  143.2980 C   0  0  0  0  0  2  0  0  0  0  0  0
  1 14  1  0  0  0  0
  2  1  2  0  0  0  0
  3  4  1  1  0  0  0
  3  1  1  0  0  0  0
  5  3  1  0  0  0  0
  7  6  1  1  0  0  0
  7  5  1  0  0  0  0
  8  7  1  0  0  0  0
  9 13  1  0  0  0  0
  9 11  1  0  0  0  0
 10 11  1  0  0  0  0
 11  8  1  1  0  0  0
 13 12  1  6  0  0  0
 13 10  1  0  0  0  0
 13 11  1  0  0  0  0
 15 20  1  0  0  0  0
 16 24  1  0  0  0  0
 17 19  2  0  0  0  0
 18 17  1  0  0  0  0
 18 15  2  0  0  0  0
 19 14  1  0  0  0  0
 19 22  1  0  0  0  0
 20 22  2  0  0  0  0
 21 25  1  0  0  0  0
 21 16  2  0  0  0  0
 24 15  1  0  0  0  0
 24 23  2  0  0  0  0
 25 18  1  0  0  0  0
M  END
>  <MODEL>
2

>  <REMARK>
 VINA RESULT:      -8.1      3.076      4.950
  Name = 
  7 active torsions:
  status: ('A' for Active; 'I' for Inactive)
    1  A    between atoms: C_2  and  C_6
    2  A    between atoms: C_2  and  C_25
    3  A    between atoms: C_6  and  C_13
    4  A    between atoms: C_9  and  N_24
    5  A    between atoms: C_13  and  C_22
    6  A    between atoms: C_14  and  C_25
    7  A    between atoms: C_22  and  N_24
                            x       y       z     vdW  Elec       q    Type
                         _______ _______ _______ _____ _____    ______ ____

>  <TORSDO>
F 7

$$$$
=
 OpenBabel11032419193D

 25 28  0  0  1  0  0  0  0  0999 V2000
  189.8240  176.6130  142.9660 C   0  0  0  0  0  0  0  0  0  0  0  0
  190.0140  175.4090  142.8900 O   0  0  0  0  0  0  0  0  0  0  0  0
  190.6280  177.4480  143.9170 C   0  0  2  0  0  3  0  0  0  0  0  0
  191.3560  178.4000  143.2030 O   0  0  0  0  0  1  0  0  0  0  0  0
  191.5830  176.5780  144.7220 C   0  0  0  0  0  2  0  0  0  0  0  0
  192.2430  176.5430  147.0070 O   0  0  0  0  0  1  0  0  0  0  0  0
  191.1300  176.4760  146.1670 C   0  0  1  0  0  3  0  0  0  0  0  0
  190.2270  177.5770  146.4740 N   0  0  0  0  0  2  0  0  0  0  0  0
  188.4670  176.6580  147.7150 C   0  0  0  0  0  2  0  0  0  0  0  0
  189.6790  178.6570  148.4070 O   0  0  0  0  0  0  0  0  0  0  0  0
  189.7620  177.3870  147.8360 C   0  0  1  0  0  0  0  0  0  0  0  0
  187.8550  177.9880  149.3900 F   0  0  0  0  0  0  0  0  0  0  0  0
  188.4260  178.0960  148.1370 C   0  0  2  0  0  0  0  0  0  0  0  0
  188.7780  177.2480  142.1070 C   0  0  0  0  0  2  0  0  0  0  0  0
  185.3090  178.3270  144.3480 C   0  0  0  0  0  0  0  0  0  0  0  0
  182.9140  179.0550  144.3260 N   0  0  0  0  0  0  0  0  0  0  0  0
  186.4020  177.8910  142.2690 N   0  0  0  0  0  0  0  0  0  0  0  0
  185.2760  178.2390  142.9480 C   0  0  0  0  0  0  0  0  0  0  0  0
  187.5750  177.6270  142.9060 C   0  0  0  0  0  0  0  0  0  0  0  0
  186.5030  178.0510  145.0230 C   0  0  0  0  0  3  0  0  0  0  0  0
  182.8550  178.9710  143.0310 C   0  0  0  0  0  3  0  0  0  0  0  0
  187.6420  177.6950  144.3020 C   0  0  0  0  0  3  0  0  0  0  0  0
  184.0780  178.7940  146.3250 O   0  0  0  0  0  0  0  0  0  0  0  0
  184.0920  178.7240  145.0680 C   0  0  0  0  0  0  0  0  0  0  0  0
  184.0050  178.4870  142.1820 C   0  0  0  0  0  2  0  0  0  0  0  0
  1  3  1  0  0  0  0
  2  1  2  0  0  0  0
  3  4  1  6  0  0  0
  3  5  1  0  0  0  0
  5  7  1  0  0  0  0
  7  8  1  0  0  0  0
  7  6  1  1  0  0  0
  9 11  1  0  0  0  0
  9 13  1  0  0  0  0
 11  8  1  6  0  0  0
 11 13  1  0  0  0  0
 11 10  1  0  0  0  0
 13 10  1  0  0  0  0
 13 12  1  1  0  0  0
 14 19  1  0  0  0  0
 14  1  1  0  0  0  0
 15 20  1  0  0  0  0
 15 24  1  0  0  0  0
 16 24  1  0  0  0  0
 17 19  2  0  0  0  0
 17 18  1  0  0  0  0
 18 15  2  0  0  0  0
 19 22  1  0  0  0  0
 21 16  2  0  0  0  0
 22 20  2  0  0  0  0
 24 23  2  0  0  0  0
 25 18  1  0  0  0  0
 25 21  1  0  0  0  0
M  END
>  <MODEL>
3

>  <REMARK>
 VINA RESULT:      -8.0      1.915      2.340
  Name = 
  7 active torsions:
  status: ('A' for Active; 'I' for Inactive)
    1  A    between atoms: C_2  and  C_6
    2  A    between atoms: C_2  and  C_25
    3  A    between atoms: C_6  and  C_13
    4  A    between atoms: C_9  and  N_24
    5  A    between atoms: C_13  and  C_22
    6  A    between atoms: C_14  and  C_25
    7  A    between atoms: C_22  and  N_24
                            x       y       z     vdW  Elec       q    Type
                         _______ _______ _______ _____ _____    ______ ____

>  <TORSDO>
F 7

$$$$
=
 OpenBabel11032419193D

 25 28  0  0  1  0  0  0  0  0999 V2000
  191.1590  177.4320  145.0240 C   0  0  0  0  0  0  0  0  0  0  0  0
  191.7650  178.3780  144.5440 O   0  0  0  0  0  0  0  0  0  0  0  0
  190.8140  177.4150  146.4820 C   0  0  2  0  0  3  0  0  0  0  0  0
  191.8550  176.8280  147.2030 O   0  0  0  0  0  1  0  0  0  0  0  0
  189.5290  176.6370  146.7220 C   0  0  0  0  0  2  0  0  0  0  0  0
  189.0890  178.4140  148.2410 O   0  0  0  0  0  1  0  0  0  0  0  0
  188.4740  177.5220  147.3610 C   0  0  1  0  0  3  0  0  0  0  0  0
  187.7740  178.2710  146.3260 N   0  0  0  0  0  2  0  0  0  0  0  0
  185.8590  177.8180  145.0550 C   0  0  0  0  0  2  0  0  0  0  0  0
  185.7920  179.0080  147.1830 O   0  0  0  0  0  0  0  0  0  0  0  0
  186.3600  177.9640  146.4530 C   0  0  1  0  0  0  0  0  0  0  0  0
  184.0680  178.8620  145.8620 F   0  0  0  0  0  0  0  0  0  0  0  0
  185.4380  179.0310  145.8300 C   0  0  2  0  0  0  0  0  0  0  0  0
  190.7690  176.2870  144.1450 C   0  0  0  0  0  2  0  0  0  0  0  0
  188.7770  177.6140  140.6110 C   0  0  0  0  0  0  0  0  0  0  0  0
  188.8610  177.9530  138.1320 N   0  0  0  0  0  0  0  0  0  0  0  0
  190.6530  176.6160  141.7030 N   0  0  0  0  0  0  0  0  0  0  0  0
  190.0500  177.0270  140.5550 C   0  0  0  0  0  0  0  0  0  0  0  0
  190.0600  176.7600  142.9190 C   0  0  0  0  0  0  0  0  0  0  0  0
  188.1460  177.7630  141.8510 C   0  0  0  0  0  3  0  0  0  0  0  0
  190.0350  177.4030  138.0520 C   0  0  0  0  0  3  0  0  0  0  0  0
  188.7860  177.3310  143.0120 C   0  0  0  0  0  3  0  0  0  0  0  0
  186.9970  178.5860  139.3750 O   0  0  0  0  0  0  0  0  0  0  0  0
  188.1470  178.0720  139.3670 C   0  0  0  0  0  0  0  0  0  0  0  0
  190.7510  176.8080  139.2410 C   0  0  0  0  0  2  0  0  0  0  0  0
  1  3  1  0  0  0  0
  2  1  2  0  0  0  0
  3  5  1  0  0  0  0
  3  4  1  1  0  0  0
  5  7  1  0  0  0  0
  7  6  1  1  0  0  0
  8  7  1  0  0  0  0
  9 13  1  0  0  0  0
  9 11  1  0  0  0  0
 11  8  1  6  0  0  0
 11 10  1  0  0  0  0
 13 12  1  1  0  0  0
 13 11  1  0  0  0  0
 13 10  1  0  0  0  0
 14  1  1  0  0  0  0
 15 20  1  0  0  0  0
 16 24  1  0  0  0  0
 17 19  2  0  0  0  0
 18 15  2  0  0  0  0
 18 17  1  0  0  0  0
 19 22  1  0  0  0  0
 19 14  1  0  0  0  0
 20 22  2  0  0  0  0
 21 16  2  0  0  0  0
 21 25  1  0  0  0  0
 24 23  2  0  0  0  0
 24 15  1  0  0  0  0
 25 18  1  0  0  0  0
M  END
>  <MODEL>
4

>  <REMARK>
 VINA RESULT:      -7.9      2.990      5.919
  Name = 
  7 active torsions:
  status: ('A' for Active; 'I' for Inactive)
    1  A    between atoms: C_2  and  C_6
    2  A    between atoms: C_2  and  C_25
    3  A    between atoms: C_6  and  C_13
    4  A    between atoms: C_9  and  N_24
    5  A    between atoms: C_13  and  C_22
    6  A    between atoms: C_14  and  C_25
    7  A    between atoms: C_22  and  N_24
                            x       y       z     vdW  Elec       q    Type
                         _______ _______ _______ _____ _____    ______ ____

>  <TORSDO>
F 7

$$$$
=
 OpenBabel11032419193D

 25 28  0  0  1  0  0  0  0  0999 V2000
  190.5970  176.2500  143.2120 C   0  0  0  0  0  0  0  0  0  0  0  0
  190.2190  175.1320  142.8980 O   0  0  0  0  0  0  0  0  0  0  0  0
  191.1210  177.1930  142.1720 C   0  0  2  0  0  3  0  0  0  0  0  0
  191.5100  178.3880  142.7770 O   0  0  0  0  0  1  0  0  0  0  0  0
  190.0580  177.4800  141.1210 C   0  0  0  0  0  2  0  0  0  0  0  0
  190.7240  175.9490  139.4270 O   0  0  0  0  0  1  0  0  0  0  0  0
  190.6240  177.3090  139.7220 C   0  0  1  0  0  3  0  0  0  0  0  0
  189.7400  177.9490  138.7570 N   0  0  0  0  0  2  0  0  0  0  0  0
  188.0250  176.6940  137.7720 C   0  0  0  0  0  2  0  0  0  0  0  0
  187.6060  178.5640  139.2810 O   0  0  0  0  0  0  0  0  0  0  0  0
  188.3980  177.4500  139.0030 C   0  0  1  0  0  0  0  0  0  0  0  0
  186.0270  177.6040  138.1300 F   0  0  0  0  0  0  0  0  0  0  0  0
  187.3440  178.0060  138.0250 C   0  0  2  0  0  0  0  0  0  0  0  0
  190.5380  176.6690  144.6460 C   0  0  0  0  0  2  0  0  0  0  0  0
  186.6100  177.9880  145.6690 C   0  0  0  0  0  0  0  0  0  0  0  0
  184.3570  178.7420  144.8830 N   0  0  0  0  0  0  0  0  0  0  0  0
  188.2460  177.3540  144.0480 N   0  0  0  0  0  0  0  0  0  0  0  0
  186.9850  177.7760  144.3340 C   0  0  0  0  0  0  0  0  0  0  0  0
  189.1700  177.1330  145.0220 C   0  0  0  0  0  0  0  0  0  0  0  0
  187.5420  177.7570  146.6860 C   0  0  0  0  0  3  0  0  0  0  0  0
  184.6760  178.5440  143.6390 C   0  0  0  0  0  3  0  0  0  0  0  0
  188.8280  177.3240  146.3650 C   0  0  0  0  0  3  0  0  0  0  0  0
  184.8730  178.6450  147.1500 O   0  0  0  0  0  0  0  0  0  0  0  0
  185.2520  178.4620  145.9630 C   0  0  0  0  0  0  0  0  0  0  0  0
  186.0050  177.9710  143.2090 C   0  0  0  0  0  2  0  0  0  0  0  0
  1 14  1  0  0  0  0
  2  1  2  0  0  0  0
  3  4  1  1  0  0  0
  3  1  1  0  0  0  0
  5  3  1  0  0  0  0
  7  6  1  6  0  0  0
  7  5  1  0  0  0  0
  8  7  1  0  0  0  0
  9 13  1  0  0  0  0
  9 11  1  0  0  0  0
 11  8  1  6  0  0  0
 11 10  1  0  0  0  0
 13 12  1  1  0  0  0
 13 11  1  0  0  0  0
 13 10  1  0  0  0  0
 14 19  1  0  0  0  0
 15 24  1  0  0  0  0
 15 20  1  0  0  0  0
 16 24  1  0  0  0  0
 17 18  1  0  0  0  0
 17 19  2  0  0  0  0
 18 15  2  0  0  0  0
 19 22  1  0  0  0  0
 21 16  2  0  0  0  0
 22 20  2  0  0  0  0
 24 23  2  0  0  0  0
 25 21  1  0  0  0  0
 25 18  1  0  0  0  0
M  END
>  <MODEL>
5

>  <REMARK>
 VINA RESULT:      -7.9      3.359      5.307
  Name = 
  7 active torsions:
  status: ('A' for Active; 'I' for Inactive)
    1  A    between atoms: C_2  and  C_6
    2  A    between atoms: C_2  and  C_25
    3  A    between atoms: C_6  and  C_13
    4  A    between atoms: C_9  and  N_24
    5  A    between atoms: C_13  and  C_22
    6  A    between atoms: C_14  and  C_25
    7  A    between atoms: C_22  and  N_24
                            x       y       z     vdW  Elec       q    Type
                         _______ _______ _______ _____ _____    ______ ____

>  <TORSDO>
F 7

$$$$
=
 OpenBabel11032419193D

 25 28  0  0  1  0  0  0  0  0999 V2000
  191.3610  178.0930  144.1490 C   0  0  0  0  0  0  0  0  0  0  0  0
  191.4950  179.2920  143.9590 O   0  0  0  0  0  0  0  0  0  0  0  0
  190.9960  177.5770  145.5080 C   0  0  2  0  0  3  0  0  0  0  0  0
  192.0190  176.7590  145.9880 O   0  0  0  0  0  1  0  0  0  0  0  0
  189.6970  176.7850  145.4520 C   0  0  0  0  0  2  0  0  0  0  0  0
  189.4590  177.7880  147.5950 O   0  0  0  0  0  1  0  0  0  0  0  0
  188.7350  177.2510  146.5300 C   0  0  1  0  0  3  0  0  0  0  0  0
  187.8490  178.2710  145.9850 N   0  0  0  0  0  2  0  0  0  0  0  0
  185.7860  177.8130  144.9750 C   0  0  0  0  0  2  0  0  0  0  0  0
  185.9900  178.8090  147.1920 O   0  0  0  0  0  0  0  0  0  0  0  0
  186.4880  177.8690  146.2900 C   0  0  1  0  0  0  0  0  0  0  0  0
  184.0930  178.6730  146.1340 F   0  0  0  0  0  0  0  0  0  0  0  0
  185.4320  178.9270  145.9150 C   0  0  2  0  0  0  0  0  0  0  0  0
  191.5710  177.1420  143.0140 C   0  0  0  0  0  2  0  0  0  0  0  0
  188.7710  177.8910  139.8810 C   0  0  0  0  0  0  0  0  0  0  0  0
  186.4390  178.5270  139.2310 N   0  0  0  0  0  0  0  0  0  0  0  0
  189.3470  177.8280  142.1990 N   0  0  0  0  0  0  0  0  0  0  0  0
  188.4260  178.0760  141.2280 C   0  0  0  0  0  0  0  0  0  0  0  0
  190.6030  177.3960  141.9060 C   0  0  0  0  0  0  0  0  0  0  0  0
  190.0600  177.4550  139.5580 C   0  0  0  0  0  3  0  0  0  0  0  0
  186.0980  178.7160  140.4700 C   0  0  0  0  0  3  0  0  0  0  0  0
  190.9850  177.2100  140.5730 C   0  0  0  0  0  3  0  0  0  0  0  0
  188.0400  178.0060  137.6240 O   0  0  0  0  0  0  0  0  0  0  0  0
  187.7620  178.1420  138.8450 C   0  0  0  0  0  0  0  0  0  0  0  0
  187.0650  178.5820  141.6220 C   0  0  0  0  0  2  0  0  0  0  0  0
  1  3  1  0  0  0  0
  2  1  2  0  0  0  0
  3  4  1  6  0  0  0
  5  3  1  0  0  0  0
  5  7  1  0  0  0  0
  7  6  1  1  0  0  0
  8  7  1  0  0  0  0
  9 13  1  0  0  0  0
  9 11  1  0  0  0  0
 11  8  1  6  0  0  0
 11 10  1  0  0  0  0
 13 12  1  1  0  0  0
 13 11  1  0  0  0  0
 13 10  1  0  0  0  0
 14  1  1  0  0  0  0
 15 18  1  0  0  0  0
 16 21  2  0  0  0  0
 18 25  1  0  0  0  0
 18 17  2  0  0  0  0
 19 17  1  0  0  0  0
 19 14  1  0  0  0  0
 20 15  2  0  0  0  0
 20 22  1  0  0  0  0
 21 25  1  0  0  0  0
 22 19  2  0  0  0  0
 23 24  2  0  0  0  0
 24 16  1  0  0  0  0
 24 15  1  0  0  0  0
M  END
>  <MODEL>
6

>  <REMARK>
 VINA RESULT:      -7.7      2.910      5.496
  Name = 
  7 active torsions:
  status: ('A' for Active; 'I' for Inactive)
    1  A    between atoms: C_2  and  C_6
    2  A    between atoms: C_2  and  C_25
    3  A    between atoms: C_6  and  C_13
    4  A    between atoms: C_9  and  N_24
    5  A    between atoms: C_13  and  C_22
    6  A    between atoms: C_14  and  C_25
    7  A    between atoms: C_22  and  N_24
                            x       y       z     vdW  Elec       q    Type
                         _______ _______ _______ _____ _____    ______ ____

>  <TORSDO>
F 7

$$$$
=
 OpenBabel11032419193D

 25 28  0  0  1  0  0  0  0  0999 V2000
  189.5210  177.4670  147.6870 C   0  0  0  0  0  0  0  0  0  0  0  0
  189.6140  178.4200  148.4440 O   0  0  0  0  0  0  0  0  0  0  0  0
  190.7000  177.0300  146.8700 C   0  0  2  0  0  3  0  0  0  0  0  0
  191.8230  176.9230  147.6900 O   0  0  0  0  0  1  0  0  0  0  0  0
  190.9800  178.0260  145.7540 C   0  0  0  0  0  2  0  0  0  0  0  0
  191.6610  175.9580  144.7970 O   0  0  0  0  0  1  0  0  0  0  0  0
  191.5120  177.3180  144.5210 C   0  0  1  0  0  3  0  0  0  0  0  0
  190.5750  177.4870  143.4190 N   0  0  0  0  0  2  0  0  0  0  0  0
  191.6800  177.5380  141.3540 C   0  0  0  0  0  2  0  0  0  0  0  0
  189.8900  175.9630  141.8660 O   0  0  0  0  0  0  0  0  0  0  0  0
  191.0210  176.6280  142.3360 C   0  0  1  0  0  0  0  0  0  0  0  0
  190.6960  176.2150  139.8600 F   0  0  0  0  0  0  0  0  0  0  0  0
  190.3540  176.9430  140.9830 C   0  0  2  0  0  0  0  0  0  0  0  0
  188.2190  176.7400  147.5760 C   0  0  0  0  0  2  0  0  0  0  0  0
  185.6020  178.6660  144.8070 C   0  0  0  0  0  0  0  0  0  0  0  0
  185.0850  179.2330  142.4240 N   0  0  0  0  0  0  0  0  0  0  0  0
  187.5180  177.3210  145.2830 N   0  0  0  0  0  0  0  0  0  0  0  0
  186.7080  177.9210  144.3700 C   0  0  0  0  0  0  0  0  0  0  0  0
  187.2950  177.4230  146.6210 C   0  0  0  0  0  0  0  0  0  0  0  0
  185.3500  178.7760  146.1780 C   0  0  0  0  0  3  0  0  0  0  0  0
  186.0960  178.5400  141.9930 C   0  0  0  0  0  3  0  0  0  0  0  0
  186.1960  178.1490  147.0920 C   0  0  0  0  0  3  0  0  0  0  0  0
  183.7350  179.9860  144.1650 O   0  0  0  0  0  0  0  0  0  0  0  0
  184.7480  179.3250  143.8120 C   0  0  0  0  0  0  0  0  0  0  0  0
  186.9960  177.7400  142.9040 C   0  0  0  0  0  2  0  0  0  0  0  0
  1  2  2  0  0  0  0
  3  1  1  0  0  0  0
  3  4  1  1  0  0  0
  5  3  1  0  0  0  0
  7  6  1  1  0  0  0
  7  5  1  0  0  0  0
  8  7  1  0  0  0  0
  9 11  1  0  0  0  0
 10 11  1  0  0  0  0
 11  8  1  1  0  0  0
 13 12  1  6  0  0  0
 13  9  1  0  0  0  0
 13 10  1  0  0  0  0
 13 11  1  0  0  0  0
 14  1  1  0  0  0  0
 15 20  1  0  0  0  0
 16 24  1  0  0  0  0
 17 19  2  0  0  0  0
 18 15  2  0  0  0  0
 18 17  1  0  0  0  0
 19 22  1  0  0  0  0
 19 14  1  0  0  0  0
 20 22  2  0  0  0  0
 21 16  2  0  0  0  0
 21 25  1  0  0  0  0
 24 23  2  0  0  0  0
 24 15  1  0  0  0  0
 25 18  1  0  0  0  0
M  END
>  <MODEL>
7

>  <REMARK>
 VINA RESULT:      -7.7      2.593      4.518
  Name = 
  7 active torsions:
  status: ('A' for Active; 'I' for Inactive)
    1  A    between atoms: C_2  and  C_6
    2  A    between atoms: C_2  and  C_25
    3  A    between atoms: C_6  and  C_13
    4  A    between atoms: C_9  and  N_24
    5  A    between atoms: C_13  and  C_22
    6  A    between atoms: C_14  and  C_25
    7  A    between atoms: C_22  and  N_24
                            x       y       z     vdW  Elec       q    Type
                         _______ _______ _______ _____ _____    ______ ____

>  <TORSDO>
F 7

$$$$
=
 OpenBabel11032419193D

 25 28  0  0  1  0  0  0  0  0999 V2000
  184.4130  179.3270  143.4920 C   0  0  0  0  0  0  0  0  0  0  0  0
  184.9440  180.3990  143.7370 O   0  0  0  0  0  0  0  0  0  0  0  0
  183.7380  179.1000  142.1730 C   0  0  2  0  0  3  0  0  0  0  0  0
  182.4180  178.7030  142.3850 O   0  0  0  0  0  1  0  0  0  0  0  0
  184.4670  178.0290  141.3730 C   0  0  0  0  0  2  0  0  0  0  0  0
  184.6700  179.8590  139.8680 O   0  0  0  0  0  1  0  0  0  0  0  0
  185.2620  178.6510  140.2390 C   0  0  1  0  0  3  0  0  0  0  0  0
  186.6280  178.8980  140.6800 N   0  0  0  0  0  2  0  0  0  0  0  0
  188.6760  177.7690  140.7990 C   0  0  0  0  0  2  0  0  0  0  0  0
  187.7670  178.6560  138.7180 O   0  0  0  0  0  0  0  0  0  0  0  0
  187.4930  178.0110  139.9230 C   0  0  1  0  0  0  0  0  0  0  0  0
  189.7970  177.8890  138.8820 F   0  0  0  0  0  0  0  0  0  0  0  0
  188.8650  178.6270  139.5840 C   0  0  2  0  0  0  0  0  0  0  0  0
  184.4340  178.2440  144.5230 C   0  0  0  0  0  2  0  0  0  0  0  0
  188.3980  177.4300  145.8790 C   0  0  0  0  0  0  0  0  0  0  0  0
  190.0650  177.5450  147.7430 N   0  0  0  0  0  0  0  0  0  0  0  0
  186.1740  178.2080  146.2710 N   0  0  0  0  0  0  0  0  0  0  0  0
  187.4270  177.9630  146.7400 C   0  0  0  0  0  0  0  0  0  0  0  0
  185.8260  177.9560  144.9800 C   0  0  0  0  0  0  0  0  0  0  0  0
  188.0590  177.1560  144.5500 C   0  0  0  0  0  3  0  0  0  0  0  0
  189.1810  178.0300  148.5630 C   0  0  0  0  0  3  0  0  0  0  0  0
  186.7660  177.4150  144.0960 C   0  0  0  0  0  3  0  0  0  0  0  0
  190.6450  176.6940  145.6560 O   0  0  0  0  0  0  0  0  0  0  0  0
  189.7520  177.1900  146.3930 C   0  0  0  0  0  0  0  0  0  0  0  0
  187.7330  178.2370  148.1880 C   0  0  0  0  0  2  0  0  0  0  0  0
  1  2  2  0  0  0  0
  1 14  1  0  0  0  0
  3  4  1  1  0  0  0
  3  1  1  0  0  0  0
  5  3  1  0  0  0  0
  7  6  1  1  0  0  0
  7  8  1  0  0  0  0
  7  5  1  0  0  0  0
 10 13  1  0  0  0  0
 10 11  1  0  0  0  0
 11  8  1  1  0  0  0
 11  9  1  0  0  0  0
 13 12  1  6  0  0  0
 13 11  1  0  0  0  0
 13  9  1  0  0  0  0
 14 19  1  0  0  0  0
 15 24  1  0  0  0  0
 15 18  1  0  0  0  0
 16 21  2  0  0  0  0
 17 18  2  0  0  0  0
 18 25  1  0  0  0  0
 19 17  1  0  0  0  0
 20 15  2  0  0  0  0
 22 20  1  0  0  0  0
 22 19  2  0  0  0  0
 23 24  2  0  0  0  0
 24 16  1  0  0  0  0
 25 21  1  0  0  0  0
M  END
>  <MODEL>
8

>  <REMARK>
 VINA RESULT:      -7.7      3.289      6.693
  Name = 
  7 active torsions:
  status: ('A' for Active; 'I' for Inactive)
    1  A    between atoms: C_2  and  C_6
    2  A    between atoms: C_2  and  C_25
    3  A    between atoms: C_6  and  C_13
    4  A    between atoms: C_9  and  N_24
    5  A    between atoms: C_13  and  C_22
    6  A    between atoms: C_14  and  C_25
    7  A    between atoms: C_22  and  N_24
                            x       y       z     vdW  Elec       q    Type
                         _______ _______ _______ _____ _____    ______ ____

>  <TORSDO>
F 7

$$$$
=
 OpenBabel11032419193D

 25 28  0  0  1  0  0  0  0  0999 V2000
  188.9530  177.7190  141.0530 C   0  0  0  0  0  0  0  0  0  0  0  0
  188.6670  178.8990  141.1810 O   0  0  0  0  0  0  0  0  0  0  0  0
  189.3050  177.1680  139.7040 C   0  0  2  0  0  3  0  0  0  0  0  0
  190.6230  176.7110  139.7150 O   0  0  0  0  0  1  0  0  0  0  0  0
  189.1460  178.2330  138.6280 C   0  0  0  0  0  2  0  0  0  0  0  0
  187.7200  176.4940  137.8550 O   0  0  0  0  0  1  0  0  0  0  0  0
  188.1230  177.8040  137.5930 C   0  0  1  0  0  3  0  0  0  0  0  0
  186.9660  178.6870  137.6570 N   0  0  0  0  0  2  0  0  0  0  0  0
  184.7680  177.8780  137.6170 C   0  0  0  0  0  2  0  0  0  0  0  0
  185.7920  178.8470  139.6070 O   0  0  0  0  0  0  0  0  0  0  0  0
  185.9690  178.0340  138.4870 C   0  0  1  0  0  0  0  0  0  0  0  0
  183.6680  178.3860  139.4830 F   0  0  0  0  0  0  0  0  0  0  0  0
  184.7070  178.8870  138.7240 C   0  0  2  0  0  0  0  0  0  0  0  0
  188.9430  176.8260  142.2520 C   0  0  0  0  0  2  0  0  0  0  0  0
  186.0730  178.1510  145.1200 C   0  0  0  0  0  0  0  0  0  0  0  0
  183.7730  179.0310  145.5640 N   0  0  0  0  0  0  0  0  0  0  0  0
  186.6930  177.6220  142.8740 N   0  0  0  0  0  0  0  0  0  0  0  0
  185.7520  178.0500  143.7580 C   0  0  0  0  0  0  0  0  0  0  0  0
  187.9530  177.2900  143.2680 C   0  0  0  0  0  0  0  0  0  0  0  0
  187.3600  177.8060  145.5470 C   0  0  0  0  0  3  0  0  0  0  0  0
  183.4460  178.9360  144.3100 C   0  0  0  0  0  3  0  0  0  0  0  0
  188.3060  177.3700  144.6190 C   0  0  0  0  0  3  0  0  0  0  0  0
  185.3000  178.7190  147.2930 O   0  0  0  0  0  0  0  0  0  0  0  0
  185.0540  178.6330  146.0600 C   0  0  0  0  0  0  0  0  0  0  0  0
  184.3690  178.3700  143.2580 C   0  0  0  0  0  2  0  0  0  0  0  0
  1  2  2  0  0  0  0
  1 14  1  0  0  0  0
  3  4  1  1  0  0  0
  3  1  1  0  0  0  0
  5  3  1  0  0  0  0
  7  8  1  0  0  0  0
  7  6  1  1  0  0  0
  7  5  1  0  0  0  0
  9 11  1  0  0  0  0
  9 13  1  0  0  0  0
 11  8  1  6  0  0  0
 11 13  1  0  0  0  0
 11 10  1  0  0  0  0
 13 12  1  1  0  0  0
 13 10  1  0  0  0  0
 14 19  1  0  0  0  0
 15 20  1  0  0  0  0
 15 24  1  0  0  0  0
 16 24  1  0  0  0  0
 17 19  2  0  0  0  0
 17 18  1  0  0  0  0
 18 15  2  0  0  0  0
 19 22  1  0  0  0  0
 21 16  2  0  0  0  0
 22 20  2  0  0  0  0
 24 23  2  0  0  0  0
 25 18  1  0  0  0  0
 25 21  1  0  0  0  0
M  END
>  <MODEL>
9

>  <REMARK>
 VINA RESULT:      -7.7      3.765      6.031
  Name = 
  7 active torsions:
  status: ('A' for Active; 'I' for Inactive)
    1  A    between atoms: C_2  and  C_6
    2  A    between atoms: C_2  and  C_25
    3  A    between atoms: C_6  and  C_13
    4  A    between atoms: C_9  and  N_24
    5  A    between atoms: C_13  and  C_22
    6  A    between atoms: C_14  and  C_25
    7  A    between atoms: C_22  and  N_24
                            x       y       z     vdW  Elec       q    Type
                         _______ _______ _______ _____ _____    ______ ____

>  <TORSDO>
F 7

$$$$
