=
 OpenBabel11042411223D

 25 27  0  0  1  0  0  0  0  0999 V2000
  187.1420  177.8590  145.1010 C   0  0  0  0  0  0  0  0  0  0  0  0
  186.6940  177.8810  143.9230 O   0  0  0  0  0  0  0  0  0  0  0  0
  189.4920  177.1900  144.4130 N   0  0  0  0  0  0  0  0  0  0  0  0
  188.9650  177.5100  146.7480 C   0  0  0  0  0  0  0  0  0  0  0  0
  188.5690  177.5080  145.3940 C   0  0  0  0  0  0  0  0  0  0  0  0
  188.3300  177.8580  149.0140 O   0  0  0  0  0  0  0  0  0  0  0  0
  186.6420  178.1750  147.4470 N   0  0  0  0  0  0  0  0  0  0  0  0
  191.6430  176.5790  143.8810 O   0  0  0  0  0  0  0  0  0  0  0  0
  187.9900  177.8500  147.8020 C   0  0  0  0  0  0  0  0  0  0  0  0
  190.7880  176.8740  144.7610 C   0  0  0  0  0  0  0  0  0  0  0  0
  190.2760  177.1890  147.0870 C   0  0  0  0  0  3  0  0  0  0  0  0
  184.8030  178.5360  145.9430 C   0  0  0  0  0  1  0  0  0  0  0  0
  186.2250  178.1860  146.2170 C   0  0  0  0  0  0  0  0  0  0  0  0
  191.1890  176.8700  146.0930 C   0  0  0  0  0  3  0  0  0  0  0  0
  189.7900  176.1080  142.1890 C   0  0  0  0  0  2  0  0  0  0  0  0
  190.2830  176.7780  140.9170 C   0  0  2  0  0  3  0  0  0  0  0  0
  189.3620  178.5160  142.3130 C   0  0  0  0  0  2  0  0  0  0  0  0
  189.0900  177.1900  142.9950 C   0  0  2  0  0  3  0  0  0  0  0  0
  189.6470  178.1540  140.8740 C   0  0  0  0  0  2  0  0  0  0  0  0
  189.8690  176.0090  139.7540 N   0  0  0  0  0  2  0  0  0  0  0  0
  191.1190  176.1340  138.5590 S   0  0  0  0  0  0  0  0  0  0  0  0
  192.3150  176.8330  139.1420 O   0  0  0  0  0  0  0  0  0  0  0  0
  191.5210  174.7610  138.0960 O   0  0  0  0  0  0  0  0  0  0  0  0
  189.0070  177.2100  137.2570 C   0  0  0  0  0  1  0  0  0  0  0  0
  190.5120  177.0600  137.1660 C   0  0  0  0  0  2  0  0  0  0  0  0
  1  5  1  0  0  0  0
  1 13  1  0  0  0  0
  2  1  2  0  0  0  0
  3 10  1  0  0  0  0
  3  5  1  0  0  0  0
  4 11  1  0  0  0  0
  4  9  1  0  0  0  0
  5  4  2  0  0  0  0
  7  9  1  0  0  0  0
  8 10  2  0  0  0  0
  9  6  2  0  0  0  0
 10 14  1  0  0  0  0
 12 13  1  0  0  0  0
 13  7  2  0  0  0  0
 14 11  2  0  0  0  0
 16 20  1  6  0  0  0
 16 15  1  0  0  0  0
 17 18  1  0  0  0  0
 18 15  1  6  0  0  0
 18  3  1  0  0  0  0
 19 16  1  0  0  0  0
 19 17  1  0  0  0  0
 21 22  2  0  0  0  0
 21 20  1  0  0  0  0
 23 21  2  0  0  0  0
 25 24  1  0  0  0  0
 25 21  1  0  0  0  0
M  END
>  <MODEL>
1

>  <REMARK>
 VINA RESULT:      -7.9      0.000      0.000
  Name = 
  4 active torsions:
  status: ('A' for Active; 'I' for Inactive)
    1  A    between atoms: S_1  and  N_7
    2  A    between atoms: S_1  and  C_25
    3  A    between atoms: C_5  and  N_7
    4  A    between atoms: C_8  and  N_11
                            x       y       z     vdW  Elec       q    Type
                         _______ _______ _______ _____ _____    ______ ____

>  <TORSDO>
F 4

$$$$
=
 OpenBabel11042411223D

 25 27  0  0  1  0  0  0  0  0999 V2000
  190.0790  177.2040  145.6370 C   0  0  0  0  0  0  0  0  0  0  0  0
  190.9450  177.1200  144.7260 O   0  0  0  0  0  0  0  0  0  0  0  0
  188.1600  177.6990  144.0510 N   0  0  0  0  0  0  0  0  0  0  0  0
  187.7560  177.5750  146.4290 C   0  0  0  0  0  0  0  0  0  0  0  0
  188.6420  177.5000  145.3330 C   0  0  0  0  0  0  0  0  0  0  0  0
  187.4790  177.4230  148.7870 O   0  0  0  0  0  0  0  0  0  0  0  0
  189.6450  177.0820  148.0150 N   0  0  0  0  0  0  0  0  0  0  0  0
  186.3660  178.1580  142.6890 O   0  0  0  0  0  0  0  0  0  0  0  0
  188.2590  177.3620  147.8000 C   0  0  0  0  0  0  0  0  0  0  0  0
  186.8240  177.9720  143.8500 C   0  0  0  0  0  0  0  0  0  0  0  0
  186.4090  177.8510  146.2130 C   0  0  0  0  0  3  0  0  0  0  0  0
  191.9280  176.7100  147.3620 C   0  0  0  0  0  1  0  0  0  0  0  0
  190.5030  177.0040  147.0420 C   0  0  0  0  0  0  0  0  0  0  0  0
  185.9420  178.0500  144.9230 C   0  0  0  0  0  3  0  0  0  0  0  0
  188.6870  178.5660  141.7760 C   0  0  0  0  0  2  0  0  0  0  0  0
  188.7550  177.7530  140.4930 C   0  0  2  0  0  3  0  0  0  0  0  0
  189.1530  176.2230  142.3130 C   0  0  0  0  0  2  0  0  0  0  0  0
  189.0760  177.6190  142.8990 C   0  0  2  0  0  3  0  0  0  0  0  0
  189.4250  176.4400  140.8440 C   0  0  0  0  0  2  0  0  0  0  0  0
  189.5450  178.4580  139.4960 N   0  0  0  0  0  2  0  0  0  0  0  0
  188.6270  178.5120  138.0260 S   0  0  0  0  0  0  0  0  0  0  0  0
  187.1580  178.4950  138.3420 O   0  0  0  0  0  0  0  0  0  0  0  0
  188.9590  179.7640  137.2630 O   0  0  0  0  0  0  0  0  0  0  0  0
  190.4980  176.7460  137.1940 C   0  0  0  0  0  1  0  0  0  0  0  0
  189.0340  177.0980  137.0250 C   0  0  0  0  0  2  0  0  0  0  0  0
  1 13  1  0  0  0  0
  2  1  2  0  0  0  0
  3  5  1  0  0  0  0
  4  9  1  0  0  0  0
  5  1  1  0  0  0  0
  5  4  2  0  0  0  0
  8 10  2  0  0  0  0
  9  7  1  0  0  0  0
  9  6  2  0  0  0  0
 10  3  1  0  0  0  0
 10 14  1  0  0  0  0
 11  4  1  0  0  0  0
 13 12  1  0  0  0  0
 13  7  2  0  0  0  0
 14 11  2  0  0  0  0
 16 20  1  6  0  0  0
 16 19  1  0  0  0  0
 16 15  1  0  0  0  0
 17 18  1  0  0  0  0
 18 15  1  6  0  0  0
 18  3  1  0  0  0  0
 19 17  1  0  0  0  0
 21 22  2  0  0  0  0
 21 20  1  0  0  0  0
 23 21  2  0  0  0  0
 25 24  1  0  0  0  0
 25 21  1  0  0  0  0
M  END
>  <MODEL>
2

>  <REMARK>
 VINA RESULT:      -7.7      2.033      3.585
  Name = 
  4 active torsions:
  status: ('A' for Active; 'I' for Inactive)
    1  A    between atoms: S_1  and  N_7
    2  A    between atoms: S_1  and  C_25
    3  A    between atoms: C_5  and  N_7
    4  A    between atoms: C_8  and  N_11
                            x       y       z     vdW  Elec       q    Type
                         _______ _______ _______ _____ _____    ______ ____

>  <TORSDO>
F 4

$$$$
=
 OpenBabel11042411223D

 25 27  0  0  1  0  0  0  0  0999 V2000
  188.4050  177.8840  145.9250 C   0  0  0  0  0  0  0  0  0  0  0  0
  189.6160  177.6560  145.6630 O   0  0  0  0  0  0  0  0  0  0  0  0
  187.6710  177.9000  143.4950 N   0  0  0  0  0  0  0  0  0  0  0  0
  186.0500  178.2760  145.2470 C   0  0  0  0  0  0  0  0  0  0  0  0
  187.3780  178.0180  144.8430 C   0  0  0  0  0  0  0  0  0  0  0  0
  184.5460  178.6300  147.0560 O   0  0  0  0  0  0  0  0  0  0  0  0
  186.7600  178.2610  147.6600 N   0  0  0  0  0  0  0  0  0  0  0  0
  186.9180  177.9380  141.3230 O   0  0  0  0  0  0  0  0  0  0  0  0
  185.7260  178.4020  146.6810 C   0  0  0  0  0  0  0  0  0  0  0  0
  186.6710  178.0400  142.5560 C   0  0  0  0  0  0  0  0  0  0  0  0
  185.0500  178.4150  144.2900 C   0  0  0  0  0  3  0  0  0  0  0  0
  189.0070  177.8950  148.4310 C   0  0  0  0  0  1  0  0  0  0  0  0
  187.9980  178.0250  147.3420 C   0  0  0  0  0  0  0  0  0  0  0  0
  185.3590  178.2970  142.9430 C   0  0  0  0  0  3  0  0  0  0  0  0
  189.3050  178.0310  141.6210 C   0  0  0  0  0  2  0  0  0  0  0  0
  190.0320  176.8640  140.9720 C   0  0  2  0  0  3  0  0  0  0  0  0
  189.4230  176.1610  143.1980 C   0  0  0  0  0  2  0  0  0  0  0  0
  189.0520  177.6250  143.0640 C   0  0  2  0  0  3  0  0  0  0  0  0
  190.4220  175.9170  142.0910 C   0  0  0  0  0  2  0  0  0  0  0  0
  191.2270  177.3350  140.2890 N   0  0  0  0  0  2  0  0  0  0  0  0
  191.2090  176.6940  138.6790 S   0  0  0  0  0  0  0  0  0  0  0  0
  192.5660  176.8510  138.0520 O   0  0  0  0  0  0  0  0  0  0  0  0
  190.8430  175.2360  138.7150 O   0  0  0  0  0  0  0  0  0  0  0  0
  188.7980  176.6880  137.4560 C   0  0  0  0  0  1  0  0  0  0  0  0
  190.0030  177.5700  137.7070 C   0  0  0  0  0  2  0  0  0  0  0  0
  1 13  1  0  0  0  0
  2  1  2  0  0  0  0
  3  5  1  0  0  0  0
  4  9  1  0  0  0  0
  5  4  2  0  0  0  0
  5  1  1  0  0  0  0
  8 10  2  0  0  0  0
  9  6  2  0  0  0  0
  9  7  1  0  0  0  0
 10 14  1  0  0  0  0
 10  3  1  0  0  0  0
 11  4  1  0  0  0  0
 13  7  2  0  0  0  0
 13 12  1  0  0  0  0
 14 11  2  0  0  0  0
 16 20  1  1  0  0  0
 16 15  1  0  0  0  0
 16 19  1  0  0  0  0
 18 15  1  6  0  0  0
 18 17  1  0  0  0  0
 18  3  1  0  0  0  0
 19 17  1  0  0  0  0
 21 23  2  0  0  0  0
 21 20  1  0  0  0  0
 22 21  2  0  0  0  0
 24 25  1  0  0  0  0
 25 21  1  0  0  0  0
M  END
>  <MODEL>
3

>  <REMARK>
 VINA RESULT:      -7.6      1.632      3.151
  Name = 
  4 active torsions:
  status: ('A' for Active; 'I' for Inactive)
    1  A    between atoms: S_1  and  N_7
    2  A    between atoms: S_1  and  C_25
    3  A    between atoms: C_5  and  N_7
    4  A    between atoms: C_8  and  N_11
                            x       y       z     vdW  Elec       q    Type
                         _______ _______ _______ _____ _____    ______ ____

>  <TORSDO>
F 4

$$$$
=
 OpenBabel11042411223D

 25 27  0  0  1  0  0  0  0  0999 V2000
  187.1550  177.8190  144.7830 C   0  0  0  0  0  0  0  0  0  0  0  0
  186.5060  177.8500  143.7040 O   0  0  0  0  0  0  0  0  0  0  0  0
  189.3880  177.3590  143.6670 N   0  0  0  0  0  0  0  0  0  0  0  0
  189.2590  177.5530  146.0710 C   0  0  0  0  0  0  0  0  0  0  0  0
  188.6320  177.5690  144.8070 C   0  0  0  0  0  0  0  0  0  0  0  0
  189.0110  177.7690  148.4280 O   0  0  0  0  0  0  0  0  0  0  0  0
  187.0560  178.0110  147.1940 N   0  0  0  0  0  0  0  0  0  0  0  0
  191.4490  176.9360  142.7420 O   0  0  0  0  0  0  0  0  0  0  0  0
  188.4640  177.7780  147.2940 C   0  0  0  0  0  0  0  0  0  0  0  0
  190.7430  177.1310  143.7690 C   0  0  0  0  0  0  0  0  0  0  0  0
  190.6290  177.3220  146.1620 C   0  0  0  0  0  3  0  0  0  0  0  0
  184.9600  178.2840  146.0510 C   0  0  0  0  0  1  0  0  0  0  0  0
  186.4280  178.0350  146.0560 C   0  0  0  0  0  0  0  0  0  0  0  0
  191.3720  177.1110  145.0100 C   0  0  0  0  0  3  0  0  0  0  0  0
  189.3990  176.4240  141.3580 C   0  0  0  0  0  2  0  0  0  0  0  0
  189.5850  177.2060  140.0680 C   0  0  2  0  0  3  0  0  0  0  0  0
  188.7490  178.7580  141.7130 C   0  0  0  0  0  2  0  0  0  0  0  0
  188.7430  177.3790  142.3420 C   0  0  2  0  0  3  0  0  0  0  0  0
  188.8100  178.5000  140.2260 C   0  0  0  0  0  2  0  0  0  0  0  0
  189.0550  176.4500  138.9440 N   0  0  0  0  0  2  0  0  0  0  0  0
  190.3870  175.9820  137.9390 S   0  0  0  0  0  0  0  0  0  0  0  0
  190.5180  174.4850  137.9270 O   0  0  0  0  0  0  0  0  0  0  0  0
  190.1650  176.4740  136.5360 O   0  0  0  0  0  0  0  0  0  0  0  0
  193.0910  176.0040  137.9770 C   0  0  0  0  0  1  0  0  0  0  0  0
  191.8860  176.7020  138.5740 C   0  0  0  0  0  2  0  0  0  0  0  0
  1  5  1  0  0  0  0
  1 13  1  0  0  0  0
  2  1  2  0  0  0  0
  3 10  1  0  0  0  0
  3  5  1  0  0  0  0
  4 11  1  0  0  0  0
  4  9  1  0  0  0  0
  5  4  2  0  0  0  0
  7  9  1  0  0  0  0
  8 10  2  0  0  0  0
  9  6  2  0  0  0  0
 10 14  1  0  0  0  0
 12 13  1  0  0  0  0
 13  7  2  0  0  0  0
 14 11  2  0  0  0  0
 16 20  1  6  0  0  0
 16 19  1  0  0  0  0
 16 15  1  0  0  0  0
 17 18  1  0  0  0  0
 18 15  1  6  0  0  0
 18  3  1  0  0  0  0
 19 17  1  0  0  0  0
 21 25  1  0  0  0  0
 21 20  1  0  0  0  0
 22 21  2  0  0  0  0
 23 21  2  0  0  0  0
 24 25  1  0  0  0  0
M  END
>  <MODEL>
4

>  <REMARK>
 VINA RESULT:      -7.6      1.226      1.493
  Name = 
  4 active torsions:
  status: ('A' for Active; 'I' for Inactive)
    1  A    between atoms: S_1  and  N_7
    2  A    between atoms: S_1  and  C_25
    3  A    between atoms: C_5  and  N_7
    4  A    between atoms: C_8  and  N_11
                            x       y       z     vdW  Elec       q    Type
                         _______ _______ _______ _____ _____    ______ ____

>  <TORSDO>
F 4

$$$$
=
 OpenBabel11042411223D

 25 27  0  0  1  0  0  0  0  0999 V2000
  184.0620  178.2330  141.4470 C   0  0  0  0  0  0  0  0  0  0  0  0
  184.9980  177.8490  140.6960 O   0  0  0  0  0  0  0  0  0  0  0  0
  185.4640  178.1830  143.5630 N   0  0  0  0  0  0  0  0  0  0  0  0
  183.1430  178.8450  143.6700 C   0  0  0  0  0  0  0  0  0  0  0  0
  184.2600  178.4140  142.9210 C   0  0  0  0  0  0  0  0  0  0  0  0
  180.8520  179.4830  143.6520 O   0  0  0  0  0  0  0  0  0  0  0  0
  181.7400  178.9020  141.5840 N   0  0  0  0  0  0  0  0  0  0  0  0
  186.6560  178.1600  145.5280 O   0  0  0  0  0  0  0  0  0  0  0  0
  181.8550  179.0960  142.9970 C   0  0  0  0  0  0  0  0  0  0  0  0
  185.5680  178.3680  144.9250 C   0  0  0  0  0  0  0  0  0  0  0  0
  183.2610  179.0280  145.0450 C   0  0  0  0  0  3  0  0  0  0  0  0
  182.5210  178.3300  139.3840 C   0  0  0  0  0  1  0  0  0  0  0  0
  182.7350  178.5060  140.8480 C   0  0  0  0  0  0  0  0  0  0  0  0
  184.4730  178.7900  145.6730 C   0  0  0  0  0  3  0  0  0  0  0  0
  187.5100  176.7620  143.5610 C   0  0  0  0  0  2  0  0  0  0  0  0
  188.9420  177.2400  143.3820 C   0  0  2  0  0  3  0  0  0  0  0  0
  187.5180  178.8920  142.3530 C   0  0  0  0  0  2  0  0  0  0  0  0
  186.6360  177.7380  142.7900 C   0  0  2  0  0  3  0  0  0  0  0  0
  188.9120  178.3140  142.3110 C   0  0  0  0  0  2  0  0  0  0  0  0
  189.7870  176.1380  142.9490 N   0  0  0  0  0  2  0  0  0  0  0  0
  191.3930  176.4370  143.5280 S   0  0  0  0  0  0  0  0  0  0  0  0
  192.0380  175.1430  143.9370 O   0  0  0  0  0  0  0  0  0  0  0  0
  192.2130  177.0820  142.4450 O   0  0  0  0  0  0  0  0  0  0  0  0
  191.3410  176.7310  146.2150 C   0  0  0  0  0  1  0  0  0  0  0  0
  191.3200  177.5320  144.9290 C   0  0  0  0  0  2  0  0  0  0  0  0
  1  5  1  0  0  0  0
  2  1  2  0  0  0  0
  3 10  1  0  0  0  0
  4 11  1  0  0  0  0
  5  3  1  0  0  0  0
  5  4  2  0  0  0  0
  7  9  1  0  0  0  0
  9  6  2  0  0  0  0
  9  4  1  0  0  0  0
 10  8  2  0  0  0  0
 10 14  1  0  0  0  0
 11 14  2  0  0  0  0
 12 13  1  0  0  0  0
 13  1  1  0  0  0  0
 13  7  2  0  0  0  0
 16 20  1  6  0  0  0
 16 15  1  0  0  0  0
 18 17  1  1  0  0  0
 18 15  1  0  0  0  0
 18  3  1  0  0  0  0
 19 17  1  0  0  0  0
 19 16  1  0  0  0  0
 20 21  1  0  0  0  0
 21 22  2  0  0  0  0
 21 25  1  0  0  0  0
 23 21  2  0  0  0  0
 25 24  1  0  0  0  0
M  END
>  <MODEL>
5

>  <REMARK>
 VINA RESULT:      -7.4      3.544      5.828
  Name = 
  4 active torsions:
  status: ('A' for Active; 'I' for Inactive)
    1  A    between atoms: S_1  and  N_7
    2  A    between atoms: S_1  and  C_25
    3  A    between atoms: C_5  and  N_7
    4  A    between atoms: C_8  and  N_11
                            x       y       z     vdW  Elec       q    Type
                         _______ _______ _______ _____ _____    ______ ____

>  <TORSDO>
F 4

$$$$
=
 OpenBabel11042411223D

 25 27  0  0  1  0  0  0  0  0999 V2000
  190.2050  177.3130  139.6490 C   0  0  0  0  0  0  0  0  0  0  0  0
  191.3200  177.1050  140.1970 O   0  0  0  0  0  0  0  0  0  0  0  0
  189.0170  177.8890  141.8170 N   0  0  0  0  0  0  0  0  0  0  0  0
  187.8000  177.9190  139.7300 C   0  0  0  0  0  0  0  0  0  0  0  0
  189.0000  177.7140  140.4440 C   0  0  0  0  0  0  0  0  0  0  0  0
  186.7080  177.9190  137.6170 O   0  0  0  0  0  0  0  0  0  0  0  0
  188.9620  177.3530  137.5730 N   0  0  0  0  0  0  0  0  0  0  0  0
  187.8600  178.4170  143.7310 O   0  0  0  0  0  0  0  0  0  0  0  0
  187.7710  177.7370  138.2660 C   0  0  0  0  0  0  0  0  0  0  0  0
  187.8660  178.2550  142.4800 C   0  0  0  0  0  0  0  0  0  0  0  0
  186.6440  178.2890  140.4110 C   0  0  0  0  0  3  0  0  0  0  0  0
  191.2800  176.7510  137.3760 C   0  0  0  0  0  1  0  0  0  0  0  0
  190.0930  177.1500  138.1810 C   0  0  0  0  0  0  0  0  0  0  0  0
  186.6760  178.4570  141.7870 C   0  0  0  0  0  3  0  0  0  0  0  0
  190.0930  176.7260  143.7390 C   0  0  0  0  0  2  0  0  0  0  0  0
  190.7670  177.3850  144.9310 C   0  0  2  0  0  3  0  0  0  0  0  0
  190.8350  178.9760  143.1190 C   0  0  0  0  0  2  0  0  0  0  0  0
  190.2660  177.6820  142.5700 C   0  0  2  0  0  3  0  0  0  0  0  0
  191.5410  178.5730  144.3920 C   0  0  0  0  0  2  0  0  0  0  0  0
  191.6820  176.4510  145.5680 N   0  0  0  0  0  2  0  0  0  0  0  0
  191.2370  176.3240  147.2390 S   0  0  0  0  0  0  0  0  0  0  0  0
  191.4580  174.9170  147.7210 O   0  0  0  0  0  0  0  0  0  0  0  0
  192.0690  177.2690  148.0610 O   0  0  0  0  0  0  0  0  0  0  0  0
  189.3800  177.9550  148.3340 C   0  0  0  0  0  1  0  0  0  0  0  0
  189.5200  176.7510  147.4260 C   0  0  0  0  0  2  0  0  0  0  0  0
  1  2  2  0  0  0  0
  1  5  1  0  0  0  0
  3 10  1  0  0  0  0
  4 11  1  0  0  0  0
  4  5  2  0  0  0  0
  5  3  1  0  0  0  0
  6  9  2  0  0  0  0
  7 13  2  0  0  0  0
  7  9  1  0  0  0  0
  9  4  1  0  0  0  0
 10  8  2  0  0  0  0
 11 14  2  0  0  0  0
 12 13  1  0  0  0  0
 13  1  1  0  0  0  0
 14 10  1  0  0  0  0
 15 16  1  0  0  0  0
 16 20  1  6  0  0  0
 17 19  1  0  0  0  0
 18  3  1  1  0  0  0
 18 17  1  0  0  0  0
 18 15  1  0  0  0  0
 19 16  1  0  0  0  0
 20 21  1  0  0  0  0
 21 25  1  0  0  0  0
 21 22  2  0  0  0  0
 21 23  2  0  0  0  0
 25 24  1  0  0  0  0
M  END
>  <MODEL>
6

>  <REMARK>
 VINA RESULT:      -7.1      3.035      7.444
  Name = 
  4 active torsions:
  status: ('A' for Active; 'I' for Inactive)
    1  A    between atoms: S_1  and  N_7
    2  A    between atoms: S_1  and  C_25
    3  A    between atoms: C_5  and  N_7
    4  A    between atoms: C_8  and  N_11
                            x       y       z     vdW  Elec       q    Type
                         _______ _______ _______ _____ _____    ______ ____

>  <TORSDO>
F 4

$$$$
=
 OpenBabel11042411223D

 25 27  0  0  1  0  0  0  0  0999 V2000
  187.8660  177.5580  145.0370 C   0  0  0  0  0  0  0  0  0  0  0  0
  186.8760  177.6360  145.8120 O   0  0  0  0  0  0  0  0  0  0  0  0
  186.5750  178.3070  142.9830 N   0  0  0  0  0  0  0  0  0  0  0  0
  188.9220  177.7670  142.8010 C   0  0  0  0  0  0  0  0  0  0  0  0
  187.7520  177.8910  143.5800 C   0  0  0  0  0  0  0  0  0  0  0  0
  191.2360  177.2140  142.7440 O   0  0  0  0  0  0  0  0  0  0  0  0
  190.2170  177.0260  144.8250 N   0  0  0  0  0  0  0  0  0  0  0  0
  185.4840  178.9700  141.0720 O   0  0  0  0  0  0  0  0  0  0  0  0
  190.1840  177.3270  143.4270 C   0  0  0  0  0  0  0  0  0  0  0  0
  186.5480  178.5920  141.6350 C   0  0  0  0  0  0  0  0  0  0  0  0
  188.8820  178.0580  141.4400 C   0  0  0  0  0  3  0  0  0  0  0  0
  189.2990  176.7860  147.0330 C   0  0  0  0  0  1  0  0  0  0  0  0
  189.1700  177.1220  145.5880 C   0  0  0  0  0  0  0  0  0  0  0  0
  187.6950  178.4710  140.8560 C   0  0  0  0  0  3  0  0  0  0  0  0
  184.1050  177.9910  143.0430 C   0  0  0  0  0  2  0  0  0  0  0  0
  183.0610  179.0750  143.2610 C   0  0  2  0  0  3  0  0  0  0  0  0
  185.1120  179.8700  144.2490 C   0  0  0  0  0  2  0  0  0  0  0  0
  185.3490  178.4450  143.7890 C   0  0  2  0  0  3  0  0  0  0  0  0
  183.6100  180.0000  144.3300 C   0  0  0  0  0  2  0  0  0  0  0  0
  181.8130  178.4820  143.7180 N   0  0  0  0  0  2  0  0  0  0  0  0
  180.5440  179.0420  142.6790 S   0  0  0  0  0  0  0  0  0  0  0  0
  179.2740  178.2950  142.9760 O   0  0  0  0  0  0  0  0  0  0  0  0
  180.3190  180.5130  142.8960 O   0  0  0  0  0  0  0  0  0  0  0  0
  180.6000  179.9600  140.1370 C   0  0  0  0  0  1  0  0  0  0  0  0
  181.0080  178.7710  140.9820 C   0  0  0  0  0  2  0  0  0  0  0  0
  1 13  1  0  0  0  0
  1  2  2  0  0  0  0
  3  5  1  0  0  0  0
  4  9  1  0  0  0  0
  4  5  2  0  0  0  0
  5  1  1  0  0  0  0
  6  9  2  0  0  0  0
  7 13  2  0  0  0  0
  8 10  2  0  0  0  0
  9  7  1  0  0  0  0
 10  3  1  0  0  0  0
 11  4  1  0  0  0  0
 13 12  1  0  0  0  0
 14 11  2  0  0  0  0
 14 10  1  0  0  0  0
 15 16  1  0  0  0  0
 15 18  1  0  0  0  0
 16 20  1  1  0  0  0
 16 19  1  0  0  0  0
 17 19  1  0  0  0  0
 18  3  1  6  0  0  0
 18 17  1  0  0  0  0
 21 23  2  0  0  0  0
 21 22  2  0  0  0  0
 21 20  1  0  0  0  0
 24 25  1  0  0  0  0
 25 21  1  0  0  0  0
M  END
>  <MODEL>
7

>  <REMARK>
 VINA RESULT:      -7.0      4.270      7.214
  Name = 
  4 active torsions:
  status: ('A' for Active; 'I' for Inactive)
    1  A    between atoms: S_1  and  N_7
    2  A    between atoms: S_1  and  C_25
    3  A    between atoms: C_5  and  N_7
    4  A    between atoms: C_8  and  N_11
                            x       y       z     vdW  Elec       q    Type
                         _______ _______ _______ _____ _____    ______ ____

>  <TORSDO>
F 4

$$$$
=
 OpenBabel11042411223D

 25 27  0  0  1  0  0  0  0  0999 V2000
  187.4120  177.8150  143.5740 C   0  0  0  0  0  0  0  0  0  0  0  0
  186.7160  177.8410  142.5240 O   0  0  0  0  0  0  0  0  0  0  0  0
  189.6240  177.6060  142.3450 N   0  0  0  0  0  0  0  0  0  0  0  0
  189.5880  177.6700  144.7600 C   0  0  0  0  0  0  0  0  0  0  0  0
  188.9050  177.6930  143.5250 C   0  0  0  0  0  0  0  0  0  0  0  0
  189.4280  177.7480  147.1320 O   0  0  0  0  0  0  0  0  0  0  0  0
  187.4060  177.8790  145.9930 N   0  0  0  0  0  0  0  0  0  0  0  0
  191.6700  177.4080  141.3160 O   0  0  0  0  0  0  0  0  0  0  0  0
  188.8320  177.7650  146.0230 C   0  0  0  0  0  0  0  0  0  0  0  0
  190.9970  177.4910  142.3800 C   0  0  0  0  0  0  0  0  0  0  0  0
  190.9750  177.5540  144.7820 C   0  0  0  0  0  3  0  0  0  0  0  0
  185.2450  178.0250  144.9510 C   0  0  0  0  0  1  0  0  0  0  0  0
  186.7280  177.9040  144.8850 C   0  0  0  0  0  0  0  0  0  0  0  0
  191.6800  177.4650  143.5920 C   0  0  0  0  0  3  0  0  0  0  0  0
  189.4110  176.5580  140.0950 C   0  0  0  0  0  2  0  0  0  0  0  0
  189.6230  177.2440  138.7550 C   0  0  2  0  0  3  0  0  0  0  0  0
  189.0570  178.9680  140.3430 C   0  0  0  0  0  2  0  0  0  0  0  0
  188.9210  177.6340  141.0510 C   0  0  2  0  0  3  0  0  0  0  0  0
  189.0140  178.6280  138.8730 C   0  0  0  0  0  2  0  0  0  0  0  0
  188.9530  176.5000  137.7010 N   0  0  0  0  0  2  0  0  0  0  0  0
  190.1440  176.0530  136.5230 S   0  0  0  0  0  0  0  0  0  0  0  0
  189.9630  174.6110  136.1360 O   0  0  0  0  0  0  0  0  0  0  0  0
  190.0030  176.9180  135.3020 O   0  0  0  0  0  0  0  0  0  0  0  0
  192.3630  174.9420  137.5970 C   0  0  0  0  0  1  0  0  0  0  0  0
  191.7690  176.2810  137.2120 C   0  0  0  0  0  2  0  0  0  0  0  0
  1 13  1  0  0  0  0
  2  1  2  0  0  0  0
  3 10  1  0  0  0  0
  3  5  1  0  0  0  0
  4 11  1  0  0  0  0
  4  9  1  0  0  0  0
  5  1  1  0  0  0  0
  5  4  2  0  0  0  0
  7  9  1  0  0  0  0
  8 10  2  0  0  0  0
  9  6  2  0  0  0  0
 10 14  1  0  0  0  0
 13 12  1  0  0  0  0
 13  7  2  0  0  0  0
 14 11  2  0  0  0  0
 16 20  1  6  0  0  0
 16 19  1  0  0  0  0
 16 15  1  0  0  0  0
 17 18  1  0  0  0  0
 18 15  1  6  0  0  0
 18  3  1  0  0  0  0
 19 17  1  0  0  0  0
 21 25  1  0  0  0  0
 21 20  1  0  0  0  0
 22 21  2  0  0  0  0
 23 21  2  0  0  0  0
 25 24  1  0  0  0  0
M  END
>  <MODEL>
8

>  <REMARK>
 VINA RESULT:      -6.9      1.842      2.402
  Name = 
  4 active torsions:
  status: ('A' for Active; 'I' for Inactive)
    1  A    between atoms: S_1  and  N_7
    2  A    between atoms: S_1  and  C_25
    3  A    between atoms: C_5  and  N_7
    4  A    between atoms: C_8  and  N_11
                            x       y       z     vdW  Elec       q    Type
                         _______ _______ _______ _____ _____    ______ ____

>  <TORSDO>
F 4

$$$$
=
 OpenBabel11042411223D

 25 27  0  0  1  0  0  0  0  0999 V2000
  186.5410  178.5590  140.3930 C   0  0  0  0  0  0  0  0  0  0  0  0
  186.0610  178.7710  141.5380 O   0  0  0  0  0  0  0  0  0  0  0  0
  188.7820  177.7380  141.2590 N   0  0  0  0  0  0  0  0  0  0  0  0
  188.3700  177.8340  138.8800 C   0  0  0  0  0  0  0  0  0  0  0  0
  187.9310  178.0320  140.2070 C   0  0  0  0  0  0  0  0  0  0  0  0
  187.8490  177.9680  136.5630 O   0  0  0  0  0  0  0  0  0  0  0  0
  186.1550  178.6430  138.0050 N   0  0  0  0  0  0  0  0  0  0  0  0
  190.8400  176.9880  141.9530 O   0  0  0  0  0  0  0  0  0  0  0  0
  187.4720  178.1420  137.7510 C   0  0  0  0  0  0  0  0  0  0  0  0
  190.0500  177.2600  141.0080 C   0  0  0  0  0  0  0  0  0  0  0  0
  189.6530  177.3510  138.6400 C   0  0  0  0  0  3  0  0  0  0  0  0
  184.3180  179.3700  139.3730 C   0  0  0  0  0  1  0  0  0  0  0  0
  185.7020  178.8450  139.2060 C   0  0  0  0  0  0  0  0  0  0  0  0
  190.4940  177.0630  139.7040 C   0  0  0  0  0  3  0  0  0  0  0  0
  189.4730  178.2870  143.5880 C   0  0  0  0  0  2  0  0  0  0  0  0
  189.2990  177.4050  144.8140 C   0  0  2  0  0  3  0  0  0  0  0  0
  187.6320  176.7170  143.2130 C   0  0  0  0  0  2  0  0  0  0  0  0
  188.3310  177.9370  142.6470 C   0  0  2  0  0  3  0  0  0  0  0  0
  187.9350  176.7530  144.6920 C   0  0  0  0  0  2  0  0  0  0  0  0
  189.3520  178.2120  146.0230 N   0  0  0  0  0  2  0  0  0  0  0  0
  190.0720  177.2530  147.2740 S   0  0  0  0  0  0  0  0  0  0  0  0
  190.4350  178.1260  148.4420 O   0  0  0  0  0  0  0  0  0  0  0  0
  189.1060  176.1930  147.7240 O   0  0  0  0  0  0  0  0  0  0  0  0
  192.1770  175.6160  147.7220 C   0  0  0  0  0  1  0  0  0  0  0  0
  191.5400  176.4670  146.6440 C   0  0  0  0  0  2  0  0  0  0  0  0
  1  2  2  0  0  0  0
  4  5  2  0  0  0  0
  5  1  1  0  0  0  0
  5  3  1  0  0  0  0
  6  9  2  0  0  0  0
  7 13  2  0  0  0  0
  9  7  1  0  0  0  0
  9  4  1  0  0  0  0
 10  3  1  0  0  0  0
 10  8  2  0  0  0  0
 11  4  1  0  0  0  0
 11 14  2  0  0  0  0
 13 12  1  0  0  0  0
 13  1  1  0  0  0  0
 14 10  1  0  0  0  0
 15 16  1  0  0  0  0
 16 20  1  1  0  0  0
 17 19  1  0  0  0  0
 18  3  1  6  0  0  0
 18 17  1  0  0  0  0
 18 15  1  0  0  0  0
 19 16  1  0  0  0  0
 20 21  1  0  0  0  0
 21 23  2  0  0  0  0
 21 22  2  0  0  0  0
 25 21  1  0  0  0  0
 25 24  1  0  0  0  0
M  END
>  <MODEL>
9

>  <REMARK>
 VINA RESULT:      -6.8      3.138      7.163
  Name = 
  4 active torsions:
  status: ('A' for Active; 'I' for Inactive)
    1  A    between atoms: S_1  and  N_7
    2  A    between atoms: S_1  and  C_25
    3  A    between atoms: C_5  and  N_7
    4  A    between atoms: C_8  and  N_11
                            x       y       z     vdW  Elec       q    Type
                         _______ _______ _______ _____ _____    ______ ____

>  <TORSDO>
F 4

$$$$
