=
 OpenBabel11042409583D

 38 42  0  0  1  0  0  0  0  0999 V2000
  183.8660  177.0050  137.1420 N   0  0  0  0  0  0  0  0  0  0  0  0
  183.2620  177.5880  140.0140 C   0  0  0  0  0  2  0  0  0  0  0  0
  186.1690  177.7470  144.3300 C   0  0  0  0  0  2  0  0  0  0  0  0
  182.0650  179.4640  143.6960 O   0  0  0  0  0  0  0  0  0  0  0  0
  184.6800  176.5520  136.1630 C   0  0  0  0  0  3  0  0  0  0  0  0
  187.6580  177.4840  139.1980 C   0  0  0  0  0  2  0  0  0  0  0  0
  183.7490  178.5060  142.3520 C   0  0  0  0  0  0  0  0  0  0  0  0
  185.9380  177.7540  137.5030 N   0  0  0  0  0  0  0  0  0  0  0  0
  185.3840  178.8280  145.0690 C   0  0  0  0  0  3  0  0  0  0  0  0
  186.1500  177.8640  142.8360 C   0  0  0  0  0  0  0  0  0  0  0  0
  184.6690  177.7260  137.9480 C   0  0  0  0  0  0  0  0  0  0  0  0
  187.0790  178.3980  138.1320 C   0  0  0  0  0  2  0  0  0  0  0  0
  184.1930  178.4570  139.1680 C   0  0  1  0  0  3  0  0  0  0  0  0
  188.2900  178.0620  141.5630 C   0  0  1  0  0  0  0  0  0  0  0  0
  183.2660  179.0970  143.6160 C   0  0  0  0  0  0  0  0  0  0  0  0
  184.1630  179.3470  144.7900 C   0  0  0  0  0  3  0  0  0  0  0  0
  187.8300  179.1950  140.8700 O   0  0  0  0  0  0  0  0  0  0  0  0
  182.8720  178.2690  141.2440 N   0  0  0  0  0  2  0  0  0  0  0  0
  187.1450  177.1370  142.0000 C   0  0  0  0  0  2  0  0  0  0  0  0
  184.9800  178.1250  142.3690 C   0  0  0  0  0  0  0  0  0  0  0  0
  188.5850  178.2670  140.1180 C   0  0  2  0  0  3  0  0  0  0  0  0
  185.9680  177.0110  136.3860 C   0  0  0  0  0  3  0  0  0  0  0  0
  183.4590  180.0780  138.7330 S   0  0  0  0  0  0  0  0  0  0  0  0
  181.8360  179.4240  138.2320 C   0  0  0  0  0  1  0  0  0  0  0  0
  189.1130  179.6180  143.1810 F   0  0  0  0  0  0  0  0  0  0  0  0
  189.4040  178.4240  142.5430 C   0  0  1  0  0  3  0  0  0  0  0  0
  189.6390  174.9070  142.7350 O   0  0  0  0  0  0  0  0  0  0  0  0
  189.6410  177.3250  143.5350 C   0  0  0  0  0  0  0  0  0  0  0  0
  189.6400  176.0810  143.1230 C   0  0  0  0  0  0  0  0  0  0  0  0
  189.8470  177.6530  144.9870 C   0  0  2  0  0  3  0  0  0  0  0  0
  187.6540  176.7500  147.9240 N   0  0  0  0  0  1  0  0  0  0  0  0
  188.7770  177.1520  147.1510 C   0  0  0  0  0  0  0  0  0  0  0  0
  191.2460  177.1420  147.0300 C   0  0  0  0  0  0  0  0  0  0  0  0
  192.5120  178.1740  144.8760 Cl  0  0  0  0  0  0  0  0  0  0  0  0
  191.2010  177.1490  145.5190 C   0  0  2  0  0  3  0  0  0  0  0  0
  192.2630  176.7890  147.6050 O   0  0  0  0  0  0  0  0  0  0  0  0
  190.0480  177.5560  147.8400 C   0  0  0  0  0  2  0  0  0  0  0  0
  188.6840  177.1870  145.8210 C   0  0  0  0  0  3  0  0  0  0  0  0
  1 11  2  0  0  0  0
  2 18  1  0  0  0  0
  3  9  1  0  0  0  0
  5 22  2  0  0  0  0
  5  1  1  0  0  0  0
  7 20  2  0  0  0  0
  7 15  1  0  0  0  0
  8 11  1  0  0  0  0
  8 12  1  0  0  0  0
 10  3  1  0  0  0  0
 11 13  1  0  0  0  0
 12  6  1  0  0  0  0
 13 23  1  6  0  0  0
 13  2  1  0  0  0  0
 14 19  1  0  0  0  0
 14 26  1  1  0  0  0
 15  4  2  0  0  0  0
 15 16  1  0  0  0  0
 16  9  2  0  0  0  0
 17 14  1  0  0  0  0
 18  7  1  0  0  0  0
 19 10  1  0  0  0  0
 20 10  2  0  0  0  0
 21  6  1  6  0  0  0
 21 17  1  0  0  0  0
 21 14  1  0  0  0  0
 22  8  1  0  0  0  0
 24 23  1  0  0  0  0
 26 25  1  1  0  0  0
 26 28  1  0  0  0  0
 27 29  2  0  0  0  0
 29 28  2  0  0  0  0
 30 28  1  6  0  0  0
 30 35  1  0  0  0  0
 30 38  1  0  0  0  0
 32 37  1  0  0  0  0
 32 31  1  0  0  0  0
 33 36  2  0  0  0  0
 33 37  1  0  0  0  0
 35 34  1  6  0  0  0
 35 33  1  0  0  0  0
 38 32  2  0  0  0  0
M  END
>  <MODEL>
1

>  <REMARK>
 VINA RESULT:      -7.3      0.000      0.000
  Name = 
  4 active torsions:
  status: ('A' for Active; 'I' for Inactive)
    1  A    between atoms: S_5  and  C_19
    2  A    between atoms: C_9  and  C_26
    3  A    between atoms: C_21  and  C_35
    4  A    between atoms: C_26  and  C_35
                            x       y       z     vdW  Elec       q    Type
                         _______ _______ _______ _____ _____    ______ ____

>  <TORSDO>
F 4

$$$$
=
 OpenBabel11042409583D

 38 42  0  0  1  0  0  0  0  0999 V2000
  181.3360  176.3490  136.3320 N   0  0  0  0  0  0  0  0  0  0  0  0
  180.5320  177.2330  139.0750 C   0  0  0  0  0  2  0  0  0  0  0  0
  183.1930  178.3730  143.4010 C   0  0  0  0  0  2  0  0  0  0  0  0
  178.9330  179.4150  142.4210 O   0  0  0  0  0  0  0  0  0  0  0  0
  182.2460  175.8810  135.4490 C   0  0  0  0  0  3  0  0  0  0  0  0
  184.9350  177.6140  138.4000 C   0  0  0  0  0  2  0  0  0  0  0  0
  180.7880  178.5200  141.2720 C   0  0  0  0  0  0  0  0  0  0  0  0
  183.2740  177.4140  136.6380 N   0  0  0  0  0  0  0  0  0  0  0  0
  182.2420  179.4290  143.9590 C   0  0  0  0  0  3  0  0  0  0  0  0
  183.2270  178.2810  141.9060 C   0  0  0  0  0  0  0  0  0  0  0  0
  182.0010  177.2750  137.0480 C   0  0  0  0  0  0  0  0  0  0  0  0
  184.2920  178.2870  137.2000 C   0  0  0  0  0  2  0  0  0  0  0  0
  181.3790  178.0960  138.1400 C   0  0  1  0  0  3  0  0  0  0  0  0
  185.3790  178.5900  140.6750 C   0  0  1  0  0  0  0  0  0  0  0  0
  180.1750  179.2080  142.4260 C   0  0  0  0  0  0  0  0  0  0  0  0
  180.9770  179.7350  143.5750 C   0  0  0  0  0  3  0  0  0  0  0  0
  184.8070  179.5450  139.8160 O   0  0  0  0  0  0  0  0  0  0  0  0
  180.0010  178.0170  140.1850 N   0  0  0  0  0  2  0  0  0  0  0  0
  184.3450  177.5880  141.2080 C   0  0  0  0  0  2  0  0  0  0  0  0
  182.0560  178.3150  141.3750 C   0  0  0  0  0  0  0  0  0  0  0  0
  185.7100  178.6340  139.2240 C   0  0  2  0  0  3  0  0  0  0  0  0
  183.4520  176.5360  135.6390 C   0  0  0  0  0  3  0  0  0  0  0  0
  180.4610  179.5270  137.4590 S   0  0  0  0  0  0  0  0  0  0  0  0
  181.5580  180.8040  138.1510 C   0  0  0  0  0  1  0  0  0  0  0  0
  185.7610  180.1440  142.4520 F   0  0  0  0  0  0  0  0  0  0  0  0
  186.3910  179.2300  141.6230 C   0  0  1  0  0  3  0  0  0  0  0  0
  186.3090  177.6140  144.7610 O   0  0  0  0  0  0  0  0  0  0  0  0
  187.1270  178.1950  142.4200 C   0  0  0  0  0  0  0  0  0  0  0  0
  186.7060  177.8970  143.6240 C   0  0  0  0  0  0  0  0  0  0  0  0
  188.3490  177.5340  141.8470 C   0  0  2  0  0  3  0  0  0  0  0  0
  189.8450  177.9590  138.4070 N   0  0  0  0  0  1  0  0  0  0  0  0
  189.6940  177.6380  139.7840 C   0  0  0  0  0  0  0  0  0  0  0  0
  190.8740  177.4470  141.9470 C   0  0  0  0  0  0  0  0  0  0  0  0
  189.5140  176.8080  144.1930 Cl  0  0  0  0  0  0  0  0  0  0  0  0
  189.6070  177.7810  142.7010 C   0  0  2  0  0  3  0  0  0  0  0  0
  191.9570  177.5670  142.4970 O   0  0  0  0  0  0  0  0  0  0  0  0
  190.8220  176.9750  140.5200 C   0  0  0  0  0  2  0  0  0  0  0  0
  188.5450  177.9080  140.4030 C   0  0  0  0  0  3  0  0  0  0  0  0
  1 11  2  0  0  0  0
  2 18  1  0  0  0  0
  3  9  1  0  0  0  0
  4 15  2  0  0  0  0
  5 22  2  0  0  0  0
  5  1  1  0  0  0  0
  7 20  2  0  0  0  0
  7 15  1  0  0  0  0
  8 11  1  0  0  0  0
  8 12  1  0  0  0  0
 10  3  1  0  0  0  0
 11 13  1  0  0  0  0
 12  6  1  0  0  0  0
 13 23  1  6  0  0  0
 13  2  1  0  0  0  0
 14 19  1  0  0  0  0
 14 26  1  1  0  0  0
 15 16  1  0  0  0  0
 16  9  2  0  0  0  0
 17 14  1  0  0  0  0
 18  7  1  0  0  0  0
 19 10  1  0  0  0  0
 20 10  2  0  0  0  0
 21  6  1  6  0  0  0
 21 17  1  0  0  0  0
 21 14  1  0  0  0  0
 22  8  1  0  0  0  0
 23 24  1  0  0  0  0
 26 28  1  0  0  0  0
 26 25  1  1  0  0  0
 28 29  2  0  0  0  0
 29 27  2  0  0  0  0
 30 28  1  1  0  0  0
 30 35  1  0  0  0  0
 31 32  1  0  0  0  0
 32 38  2  0  0  0  0
 32 37  1  0  0  0  0
 33 36  2  0  0  0  0
 33 35  1  0  0  0  0
 35 34  1  1  0  0  0
 37 33  1  0  0  0  0
 38 30  1  0  0  0  0
M  END
>  <MODEL>
2

>  <REMARK>
 VINA RESULT:      -7.0      2.993      3.994
  Name = 
  4 active torsions:
  status: ('A' for Active; 'I' for Inactive)
    1  A    between atoms: S_5  and  C_19
    2  A    between atoms: C_9  and  C_26
    3  A    between atoms: C_21  and  C_35
    4  A    between atoms: C_26  and  C_35
                            x       y       z     vdW  Elec       q    Type
                         _______ _______ _______ _____ _____    ______ ____

>  <TORSDO>
F 4

$$$$
=
 OpenBabel11042409583D

 38 42  0  0  1  0  0  0  0  0999 V2000
  188.4470  175.6030  136.9050 N   0  0  0  0  0  0  0  0  0  0  0  0
  185.6240  176.5430  137.2180 C   0  0  0  0  0  2  0  0  0  0  0  0
  182.8680  178.3390  141.2530 C   0  0  0  0  0  2  0  0  0  0  0  0
  181.9130  178.6930  136.8760 O   0  0  0  0  0  0  0  0  0  0  0  0
  189.6370  175.2110  137.4130 C   0  0  0  0  0  3  0  0  0  0  0  0
  188.1330  177.5050  140.7930 C   0  0  0  0  0  2  0  0  0  0  0  0
  183.7510  177.9980  138.1800 C   0  0  0  0  0  0  0  0  0  0  0  0
  189.0060  176.9520  138.5940 N   0  0  0  0  0  0  0  0  0  0  0  0
  181.9530  179.2830  140.4760 C   0  0  0  0  0  3  0  0  0  0  0  0
  184.2320  178.1530  140.6600 C   0  0  0  0  0  0  0  0  0  0  0  0
  188.0870  176.6600  137.6570 C   0  0  0  0  0  0  0  0  0  0  0  0
  188.9360  177.9970  139.6020 C   0  0  0  0  0  2  0  0  0  0  0  0
  186.8320  177.4540  137.4380 C   0  0  1  0  0  3  0  0  0  0  0  0
  186.2700  178.6840  142.0040 C   0  0  1  0  0  0  0  0  0  0  0  0
  182.4450  178.6660  138.0170 C   0  0  0  0  0  0  0  0  0  0  0  0
  181.7530  179.3780  139.1380 C   0  0  0  0  0  3  0  0  0  0  0  0
  186.7970  179.4880  140.9770 O   0  0  0  0  0  0  0  0  0  0  0  0
  184.3930  177.3160  137.0940 N   0  0  0  0  0  2  0  0  0  0  0  0
  185.3450  177.5820  141.4680 C   0  0  0  0  0  2  0  0  0  0  0  0
  184.2050  177.9830  139.3860 C   0  0  0  0  0  0  0  0  0  0  0  0
  187.7220  178.6780  141.6730 C   0  0  2  0  0  3  0  0  0  0  0  0
  189.9850  176.0430  138.4650 C   0  0  0  0  0  3  0  0  0  0  0  0
  187.0480  178.6900  136.1040 S   0  0  0  0  0  0  0  0  0  0  0  0
  186.7680  177.5350  134.7250 C   0  0  0  0  0  1  0  0  0  0  0  0
  184.9330  180.4880  142.8240 F   0  0  0  0  0  0  0  0  0  0  0  0
  185.8500  179.5240  143.2080 C   0  0  1  0  0  3  0  0  0  0  0  0
  182.7900  178.5910  144.6980 O   0  0  0  0  0  0  0  0  0  0  0  0
  185.3060  178.6680  144.3110 C   0  0  0  0  0  0  0  0  0  0  0  0
  184.0120  178.6280  144.5100 C   0  0  0  0  0  0  0  0  0  0  0  0
  186.2430  177.8900  145.1920 C   0  0  2  0  0  3  0  0  0  0  0  0
  189.8310  176.9300  144.5200 N   0  0  0  0  0  1  0  0  0  0  0  0
  188.6090  177.1980  145.1940 C   0  0  0  0  0  0  0  0  0  0  0  0
  187.6090  177.9740  147.3180 C   0  0  0  0  0  0  0  0  0  0  0  0
  184.9300  178.2530  147.5440 Cl  0  0  0  0  0  0  0  0  0  0  0  0
  186.4090  178.5270  146.5830 C   0  0  2  0  0  3  0  0  0  0  0  0
  187.8630  178.3630  148.4460 O   0  0  0  0  0  0  0  0  0  0  0  0
  188.5060  176.9540  146.6710 C   0  0  0  0  0  2  0  0  0  0  0  0
  187.5580  177.6430  144.5040 C   0  0  0  0  0  3  0  0  0  0  0  0
  1  5  1  0  0  0  0
  1 11  2  0  0  0  0
  2 13  1  0  0  0  0
  4 15  2  0  0  0  0
  5 22  2  0  0  0  0
  7 20  2  0  0  0  0
  8 12  1  0  0  0  0
  9  3  1  0  0  0  0
 10  3  1  0  0  0  0
 10 19  1  0  0  0  0
 11  8  1  0  0  0  0
 12  6  1  0  0  0  0
 13 23  1  6  0  0  0
 13 11  1  0  0  0  0
 14 26  1  1  0  0  0
 15  7  1  0  0  0  0
 15 16  1  0  0  0  0
 16  9  2  0  0  0  0
 17 21  1  0  0  0  0
 17 14  1  0  0  0  0
 18  2  1  0  0  0  0
 18  7  1  0  0  0  0
 19 14  1  0  0  0  0
 20 10  2  0  0  0  0
 21  6  1  6  0  0  0
 21 14  1  0  0  0  0
 22  8  1  0  0  0  0
 24 23  1  0  0  0  0
 26 25  1  6  0  0  0
 26 28  1  0  0  0  0
 28 29  2  0  0  0  0
 29 27  2  0  0  0  0
 30 28  1  6  0  0  0
 30 35  1  0  0  0  0
 31 32  1  0  0  0  0
 32 37  1  0  0  0  0
 33 36  2  0  0  0  0
 35 33  1  0  0  0  0
 35 34  1  1  0  0  0
 37 33  1  0  0  0  0
 38 30  1  0  0  0  0
 38 32  2  0  0  0  0
M  END
>  <MODEL>
3

>  <REMARK>
 VINA RESULT:      -6.7      2.696      4.467
  Name = 
  4 active torsions:
  status: ('A' for Active; 'I' for Inactive)
    1  A    between atoms: S_5  and  C_19
    2  A    between atoms: C_9  and  C_26
    3  A    between atoms: C_21  and  C_35
    4  A    between atoms: C_26  and  C_35
                            x       y       z     vdW  Elec       q    Type
                         _______ _______ _______ _____ _____    ______ ____

>  <TORSDO>
F 4

$$$$
=
 OpenBabel11042409583D

 38 42  0  0  1  0  0  0  0  0999 V2000
  184.5990  179.3800  138.1220 N   0  0  0  0  0  0  0  0  0  0  0  0
  187.0850  178.1860  136.9590 C   0  0  0  0  0  2  0  0  0  0  0  0
  191.8160  177.1760  138.8800 C   0  0  0  0  0  2  0  0  0  0  0  0
  189.9480  175.5450  135.1320 O   0  0  0  0  0  0  0  0  0  0  0  0
  183.9400  180.0480  139.0940 C   0  0  0  0  0  3  0  0  0  0  0  0
  187.3090  178.5560  141.4100 C   0  0  0  0  0  2  0  0  0  0  0  0
  189.2370  176.8030  136.9960 C   0  0  0  0  0  0  0  0  0  0  0  0
  185.2540  178.6160  140.1150 N   0  0  0  0  0  0  0  0  0  0  0  0
  192.1280  175.9460  138.0310 C   0  0  0  0  0  3  0  0  0  0  0  0
  190.3650  177.3790  139.1890 C   0  0  0  0  0  0  0  0  0  0  0  0
  185.4010  178.5220  138.7820 C   0  0  0  0  0  0  0  0  0  0  0  0
  185.9790  177.8780  141.1360 C   0  0  0  0  0  2  0  0  0  0  0  0
  186.3100  177.5380  138.1060 C   0  0  1  0  0  3  0  0  0  0  0  0
  189.5890  177.5030  141.5600 C   0  0  1  0  0  0  0  0  0  0  0  0
  190.2140  175.9460  136.2960 C   0  0  0  0  0  0  0  0  0  0  0  0
  191.4830  175.4720  136.9360 C   0  0  0  0  0  3  0  0  0  0  0  0
  188.5950  176.5330  141.3370 O   0  0  0  0  0  0  0  0  0  0  0  0
  188.0320  177.2510  136.3630 N   0  0  0  0  0  2  0  0  0  0  0  0
  189.9370  178.2880  140.2870 C   0  0  0  0  0  2  0  0  0  0  0  0
  189.6050  177.1980  138.1660 C   0  0  0  0  0  0  0  0  0  0  0  0
  188.2340  177.6160  142.1700 C   0  0  2  0  0  3  0  0  0  0  0  0
  184.3470  179.5810  140.3320 C   0  0  0  0  0  3  0  0  0  0  0  0
  185.4020  176.0310  137.5950 S   0  0  0  0  0  0  0  0  0  0  0  0
  184.6670  176.7520  136.0940 C   0  0  0  0  0  1  0  0  0  0  0  0
  191.9290  177.0980  141.8380 F   0  0  0  0  0  0  0  0  0  0  0  0
  190.6980  176.9650  142.4610 C   0  0  1  0  0  3  0  0  0  0  0  0
  191.2180  180.1280  143.9400 O   0  0  0  0  0  0  0  0  0  0  0  0
  190.6930  177.6400  143.7990 C   0  0  0  0  0  0  0  0  0  0  0  0
  190.9630  178.9190  143.8720 C   0  0  0  0  0  0  0  0  0  0  0  0
  190.4090  176.8430  145.0420 C   0  0  2  0  0  3  0  0  0  0  0  0
  192.8490  175.6380  147.6580 N   0  0  0  0  0  1  0  0  0  0  0  0
  191.6410  176.0090  147.0080 C   0  0  0  0  0  0  0  0  0  0  0  0
  189.3740  176.9340  147.3470 C   0  0  0  0  0  0  0  0  0  0  0  0
  187.7520  177.3850  145.2320 Cl  0  0  0  0  0  0  0  0  0  0  0  0
  189.3770  177.5280  145.9570 C   0  0  2  0  0  3  0  0  0  0  0  0
  188.5920  177.3540  148.1850 O   0  0  0  0  0  0  0  0  0  0  0  0
  190.3300  175.8340  147.7190 C   0  0  0  0  0  2  0  0  0  0  0  0
  191.6810  176.4880  145.7640 C   0  0  0  0  0  3  0  0  0  0  0  0
  1 11  2  0  0  0  0
  1  5  1  0  0  0  0
  2 13  1  0  0  0  0
  3 10  1  0  0  0  0
  4 15  2  0  0  0  0
  5 22  2  0  0  0  0
  7 20  2  0  0  0  0
  8 22  1  0  0  0  0
  8 12  1  0  0  0  0
  9  3  1  0  0  0  0
 10 19  1  0  0  0  0
 11  8  1  0  0  0  0
 12  6  1  0  0  0  0
 13 23  1  6  0  0  0
 13 11  1  0  0  0  0
 14 21  1  0  0  0  0
 14 26  1  1  0  0  0
 15 16  1  0  0  0  0
 15  7  1  0  0  0  0
 16  9  2  0  0  0  0
 17 14  1  0  0  0  0
 17 21  1  0  0  0  0
 18  2  1  0  0  0  0
 18  7  1  0  0  0  0
 19 14  1  0  0  0  0
 20 10  2  0  0  0  0
 21  6  1  6  0  0  0
 24 23  1  0  0  0  0
 26 25  1  6  0  0  0
 26 28  1  0  0  0  0
 28 29  2  0  0  0  0
 29 27  2  0  0  0  0
 30 28  1  6  0  0  0
 30 38  1  0  0  0  0
 30 35  1  0  0  0  0
 32 31  1  0  0  0  0
 32 37  1  0  0  0  0
 33 37  1  0  0  0  0
 33 36  2  0  0  0  0
 35 34  1  6  0  0  0
 35 33  1  0  0  0  0
 38 32  2  0  0  0  0
M  END
>  <MODEL>
4

>  <REMARK>
 VINA RESULT:      -6.7      2.930      5.331
  Name = 
  4 active torsions:
  status: ('A' for Active; 'I' for Inactive)
    1  A    between atoms: S_5  and  C_19
    2  A    between atoms: C_9  and  C_26
    3  A    between atoms: C_21  and  C_35
    4  A    between atoms: C_26  and  C_35
                            x       y       z     vdW  Elec       q    Type
                         _______ _______ _______ _____ _____    ______ ____

>  <TORSDO>
F 4

$$$$
=
 OpenBabel11042409583D

 38 42  0  0  1  0  0  0  0  0999 V2000
  182.4320  174.9130  135.3610 N   0  0  0  0  0  0  0  0  0  0  0  0
  185.0260  173.5800  134.6910 C   0  0  0  0  0  2  0  0  0  0  0  0
  189.9890  175.1470  134.7690 C   0  0  0  0  0  2  0  0  0  0  0  0
  188.4210  170.9390  134.5940 O   0  0  0  0  0  0  0  0  0  0  0  0
  181.6930  176.0080  135.6440 C   0  0  0  0  0  3  0  0  0  0  0  0
  185.6230  177.4760  136.8020 C   0  0  0  0  0  2  0  0  0  0  0  0
  187.5240  173.0900  134.9510 C   0  0  0  0  0  0  0  0  0  0  0  0
  183.5520  176.2050  136.7950 N   0  0  0  0  0  0  0  0  0  0  0  0
  190.6270  173.8000  135.1010 C   0  0  0  0  0  3  0  0  0  0  0  0
  188.6120  175.3460  135.3230 C   0  0  0  0  0  0  0  0  0  0  0  0
  183.5640  175.0720  136.0720 C   0  0  0  0  0  0  0  0  0  0  0  0
  184.6130  176.7200  137.6460 C   0  0  0  0  0  2  0  0  0  0  0  0
  184.6850  174.0740  136.0960 C   0  0  1  0  0  3  0  0  0  0  0  0
  188.1310  177.2780  136.8330 C   0  0  1  0  0  0  0  0  0  0  0  0
  188.6570  172.1500  134.8420 C   0  0  0  0  0  0  0  0  0  0  0  0
  190.0770  172.5610  135.0840 C   0  0  0  0  0  3  0  0  0  0  0  0
  187.5430  176.4400  137.7980 O   0  0  0  0  0  0  0  0  0  0  0  0
  186.1720  172.6780  134.7090 N   0  0  0  0  0  2  0  0  0  0  0  0
  188.0130  176.7060  135.4120 C   0  0  0  0  0  2  0  0  0  0  0  0
  187.8560  174.3160  135.1700 C   0  0  0  0  0  0  0  0  0  0  0  0
  186.9120  177.6860  137.5850 C   0  0  2  0  0  3  0  0  0  0  0  0
  182.3860  176.8150  136.5300 C   0  0  0  0  0  3  0  0  0  0  0  0
  184.3400  172.7110  137.2710 S   0  0  0  0  0  0  0  0  0  0  0  0
  183.3190  171.7290  136.1280 C   0  0  0  0  0  1  0  0  0  0  0  0
  189.3170  179.1910  137.6380 F   0  0  0  0  0  0  0  0  0  0  0  0
  189.4580  177.8490  137.3250 C   0  0  1  0  0  3  0  0  0  0  0  0
  190.8040  174.6880  138.1370 O   0  0  0  0  0  0  0  0  0  0  0  0
  189.9890  177.0740  138.4940 C   0  0  0  0  0  0  0  0  0  0  0  0
  190.4080  175.8470  138.3110 C   0  0  0  0  0  0  0  0  0  0  0  0
  190.0080  177.6960  139.8620 C   0  0  2  0  0  3  0  0  0  0  0  0
  187.1350  178.1510  142.2680 N   0  0  0  0  0  1  0  0  0  0  0  0
  188.4510  178.0460  141.7410 C   0  0  0  0  0  0  0  0  0  0  0  0
  190.7770  177.3810  142.2500 C   0  0  0  0  0  0  0  0  0  0  0  0
  192.6770  177.4790  140.3310 Cl  0  0  0  0  0  0  0  0  0  0  0  0
  191.0200  177.0170  140.8030 C   0  0  2  0  0  3  0  0  0  0  0  0
  191.5120  176.9400  143.1190 O   0  0  0  0  0  0  0  0  0  0  0  0
  189.6320  178.2760  142.6390 C   0  0  0  0  0  2  0  0  0  0  0  0
  188.6250  177.7670  140.4490 C   0  0  0  0  0  3  0  0  0  0  0  0
  1  5  1  0  0  0  0
  1 11  2  0  0  0  0
  2 18  1  0  0  0  0
  2 13  1  0  0  0  0
  3  9  1  0  0  0  0
  3 10  1  0  0  0  0
  4 15  2  0  0  0  0
  5 22  2  0  0  0  0
  6 12  1  0  0  0  0
  7 20  2  0  0  0  0
  8 12  1  0  0  0  0
 10 19  1  0  0  0  0
 11 13  1  0  0  0  0
 11  8  1  0  0  0  0
 13 23  1  1  0  0  0
 14 26  1  1  0  0  0
 14 21  1  0  0  0  0
 14 17  1  0  0  0  0
 15  7  1  0  0  0  0
 15 16  1  0  0  0  0
 16  9  2  0  0  0  0
 18  7  1  0  0  0  0
 19 14  1  0  0  0  0
 20 10  2  0  0  0  0
 21  6  1  6  0  0  0
 21 17  1  0  0  0  0
 22  8  1  0  0  0  0
 24 23  1  0  0  0  0
 26 25  1  1  0  0  0
 26 28  1  0  0  0  0
 27 29  2  0  0  0  0
 29 28  2  0  0  0  0
 30 28  1  6  0  0  0
 30 38  1  0  0  0  0
 30 35  1  0  0  0  0
 32 31  1  0  0  0  0
 32 37  1  0  0  0  0
 33 37  1  0  0  0  0
 33 36  2  0  0  0  0
 35 34  1  6  0  0  0
 35 33  1  0  0  0  0
 38 32  2  0  0  0  0
M  END
>  <MODEL>
5

>  <REMARK>
 VINA RESULT:      -6.6      3.907      6.972
  Name = 
  4 active torsions:
  status: ('A' for Active; 'I' for Inactive)
    1  A    between atoms: S_5  and  C_19
    2  A    between atoms: C_9  and  C_26
    3  A    between atoms: C_21  and  C_35
    4  A    between atoms: C_26  and  C_35
                            x       y       z     vdW  Elec       q    Type
                         _______ _______ _______ _____ _____    ______ ____

>  <TORSDO>
F 4

$$$$
=
 OpenBabel11042409583D

 38 42  0  0  1  0  0  0  0  0999 V2000
  179.9630  180.3920  140.5950 N   0  0  0  0  0  0  0  0  0  0  0  0
  182.2770  179.5900  138.8750 C   0  0  0  0  0  2  0  0  0  0  0  0
  187.2990  178.6230  139.8430 C   0  0  0  0  0  2  0  0  0  0  0  0
  184.9200  177.5010  136.2000 O   0  0  0  0  0  0  0  0  0  0  0  0
  179.4410  180.8420  141.7570 C   0  0  0  0  0  3  0  0  0  0  0  0
  183.2070  179.2370  143.2350 C   0  0  0  0  0  2  0  0  0  0  0  0
  184.4660  178.3790  138.3410 C   0  0  0  0  0  0  0  0  0  0  0  0
  180.9680  179.3600  142.3000 N   0  0  0  0  0  0  0  0  0  0  0  0
  187.5230  177.5760  138.7550 C   0  0  0  0  0  3  0  0  0  0  0  0
  185.9100  178.6660  140.4010 C   0  0  0  0  0  0  0  0  0  0  0  0
  180.8990  179.4980  140.9640 C   0  0  0  0  0  0  0  0  0  0  0  0
  181.8820  178.5180  143.0540 C   0  0  0  0  0  2  0  0  0  0  0  0
  181.7300  178.7070  139.9960 C   0  0  1  0  0  3  0  0  0  0  0  0
  185.5260  178.3410  142.8480 C   0  0  1  0  0  0  0  0  0  0  0  0
  185.3540  177.7230  137.3600 C   0  0  0  0  0  0  0  0  0  0  0  0
  186.7300  177.2430  137.7060 C   0  0  0  0  0  3  0  0  0  0  0  0
  184.5540  177.3520  142.6140 O   0  0  0  0  0  0  0  0  0  0  0  0
  183.1550  178.8370  137.9870 N   0  0  0  0  0  2  0  0  0  0  0  0
  185.6260  179.3490  141.6940 C   0  0  0  0  0  2  0  0  0  0  0  0
  185.0020  178.6020  139.4920 C   0  0  0  0  0  0  0  0  0  0  0  0
  184.2860  178.2540  143.6680 C   0  0  2  0  0  3  0  0  0  0  0  0
  180.0660  180.2070  142.8180 C   0  0  0  0  0  3  0  0  0  0  0  0
  180.8200  177.2430  139.3760 S   0  0  0  0  0  0  0  0  0  0  0  0
  182.0910  176.0220  139.8300 C   0  0  0  0  0  1  0  0  0  0  0  0
  187.9090  178.1670  142.7610 F   0  0  0  0  0  0  0  0  0  0  0  0
  186.7910  177.7450  143.4610 C   0  0  1  0  0  3  0  0  0  0  0  0
  185.3180  179.7960  145.9270 O   0  0  0  0  0  0  0  0  0  0  0  0
  186.9060  178.0800  144.9170 C   0  0  0  0  0  0  0  0  0  0  0  0
  186.0900  178.9630  145.4370 C   0  0  0  0  0  0  0  0  0  0  0  0
  187.9680  177.4280  145.7580 C   0  0  2  0  0  3  0  0  0  0  0  0
  191.5750  176.7570  144.8660 N   0  0  0  0  0  1  0  0  0  0  0  0
  190.3820  176.9480  145.6160 C   0  0  0  0  0  0  0  0  0  0  0  0
  189.4640  177.7290  147.7740 C   0  0  0  0  0  0  0  0  0  0  0  0
  186.7930  177.7820  148.1830 Cl  0  0  0  0  0  0  0  0  0  0  0  0
  188.1710  178.1400  147.1080 C   0  0  2  0  0  3  0  0  0  0  0  0
  189.7580  178.1900  148.8650 O   0  0  0  0  0  0  0  0  0  0  0  0
  190.4040  176.7630  147.1060 C   0  0  0  0  0  2  0  0  0  0  0  0
  189.2510  177.2670  144.9870 C   0  0  0  0  0  3  0  0  0  0  0  0
  1 11  2  0  0  0  0
  1  5  1  0  0  0  0
  2 13  1  0  0  0  0
  3 10  1  0  0  0  0
  4 15  2  0  0  0  0
  5 22  2  0  0  0  0
  7 20  2  0  0  0  0
  8 22  1  0  0  0  0
  8 12  1  0  0  0  0
  9  3  1  0  0  0  0
 10 19  1  0  0  0  0
 11  8  1  0  0  0  0
 12  6  1  0  0  0  0
 13 23  1  6  0  0  0
 13 11  1  0  0  0  0
 14 26  1  1  0  0  0
 14 21  1  0  0  0  0
 15 16  1  0  0  0  0
 15  7  1  0  0  0  0
 16  9  2  0  0  0  0
 17 14  1  0  0  0  0
 17 21  1  0  0  0  0
 18  7  1  0  0  0  0
 18  2  1  0  0  0  0
 19 14  1  0  0  0  0
 20 10  2  0  0  0  0
 21  6  1  6  0  0  0
 23 24  1  0  0  0  0
 26 25  1  6  0  0  0
 26 28  1  0  0  0  0
 28 29  2  0  0  0  0
 29 27  2  0  0  0  0
 30 28  1  6  0  0  0
 30 35  1  0  0  0  0
 31 32  1  0  0  0  0
 32 37  1  0  0  0  0
 33 36  2  0  0  0  0
 35 33  1  0  0  0  0
 35 34  1  1  0  0  0
 37 33  1  0  0  0  0
 38 32  2  0  0  0  0
 38 30  1  0  0  0  0
M  END
>  <MODEL>
6

>  <REMARK>
 VINA RESULT:      -6.4      2.593      5.053
  Name = 
  4 active torsions:
  status: ('A' for Active; 'I' for Inactive)
    1  A    between atoms: S_5  and  C_19
    2  A    between atoms: C_9  and  C_26
    3  A    between atoms: C_21  and  C_35
    4  A    between atoms: C_26  and  C_35
                            x       y       z     vdW  Elec       q    Type
                         _______ _______ _______ _____ _____    ______ ____

>  <TORSDO>
F 4

$$$$
=
 OpenBabel11042409583D

 38 42  0  0  1  0  0  0  0  0999 V2000
  184.1690  176.3440  136.8130 N   0  0  0  0  0  0  0  0  0  0  0  0
  182.1160  177.0150  138.8840 C   0  0  0  0  0  2  0  0  0  0  0  0
  182.3870  178.2800  143.9260 C   0  0  0  0  0  2  0  0  0  0  0  0
  178.9310  178.8570  141.1130 O   0  0  0  0  0  0  0  0  0  0  0  0
  185.4280  176.0210  136.4440 C   0  0  0  0  0  3  0  0  0  0  0  0
  186.2690  177.9340  140.2610 C   0  0  0  0  0  2  0  0  0  0  0  0
  181.1980  178.2320  140.9390 C   0  0  0  0  0  0  0  0  0  0  0  0
  185.6160  177.6140  137.9430 N   0  0  0  0  0  0  0  0  0  0  0  0
  181.1650  179.1940  143.9770 C   0  0  0  0  0  3  0  0  0  0  0  0
  183.1000  178.2540  142.6090 C   0  0  0  0  0  0  0  0  0  0  0  0
  184.3220  177.3110  137.7370 C   0  0  0  0  0  0  0  0  0  0  0  0
  186.1570  178.5760  138.8900 C   0  0  0  0  0  2  0  0  0  0  0  0
  183.1800  178.0080  138.4170 C   0  0  1  0  0  3  0  0  0  0  0  0
  185.5200  178.8620  142.4760 C   0  0  1  0  0  0  0  0  0  0  0  0
  180.0520  178.7960  141.6810 C   0  0  0  0  0  0  0  0  0  0  0  0
  180.1810  179.3650  143.0600 C   0  0  0  0  0  3  0  0  0  0  0  0
  185.2830  179.7770  141.4360 O   0  0  0  0  0  0  0  0  0  0  0  0
  181.0510  177.6850  139.6220 N   0  0  0  0  0  2  0  0  0  0  0  0
  184.4880  177.7250  142.5020 C   0  0  0  0  0  2  0  0  0  0  0  0
  182.2980  178.1720  141.6070 C   0  0  0  0  0  0  0  0  0  0  0  0
  186.4590  179.0030  141.3290 C   0  0  2  0  0  3  0  0  0  0  0  0
  186.3290  176.8030  137.1460 C   0  0  0  0  0  3  0  0  0  0  0  0
  182.4980  179.3490  137.3730 S   0  0  0  0  0  0  0  0  0  0  0  0
  182.5760  180.6440  138.6490 C   0  0  0  0  0  1  0  0  0  0  0  0
  184.9400  180.5010  144.1180 F   0  0  0  0  0  0  0  0  0  0  0  0
  185.9100  179.5760  143.7680 C   0  0  1  0  0  3  0  0  0  0  0  0
  184.5590  178.5540  146.8650 O   0  0  0  0  0  0  0  0  0  0  0  0
  186.1550  178.6020  144.8810 C   0  0  0  0  0  0  0  0  0  0  0  0
  185.3350  178.5770  145.9010 C   0  0  0  0  0  0  0  0  0  0  0  0
  187.3470  177.6880  144.8320 C   0  0  2  0  0  3  0  0  0  0  0  0
  189.8280  177.2260  142.0240 N   0  0  0  0  0  1  0  0  0  0  0  0
  189.2280  177.2060  143.3130 C   0  0  0  0  0  0  0  0  0  0  0  0
  189.6730  177.2960  145.7420 C   0  0  0  0  0  0  0  0  0  0  0  0
  187.6260  177.2960  147.5070 Cl  0  0  0  0  0  0  0  0  0  0  0  0
  188.3260  177.9330  145.9950 C   0  0  2  0  0  3  0  0  0  0  0  0
  190.5530  177.3810  146.5840 O   0  0  0  0  0  0  0  0  0  0  0  0
  189.9520  176.5610  144.4590 C   0  0  0  0  0  2  0  0  0  0  0  0
  188.0190  177.7390  143.4860 C   0  0  0  0  0  3  0  0  0  0  0  0
  1 11  2  0  0  0  0
  2 18  1  0  0  0  0
  3  9  1  0  0  0  0
  4 15  2  0  0  0  0
  5  1  1  0  0  0  0
  5 22  2  0  0  0  0
  7 20  2  0  0  0  0
  7 15  1  0  0  0  0
  8 12  1  0  0  0  0
 10  3  1  0  0  0  0
 11  8  1  0  0  0  0
 11 13  1  0  0  0  0
 12  6  1  0  0  0  0
 13 23  1  6  0  0  0
 13  2  1  0  0  0  0
 14 19  1  0  0  0  0
 14 26  1  1  0  0  0
 15 16  1  0  0  0  0
 16  9  2  0  0  0  0
 17 14  1  0  0  0  0
 18  7  1  0  0  0  0
 19 10  1  0  0  0  0
 20 10  2  0  0  0  0
 21  6  1  6  0  0  0
 21 17  1  0  0  0  0
 21 14  1  0  0  0  0
 22  8  1  0  0  0  0
 23 24  1  0  0  0  0
 26 25  1  1  0  0  0
 26 28  1  0  0  0  0
 28 29  2  0  0  0  0
 29 27  2  0  0  0  0
 30 28  1  6  0  0  0
 30 35  1  0  0  0  0
 31 32  1  0  0  0  0
 32 38  2  0  0  0  0
 32 37  1  0  0  0  0
 33 35  1  0  0  0  0
 33 36  2  0  0  0  0
 35 34  1  1  0  0  0
 37 33  1  0  0  0  0
 38 30  1  0  0  0  0
M  END
>  <MODEL>
7

>  <REMARK>
 VINA RESULT:      -6.4      2.360      3.369
  Name = 
  4 active torsions:
  status: ('A' for Active; 'I' for Inactive)
    1  A    between atoms: S_5  and  C_19
    2  A    between atoms: C_9  and  C_26
    3  A    between atoms: C_21  and  C_35
    4  A    between atoms: C_26  and  C_35
                            x       y       z     vdW  Elec       q    Type
                         _______ _______ _______ _____ _____    ______ ____

>  <TORSDO>
F 4

$$$$
=
 OpenBabel11042409583D

 38 42  0  0  1  0  0  0  0  0999 V2000
  182.1610  179.3690  141.0080 N   0  0  0  0  0  0  0  0  0  0  0  0
  184.2410  178.8880  138.9110 C   0  0  0  0  0  2  0  0  0  0  0  0
  189.4230  178.4180  139.0400 C   0  0  0  0  0  2  0  0  0  0  0  0
  186.6180  177.2010  135.7470 O   0  0  0  0  0  0  0  0  0  0  0  0
  181.7890  179.7130  142.2610 C   0  0  0  0  0  3  0  0  0  0  0  0
  185.8800  178.4560  143.0490 C   0  0  0  0  0  2  0  0  0  0  0  0
  186.4260  177.9380  137.9790 C   0  0  0  0  0  0  0  0  0  0  0  0
  183.5200  178.3800  142.4780 N   0  0  0  0  0  0  0  0  0  0  0  0
  189.5730  177.4460  137.8730 C   0  0  0  0  0  3  0  0  0  0  0  0
  188.1420  178.2910  139.8060 C   0  0  0  0  0  0  0  0  0  0  0  0
  183.2270  178.5650  141.1780 C   0  0  0  0  0  0  0  0  0  0  0  0
  184.6210  177.6090  143.0330 C   0  0  0  0  0  2  0  0  0  0  0  0
  183.9680  177.9060  140.0510 C   0  0  1  0  0  3  0  0  0  0  0  0
  188.1850  177.8270  142.2610 C   0  0  1  0  0  0  0  0  0  0  0  0
  187.2070  177.4200  136.8380 C   0  0  0  0  0  0  0  0  0  0  0  0
  188.6610  177.0750  136.9410 C   0  0  0  0  0  3  0  0  0  0  0  0
  187.2900  176.7520  142.1230 O   0  0  0  0  0  0  0  0  0  0  0  0
  185.0370  178.2690  137.8580 N   0  0  0  0  0  2  0  0  0  0  0  0
  188.0010  178.8860  141.1640 C   0  0  0  0  0  2  0  0  0  0  0  0
  187.1130  178.1690  139.0450 C   0  0  0  0  0  0  0  0  0  0  0  0
  187.1050  177.5760  143.2550 C   0  0  2  0  0  3  0  0  0  0  0  0
  182.6330  179.1050  143.1760 C   0  0  0  0  0  3  0  0  0  0  0  0
  183.1180  176.3820  139.4940 S   0  0  0  0  0  0  0  0  0  0  0  0
  181.8460  177.2230  138.5020 C   0  0  0  0  0  1  0  0  0  0  0  0
  190.4720  177.5910  141.6030 F   0  0  0  0  0  0  0  0  0  0  0  0
  189.5830  177.3430  142.6370 C   0  0  1  0  0  3  0  0  0  0  0  0
  191.0460  180.3120  143.8640 O   0  0  0  0  0  0  0  0  0  0  0  0
  190.0550  177.9670  143.9160 C   0  0  0  0  0  0  0  0  0  0  0  0
  190.5640  179.1730  143.8890 C   0  0  0  0  0  0  0  0  0  0  0  0
  189.9660  177.1990  145.2050 C   0  0  2  0  0  3  0  0  0  0  0  0
  192.7760  175.7220  147.2480 N   0  0  0  0  0  1  0  0  0  0  0  0
  191.5010  176.2250  146.8700 C   0  0  0  0  0  0  0  0  0  0  0  0
  189.4750  177.3870  147.6780 C   0  0  0  0  0  0  0  0  0  0  0  0
  187.4880  178.0230  145.9600 Cl  0  0  0  0  0  0  0  0  0  0  0  0
  189.2370  177.9850  146.3100 C   0  0  2  0  0  3  0  0  0  0  0  0
  188.9440  177.8840  148.6590 O   0  0  0  0  0  0  0  0  0  0  0  0
  190.3670  176.1880  147.8520 C   0  0  0  0  0  2  0  0  0  0  0  0
  191.3190  176.7040  145.6390 C   0  0  0  0  0  3  0  0  0  0  0  0
  1 11  2  0  0  0  0
  1  5  1  0  0  0  0
  2 13  1  0  0  0  0
  3 10  1  0  0  0  0
  4 15  2  0  0  0  0
  5 22  2  0  0  0  0
  7 20  2  0  0  0  0
  8 12  1  0  0  0  0
  8 22  1  0  0  0  0
  9  3  1  0  0  0  0
 10 19  1  0  0  0  0
 11  8  1  0  0  0  0
 12  6  1  0  0  0  0
 13 23  1  6  0  0  0
 13 11  1  0  0  0  0
 14 26  1  1  0  0  0
 14 21  1  0  0  0  0
 15 16  1  0  0  0  0
 15  7  1  0  0  0  0
 16  9  2  0  0  0  0
 17 14  1  0  0  0  0
 17 21  1  0  0  0  0
 18  7  1  0  0  0  0
 18  2  1  0  0  0  0
 19 14  1  0  0  0  0
 20 10  2  0  0  0  0
 21  6  1  6  0  0  0
 24 23  1  0  0  0  0
 26 25  1  6  0  0  0
 26 28  1  0  0  0  0
 27 29  2  0  0  0  0
 29 28  2  0  0  0  0
 30 28  1  6  0  0  0
 30 38  1  0  0  0  0
 30 35  1  0  0  0  0
 32 31  1  0  0  0  0
 32 37  1  0  0  0  0
 33 37  1  0  0  0  0
 33 36  2  0  0  0  0
 35 34  1  6  0  0  0
 35 33  1  0  0  0  0
 38 32  2  0  0  0  0
M  END
>  <MODEL>
8

>  <REMARK>
 VINA RESULT:      -6.4      2.283      4.742
  Name = 
  4 active torsions:
  status: ('A' for Active; 'I' for Inactive)
    1  A    between atoms: S_5  and  C_19
    2  A    between atoms: C_9  and  C_26
    3  A    between atoms: C_21  and  C_35
    4  A    between atoms: C_26  and  C_35
                            x       y       z     vdW  Elec       q    Type
                         _______ _______ _______ _____ _____    ______ ____

>  <TORSDO>
F 4

$$$$
=
 OpenBabel11042409583D

 38 42  0  0  1  0  0  0  0  0999 V2000
  183.7010  179.6060  138.3400 N   0  0  0  0  0  0  0  0  0  0  0  0
  186.4070  178.5820  137.5770 C   0  0  0  0  0  2  0  0  0  0  0  0
  190.7310  177.5190  140.2720 C   0  0  0  0  0  2  0  0  0  0  0  0
  189.6670  176.1860  136.1150 O   0  0  0  0  0  0  0  0  0  0  0  0
  182.8440  180.1690  139.2210 C   0  0  0  0  0  3  0  0  0  0  0  0
  185.7770  178.5570  142.0040 C   0  0  0  0  0  2  0  0  0  0  0  0
  188.5680  177.2540  137.9070 C   0  0  0  0  0  0  0  0  0  0  0  0
  184.0010  178.6830  140.3510 N   0  0  0  0  0  0  0  0  0  0  0  0
  191.2460  176.3780  139.3980 C   0  0  0  0  0  3  0  0  0  0  0  0
  189.2400  177.6580  140.3140 C   0  0  0  0  0  0  0  0  0  0  0  0
  184.3990  178.7130  139.0670 C   0  0  0  0  0  0  0  0  0  0  0  0
  184.5500  177.8740  141.4260 C   0  0  0  0  0  2  0  0  0  0  0  0
  185.4580  177.8150  138.4970 C   0  0  1  0  0  3  0  0  0  0  0  0
  188.0290  177.5500  142.4970 C   0  0  1  0  0  0  0  0  0  0  0  0
  189.6940  176.4870  137.3370 C   0  0  0  0  0  0  0  0  0  0  0  0
  190.8380  175.9880  138.1650 C   0  0  0  0  0  3  0  0  0  0  0  0
  187.1350  176.5810  142.0080 O   0  0  0  0  0  0  0  0  0  0  0  0
  187.4860  177.7280  137.0960 N   0  0  0  0  0  2  0  0  0  0  0  0
  188.5770  178.4540  141.3830 C   0  0  0  0  0  2  0  0  0  0  0  0
  188.6940  177.5510  139.1550 C   0  0  0  0  0  0  0  0  0  0  0  0
  186.5810  177.5750  142.8450 C   0  0  2  0  0  3  0  0  0  0  0  0
  183.0300  179.6020  140.4710 C   0  0  0  0  0  3  0  0  0  0  0  0
  184.7240  176.3390  137.6980 S   0  0  0  0  0  0  0  0  0  0  0  0
  184.3780  177.1390  136.1000 C   0  0  0  0  0  1  0  0  0  0  0  0
  189.9930  176.2560  142.9290 F   0  0  0  0  0  0  0  0  0  0  0  0
  188.9710  176.9610  143.5440 C   0  0  1  0  0  3  0  0  0  0  0  0
  191.5300  179.3880  143.6980 O   0  0  0  0  0  0  0  0  0  0  0  0
  189.5160  178.0230  144.4510 C   0  0  0  0  0  0  0  0  0  0  0  0
  190.5510  178.7240  144.0640 C   0  0  0  0  0  0  0  0  0  0  0  0
  188.8920  178.2530  145.7990 C   0  0  2  0  0  3  0  0  0  0  0  0
  185.2780  178.9790  146.6130 N   0  0  0  0  0  1  0  0  0  0  0  0
  186.6420  178.6000  146.7450 C   0  0  0  0  0  0  0  0  0  0  0  0
  188.2170  177.1390  147.9670 C   0  0  0  0  0  0  0  0  0  0  0  0
  190.8390  177.1060  147.3100 Cl  0  0  0  0  0  0  0  0  0  0  0  0
  189.1390  177.0830  146.7700 C   0  0  2  0  0  3  0  0  0  0  0  0
  188.3060  176.2920  148.8410 O   0  0  0  0  0  0  0  0  0  0  0  0
  187.1820  178.2230  148.0940 C   0  0  0  0  0  2  0  0  0  0  0  0
  187.4350  178.6060  145.6730 C   0  0  0  0  0  3  0  0  0  0  0  0
  1 11  2  0  0  0  0
  1  5  1  0  0  0  0
  2 13  1  0  0  0  0
  3 10  1  0  0  0  0
  4 15  2  0  0  0  0
  5 22  2  0  0  0  0
  7 20  2  0  0  0  0
  8 22  1  0  0  0  0
  8 12  1  0  0  0  0
  9  3  1  0  0  0  0
 10 19  1  0  0  0  0
 11  8  1  0  0  0  0
 12  6  1  0  0  0  0
 13 23  1  6  0  0  0
 13 11  1  0  0  0  0
 14 21  1  0  0  0  0
 14 26  1  1  0  0  0
 15  7  1  0  0  0  0
 15 16  1  0  0  0  0
 16  9  2  0  0  0  0
 17 14  1  0  0  0  0
 17 21  1  0  0  0  0
 18  2  1  0  0  0  0
 18  7  1  0  0  0  0
 19 14  1  0  0  0  0
 20 10  2  0  0  0  0
 21  6  1  6  0  0  0
 24 23  1  0  0  0  0
 26 25  1  6  0  0  0
 26 28  1  0  0  0  0
 27 29  2  0  0  0  0
 29 28  2  0  0  0  0
 30 28  1  6  0  0  0
 30 35  1  0  0  0  0
 31 32  1  0  0  0  0
 32 37  1  0  0  0  0
 33 37  1  0  0  0  0
 33 36  2  0  0  0  0
 35 34  1  1  0  0  0
 35 33  1  0  0  0  0
 38 30  1  0  0  0  0
 38 32  2  0  0  0  0
M  END
>  <MODEL>
9

>  <REMARK>
 VINA RESULT:      -6.3      2.413      4.765
  Name = 
  4 active torsions:
  status: ('A' for Active; 'I' for Inactive)
    1  A    between atoms: S_5  and  C_19
    2  A    between atoms: C_9  and  C_26
    3  A    between atoms: C_21  and  C_35
    4  A    between atoms: C_26  and  C_35
                            x       y       z     vdW  Elec       q    Type
                         _______ _______ _______ _____ _____    ______ ____

>  <TORSDO>
F 4

$$$$
