=
 OpenBabel11032419263D

 30 34  0  0  1  0  0  0  0  0999 V2000
  186.8070  178.8420  147.2580 C   0  0  0  0  0  1  0  0  0  0  0  0
  188.6760  177.6950  146.0360 C   0  0  0  0  0  0  0  0  0  0  0  0
  189.6220  176.2600  138.4910 C   0  0  0  0  0  2  0  0  0  0  0  0
  190.4390  176.4980  147.1510 N   0  0  0  0  0  0  0  0  0  0  0  0
  186.7130  178.7100  141.3380 N   0  0  0  0  0  2  0  0  0  0  0  0
  190.4510  175.7700  140.7740 O   0  0  0  0  0  0  0  0  0  0  0  0
  186.1870  177.0440  144.0240 C   0  0  0  0  0  2  0  0  0  0  0  0
  187.9130  178.8560  139.3020 C   0  0  0  0  0  0  0  0  0  0  0  0
  186.2870  177.1000  145.5390 C   0  0  0  0  0  2  0  0  0  0  0  0
  186.8100  178.6130  139.9430 N   0  0  0  0  0  0  0  0  0  0  0  0
  188.2760  176.4480  148.0540 F   0  0  0  0  0  0  0  0  0  0  0  0
  191.9860  178.3000  143.8740 S   0  0  0  0  0  0  0  0  0  0  0  0
  187.2570  178.1930  145.9620 C   0  0  1  0  0  3  0  0  0  0  0  0
  185.4870  178.2890  143.4980 C   0  0  0  0  0  2  0  0  0  0  0  0
  189.5990  178.0490  145.0420 C   0  0  0  0  0  0  0  0  0  0  0  0
  188.1230  176.0930  138.2700 C   0  0  0  0  0  2  0  0  0  0  0  0
  189.1300  176.8730  147.0910 C   0  0  0  0  0  0  0  0  0  0  0  0
  185.5260  178.2990  142.0120 C   0  0  0  0  0  0  0  0  0  0  0  0
  189.7700  177.8390  140.5530 C   0  0  0  0  0  0  0  0  0  0  0  0
  190.2920  177.6280  141.8110 C   0  0  0  0  0  0  0  0  0  0  0  0
  190.9230  177.6960  145.1590 C   0  0  0  0  0  0  0  0  0  0  0  0
  189.2680  178.7830  143.7910 C   0  0  0  0  0  2  0  0  0  0  0  0
  187.5480  177.2340  137.4250 C   0  0  0  0  0  2  0  0  0  0  0  0
  191.3460  176.8970  146.2170 C   0  0  0  0  0  3  0  0  0  0  0  0
  189.9300  176.6150  139.9150 C   0  0  0  0  0  0  0  0  0  0  0  0
  188.0030  178.5280  137.9190 N   0  0  0  0  0  2  0  0  0  0  0  0
  189.1940  179.1230  140.0260 C   0  0  0  0  0  2  0  0  0  0  0  0
  190.4910  178.6720  142.8730 C   0  0  1  0  0  3  0  0  0  0  0  0
  190.6810  176.3410  141.9220 N   0  0  0  0  0  0  0  0  0  0  0  0
  184.5250  177.9040  141.3590 O   0  0  0  0  0  0  0  0  0  0  0  0
  2 17  1  0  0  0  0
  3 25  1  0  0  0  0
  5 18  1  0  0  0  0
  6 29  1  0  0  0  0
  7  9  1  0  0  0  0
  8 10  2  0  0  0  0
  8 27  1  0  0  0  0
  9 13  1  0  0  0  0
 10  5  1  0  0  0  0
 12 21  1  0  0  0  0
 13  2  1  0  0  0  0
 13  1  1  1  0  0  0
 14  7  1  0  0  0  0
 15 21  1  0  0  0  0
 15  2  2  0  0  0  0
 16  3  1  0  0  0  0
 17  4  2  0  0  0  0
 17 11  1  0  0  0  0
 18 14  1  0  0  0  0
 19 20  1  0  0  0  0
 20 29  2  0  0  0  0
 20 28  1  0  0  0  0
 21 24  2  0  0  0  0
 22 15  1  0  0  0  0
 23 26  1  0  0  0  0
 23 16  1  0  0  0  0
 24  4  1  0  0  0  0
 25 19  2  0  0  0  0
 25  6  1  0  0  0  0
 26  8  1  0  0  0  0
 27 19  1  0  0  0  0
 28 22  1  1  0  0  0
 28 12  1  0  0  0  0
 30 18  2  0  0  0  0
M  END
>  <MODEL>
1

>  <REMARK>
 VINA RESULT:      -7.7      0.000      0.000
  Name = 
  0 active torsions:
  status: ('A' for Active; 'I' for Inactive)
                            x       y       z     vdW  Elec       q    Type
                         _______ _______ _______ _____ _____    ______ ____

>  <TORSDO>
F 0

$$$$
=
 OpenBabel11032419263D

 30 34  0  0  1  0  0  0  0  0999 V2000
  192.1460  177.8780  140.0400 C   0  0  0  0  0  1  0  0  0  0  0  0
  190.5050  176.8600  138.4350 C   0  0  0  0  0  0  0  0  0  0  0  0
  182.7670  176.8410  138.4840 C   0  0  0  0  0  2  0  0  0  0  0  0
  191.1480  175.3520  136.6750 N   0  0  0  0  0  0  0  0  0  0  0  0
  186.3630  178.8940  140.8140 N   0  0  0  0  0  2  0  0  0  0  0  0
  184.7970  175.8650  137.4520 O   0  0  0  0  0  0  0  0  0  0  0  0
  188.7440  176.7830  141.1850 C   0  0  0  0  0  2  0  0  0  0  0  0
  184.2510  179.3450  139.8430 C   0  0  0  0  0  0  0  0  0  0  0  0
  190.2190  176.5390  140.9100 C   0  0  0  0  0  2  0  0  0  0  0  0
  184.9730  179.0600  140.8850 N   0  0  0  0  0  0  0  0  0  0  0  0
  192.2960  175.2780  138.7180 F   0  0  0  0  0  0  0  0  0  0  0  0
  188.0830  177.6380  135.3490 S   0  0  0  0  0  0  0  0  0  0  0  0
  190.7060  177.4600  139.8010 C   0  0  1  0  0  3  0  0  0  0  0  0
  188.5490  178.1510  141.8220 C   0  0  0  0  0  2  0  0  0  0  0  0
  189.4820  177.3340  137.6020 C   0  0  0  0  0  0  0  0  0  0  0  0
  182.7140  176.8250  140.0080 C   0  0  0  0  0  2  0  0  0  0  0  0
  191.3250  175.8210  137.9430 C   0  0  0  0  0  0  0  0  0  0  0  0
  187.0980  178.4440  141.9510 C   0  0  0  0  0  0  0  0  0  0  0  0
  185.0460  177.9800  137.9600 C   0  0  0  0  0  0  0  0  0  0  0  0
  186.1670  177.4950  137.3200 C   0  0  0  0  0  0  0  0  0  0  0  0
  189.3620  176.8740  136.3110 C   0  0  0  0  0  0  0  0  0  0  0  0
  188.4390  178.3160  138.0030 C   0  0  0  0  0  2  0  0  0  0  0  0
  182.1720  178.1440  140.5670 C   0  0  0  0  0  2  0  0  0  0  0  0
  190.1930  175.8580  135.8470 C   0  0  0  0  0  3  0  0  0  0  0  0
  184.1800  176.8930  137.9870 C   0  0  0  0  0  0  0  0  0  0  0  0
  182.8310  179.2840  139.9410 N   0  0  0  0  0  2  0  0  0  0  0  0
  184.8410  179.3780  138.4700 C   0  0  0  0  0  2  0  0  0  0  0  0
  187.3670  178.2990  136.9070 C   0  0  1  0  0  3  0  0  0  0  0  0
  185.9900  176.1870  137.0420 N   0  0  0  0  0  0  0  0  0  0  0  0
  186.5170  178.2530  143.0510 O   0  0  0  0  0  0  0  0  0  0  0  0
  2 13  1  0  0  0  0
  3 16  1  0  0  0  0
  4 17  2  0  0  0  0
  5 10  1  0  0  0  0
  5 18  1  0  0  0  0
  6 25  1  0  0  0  0
  7 14  1  0  0  0  0
  8 26  1  0  0  0  0
  8 10  2  0  0  0  0
  9  7  1  0  0  0  0
 12 21  1  0  0  0  0
 12 28  1  0  0  0  0
 13  1  1  1  0  0  0
 13  9  1  0  0  0  0
 14 18  1  0  0  0  0
 15 22  1  0  0  0  0
 15  2  2  0  0  0  0
 16 23  1  0  0  0  0
 17  2  1  0  0  0  0
 17 11  1  0  0  0  0
 18 30  2  0  0  0  0
 19 25  2  0  0  0  0
 19 27  1  0  0  0  0
 20 19  1  0  0  0  0
 21 15  1  0  0  0  0
 24 21  2  0  0  0  0
 24  4  1  0  0  0  0
 25  3  1  0  0  0  0
 26 23  1  0  0  0  0
 27  8  1  0  0  0  0
 28 20  1  0  0  0  0
 28 22  1  1  0  0  0
 29 20  2  0  0  0  0
 29  6  1  0  0  0  0
M  END
>  <MODEL>
2

>  <REMARK>
 VINA RESULT:      -6.8      4.222      6.763
  Name = 
  0 active torsions:
  status: ('A' for Active; 'I' for Inactive)
                            x       y       z     vdW  Elec       q    Type
                         _______ _______ _______ _____ _____    ______ ____

>  <TORSDO>
F 0

$$$$
=
 OpenBabel11032419263D

 30 34  0  0  1  0  0  0  0  0999 V2000
  190.1300  178.5740  143.3730 C   0  0  0  0  0  1  0  0  0  0  0  0
  189.5350  177.4720  141.1960 C   0  0  0  0  0  0  0  0  0  0  0  0
  182.7000  176.6890  137.6530 C   0  0  0  0  0  2  0  0  0  0  0  0
  191.0760  176.1140  139.9440 N   0  0  0  0  0  0  0  0  0  0  0  0
  184.5700  178.9810  141.3710 N   0  0  0  0  0  2  0  0  0  0  0  0
  185.0690  175.9640  137.6860 O   0  0  0  0  0  0  0  0  0  0  0  0
  186.7240  177.1000  142.8170 C   0  0  0  0  0  2  0  0  0  0  0  0
  183.1100  179.2640  139.5300 C   0  0  0  0  0  0  0  0  0  0  0  0
  188.1760  177.0150  143.2580 C   0  0  0  0  0  2  0  0  0  0  0  0
  183.2950  179.0060  140.7890 N   0  0  0  0  0  0  0  0  0  0  0  0
  191.1520  176.0630  142.2880 F   0  0  0  0  0  0  0  0  0  0  0  0
  188.7420  178.1440  137.3340 S   0  0  0  0  0  0  0  0  0  0  0  0
  189.0170  178.0280  142.4960 C   0  0  1  0  0  3  0  0  0  0  0  0
  186.1100  178.4130  143.2820 C   0  0  0  0  0  2  0  0  0  0  0  0
  188.9670  177.8790  139.9810 C   0  0  0  0  0  0  0  0  0  0  0  0
  181.9520  176.6000  138.9790 C   0  0  0  0  0  2  0  0  0  0  0  0
  190.5960  176.5410  141.1470 C   0  0  0  0  0  0  0  0  0  0  0  0
  184.7410  178.5550  142.7220 C   0  0  0  0  0  0  0  0  0  0  0  0
  184.8260  178.0690  138.2370 C   0  0  0  0  0  0  0  0  0  0  0  0
  186.1610  177.7260  138.1940 C   0  0  0  0  0  0  0  0  0  0  0  0
  189.5070  177.4680  138.7840 C   0  0  0  0  0  0  0  0  0  0  0  0
  187.7580  178.7350  139.8460 C   0  0  0  0  0  2  0  0  0  0  0  0
  181.0750  177.8340  139.2150 C   0  0  0  0  0  2  0  0  0  0  0  0
  190.5630  176.5600  138.7650 C   0  0  0  0  0  3  0  0  0  0  0  0
  184.1690  176.9020  137.8670 C   0  0  0  0  0  0  0  0  0  0  0  0
  181.8210  179.0590  138.9580 N   0  0  0  0  0  2  0  0  0  0  0  0
  184.2600  179.4160  138.5860 C   0  0  0  0  0  2  0  0  0  0  0  0
  187.3220  178.6610  138.3790 C   0  0  1  0  0  3  0  0  0  0  0  0
  186.2750  176.4200  137.8730 N   0  0  0  0  0  0  0  0  0  0  0  0
  183.7430  178.2590  143.4290 O   0  0  0  0  0  0  0  0  0  0  0  0
  2 13  1  0  0  0  0
  3 25  1  0  0  0  0
  3 16  1  0  0  0  0
  4 17  2  0  0  0  0
  5 18  1  0  0  0  0
  6 25  1  0  0  0  0
  6 29  1  0  0  0  0
  7  9  1  0  0  0  0
  7 14  1  0  0  0  0
  8 10  2  0  0  0  0
 10  5  1  0  0  0  0
 12 28  1  0  0  0  0
 12 21  1  0  0  0  0
 13  9  1  0  0  0  0
 13  1  1  1  0  0  0
 15  2  2  0  0  0  0
 16 23  1  0  0  0  0
 17  2  1  0  0  0  0
 17 11  1  0  0  0  0
 18 14  1  0  0  0  0
 18 30  2  0  0  0  0
 19 27  1  0  0  0  0
 20 19  1  0  0  0  0
 20 28  1  0  0  0  0
 21 15  1  0  0  0  0
 22 15  1  0  0  0  0
 24 21  2  0  0  0  0
 24  4  1  0  0  0  0
 25 19  2  0  0  0  0
 26 23  1  0  0  0  0
 26  8  1  0  0  0  0
 27  8  1  0  0  0  0
 28 22  1  1  0  0  0
 29 20  2  0  0  0  0
M  END
>  <MODEL>
3

>  <REMARK>
 VINA RESULT:      -6.4      3.250      5.333
  Name = 
  0 active torsions:
  status: ('A' for Active; 'I' for Inactive)
                            x       y       z     vdW  Elec       q    Type
                         _______ _______ _______ _____ _____    ______ ____

>  <TORSDO>
F 0

$$$$
=
 OpenBabel11032419263D

 30 34  0  0  1  0  0  0  0  0999 V2000
  183.2780  179.8330  139.2380 C   0  0  0  0  0  1  0  0  0  0  0  0
  185.0860  178.1660  138.7300 C   0  0  0  0  0  0  0  0  0  0  0  0
  184.6550  170.9780  135.8980 C   0  0  0  0  0  2  0  0  0  0  0  0
  187.3770  178.4660  139.3970 N   0  0  0  0  0  0  0  0  0  0  0  0
  181.8230  174.7240  136.6180 N   0  0  0  0  0  2  0  0  0  0  0  0
  186.1270  172.6540  136.9770 O   0  0  0  0  0  0  0  0  0  0  0  0
  182.6060  176.1440  139.3810 C   0  0  0  0  0  2  0  0  0  0  0  0
  182.3610  173.0520  135.0310 C   0  0  0  0  0  0  0  0  0  0  0  0
  183.0380  177.4620  140.0020 C   0  0  0  0  0  2  0  0  0  0  0  0
  181.6110  173.4840  136.0000 N   0  0  0  0  0  0  0  0  0  0  0  0
  185.6680  179.2360  140.8060 F   0  0  0  0  0  0  0  0  0  0  0  0
  187.3210  176.6000  135.8060 S   0  0  0  0  0  0  0  0  0  0  0  0
  183.6100  178.3820  138.9340 C   0  0  1  0  0  3  0  0  0  0  0  0
  181.3940  176.3580  138.4870 C   0  0  0  0  0  2  0  0  0  0  0  0
  185.5470  177.4940  137.5900 C   0  0  0  0  0  0  0  0  0  0  0  0
  183.3160  170.7220  136.5800 C   0  0  0  0  0  2  0  0  0  0  0  0
  186.0480  178.6270  139.6550 C   0  0  0  0  0  0  0  0  0  0  0  0
  181.0690  175.0980  137.7690 C   0  0  0  0  0  0  0  0  0  0  0  0
  184.7020  173.5600  135.5820 C   0  0  0  0  0  0  0  0  0  0  0  0
  185.5500  174.5140  136.1020 C   0  0  0  0  0  0  0  0  0  0  0  0
  186.8950  177.3910  137.3350 C   0  0  0  0  0  0  0  0  0  0  0  0
  184.6810  176.8180  136.5870 C   0  0  0  0  0  2  0  0  0  0  0  0
  182.1780  170.6080  135.5610 C   0  0  0  0  0  2  0  0  0  0  0  0
  187.8220  177.8680  138.2580 C   0  0  0  0  0  3  0  0  0  0  0  0
  185.1420  172.3730  136.1550 C   0  0  0  0  0  0  0  0  0  0  0  0
  182.2300  171.7010  134.5970 N   0  0  0  0  0  2  0  0  0  0  0  0
  183.5880  173.7920  134.6020 C   0  0  0  0  0  2  0  0  0  0  0  0
  185.6000  175.9620  135.7090 C   0  0  1  0  0  3  0  0  0  0  0  0
  186.3990  173.9280  136.9730 N   0  0  0  0  0  0  0  0  0  0  0  0
  180.1580  174.3470  138.2060 O   0  0  0  0  0  0  0  0  0  0  0  0
  2 13  1  0  0  0  0
  2 17  1  0  0  0  0
  3 25  1  0  0  0  0
  3 16  1  0  0  0  0
  4 17  2  0  0  0  0
  5 18  1  0  0  0  0
  7  9  1  0  0  0  0
  8 10  2  0  0  0  0
 10  5  1  0  0  0  0
 12 21  1  0  0  0  0
 13  1  1  1  0  0  0
 13  9  1  0  0  0  0
 14  7  1  0  0  0  0
 15  2  2  0  0  0  0
 17 11  1  0  0  0  0
 18 30  2  0  0  0  0
 18 14  1  0  0  0  0
 19 20  1  0  0  0  0
 19 25  2  0  0  0  0
 20 29  2  0  0  0  0
 21 15  1  0  0  0  0
 21 24  2  0  0  0  0
 22 15  1  0  0  0  0
 23 16  1  0  0  0  0
 24  4  1  0  0  0  0
 25  6  1  0  0  0  0
 26  8  1  0  0  0  0
 26 23  1  0  0  0  0
 27  8  1  0  0  0  0
 27 19  1  0  0  0  0
 28 12  1  0  0  0  0
 28 20  1  0  0  0  0
 28 22  1  1  0  0  0
 29  6  1  0  0  0  0
M  END
>  <MODEL>
4

>  <REMARK>
 VINA RESULT:      -6.4      5.700      8.098
  Name = 
  0 active torsions:
  status: ('A' for Active; 'I' for Inactive)
                            x       y       z     vdW  Elec       q    Type
                         _______ _______ _______ _____ _____    ______ ____

>  <TORSDO>
F 0

$$$$
=
 OpenBabel11032419263D

 30 34  0  0  1  0  0  0  0  0999 V2000
  185.1840  179.6870  144.0860 C   0  0  0  0  0  1  0  0  0  0  0  0
  186.9430  178.0940  143.2670 C   0  0  0  0  0  0  0  0  0  0  0  0
  188.6420  175.7260  136.0980 C   0  0  0  0  0  2  0  0  0  0  0  0
  188.2600  176.7180  144.7360 N   0  0  0  0  0  0  0  0  0  0  0  0
  185.9020  178.9540  138.2540 N   0  0  0  0  0  2  0  0  0  0  0  0
  189.0270  175.3340  138.5150 O   0  0  0  0  0  0  0  0  0  0  0  0
  184.6840  177.7040  140.9410 C   0  0  0  0  0  2  0  0  0  0  0  0
  187.3820  178.6620  136.4290 C   0  0  0  0  0  0  0  0  0  0  0  0
  184.5780  177.8990  142.4440 C   0  0  0  0  0  2  0  0  0  0  0  0
  186.1730  178.6940  136.9030 N   0  0  0  0  0  0  0  0  0  0  0  0
  186.0230  177.1610  145.2850 F   0  0  0  0  0  0  0  0  0  0  0  0
  190.5790  177.8510  141.6170 S   0  0  0  0  0  0  0  0  0  0  0  0
  185.6750  178.8340  142.9310 C   0  0  1  0  0  3  0  0  0  0  0  0
  184.3250  178.9940  140.2170 C   0  0  0  0  0  2  0  0  0  0  0  0
  188.0480  178.1670  142.4080 C   0  0  0  0  0  0  0  0  0  0  0  0
  187.1860  175.8150  135.6560 C   0  0  0  0  0  2  0  0  0  0  0  0
  187.0720  177.3180  144.4390 C   0  0  0  0  0  0  0  0  0  0  0  0
  184.5740  178.8410  138.7600 C   0  0  0  0  0  0  0  0  0  0  0  0
  188.8060  177.4590  138.0320 C   0  0  0  0  0  0  0  0  0  0  0  0
  189.0930  177.2890  139.3690 C   0  0  0  0  0  0  0  0  0  0  0  0
  189.2470  177.5910  142.7600 C   0  0  0  0  0  0  0  0  0  0  0  0
  188.0490  178.8140  141.0680 C   0  0  0  0  0  2  0  0  0  0  0  0
  186.9720  176.9470  134.6460 C   0  0  0  0  0  2  0  0  0  0  0  0
  189.3500  176.8430  143.9300 C   0  0  0  0  0  3  0  0  0  0  0  0
  188.8090  176.1660  137.5220 C   0  0  0  0  0  0  0  0  0  0  0  0
  187.6000  178.1800  135.1060 N   0  0  0  0  0  2  0  0  0  0  0  0
  188.5750  178.7640  137.3250 C   0  0  0  0  0  2  0  0  0  0  0  0
  189.3420  178.3840  140.3670 C   0  0  1  0  0  3  0  0  0  0  0  0
  189.2010  175.9710  139.6380 N   0  0  0  0  0  0  0  0  0  0  0  0
  183.6170  178.5700  137.9890 O   0  0  0  0  0  0  0  0  0  0  0  0
  2 17  1  0  0  0  0
  3 25  1  0  0  0  0
  5 18  1  0  0  0  0
  6 29  1  0  0  0  0
  7  9  1  0  0  0  0
  8 10  2  0  0  0  0
  8 27  1  0  0  0  0
  9 13  1  0  0  0  0
 10  5  1  0  0  0  0
 12 21  1  0  0  0  0
 13  2  1  0  0  0  0
 13  1  1  1  0  0  0
 14  7  1  0  0  0  0
 15 21  1  0  0  0  0
 15  2  2  0  0  0  0
 16  3  1  0  0  0  0
 17  4  2  0  0  0  0
 17 11  1  0  0  0  0
 18 14  1  0  0  0  0
 19 20  1  0  0  0  0
 20 29  2  0  0  0  0
 20 28  1  0  0  0  0
 21 24  2  0  0  0  0
 22 15  1  0  0  0  0
 23 26  1  0  0  0  0
 23 16  1  0  0  0  0
 24  4  1  0  0  0  0
 25 19  2  0  0  0  0
 25  6  1  0  0  0  0
 26  8  1  0  0  0  0
 27 19  1  0  0  0  0
 28 22  1  1  0  0  0
 28 12  1  0  0  0  0
 30 18  2  0  0  0  0
M  END
>  <MODEL>
5

>  <REMARK>
 VINA RESULT:      -6.2      2.198      3.106
  Name = 
  0 active torsions:
  status: ('A' for Active; 'I' for Inactive)
                            x       y       z     vdW  Elec       q    Type
                         _______ _______ _______ _____ _____    ______ ____

>  <TORSDO>
F 0

$$$$
=
 OpenBabel11032419263D

 30 34  0  0  1  0  0  0  0  0999 V2000
  182.0390  171.4850  135.4060 C   0  0  0  0  0  1  0  0  0  0  0  0
  182.0950  173.7250  136.5390 C   0  0  0  0  0  0  0  0  0  0  0  0
  188.0500  178.3820  138.1930 C   0  0  0  0  0  2  0  0  0  0  0  0
  180.1890  174.6880  137.6460 N   0  0  0  0  0  0  0  0  0  0  0  0
  187.1780  174.4110  135.7350 N   0  0  0  0  0  2  0  0  0  0  0  0
  185.6430  177.9410  138.5840 O   0  0  0  0  0  0  0  0  0  0  0  0
  185.0610  172.6080  137.3270 C   0  0  0  0  0  2  0  0  0  0  0  0
  188.3290  176.4760  135.6230 C   0  0  0  0  0  0  0  0  0  0  0  0
  183.7080  171.9240  137.2180 C   0  0  0  0  0  2  0  0  0  0  0  0
  188.3270  175.2020  135.8760 N   0  0  0  0  0  0  0  0  0  0  0  0
  180.5060  172.3660  137.7300 F   0  0  0  0  0  0  0  0  0  0  0  0
  182.3050  177.6700  135.9090 S   0  0  0  0  0  0  0  0  0  0  0  0
  182.8990  172.5370  136.0850 C   0  0  1  0  0  3  0  0  0  0  0  0
  185.9220  172.2610  136.1210 C   0  0  0  0  0  2  0  0  0  0  0  0
  182.4990  175.0220  136.1910 C   0  0  0  0  0  0  0  0  0  0  0  0
  188.9920  177.2040  138.4100 C   0  0  0  0  0  2  0  0  0  0  0  0
  180.9220  173.5870  137.3120 C   0  0  0  0  0  0  0  0  0  0  0  0
  187.1820  173.0480  136.1590 C   0  0  0  0  0  0  0  0  0  0  0  0
  186.2680  177.4490  136.5430 C   0  0  0  0  0  0  0  0  0  0  0  0
  184.9110  177.2620  136.6980 C   0  0  0  0  0  0  0  0  0  0  0  0
  181.7110  176.1070  136.5010 C   0  0  0  0  0  0  0  0  0  0  0  0
  183.7750  175.3660  135.5080 C   0  0  0  0  0  2  0  0  0  0  0  0
  190.0610  177.1280  137.3140 C   0  0  0  0  0  2  0  0  0  0  0  0
  180.5510  175.9400  137.2530 C   0  0  0  0  0  3  0  0  0  0  0  0
  186.6830  177.9210  137.7820 C   0  0  0  0  0  0  0  0  0  0  0  0
  189.4600  177.2590  135.9920 N   0  0  0  0  0  2  0  0  0  0  0  0
  187.0680  177.2100  135.2950 C   0  0  0  0  0  2  0  0  0  0  0  0
  183.9410  176.8860  135.6140 C   0  0  1  0  0  3  0  0  0  0  0  0
  184.5620  177.5520  137.9690 N   0  0  0  0  0  0  0  0  0  0  0  0
  188.2340  172.5210  136.6040 O   0  0  0  0  0  0  0  0  0  0  0  0
  2 17  1  0  0  0  0
  3 16  1  0  0  0  0
  5 10  1  0  0  0  0
  5 18  1  0  0  0  0
  8 10  2  0  0  0  0
  8 26  1  0  0  0  0
  9  7  1  0  0  0  0
 12 21  1  0  0  0  0
 13  1  1  1  0  0  0
 13  2  1  0  0  0  0
 13  9  1  0  0  0  0
 14 18  1  0  0  0  0
 14  7  1  0  0  0  0
 15 21  1  0  0  0  0
 15  2  2  0  0  0  0
 17  4  2  0  0  0  0
 17 11  1  0  0  0  0
 18 30  2  0  0  0  0
 19 20  1  0  0  0  0
 19 25  2  0  0  0  0
 20 29  2  0  0  0  0
 21 24  2  0  0  0  0
 22 15  1  0  0  0  0
 23 16  1  0  0  0  0
 24  4  1  0  0  0  0
 25  3  1  0  0  0  0
 25  6  1  0  0  0  0
 26 23  1  0  0  0  0
 27  8  1  0  0  0  0
 27 19  1  0  0  0  0
 28 22  1  1  0  0  0
 28 12  1  0  0  0  0
 28 20  1  0  0  0  0
 29  6  1  0  0  0  0
M  END
>  <MODEL>
6

>  <REMARK>
 VINA RESULT:      -5.7      6.470      9.428
  Name = 
  0 active torsions:
  status: ('A' for Active; 'I' for Inactive)
                            x       y       z     vdW  Elec       q    Type
                         _______ _______ _______ _____ _____    ______ ____

>  <TORSDO>
F 0

$$$$
=
 OpenBabel11032419263D

 30 34  0  0  1  0  0  0  0  0999 V2000
  191.8830  176.5160  137.1570 C   0  0  0  0  0  1  0  0  0  0  0  0
  189.8150  175.1410  136.7880 C   0  0  0  0  0  0  0  0  0  0  0  0
  182.5420  176.2430  139.1910 C   0  0  0  0  0  2  0  0  0  0  0  0
  189.8540  172.9380  135.8230 N   0  0  0  0  0  0  0  0  0  0  0  0
  186.6780  178.5780  139.0900 N   0  0  0  0  0  2  0  0  0  0  0  0
  184.1240  174.6350  138.1640 O   0  0  0  0  0  0  0  0  0  0  0  0
  189.0790  176.5310  139.6500 C   0  0  0  0  0  2  0  0  0  0  0  0
  184.3570  178.8500  138.7160 C   0  0  0  0  0  0  0  0  0  0  0  0
  190.3800  175.9850  139.0850 C   0  0  0  0  0  2  0  0  0  0  0  0
  185.3900  178.9540  139.4960 N   0  0  0  0  0  0  0  0  0  0  0  0
  191.6220  173.6090  137.2100 F   0  0  0  0  0  0  0  0  0  0  0  0
  186.4870  174.8170  134.5940 S   0  0  0  0  0  0  0  0  0  0  0  0
  190.4530  176.2450  137.5880 C   0  0  1  0  0  3  0  0  0  0  0  0
  189.0870  178.0520  139.6090 C   0  0  0  0  0  2  0  0  0  0  0  0
  188.5650  175.3400  136.1860 C   0  0  0  0  0  0  0  0  0  0  0  0
  183.0030  176.9050  140.4840 C   0  0  0  0  0  2  0  0  0  0  0  0
  190.4390  173.8870  136.6090 C   0  0  0  0  0  0  0  0  0  0  0  0
  187.7580  178.5750  140.0220 C   0  0  0  0  0  0  0  0  0  0  0  0
  184.4960  176.6990  137.5340 C   0  0  0  0  0  0  0  0  0  0  0  0
  185.3450  175.8290  136.8850 C   0  0  0  0  0  0  0  0  0  0  0  0
  188.0260  174.3810  135.3590 C   0  0  0  0  0  0  0  0  0  0  0  0
  187.7010  176.5350  136.3830 C   0  0  0  0  0  2  0  0  0  0  0  0
  182.6590  178.3980  140.5050 C   0  0  0  0  0  2  0  0  0  0  0  0
  188.6700  173.1580  135.1890 C   0  0  0  0  0  3  0  0  0  0  0  0
  183.7060  175.8690  138.3220 C   0  0  0  0  0  0  0  0  0  0  0  0
  183.0530  179.0400  139.2570 N   0  0  0  0  0  2  0  0  0  0  0  0
  184.4520  178.1920  137.3760 C   0  0  0  0  0  2  0  0  0  0  0  0
  186.3250  176.1890  135.8050 C   0  0  1  0  0  3  0  0  0  0  0  0
  185.1060  174.5710  137.3110 N   0  0  0  0  0  0  0  0  0  0  0  0
  187.5840  178.9710  141.2040 O   0  0  0  0  0  0  0  0  0  0  0  0
  2 13  1  0  0  0  0
  3 16  1  0  0  0  0
  4 17  2  0  0  0  0
  5 10  1  0  0  0  0
  5 18  1  0  0  0  0
  6 25  1  0  0  0  0
  8 26  1  0  0  0  0
  8 10  2  0  0  0  0
  9  7  1  0  0  0  0
 12 21  1  0  0  0  0
 12 28  1  0  0  0  0
 13  1  1  6  0  0  0
 13  9  1  0  0  0  0
 14  7  1  0  0  0  0
 14 18  1  0  0  0  0
 15 22  1  0  0  0  0
 15  2  2  0  0  0  0
 16 23  1  0  0  0  0
 17  2  1  0  0  0  0
 17 11  1  0  0  0  0
 18 30  2  0  0  0  0
 19 25  2  0  0  0  0
 20 29  2  0  0  0  0
 20 19  1  0  0  0  0
 21 15  1  0  0  0  0
 24 21  2  0  0  0  0
 24  4  1  0  0  0  0
 25  3  1  0  0  0  0
 26 23  1  0  0  0  0
 27 19  1  0  0  0  0
 27  8  1  0  0  0  0
 28 22  1  1  0  0  0
 28 20  1  0  0  0  0
 29  6  1  0  0  0  0
M  END
>  <MODEL>
7

>  <REMARK>
 VINA RESULT:      -5.6      5.280      7.925
  Name = 
  0 active torsions:
  status: ('A' for Active; 'I' for Inactive)
                            x       y       z     vdW  Elec       q    Type
                         _______ _______ _______ _____ _____    ______ ____

>  <TORSDO>
F 0

$$$$
=
 OpenBabel11032419263D

 30 34  0  0  1  0  0  0  0  0999 V2000
  182.8510  174.2630  136.2710 C   0  0  0  0  0  1  0  0  0  0  0  0
  184.5900  175.7610  137.2870 C   0  0  0  0  0  0  0  0  0  0  0  0
  192.3140  175.2790  137.2190 C   0  0  0  0  0  2  0  0  0  0  0  0
  184.0630  177.5380  138.8210 N   0  0  0  0  0  0  0  0  0  0  0  0
  188.5710  173.1780  135.1820 N   0  0  0  0  0  2  0  0  0  0  0  0
  190.3550  176.4120  138.2290 O   0  0  0  0  0  0  0  0  0  0  0  0
  186.1950  172.9170  137.3150 C   0  0  0  0  0  2  0  0  0  0  0  0
  190.7290  174.0330  134.7180 C   0  0  0  0  0  0  0  0  0  0  0  0
  184.7400  173.2710  137.5790 C   0  0  0  0  0  2  0  0  0  0  0  0
  189.9530  173.0300  134.9990 N   0  0  0  0  0  0  0  0  0  0  0  0
  182.8030  175.5610  138.8860 F   0  0  0  0  0  0  0  0  0  0  0  0
  187.1740  178.7160  136.5150 S   0  0  0  0  0  0  0  0  0  0  0  0
  184.3070  174.4160  136.6750 C   0  0  1  0  0  3  0  0  0  0  0  0
  186.3400  172.2850  135.9380 C   0  0  0  0  0  2  0  0  0  0  0  0
  185.6530  176.5410  136.8110 C   0  0  0  0  0  0  0  0  0  0  0  0
  192.2810  173.7550  137.2190 C   0  0  0  0  0  2  0  0  0  0  0  0
  183.8100  176.2870  138.3410 C   0  0  0  0  0  0  0  0  0  0  0  0
  187.7780  172.0790  135.6280 C   0  0  0  0  0  0  0  0  0  0  0  0
  190.0550  175.9430  136.1110 C   0  0  0  0  0  0  0  0  0  0  0  0
  188.9770  176.6390  136.6160 C   0  0  0  0  0  0  0  0  0  0  0  0
  185.8510  177.8180  137.2830 C   0  0  0  0  0  0  0  0  0  0  0  0
  186.6620  176.0940  135.8130 C   0  0  0  0  0  2  0  0  0  0  0  0
  192.7770  173.1810  135.8870 C   0  0  0  0  0  2  0  0  0  0  0  0
  185.0570  178.3160  138.3130 C   0  0  0  0  0  3  0  0  0  0  0  0
  190.9290  175.8560  137.1880 C   0  0  0  0  0  0  0  0  0  0  0  0
  192.1420  173.8560  134.7620 N   0  0  0  0  0  2  0  0  0  0  0  0
  190.2160  175.4380  134.7060 C   0  0  0  0  0  2  0  0  0  0  0  0
  187.7940  177.1270  135.8300 C   0  0  1  0  0  3  0  0  0  0  0  0
  189.1830  176.8920  137.9250 N   0  0  0  0  0  0  0  0  0  0  0  0
  188.2980  170.9460  135.8010 O   0  0  0  0  0  0  0  0  0  0  0  0
  2 17  1  0  0  0  0
  5 18  1  0  0  0  0
  7  9  1  0  0  0  0
  8 26  1  0  0  0  0
  8 10  2  0  0  0  0
 10  5  1  0  0  0  0
 12 21  1  0  0  0  0
 13  1  1  1  0  0  0
 13  2  1  0  0  0  0
 13  9  1  0  0  0  0
 14  7  1  0  0  0  0
 15 21  1  0  0  0  0
 15  2  2  0  0  0  0
 16  3  1  0  0  0  0
 17  4  2  0  0  0  0
 17 11  1  0  0  0  0
 18 30  2  0  0  0  0
 18 14  1  0  0  0  0
 19 20  1  0  0  0  0
 19 25  2  0  0  0  0
 20 29  2  0  0  0  0
 21 24  2  0  0  0  0
 22 15  1  0  0  0  0
 23 16  1  0  0  0  0
 24  4  1  0  0  0  0
 25  3  1  0  0  0  0
 25  6  1  0  0  0  0
 26 23  1  0  0  0  0
 27  8  1  0  0  0  0
 27 19  1  0  0  0  0
 28 22  1  1  0  0  0
 28 12  1  0  0  0  0
 28 20  1  0  0  0  0
 29  6  1  0  0  0  0
M  END
>  <MODEL>
8

>  <REMARK>
 VINA RESULT:      -5.4      6.373      8.266
  Name = 
  0 active torsions:
  status: ('A' for Active; 'I' for Inactive)
                            x       y       z     vdW  Elec       q    Type
                         _______ _______ _______ _____ _____    ______ ____

>  <TORSDO>
F 0

$$$$
=
 OpenBabel11032419263D

 30 34  0  0  1  0  0  0  0  0999 V2000
  181.9480  174.3950  136.2920 C   0  0  0  0  0  1  0  0  0  0  0  0
  182.9840  175.8350  138.0690 C   0  0  0  0  0  0  0  0  0  0  0  0
  190.3990  177.5410  139.4780 C   0  0  0  0  0  2  0  0  0  0  0  0
  181.7480  176.7150  139.9350 N   0  0  0  0  0  0  0  0  0  0  0  0
  187.7850  175.3880  136.1450 N   0  0  0  0  0  2  0  0  0  0  0  0
  188.0850  177.6470  140.3570 O   0  0  0  0  0  0  0  0  0  0  0  0
  185.4240  173.7300  137.5400 C   0  0  0  0  0  2  0  0  0  0  0  0
  189.5760  176.9080  136.4380 C   0  0  0  0  0  0  0  0  0  0  0  0
  183.9150  173.5530  137.5890 C   0  0  0  0  0  2  0  0  0  0  0  0
  189.1500  175.7000  136.2210 N   0  0  0  0  0  0  0  0  0  0  0  0
  181.2090  174.5870  139.1100 F   0  0  0  0  0  0  0  0  0  0  0  0
  184.5140  179.4530  138.8230 S   0  0  0  0  0  0  0  0  0  0  0  0
  183.2230  174.7820  137.0200 C   0  0  1  0  0  3  0  0  0  0  0  0
  185.9080  173.7080  136.0970 C   0  0  0  0  0  2  0  0  0  0  0  0
  183.7730  176.9930  138.0950 C   0  0  0  0  0  0  0  0  0  0  0  0
  190.8710  176.1750  138.9930 C   0  0  0  0  0  2  0  0  0  0  0  0
  181.9720  175.7070  139.0450 C   0  0  0  0  0  0  0  0  0  0  0  0
  187.3580  174.0300  136.0470 C   0  0  0  0  0  0  0  0  0  0  0  0
  188.1730  177.9180  138.1850 C   0  0  0  0  0  0  0  0  0  0  0  0
  186.8800  178.0590  138.6440 C   0  0  0  0  0  0  0  0  0  0  0  0
  183.4900  178.0130  138.9750 C   0  0  0  0  0  0  0  0  0  0  0  0
  184.9680  177.2340  137.2430 C   0  0  0  0  0  2  0  0  0  0  0  0
  191.6600  176.2830  137.6840 C   0  0  0  0  0  2  0  0  0  0  0  0
  182.4760  177.8650  139.9180 C   0  0  0  0  0  3  0  0  0  0  0  0
  188.9130  177.6870  139.3390 C   0  0  0  0  0  0  0  0  0  0  0  0
  190.9560  177.1200  136.7200 N   0  0  0  0  0  2  0  0  0  0  0  0
  188.6330  178.0230  136.7600 C   0  0  0  0  0  2  0  0  0  0  0  0
  185.6890  178.4570  137.8210 C   0  0  1  0  0  3  0  0  0  0  0  0
  186.8570  177.8650  139.9790 N   0  0  0  0  0  0  0  0  0  0  0  0
  188.2010  173.1000  135.9620 O   0  0  0  0  0  0  0  0  0  0  0  0
  2 15  2  0  0  0  0
  2 17  1  0  0  0  0
  5 10  1  0  0  0  0
  7  9  1  0  0  0  0
  8 26  1  0  0  0  0
  8 27  1  0  0  0  0
 10  8  2  0  0  0  0
 12 21  1  0  0  0  0
 13  1  1  1  0  0  0
 13  9  1  0  0  0  0
 13  2  1  0  0  0  0
 14  7  1  0  0  0  0
 15 21  1  0  0  0  0
 16  3  1  0  0  0  0
 17 11  1  0  0  0  0
 17  4  2  0  0  0  0
 18 14  1  0  0  0  0
 18  5  1  0  0  0  0
 19 20  1  0  0  0  0
 19 25  2  0  0  0  0
 20 29  2  0  0  0  0
 21 24  2  0  0  0  0
 22 15  1  0  0  0  0
 23 16  1  0  0  0  0
 24  4  1  0  0  0  0
 25  3  1  0  0  0  0
 25  6  1  0  0  0  0
 26 23  1  0  0  0  0
 27 19  1  0  0  0  0
 28 22  1  1  0  0  0
 28 20  1  0  0  0  0
 28 12  1  0  0  0  0
 29  6  1  0  0  0  0
 30 18  2  0  0  0  0
M  END
>  <MODEL>
9

>  <REMARK>
 VINA RESULT:      -5.3      5.263      7.686
  Name = 
  0 active torsions:
  status: ('A' for Active; 'I' for Inactive)
                            x       y       z     vdW  Elec       q    Type
                         _______ _______ _______ _____ _____    ______ ____

>  <TORSDO>
F 0

$$$$
