=
 OpenBabel11042412053D

 30 32  0  0  1  0  0  0  0  0999 V2000
  188.9460  177.7690  144.7370 C   0  0  0  0  0  0  0  0  0  0  0  0
  188.3850  177.7700  148.4410 C   0  0  0  0  0  1  0  0  0  0  0  0
  188.8350  177.6500  147.0230 C   0  0  0  0  0  0  0  0  0  0  0  0
  188.0050  178.0730  145.8570 C   0  0  2  0  0  3  0  0  0  0  0  0
  190.0180  177.1860  146.6180 C   0  0  0  0  0  0  0  0  0  0  0  0
  190.0950  177.2640  145.1660 C   0  0  0  0  0  3  0  0  0  0  0  0
  191.7150  177.4480  148.2700 O   0  0  0  0  0  0  0  0  0  0  0  0
  191.5080  175.3180  147.3860 N   0  0  0  0  0  1  0  0  0  0  0  0
  191.1160  176.6840  147.4680 C   0  0  0  0  0  0  0  0  0  0  0  0
  188.6530  178.0460  143.3650 N   0  0  0  0  0  2  0  0  0  0  0  0
  189.6870  178.1360  142.3450 C   0  0  0  0  0  2  0  0  0  0  0  0
  189.5490  176.9890  141.3620 C   0  0  0  0  0  2  0  0  0  0  0  0
  190.6830  177.0270  140.3520 C   0  0  0  0  0  2  0  0  0  0  0  0
  190.1750  177.4740  138.9930 C   0  0  0  0  0  2  0  0  0  0  0  0
  188.7350  177.0310  138.7970 C   0  0  0  0  0  2  0  0  0  0  0  0
  188.3080  177.2320  137.3520 C   0  0  0  0  0  2  0  0  0  0  0  0
  185.9930  177.9610  137.6730 O   0  0  0  0  0  0  0  0  0  0  0  0
  187.2730  178.2490  137.2640 N   0  0  0  0  0  0  0  0  0  0  0  0
  187.5680  179.4120  136.9270 O   0  0  0  0  0  0  0  0  0  0  0  0
  186.7580  177.2000  145.7660 C   0  0  0  0  0  2  0  0  0  0  0  0
  185.7250  179.1330  146.9080 N   0  0  0  0  0  2  0  0  0  0  0  0
  185.8000  179.3810  145.4610 C   0  0  2  0  0  3  0  0  0  0  0  0
  184.7820  178.5480  144.7160 C   0  0  2  0  0  3  0  0  0  0  0  0
  185.4960  178.0340  145.9620 C   0  0  1  0  0  0  0  0  0  0  0  0
  185.3830  178.0710  143.3990 C   0  0  0  0  0  2  0  0  0  0  0  0
  184.6090  178.6320  142.2560 C   0  0  0  0  0  0  0  0  0  0  0  0
  183.3580  178.7420  142.3510 O   0  0  0  0  0  0  0  0  0  0  0  0
  185.3000  179.0840  141.0420 C   0  0  0  0  0  0  0  0  0  0  0  0
  186.5340  178.8700  140.8960 O   0  0  0  0  0  1  0  0  0  0  0  0
  184.5990  179.7490  140.0430 O   0  0  0  0  0  0  0  0  0  0  0  0
  1  6  2  0  0  0  0
  1  4  1  0  0  0  0
  3  2  1  0  0  0  0
  4 20  1  6  0  0  0
  4  3  1  0  0  0  0
  5  3  2  0  0  0  0
  5  9  1  0  0  0  0
  6  5  1  0  0  0  0
  8  9  1  0  0  0  0
  9  7  2  0  0  0  0
 10  1  1  0  0  0  0
 11 10  1  0  0  0  0
 12 11  1  0  0  0  0
 13 12  1  0  0  0  0
 14 13  1  0  0  0  0
 15 14  1  0  0  0  0
 16 15  1  0  0  0  0
 18 16  1  0  0  0  0
 18 17  2  0  0  0  0
 19 18  2  0  0  0  0
 22 24  1  0  0  0  0
 22 21  1  1  0  0  0
 23 25  1  6  0  0  0
 23 22  1  0  0  0  0
 23 24  1  0  0  0  0
 24 20  1  6  0  0  0
 24 21  1  0  0  0  0
 26 27  2  0  0  0  0
 26 25  1  0  0  0  0
 28 26  1  0  0  0  0
 29 28  1  0  0  0  0
 30 28  2  0  0  0  0
M  END
>  <MODEL>
1

>  <REMARK>
 VINA RESULT:      -7.4      0.000      0.000
  Name = 
  14 active torsions:
  status: ('A' for Active; 'I' for Inactive)
    1  A    between atoms: C_2  and  N_8
    2  A    between atoms: C_2  and  C_10
    3  A    between atoms: C_4  and  N_8
    4  A    between atoms: C_5  and  C_22
    5  A    between atoms: C_10  and  C_12
    6  A    between atoms: C_11  and  C_15
    7  A    between atoms: C_11  and  C_22
    8  A    between atoms: C_12  and  C_28
    9  A    between atoms: N_13  and  C_18
   10  A    between atoms: C_18  and  C_25
   11  A    between atoms: C_21  and  C_24
   12  A    between atoms: C_23  and  C_24
   13  A    between atoms: C_25  and  C_28
   14  A    between atoms: C_27  and  C_29
                            x       y       z     vdW  Elec       q    Type
                         _______ _______ _______ _____ _____    ______ ____

>  <TORSDO>
F 14

$$$$
=
 OpenBabel11042412053D

 30 32  0  0  1  0  0  0  0  0999 V2000
  189.0640  177.8710  144.4900 C   0  0  0  0  0  0  0  0  0  0  0  0
  188.7400  177.5090  148.2050 C   0  0  0  0  0  1  0  0  0  0  0  0
  189.1020  177.5350  146.7570 C   0  0  0  0  0  0  0  0  0  0  0  0
  188.1900  178.0420  145.6900 C   0  0  2  0  0  3  0  0  0  0  0  0
  190.2660  177.1430  146.2380 C   0  0  0  0  0  0  0  0  0  0  0  0
  190.2490  177.3600  144.7980 C   0  0  0  0  0  3  0  0  0  0  0  0
  191.8520  177.1460  148.0160 O   0  0  0  0  0  0  0  0  0  0  0  0
  192.0780  175.4250  146.4850 N   0  0  0  0  0  1  0  0  0  0  0  0
  191.4260  176.5940  146.9670 C   0  0  0  0  0  0  0  0  0  0  0  0
  188.6790  178.2670  143.1720 N   0  0  0  0  0  2  0  0  0  0  0  0
  188.4230  177.3070  142.1070 C   0  0  0  0  0  2  0  0  0  0  0  0
  189.5120  177.3960  141.0550 C   0  0  0  0  0  2  0  0  0  0  0  0
  188.9450  177.9580  139.7630 C   0  0  0  0  0  2  0  0  0  0  0  0
  189.8200  177.5770  138.5830 C   0  0  0  0  0  2  0  0  0  0  0  0
  190.9240  176.6320  139.0300 C   0  0  0  0  0  2  0  0  0  0  0  0
  191.7880  176.2270  137.8470 C   0  0  0  0  0  2  0  0  0  0  0  0
  193.5960  177.0190  139.2960 O   0  0  0  0  0  0  0  0  0  0  0  0
  193.1560  176.6800  138.0390 N   0  0  0  0  0  0  0  0  0  0  0  0
  193.9600  176.6550  137.0880 O   0  0  0  0  0  0  0  0  0  0  0  0
  186.9590  177.1480  145.5930 C   0  0  0  0  0  2  0  0  0  0  0  0
  186.0440  178.9060  147.0690 N   0  0  0  0  0  2  0  0  0  0  0  0
  185.8770  179.2910  145.6610 C   0  0  2  0  0  3  0  0  0  0  0  0
  184.7870  178.4750  145.0020 C   0  0  2  0  0  3  0  0  0  0  0  0
  185.7110  177.8880  146.0640 C   0  0  1  0  0  0  0  0  0  0  0  0
  185.1900  178.1570  143.5660 C   0  0  0  0  0  2  0  0  0  0  0  0
  184.1250  178.6130  142.6290 C   0  0  0  0  0  0  0  0  0  0  0  0
  182.9500  178.7670  143.0560 O   0  0  0  0  0  0  0  0  0  0  0  0
  184.4480  178.9110  141.2280 C   0  0  0  0  0  0  0  0  0  0  0  0
  183.6020  178.6900  140.3200 O   0  0  0  0  0  0  0  0  0  0  0  0
  185.6880  179.4410  140.8930 O   0  0  0  0  0  1  0  0  0  0  0  0
  1  6  2  0  0  0  0
  1  4  1  0  0  0  0
  3  2  1  0  0  0  0
  4 20  1  6  0  0  0
  4  3  1  0  0  0  0
  5  3  2  0  0  0  0
  5  9  1  0  0  0  0
  6  5  1  0  0  0  0
  8  9  1  0  0  0  0
  9  7  2  0  0  0  0
 10  1  1  0  0  0  0
 11 10  1  0  0  0  0
 12 11  1  0  0  0  0
 13 12  1  0  0  0  0
 14 15  1  0  0  0  0
 14 13  1  0  0  0  0
 16 18  1  0  0  0  0
 16 15  1  0  0  0  0
 18 17  2  0  0  0  0
 19 18  2  0  0  0  0
 22 24  1  0  0  0  0
 22 21  1  1  0  0  0
 23 25  1  6  0  0  0
 23 22  1  0  0  0  0
 23 24  1  0  0  0  0
 24 20  1  6  0  0  0
 24 21  1  0  0  0  0
 26 27  2  0  0  0  0
 26 25  1  0  0  0  0
 28 26  1  0  0  0  0
 29 28  2  0  0  0  0
 30 28  1  0  0  0  0
M  END
>  <MODEL>
2

>  <REMARK>
 VINA RESULT:      -7.4      2.260      2.510
  Name = 
  14 active torsions:
  status: ('A' for Active; 'I' for Inactive)
    1  A    between atoms: C_2  and  N_8
    2  A    between atoms: C_2  and  C_10
    3  A    between atoms: C_4  and  N_8
    4  A    between atoms: C_5  and  C_22
    5  A    between atoms: C_10  and  C_12
    6  A    between atoms: C_11  and  C_15
    7  A    between atoms: C_11  and  C_22
    8  A    between atoms: C_12  and  C_28
    9  A    between atoms: N_13  and  C_18
   10  A    between atoms: C_18  and  C_25
   11  A    between atoms: C_21  and  C_24
   12  A    between atoms: C_23  and  C_24
   13  A    between atoms: C_25  and  C_28
   14  A    between atoms: C_27  and  C_29
                            x       y       z     vdW  Elec       q    Type
                         _______ _______ _______ _____ _____    ______ ____

>  <TORSDO>
F 14

$$$$
=
 OpenBabel11042412053D

 30 32  0  0  1  0  0  0  0  0999 V2000
  187.9310  177.2010  144.6680 C   0  0  0  0  0  0  0  0  0  0  0  0
  191.0680  176.8980  146.6940 C   0  0  0  0  0  1  0  0  0  0  0  0
  189.7110  177.1100  146.1090 C   0  0  0  0  0  0  0  0  0  0  0  0
  189.3920  176.8840  144.6690 C   0  0  2  0  0  3  0  0  0  0  0  0
  188.6250  177.4950  146.7800 C   0  0  0  0  0  0  0  0  0  0  0  0
  187.4900  177.5500  145.8690 C   0  0  0  0  0  3  0  0  0  0  0  0
  187.6180  177.3090  148.9320 O   0  0  0  0  0  0  0  0  0  0  0  0
  189.4840  178.6740  148.8220 N   0  0  0  0  0  1  0  0  0  0  0  0
  188.5310  177.8040  148.2210 C   0  0  0  0  0  0  0  0  0  0  0  0
  187.1020  177.0880  143.5090 N   0  0  0  0  0  2  0  0  0  0  0  0
  186.6340  178.2470  142.7620 C   0  0  0  0  0  2  0  0  0  0  0  0
  185.1200  178.3120  142.7980 C   0  0  0  0  0  2  0  0  0  0  0  0
  184.6480  178.7140  144.1850 C   0  0  0  0  0  2  0  0  0  0  0  0
  183.3810  179.5460  144.1000 C   0  0  0  0  0  2  0  0  0  0  0  0
  182.1670  178.6430  143.9530 C   0  0  0  0  0  2  0  0  0  0  0  0
  181.4200  178.9600  142.6680 C   0  0  0  0  0  2  0  0  0  0  0  0
  179.1430  178.7760  143.5520 O   0  0  0  0  0  0  0  0  0  0  0  0
  180.1220  179.5430  142.9670 N   0  0  0  0  0  0  0  0  0  0  0  0
  179.9330  180.7630  142.7970 O   0  0  0  0  0  0  0  0  0  0  0  0
  190.1610  177.8780  143.8060 C   0  0  0  0  0  2  0  0  0  0  0  0
  191.5420  175.8480  143.5180 N   0  0  0  0  0  2  0  0  0  0  0  0
  190.5640  175.9540  142.4260 C   0  0  2  0  0  3  0  0  0  0  0  0
  190.9510  177.0490  141.4570 C   0  0  2  0  0  3  0  0  0  0  0  0
  191.2070  177.1630  142.9560 C   0  0  1  0  0  0  0  0  0  0  0  0
  189.6940  177.7640  140.9730 C   0  0  0  0  0  2  0  0  0  0  0  0
  189.6650  177.7850  139.4840 C   0  0  0  0  0  0  0  0  0  0  0  0
  190.4980  177.0940  138.8390 O   0  0  0  0  0  0  0  0  0  0  0  0
  188.6550  178.5780  138.7720 C   0  0  0  0  0  0  0  0  0  0  0  0
  188.9930  179.3250  137.8150 O   0  0  0  0  0  0  0  0  0  0  0  0
  187.3190  178.5080  139.1480 O   0  0  0  0  0  1  0  0  0  0  0  0
  1  4  1  0  0  0  0
  1  6  2  0  0  0  0
  3  2  1  0  0  0  0
  3  5  2  0  0  0  0
  4 20  1  6  0  0  0
  4  3  1  0  0  0  0
  5  9  1  0  0  0  0
  6  5  1  0  0  0  0
  9  8  1  0  0  0  0
  9  7  2  0  0  0  0
 10  1  1  0  0  0  0
 11 12  1  0  0  0  0
 11 10  1  0  0  0  0
 12 13  1  0  0  0  0
 14 13  1  0  0  0  0
 15 14  1  0  0  0  0
 16 18  1  0  0  0  0
 16 15  1  0  0  0  0
 18 17  2  0  0  0  0
 19 18  2  0  0  0  0
 22 24  1  0  0  0  0
 22 21  1  6  0  0  0
 23 25  1  1  0  0  0
 23 22  1  0  0  0  0
 23 24  1  0  0  0  0
 24 21  1  0  0  0  0
 24 20  1  1  0  0  0
 26 25  1  0  0  0  0
 27 26  2  0  0  0  0
 28 30  1  0  0  0  0
 28 26  1  0  0  0  0
 29 28  2  0  0  0  0
M  END
>  <MODEL>
3

>  <REMARK>
 VINA RESULT:      -7.2      2.582      5.851
  Name = 
  14 active torsions:
  status: ('A' for Active; 'I' for Inactive)
    1  A    between atoms: C_2  and  N_8
    2  A    between atoms: C_2  and  C_10
    3  A    between atoms: C_4  and  N_8
    4  A    between atoms: C_5  and  C_22
    5  A    between atoms: C_10  and  C_12
    6  A    between atoms: C_11  and  C_15
    7  A    between atoms: C_11  and  C_22
    8  A    between atoms: C_12  and  C_28
    9  A    between atoms: N_13  and  C_18
   10  A    between atoms: C_18  and  C_25
   11  A    between atoms: C_21  and  C_24
   12  A    between atoms: C_23  and  C_24
   13  A    between atoms: C_25  and  C_28
   14  A    between atoms: C_27  and  C_29
                            x       y       z     vdW  Elec       q    Type
                         _______ _______ _______ _____ _____    ______ ____

>  <TORSDO>
F 14

$$$$
=
 OpenBabel11042412053D

 30 32  0  0  1  0  0  0  0  0999 V2000
  188.4160  177.2990  145.2210 C   0  0  0  0  0  0  0  0  0  0  0  0
  191.6040  175.8410  143.8980 C   0  0  0  0  0  1  0  0  0  0  0  0
  190.4670  176.4490  144.6510 C   0  0  1  0  0  3  0  0  0  0  0  0
  189.1480  176.7720  144.0300 C   0  0  2  0  0  3  0  0  0  0  0  0
  190.4670  176.7550  145.9490 C   0  0  0  0  0  0  0  0  0  0  0  0
  189.1640  177.2910  146.3180 C   0  0  0  0  0  3  0  0  0  0  0  0
  191.7880  177.4160  147.8180 O   0  0  0  0  0  0  0  0  0  0  0  0
  192.4230  175.4360  146.8030 N   0  0  0  0  0  1  0  0  0  0  0  0
  191.5760  176.5750  146.9060 C   0  0  0  0  0  0  0  0  0  0  0  0
  187.0480  177.7120  145.1860 N   0  0  0  0  0  0  0  0  0  0  0  0
  186.2950  178.0380  146.3890 C   0  0  0  0  0  2  0  0  0  0  0  0
  184.9390  178.6050  146.0160 C   0  0  0  0  0  2  0  0  0  0  0  0
  184.8090  178.6950  144.5050 C   0  0  0  0  0  2  0  0  0  0  0  0
  183.5210  179.4000  144.1190 C   0  0  0  0  0  2  0  0  0  0  0  0
  182.9330  178.7730  142.8650 C   0  0  0  0  0  2  0  0  0  0  0  0
  184.0290  178.4790  141.8540 C   0  0  0  0  0  2  0  0  0  0  0  0
  184.7300  179.6720  139.8330 O   0  0  0  0  0  0  0  0  0  0  0  0
  183.7230  179.1040  140.5780 N   0  0  0  0  0  0  0  0  0  0  0  0
  182.5720  179.0270  140.1060 O   0  0  0  0  0  0  0  0  0  0  0  0
  189.3240  177.8610  142.9790 C   0  0  0  0  0  2  0  0  0  0  0  0
  187.4320  178.6380  141.5920 N   0  0  0  0  0  2  0  0  0  0  0  0
  188.6800  178.6890  140.8180 C   0  0  2  0  0  3  0  0  0  0  0  0
  189.1350  177.2990  140.4340 C   0  0  2  0  0  3  0  0  0  0  0  0
  188.4440  177.5890  141.7620 C   0  0  1  0  0  0  0  0  0  0  0  0
  190.6560  177.2240  140.5140 C   0  0  0  0  0  2  0  0  0  0  0  0
  191.2280  177.0560  139.1480 C   0  0  0  0  0  0  0  0  0  0  0  0
  190.5050  177.2880  138.1430 O   0  0  0  0  0  0  0  0  0  0  0  0
  192.6300  176.6540  138.9750 C   0  0  0  0  0  0  0  0  0  0  0  0
  192.9300  175.7260  138.1780 O   0  0  0  0  0  0  0  0  0  0  0  0
  193.6350  177.2970  139.6870 O   0  0  0  0  0  1  0  0  0  0  0  0
  1  6  1  0  0  0  0
  3  2  1  1  0  0  0
  3  5  1  0  0  0  0
  4 20  1  6  0  0  0
  4  3  1  0  0  0  0
  4  1  1  0  0  0  0
  5  6  2  0  0  0  0
  5  9  1  0  0  0  0
  8  9  1  0  0  0  0
  9  7  2  0  0  0  0
 10  1  2  0  0  0  0
 10 11  1  0  0  0  0
 12 11  1  0  0  0  0
 13 12  1  0  0  0  0
 14 13  1  0  0  0  0
 15 14  1  0  0  0  0
 16 15  1  0  0  0  0
 17 18  2  0  0  0  0
 18 16  1  0  0  0  0
 19 18  2  0  0  0  0
 21 24  1  0  0  0  0
 22 21  1  6  0  0  0
 22 24  1  0  0  0  0
 23 25  1  1  0  0  0
 23 22  1  0  0  0  0
 23 24  1  0  0  0  0
 24 20  1  1  0  0  0
 26 25  1  0  0  0  0
 27 26  2  0  0  0  0
 28 26  1  0  0  0  0
 28 30  1  0  0  0  0
 29 28  2  0  0  0  0
M  END
>  <MODEL>
4

>  <REMARK>
 VINA RESULT:      -7.2      2.466      5.604
  Name = 
  14 active torsions:
  status: ('A' for Active; 'I' for Inactive)
    1  A    between atoms: C_2  and  N_8
    2  A    between atoms: C_2  and  C_10
    3  A    between atoms: C_4  and  N_8
    4  A    between atoms: C_5  and  C_22
    5  A    between atoms: C_10  and  C_12
    6  A    between atoms: C_11  and  C_15
    7  A    between atoms: C_11  and  C_22
    8  A    between atoms: C_12  and  C_28
    9  A    between atoms: N_13  and  C_18
   10  A    between atoms: C_18  and  C_25
   11  A    between atoms: C_21  and  C_24
   12  A    between atoms: C_23  and  C_24
   13  A    between atoms: C_25  and  C_28
   14  A    between atoms: C_27  and  C_29
                            x       y       z     vdW  Elec       q    Type
                         _______ _______ _______ _____ _____    ______ ____

>  <TORSDO>
F 14

$$$$
=
 OpenBabel11042412053D

 30 32  0  0  1  0  0  0  0  0999 V2000
  185.6290  178.9440  142.0470 C   0  0  0  0  0  0  0  0  0  0  0  0
  186.8660  176.8800  144.9190 C   0  0  0  0  0  1  0  0  0  0  0  0
  186.2410  177.8370  143.9580 C   0  0  0  0  0  0  0  0  0  0  0  0
  186.5380  177.8460  142.4960 C   0  0  2  0  0  3  0  0  0  0  0  0
  185.3390  178.7700  144.2640 C   0  0  0  0  0  0  0  0  0  0  0  0
  184.9430  179.4740  143.0520 C   0  0  0  0  0  3  0  0  0  0  0  0
  183.5400  179.0390  145.8020 O   0  0  0  0  0  0  0  0  0  0  0  0
  185.6550  179.3880  146.6760 N   0  0  0  0  0  1  0  0  0  0  0  0
  184.7820  179.0660  145.5990 C   0  0  0  0  0  0  0  0  0  0  0  0
  185.4820  179.3360  140.6800 N   0  0  0  0  0  2  0  0  0  0  0  0
  184.2350  179.1720  139.9460 C   0  0  0  0  0  2  0  0  0  0  0  0
  183.5740  177.8630  140.3320 C   0  0  0  0  0  2  0  0  0  0  0  0
  182.1900  178.1240  140.9000 C   0  0  0  0  0  2  0  0  0  0  0  0
  181.5550  179.3310  140.2330 C   0  0  0  0  0  2  0  0  0  0  0  0
  180.0960  179.0500  139.9150 C   0  0  0  0  0  2  0  0  0  0  0  0
  179.2360  179.2360  141.1540 C   0  0  0  0  0  2  0  0  0  0  0  0
  180.0600  180.7650  142.8800 O   0  0  0  0  0  0  0  0  0  0  0  0
  179.4000  180.5770  141.6890 N   0  0  0  0  0  0  0  0  0  0  0  0
  179.0430  181.5640  141.0170 O   0  0  0  0  0  0  0  0  0  0  0  0
  187.9960  178.2250  142.2660 C   0  0  0  0  0  2  0  0  0  0  0  0
  189.0550  177.2410  140.2610 N   0  0  0  0  0  2  0  0  0  0  0  0
  190.0790  177.5800  141.2590 C   0  0  2  0  0  3  0  0  0  0  0  0
  190.0450  176.6100  142.4190 C   0  0  2  0  0  3  0  0  0  0  0  0
  188.7790  177.0490  141.6900 C   0  0  1  0  0  0  0  0  0  0  0  0
  190.3220  177.3620  143.7160 C   0  0  0  0  0  2  0  0  0  0  0  0
  191.1970  176.5420  144.6000 C   0  0  0  0  0  0  0  0  0  0  0  0
  191.9330  175.6550  144.0910 O   0  0  0  0  0  0  0  0  0  0  0  0
  191.2270  176.7850  146.0480 C   0  0  0  0  0  0  0  0  0  0  0  0
  192.1890  176.3630  146.7430 O   0  0  0  0  0  1  0  0  0  0  0  0
  190.1940  177.4850  146.6610 O   0  0  0  0  0  0  0  0  0  0  0  0
  1  4  1  0  0  0  0
  1  6  2  0  0  0  0
  3  5  2  0  0  0  0
  3  2  1  0  0  0  0
  4 20  1  1  0  0  0
  4  3  1  0  0  0  0
  5  9  1  0  0  0  0
  6  5  1  0  0  0  0
  9  7  2  0  0  0  0
  9  8  1  0  0  0  0
 10  1  1  0  0  0  0
 11 12  1  0  0  0  0
 11 10  1  0  0  0  0
 12 13  1  0  0  0  0
 14 13  1  0  0  0  0
 15 14  1  0  0  0  0
 15 16  1  0  0  0  0
 16 18  1  0  0  0  0
 18 17  2  0  0  0  0
 19 18  2  0  0  0  0
 21 24  1  0  0  0  0
 22 21  1  6  0  0  0
 22 24  1  0  0  0  0
 22 23  1  0  0  0  0
 23 25  1  1  0  0  0
 24 20  1  1  0  0  0
 24 23  1  0  0  0  0
 25 26  1  0  0  0  0
 26 28  1  0  0  0  0
 27 26  2  0  0  0  0
 28 30  2  0  0  0  0
 28 29  1  0  0  0  0
M  END
>  <MODEL>
5

>  <REMARK>
 VINA RESULT:      -7.0      3.589      7.180
  Name = 
  14 active torsions:
  status: ('A' for Active; 'I' for Inactive)
    1  A    between atoms: C_2  and  N_8
    2  A    between atoms: C_2  and  C_10
    3  A    between atoms: C_4  and  N_8
    4  A    between atoms: C_5  and  C_22
    5  A    between atoms: C_10  and  C_12
    6  A    between atoms: C_11  and  C_15
    7  A    between atoms: C_11  and  C_22
    8  A    between atoms: C_12  and  C_28
    9  A    between atoms: N_13  and  C_18
   10  A    between atoms: C_18  and  C_25
   11  A    between atoms: C_21  and  C_24
   12  A    between atoms: C_23  and  C_24
   13  A    between atoms: C_25  and  C_28
   14  A    between atoms: C_27  and  C_29
                            x       y       z     vdW  Elec       q    Type
                         _______ _______ _______ _____ _____    ______ ____

>  <TORSDO>
F 14

$$$$
=
 OpenBabel11042412053D

 30 32  0  0  1  0  0  0  0  0999 V2000
  186.5500  177.9730  143.2840 C   0  0  0  0  0  0  0  0  0  0  0  0
  188.0450  176.9920  146.5760 C   0  0  0  0  0  1  0  0  0  0  0  0
  187.2790  177.5220  145.4090 C   0  0  0  0  0  0  0  0  0  0  0  0
  187.6550  177.2560  143.9900 C   0  0  2  0  0  3  0  0  0  0  0  0
  186.1720  178.2620  145.4760 C   0  0  0  0  0  0  0  0  0  0  0  0
  185.7020  178.5480  144.1270 C   0  0  0  0  0  3  0  0  0  0  0  0
  184.3820  178.2210  147.0470 O   0  0  0  0  0  0  0  0  0  0  0  0
  186.0610  179.7510  147.4930 N   0  0  0  0  0  1  0  0  0  0  0  0
  185.4820  178.7240  146.6960 C   0  0  0  0  0  0  0  0  0  0  0  0
  186.4020  177.9870  141.8620 N   0  0  0  0  0  2  0  0  0  0  0  0
  185.7550  179.0820  141.1510 C   0  0  0  0  0  2  0  0  0  0  0  0
  184.4990  178.5840  140.4630 C   0  0  0  0  0  2  0  0  0  0  0  0
  184.5760  178.8600  138.9720 C   0  0  0  0  0  2  0  0  0  0  0  0
  184.5280  177.5640  138.1830 C   0  0  0  0  0  2  0  0  0  0  0  0
  185.4360  177.6530  136.9680 C   0  0  0  0  0  2  0  0  0  0  0  0
  186.7900  177.0320  137.2700 C   0  0  0  0  0  2  0  0  0  0  0  0
  187.9210  179.1980  137.1000 O   0  0  0  0  0  0  0  0  0  0  0  0
  187.7010  178.0340  137.7980 N   0  0  0  0  0  0  0  0  0  0  0  0
  188.1950  177.8910  138.9330 O   0  0  0  0  0  0  0  0  0  0  0  0
  189.0010  177.9020  143.6810 C   0  0  0  0  0  2  0  0  0  0  0  0
  190.2410  177.3410  141.6180 N   0  0  0  0  0  2  0  0  0  0  0  0
  191.1810  177.6350  142.7090 C   0  0  2  0  0  3  0  0  0  0  0  0
  191.2100  176.5070  143.7170 C   0  0  2  0  0  3  0  0  0  0  0  0
  189.9320  176.9130  142.9890 C   0  0  1  0  0  0  0  0  0  0  0  0
  191.3500  177.0850  145.1200 C   0  0  0  0  0  2  0  0  0  0  0  0
  191.8790  176.0450  146.0460 C   0  0  0  0  0  0  0  0  0  0  0  0
  192.2950  174.9520  145.5760 O   0  0  0  0  0  0  0  0  0  0  0  0
  191.9460  176.3010  147.4910 C   0  0  0  0  0  0  0  0  0  0  0  0
  192.7490  175.6530  148.2140 O   0  0  0  0  0  1  0  0  0  0  0  0
  191.1250  177.2610  148.0700 O   0  0  0  0  0  0  0  0  0  0  0  0
  1  4  1  0  0  0  0
  1  6  2  0  0  0  0
  3  5  2  0  0  0  0
  3  2  1  0  0  0  0
  4 20  1  6  0  0  0
  4  3  1  0  0  0  0
  5  9  1  0  0  0  0
  6  5  1  0  0  0  0
  9  7  2  0  0  0  0
  9  8  1  0  0  0  0
 10  1  1  0  0  0  0
 11 10  1  0  0  0  0
 12 11  1  0  0  0  0
 13 12  1  0  0  0  0
 14 13  1  0  0  0  0
 15 16  1  0  0  0  0
 15 14  1  0  0  0  0
 16 18  1  0  0  0  0
 17 18  2  0  0  0  0
 18 19  2  0  0  0  0
 21 24  1  0  0  0  0
 22 21  1  6  0  0  0
 22 24  1  0  0  0  0
 22 23  1  0  0  0  0
 23 25  1  1  0  0  0
 24 20  1  1  0  0  0
 24 23  1  0  0  0  0
 25 26  1  0  0  0  0
 26 28  1  0  0  0  0
 27 26  2  0  0  0  0
 28 30  2  0  0  0  0
 28 29  1  0  0  0  0
M  END
>  <MODEL>
6

>  <REMARK>
 VINA RESULT:      -7.0      2.286      5.961
  Name = 
  14 active torsions:
  status: ('A' for Active; 'I' for Inactive)
    1  A    between atoms: C_2  and  N_8
    2  A    between atoms: C_2  and  C_10
    3  A    between atoms: C_4  and  N_8
    4  A    between atoms: C_5  and  C_22
    5  A    between atoms: C_10  and  C_12
    6  A    between atoms: C_11  and  C_15
    7  A    between atoms: C_11  and  C_22
    8  A    between atoms: C_12  and  C_28
    9  A    between atoms: N_13  and  C_18
   10  A    between atoms: C_18  and  C_25
   11  A    between atoms: C_21  and  C_24
   12  A    between atoms: C_23  and  C_24
   13  A    between atoms: C_25  and  C_28
   14  A    between atoms: C_27  and  C_29
                            x       y       z     vdW  Elec       q    Type
                         _______ _______ _______ _____ _____    ______ ____

>  <TORSDO>
F 14

$$$$
=
 OpenBabel11042412053D

 30 32  0  0  1  0  0  0  0  0999 V2000
  183.5470  179.0590  144.3720 C   0  0  0  0  0  0  0  0  0  0  0  0
  181.9740  178.7930  140.9820 C   0  0  0  0  0  1  0  0  0  0  0  0
  182.3590  178.8450  142.4230 C   0  0  0  0  0  0  0  0  0  0  0  0
  183.7600  179.0570  142.8930 C   0  0  2  0  0  3  0  0  0  0  0  0
  181.5240  178.7370  143.4570 C   0  0  0  0  0  0  0  0  0  0  0  0
  182.2730  178.8770  144.6980 C   0  0  0  0  0  3  0  0  0  0  0  0
  179.5720  177.4990  142.8770 O   0  0  0  0  0  0  0  0  0  0  0  0
  179.1900  179.5130  143.9540 N   0  0  0  0  0  1  0  0  0  0  0  0
  180.0630  178.5320  143.4040 C   0  0  0  0  0  0  0  0  0  0  0  0
  184.5930  179.2850  145.3190 N   0  0  0  0  0  2  0  0  0  0  0  0
  185.0030  178.2810  146.2900 C   0  0  0  0  0  2  0  0  0  0  0  0
  186.3380  178.6630  146.9000 C   0  0  0  0  0  2  0  0  0  0  0  0
  187.2850  177.4760  146.8710 C   0  0  0  0  0  2  0  0  0  0  0  0
  188.6620  177.8770  147.3680 C   0  0  0  0  0  2  0  0  0  0  0  0
  189.6240  176.7060  147.2550 C   0  0  0  0  0  2  0  0  0  0  0  0
  191.0290  177.1300  147.6520 C   0  0  0  0  0  2  0  0  0  0  0  0
  192.0590  175.6520  145.9940 O   0  0  0  0  0  0  0  0  0  0  0  0
  191.9910  176.1020  147.2910 N   0  0  0  0  0  0  0  0  0  0  0  0
  192.8280  175.7100  148.1270 O   0  0  0  0  0  0  0  0  0  0  0  0
  184.6300  177.8770  142.4750 C   0  0  0  0  0  2  0  0  0  0  0  0
  185.4490  179.6750  140.9900 N   0  0  0  0  0  2  0  0  0  0  0  0
  186.3880  179.4720  142.1030 C   0  0  2  0  0  3  0  0  0  0  0  0
  187.1660  178.1870  141.9250 C   0  0  2  0  0  3  0  0  0  0  0  0
  185.7100  178.3200  141.4920 C   0  0  1  0  0  0  0  0  0  0  0  0
  187.3650  177.5240  143.2840 C   0  0  0  0  0  2  0  0  0  0  0  0
  188.7010  176.8680  143.3360 C   0  0  0  0  0  0  0  0  0  0  0  0
  188.7820  175.6170  143.2080 O   0  0  0  0  0  0  0  0  0  0  0  0
  189.9180  177.6730  143.5040 C   0  0  0  0  0  0  0  0  0  0  0  0
  189.9370  178.6320  144.3210 O   0  0  0  0  0  1  0  0  0  0  0  0
  191.0570  177.3820  142.7640 O   0  0  0  0  0  0  0  0  0  0  0  0
  1  6  2  0  0  0  0
  1 10  1  0  0  0  0
  2  3  1  0  0  0  0
  3  4  1  0  0  0  0
  3  5  2  0  0  0  0
  4 20  1  1  0  0  0
  4  1  1  0  0  0  0
  5  6  1  0  0  0  0
  7  9  2  0  0  0  0
  9  5  1  0  0  0  0
  9  8  1  0  0  0  0
 10 11  1  0  0  0  0
 11 12  1  0  0  0  0
 13 12  1  0  0  0  0
 13 14  1  0  0  0  0
 15 14  1  0  0  0  0
 15 16  1  0  0  0  0
 17 18  2  0  0  0  0
 18 16  1  0  0  0  0
 18 19  2  0  0  0  0
 21 24  1  0  0  0  0
 22 21  1  6  0  0  0
 23 22  1  0  0  0  0
 23 25  1  1  0  0  0
 24 23  1  0  0  0  0
 24 22  1  0  0  0  0
 24 20  1  1  0  0  0
 25 26  1  0  0  0  0
 26 28  1  0  0  0  0
 27 26  2  0  0  0  0
 28 29  1  0  0  0  0
 30 28  2  0  0  0  0
M  END
>  <MODEL>
7

>  <REMARK>
 VINA RESULT:      -6.9      3.203      8.083
  Name = 
  14 active torsions:
  status: ('A' for Active; 'I' for Inactive)
    1  A    between atoms: C_2  and  N_8
    2  A    between atoms: C_2  and  C_10
    3  A    between atoms: C_4  and  N_8
    4  A    between atoms: C_5  and  C_22
    5  A    between atoms: C_10  and  C_12
    6  A    between atoms: C_11  and  C_15
    7  A    between atoms: C_11  and  C_22
    8  A    between atoms: C_12  and  C_28
    9  A    between atoms: N_13  and  C_18
   10  A    between atoms: C_18  and  C_25
   11  A    between atoms: C_21  and  C_24
   12  A    between atoms: C_23  and  C_24
   13  A    between atoms: C_25  and  C_28
   14  A    between atoms: C_27  and  C_29
                            x       y       z     vdW  Elec       q    Type
                         _______ _______ _______ _____ _____    ______ ____

>  <TORSDO>
F 14

$$$$
=
 OpenBabel11042412053D

 30 32  0  0  1  0  0  0  0  0999 V2000
  184.9510  179.1450  144.8320 C   0  0  0  0  0  0  0  0  0  0  0  0
  183.7940  178.6960  141.2970 C   0  0  0  0  0  1  0  0  0  0  0  0
  183.9990  178.8580  142.7660 C   0  0  0  0  0  0  0  0  0  0  0  0
  185.3460  178.9620  143.4020 C   0  0  2  0  0  3  0  0  0  0  0  0
  183.0350  178.9540  143.6810 C   0  0  0  0  0  0  0  0  0  0  0  0
  183.6340  179.1420  144.9960 C   0  0  0  0  0  3  0  0  0  0  0  0
  180.9480  177.8190  143.4990 O   0  0  0  0  0  0  0  0  0  0  0  0
  180.8680  180.1080  143.1600 N   0  0  0  0  0  1  0  0  0  0  0  0
  181.5780  178.9080  143.4480 C   0  0  0  0  0  0  0  0  0  0  0  0
  185.8910  179.3540  145.8880 N   0  0  0  0  0  2  0  0  0  0  0  0
  186.1550  178.3530  146.9120 C   0  0  0  0  0  2  0  0  0  0  0  0
  187.3030  178.8040  147.7950 C   0  0  0  0  0  2  0  0  0  0  0  0
  187.9670  177.6020  148.4440 C   0  0  0  0  0  2  0  0  0  0  0  0
  189.4690  177.6410  148.2330 C   0  0  0  0  0  2  0  0  0  0  0  0
  189.9010  176.5070  147.3170 C   0  0  0  0  0  2  0  0  0  0  0  0
  191.3750  176.6390  146.9660 C   0  0  0  0  0  2  0  0  0  0  0  0
  191.2830  177.8990  144.8690 O   0  0  0  0  0  0  0  0  0  0  0  0
  191.5480  176.7210  145.5260 N   0  0  0  0  0  0  0  0  0  0  0  0
  192.0430  175.7620  144.9010 O   0  0  0  0  0  0  0  0  0  0  0  0
  186.1090  177.6560  143.2160 C   0  0  0  0  0  2  0  0  0  0  0  0
  188.0620  176.7840  144.4540 N   0  0  0  0  0  2  0  0  0  0  0  0
  188.2870  176.6650  143.0070 C   0  0  2  0  0  3  0  0  0  0  0  0
  188.5610  178.0190  142.3900 C   0  0  2  0  0  3  0  0  0  0  0  0
  187.5860  177.8380  143.5490 C   0  0  1  0  0  0  0  0  0  0  0  0
  187.9040  178.0910  141.0160 C   0  0  0  0  0  2  0  0  0  0  0  0
  188.9500  178.1240  139.9550 C   0  0  0  0  0  0  0  0  0  0  0  0
  188.8500  178.9550  139.0140 O   0  0  0  0  0  0  0  0  0  0  0  0
  190.1050  177.2190  140.0230 C   0  0  0  0  0  0  0  0  0  0  0  0
  190.0390  176.0670  139.5140 O   0  0  0  0  0  0  0  0  0  0  0  0
  191.2780  177.6260  140.6460 O   0  0  0  0  0  1  0  0  0  0  0  0
  1  6  2  0  0  0  0
  1 10  1  0  0  0  0
  2  3  1  0  0  0  0
  3  4  1  0  0  0  0
  3  5  2  0  0  0  0
  4 20  1  1  0  0  0
  4  1  1  0  0  0  0
  5  6  1  0  0  0  0
  8  9  1  0  0  0  0
  9  7  2  0  0  0  0
  9  5  1  0  0  0  0
 10 11  1  0  0  0  0
 11 12  1  0  0  0  0
 12 13  1  0  0  0  0
 14 13  1  0  0  0  0
 15 14  1  0  0  0  0
 16 15  1  0  0  0  0
 17 18  2  0  0  0  0
 18 16  1  0  0  0  0
 19 18  2  0  0  0  0
 22 24  1  0  0  0  0
 22 21  1  1  0  0  0
 23 25  1  6  0  0  0
 23 22  1  0  0  0  0
 23 24  1  0  0  0  0
 24 20  1  6  0  0  0
 24 21  1  0  0  0  0
 26 28  1  0  0  0  0
 26 25  1  0  0  0  0
 27 26  2  0  0  0  0
 28 30  1  0  0  0  0
 29 28  2  0  0  0  0
M  END
>  <MODEL>
8

>  <REMARK>
 VINA RESULT:      -6.9      2.440      7.324
  Name = 
  14 active torsions:
  status: ('A' for Active; 'I' for Inactive)
    1  A    between atoms: C_2  and  N_8
    2  A    between atoms: C_2  and  C_10
    3  A    between atoms: C_4  and  N_8
    4  A    between atoms: C_5  and  C_22
    5  A    between atoms: C_10  and  C_12
    6  A    between atoms: C_11  and  C_15
    7  A    between atoms: C_11  and  C_22
    8  A    between atoms: C_12  and  C_28
    9  A    between atoms: N_13  and  C_18
   10  A    between atoms: C_18  and  C_25
   11  A    between atoms: C_21  and  C_24
   12  A    between atoms: C_23  and  C_24
   13  A    between atoms: C_25  and  C_28
   14  A    between atoms: C_27  and  C_29
                            x       y       z     vdW  Elec       q    Type
                         _______ _______ _______ _____ _____    ______ ____

>  <TORSDO>
F 14

$$$$
=
 OpenBabel11042412053D

 30 32  0  0  1  0  0  0  0  0999 V2000
  187.5700  178.2550  141.4800 C   0  0  0  0  0  0  0  0  0  0  0  0
  186.8000  177.1880  144.9880 C   0  0  0  0  0  1  0  0  0  0  0  0
  186.8810  177.7470  143.6060 C   0  0  0  0  0  0  0  0  0  0  0  0
  188.0420  177.5250  142.6950 C   0  0  2  0  0  3  0  0  0  0  0  0
  185.9410  178.4790  143.0070 C   0  0  0  0  0  0  0  0  0  0  0  0
  186.3720  178.8000  141.6530 C   0  0  0  0  0  3  0  0  0  0  0  0
  183.5930  178.2510  143.3370 O   0  0  0  0  0  0  0  0  0  0  0  0
  184.5750  180.0590  144.3970 N   0  0  0  0  0  1  0  0  0  0  0  0
  184.6450  178.9010  143.5720 C   0  0  0  0  0  0  0  0  0  0  0  0
  188.3070  178.3100  140.2570 N   0  0  0  0  0  2  0  0  0  0  0  0
  189.1450  177.2110  139.7970 C   0  0  0  0  0  2  0  0  0  0  0  0
  189.8660  177.6070  138.5230 C   0  0  0  0  0  2  0  0  0  0  0  0
  189.0540  178.6400  137.7620 C   0  0  0  0  0  2  0  0  0  0  0  0
  188.6970  178.1290  136.3770 C   0  0  0  0  0  2  0  0  0  0  0  0
  187.2170  178.3390  136.1040 C   0  0  0  0  0  2  0  0  0  0  0  0
  186.3970  177.2210  136.7270 C   0  0  0  0  0  2  0  0  0  0  0  0
  185.6780  178.9800  138.2710 O   0  0  0  0  0  0  0  0  0  0  0  0
  185.4400  177.7640  137.6780 N   0  0  0  0  0  0  0  0  0  0  0  0
  184.3550  177.1830  137.8710 O   0  0  0  0  0  0  0  0  0  0  0  0
  189.2870  178.1870  143.2730 C   0  0  0  0  0  2  0  0  0  0  0  0
  191.4740  177.5510  142.3150 N   0  0  0  0  0  2  0  0  0  0  0  0
  191.6400  177.9800  143.7110 C   0  0  2  0  0  3  0  0  0  0  0  0
  191.1090  176.9320  144.6640 C   0  0  2  0  0  3  0  0  0  0  0  0
  190.4550  177.2070  143.3140 C   0  0  1  0  0  0  0  0  0  0  0  0
  190.4340  177.6190  145.8460 C   0  0  0  0  0  2  0  0  0  0  0  0
  190.4980  176.7400  147.0470 C   0  0  0  0  0  0  0  0  0  0  0  0
  189.4290  176.3720  147.6020 O   0  0  0  0  0  0  0  0  0  0  0  0
  191.7940  176.2810  147.5620 C   0  0  0  0  0  0  0  0  0  0  0  0
  192.4140  176.9620  148.4230 O   0  0  0  0  0  1  0  0  0  0  0  0
  192.3470  175.0900  147.1040 O   0  0  0  0  0  0  0  0  0  0  0  0
  1  6  2  0  0  0  0
  1  4  1  0  0  0  0
  3  2  1  0  0  0  0
  4 20  1  1  0  0  0
  4  3  1  0  0  0  0
  5  9  1  0  0  0  0
  5  3  2  0  0  0  0
  6  5  1  0  0  0  0
  7  9  2  0  0  0  0
  9  8  1  0  0  0  0
 10  1  1  0  0  0  0
 11 10  1  0  0  0  0
 12 11  1  0  0  0  0
 13 12  1  0  0  0  0
 14 13  1  0  0  0  0
 15 14  1  0  0  0  0
 15 16  1  0  0  0  0
 16 18  1  0  0  0  0
 18 19  2  0  0  0  0
 18 17  2  0  0  0  0
 21 24  1  0  0  0  0
 22 21  1  6  0  0  0
 22 23  1  0  0  0  0
 23 25  1  1  0  0  0
 24 20  1  6  0  0  0
 24 22  1  0  0  0  0
 24 23  1  0  0  0  0
 25 26  1  0  0  0  0
 26 28  1  0  0  0  0
 26 27  2  0  0  0  0
 28 29  1  0  0  0  0
 30 28  2  0  0  0  0
M  END
>  <MODEL>
9

>  <REMARK>
 VINA RESULT:      -6.9      1.972      6.044
  Name = 
  14 active torsions:
  status: ('A' for Active; 'I' for Inactive)
    1  A    between atoms: C_2  and  N_8
    2  A    between atoms: C_2  and  C_10
    3  A    between atoms: C_4  and  N_8
    4  A    between atoms: C_5  and  C_22
    5  A    between atoms: C_10  and  C_12
    6  A    between atoms: C_11  and  C_15
    7  A    between atoms: C_11  and  C_22
    8  A    between atoms: C_12  and  C_28
    9  A    between atoms: N_13  and  C_18
   10  A    between atoms: C_18  and  C_25
   11  A    between atoms: C_21  and  C_24
   12  A    between atoms: C_23  and  C_24
   13  A    between atoms: C_25  and  C_28
   14  A    between atoms: C_27  and  C_29
                            x       y       z     vdW  Elec       q    Type
                         _______ _______ _______ _____ _____    ______ ____

>  <TORSDO>
F 14

$$$$
