=
 OpenBabel11042410543D

 26 29  0  0  0  0  0  0  0  0999 V2000
  185.1840  178.5310  145.6510 C   0  0  0  0  0  0  0  0  0  0  0  0
  190.6330  177.0410  146.2320 C   0  0  0  0  0  3  0  0  0  0  0  0
  188.5600  177.5880  145.6930 C   0  0  0  0  0  0  0  0  0  0  0  0
  186.8420  178.3180  147.1340 N   0  0  0  0  0  0  0  0  0  0  0  0
  186.7130  177.6690  143.3790 S   0  0  0  0  0  0  0  0  0  0  0  0
  189.1260  177.2060  144.5000 C   0  0  0  0  0  0  0  0  0  0  0  0
  187.2740  178.0010  145.9130 C   0  0  0  0  0  0  0  0  0  0  0  0
  189.4250  177.4930  146.7330 C   0  0  0  0  0  0  0  0  0  0  0  0
  185.5330  178.6500  147.0120 C   0  0  0  0  0  3  0  0  0  0  0  0
  190.4510  176.8690  144.8410 C   0  0  0  0  0  0  0  0  0  0  0  0
  187.6630  178.2490  148.2290 C   0  0  0  0  0  3  0  0  0  0  0  0
  189.0140  177.8230  148.0440 C   0  0  0  0  0  3  0  0  0  0  0  0
  186.3170  178.1030  144.9760 C   0  0  0  0  0  0  0  0  0  0  0  0
  188.3770  177.1730  143.2880 C   0  0  0  0  0  0  0  0  0  0  0  0
  192.0050  175.2580  144.0190 O   0  0  0  0  0  1  0  0  0  0  0  0
  192.0560  177.3030  143.0070 O   0  0  0  0  0  0  0  0  0  0  0  0
  191.5480  176.4280  143.9610 C   0  0  0  0  0  0  0  0  0  0  0  0
  188.9420  176.7120  142.0590 N   0  0  0  0  0  2  0  0  0  0  0  0
  189.1320  177.5730  140.9030 C   0  0  0  0  0  1  0  0  0  0  0  0
  183.8300  178.7300  145.0670 C   0  0  0  0  0  2  0  0  0  0  0  0
  183.9340  179.5090  143.8460 N   0  0  0  0  0  2  0  0  0  0  0  0
  182.9900  178.9350  142.9030 C   0  0  0  0  0  2  0  0  0  0  0  0
  185.3230  179.2290  139.9010 N   0  0  0  0  0  1  0  0  0  0  0  0
  183.4110  177.5350  141.0240 O   0  0  0  0  0  0  0  0  0  0  0  0
  184.6570  179.5070  141.1010 N   0  0  0  0  0  2  0  0  0  0  0  0
  183.6910  178.6020  141.6330 C   0  0  0  0  0  0  0  0  0  0  0  0
  1  9  2  0  0  0  0
  2  8  1  0  0  0  0
  3  7  1  0  0  0  0
  3  8  2  0  0  0  0
  4 11  1  0  0  0  0
  5 13  1  0  0  0  0
  6 10  1  0  0  0  0
  6  3  1  0  0  0  0
  7  4  1  0  0  0  0
  8 12  1  0  0  0  0
  9  4  1  0  0  0  0
 10  2  2  0  0  0  0
 12 11  2  0  0  0  0
 13  1  1  0  0  0  0
 13  7  2  0  0  0  0
 14  5  1  0  0  0  0
 14  6  2  0  0  0  0
 16 17  2  0  0  0  0
 17 15  1  0  0  0  0
 17 10  1  0  0  0  0
 18 14  1  0  0  0  0
 19 18  1  0  0  0  0
 20  1  1  0  0  0  0
 21 20  1  0  0  0  0
 22 21  1  0  0  0  0
 23 25  1  0  0  0  0
 24 26  2  0  0  0  0
 25 26  1  0  0  0  0
 26 22  1  0  0  0  0
M  END
>  <MODEL>
1

>  <REMARK>
 VINA RESULT:      -9.1      0.000      0.000
  Name = 
  6 active torsions:
  status: ('A' for Active; 'I' for Inactive)
    1  A    between atoms: N_3  and  C_25
    2  A    between atoms: C_5  and  C_10
    3  A    between atoms: C_9  and  C_16
    4  A    between atoms: C_9  and  N_26
    5  A    between atoms: C_10  and  N_26
    6  A    between atoms: C_18  and  C_21
                            x       y       z     vdW  Elec       q    Type
                         _______ _______ _______ _____ _____    ______ ____

>  <TORSDO>
F 6

$$$$
=
 OpenBabel11042410543D

 26 29  0  0  0  0  0  0  0  0999 V2000
  185.1900  178.2900  143.3640 C   0  0  0  0  0  0  0  0  0  0  0  0
  188.9490  177.5520  147.5550 C   0  0  0  0  0  3  0  0  0  0  0  0
  187.7220  177.7580  145.7280 C   0  0  0  0  0  0  0  0  0  0  0  0
  185.4990  178.5280  145.5640 N   0  0  0  0  0  0  0  0  0  0  0  0
  187.7990  177.2260  142.8160 S   0  0  0  0  0  0  0  0  0  0  0  0
  188.9130  177.2410  145.2750 C   0  0  0  0  0  0  0  0  0  0  0  0
  186.6070  178.0550  144.9930 C   0  0  0  0  0  0  0  0  0  0  0  0
  187.7140  177.9440  147.0710 C   0  0  0  0  0  0  0  0  0  0  0  0
  184.5840  178.6820  144.5760 C   0  0  0  0  0  3  0  0  0  0  0  0
  189.6990  177.1220  146.4390 C   0  0  0  0  0  0  0  0  0  0  0  0
  185.4210  178.7430  146.9150 C   0  0  0  0  0  3  0  0  0  0  0  0
  186.5640  178.4480  147.7210 C   0  0  0  0  0  3  0  0  0  0  0  0
  186.4800  177.8830  143.6670 C   0  0  0  0  0  0  0  0  0  0  0  0
  189.1190  176.9130  143.9040 C   0  0  0  0  0  0  0  0  0  0  0  0
  192.0260  177.2040  145.9220 O   0  0  0  0  0  0  0  0  0  0  0  0
  191.3990  175.6430  147.4640 O   0  0  0  0  0  1  0  0  0  0  0  0
  191.0940  176.6610  146.5680 C   0  0  0  0  0  0  0  0  0  0  0  0
  190.3290  176.3130  143.4410 N   0  0  0  0  0  2  0  0  0  0  0  0
  191.2230  176.9620  142.4950 C   0  0  0  0  0  1  0  0  0  0  0  0
  184.5330  178.2300  142.0300 C   0  0  0  0  0  2  0  0  0  0  0  0
  185.0680  179.2740  141.1750 N   0  0  0  0  0  2  0  0  0  0  0  0
  184.4570  179.0990  139.8690 C   0  0  0  0  0  2  0  0  0  0  0  0
  187.7820  177.9610  138.3890 N   0  0  0  0  0  1  0  0  0  0  0  0
  185.0440  177.9820  137.8500 O   0  0  0  0  0  0  0  0  0  0  0  0
  186.8300  178.5120  139.2550 N   0  0  0  0  0  2  0  0  0  0  0  0
  185.4410  178.4910  138.9330 C   0  0  0  0  0  0  0  0  0  0  0  0
  1 13  1  0  0  0  0
  1  9  2  0  0  0  0
  3  8  2  0  0  0  0
  4 11  1  0  0  0  0
  5 13  1  0  0  0  0
  5 14  1  0  0  0  0
  6  3  1  0  0  0  0
  6 10  1  0  0  0  0
  7  4  1  0  0  0  0
  7  3  1  0  0  0  0
  8  2  1  0  0  0  0
  8 12  1  0  0  0  0
  9  4  1  0  0  0  0
 10 17  1  0  0  0  0
 10  2  2  0  0  0  0
 11 12  2  0  0  0  0
 13  7  2  0  0  0  0
 14  6  2  0  0  0  0
 15 17  2  0  0  0  0
 17 16  1  0  0  0  0
 18 14  1  0  0  0  0
 19 18  1  0  0  0  0
 20  1  1  0  0  0  0
 21 20  1  0  0  0  0
 22 21  1  0  0  0  0
 23 25  1  0  0  0  0
 24 26  2  0  0  0  0
 26 25  1  0  0  0  0
 26 22  1  0  0  0  0
M  END
>  <MODEL>
2

>  <REMARK>
 VINA RESULT:      -8.9      1.816      2.552
  Name = 
  6 active torsions:
  status: ('A' for Active; 'I' for Inactive)
    1  A    between atoms: N_3  and  C_25
    2  A    between atoms: C_5  and  C_10
    3  A    between atoms: C_9  and  C_16
    4  A    between atoms: C_9  and  N_26
    5  A    between atoms: C_10  and  N_26
    6  A    between atoms: C_18  and  C_21
                            x       y       z     vdW  Elec       q    Type
                         _______ _______ _______ _____ _____    ______ ____

>  <TORSDO>
F 6

$$$$
=
 OpenBabel11042410543D

 26 29  0  0  0  0  0  0  0  0999 V2000
  185.0460  178.5460  145.7160 C   0  0  0  0  0  0  0  0  0  0  0  0
  190.5310  177.1410  146.1400 C   0  0  0  0  0  3  0  0  0  0  0  0
  188.4360  177.6600  145.6610 C   0  0  0  0  0  0  0  0  0  0  0  0
  186.7430  178.3430  147.1550 N   0  0  0  0  0  0  0  0  0  0  0  0
  186.5300  177.7400  143.3960 S   0  0  0  0  0  0  0  0  0  0  0  0
  188.9780  177.3030  144.4490 C   0  0  0  0  0  0  0  0  0  0  0  0
  187.1500  178.0480  145.9190 C   0  0  0  0  0  0  0  0  0  0  0  0
  189.3290  177.5660  146.6770 C   0  0  0  0  0  0  0  0  0  0  0  0
  185.4270  178.6540  147.0700 C   0  0  0  0  0  3  0  0  0  0  0  0
  190.3160  176.9840  144.7530 C   0  0  0  0  0  0  0  0  0  0  0  0
  187.5920  178.2720  148.2280 C   0  0  0  0  0  3  0  0  0  0  0  0
  188.9450  177.8710  148.0040 C   0  0  0  0  0  3  0  0  0  0  0  0
  186.1680  178.1460  145.0080 C   0  0  0  0  0  0  0  0  0  0  0  0
  188.2000  177.2730  143.2560 C   0  0  0  0  0  0  0  0  0  0  0  0
  191.8480  175.3990  143.8430 O   0  0  0  0  0  1  0  0  0  0  0  0
  191.8980  177.4830  142.9150 O   0  0  0  0  0  0  0  0  0  0  0  0
  191.3980  176.5720  143.8390 C   0  0  0  0  0  0  0  0  0  0  0  0
  188.7410  176.8370  142.0080 N   0  0  0  0  0  2  0  0  0  0  0  0
  188.7880  177.6850  140.8270 C   0  0  0  0  0  1  0  0  0  0  0  0
  183.6740  178.7310  145.1700 C   0  0  0  0  0  2  0  0  0  0  0  0
  183.7310  179.5530  143.9740 N   0  0  0  0  0  2  0  0  0  0  0  0
  182.8870  178.9080  142.9840 C   0  0  0  0  0  2  0  0  0  0  0  0
  179.3240  178.4570  144.2660 N   0  0  0  0  0  1  0  0  0  0  0  0
  180.9380  180.2740  142.8960 O   0  0  0  0  0  0  0  0  0  0  0  0
  180.6750  178.2250  143.9820 N   0  0  0  0  0  2  0  0  0  0  0  0
  181.4570  179.1920  143.2830 C   0  0  0  0  0  0  0  0  0  0  0  0
  1  9  2  0  0  0  0
  2  8  1  0  0  0  0
  3  7  1  0  0  0  0
  3  8  2  0  0  0  0
  4 11  1  0  0  0  0
  5 13  1  0  0  0  0
  6 10  1  0  0  0  0
  6  3  1  0  0  0  0
  7  4  1  0  0  0  0
  8 12  1  0  0  0  0
  9  4  1  0  0  0  0
 10  2  2  0  0  0  0
 12 11  2  0  0  0  0
 13  1  1  0  0  0  0
 13  7  2  0  0  0  0
 14  5  1  0  0  0  0
 14  6  2  0  0  0  0
 16 17  2  0  0  0  0
 17 15  1  0  0  0  0
 17 10  1  0  0  0  0
 18 14  1  0  0  0  0
 19 18  1  0  0  0  0
 20  1  1  0  0  0  0
 21 20  1  0  0  0  0
 22 26  1  0  0  0  0
 22 21  1  0  0  0  0
 24 26  2  0  0  0  0
 25 23  1  0  0  0  0
 26 25  1  0  0  0  0
M  END
>  <MODEL>
3

>  <REMARK>
 VINA RESULT:      -8.9      1.459      2.033
  Name = 
  6 active torsions:
  status: ('A' for Active; 'I' for Inactive)
    1  A    between atoms: N_3  and  C_25
    2  A    between atoms: C_5  and  C_10
    3  A    between atoms: C_9  and  C_16
    4  A    between atoms: C_9  and  N_26
    5  A    between atoms: C_10  and  N_26
    6  A    between atoms: C_18  and  C_21
                            x       y       z     vdW  Elec       q    Type
                         _______ _______ _______ _____ _____    ______ ____

>  <TORSDO>
F 6

$$$$
=
 OpenBabel11042410543D

 26 29  0  0  0  0  0  0  0  0999 V2000
  190.2890  176.6080  142.1710 C   0  0  0  0  0  0  0  0  0  0  0  0
  188.1570  177.8620  147.2830 C   0  0  0  0  0  3  0  0  0  0  0  0
  188.6940  177.4300  145.1820 C   0  0  0  0  0  0  0  0  0  0  0  0
  190.7580  176.6450  144.3550 N   0  0  0  0  0  0  0  0  0  0  0  0
  187.6070  177.5980  142.4330 S   0  0  0  0  0  0  0  0  0  0  0  0
  187.4000  177.8880  145.1090 C   0  0  0  0  0  0  0  0  0  0  0  0
  189.5030  177.0440  144.1490 C   0  0  0  0  0  0  0  0  0  0  0  0
  189.1680  177.4120  146.4530 C   0  0  0  0  0  0  0  0  0  0  0  0
  191.2870  176.3680  143.1380 C   0  0  0  0  0  3  0  0  0  0  0  0
  187.0540  178.1510  146.4500 C   0  0  0  0  0  0  0  0  0  0  0  0
  191.3010  176.5980  145.6130 C   0  0  0  0  0  3  0  0  0  0  0  0
  190.4910  176.9920  146.7210 C   0  0  0  0  0  3  0  0  0  0  0  0
  189.1630  177.0510  142.8490 C   0  0  0  0  0  0  0  0  0  0  0  0
  186.7250  178.0430  143.8640 C   0  0  0  0  0  0  0  0  0  0  0  0
  184.7290  177.9220  146.9290 O   0  0  0  0  0  0  0  0  0  0  0  0
  185.7110  179.8510  147.6490 O   0  0  0  0  0  1  0  0  0  0  0  0
  185.7690  178.6250  146.9960 C   0  0  0  0  0  0  0  0  0  0  0  0
  185.4050  178.5830  143.7780 N   0  0  0  0  0  2  0  0  0  0  0  0
  184.5210  178.3340  142.6510 C   0  0  0  0  0  1  0  0  0  0  0  0
  190.4480  176.5020  140.6950 C   0  0  0  0  0  2  0  0  0  0  0  0
  190.3220  177.8180  140.0950 N   0  0  0  0  0  2  0  0  0  0  0  0
  190.0090  177.6090  138.6920 C   0  0  0  0  0  2  0  0  0  0  0  0
  186.3670  178.6830  138.3410 N   0  0  0  0  0  1  0  0  0  0  0  0
  188.9540  179.4810  137.6650 O   0  0  0  0  0  0  0  0  0  0  0  0
  187.5130  177.9570  138.6870 N   0  0  0  0  0  2  0  0  0  0  0  0
  188.8130  178.4140  138.3210 C   0  0  0  0  0  0  0  0  0  0  0  0
  1 13  1  0  0  0  0
  1  9  2  0  0  0  0
  3  8  2  0  0  0  0
  4 11  1  0  0  0  0
  5 13  1  0  0  0  0
  5 14  1  0  0  0  0
  6  3  1  0  0  0  0
  6 10  1  0  0  0  0
  7  4  1  0  0  0  0
  7  3  1  0  0  0  0
  8 12  1  0  0  0  0
  8  2  1  0  0  0  0
  9  4  1  0  0  0  0
 10 17  1  0  0  0  0
 10  2  2  0  0  0  0
 11 12  2  0  0  0  0
 13  7  2  0  0  0  0
 14  6  2  0  0  0  0
 15 17  2  0  0  0  0
 17 16  1  0  0  0  0
 18 14  1  0  0  0  0
 19 18  1  0  0  0  0
 20  1  1  0  0  0  0
 21 20  1  0  0  0  0
 22 21  1  0  0  0  0
 23 25  1  0  0  0  0
 24 26  2  0  0  0  0
 26 25  1  0  0  0  0
 26 22  1  0  0  0  0
M  END
>  <MODEL>
4

>  <REMARK>
 VINA RESULT:      -8.6      2.835      5.300
  Name = 
  6 active torsions:
  status: ('A' for Active; 'I' for Inactive)
    1  A    between atoms: N_3  and  C_25
    2  A    between atoms: C_5  and  C_10
    3  A    between atoms: C_9  and  C_16
    4  A    between atoms: C_9  and  N_26
    5  A    between atoms: C_10  and  N_26
    6  A    between atoms: C_18  and  C_21
                            x       y       z     vdW  Elec       q    Type
                         _______ _______ _______ _____ _____    ______ ____

>  <TORSDO>
F 6

$$$$
=
 OpenBabel11042410543D

 26 29  0  0  0  0  0  0  0  0999 V2000
  189.7500  177.4270  141.3920 C   0  0  0  0  0  0  0  0  0  0  0  0
  186.7530  177.9070  146.1910 C   0  0  0  0  0  3  0  0  0  0  0  0
  188.1740  177.6910  144.5120 C   0  0  0  0  0  0  0  0  0  0  0  0
  187.7140  177.8590  142.2050 N   0  0  0  0  0  0  0  0  0  0  0  0
  191.0050  177.0340  143.9440 S   0  0  0  0  0  0  0  0  0  0  0  0
  188.9420  177.4700  145.6300 C   0  0  0  0  0  0  0  0  0  0  0  0
  188.5730  177.6520  143.2040 C   0  0  0  0  0  0  0  0  0  0  0  0
  186.8760  177.9440  144.8140 C   0  0  0  0  0  0  0  0  0  0  0  0
  188.4130  177.7200  141.0520 C   0  0  0  0  0  3  0  0  0  0  0  0
  188.0380  177.6200  146.7010 C   0  0  0  0  0  0  0  0  0  0  0  0
  186.3890  178.1230  142.4370 C   0  0  0  0  0  3  0  0  0  0  0  0
  185.9300  178.1740  143.7890 C   0  0  0  0  0  3  0  0  0  0  0  0
  189.8160  177.3800  142.7760 C   0  0  0  0  0  0  0  0  0  0  0  0
  190.3230  177.1300  145.5400 C   0  0  0  0  0  0  0  0  0  0  0  0
  187.9010  176.5630  148.8340 O   0  0  0  0  0  1  0  0  0  0  0  0
  189.0540  178.5310  148.7670 O   0  0  0  0  0  0  0  0  0  0  0  0
  188.3010  177.5390  148.1500 C   0  0  0  0  0  0  0  0  0  0  0  0
  191.1070  176.8320  146.6960 N   0  0  0  0  0  2  0  0  0  0  0  0
  192.0560  175.7310  146.7450 C   0  0  0  0  0  1  0  0  0  0  0  0
  190.8560  177.1270  140.4430 C   0  0  0  0  0  2  0  0  0  0  0  0
  190.3400  176.3710  139.3160 N   0  0  0  0  0  2  0  0  0  0  0  0
  190.6830  177.1190  138.1190 C   0  0  0  0  0  2  0  0  0  0  0  0
  187.8170  179.3780  137.0100 N   0  0  0  0  0  1  0  0  0  0  0  0
  188.7780  176.7730  136.7320 O   0  0  0  0  0  0  0  0  0  0  0  0
  188.9900  178.9190  137.6230 N   0  0  0  0  0  2  0  0  0  0  0  0
  189.4400  177.5780  137.4420 C   0  0  0  0  0  0  0  0  0  0  0  0
  1 13  1  0  0  0  0
  2 10  2  0  0  0  0
  3  8  2  0  0  0  0
  3  6  1  0  0  0  0
  4 11  1  0  0  0  0
  4  7  1  0  0  0  0
  5 14  1  0  0  0  0
  6 10  1  0  0  0  0
  7  3  1  0  0  0  0
  8  2  1  0  0  0  0
  9  1  2  0  0  0  0
  9  4  1  0  0  0  0
 10 17  1  0  0  0  0
 11 12  2  0  0  0  0
 12  8  1  0  0  0  0
 13  7  2  0  0  0  0
 13  5  1  0  0  0  0
 14  6  2  0  0  0  0
 14 18  1  0  0  0  0
 17 16  2  0  0  0  0
 17 15  1  0  0  0  0
 18 19  1  0  0  0  0
 20  1  1  0  0  0  0
 21 20  1  0  0  0  0
 22 21  1  0  0  0  0
 23 25  1  0  0  0  0
 24 26  2  0  0  0  0
 26 25  1  0  0  0  0
 26 22  1  0  0  0  0
M  END
>  <MODEL>
5

>  <REMARK>
 VINA RESULT:      -8.4      3.184      5.647
  Name = 
  6 active torsions:
  status: ('A' for Active; 'I' for Inactive)
    1  A    between atoms: N_3  and  C_25
    2  A    between atoms: C_5  and  C_10
    3  A    between atoms: C_9  and  C_16
    4  A    between atoms: C_9  and  N_26
    5  A    between atoms: C_10  and  N_26
    6  A    between atoms: C_18  and  C_21
                            x       y       z     vdW  Elec       q    Type
                         _______ _______ _______ _____ _____    ______ ____

>  <TORSDO>
F 6

$$$$
=
 OpenBabel11042410543D

 26 29  0  0  0  0  0  0  0  0999 V2000
  187.8310  177.8390  146.0110 C   0  0  0  0  0  0  0  0  0  0  0  0
  183.5440  178.9970  142.4720 C   0  0  0  0  0  3  0  0  0  0  0  0
  185.3830  178.4890  143.5870 C   0  0  0  0  0  0  0  0  0  0  0  0
  185.6490  178.3140  145.9240 N   0  0  0  0  0  0  0  0  0  0  0  0
  188.2620  177.9300  143.1740 S   0  0  0  0  0  0  0  0  0  0  0  0
  185.7790  178.4880  142.2710 C   0  0  0  0  0  0  0  0  0  0  0  0
  186.1550  178.2540  144.6920 C   0  0  0  0  0  0  0  0  0  0  0  0
  184.0700  178.7940  143.7350 C   0  0  0  0  0  0  0  0  0  0  0  0
  186.6710  178.0670  146.7800 C   0  0  0  0  0  3  0  0  0  0  0  0
  184.6030  178.7990  141.5590 C   0  0  0  0  0  0  0  0  0  0  0  0
  184.3300  178.6140  146.1470 C   0  0  0  0  0  3  0  0  0  0  0  0
  183.4880  178.8660  145.0210 C   0  0  0  0  0  3  0  0  0  0  0  0
  187.4700  177.9780  144.6790 C   0  0  0  0  0  0  0  0  0  0  0  0
  187.1320  178.2500  141.8910 C   0  0  0  0  0  0  0  0  0  0  0  0
  184.0520  177.9020  139.4190 O   0  0  0  0  0  0  0  0  0  0  0  0
  184.5550  180.1270  139.4700 O   0  0  0  0  0  1  0  0  0  0  0  0
  184.4040  178.8980  140.1020 C   0  0  0  0  0  0  0  0  0  0  0  0
  187.5610  178.3160  140.5310 N   0  0  0  0  0  2  0  0  0  0  0  0
  188.7660  177.6600  140.0490 C   0  0  0  0  0  1  0  0  0  0  0  0
  189.2020  177.5970  146.5350 C   0  0  0  0  0  2  0  0  0  0  0  0
  189.8860  176.6360  145.6880 N   0  0  0  0  0  2  0  0  0  0  0  0
  191.2910  177.0040  145.6870 C   0  0  0  0  0  2  0  0  0  0  0  0
  192.0200  177.4010  141.9650 N   0  0  0  0  0  1  0  0  0  0  0  0
  191.9300  178.8610  144.3410 O   0  0  0  0  0  0  0  0  0  0  0  0
  191.6790  176.8400  143.2020 N   0  0  0  0  0  2  0  0  0  0  0  0
  191.6430  177.6350  144.3860 C   0  0  0  0  0  0  0  0  0  0  0  0
  1 20  1  0  0  0  0
  1  9  2  0  0  0  0
  2  8  1  0  0  0  0
  3  8  2  0  0  0  0
  3  7  1  0  0  0  0
  4 11  1  0  0  0  0
  4  9  1  0  0  0  0
  5 13  1  0  0  0  0
  6  3  1  0  0  0  0
  7  4  1  0  0  0  0
  8 12  1  0  0  0  0
 10  6  1  0  0  0  0
 10  2  2  0  0  0  0
 12 11  2  0  0  0  0
 13  7  2  0  0  0  0
 13  1  1  0  0  0  0
 14  6  2  0  0  0  0
 14  5  1  0  0  0  0
 15 17  2  0  0  0  0
 16 17  1  0  0  0  0
 17 10  1  0  0  0  0
 18 14  1  0  0  0  0
 19 18  1  0  0  0  0
 21 20  1  0  0  0  0
 22 21  1  0  0  0  0
 23 25  1  0  0  0  0
 24 26  2  0  0  0  0
 25 26  1  0  0  0  0
 26 22  1  0  0  0  0
M  END
>  <MODEL>
6

>  <REMARK>
 VINA RESULT:      -8.2      1.843      6.036
  Name = 
  6 active torsions:
  status: ('A' for Active; 'I' for Inactive)
    1  A    between atoms: N_3  and  C_25
    2  A    between atoms: C_5  and  C_10
    3  A    between atoms: C_9  and  C_16
    4  A    between atoms: C_9  and  N_26
    5  A    between atoms: C_10  and  N_26
    6  A    between atoms: C_18  and  C_21
                            x       y       z     vdW  Elec       q    Type
                         _______ _______ _______ _____ _____    ______ ____

>  <TORSDO>
F 6

$$$$
=
 OpenBabel11042410543D

 26 29  0  0  0  0  0  0  0  0999 V2000
  185.2820  178.2570  143.0150 C   0  0  0  0  0  0  0  0  0  0  0  0
  188.8610  177.5220  147.3610 C   0  0  0  0  0  3  0  0  0  0  0  0
  187.7160  177.7390  145.4830 C   0  0  0  0  0  0  0  0  0  0  0  0
  185.4810  178.4490  145.2320 N   0  0  0  0  0  0  0  0  0  0  0  0
  187.9440  177.2820  142.5660 S   0  0  0  0  0  0  0  0  0  0  0  0
  188.9410  177.2680  145.0740 C   0  0  0  0  0  0  0  0  0  0  0  0
  186.6280  178.0220  144.7030 C   0  0  0  0  0  0  0  0  0  0  0  0
  187.6390  177.8910  146.8280 C   0  0  0  0  0  0  0  0  0  0  0  0
  184.6090  178.6020  144.2050 C   0  0  0  0  0  3  0  0  0  0  0  0
  189.6750  177.1420  146.2710 C   0  0  0  0  0  0  0  0  0  0  0  0
  185.3340  178.6280  146.5830 C   0  0  0  0  0  3  0  0  0  0  0  0
  186.4460  178.3450  147.4340 C   0  0  0  0  0  3  0  0  0  0  0  0
  186.5680  177.8790  143.3690 C   0  0  0  0  0  0  0  0  0  0  0  0
  189.2210  176.9800  143.7070 C   0  0  0  0  0  0  0  0  0  0  0  0
  192.0200  177.3050  145.8700 O   0  0  0  0  0  0  0  0  0  0  0  0
  191.3690  175.6840  147.3370 O   0  0  0  0  0  1  0  0  0  0  0  0
  191.0760  176.7180  146.4550 C   0  0  0  0  0  0  0  0  0  0  0  0
  190.4680  176.4260  143.2880 N   0  0  0  0  0  2  0  0  0  0  0  0
  191.3880  177.1260  142.4050 C   0  0  0  0  0  1  0  0  0  0  0  0
  184.6900  178.2110  141.6500 C   0  0  0  0  0  2  0  0  0  0  0  0
  183.3030  178.6370  141.7040 N   0  0  0  0  0  2  0  0  0  0  0  0
  182.6970  178.2480  140.4430 C   0  0  0  0  0  2  0  0  0  0  0  0
  179.2950  177.9850  142.1470 N   0  0  0  0  0  1  0  0  0  0  0  0
  180.5390  177.5890  139.6810 O   0  0  0  0  0  0  0  0  0  0  0  0
  180.6580  178.2180  141.9250 N   0  0  0  0  0  2  0  0  0  0  0  0
  181.2420  178.0050  140.6410 C   0  0  0  0  0  0  0  0  0  0  0  0
  1 13  1  0  0  0  0
  1  9  2  0  0  0  0
  3  8  2  0  0  0  0
  4 11  1  0  0  0  0
  5 13  1  0  0  0  0
  5 14  1  0  0  0  0
  6  3  1  0  0  0  0
  6 10  1  0  0  0  0
  7  4  1  0  0  0  0
  7  3  1  0  0  0  0
  8  2  1  0  0  0  0
  8 12  1  0  0  0  0
  9  4  1  0  0  0  0
 10 17  1  0  0  0  0
 10  2  2  0  0  0  0
 11 12  2  0  0  0  0
 13  7  2  0  0  0  0
 14  6  2  0  0  0  0
 15 17  2  0  0  0  0
 17 16  1  0  0  0  0
 18 14  1  0  0  0  0
 19 18  1  0  0  0  0
 20 21  1  0  0  0  0
 20  1  1  0  0  0  0
 22 26  1  0  0  0  0
 22 21  1  0  0  0  0
 24 26  2  0  0  0  0
 25 23  1  0  0  0  0
 26 25  1  0  0  0  0
M  END
>  <MODEL>
7

>  <REMARK>
 VINA RESULT:      -8.2      2.100      2.826
  Name = 
  6 active torsions:
  status: ('A' for Active; 'I' for Inactive)
    1  A    between atoms: N_3  and  C_25
    2  A    between atoms: C_5  and  C_10
    3  A    between atoms: C_9  and  C_16
    4  A    between atoms: C_9  and  N_26
    5  A    between atoms: C_10  and  N_26
    6  A    between atoms: C_18  and  C_21
                            x       y       z     vdW  Elec       q    Type
                         _______ _______ _______ _____ _____    ______ ____

>  <TORSDO>
F 6

$$$$
=
 OpenBabel11042410543D

 26 29  0  0  0  0  0  0  0  0999 V2000
  190.2670  177.5000  141.2980 C   0  0  0  0  0  0  0  0  0  0  0  0
  186.9190  177.8330  145.8720 C   0  0  0  0  0  3  0  0  0  0  0  0
  188.4630  177.6750  144.2980 C   0  0  0  0  0  0  0  0  0  0  0  0
  188.1700  177.8810  141.9670 N   0  0  0  0  0  0  0  0  0  0  0  0
  191.3390  177.0750  143.9270 S   0  0  0  0  0  0  0  0  0  0  0  0
  189.1510  177.4440  145.4650 C   0  0  0  0  0  0  0  0  0  0  0  0
  188.9570  177.6690  143.0220 C   0  0  0  0  0  0  0  0  0  0  0  0
  187.1420  177.9000  144.5080 C   0  0  0  0  0  0  0  0  0  0  0  0
  188.9540  177.7770  140.8660 C   0  0  0  0  0  3  0  0  0  0  0  0
  188.1690  177.5570  146.4690 C   0  0  0  0  0  0  0  0  0  0  0  0
  186.8270  178.1180  142.1060 C   0  0  0  0  0  3  0  0  0  0  0  0
  186.2690  178.1340  143.4210 C   0  0  0  0  0  3  0  0  0  0  0  0
  190.2330  177.4250  142.6820 C   0  0  0  0  0  0  0  0  0  0  0  0
  190.5400  177.1280  145.4710 C   0  0  0  0  0  0  0  0  0  0  0  0
  188.2910  176.3380  148.5150 O   0  0  0  0  0  0  0  0  0  0  0  0
  188.5750  178.5960  148.6800 O   0  0  0  0  0  1  0  0  0  0  0  0
  188.3270  177.4500  147.9320 C   0  0  0  0  0  0  0  0  0  0  0  0
  191.2440  176.8200  146.6750 N   0  0  0  0  0  2  0  0  0  0  0  0
  192.0600  175.6260  146.8310 C   0  0  0  0  0  1  0  0  0  0  0  0
  191.4450  177.2370  140.4260 C   0  0  0  0  0  2  0  0  0  0  0  0
  191.0080  177.0770  139.0510 N   0  0  0  0  0  2  0  0  0  0  0  0
  192.1430  176.5530  138.3110 C   0  0  0  0  0  2  0  0  0  0  0  0
  190.2310  173.4390  137.2170 N   0  0  0  0  0  1  0  0  0  0  0  0
  192.8080  174.3170  137.8330 O   0  0  0  0  0  0  0  0  0  0  0  0
  190.5280  174.7540  137.5970 N   0  0  0  0  0  2  0  0  0  0  0  0
  191.8650  175.1510  137.8960 C   0  0  0  0  0  0  0  0  0  0  0  0
  1 13  1  0  0  0  0
  2 10  2  0  0  0  0
  3  8  2  0  0  0  0
  3  6  1  0  0  0  0
  4 11  1  0  0  0  0
  4  7  1  0  0  0  0
  5 14  1  0  0  0  0
  6 14  2  0  0  0  0
  6 10  1  0  0  0  0
  7  3  1  0  0  0  0
  8  2  1  0  0  0  0
  9  1  2  0  0  0  0
  9  4  1  0  0  0  0
 10 17  1  0  0  0  0
 11 12  2  0  0  0  0
 12  8  1  0  0  0  0
 13  7  2  0  0  0  0
 13  5  1  0  0  0  0
 14 18  1  0  0  0  0
 17 15  2  0  0  0  0
 17 16  1  0  0  0  0
 18 19  1  0  0  0  0
 20  1  1  0  0  0  0
 21 20  1  0  0  0  0
 22 21  1  0  0  0  0
 23 25  1  0  0  0  0
 24 26  2  0  0  0  0
 25 26  1  0  0  0  0
 26 22  1  0  0  0  0
M  END
>  <MODEL>
8

>  <REMARK>
 VINA RESULT:      -8.1      3.419      6.449
  Name = 
  6 active torsions:
  status: ('A' for Active; 'I' for Inactive)
    1  A    between atoms: N_3  and  C_25
    2  A    between atoms: C_5  and  C_10
    3  A    between atoms: C_9  and  C_16
    4  A    between atoms: C_9  and  N_26
    5  A    between atoms: C_10  and  N_26
    6  A    between atoms: C_18  and  C_21
                            x       y       z     vdW  Elec       q    Type
                         _______ _______ _______ _____ _____    ______ ____

>  <TORSDO>
F 6

$$$$
=
 OpenBabel11042410543D

 26 29  0  0  0  0  0  0  0  0999 V2000
  189.0850  177.4660  144.8920 C   0  0  0  0  0  0  0  0  0  0  0  0
  184.1160  178.8950  142.5450 C   0  0  0  0  0  3  0  0  0  0  0  0
  186.1560  178.3080  143.1600 C   0  0  0  0  0  0  0  0  0  0  0  0
  186.9460  177.9220  145.3490 N   0  0  0  0  0  0  0  0  0  0  0  0
  188.8590  177.8220  142.0520 S   0  0  0  0  0  0  0  0  0  0  0  0
  186.2420  178.4320  141.7940 C   0  0  0  0  0  0  0  0  0  0  0  0
  187.1570  177.9810  144.0330 C   0  0  0  0  0  0  0  0  0  0  0  0
  184.9140  178.5830  143.6300 C   0  0  0  0  0  0  0  0  0  0  0  0
  188.1330  177.6090  145.9230 C   0  0  0  0  0  3  0  0  0  0  0  0
  184.9380  178.7940  141.4000 C   0  0  0  0  0  0  0  0  0  0  0  0
  185.7150  178.1850  145.8930 C   0  0  0  0  0  3  0  0  0  0  0  0
  184.6410  178.5290  145.0160 C   0  0  0  0  0  3  0  0  0  0  0  0
  188.4310  177.7220  143.6960 C   0  0  0  0  0  0  0  0  0  0  0  0
  187.4700  178.2450  141.0960 C   0  0  0  0  0  0  0  0  0  0  0  0
  184.5530  180.1300  139.4630 O   0  0  0  0  0  1  0  0  0  0  0  0
  183.7970  177.9800  139.3590 O   0  0  0  0  0  0  0  0  0  0  0  0
  184.4130  179.0230  140.0420 C   0  0  0  0  0  0  0  0  0  0  0  0
  187.5780  178.4400  139.6850 N   0  0  0  0  0  2  0  0  0  0  0  0
  188.5970  177.7930  138.8730 C   0  0  0  0  0  1  0  0  0  0  0  0
  190.5370  177.1920  145.0650 C   0  0  0  0  0  2  0  0  0  0  0  0
  190.9070  177.3780  146.4570 N   0  0  0  0  0  2  0  0  0  0  0  0
  191.1670  176.0570  147.0000 C   0  0  0  0  0  2  0  0  0  0  0  0
  193.6330  177.2020  149.6740 N   0  0  0  0  0  1  0  0  0  0  0  0
  193.2920  175.2490  147.7110 O   0  0  0  0  0  0  0  0  0  0  0  0
  192.5020  177.1250  148.8520 N   0  0  0  0  0  2  0  0  0  0  0  0
  192.3760  176.1010  147.8670 C   0  0  0  0  0  0  0  0  0  0  0  0
  1 20  1  0  0  0  0
  1  9  2  0  0  0  0
  2  8  1  0  0  0  0
  3  8  2  0  0  0  0
  3  7  1  0  0  0  0
  4 11  1  0  0  0  0
  4  9  1  0  0  0  0
  5 13  1  0  0  0  0
  6  3  1  0  0  0  0
  7  4  1  0  0  0  0
  8 12  1  0  0  0  0
 10  6  1  0  0  0  0
 10  2  2  0  0  0  0
 12 11  2  0  0  0  0
 13  7  2  0  0  0  0
 13  1  1  0  0  0  0
 14  6  2  0  0  0  0
 14  5  1  0  0  0  0
 15 17  1  0  0  0  0
 16 17  2  0  0  0  0
 17 10  1  0  0  0  0
 18 14  1  0  0  0  0
 19 18  1  0  0  0  0
 20 21  1  0  0  0  0
 21 22  1  0  0  0  0
 22 26  1  0  0  0  0
 24 26  2  0  0  0  0
 25 23  1  0  0  0  0
 26 25  1  0  0  0  0
M  END
>  <MODEL>
9

>  <REMARK>
 VINA RESULT:      -8.1      2.715      7.044
  Name = 
  6 active torsions:
  status: ('A' for Active; 'I' for Inactive)
    1  A    between atoms: N_3  and  C_25
    2  A    between atoms: C_5  and  C_10
    3  A    between atoms: C_9  and  C_16
    4  A    between atoms: C_9  and  N_26
    5  A    between atoms: C_10  and  N_26
    6  A    between atoms: C_18  and  C_21
                            x       y       z     vdW  Elec       q    Type
                         _______ _______ _______ _____ _____    ______ ____

>  <TORSDO>
F 6

$$$$
