=
 OpenBabel11032421213D

 43 44  0  0  1  0  0  0  0  0999 V2000
  188.6650  178.0200  141.8790 C   0  0  2  0  0  3  0  0  0  0  0  0
  190.6430  176.4640  139.1520 C   0  0  1  0  0  3  0  0  0  0  0  0
  191.3050  177.7790  141.0490 O   0  0  0  0  0  1  0  0  0  0  0  0
  188.7840  177.7320  139.3570 C   0  0  0  0  0  2  0  0  0  0  0  0
  189.0400  177.0930  140.7100 C   0  0  1  0  0  3  0  0  0  0  0  0
  190.4950  176.7140  140.6410 C   0  0  1  0  0  3  0  0  0  0  0  0
  189.7660  177.3040  138.4400 O   0  0  0  0  0  0  0  0  0  0  0  0
  192.0810  176.5360  138.6290 C   0  0  0  0  0  2  0  0  0  0  0  0
  191.5440  174.3470  137.8520 O   0  0  0  0  0  1  0  0  0  0  0  0
  192.3970  175.4290  137.6360 C   0  0  2  0  0  3  0  0  0  0  0  0
  193.8380  174.9880  137.8090 C   0  0  0  0  0  2  0  0  0  0  0  0
  194.4350  174.8050  136.5620 O   0  0  0  0  0  0  0  0  0  0  0  0
  194.7710  173.4510  136.5240 C   0  0  0  0  0  1  0  0  0  0  0  0
  188.6980  177.2760  143.1840 C   0  0  0  0  0  3  0  0  0  0  0  0
  189.1590  177.8550  144.2950 C   0  0  0  0  0  3  0  0  0  0  0  0
  189.1880  177.1330  145.6150 C   0  0  2  0  0  3  0  0  0  0  0  0
  188.8610  178.1230  146.7330 C   0  0  0  0  0  2  0  0  0  0  0  0
  187.8400  177.7690  148.9120 N   0  0  0  0  0  1  0  0  0  0  0  0
  187.6040  177.7110  147.4820 C   0  0  0  0  0  2  0  0  0  0  0  0
  190.5390  176.4280  145.8520 C   0  0  1  0  0  3  0  0  0  0  0  0
  191.8820  175.6640  143.8550 N   0  0  0  0  0  1  0  0  0  0  0  0
  191.5170  176.7050  144.7500 C   0  0  0  0  0  0  0  0  0  0  0  0
  192.0200  177.8520  144.6120 O   0  0  0  0  0  0  0  0  0  0  0  0
  191.1510  176.8270  147.1920 C   0  0  0  0  0  2  0  0  0  0  0  0
  192.0570  175.8520  147.6100 O   0  0  0  0  0  1  0  0  0  0  0  0
  186.2660  178.3480  142.4460 C   0  0  0  0  0  3  0  0  0  0  0  0
  187.3120  178.6520  141.6730 C   0  0  0  0  0  3  0  0  0  0  0  0
  184.9370  179.0040  142.2400 C   0  0  1  0  0  3  0  0  0  0  0  0
  184.5130  178.8550  140.8060 C   0  0  0  0  0  3  0  0  0  0  0  0
  182.5080  177.3130  140.1640 C   0  0  0  0  0  0  0  0  0  0  0  0
  183.5080  178.0850  140.4820 C   0  0  0  0  0  0  0  0  0  0  0  0
  181.2530  177.5450  140.7100 O   0  0  0  0  0  1  0  0  0  0  0  0
  182.7220  176.1520  139.2580 C   0  0  0  0  0  2  0  0  0  0  0  0
  183.1130  176.6150  137.9710 O   0  0  0  0  0  0  0  0  0  0  0  0
  186.5120  177.2930  136.4590 C   0  0  0  0  0  0  0  0  0  0  0  0
  184.7570  175.1440  137.3020 O   0  0  0  0  0  0  0  0  0  0  0  0
  184.3710  176.3370  137.4390 C   0  0  0  0  0  0  0  0  0  0  0  0
  187.2910  178.5160  136.1320 C   0  0  0  0  0  1  0  0  0  0  0  0
  185.2140  177.4250  137.0480 N   0  0  0  0  0  2  0  0  0  0  0  0
  186.9980  176.1610  136.1980 O   0  0  0  0  0  0  0  0  0  0  0  0
  183.3170  179.5760  144.1580 C   0  0  0  0  0  2  0  0  0  0  0  0
  184.4390  178.7180  144.7090 C   0  0  0  0  0  2  0  0  0  0  0  0
  183.9340  178.4860  143.2970 C   0  0  0  0  0  3  0  0  0  0  0  0
  1 27  1  6  0  0  0
  1 14  1  0  0  0  0
  2  8  1  6  0  0  0
  2  6  1  0  0  0  0
  4  5  1  0  0  0  0
  5  1  1  1  0  0  0
  6  5  1  0  0  0  0
  6  3  1  6  0  0  0
  7  2  1  0  0  0  0
  7  4  1  0  0  0  0
 10 11  1  0  0  0  0
 10  9  1  1  0  0  0
 10  8  1  0  0  0  0
 12 11  1  0  0  0  0
 13 12  1  0  0  0  0
 14 15  2  0  0  0  0
 16 15  1  6  0  0  0
 16 20  1  0  0  0  0
 16 17  1  0  0  0  0
 17 19  1  0  0  0  0
 19 18  1  0  0  0  0
 20 24  1  1  0  0  0
 21 22  1  0  0  0  0
 22 20  1  0  0  0  0
 23 22  2  0  0  0  0
 24 25  1  0  0  0  0
 27 26  2  0  0  0  0
 28 29  1  6  0  0  0
 28 26  1  0  0  0  0
 28 43  1  0  0  0  0
 30 31  2  0  0  0  0
 30 32  1  0  0  0  0
 31 29  2  0  0  0  0
 33 30  1  0  0  0  0
 34 33  1  0  0  0  0
 35 39  1  0  0  0  0
 36 37  2  0  0  0  0
 37 34  1  0  0  0  0
 38 35  1  0  0  0  0
 39 37  1  0  0  0  0
 40 35  2  0  0  0  0
 41 42  1  0  0  0  0
 43 41  1  0  0  0  0
 43 42  1  0  0  0  0
M  END
>  <MODEL>
1

>  <REMARK>
 VINA RESULT:      -7.3      0.000      0.000
  Name = 
  19 active torsions:
  status: ('A' for Active; 'I' for Inactive)
    1  A    between atoms: C_1  and  C_36
    2  A    between atoms: C_2  and  C_18
    3  A    between atoms: C_2  and  O_31
    4  A    between atoms: O_3  and  C_11
    5  A    between atoms: C_7  and  C_20
    6  A    between atoms: C_7  and  C_33
    7  A    between atoms: C_7  and  C_35
    8  A    between atoms: C_9  and  C_29
    9  A    between atoms: C_11  and  C_32
   10  A    between atoms: C_12  and  C_27
   11  A    between atoms: C_14  and  C_15
   12  A    between atoms: C_14  and  C_24
   13  A    between atoms: C_15  and  C_29
   14  A    between atoms: C_15  and  C_40
   15  A    between atoms: C_16  and  C_27
   16  A    between atoms: C_19  and  O_31
   17  A    between atoms: C_27  and  C_43
   18  A    between atoms: C_28  and  C_29
   19  A    between atoms: C_32  and  C_36
                            x       y       z     vdW  Elec       q    Type
                         _______ _______ _______ _____ _____    ______ ____

>  <TORSDO>
F 19

$$$$
=
 OpenBabel11032421213D

 43 44  0  0  1  0  0  0  0  0999 V2000
  188.2780  178.6000  141.6180 C   0  0  2  0  0  3  0  0  0  0  0  0
  190.0300  176.8190  144.3630 C   0  0  1  0  0  3  0  0  0  0  0  0
  190.6020  178.7990  143.1290 O   0  0  0  0  0  1  0  0  0  0  0  0
  189.0310  176.3030  142.4020 C   0  0  0  0  0  2  0  0  0  0  0  0
  188.5170  177.6680  142.8190 C   0  0  1  0  0  3  0  0  0  0  0  0
  189.5590  178.1450  143.7950 C   0  0  1  0  0  3  0  0  0  0  0  0
  189.9260  175.8180  143.3780 O   0  0  0  0  0  0  0  0  0  0  0  0
  191.4130  176.8580  145.0200 C   0  0  0  0  0  2  0  0  0  0  0  0
  192.2900  176.2020  147.1380 O   0  0  0  0  0  1  0  0  0  0  0  0
  191.3370  177.0190  146.5300 C   0  0  2  0  0  3  0  0  0  0  0  0
  189.9520  176.6360  147.0120 C   0  0  0  0  0  2  0  0  0  0  0  0
  189.3980  177.6790  147.7530 O   0  0  0  0  0  0  0  0  0  0  0  0
  188.0180  177.5080  147.6340 C   0  0  0  0  0  1  0  0  0  0  0  0
  186.9020  179.1980  141.6690 C   0  0  0  0  0  3  0  0  0  0  0  0
  185.8190  178.4260  141.7840 C   0  0  0  0  0  3  0  0  0  0  0  0
  184.4320  179.0070  141.8510 C   0  0  2  0  0  3  0  0  0  0  0  0
  183.7600  178.5440  143.1440 C   0  0  0  0  0  2  0  0  0  0  0  0
  183.8780  178.9790  145.5340 N   0  0  0  0  0  1  0  0  0  0  0  0
  183.8590  179.6060  144.2260 C   0  0  0  0  0  2  0  0  0  0  0  0
  183.5960  178.6390  140.6080 C   0  0  1  0  0  3  0  0  0  0  0  0
  184.4270  180.3820  138.9810 N   0  0  0  0  0  1  0  0  0  0  0  0
  184.2930  179.0120  139.3340 C   0  0  0  0  0  0  0  0  0  0  0  0
  184.7580  178.1230  138.5720 O   0  0  0  0  0  0  0  0  0  0  0  0
  183.2510  177.1530  140.5860 C   0  0  0  0  0  2  0  0  0  0  0  0
  181.9640  176.9710  140.0790 O   0  0  0  0  0  1  0  0  0  0  0  0
  189.2840  178.3670  139.3560 C   0  0  0  0  0  3  0  0  0  0  0  0
  188.4860  177.8800  140.3100 C   0  0  0  0  0  3  0  0  0  0  0  0
  189.4950  177.6260  138.0730 C   0  0  1  0  0  3  0  0  0  0  0  0
  190.2640  176.3620  138.3350 C   0  0  0  0  0  3  0  0  0  0  0  0
  192.8640  176.4080  138.5600 C   0  0  0  0  0  0  0  0  0  0  0  0
  191.5660  176.3830  138.4500 C   0  0  0  0  0  0  0  0  0  0  0  0
  193.4610  177.1980  139.5330 O   0  0  0  0  0  1  0  0  0  0  0  0
  193.7070  175.6310  137.6120 C   0  0  0  0  0  2  0  0  0  0  0  0
  194.8610  175.1430  138.2850 O   0  0  0  0  0  0  0  0  0  0  0  0
  197.1280  172.3510  137.1190 C   0  0  0  0  0  0  0  0  0  0  0  0
  196.6900  175.2080  136.8830 O   0  0  0  0  0  0  0  0  0  0  0  0
  195.9080  174.5270  137.6020 C   0  0  0  0  0  0  0  0  0  0  0  0
  197.1680  170.8780  137.3170 C   0  0  0  0  0  1  0  0  0  0  0  0
  196.0830  173.1130  137.7320 N   0  0  0  0  0  2  0  0  0  0  0  0
  198.0230  172.9080  136.4300 O   0  0  0  0  0  0  0  0  0  0  0  0
  188.2050  177.6820  135.8450 C   0  0  0  0  0  2  0  0  0  0  0  0
  187.6520  178.7620  136.7550 C   0  0  0  0  0  2  0  0  0  0  0  0
  188.1410  177.4530  137.3460 C   0  0  0  0  0  3  0  0  0  0  0  0
  1 27  1  6  0  0  0
  1 14  1  0  0  0  0
  2  8  1  6  0  0  0
  4  5  1  0  0  0  0
  4  7  1  0  0  0  0
  5  1  1  6  0  0  0
  5  6  1  0  0  0  0
  6  3  1  6  0  0  0
  6  2  1  0  0  0  0
  7  2  1  0  0  0  0
  8 10  1  0  0  0  0
 10 11  1  0  0  0  0
 10  9  1  1  0  0  0
 11 12  1  0  0  0  0
 13 12  1  0  0  0  0
 14 15  2  0  0  0  0
 16 15  1  6  0  0  0
 16 17  1  0  0  0  0
 17 19  1  0  0  0  0
 19 18  1  0  0  0  0
 20 24  1  6  0  0  0
 20 16  1  0  0  0  0
 21 22  1  0  0  0  0
 22 20  1  0  0  0  0
 23 22  2  0  0  0  0
 25 24  1  0  0  0  0
 26 27  2  0  0  0  0
 28 29  1  1  0  0  0
 28 26  1  0  0  0  0
 29 31  2  0  0  0  0
 30 32  1  0  0  0  0
 31 30  2  0  0  0  0
 33 34  1  0  0  0  0
 33 30  1  0  0  0  0
 35 38  1  0  0  0  0
 35 39  1  0  0  0  0
 36 37  2  0  0  0  0
 37 39  1  0  0  0  0
 37 34  1  0  0  0  0
 40 35  2  0  0  0  0
 41 42  1  0  0  0  0
 41 43  1  0  0  0  0
 42 43  1  0  0  0  0
 43 28  1  0  0  0  0
M  END
>  <MODEL>
2

>  <REMARK>
 VINA RESULT:      -7.3      2.269      8.775
  Name = 
  19 active torsions:
  status: ('A' for Active; 'I' for Inactive)
    1  A    between atoms: C_1  and  C_36
    2  A    between atoms: C_2  and  C_18
    3  A    between atoms: C_2  and  O_31
    4  A    between atoms: O_3  and  C_11
    5  A    between atoms: C_7  and  C_20
    6  A    between atoms: C_7  and  C_33
    7  A    between atoms: C_7  and  C_35
    8  A    between atoms: C_9  and  C_29
    9  A    between atoms: C_11  and  C_32
   10  A    between atoms: C_12  and  C_27
   11  A    between atoms: C_14  and  C_15
   12  A    between atoms: C_14  and  C_24
   13  A    between atoms: C_15  and  C_29
   14  A    between atoms: C_15  and  C_40
   15  A    between atoms: C_16  and  C_27
   16  A    between atoms: C_19  and  O_31
   17  A    between atoms: C_27  and  C_43
   18  A    between atoms: C_28  and  C_29
   19  A    between atoms: C_32  and  C_36
                            x       y       z     vdW  Elec       q    Type
                         _______ _______ _______ _____ _____    ______ ____

>  <TORSDO>
F 19

$$$$
=
 OpenBabel11032421213D

 43 44  0  0  1  0  0  0  0  0999 V2000
  189.0780  178.0760  141.8100 C   0  0  2  0  0  3  0  0  0  0  0  0
  190.5790  176.6650  144.8980 C   0  0  1  0  0  3  0  0  0  0  0  0
  190.7440  178.8420  143.8970 O   0  0  0  0  0  1  0  0  0  0  0  0
  190.3340  176.0680  142.7310 C   0  0  0  0  0  2  0  0  0  0  0  0
  189.3060  177.1470  143.0150 C   0  0  1  0  0  3  0  0  0  0  0  0
  189.8490  177.8240  144.2450 C   0  0  1  0  0  3  0  0  0  0  0  0
  191.0650  175.7930  143.9050 O   0  0  0  0  0  0  0  0  0  0  0  0
  191.6580  177.0720  145.9050 C   0  0  0  0  0  2  0  0  0  0  0  0
  191.7680  175.3900  147.5920 O   0  0  0  0  0  1  0  0  0  0  0  0
  191.3030  176.6780  147.3310 C   0  0  2  0  0  3  0  0  0  0  0  0
  189.7980  176.7250  147.5100 C   0  0  0  0  0  2  0  0  0  0  0  0
  189.4380  177.8600  148.2360 O   0  0  0  0  0  0  0  0  0  0  0  0
  188.0500  177.7820  148.3530 C   0  0  0  0  0  1  0  0  0  0  0  0
  187.6490  178.5350  141.7500 C   0  0  0  0  0  3  0  0  0  0  0  0
  186.7380  178.0630  142.6040 C   0  0  0  0  0  3  0  0  0  0  0  0
  185.3040  178.5200  142.5710 C   0  0  2  0  0  3  0  0  0  0  0  0
  185.1250  179.5180  141.4270 C   0  0  0  0  0  2  0  0  0  0  0  0
  184.4790  179.7740  139.0950 N   0  0  0  0  0  1  0  0  0  0  0  0
  184.4590  178.8650  140.2270 C   0  0  0  0  0  2  0  0  0  0  0  0
  184.8600  179.1130  143.9230 C   0  0  1  0  0  3  0  0  0  0  0  0
  182.5260  178.7920  143.0130 N   0  0  0  0  0  1  0  0  0  0  0  0
  183.3810  178.9860  144.1320 C   0  0  0  0  0  0  0  0  0  0  0  0
  182.8880  179.0520  145.2900 O   0  0  0  0  0  0  0  0  0  0  0  0
  185.5990  178.4620  145.0880 C   0  0  0  0  0  2  0  0  0  0  0  0
  185.8810  179.4180  146.0650 O   0  0  0  0  0  1  0  0  0  0  0  0
  189.2680  177.9950  139.3320 C   0  0  0  0  0  3  0  0  0  0  0  0
  189.4660  177.4080  140.5160 C   0  0  0  0  0  3  0  0  0  0  0  0
  189.6820  177.3250  138.0600 C   0  0  1  0  0  3  0  0  0  0  0  0
  190.5200  176.1160  138.3690 C   0  0  0  0  0  3  0  0  0  0  0  0
  193.0930  176.3400  138.7410 C   0  0  0  0  0  0  0  0  0  0  0  0
  191.8080  176.2270  138.5570 C   0  0  0  0  0  0  0  0  0  0  0  0
  193.5780  177.1690  139.7430 O   0  0  0  0  0  1  0  0  0  0  0  0
  194.0400  175.6240  137.8440 C   0  0  0  0  0  2  0  0  0  0  0  0
  195.1290  175.1160  138.6050 O   0  0  0  0  0  0  0  0  0  0  0  0
  197.9820  174.1540  136.3180 C   0  0  0  0  0  0  0  0  0  0  0  0
  196.2630  173.1180  138.4110 O   0  0  0  0  0  0  0  0  0  0  0  0
  196.1160  174.3130  138.0350 C   0  0  0  0  0  0  0  0  0  0  0  0
  198.7990  174.8660  135.3010 C   0  0  0  0  0  1  0  0  0  0  0  0
  196.9540  174.8650  137.0150 N   0  0  0  0  0  2  0  0  0  0  0  0
  198.1960  172.9320  136.5400 O   0  0  0  0  0  0  0  0  0  0  0  0
  187.8120  178.3370  136.6060 C   0  0  0  0  0  2  0  0  0  0  0  0
  187.1810  177.6540  137.8030 C   0  0  0  0  0  2  0  0  0  0  0  0
  188.4370  177.0750  137.1770 C   0  0  0  0  0  3  0  0  0  0  0  0
  1 27  1  6  0  0  0
  2  8  1  6  0  0  0
  4  5  1  0  0  0  0
  4  7  1  0  0  0  0
  5  1  1  6  0  0  0
  5  6  1  0  0  0  0
  6  3  1  6  0  0  0
  6  2  1  0  0  0  0
  7  2  1  0  0  0  0
  8 10  1  0  0  0  0
 10 11  1  0  0  0  0
 10  9  1  6  0  0  0
 11 12  1  0  0  0  0
 12 13  1  0  0  0  0
 14  1  1  0  0  0  0
 14 15  2  0  0  0  0
 16 17  1  6  0  0  0
 16 15  1  0  0  0  0
 16 20  1  0  0  0  0
 18 19  1  0  0  0  0
 19 17  1  0  0  0  0
 20 22  1  0  0  0  0
 20 24  1  1  0  0  0
 21 22  1  0  0  0  0
 22 23  2  0  0  0  0
 24 25  1  0  0  0  0
 26 27  2  0  0  0  0
 28 29  1  1  0  0  0
 28 26  1  0  0  0  0
 29 31  2  0  0  0  0
 30 32  1  0  0  0  0
 31 30  2  0  0  0  0
 33 34  1  0  0  0  0
 33 30  1  0  0  0  0
 35 40  2  0  0  0  0
 35 39  1  0  0  0  0
 37 36  2  0  0  0  0
 37 34  1  0  0  0  0
 38 35  1  0  0  0  0
 39 37  1  0  0  0  0
 41 43  1  0  0  0  0
 41 42  1  0  0  0  0
 43 42  1  0  0  0  0
 43 28  1  0  0  0  0
M  END
>  <MODEL>
3

>  <REMARK>
 VINA RESULT:      -7.3      3.320      8.733
  Name = 
  19 active torsions:
  status: ('A' for Active; 'I' for Inactive)
    1  A    between atoms: C_1  and  C_36
    2  A    between atoms: C_2  and  C_18
    3  A    between atoms: C_2  and  O_31
    4  A    between atoms: O_3  and  C_11
    5  A    between atoms: C_7  and  C_20
    6  A    between atoms: C_7  and  C_33
    7  A    between atoms: C_7  and  C_35
    8  A    between atoms: C_9  and  C_29
    9  A    between atoms: C_11  and  C_32
   10  A    between atoms: C_12  and  C_27
   11  A    between atoms: C_14  and  C_15
   12  A    between atoms: C_14  and  C_24
   13  A    between atoms: C_15  and  C_29
   14  A    between atoms: C_15  and  C_40
   15  A    between atoms: C_16  and  C_27
   16  A    between atoms: C_19  and  O_31
   17  A    between atoms: C_27  and  C_43
   18  A    between atoms: C_28  and  C_29
   19  A    between atoms: C_32  and  C_36
                            x       y       z     vdW  Elec       q    Type
                         _______ _______ _______ _____ _____    ______ ____

>  <TORSDO>
F 19

$$$$
=
 OpenBabel11032421213D

 43 44  0  0  1  0  0  0  0  0999 V2000
  188.1210  177.7440  142.6670 C   0  0  2  0  0  3  0  0  0  0  0  0
  190.1630  176.9080  139.6820 C   0  0  1  0  0  3  0  0  0  0  0  0
  190.7860  177.6170  141.8910 O   0  0  0  0  0  1  0  0  0  0  0  0
  188.3420  178.1570  140.1690 C   0  0  0  0  0  2  0  0  0  0  0  0
  188.5140  177.1590  141.3000 C   0  0  1  0  0  3  0  0  0  0  0  0
  189.9570  176.7450  141.1770 C   0  0  1  0  0  3  0  0  0  0  0  0
  189.3480  177.9520  139.2030 O   0  0  0  0  0  0  0  0  0  0  0  0
  191.6240  177.0530  139.2480 C   0  0  0  0  0  2  0  0  0  0  0  0
  191.3300  174.9490  138.1670 O   0  0  0  0  0  1  0  0  0  0  0  0
  191.9660  176.1840  138.0480 C   0  0  2  0  0  3  0  0  0  0  0  0
  193.4670  175.9830  137.9780 C   0  0  0  0  0  2  0  0  0  0  0  0
  193.9920  176.6800  136.8910 O   0  0  0  0  0  0  0  0  0  0  0  0
  194.1610  175.7150  135.8970 C   0  0  0  0  0  1  0  0  0  0  0  0
  188.7670  176.9770  143.7850 C   0  0  0  0  0  3  0  0  0  0  0  0
  188.9230  177.5210  144.9940 C   0  0  0  0  0  3  0  0  0  0  0  0
  189.5560  176.7660  146.1310 C   0  0  2  0  0  3  0  0  0  0  0  0
  188.6940  176.9340  147.3820 C   0  0  0  0  0  2  0  0  0  0  0  0
  187.1630  178.7050  148.0420 N   0  0  0  0  0  1  0  0  0  0  0  0
  187.3980  177.6590  147.0640 C   0  0  0  0  0  2  0  0  0  0  0  0
  191.0120  177.2110  146.3750 C   0  0  1  0  0  3  0  0  0  0  0  0
  192.3070  177.1250  148.5410 N   0  0  0  0  0  1  0  0  0  0  0  0
  191.6590  176.4340  147.4820 C   0  0  0  0  0  0  0  0  0  0  0  0
  191.6350  175.1740  147.4800 O   0  0  0  0  0  0  0  0  0  0  0  0
  191.8530  177.0910  145.1070 C   0  0  0  0  0  2  0  0  0  0  0  0
  191.8080  175.7810  144.6290 O   0  0  0  0  0  1  0  0  0  0  0  0
  185.9020  178.8660  142.6010 C   0  0  0  0  0  3  0  0  0  0  0  0
  186.6250  177.7700  142.8490 C   0  0  0  0  0  3  0  0  0  0  0  0
  184.4160  178.8640  142.7650 C   0  0  1  0  0  3  0  0  0  0  0  0
  183.7730  178.1980  141.5810 C   0  0  0  0  0  3  0  0  0  0  0  0
  183.8160  179.3320  139.2310 C   0  0  0  0  0  0  0  0  0  0  0  0
  183.7950  178.7630  140.4030 C   0  0  0  0  0  0  0  0  0  0  0  0
  185.0300  179.6460  138.6360 O   0  0  0  0  0  1  0  0  0  0  0  0
  182.5410  179.6910  138.5540 C   0  0  0  0  0  2  0  0  0  0  0  0
  182.2120  178.6960  137.5920 O   0  0  0  0  0  0  0  0  0  0  0  0
  180.8350  175.1770  137.7440 C   0  0  0  0  0  0  0  0  0  0  0  0
  180.1930  177.9280  138.3990 O   0  0  0  0  0  0  0  0  0  0  0  0
  181.3090  177.6710  137.8720 C   0  0  0  0  0  0  0  0  0  0  0  0
  181.3530  173.8300  137.3900 C   0  0  0  0  0  1  0  0  0  0  0  0
  181.6690  176.3240  137.5470 N   0  0  0  0  0  2  0  0  0  0  0  0
  179.6650  175.2920  138.1970 O   0  0  0  0  0  0  0  0  0  0  0  0
  183.0470  179.1130  144.9330 C   0  0  0  0  0  2  0  0  0  0  0  0
  184.5220  179.1750  145.2790 C   0  0  0  0  0  2  0  0  0  0  0  0
  184.0480  178.2800  144.1490 C   0  0  0  0  0  3  0  0  0  0  0  0
  1 27  1  1  0  0  0
  1 14  1  0  0  0  0
  2  8  1  1  0  0  0
  2  6  1  0  0  0  0
  4  5  1  0  0  0  0
  5  1  1  1  0  0  0
  6  5  1  0  0  0  0
  6  3  1  1  0  0  0
  7  2  1  0  0  0  0
  7  4  1  0  0  0  0
 10  9  1  1  0  0  0
 10  8  1  0  0  0  0
 11 10  1  0  0  0  0
 12 11  1  0  0  0  0
 13 12  1  0  0  0  0
 14 15  2  0  0  0  0
 16 15  1  6  0  0  0
 16 20  1  0  0  0  0
 16 17  1  0  0  0  0
 19 17  1  0  0  0  0
 19 18  1  0  0  0  0
 20 24  1  6  0  0  0
 20 22  1  0  0  0  0
 22 21  1  0  0  0  0
 23 22  2  0  0  0  0
 25 24  1  0  0  0  0
 26 28  1  0  0  0  0
 26 27  2  0  0  0  0
 28 29  1  6  0  0  0
 28 43  1  0  0  0  0
 30 31  2  0  0  0  0
 31 29  2  0  0  0  0
 32 30  1  0  0  0  0
 33 30  1  0  0  0  0
 34 37  1  0  0  0  0
 34 33  1  0  0  0  0
 35 40  2  0  0  0  0
 37 36  2  0  0  0  0
 38 35  1  0  0  0  0
 39 35  1  0  0  0  0
 39 37  1  0  0  0  0
 41 42  1  0  0  0  0
 43 41  1  0  0  0  0
 43 42  1  0  0  0  0
M  END
>  <MODEL>
4

>  <REMARK>
 VINA RESULT:      -6.9      2.060      2.870
  Name = 
  19 active torsions:
  status: ('A' for Active; 'I' for Inactive)
    1  A    between atoms: C_1  and  C_36
    2  A    between atoms: C_2  and  C_18
    3  A    between atoms: C_2  and  O_31
    4  A    between atoms: O_3  and  C_11
    5  A    between atoms: C_7  and  C_20
    6  A    between atoms: C_7  and  C_33
    7  A    between atoms: C_7  and  C_35
    8  A    between atoms: C_9  and  C_29
    9  A    between atoms: C_11  and  C_32
   10  A    between atoms: C_12  and  C_27
   11  A    between atoms: C_14  and  C_15
   12  A    between atoms: C_14  and  C_24
   13  A    between atoms: C_15  and  C_29
   14  A    between atoms: C_15  and  C_40
   15  A    between atoms: C_16  and  C_27
   16  A    between atoms: C_19  and  O_31
   17  A    between atoms: C_27  and  C_43
   18  A    between atoms: C_28  and  C_29
   19  A    between atoms: C_32  and  C_36
                            x       y       z     vdW  Elec       q    Type
                         _______ _______ _______ _____ _____    ______ ____

>  <TORSDO>
F 19

$$$$
=
 OpenBabel11032421213D

 43 44  0  0  1  0  0  0  0  0999 V2000
  186.9200  177.8820  142.2610 C   0  0  2  0  0  3  0  0  0  0  0  0
  183.5590  179.3910  142.7180 C   0  0  1  0  0  3  0  0  0  0  0  0
  184.7850  177.8020  144.0380 O   0  0  0  0  0  1  0  0  0  0  0  0
  184.7410  178.4060  141.0620 C   0  0  0  0  0  2  0  0  0  0  0  0
  185.7380  178.8560  142.1140 C   0  0  1  0  0  3  0  0  0  0  0  0
  184.8880  179.0140  143.3470 C   0  0  1  0  0  3  0  0  0  0  0  0
  183.4390  178.7720  141.4590 O   0  0  0  0  0  0  0  0  0  0  0  0
  182.3380  179.1550  143.6100 C   0  0  0  0  0  2  0  0  0  0  0  0
  180.4640  180.4950  142.9940 O   0  0  0  0  0  1  0  0  0  0  0  0
  181.0290  179.2290  142.8390 C   0  0  2  0  0  3  0  0  0  0  0  0
  180.0730  178.1740  143.3590 C   0  0  0  0  0  2  0  0  0  0  0  0
  179.1850  177.7950  142.3530 O   0  0  0  0  0  0  0  0  0  0  0  0
  179.9880  177.5950  141.2280 C   0  0  0  0  0  1  0  0  0  0  0  0
  187.4240  177.8610  143.6750 C   0  0  0  0  0  3  0  0  0  0  0  0
  188.4970  177.1410  144.0130 C   0  0  0  0  0  3  0  0  0  0  0  0
  189.0270  177.1160  145.4210 C   0  0  2  0  0  3  0  0  0  0  0  0
  188.0200  177.8000  146.3450 C   0  0  0  0  0  2  0  0  0  0  0  0
  188.6980  178.1560  148.6550 N   0  0  0  0  0  1  0  0  0  0  0  0
  188.0720  177.2140  147.7460 C   0  0  0  0  0  2  0  0  0  0  0  0
  190.4240  177.7600  145.5190 C   0  0  1  0  0  3  0  0  0  0  0  0
  191.9830  175.7960  145.2240 N   0  0  0  0  0  1  0  0  0  0  0  0
  191.4450  176.8070  146.0650 C   0  0  0  0  0  0  0  0  0  0  0  0
  191.8260  176.8920  147.2620 O   0  0  0  0  0  0  0  0  0  0  0  0
  190.8910  178.2900  144.1670 C   0  0  0  0  0  2  0  0  0  0  0  0
  191.9990  179.1210  144.3380 O   0  0  0  0  0  1  0  0  0  0  0  0
  188.3180  177.4700  140.2460 C   0  0  0  0  0  3  0  0  0  0  0  0
  188.0400  178.2250  141.3120 C   0  0  0  0  0  3  0  0  0  0  0  0
  189.4190  177.8390  139.3040 C   0  0  1  0  0  3  0  0  0  0  0  0
  190.1820  176.6080  138.9030 C   0  0  0  0  0  3  0  0  0  0  0  0
  192.7540  176.7170  138.4720 C   0  0  0  0  0  0  0  0  0  0  0  0
  191.4700  176.6600  138.6880 C   0  0  0  0  0  0  0  0  0  0  0  0
  193.6070  177.1500  139.4780 O   0  0  0  0  0  1  0  0  0  0  0  0
  193.2990  176.3690  137.1320 C   0  0  0  0  0  2  0  0  0  0  0  0
  194.6600  175.9730  137.2570 O   0  0  0  0  0  0  0  0  0  0  0  0
  194.8500  172.2010  137.4490 C   0  0  0  0  0  0  0  0  0  0  0  0
  195.7150  174.6190  138.7970 O   0  0  0  0  0  0  0  0  0  0  0  0
  195.0200  174.7190  137.7490 C   0  0  0  0  0  0  0  0  0  0  0  0
  194.3630  171.0810  136.6030 C   0  0  0  0  0  1  0  0  0  0  0  0
  194.5860  173.5500  137.0470 N   0  0  0  0  0  2  0  0  0  0  0  0
  195.4730  171.9480  138.5140 O   0  0  0  0  0  0  0  0  0  0  0  0
  187.5450  178.1510  137.5650 C   0  0  0  0  0  2  0  0  0  0  0  0
  188.8520  177.9150  136.8340 C   0  0  0  0  0  2  0  0  0  0  0  0
  188.8460  178.6850  138.1420 C   0  0  0  0  0  3  0  0  0  0  0  0
  1 27  1  6  0  0  0
  1 14  1  0  0  0  0
  2  6  1  0  0  0  0
  2  8  1  1  0  0  0
  4  7  1  0  0  0  0
  4  5  1  0  0  0  0
  5  1  1  1  0  0  0
  5  6  1  0  0  0  0
  6  3  1  6  0  0  0
  7  2  1  0  0  0  0
 10  9  1  1  0  0  0
 10 11  1  0  0  0  0
 10  8  1  0  0  0  0
 12 11  1  0  0  0  0
 13 12  1  0  0  0  0
 14 15  2  0  0  0  0
 16 15  1  6  0  0  0
 16 20  1  0  0  0  0
 16 17  1  0  0  0  0
 17 19  1  0  0  0  0
 19 18  1  0  0  0  0
 20 24  1  6  0  0  0
 20 22  1  0  0  0  0
 21 22  1  0  0  0  0
 22 23  2  0  0  0  0
 24 25  1  0  0  0  0
 26 27  2  0  0  0  0
 28 29  1  6  0  0  0
 28 26  1  0  0  0  0
 30 31  2  0  0  0  0
 30 32  1  0  0  0  0
 31 29  2  0  0  0  0
 33 34  1  0  0  0  0
 33 30  1  0  0  0  0
 34 37  1  0  0  0  0
 35 40  2  0  0  0  0
 37 36  2  0  0  0  0
 38 35  1  0  0  0  0
 39 35  1  0  0  0  0
 39 37  1  0  0  0  0
 41 43  1  0  0  0  0
 42 41  1  0  0  0  0
 42 43  1  0  0  0  0
 43 28  1  0  0  0  0
M  END
>  <MODEL>
5

>  <REMARK>
 VINA RESULT:      -6.7      2.714      8.429
  Name = 
  19 active torsions:
  status: ('A' for Active; 'I' for Inactive)
    1  A    between atoms: C_1  and  C_36
    2  A    between atoms: C_2  and  C_18
    3  A    between atoms: C_2  and  O_31
    4  A    between atoms: O_3  and  C_11
    5  A    between atoms: C_7  and  C_20
    6  A    between atoms: C_7  and  C_33
    7  A    between atoms: C_7  and  C_35
    8  A    between atoms: C_9  and  C_29
    9  A    between atoms: C_11  and  C_32
   10  A    between atoms: C_12  and  C_27
   11  A    between atoms: C_14  and  C_15
   12  A    between atoms: C_14  and  C_24
   13  A    between atoms: C_15  and  C_29
   14  A    between atoms: C_15  and  C_40
   15  A    between atoms: C_16  and  C_27
   16  A    between atoms: C_19  and  O_31
   17  A    between atoms: C_27  and  C_43
   18  A    between atoms: C_28  and  C_29
   19  A    between atoms: C_32  and  C_36
                            x       y       z     vdW  Elec       q    Type
                         _______ _______ _______ _____ _____    ______ ____

>  <TORSDO>
F 19

$$$$
=
 OpenBabel11032421213D

 43 44  0  0  1  0  0  0  0  0999 V2000
  185.5050  178.4630  143.0800 C   0  0  2  0  0  3  0  0  0  0  0  0
  186.3640  178.3680  146.6890 C   0  0  1  0  0  3  0  0  0  0  0  0
  186.7180  176.7770  144.9250 O   0  0  0  0  0  1  0  0  0  0  0  0
  184.5710  178.8700  145.4080 C   0  0  0  0  0  2  0  0  0  0  0  0
  185.7940  178.9430  144.5120 C   0  0  1  0  0  3  0  0  0  0  0  0
  186.8170  178.1310  145.2610 C   0  0  1  0  0  3  0  0  0  0  0  0
  184.9680  178.5410  146.7210 O   0  0  0  0  0  0  0  0  0  0  0  0
  186.8510  177.3220  147.6980 C   0  0  0  0  0  2  0  0  0  0  0  0
  188.5310  178.9720  148.0720 O   0  0  0  0  0  1  0  0  0  0  0  0
  188.2550  177.6120  148.2060 C   0  0  2  0  0  3  0  0  0  0  0  0
  189.2600  176.8050  147.4070 C   0  0  0  0  0  2  0  0  0  0  0  0
  190.5570  177.1640  147.7700 O   0  0  0  0  0  0  0  0  0  0  0  0
  191.3770  176.5270  146.8360 C   0  0  0  0  0  1  0  0  0  0  0  0
  186.6440  178.8000  142.1610 C   0  0  0  0  0  3  0  0  0  0  0  0
  187.5100  177.8640  141.7650 C   0  0  0  0  0  3  0  0  0  0  0  0
  188.6510  178.1770  140.8350 C   0  0  2  0  0  3  0  0  0  0  0  0
  188.4980  177.3460  139.5610 C   0  0  0  0  0  2  0  0  0  0  0  0
  188.9080  179.1060  137.9330 N   0  0  0  0  0  1  0  0  0  0  0  0
  187.9130  178.1750  138.4310 C   0  0  0  0  0  2  0  0  0  0  0  0
  190.0180  177.9460  141.5080 C   0  0  1  0  0  3  0  0  0  0  0  0
  189.7920  175.7560  142.7440 N   0  0  0  0  0  1  0  0  0  0  0  0
  189.8910  177.1730  142.7870 C   0  0  0  0  0  0  0  0  0  0  0  0
  189.8690  177.7670  143.8970 O   0  0  0  0  0  0  0  0  0  0  0  0
  190.9890  177.2320  140.5730 C   0  0  0  0  0  2  0  0  0  0  0  0
  192.3030  177.4720  140.9770 O   0  0  0  0  0  1  0  0  0  0  0  0
  183.2570  178.2730  142.0340 C   0  0  0  0  0  3  0  0  0  0  0  0
  184.2190  179.0440  142.5500 C   0  0  0  0  0  3  0  0  0  0  0  0
  181.9780  178.8670  141.5340 C   0  0  1  0  0  3  0  0  0  0  0  0
  181.8500  178.6330  140.0550 C   0  0  0  0  0  3  0  0  0  0  0  0
  182.0910  176.2320  139.0620 C   0  0  0  0  0  0  0  0  0  0  0  0
  181.9690  177.4310  139.5560 C   0  0  0  0  0  0  0  0  0  0  0  0
  181.2440  175.2180  139.4880 O   0  0  0  0  0  1  0  0  0  0  0  0
  183.1700  175.9370  138.0810 C   0  0  0  0  0  2  0  0  0  0  0  0
  183.3060  174.5290  137.9270 O   0  0  0  0  0  0  0  0  0  0  0  0
  186.9060  174.2800  136.7980 C   0  0  0  0  0  0  0  0  0  0  0  0
  184.6940  172.6930  137.7950 O   0  0  0  0  0  0  0  0  0  0  0  0
  184.5330  173.9340  137.6400 C   0  0  0  0  0  0  0  0  0  0  0  0
  187.9350  175.2540  136.3480 C   0  0  0  0  0  1  0  0  0  0  0  0
  185.6050  174.7540  137.1640 N   0  0  0  0  0  2  0  0  0  0  0  0
  187.1870  173.0530  136.8340 O   0  0  0  0  0  0  0  0  0  0  0  0
  179.9870  179.4690  143.0530 C   0  0  0  0  0  2  0  0  0  0  0  0
  181.0030  178.6930  143.8680 C   0  0  0  0  0  2  0  0  0  0  0  0
  180.8000  178.3630  142.4010 C   0  0  0  0  0  3  0  0  0  0  0  0
  1 14  1  6  0  0  0
  2  7  1  0  0  0  0
  2  8  1  1  0  0  0
  4  7  1  0  0  0  0
  5  1  1  6  0  0  0
  5  6  1  0  0  0  0
  5  4  1  0  0  0  0
  6  3  1  6  0  0  0
  6  2  1  0  0  0  0
  8 10  1  0  0  0  0
 10  9  1  6  0  0  0
 11 12  1  0  0  0  0
 11 10  1  0  0  0  0
 13 12  1  0  0  0  0
 15 14  2  0  0  0  0
 16 17  1  6  0  0  0
 16 20  1  0  0  0  0
 16 15  1  0  0  0  0
 18 19  1  0  0  0  0
 19 17  1  0  0  0  0
 20 24  1  6  0  0  0
 20 22  1  0  0  0  0
 21 22  1  0  0  0  0
 22 23  2  0  0  0  0
 24 25  1  0  0  0  0
 26 27  2  0  0  0  0
 27  1  1  0  0  0  0
 28 29  1  6  0  0  0
 28 26  1  0  0  0  0
 28 43  1  0  0  0  0
 30 32  1  0  0  0  0
 30 31  2  0  0  0  0
 31 29  2  0  0  0  0
 33 30  1  0  0  0  0
 34 33  1  0  0  0  0
 35 40  2  0  0  0  0
 35 39  1  0  0  0  0
 37 36  2  0  0  0  0
 37 34  1  0  0  0  0
 38 35  1  0  0  0  0
 39 37  1  0  0  0  0
 41 42  1  0  0  0  0
 43 41  1  0  0  0  0
 43 42  1  0  0  0  0
M  END
>  <MODEL>
6

>  <REMARK>
 VINA RESULT:      -6.6      2.614      6.250
  Name = 
  19 active torsions:
  status: ('A' for Active; 'I' for Inactive)
    1  A    between atoms: C_1  and  C_36
    2  A    between atoms: C_2  and  C_18
    3  A    between atoms: C_2  and  O_31
    4  A    between atoms: O_3  and  C_11
    5  A    between atoms: C_7  and  C_20
    6  A    between atoms: C_7  and  C_33
    7  A    between atoms: C_7  and  C_35
    8  A    between atoms: C_9  and  C_29
    9  A    between atoms: C_11  and  C_32
   10  A    between atoms: C_12  and  C_27
   11  A    between atoms: C_14  and  C_15
   12  A    between atoms: C_14  and  C_24
   13  A    between atoms: C_15  and  C_29
   14  A    between atoms: C_15  and  C_40
   15  A    between atoms: C_16  and  C_27
   16  A    between atoms: C_19  and  O_31
   17  A    between atoms: C_27  and  C_43
   18  A    between atoms: C_28  and  C_29
   19  A    between atoms: C_32  and  C_36
                            x       y       z     vdW  Elec       q    Type
                         _______ _______ _______ _____ _____    ______ ____

>  <TORSDO>
F 19

$$$$
=
 OpenBabel11032421213D

 43 44  0  0  1  0  0  0  0  0999 V2000
  188.4720  178.0950  141.3920 C   0  0  2  0  0  3  0  0  0  0  0  0
  190.5070  176.3410  138.8310 C   0  0  1  0  0  3  0  0  0  0  0  0
  190.9870  178.2410  140.2200 O   0  0  0  0  0  1  0  0  0  0  0  0
  188.4100  177.1610  139.0300 C   0  0  0  0  0  2  0  0  0  0  0  0
  188.9590  176.9930  140.4350 C   0  0  1  0  0  3  0  0  0  0  0  0
  190.4480  176.9500  140.2200 C   0  0  1  0  0  3  0  0  0  0  0  0
  189.3740  176.7320  138.0930 O   0  0  0  0  0  0  0  0  0  0  0  0
  191.8160  176.5920  138.0760 C   0  0  0  0  0  2  0  0  0  0  0  0
  191.8120  174.2260  137.7750 O   0  0  0  0  0  1  0  0  0  0  0  0
  192.2060  175.4250  137.1820 C   0  0  2  0  0  3  0  0  0  0  0  0
  193.7080  175.4250  136.9740 C   0  0  0  0  0  2  0  0  0  0  0  0
  194.1720  176.7330  136.8440 O   0  0  0  0  0  0  0  0  0  0  0  0
  194.6970  176.7970  135.5510 C   0  0  0  0  0  1  0  0  0  0  0  0
  189.1270  177.9630  142.7370 C   0  0  0  0  0  3  0  0  0  0  0  0
  188.7730  176.9940  143.5840 C   0  0  0  0  0  3  0  0  0  0  0  0
  189.4260  176.8360  144.9310 C   0  0  2  0  0  3  0  0  0  0  0  0
  188.9110  177.9290  145.8670 C   0  0  0  0  0  2  0  0  0  0  0  0
  187.0690  178.3140  147.4090 N   0  0  0  0  0  1  0  0  0  0  0  0
  188.0590  177.3430  146.9810 C   0  0  0  0  0  2  0  0  0  0  0  0
  190.9640  176.8490  144.8270 C   0  0  1  0  0  3  0  0  0  0  0  0
  191.6650  177.1650  147.2320 N   0  0  0  0  0  1  0  0  0  0  0  0
  191.6160  176.3390  146.0770 C   0  0  0  0  0  0  0  0  0  0  0  0
  192.1230  175.1870  146.1120 O   0  0  0  0  0  0  0  0  0  0  0  0
  191.4510  176.0390  143.6290 C   0  0  0  0  0  2  0  0  0  0  0  0
  192.3840  176.7780  142.9020 O   0  0  0  0  0  1  0  0  0  0  0  0
  186.3150  179.0520  142.1750 C   0  0  0  0  0  3  0  0  0  0  0  0
  186.9720  178.0780  141.5390 C   0  0  0  0  0  3  0  0  0  0  0  0
  184.8230  179.0290  142.2900 C   0  0  1  0  0  3  0  0  0  0  0  0
  184.2270  178.4110  141.0560 C   0  0  0  0  0  3  0  0  0  0  0  0
  182.9310  179.8750  139.3270 C   0  0  0  0  0  0  0  0  0  0  0  0
  183.5790  179.1420  140.1880 C   0  0  0  0  0  0  0  0  0  0  0  0
  183.5660  180.9460  138.7150 O   0  0  0  0  0  1  0  0  0  0  0  0
  181.4990  179.5950  139.0400 C   0  0  0  0  0  2  0  0  0  0  0  0
  180.8080  180.8160  138.8110 O   0  0  0  0  0  0  0  0  0  0  0  0
  180.8020  183.6450  136.3010 C   0  0  0  0  0  0  0  0  0  0  0  0
  180.7770  180.7520  136.5060 O   0  0  0  0  0  0  0  0  0  0  0  0
  180.8060  181.4390  137.5630 C   0  0  0  0  0  0  0  0  0  0  0  0
  180.8690  185.1270  136.3890 C   0  0  0  0  0  1  0  0  0  0  0  0
  180.8340  182.8690  137.5040 N   0  0  0  0  0  2  0  0  0  0  0  0
  180.7020  183.0950  135.1720 O   0  0  0  0  0  0  0  0  0  0  0  0
  183.2950  179.1020  144.3610 C   0  0  0  0  0  2  0  0  0  0  0  0
  184.7310  179.2850  144.8100 C   0  0  0  0  0  2  0  0  0  0  0  0
  184.4170  178.3800  143.6330 C   0  0  0  0  0  3  0  0  0  0  0  0
  1 27  1  1  0  0  0
  1 14  1  0  0  0  0
  2  8  1  6  0  0  0
  2  6  1  0  0  0  0
  4  5  1  0  0  0  0
  5  1  1  1  0  0  0
  6  3  1  6  0  0  0
  6  5  1  0  0  0  0
  7  2  1  0  0  0  0
  7  4  1  0  0  0  0
 10  9  1  1  0  0  0
 10  8  1  0  0  0  0
 11 10  1  0  0  0  0
 12 11  1  0  0  0  0
 13 12  1  0  0  0  0
 14 15  2  0  0  0  0
 16 15  1  6  0  0  0
 16 17  1  0  0  0  0
 17 19  1  0  0  0  0
 19 18  1  0  0  0  0
 20 24  1  6  0  0  0
 20 16  1  0  0  0  0
 20 22  1  0  0  0  0
 22 23  2  0  0  0  0
 22 21  1  0  0  0  0
 25 24  1  0  0  0  0
 26 28  1  0  0  0  0
 27 26  2  0  0  0  0
 28 29  1  6  0  0  0
 28 43  1  0  0  0  0
 30 31  2  0  0  0  0
 31 29  2  0  0  0  0
 32 30  1  0  0  0  0
 33 30  1  0  0  0  0
 34 33  1  0  0  0  0
 35 38  1  0  0  0  0
 35 39  1  0  0  0  0
 36 37  2  0  0  0  0
 37 34  1  0  0  0  0
 39 37  1  0  0  0  0
 40 35  2  0  0  0  0
 41 42  1  0  0  0  0
 43 41  1  0  0  0  0
 43 42  1  0  0  0  0
M  END
>  <MODEL>
7

>  <REMARK>
 VINA RESULT:      -6.5      2.979      3.552
  Name = 
  19 active torsions:
  status: ('A' for Active; 'I' for Inactive)
    1  A    between atoms: C_1  and  C_36
    2  A    between atoms: C_2  and  C_18
    3  A    between atoms: C_2  and  O_31
    4  A    between atoms: O_3  and  C_11
    5  A    between atoms: C_7  and  C_20
    6  A    between atoms: C_7  and  C_33
    7  A    between atoms: C_7  and  C_35
    8  A    between atoms: C_9  and  C_29
    9  A    between atoms: C_11  and  C_32
   10  A    between atoms: C_12  and  C_27
   11  A    between atoms: C_14  and  C_15
   12  A    between atoms: C_14  and  C_24
   13  A    between atoms: C_15  and  C_29
   14  A    between atoms: C_15  and  C_40
   15  A    between atoms: C_16  and  C_27
   16  A    between atoms: C_19  and  O_31
   17  A    between atoms: C_27  and  C_43
   18  A    between atoms: C_28  and  C_29
   19  A    between atoms: C_32  and  C_36
                            x       y       z     vdW  Elec       q    Type
                         _______ _______ _______ _____ _____    ______ ____

>  <TORSDO>
F 19

$$$$
=
 OpenBabel11032421213D

 43 44  0  0  1  0  0  0  0  0999 V2000
  184.1930  178.9550  139.7550 C   0  0  2  0  0  3  0  0  0  0  0  0
  180.9010  180.3610  138.7740 C   0  0  1  0  0  3  0  0  0  0  0  0
  183.0860  181.3520  138.8880 O   0  0  0  0  0  1  0  0  0  0  0  0
  181.7560  179.1170  140.4560 C   0  0  0  0  0  2  0  0  0  0  0  0
  182.7270  179.0230  139.2940 C   0  0  1  0  0  3  0  0  0  0  0  0
  182.3790  180.2240  138.4570 C   0  0  1  0  0  3  0  0  0  0  0  0
  180.6550  179.9180  140.0870 O   0  0  0  0  0  0  0  0  0  0  0  0
  180.3120  181.7490  138.5000 C   0  0  0  0  0  2  0  0  0  0  0  0
  180.7720  181.8760  136.1640 O   0  0  0  0  0  1  0  0  0  0  0  0
  179.7360  181.8720  137.0980 C   0  0  2  0  0  3  0  0  0  0  0  0
  178.9410  183.1580  136.9870 C   0  0  0  0  0  2  0  0  0  0  0  0
  179.5630  184.0280  136.0920 O   0  0  0  0  0  0  0  0  0  0  0  0
  179.2440  185.3050  136.5580 C   0  0  0  0  0  1  0  0  0  0  0  0
  185.0380  178.2280  138.7480 C   0  0  0  0  0  3  0  0  0  0  0  0
  184.4800  177.5210  137.7620 C   0  0  0  0  0  3  0  0  0  0  0  0
  185.3080  176.7970  136.7350 C   0  0  2  0  0  3  0  0  0  0  0  0
  185.1120  175.2910  136.9080 C   0  0  0  0  0  2  0  0  0  0  0  0
  184.8560  174.1260  134.7870 N   0  0  0  0  0  1  0  0  0  0  0  0
  184.1320  174.7430  135.8840 C   0  0  0  0  0  2  0  0  0  0  0  0
  186.7960  177.1930  136.8170 C   0  0  1  0  0  3  0  0  0  0  0  0
  188.4490  175.3240  137.2070 N   0  0  0  0  0  1  0  0  0  0  0  0
  187.6940  176.1110  136.2950 C   0  0  0  0  0  0  0  0  0  0  0  0
  187.7870  175.8950  135.0580 O   0  0  0  0  0  0  0  0  0  0  0  0
  187.0710  178.4920  136.0640 C   0  0  0  0  0  2  0  0  0  0  0  0
  187.7710  179.3770  136.8840 O   0  0  0  0  0  1  0  0  0  0  0  0
  185.2230  178.7070  142.0040 C   0  0  0  0  0  3  0  0  0  0  0  0
  184.3180  178.3040  141.1080 C   0  0  0  0  0  3  0  0  0  0  0  0
  185.3160  178.0630  143.3510 C   0  0  1  0  0  3  0  0  0  0  0  0
  186.5910  177.2740  143.4520 C   0  0  0  0  0  3  0  0  0  0  0  0
  188.2940  177.7370  145.3740 C   0  0  0  0  0  0  0  0  0  0  0  0
  187.4450  177.5030  144.4150 C   0  0  0  0  0  0  0  0  0  0  0  0
  187.8930  177.6190  146.6980 O   0  0  0  0  0  1  0  0  0  0  0  0
  189.6780  178.1800  145.0530 C   0  0  0  0  0  2  0  0  0  0  0  0
  190.3950  177.1110  144.4490 O   0  0  0  0  0  0  0  0  0  0  0  0
  190.1230  177.4970  140.6970 C   0  0  0  0  0  0  0  0  0  0  0  0
  192.0220  176.9600  142.8220 O   0  0  0  0  0  0  0  0  0  0  0  0
  190.8130  177.1620  143.1190 C   0  0  0  0  0  0  0  0  0  0  0  0
  189.0270  177.8350  139.7520 C   0  0  0  0  0  1  0  0  0  0  0  0
  189.8490  177.4450  142.1010 N   0  0  0  0  0  2  0  0  0  0  0  0
  191.2730  177.2460  140.2470 O   0  0  0  0  0  0  0  0  0  0  0  0
  184.3970  178.6020  145.6960 C   0  0  0  0  0  2  0  0  0  0  0  0
  183.6170  179.4030  144.6730 C   0  0  0  0  0  2  0  0  0  0  0  0
  185.0930  179.1270  144.4510 C   0  0  0  0  0  3  0  0  0  0  0  0
  1 14  1  6  0  0  0
  1 27  1  0  0  0  0
  2  8  1  1  0  0  0
  2  7  1  0  0  0  0
  5  1  1  1  0  0  0
  5  4  1  0  0  0  0
  6  2  1  0  0  0  0
  6  3  1  1  0  0  0
  6  5  1  0  0  0  0
  7  4  1  0  0  0  0
 10  9  1  6  0  0  0
 10  8  1  0  0  0  0
 11 10  1  0  0  0  0
 12 13  1  0  0  0  0
 12 11  1  0  0  0  0
 15 14  2  0  0  0  0
 16 20  1  0  0  0  0
 16 17  1  1  0  0  0
 16 15  1  0  0  0  0
 18 19  1  0  0  0  0
 19 17  1  0  0  0  0
 20 24  1  6  0  0  0
 22 20  1  0  0  0  0
 22 21  1  0  0  0  0
 23 22  2  0  0  0  0
 24 25  1  0  0  0  0
 27 26  2  0  0  0  0
 28 26  1  6  0  0  0
 28 29  1  0  0  0  0
 28 43  1  0  0  0  0
 29 31  2  0  0  0  0
 30 32  1  0  0  0  0
 31 30  2  0  0  0  0
 33 30  1  0  0  0  0
 34 33  1  0  0  0  0
 35 39  1  0  0  0  0
 36 37  2  0  0  0  0
 37 34  1  0  0  0  0
 38 35  1  0  0  0  0
 39 37  1  0  0  0  0
 40 35  2  0  0  0  0
 42 41  1  0  0  0  0
 43 42  1  0  0  0  0
 43 41  1  0  0  0  0
M  END
>  <MODEL>
8

>  <REMARK>
 VINA RESULT:      -6.5      3.368      9.674
  Name = 
  19 active torsions:
  status: ('A' for Active; 'I' for Inactive)
    1  A    between atoms: C_1  and  C_36
    2  A    between atoms: C_2  and  C_18
    3  A    between atoms: C_2  and  O_31
    4  A    between atoms: O_3  and  C_11
    5  A    between atoms: C_7  and  C_20
    6  A    between atoms: C_7  and  C_33
    7  A    between atoms: C_7  and  C_35
    8  A    between atoms: C_9  and  C_29
    9  A    between atoms: C_11  and  C_32
   10  A    between atoms: C_12  and  C_27
   11  A    between atoms: C_14  and  C_15
   12  A    between atoms: C_14  and  C_24
   13  A    between atoms: C_15  and  C_29
   14  A    between atoms: C_15  and  C_40
   15  A    between atoms: C_16  and  C_27
   16  A    between atoms: C_19  and  O_31
   17  A    between atoms: C_27  and  C_43
   18  A    between atoms: C_28  and  C_29
   19  A    between atoms: C_32  and  C_36
                            x       y       z     vdW  Elec       q    Type
                         _______ _______ _______ _____ _____    ______ ____

>  <TORSDO>
F 19

$$$$
=
 OpenBabel11032421213D

 43 44  0  0  1  0  0  0  0  0999 V2000
  186.7800  178.7940  140.3340 C   0  0  2  0  0  3  0  0  0  0  0  0
  183.1020  178.4050  140.0170 C   0  0  1  0  0  3  0  0  0  0  0  0
  184.5930  180.1290  139.2580 O   0  0  0  0  0  1  0  0  0  0  0  0
  184.6700  178.2430  141.6380 C   0  0  0  0  0  2  0  0  0  0  0  0
  185.3910  178.1330  140.3070 C   0  0  1  0  0  3  0  0  0  0  0  0
  184.4160  178.7430  139.3360 C   0  0  1  0  0  3  0  0  0  0  0  0
  183.2850  178.3830  141.4130 O   0  0  0  0  0  0  0  0  0  0  0  0
  181.9160  179.2760  139.5910 C   0  0  0  0  0  2  0  0  0  0  0  0
  180.3520  177.6660  138.7860 O   0  0  0  0  0  1  0  0  0  0  0  0
  180.5780  178.5860  139.8100 C   0  0  2  0  0  3  0  0  0  0  0  0
  179.4700  179.6210  139.8220 C   0  0  0  0  0  2  0  0  0  0  0  0
  179.9270  180.8030  140.4040 O   0  0  0  0  0  0  0  0  0  0  0  0
  179.1620  181.8100  139.8130 C   0  0  0  0  0  1  0  0  0  0  0  0
  187.6760  178.2010  139.2850 C   0  0  0  0  0  3  0  0  0  0  0  0
  187.2550  177.2040  138.5020 C   0  0  0  0  0  3  0  0  0  0  0  0
  188.1310  176.6040  137.4360 C   0  0  2  0  0  3  0  0  0  0  0  0
  189.4090  177.4340  137.3160 C   0  0  0  0  0  2  0  0  0  0  0  0
  190.2570  175.2490  137.9680 N   0  0  0  0  0  1  0  0  0  0  0  0
  190.6260  176.6350  137.7510 C   0  0  0  0  0  2  0  0  0  0  0  0
  187.3940  176.4890  136.0870 C   0  0  1  0  0  3  0  0  0  0  0  0
  186.5880  174.1290  135.6920 N   0  0  0  0  0  1  0  0  0  0  0  0
  187.5670  175.1340  135.4680 C   0  0  0  0  0  0  0  0  0  0  0  0
  188.5720  174.8790  134.7530 O   0  0  0  0  0  0  0  0  0  0  0  0
  185.9070  176.7980  136.2340 C   0  0  0  0  0  2  0  0  0  0  0  0
  185.4260  177.3850  135.0630 O   0  0  0  0  0  1  0  0  0  0  0  0
  188.1840  177.6360  142.0280 C   0  0  0  0  0  3  0  0  0  0  0  0
  187.4210  178.6800  141.6930 C   0  0  0  0  0  3  0  0  0  0  0  0
  188.8300  177.5530  143.3750 C   0  0  1  0  0  3  0  0  0  0  0  0
  187.8820  176.9250  144.3570 C   0  0  0  0  0  3  0  0  0  0  0  0
  186.4830  178.4050  145.9890 C   0  0  0  0  0  0  0  0  0  0  0  0
  187.1790  177.6640  145.1740 C   0  0  0  0  0  0  0  0  0  0  0  0
  185.6210  179.3680  145.4830 O   0  0  0  0  0  1  0  0  0  0  0  0
  186.6490  178.2540  147.4590 C   0  0  0  0  0  2  0  0  0  0  0  0
  187.5340  177.1750  147.7330 O   0  0  0  0  0  0  0  0  0  0  0  0
  191.2450  176.5660  147.3350 C   0  0  0  0  0  0  0  0  0  0  0  0
  189.3270  178.2920  148.6580 O   0  0  0  0  0  0  0  0  0  0  0  0
  188.9040  177.3710  147.9090 C   0  0  0  0  0  0  0  0  0  0  0  0
  192.0750  175.6230  146.5420 C   0  0  0  0  0  1  0  0  0  0  0  0
  189.8190  176.5070  147.2270 N   0  0  0  0  0  2  0  0  0  0  0  0
  191.8070  177.3910  148.1040 O   0  0  0  0  0  0  0  0  0  0  0  0
  191.3890  177.7860  143.5570 C   0  0  0  0  0  2  0  0  0  0  0  0
  191.0300  177.4780  142.1170 C   0  0  0  0  0  2  0  0  0  0  0  0
  190.2140  176.8740  143.2440 C   0  0  0  0  0  3  0  0  0  0  0  0
  1 14  1  6  0  0  0
  1 27  1  0  0  0  0
  2  8  1  1  0  0  0
  2  7  1  0  0  0  0
  5  1  1  1  0  0  0
  5  4  1  0  0  0  0
  6  3  1  1  0  0  0
  6  2  1  0  0  0  0
  6  5  1  0  0  0  0
  7  4  1  0  0  0  0
  8 10  1  0  0  0  0
 10  9  1  6  0  0  0
 10 11  1  0  0  0  0
 11 12  1  0  0  0  0
 13 12  1  0  0  0  0
 15 14  2  0  0  0  0
 16 17  1  6  0  0  0
 16 15  1  0  0  0  0
 17 19  1  0  0  0  0
 19 18  1  0  0  0  0
 20 24  1  1  0  0  0
 20 16  1  0  0  0  0
 22 21  1  0  0  0  0
 22 20  1  0  0  0  0
 23 22  2  0  0  0  0
 25 24  1  0  0  0  0
 27 26  2  0  0  0  0
 28 26  1  6  0  0  0
 28 29  1  0  0  0  0
 29 31  2  0  0  0  0
 30 33  1  0  0  0  0
 31 30  2  0  0  0  0
 32 30  1  0  0  0  0
 33 34  1  0  0  0  0
 34 37  1  0  0  0  0
 35 40  2  0  0  0  0
 37 36  2  0  0  0  0
 38 35  1  0  0  0  0
 39 35  1  0  0  0  0
 39 37  1  0  0  0  0
 42 43  1  0  0  0  0
 42 41  1  0  0  0  0
 43 28  1  0  0  0  0
 43 41  1  0  0  0  0
M  END
>  <MODEL>
9

>  <REMARK>
 VINA RESULT:      -6.4      2.743      9.777
  Name = 
  19 active torsions:
  status: ('A' for Active; 'I' for Inactive)
    1  A    between atoms: C_1  and  C_36
    2  A    between atoms: C_2  and  C_18
    3  A    between atoms: C_2  and  O_31
    4  A    between atoms: O_3  and  C_11
    5  A    between atoms: C_7  and  C_20
    6  A    between atoms: C_7  and  C_33
    7  A    between atoms: C_7  and  C_35
    8  A    between atoms: C_9  and  C_29
    9  A    between atoms: C_11  and  C_32
   10  A    between atoms: C_12  and  C_27
   11  A    between atoms: C_14  and  C_15
   12  A    between atoms: C_14  and  C_24
   13  A    between atoms: C_15  and  C_29
   14  A    between atoms: C_15  and  C_40
   15  A    between atoms: C_16  and  C_27
   16  A    between atoms: C_19  and  O_31
   17  A    between atoms: C_27  and  C_43
   18  A    between atoms: C_28  and  C_29
   19  A    between atoms: C_32  and  C_36
                            x       y       z     vdW  Elec       q    Type
                         _______ _______ _______ _____ _____    ______ ____

>  <TORSDO>
F 19

$$$$
