=
 OpenBabel11042412213D

 44 47  0  0  1  0  0  0  0  0999 V2000
  186.1930  178.5870  141.3080 C   0  0  1  0  0  3  0  0  0  0  0  0
  182.5560  176.9320  139.9820 C   0  0  0  0  0  3  0  0  0  0  0  0
  185.5000  179.3720  140.1930 C   0  0  2  0  0  3  0  0  0  0  0  0
  182.2180  178.7430  138.2590 C   0  0  2  0  0  3  0  0  0  0  0  0
  181.0060  179.7880  137.4810 Cl  0  0  0  0  0  0  0  0  0  0  0  0
  181.5420  177.7540  139.2210 C   0  0  1  0  0  3  0  0  0  0  0  0
  184.2320  178.7340  139.7470 C   0  0  2  0  0  0  0  0  0  0  0  0
  183.7810  177.3920  140.2580 C   0  0  0  0  0  3  0  0  0  0  0  0
  185.4210  178.5980  139.0130 O   0  0  0  0  0  0  0  0  0  0  0  0
  183.2220  179.6130  139.0130 C   0  0  0  0  0  2  0  0  0  0  0  0
  180.6390  176.8750  138.4820 N   0  0  0  0  0  2  0  0  0  0  0  0
  180.3510  173.4010  137.3310 C   0  0  1  0  0  3  0  0  0  0  0  0
  180.3750  171.9010  137.5740 C   0  0  0  0  0  1  0  0  0  0  0  0
  181.6820  175.2660  136.9890 C   0  0  0  0  0  2  0  0  0  0  0  0
  181.2560  175.5550  138.4140 C   0  0  2  0  0  3  0  0  0  0  0  0
  180.0560  174.2750  138.8960 S   0  0  0  0  0  0  0  0  0  0  0  0
  181.6280  173.8300  136.7790 N   0  0  0  0  0  2  0  0  0  0  0  0
  188.3170  179.3140  142.1840 O   0  0  0  0  0  1  0  0  0  0  0  0
  187.7070  178.6250  141.1310 C   0  0  1  0  0  3  0  0  0  0  0  0
  188.2690  177.2170  141.0380 C   0  0  0  0  0  2  0  0  0  0  0  0
  189.1000  177.0840  139.8020 C   0  0  0  0  0  0  0  0  0  0  0  0
  189.6920  177.1000  137.7210 C   0  0  0  0  0  0  0  0  0  0  0  0
  190.9770  176.8900  138.4520 C   0  0  1  0  0  3  0  0  0  0  0  0
  188.5960  177.2200  138.6170 N   0  0  0  0  0  0  0  0  0  0  0  0
  189.5770  177.2040  136.4700 O   0  0  0  0  0  0  0  0  0  0  0  0
  190.5180  176.8820  139.8380 N   0  0  0  0  0  2  0  0  0  0  0  0
  193.8160  176.5950  138.3310 O   0  0  0  0  0  1  0  0  0  0  0  0
  191.6350  175.5800  138.1210 C   0  0  0  0  0  0  0  0  0  0  0  0
  190.9460  174.5210  138.0280 O   0  0  0  0  0  0  0  0  0  0  0  0
  193.0620  175.5220  137.9860 N   0  0  0  0  0  0  0  0  0  0  0  0
  193.7290  174.2970  137.5650 C   0  0  0  0  0  2  0  0  0  0  0  0
  196.0180  174.9390  137.4000 O   0  0  0  0  0  0  0  0  0  0  0  0
  195.4970  173.5960  139.1860 O   0  0  0  0  0  1  0  0  0  0  0  0
  195.1440  174.2890  138.0340 C   0  0  0  0  0  0  0  0  0  0  0  0
  185.8300  179.1190  142.5510 O   0  0  0  0  0  0  0  0  0  0  0  0
  185.4410  178.0180  143.3220 C   0  0  0  0  0  2  0  0  0  0  0  0
  185.6050  178.3320  144.7970 C   0  0  0  0  0  2  0  0  0  0  0  0
  187.9530  177.8440  145.2980 C   0  0  0  0  0  3  0  0  0  0  0  0
  186.6740  177.4800  145.3910 C   0  0  0  0  0  3  0  0  0  0  0  0
  189.0380  177.0170  145.9130 C   0  0  0  0  0  2  0  0  0  0  0  0
  190.3980  177.5380  145.4870 C   0  0  0  0  0  2  0  0  0  0  0  0
  191.0370  176.5610  144.0990 S   0  0  0  0  0  0  0  0  0  0  0  0
  191.4780  178.0310  143.1240 C   0  0  0  0  0  2  0  0  0  0  0  0
  191.3740  179.2740  143.9860 C   0  0  0  0  0  1  0  0  0  0  0  0
  1 35  1  1  0  0  0
  2  8  2  0  0  0  0
  3  1  1  1  0  0  0
  4  5  1  1  0  0  0
  4 10  1  0  0  0  0
  4  6  1  0  0  0  0
  6 11  1  6  0  0  0
  6  2  1  0  0  0  0
  7 10  1  6  0  0  0
  7  3  1  0  0  0  0
  7  8  1  0  0  0  0
  9  7  1  0  0  0  0
  9  3  1  0  0  0  0
 12 13  1  1  0  0  0
 12 16  1  0  0  0  0
 14 15  1  0  0  0  0
 15 11  1  6  0  0  0
 15 16  1  0  0  0  0
 17 14  1  0  0  0  0
 17 12  1  0  0  0  0
 19  1  1  0  0  0  0
 19 18  1  1  0  0  0
 20 19  1  0  0  0  0
 21 26  1  0  0  0  0
 21 20  1  0  0  0  0
 22 23  1  0  0  0  0
 22 24  1  0  0  0  0
 23 28  1  6  0  0  0
 23 26  1  0  0  0  0
 24 21  2  0  0  0  0
 25 22  2  0  0  0  0
 29 28  2  0  0  0  0
 30 28  1  0  0  0  0
 30 27  1  0  0  0  0
 31 30  1  0  0  0  0
 31 34  1  0  0  0  0
 32 34  2  0  0  0  0
 34 33  1  0  0  0  0
 35 36  1  0  0  0  0
 36 37  1  0  0  0  0
 37 39  1  0  0  0  0
 38 39  2  0  0  0  0
 38 40  1  0  0  0  0
 41 40  1  0  0  0  0
 42 41  1  0  0  0  0
 43 44  1  0  0  0  0
 43 42  1  0  0  0  0
M  END
>  <MODEL>
1

>  <REMARK>
 VINA RESULT:      -6.5      0.000      0.000
  Name = 
  17 active torsions:
  status: ('A' for Active; 'I' for Inactive)
    1  A    between atoms: C_1  and  C_29
    2  A    between atoms: C_1  and  O_31
    3  A    between atoms: C_2  and  C_24
    4  A    between atoms: C_4  and  C_5
    5  A    between atoms: C_4  and  O_31
    6  A    between atoms: C_4  and  C_35
    7  A    between atoms: C_6  and  C_26
    8  A    between atoms: N_8  and  C_18
    9  A    between atoms: N_8  and  C_22
   10  A    between atoms: C_12  and  N_37
   11  A    between atoms: C_12  and  C_38
   12  A    between atoms: C_16  and  C_17
   13  A    between atoms: C_19  and  C_29
   14  A    between atoms: C_24  and  C_43
   15  A    between atoms: C_26  and  C_35
   16  A    between atoms: C_27  and  S_44
   17  A    between atoms: C_43  and  S_44
                            x       y       z     vdW  Elec       q    Type
                         _______ _______ _______ _____ _____    ______ ____

>  <TORSDO>
F 17

$$$$
=
 OpenBabel11042412213D

 44 47  0  0  1  0  0  0  0  0999 V2000
  184.6250  178.9270  140.4650 C   0  0  1  0  0  3  0  0  0  0  0  0
  181.2510  180.4940  138.4940 C   0  0  0  0  0  3  0  0  0  0  0  0
  183.7040  177.8780  139.8390 C   0  0  2  0  0  3  0  0  0  0  0  0
  180.3920  178.2030  137.8810 C   0  0  2  0  0  3  0  0  0  0  0  0
  179.5970  177.2530  136.6030 Cl  0  0  0  0  0  0  0  0  0  0  0  0
  180.4790  179.6830  137.4790 C   0  0  1  0  0  3  0  0  0  0  0  0
  182.5180  178.4830  139.1740 C   0  0  2  0  0  0  0  0  0  0  0  0
  182.2140  179.9550  139.2500 C   0  0  0  0  0  3  0  0  0  0  0  0
  182.4300  177.9050  140.4500 O   0  0  0  0  0  0  0  0  0  0  0  0
  181.7900  177.6390  138.1300 C   0  0  0  0  0  2  0  0  0  0  0  0
  179.1370  180.2370  137.3160 N   0  0  0  0  0  2  0  0  0  0  0  0
  180.6960  183.1550  135.7270 C   0  0  1  0  0  3  0  0  0  0  0  0
  180.6240  184.5280  135.0780 C   0  0  0  0  0  1  0  0  0  0  0  0
  180.4120  180.8870  135.3520 C   0  0  0  0  0  2  0  0  0  0  0  0
  179.1590  181.1370  136.1690 C   0  0  2  0  0  3  0  0  0  0  0  0
  179.2070  182.8670  136.7280 S   0  0  0  0  0  0  0  0  0  0  0  0
  180.7840  182.1290  134.6980 N   0  0  0  0  0  2  0  0  0  0  0  0
  186.4370  179.0300  142.0510 O   0  0  0  0  0  1  0  0  0  0  0  0
  185.2140  178.4120  141.7740 C   0  0  1  0  0  3  0  0  0  0  0  0
  184.2460  178.6410  142.9210 C   0  0  0  0  0  2  0  0  0  0  0  0
  184.9750  178.5630  144.2240 C   0  0  0  0  0  0  0  0  0  0  0  0
  185.5800  178.9740  146.2590 C   0  0  0  0  0  0  0  0  0  0  0  0
  186.3200  177.7240  145.9180 C   0  0  1  0  0  3  0  0  0  0  0  0
  184.7730  179.4150  145.1760 N   0  0  0  0  0  0  0  0  0  0  0  0
  185.6180  179.5580  147.3770 O   0  0  0  0  0  0  0  0  0  0  0  0
  185.8810  177.5000  144.5430 N   0  0  0  0  0  2  0  0  0  0  0  0
  187.8340  177.3420  148.3100 O   0  0  0  0  0  1  0  0  0  0  0  0
  187.8140  177.8930  145.9590 C   0  0  0  0  0  0  0  0  0  0  0  0
  188.4690  178.0690  144.8900 O   0  0  0  0  0  0  0  0  0  0  0  0
  188.5010  177.7770  147.2130 N   0  0  0  0  0  0  0  0  0  0  0  0
  189.9320  178.0350  147.3120 C   0  0  0  0  0  2  0  0  0  0  0  0
  190.1410  175.6630  147.3960 O   0  0  0  0  0  1  0  0  0  0  0  0
  192.0190  176.7950  146.7180 O   0  0  0  0  0  0  0  0  0  0  0  0
  190.7000  176.7670  147.1570 C   0  0  0  0  0  0  0  0  0  0  0  0
  185.6450  179.2530  139.5630 O   0  0  0  0  0  0  0  0  0  0  0  0
  185.8790  178.0820  138.8340 C   0  0  0  0  0  2  0  0  0  0  0  0
  186.5380  178.4170  137.5100 C   0  0  0  0  0  2  0  0  0  0  0  0
  188.5750  177.8940  138.7680 C   0  0  0  0  0  3  0  0  0  0  0  0
  188.0150  178.2320  137.6060 C   0  0  0  0  0  3  0  0  0  0  0  0
  190.0500  177.6740  138.8780 C   0  0  0  0  0  2  0  0  0  0  0  0
  190.3520  176.7100  140.0110 C   0  0  0  0  0  2  0  0  0  0  0  0
  189.4770  177.2180  141.5160 S   0  0  0  0  0  0  0  0  0  0  0  0
  191.0140  177.5610  142.4260 C   0  0  0  0  0  2  0  0  0  0  0  0
  191.3570  176.3860  143.3230 C   0  0  0  0  0  1  0  0  0  0  0  0
  1 35  1  6  0  0  0
  1 19  1  0  0  0  0
  2  8  2  0  0  0  0
  3  9  1  0  0  0  0
  3  1  1  1  0  0  0
  4  5  1  6  0  0  0
  4 10  1  0  0  0  0
  6 11  1  1  0  0  0
  6  4  1  0  0  0  0
  6  2  1  0  0  0  0
  7 10  1  6  0  0  0
  7  8  1  0  0  0  0
  7  3  1  0  0  0  0
  7  9  1  0  0  0  0
 12 13  1  6  0  0  0
 12 16  1  0  0  0  0
 14 15  1  0  0  0  0
 15 16  1  0  0  0  0
 15 11  1  1  0  0  0
 17 14  1  0  0  0  0
 17 12  1  0  0  0  0
 19 18  1  1  0  0  0
 19 20  1  0  0  0  0
 20 21  1  0  0  0  0
 21 26  1  0  0  0  0
 21 24  2  0  0  0  0
 22 25  2  0  0  0  0
 23 28  1  6  0  0  0
 23 22  1  0  0  0  0
 24 22  1  0  0  0  0
 26 23  1  0  0  0  0
 28 30  1  0  0  0  0
 29 28  2  0  0  0  0
 30 31  1  0  0  0  0
 30 27  1  0  0  0  0
 33 34  2  0  0  0  0
 34 31  1  0  0  0  0
 34 32  1  0  0  0  0
 36 35  1  0  0  0  0
 37 39  1  0  0  0  0
 37 36  1  0  0  0  0
 38 40  1  0  0  0  0
 39 38  2  0  0  0  0
 40 41  1  0  0  0  0
 41 42  1  0  0  0  0
 42 43  1  0  0  0  0
 43 44  1  0  0  0  0
M  END
>  <MODEL>
2

>  <REMARK>
 VINA RESULT:      -6.3      4.430      7.080
  Name = 
  17 active torsions:
  status: ('A' for Active; 'I' for Inactive)
    1  A    between atoms: C_1  and  C_29
    2  A    between atoms: C_1  and  O_31
    3  A    between atoms: C_2  and  C_24
    4  A    between atoms: C_4  and  C_5
    5  A    between atoms: C_4  and  O_31
    6  A    between atoms: C_4  and  C_35
    7  A    between atoms: C_6  and  C_26
    8  A    between atoms: N_8  and  C_18
    9  A    between atoms: N_8  and  C_22
   10  A    between atoms: C_12  and  N_37
   11  A    between atoms: C_12  and  C_38
   12  A    between atoms: C_16  and  C_17
   13  A    between atoms: C_19  and  C_29
   14  A    between atoms: C_24  and  C_43
   15  A    between atoms: C_26  and  C_35
   16  A    between atoms: C_27  and  S_44
   17  A    between atoms: C_43  and  S_44
                            x       y       z     vdW  Elec       q    Type
                         _______ _______ _______ _____ _____    ______ ____

>  <TORSDO>
F 17

$$$$
=
 OpenBabel11042412213D

 44 47  0  0  1  0  0  0  0  0999 V2000
  185.2220  178.8430  144.0880 C   0  0  1  0  0  3  0  0  0  0  0  0
  188.6520  178.6780  141.6520 C   0  0  0  0  0  3  0  0  0  0  0  0
  186.0190  177.5410  144.1900 C   0  0  2  0  0  3  0  0  0  0  0  0
  189.2280  176.3420  142.4080 C   0  0  2  0  0  3  0  0  0  0  0  0
  190.5680  175.2540  142.8440 Cl  0  0  0  0  0  0  0  0  0  0  0  0
  189.7680  177.6950  141.9200 C   0  0  1  0  0  3  0  0  0  0  0  0
  187.2080  177.5270  143.2950 C   0  0  2  0  0  0  0  0  0  0  0  0
  187.4870  178.6280  142.3070 C   0  0  0  0  0  3  0  0  0  0  0  0
  186.0210  176.8590  142.9520 O   0  0  0  0  0  0  0  0  0  0  0  0
  188.3260  176.5400  143.6250 C   0  0  0  0  0  2  0  0  0  0  0  0
  190.5680  177.5080  140.7120 N   0  0  0  0  0  2  0  0  0  0  0  0
  189.8670  177.5150  137.1090 C   0  0  1  0  0  3  0  0  0  0  0  0
  188.9570  177.7780  135.9200 C   0  0  0  0  0  1  0  0  0  0  0  0
  190.3450  176.0150  138.8080 C   0  0  0  0  0  2  0  0  0  0  0  0
  189.6730  177.0880  139.6410 C   0  0  2  0  0  3  0  0  0  0  0  0
  189.3100  178.4880  138.5390 S   0  0  0  0  0  0  0  0  0  0  0  0
  189.8310  176.1010  137.4530 N   0  0  0  0  0  2  0  0  0  0  0  0
  182.8150  178.8360  144.2180 O   0  0  0  0  0  1  0  0  0  0  0  0
  183.9000  178.6080  143.3650 C   0  0  1  0  0  3  0  0  0  0  0  0
  183.7940  179.5000  142.1410 C   0  0  0  0  0  2  0  0  0  0  0  0
  183.5980  178.6620  140.9190 C   0  0  0  0  0  0  0  0  0  0  0  0
  183.0400  177.0130  139.6350 C   0  0  0  0  0  0  0  0  0  0  0  0
  183.4250  178.0910  138.6770 C   0  0  1  0  0  3  0  0  0  0  0  0
  183.1620  177.4450  140.9830 N   0  0  0  0  0  0  0  0  0  0  0  0
  182.6150  175.8710  139.3100 O   0  0  0  0  0  0  0  0  0  0  0  0
  183.7950  179.1670  139.5930 N   0  0  0  0  0  2  0  0  0  0  0  0
  183.1170  176.9390  136.0800 O   0  0  0  0  0  1  0  0  0  0  0  0
  184.6020  177.7210  137.8160 C   0  0  0  0  0  0  0  0  0  0  0  0
  185.7760  178.0480  138.1610 O   0  0  0  0  0  0  0  0  0  0  0  0
  184.3780  177.0620  136.5620 N   0  0  0  0  0  0  0  0  0  0  0  0
  185.4940  176.5960  135.7490 C   0  0  0  0  0  2  0  0  0  0  0  0
  184.9820  174.4270  136.5920 O   0  0  0  0  0  1  0  0  0  0  0  0
  187.1550  174.7370  135.9220 O   0  0  0  0  0  0  0  0  0  0  0  0
  185.8600  175.2000  136.1220 C   0  0  0  0  0  0  0  0  0  0  0  0
  184.9970  179.3560  145.3700 O   0  0  0  0  0  0  0  0  0  0  0  0
  185.0510  178.2490  146.2240 C   0  0  0  0  0  2  0  0  0  0  0  0
  185.7300  178.6300  147.5260 C   0  0  0  0  0  2  0  0  0  0  0  0
  187.9420  178.2450  148.5070 C   0  0  0  0  0  3  0  0  0  0  0  0
  187.2050  178.4400  147.4130 C   0  0  0  0  0  3  0  0  0  0  0  0
  189.4180  178.0230  148.4130 C   0  0  0  0  0  2  0  0  0  0  0  0
  189.7560  177.2810  147.1320 C   0  0  0  0  0  2  0  0  0  0  0  0
  191.2820  176.3250  147.3450 S   0  0  0  0  0  0  0  0  0  0  0  0
  191.8050  176.5670  145.6200 C   0  0  0  0  0  2  0  0  0  0  0  0
  191.3010  177.9040  145.1090 C   0  0  0  0  0  1  0  0  0  0  0  0
  1 35  1  1  0  0  0
  2  6  1  0  0  0  0
  2  8  2  0  0  0  0
  3  1  1  6  0  0  0
  4  5  1  1  0  0  0
  4 10  1  0  0  0  0
  6 11  1  6  0  0  0
  6  4  1  0  0  0  0
  7  8  1  6  0  0  0
  7 10  1  0  0  0  0
  7  3  1  0  0  0  0
  9  7  1  0  0  0  0
  9  3  1  0  0  0  0
 12 13  1  6  0  0  0
 12 17  1  0  0  0  0
 12 16  1  0  0  0  0
 14 15  1  0  0  0  0
 15 11  1  1  0  0  0
 16 15  1  0  0  0  0
 17 14  1  0  0  0  0
 19  1  1  0  0  0  0
 19 18  1  1  0  0  0
 20 19  1  0  0  0  0
 21 24  2  0  0  0  0
 21 20  1  0  0  0  0
 22 24  1  0  0  0  0
 23 28  1  1  0  0  0
 23 26  1  0  0  0  0
 23 22  1  0  0  0  0
 25 22  2  0  0  0  0
 26 21  1  0  0  0  0
 27 30  1  0  0  0  0
 28 29  2  0  0  0  0
 30 28  1  0  0  0  0
 31 34  1  0  0  0  0
 31 30  1  0  0  0  0
 33 34  2  0  0  0  0
 34 32  1  0  0  0  0
 35 36  1  0  0  0  0
 36 37  1  0  0  0  0
 39 37  1  0  0  0  0
 39 38  2  0  0  0  0
 40 38  1  0  0  0  0
 41 42  1  0  0  0  0
 41 40  1  0  0  0  0
 43 42  1  0  0  0  0
 44 43  1  0  0  0  0
M  END
>  <MODEL>
3

>  <REMARK>
 VINA RESULT:      -6.2      4.094      7.123
  Name = 
  17 active torsions:
  status: ('A' for Active; 'I' for Inactive)
    1  A    between atoms: C_1  and  C_29
    2  A    between atoms: C_1  and  O_31
    3  A    between atoms: C_2  and  C_24
    4  A    between atoms: C_4  and  C_5
    5  A    between atoms: C_4  and  O_31
    6  A    between atoms: C_4  and  C_35
    7  A    between atoms: C_6  and  C_26
    8  A    between atoms: N_8  and  C_18
    9  A    between atoms: N_8  and  C_22
   10  A    between atoms: C_12  and  N_37
   11  A    between atoms: C_12  and  C_38
   12  A    between atoms: C_16  and  C_17
   13  A    between atoms: C_19  and  C_29
   14  A    between atoms: C_24  and  C_43
   15  A    between atoms: C_26  and  C_35
   16  A    between atoms: C_27  and  S_44
   17  A    between atoms: C_43  and  S_44
                            x       y       z     vdW  Elec       q    Type
                         _______ _______ _______ _____ _____    ______ ____

>  <TORSDO>
F 17

$$$$
=
 OpenBabel11042412213D

 44 47  0  0  1  0  0  0  0  0999 V2000
  187.6160  176.2680  137.0740 C   0  0  1  0  0  3  0  0  0  0  0  0
  189.3140  177.1530  140.8240 C   0  0  0  0  0  3  0  0  0  0  0  0
  189.1240  176.5260  137.0500 C   0  0  2  0  0  3  0  0  0  0  0  0
  191.6220  177.4420  139.8480 C   0  0  2  0  0  3  0  0  0  0  0  0
  193.3540  177.1430  140.1240 Cl  0  0  0  0  0  0  0  0  0  0  0  0
  190.7980  177.0170  141.0730 C   0  0  1  0  0  3  0  0  0  0  0  0
  189.6690  176.8540  138.3950 C   0  0  2  0  0  0  0  0  0  0  0  0
  188.7860  177.0420  139.6000 C   0  0  0  0  0  3  0  0  0  0  0  0
  189.4090  177.8530  137.4440 O   0  0  0  0  0  0  0  0  0  0  0  0
  191.1690  176.6680  138.6110 C   0  0  0  0  0  2  0  0  0  0  0  0
  191.1830  177.8130  142.2360 N   0  0  0  0  0  2  0  0  0  0  0  0
  191.4060  177.0880  145.8270 C   0  0  1  0  0  3  0  0  0  0  0  0
  191.3410  176.1360  147.0100 C   0  0  0  0  0  1  0  0  0  0  0  0
  190.1270  178.3440  144.3600 C   0  0  0  0  0  2  0  0  0  0  0  0
  190.5360  177.2360  143.4090 C   0  0  2  0  0  3  0  0  0  0  0  0
  191.6940  176.1520  144.2970 S   0  0  0  0  0  0  0  0  0  0  0  0
  190.1500  177.8150  145.7110 N   0  0  0  0  0  2  0  0  0  0  0  0
  187.2040  177.7120  135.1890 O   0  0  0  0  0  1  0  0  0  0  0  0
  186.8570  177.4690  136.5210 C   0  0  1  0  0  3  0  0  0  0  0  0
  185.3590  177.2530  136.6360 C   0  0  0  0  0  2  0  0  0  0  0  0
  184.8280  177.9980  137.8180 C   0  0  0  0  0  0  0  0  0  0  0  0
  184.7520  179.1220  139.6650 C   0  0  0  0  0  0  0  0  0  0  0  0
  183.3450  179.1660  139.1680 C   0  0  1  0  0  3  0  0  0  0  0  0
  185.5970  178.4010  138.7780 N   0  0  0  0  0  0  0  0  0  0  0  0
  185.1700  179.6840  140.7140 O   0  0  0  0  0  0  0  0  0  0  0  0
  183.4550  178.3930  137.9330 N   0  0  0  0  0  2  0  0  0  0  0  0
  180.8350  180.3530  139.8430 O   0  0  0  0  0  1  0  0  0  0  0  0
  182.3700  178.5060  140.1020 C   0  0  0  0  0  0  0  0  0  0  0  0
  182.5700  177.3230  140.5080 O   0  0  0  0  0  0  0  0  0  0  0  0
  181.1690  179.1980  140.4710 N   0  0  0  0  0  0  0  0  0  0  0  0
  180.2490  178.6380  141.4530 C   0  0  0  0  0  2  0  0  0  0  0  0
  180.8730  178.6490  143.7530 O   0  0  0  0  0  1  0  0  0  0  0  0
  180.1420  180.6580  142.9200 O   0  0  0  0  0  0  0  0  0  0  0  0
  180.4290  179.3060  142.7730 C   0  0  0  0  0  0  0  0  0  0  0  0
  187.3260  175.1180  136.3290 O   0  0  0  0  0  0  0  0  0  0  0  0
  187.6700  174.0470  137.1600 C   0  0  0  0  0  2  0  0  0  0  0  0
  186.8270  172.8330  136.8180 C   0  0  0  0  0  2  0  0  0  0  0  0
  184.4260  172.3560  136.7250 C   0  0  0  0  0  3  0  0  0  0  0  0
  185.4130  173.2380  136.5740 C   0  0  0  0  0  3  0  0  0  0  0  0
  182.9980  172.7520  136.5140 C   0  0  0  0  0  2  0  0  0  0  0  0
  182.0730  171.7210  137.1350 C   0  0  0  0  0  2  0  0  0  0  0  0
  180.4370  172.4470  137.4320 S   0  0  0  0  0  0  0  0  0  0  0  0
  181.1000  174.1240  137.6610 C   0  0  0  0  0  2  0  0  0  0  0  0
  180.4530  174.7760  138.8680 C   0  0  0  0  0  1  0  0  0  0  0  0
  1 35  1  6  0  0  0
  2  6  1  0  0  0  0
  3  1  1  1  0  0  0
  3  9  1  0  0  0  0
  3  7  1  0  0  0  0
  4  5  1  1  0  0  0
  4  6  1  0  0  0  0
  6 11  1  1  0  0  0
  7 10  1  1  0  0  0
  7  8  1  0  0  0  0
  8  2  2  0  0  0  0
  9  7  1  0  0  0  0
 10  4  1  0  0  0  0
 12 13  1  1  0  0  0
 14 17  1  0  0  0  0
 15 11  1  6  0  0  0
 15 16  1  0  0  0  0
 15 14  1  0  0  0  0
 16 12  1  0  0  0  0
 17 12  1  0  0  0  0
 19 18  1  6  0  0  0
 19 20  1  0  0  0  0
 19  1  1  0  0  0  0
 20 21  1  0  0  0  0
 21 26  1  0  0  0  0
 21 24  2  0  0  0  0
 22 25  2  0  0  0  0
 23 22  1  0  0  0  0
 23 28  1  1  0  0  0
 24 22  1  0  0  0  0
 26 23  1  0  0  0  0
 27 30  1  0  0  0  0
 28 30  1  0  0  0  0
 28 29  2  0  0  0  0
 30 31  1  0  0  0  0
 31 34  1  0  0  0  0
 34 33  2  0  0  0  0
 34 32  1  0  0  0  0
 35 36  1  0  0  0  0
 37 36  1  0  0  0  0
 39 38  2  0  0  0  0
 39 37  1  0  0  0  0
 40 38  1  0  0  0  0
 40 41  1  0  0  0  0
 41 42  1  0  0  0  0
 42 43  1  0  0  0  0
 43 44  1  0  0  0  0
M  END
>  <MODEL>
4

>  <REMARK>
 VINA RESULT:      -6.2      3.549     10.560
  Name = 
  17 active torsions:
  status: ('A' for Active; 'I' for Inactive)
    1  A    between atoms: C_1  and  C_29
    2  A    between atoms: C_1  and  O_31
    3  A    between atoms: C_2  and  C_24
    4  A    between atoms: C_4  and  C_5
    5  A    between atoms: C_4  and  O_31
    6  A    between atoms: C_4  and  C_35
    7  A    between atoms: C_6  and  C_26
    8  A    between atoms: N_8  and  C_18
    9  A    between atoms: N_8  and  C_22
   10  A    between atoms: C_12  and  N_37
   11  A    between atoms: C_12  and  C_38
   12  A    between atoms: C_16  and  C_17
   13  A    between atoms: C_19  and  C_29
   14  A    between atoms: C_24  and  C_43
   15  A    between atoms: C_26  and  C_35
   16  A    between atoms: C_27  and  S_44
   17  A    between atoms: C_43  and  S_44
                            x       y       z     vdW  Elec       q    Type
                         _______ _______ _______ _____ _____    ______ ____

>  <TORSDO>
F 17

$$$$
=
 OpenBabel11042412213D

 44 47  0  0  1  0  0  0  0  0999 V2000
  187.1390  176.5550  137.4490 C   0  0  1  0  0  3  0  0  0  0  0  0
  189.1180  177.1950  141.1090 C   0  0  0  0  0  3  0  0  0  0  0  0
  188.6420  176.8140  137.3280 C   0  0  2  0  0  3  0  0  0  0  0  0
  191.3470  177.5480  139.9840 C   0  0  2  0  0  3  0  0  0  0  0  0
  193.0940  177.2320  140.1090 Cl  0  0  0  0  0  0  0  0  0  0  0  0
  190.6160  177.0440  141.2370 C   0  0  1  0  0  3  0  0  0  0  0  0
  189.2880  177.0540  138.6470 C   0  0  2  0  0  0  0  0  0  0  0  0
  188.4990  177.1640  139.9240 C   0  0  0  0  0  3  0  0  0  0  0  0
  188.9620  178.1130  137.7850 O   0  0  0  0  0  0  0  0  0  0  0  0
  190.7990  176.8560  138.7370 C   0  0  0  0  0  2  0  0  0  0  0  0
  191.0910  177.7640  142.4170 N   0  0  0  0  0  2  0  0  0  0  0  0
  191.4030  177.0110  145.9960 C   0  0  1  0  0  3  0  0  0  0  0  0
  191.4020  176.0440  147.1690 C   0  0  0  0  0  1  0  0  0  0  0  0
  190.0440  178.2200  144.5620 C   0  0  0  0  0  2  0  0  0  0  0  0
  190.4900  177.1440  143.5920 C   0  0  2  0  0  3  0  0  0  0  0  0
  191.7130  176.1070  144.4510 S   0  0  0  0  0  0  0  0  0  0  0  0
  190.1120  177.6780  145.9070 N   0  0  0  0  0  2  0  0  0  0  0  0
  186.7730  178.3380  135.8700 O   0  0  0  0  0  1  0  0  0  0  0  0
  186.3470  177.8080  137.0910 C   0  0  1  0  0  3  0  0  0  0  0  0
  184.8610  177.5020  137.0350 C   0  0  0  0  0  2  0  0  0  0  0  0
  184.1900  178.0190  138.2660 C   0  0  0  0  0  0  0  0  0  0  0  0
  182.8260  179.0930  139.5570 C   0  0  0  0  0  0  0  0  0  0  0  0
  183.5590  178.1890  140.4920 C   0  0  1  0  0  3  0  0  0  0  0  0
  183.2610  178.9200  138.2150 N   0  0  0  0  0  0  0  0  0  0  0  0
  181.9030  179.8860  139.8880 O   0  0  0  0  0  0  0  0  0  0  0  0
  184.4610  177.5010  139.5740 N   0  0  0  0  0  2  0  0  0  0  0  0
  182.7570  178.3100  143.2320 O   0  0  0  0  0  1  0  0  0  0  0  0
  184.3520  178.9340  141.5300 C   0  0  0  0  0  0  0  0  0  0  0  0
  185.4900  179.4140  141.2460 O   0  0  0  0  0  0  0  0  0  0  0  0
  183.8450  179.0330  142.8680 N   0  0  0  0  0  0  0  0  0  0  0  0
  184.5310  179.8320  143.8760 C   0  0  0  0  0  2  0  0  0  0  0  0
  184.2340  179.0100  146.0930 O   0  0  0  0  0  1  0  0  0  0  0  0
  186.0160  178.1290  144.9450 O   0  0  0  0  0  0  0  0  0  0  0  0
  184.9200  178.9800  145.0360 C   0  0  0  0  0  0  0  0  0  0  0  0
  186.7780  175.4910  136.6130 O   0  0  0  0  0  0  0  0  0  0  0  0
  187.3200  174.3510  137.2170 C   0  0  0  0  0  2  0  0  0  0  0  0
  186.2630  173.2680  137.3240 C   0  0  0  0  0  2  0  0  0  0  0  0
  183.8330  173.3010  137.0150 C   0  0  0  0  0  3  0  0  0  0  0  0
  185.0370  173.6670  136.5750 C   0  0  0  0  0  3  0  0  0  0  0  0
  182.5890  173.7170  136.2950 C   0  0  0  0  0  2  0  0  0  0  0  0
  181.4340  173.8360  137.2720 C   0  0  0  0  0  2  0  0  0  0  0  0
  181.7050  175.2360  138.3940 S   0  0  0  0  0  0  0  0  0  0  0  0
  180.0320  175.1350  139.1010 C   0  0  0  0  0  2  0  0  0  0  0  0
  179.4400  173.7630  138.8360 C   0  0  0  0  0  1  0  0  0  0  0  0
  1 35  1  6  0  0  0
  2  6  1  0  0  0  0
  3  1  1  1  0  0  0
  3  9  1  0  0  0  0
  3  7  1  0  0  0  0
  4  5  1  1  0  0  0
  4  6  1  0  0  0  0
  6 11  1  1  0  0  0
  7 10  1  1  0  0  0
  7  8  1  0  0  0  0
  8  2  2  0  0  0  0
  9  7  1  0  0  0  0
 10  4  1  0  0  0  0
 12 13  1  1  0  0  0
 14 17  1  0  0  0  0
 15 11  1  6  0  0  0
 15 16  1  0  0  0  0
 15 14  1  0  0  0  0
 16 12  1  0  0  0  0
 17 12  1  0  0  0  0
 19 18  1  6  0  0  0
 19  1  1  0  0  0  0
 20 19  1  0  0  0  0
 20 21  1  0  0  0  0
 21 26  1  0  0  0  0
 22 25  2  0  0  0  0
 22 23  1  0  0  0  0
 23 28  1  1  0  0  0
 24 21  2  0  0  0  0
 24 22  1  0  0  0  0
 26 23  1  0  0  0  0
 28 30  1  0  0  0  0
 29 28  2  0  0  0  0
 30 27  1  0  0  0  0
 30 31  1  0  0  0  0
 31 34  1  0  0  0  0
 33 34  2  0  0  0  0
 34 32  1  0  0  0  0
 35 36  1  0  0  0  0
 36 37  1  0  0  0  0
 39 38  2  0  0  0  0
 39 37  1  0  0  0  0
 40 38  1  0  0  0  0
 40 41  1  0  0  0  0
 41 42  1  0  0  0  0
 42 43  1  0  0  0  0
 44 43  1  0  0  0  0
M  END
>  <MODEL>
5

>  <REMARK>
 VINA RESULT:      -6.2      3.547      9.973
  Name = 
  17 active torsions:
  status: ('A' for Active; 'I' for Inactive)
    1  A    between atoms: C_1  and  C_29
    2  A    between atoms: C_1  and  O_31
    3  A    between atoms: C_2  and  C_24
    4  A    between atoms: C_4  and  C_5
    5  A    between atoms: C_4  and  O_31
    6  A    between atoms: C_4  and  C_35
    7  A    between atoms: C_6  and  C_26
    8  A    between atoms: N_8  and  C_18
    9  A    between atoms: N_8  and  C_22
   10  A    between atoms: C_12  and  N_37
   11  A    between atoms: C_12  and  C_38
   12  A    between atoms: C_16  and  C_17
   13  A    between atoms: C_19  and  C_29
   14  A    between atoms: C_24  and  C_43
   15  A    between atoms: C_26  and  C_35
   16  A    between atoms: C_27  and  S_44
   17  A    between atoms: C_43  and  S_44
                            x       y       z     vdW  Elec       q    Type
                         _______ _______ _______ _____ _____    ______ ____

>  <TORSDO>
F 17

$$$$
=
 OpenBabel11042412213D

 44 47  0  0  1  0  0  0  0  0999 V2000
  189.1090  176.8660  138.8590 C   0  0  1  0  0  3  0  0  0  0  0  0
  189.1000  176.0520  142.9900 C   0  0  0  0  0  3  0  0  0  0  0  0
  189.9030  177.8590  139.7100 C   0  0  2  0  0  3  0  0  0  0  0  0
  190.5080  178.0770  143.5170 C   0  0  2  0  0  3  0  0  0  0  0  0
  191.8290  178.6910  144.5400 Cl  0  0  0  0  0  0  0  0  0  0  0  0
  190.1390  176.6400  143.9150 C   0  0  1  0  0  3  0  0  0  0  0  0
  189.8500  177.5380  141.1620 C   0  0  2  0  0  0  0  0  0  0  0  0
  188.9870  176.4350  141.7130 C   0  0  0  0  0  3  0  0  0  0  0  0
  189.0490  178.5460  140.6020 O   0  0  0  0  0  0  0  0  0  0  0  0
  190.9410  178.1260  142.0530 C   0  0  0  0  0  2  0  0  0  0  0  0
  189.6540  176.6110  145.2930 N   0  0  0  0  0  2  0  0  0  0  0  0
  186.3410  177.7100  146.4300 C   0  0  1  0  0  3  0  0  0  0  0  0
  185.0140  178.4190  146.2100 C   0  0  0  0  0  1  0  0  0  0  0  0
  188.5770  178.0350  146.9420 C   0  0  0  0  0  2  0  0  0  0  0  0
  188.7290  177.7250  145.4660 C   0  0  2  0  0  3  0  0  0  0  0  0
  187.0840  177.2820  144.8280 S   0  0  0  0  0  0  0  0  0  0  0  0
  187.2500  178.5840  147.1580 N   0  0  0  0  0  2  0  0  0  0  0  0
  189.0540  177.8220  136.6470 O   0  0  0  0  0  1  0  0  0  0  0  0
  188.2930  177.5990  137.7990 C   0  0  1  0  0  3  0  0  0  0  0  0
  187.0420  176.8130  137.4510 C   0  0  0  0  0  2  0  0  0  0  0  0
  185.8320  177.5420  137.9400 C   0  0  0  0  0  0  0  0  0  0  0  0
  184.5830  179.0540  138.8530 C   0  0  0  0  0  0  0  0  0  0  0  0
  183.6050  178.1460  138.1830 C   0  0  1  0  0  3  0  0  0  0  0  0
  185.9210  178.6230  138.6470 N   0  0  0  0  0  0  0  0  0  0  0  0
  184.2830  180.1010  139.4900 O   0  0  0  0  0  0  0  0  0  0  0  0
  184.4980  177.1510  137.5950 N   0  0  0  0  0  2  0  0  0  0  0  0
  180.8440  178.8610  138.3520 O   0  0  0  0  0  1  0  0  0  0  0  0
  182.6610  177.4830  139.1470 C   0  0  0  0  0  0  0  0  0  0  0  0
  183.0330  176.4750  139.8180 O   0  0  0  0  0  0  0  0  0  0  0  0
  181.3090  177.9530  139.2450 N   0  0  0  0  0  0  0  0  0  0  0  0
  180.3930  177.4060  140.2390 C   0  0  0  0  0  2  0  0  0  0  0  0
  181.1880  179.2280  141.5530 O   0  0  0  0  0  0  0  0  0  0  0  0
  179.5160  177.9790  142.5070 O   0  0  0  0  0  1  0  0  0  0  0  0
  180.3990  178.2490  141.4680 C   0  0  0  0  0  0  0  0  0  0  0  0
  189.9870  175.9550  138.2600 O   0  0  0  0  0  0  0  0  0  0  0  0
  191.2680  176.3900  138.6180 C   0  0  0  0  0  2  0  0  0  0  0  0
  192.2640  176.0170  137.5380 C   0  0  0  0  0  2  0  0  0  0  0  0
  194.3530  174.7410  137.6520 C   0  0  0  0  0  3  0  0  0  0  0  0
  193.0580  174.8260  137.9570 C   0  0  0  0  0  3  0  0  0  0  0  0
  195.1740  173.5690  138.0890 C   0  0  0  0  0  2  0  0  0  0  0  0
  196.2950  174.0270  139.0040 C   0  0  0  0  0  2  0  0  0  0  0  0
  197.7310  174.5460  138.0250 S   0  0  0  0  0  0  0  0  0  0  0  0
  198.6410  175.1520  139.4780 C   0  0  0  0  0  2  0  0  0  0  0  0
  197.6910  175.3260  140.6480 C   0  0  0  0  0  1  0  0  0  0  0  0
  1 35  1  6  0  0  0
  2  6  1  0  0  0  0
  3  1  1  6  0  0  0
  3  9  1  0  0  0  0
  3  7  1  0  0  0  0
  4  6  1  0  0  0  0
  4  5  1  1  0  0  0
  6 11  1  1  0  0  0
  7  8  1  1  0  0  0
  7 10  1  0  0  0  0
  8  2  2  0  0  0  0
  9  7  1  0  0  0  0
 10  4  1  0  0  0  0
 12 13  1  6  0  0  0
 12 17  1  0  0  0  0
 14 17  1  0  0  0  0
 15 11  1  1  0  0  0
 15 14  1  0  0  0  0
 16 15  1  0  0  0  0
 16 12  1  0  0  0  0
 19 18  1  6  0  0  0
 19  1  1  0  0  0  0
 20 19  1  0  0  0  0
 20 21  1  0  0  0  0
 21 24  2  0  0  0  0
 22 25  2  0  0  0  0
 23 22  1  0  0  0  0
 23 28  1  1  0  0  0
 24 22  1  0  0  0  0
 26 21  1  0  0  0  0
 26 23  1  0  0  0  0
 27 30  1  0  0  0  0
 28 30  1  0  0  0  0
 28 29  2  0  0  0  0
 30 31  1  0  0  0  0
 31 34  1  0  0  0  0
 34 32  2  0  0  0  0
 34 33  1  0  0  0  0
 35 36  1  0  0  0  0
 37 39  1  0  0  0  0
 37 36  1  0  0  0  0
 38 39  2  0  0  0  0
 38 40  1  0  0  0  0
 40 41  1  0  0  0  0
 42 41  1  0  0  0  0
 42 43  1  0  0  0  0
 43 44  1  0  0  0  0
M  END
>  <MODEL>
6

>  <REMARK>
 VINA RESULT:      -6.0      3.823      9.637
  Name = 
  17 active torsions:
  status: ('A' for Active; 'I' for Inactive)
    1  A    between atoms: C_1  and  C_29
    2  A    between atoms: C_1  and  O_31
    3  A    between atoms: C_2  and  C_24
    4  A    between atoms: C_4  and  C_5
    5  A    between atoms: C_4  and  O_31
    6  A    between atoms: C_4  and  C_35
    7  A    between atoms: C_6  and  C_26
    8  A    between atoms: N_8  and  C_18
    9  A    between atoms: N_8  and  C_22
   10  A    between atoms: C_12  and  N_37
   11  A    between atoms: C_12  and  C_38
   12  A    between atoms: C_16  and  C_17
   13  A    between atoms: C_19  and  C_29
   14  A    between atoms: C_24  and  C_43
   15  A    between atoms: C_26  and  C_35
   16  A    between atoms: C_27  and  S_44
   17  A    between atoms: C_43  and  S_44
                            x       y       z     vdW  Elec       q    Type
                         _______ _______ _______ _____ _____    ______ ____

>  <TORSDO>
F 17

$$$$
=
 OpenBabel11042412213D

 44 47  0  0  1  0  0  0  0  0999 V2000
  186.1650  177.8910  142.8330 C   0  0  1  0  0  3  0  0  0  0  0  0
  182.4390  178.0370  140.8790 C   0  0  0  0  0  3  0  0  0  0  0  0
  185.0670  178.6270  143.6020 C   0  0  2  0  0  3  0  0  0  0  0  0
  181.3780  179.3720  142.7380 C   0  0  2  0  0  3  0  0  0  0  0  0
  179.8910  179.5910  143.6910 Cl  0  0  0  0  0  0  0  0  0  0  0  0
  181.1610  178.3290  141.6310 C   0  0  1  0  0  3  0  0  0  0  0  0
  183.7780  178.6670  142.8590 C   0  0  2  0  0  0  0  0  0  0  0  0
  183.6420  178.1560  141.4500 C   0  0  0  0  0  3  0  0  0  0  0  0
  184.6430  179.7730  142.8920 O   0  0  0  0  0  0  0  0  0  0  0  0
  182.5080  178.9310  143.6660 C   0  0  0  0  0  2  0  0  0  0  0  0
  180.1310  178.7900  140.7030 N   0  0  0  0  0  2  0  0  0  0  0  0
  179.6250  175.2460  139.8910 C   0  0  1  0  0  3  0  0  0  0  0  0
  178.9760  174.1350  139.0820 C   0  0  0  0  0  1  0  0  0  0  0  0
  179.3050  176.7120  141.6560 C   0  0  0  0  0  2  0  0  0  0  0  0
  179.1760  177.7040  140.5160 C   0  0  2  0  0  3  0  0  0  0  0  0
  179.5340  176.8110  138.9720 S   0  0  0  0  0  0  0  0  0  0  0  0
  178.9310  175.4000  141.1620 N   0  0  0  0  0  2  0  0  0  0  0  0
  188.1340  178.8930  141.8700 O   0  0  0  0  0  1  0  0  0  0  0  0
  186.7460  178.7820  141.7410 C   0  0  1  0  0  3  0  0  0  0  0  0
  186.3940  178.2410  140.3660 C   0  0  0  0  0  2  0  0  0  0  0  0
  187.6170  178.2020  139.5080 C   0  0  0  0  0  0  0  0  0  0  0  0
  189.0020  178.6090  137.8970 C   0  0  0  0  0  0  0  0  0  0  0  0
  189.8110  177.8090  138.8630 C   0  0  1  0  0  3  0  0  0  0  0  0
  187.6780  178.8150  138.3700 N   0  0  0  0  0  0  0  0  0  0  0  0
  189.4310  179.0880  136.8120 O   0  0  0  0  0  0  0  0  0  0  0  0
  188.8320  177.5610  139.9170 N   0  0  0  0  0  2  0  0  0  0  0  0
  192.5160  176.9280  139.1310 O   0  0  0  0  0  1  0  0  0  0  0  0
  190.2920  176.5050  138.2900 C   0  0  0  0  0  0  0  0  0  0  0  0
  189.4690  175.6800  137.7920 O   0  0  0  0  0  0  0  0  0  0  0  0
  191.6830  176.1650  138.3800 N   0  0  0  0  0  0  0  0  0  0  0  0
  192.2050  174.9610  137.7480 C   0  0  0  0  0  2  0  0  0  0  0  0
  193.5840  175.2650  135.8280 O   0  0  0  0  0  0  0  0  0  0  0  0
  194.6370  175.5260  137.8500 O   0  0  0  0  0  1  0  0  0  0  0  0
  193.5100  175.2470  137.0860 C   0  0  0  0  0  0  0  0  0  0  0  0
  187.1690  177.4850  143.7210 O   0  0  0  0  0  0  0  0  0  0  0  0
  186.5070  177.2160  144.9240 C   0  0  0  0  0  2  0  0  0  0  0  0
  187.2870  177.7980  146.0880 C   0  0  0  0  0  2  0  0  0  0  0  0
  189.4660  177.0390  146.9090 C   0  0  0  0  0  3  0  0  0  0  0  0
  188.7450  177.5460  145.9090 C   0  0  0  0  0  3  0  0  0  0  0  0
  190.9250  176.7500  146.7410 C   0  0  0  0  0  2  0  0  0  0  0  0
  191.4250  177.3320  145.4310 C   0  0  0  0  0  2  0  0  0  0  0  0
  191.6670  176.0120  144.2100 S   0  0  0  0  0  0  0  0  0  0  0  0
  191.3890  177.1190  142.7950 C   0  0  0  0  0  2  0  0  0  0  0  0
  191.2630  178.5520  143.2750 C   0  0  0  0  0  1  0  0  0  0  0  0
  1 35  1  1  0  0  0
  2  8  2  0  0  0  0
  2  6  1  0  0  0  0
  3  1  1  6  0  0  0
  4 10  1  0  0  0  0
  4  5  1  1  0  0  0
  6 11  1  6  0  0  0
  6  4  1  0  0  0  0
  7  8  1  6  0  0  0
  7  9  1  0  0  0  0
  7  3  1  0  0  0  0
  7 10  1  0  0  0  0
  9  3  1  0  0  0  0
 12 13  1  6  0  0  0
 12 17  1  0  0  0  0
 15 11  1  1  0  0  0
 15 14  1  0  0  0  0
 16 12  1  0  0  0  0
 16 15  1  0  0  0  0
 17 14  1  0  0  0  0
 19 18  1  1  0  0  0
 19  1  1  0  0  0  0
 20 19  1  0  0  0  0
 21 26  1  0  0  0  0
 21 20  1  0  0  0  0
 22 24  1  0  0  0  0
 22 23  1  0  0  0  0
 23 28  1  6  0  0  0
 23 26  1  0  0  0  0
 24 21  2  0  0  0  0
 25 22  2  0  0  0  0
 28 30  1  0  0  0  0
 29 28  2  0  0  0  0
 30 27  1  0  0  0  0
 31 30  1  0  0  0  0
 32 34  2  0  0  0  0
 34 31  1  0  0  0  0
 34 33  1  0  0  0  0
 35 36  1  0  0  0  0
 36 37  1  0  0  0  0
 39 37  1  0  0  0  0
 39 38  2  0  0  0  0
 40 38  1  0  0  0  0
 41 40  1  0  0  0  0
 42 41  1  0  0  0  0
 43 44  1  0  0  0  0
 43 42  1  0  0  0  0
M  END
>  <MODEL>
7

>  <REMARK>
 VINA RESULT:      -5.9      2.188      2.761
  Name = 
  17 active torsions:
  status: ('A' for Active; 'I' for Inactive)
    1  A    between atoms: C_1  and  C_29
    2  A    between atoms: C_1  and  O_31
    3  A    between atoms: C_2  and  C_24
    4  A    between atoms: C_4  and  C_5
    5  A    between atoms: C_4  and  O_31
    6  A    between atoms: C_4  and  C_35
    7  A    between atoms: C_6  and  C_26
    8  A    between atoms: N_8  and  C_18
    9  A    between atoms: N_8  and  C_22
   10  A    between atoms: C_12  and  N_37
   11  A    between atoms: C_12  and  C_38
   12  A    between atoms: C_16  and  C_17
   13  A    between atoms: C_19  and  C_29
   14  A    between atoms: C_24  and  C_43
   15  A    between atoms: C_26  and  C_35
   16  A    between atoms: C_27  and  S_44
   17  A    between atoms: C_43  and  S_44
                            x       y       z     vdW  Elec       q    Type
                         _______ _______ _______ _____ _____    ______ ____

>  <TORSDO>
F 17

$$$$
=
 OpenBabel11042412213D

 44 47  0  0  1  0  0  0  0  0999 V2000
  188.3630  176.7470  137.6250 C   0  0  1  0  0  3  0  0  0  0  0  0
  187.9650  177.7170  141.7030 C   0  0  0  0  0  3  0  0  0  0  0  0
  189.6740  176.7570  138.4130 C   0  0  2  0  0  3  0  0  0  0  0  0
  190.4470  177.5340  142.1150 C   0  0  2  0  0  3  0  0  0  0  0  0
  191.6820  176.9900  143.2750 Cl  0  0  0  0  0  0  0  0  0  0  0  0
  189.0390  177.3700  142.7080 C   0  0  1  0  0  3  0  0  0  0  0  0
  189.4800  177.1250  139.8420 C   0  0  2  0  0  0  0  0  0  0  0  0
  188.1500  177.5710  140.3860 C   0  0  0  0  0  3  0  0  0  0  0  0
  189.9530  178.0530  138.9010 O   0  0  0  0  0  0  0  0  0  0  0  0
  190.5760  176.7240  140.8270 C   0  0  0  0  0  2  0  0  0  0  0  0
  188.8970  178.2060  143.8980 N   0  0  0  0  0  2  0  0  0  0  0  0
  187.8910  178.0000  147.4220 C   0  0  1  0  0  3  0  0  0  0  0  0
  187.9510  177.3590  148.7990 C   0  0  0  0  0  1  0  0  0  0  0  0
  186.9570  177.8220  145.3100 C   0  0  0  0  0  2  0  0  0  0  0  0
  188.3640  177.3730  144.9700 C   0  0  2  0  0  3  0  0  0  0  0  0
  189.3750  177.5580  146.4710 S   0  0  0  0  0  0  0  0  0  0  0  0
  186.7120  177.5290  146.7110 N   0  0  0  0  0  2  0  0  0  0  0  0
  189.2120  178.3060  135.9960 O   0  0  0  0  0  1  0  0  0  0  0  0
  188.1660  178.0700  136.8930 C   0  0  1  0  0  3  0  0  0  0  0  0
  186.8380  178.0810  136.1570 C   0  0  0  0  0  2  0  0  0  0  0  0
  185.7360  177.7050  137.0940 C   0  0  0  0  0  0  0  0  0  0  0  0
  184.1920  176.5580  138.0830 C   0  0  0  0  0  0  0  0  0  0  0  0
  184.3230  177.7780  138.9330 C   0  0  1  0  0  3  0  0  0  0  0  0
  185.0970  176.5840  136.9880 N   0  0  0  0  0  0  0  0  0  0  0  0
  183.4130  175.5930  138.3140 O   0  0  0  0  0  0  0  0  0  0  0  0
  185.3650  178.5110  138.2190 N   0  0  0  0  0  2  0  0  0  0  0  0
  183.1930  178.6840  141.3960 O   0  0  0  0  0  1  0  0  0  0  0  0
  183.0630  178.5970  138.9860 C   0  0  0  0  0  0  0  0  0  0  0  0
  182.5400  179.0380  137.9200 O   0  0  0  0  0  0  0  0  0  0  0  0
  182.4990  178.9410  140.2590 N   0  0  0  0  0  0  0  0  0  0  0  0
  181.2260  179.6440  140.3520 C   0  0  0  0  0  2  0  0  0  0  0  0
  180.4940  180.1170  142.5700 O   0  0  0  0  0  1  0  0  0  0  0  0
  179.8890  178.0610  141.7490 O   0  0  0  0  0  0  0  0  0  0  0  0
  180.5290  179.2880  141.6210 C   0  0  0  0  0  0  0  0  0  0  0  0
  188.3680  175.6800  136.7190 O   0  0  0  0  0  0  0  0  0  0  0  0
  189.4100  174.8470  137.1390 C   0  0  0  0  0  2  0  0  0  0  0  0
  190.2530  174.4290  135.9490 C   0  0  0  0  0  2  0  0  0  0  0  0
  192.2920  174.5450  137.3010 C   0  0  0  0  0  3  0  0  0  0  0  0
  191.6730  174.8320  136.1560 C   0  0  0  0  0  3  0  0  0  0  0  0
  193.7260  174.9140  137.5170 C   0  0  0  0  0  2  0  0  0  0  0  0
  194.6240  174.0530  136.6460 C   0  0  0  0  0  2  0  0  0  0  0  0
  196.3180  174.0590  137.2940 S   0  0  0  0  0  0  0  0  0  0  0  0
  195.7720  174.1040  139.0280 C   0  0  0  0  0  2  0  0  0  0  0  0
  196.7730  174.8770  139.8660 C   0  0  0  0  0  1  0  0  0  0  0  0
  1 35  1  6  0  0  0
  2  6  1  0  0  0  0
  3  1  1  6  0  0  0
  3  9  1  0  0  0  0
  3  7  1  0  0  0  0
  4  6  1  0  0  0  0
  4  5  1  1  0  0  0
  6 11  1  1  0  0  0
  7  8  1  1  0  0  0
  7 10  1  0  0  0  0
  8  2  2  0  0  0  0
  9  7  1  0  0  0  0
 10  4  1  0  0  0  0
 12 13  1  1  0  0  0
 14 17  1  0  0  0  0
 15 11  1  6  0  0  0
 15 14  1  0  0  0  0
 15 16  1  0  0  0  0
 16 12  1  0  0  0  0
 17 12  1  0  0  0  0
 19 18  1  6  0  0  0
 19  1  1  0  0  0  0
 20 19  1  0  0  0  0
 20 21  1  0  0  0  0
 21 26  1  0  0  0  0
 22 25  2  0  0  0  0
 22 23  1  0  0  0  0
 23 28  1  6  0  0  0
 24 21  2  0  0  0  0
 24 22  1  0  0  0  0
 26 23  1  0  0  0  0
 28 30  1  0  0  0  0
 29 28  2  0  0  0  0
 30 31  1  0  0  0  0
 30 27  1  0  0  0  0
 31 34  1  0  0  0  0
 34 33  2  0  0  0  0
 34 32  1  0  0  0  0
 35 36  1  0  0  0  0
 37 39  1  0  0  0  0
 37 36  1  0  0  0  0
 38 40  1  0  0  0  0
 39 38  2  0  0  0  0
 41 42  1  0  0  0  0
 41 40  1  0  0  0  0
 42 43  1  0  0  0  0
 43 44  1  0  0  0  0
M  END
>  <MODEL>
8

>  <REMARK>
 VINA RESULT:      -5.9      4.103      9.612
  Name = 
  17 active torsions:
  status: ('A' for Active; 'I' for Inactive)
    1  A    between atoms: C_1  and  C_29
    2  A    between atoms: C_1  and  O_31
    3  A    between atoms: C_2  and  C_24
    4  A    between atoms: C_4  and  C_5
    5  A    between atoms: C_4  and  O_31
    6  A    between atoms: C_4  and  C_35
    7  A    between atoms: C_6  and  C_26
    8  A    between atoms: N_8  and  C_18
    9  A    between atoms: N_8  and  C_22
   10  A    between atoms: C_12  and  N_37
   11  A    between atoms: C_12  and  C_38
   12  A    between atoms: C_16  and  C_17
   13  A    between atoms: C_19  and  C_29
   14  A    between atoms: C_24  and  C_43
   15  A    between atoms: C_26  and  C_35
   16  A    between atoms: C_27  and  S_44
   17  A    between atoms: C_43  and  S_44
                            x       y       z     vdW  Elec       q    Type
                         _______ _______ _______ _____ _____    ______ ____

>  <TORSDO>
F 17

$$$$
=
 OpenBabel11042412213D

 44 47  0  0  1  0  0  0  0  0999 V2000
  185.9290  178.7810  145.0070 C   0  0  1  0  0  3  0  0  0  0  0  0
  187.4150  179.3670  141.1120 C   0  0  0  0  0  3  0  0  0  0  0  0
  186.8400  177.6640  144.4940 C   0  0  2  0  0  3  0  0  0  0  0  0
  188.6670  177.1780  141.1270 C   0  0  2  0  0  3  0  0  0  0  0  0
  190.1730  176.3710  140.6280 Cl  0  0  0  0  0  0  0  0  0  0  0  0
  188.6290  178.6220  140.6070 C   0  0  1  0  0  3  0  0  0  0  0  0
  187.3200  177.9110  143.1070 C   0  0  2  0  0  0  0  0  0  0  0  0
  186.8320  179.0680  142.2780 C   0  0  0  0  0  3  0  0  0  0  0  0
  186.2630  177.0260  143.3730 O   0  0  0  0  0  0  0  0  0  0  0  0
  188.5700  177.1620  142.6520 C   0  0  0  0  0  2  0  0  0  0  0  0
  188.6450  178.6290  139.1460 N   0  0  0  0  0  2  0  0  0  0  0  0
  186.4560  177.3760  136.4790 C   0  0  1  0  0  3  0  0  0  0  0  0
  185.1310  176.8220  135.9800 C   0  0  0  0  0  1  0  0  0  0  0  0
  188.4410  176.8190  137.5360 C   0  0  0  0  0  2  0  0  0  0  0  0
  187.7750  177.5540  138.6830 C   0  0  2  0  0  3  0  0  0  0  0  0
  186.2090  178.2370  138.0600 S   0  0  0  0  0  0  0  0  0  0  0  0
  187.4020  176.2860  136.6730 N   0  0  0  0  0  2  0  0  0  0  0  0
  183.8130  178.1720  145.9860 O   0  0  0  0  0  1  0  0  0  0  0  0
  184.4640  178.4290  144.7760 C   0  0  1  0  0  3  0  0  0  0  0  0
  183.7560  179.5480  144.0330 C   0  0  0  0  0  2  0  0  0  0  0  0
  183.0680  178.9990  142.8250 C   0  0  0  0  0  0  0  0  0  0  0  0
  182.7270  177.9680  140.9540 C   0  0  0  0  0  0  0  0  0  0  0  0
  181.3520  178.3160  141.4210 C   0  0  1  0  0  3  0  0  0  0  0  0
  183.7170  178.4090  141.8730 N   0  0  0  0  0  0  0  0  0  0  0  0
  182.9960  177.3260  139.9030 O   0  0  0  0  0  0  0  0  0  0  0  0
  181.6430  179.0090  142.6730 N   0  0  0  0  0  2  0  0  0  0  0  0
  179.7700  177.3440  139.2490 O   0  0  0  0  0  1  0  0  0  0  0  0
  180.6260  179.2370  140.4800 C   0  0  0  0  0  0  0  0  0  0  0  0
  180.5760  180.4810  140.7120 O   0  0  0  0  0  0  0  0  0  0  0  0
  179.9250  178.6870  139.3560 N   0  0  0  0  0  0  0  0  0  0  0  0
  179.2970  179.5520  138.3650 C   0  0  0  0  0  2  0  0  0  0  0  0
  180.6550  181.2320  137.3590 O   0  0  0  0  0  1  0  0  0  0  0  0
  180.8880  179.1230  136.4860 O   0  0  0  0  0  0  0  0  0  0  0  0
  180.3060  180.0210  137.3730 C   0  0  0  0  0  0  0  0  0  0  0  0
  186.1740  178.9960  146.3690 O   0  0  0  0  0  0  0  0  0  0  0  0
  187.1780  178.0850  146.7100 C   0  0  0  0  0  2  0  0  0  0  0  0
  187.6180  178.3090  148.1440 C   0  0  0  0  0  2  0  0  0  0  0  0
  189.6310  177.0740  147.4950 C   0  0  0  0  0  3  0  0  0  0  0  0
  189.0620  177.9690  148.3010 C   0  0  0  0  0  3  0  0  0  0  0  0
  191.0850  176.7410  147.6160 C   0  0  0  0  0  2  0  0  0  0  0  0
  191.6780  176.4790  146.2430 C   0  0  0  0  0  2  0  0  0  0  0  0
  191.2980  177.8540  145.1240 S   0  0  0  0  0  0  0  0  0  0  0  0
  191.6770  176.8880  143.6310 C   0  0  0  0  0  2  0  0  0  0  0  0
  191.6670  175.4060  143.9560 C   0  0  0  0  0  1  0  0  0  0  0  0
  1 35  1  1  0  0  0
  2  8  2  0  0  0  0
  3  1  1  6  0  0  0
  4  5  1  1  0  0  0
  4 10  1  0  0  0  0
  6 11  1  6  0  0  0
  6  2  1  0  0  0  0
  6  4  1  0  0  0  0
  7  8  1  6  0  0  0
  7  9  1  0  0  0  0
  7  3  1  0  0  0  0
  9  3  1  0  0  0  0
 10  7  1  0  0  0  0
 12 13  1  1  0  0  0
 12 17  1  0  0  0  0
 12 16  1  0  0  0  0
 14 15  1  0  0  0  0
 15 11  1  6  0  0  0
 16 15  1  0  0  0  0
 17 14  1  0  0  0  0
 19  1  1  0  0  0  0
 19 18  1  1  0  0  0
 20 19  1  0  0  0  0
 21 20  1  0  0  0  0
 22 23  1  0  0  0  0
 22 24  1  0  0  0  0
 23 28  1  6  0  0  0
 23 26  1  0  0  0  0
 24 21  2  0  0  0  0
 25 22  2  0  0  0  0
 26 21  1  0  0  0  0
 27 30  1  0  0  0  0
 28 29  2  0  0  0  0
 30 28  1  0  0  0  0
 31 30  1  0  0  0  0
 32 34  1  0  0  0  0
 33 34  2  0  0  0  0
 34 31  1  0  0  0  0
 35 36  1  0  0  0  0
 36 37  1  0  0  0  0
 37 39  1  0  0  0  0
 38 40  1  0  0  0  0
 38 39  2  0  0  0  0
 41 40  1  0  0  0  0
 42 41  1  0  0  0  0
 43 44  1  0  0  0  0
 43 42  1  0  0  0  0
M  END
>  <MODEL>
9

>  <REMARK>
 VINA RESULT:      -5.8      4.726      8.288
  Name = 
  17 active torsions:
  status: ('A' for Active; 'I' for Inactive)
    1  A    between atoms: C_1  and  C_29
    2  A    between atoms: C_1  and  O_31
    3  A    between atoms: C_2  and  C_24
    4  A    between atoms: C_4  and  C_5
    5  A    between atoms: C_4  and  O_31
    6  A    between atoms: C_4  and  C_35
    7  A    between atoms: C_6  and  C_26
    8  A    between atoms: N_8  and  C_18
    9  A    between atoms: N_8  and  C_22
   10  A    between atoms: C_12  and  N_37
   11  A    between atoms: C_12  and  C_38
   12  A    between atoms: C_16  and  C_17
   13  A    between atoms: C_19  and  C_29
   14  A    between atoms: C_24  and  C_43
   15  A    between atoms: C_26  and  C_35
   16  A    between atoms: C_27  and  S_44
   17  A    between atoms: C_43  and  S_44
                            x       y       z     vdW  Elec       q    Type
                         _______ _______ _______ _____ _____    ______ ____

>  <TORSDO>
F 17

$$$$
