=
 OpenBabel11042410493D

 31 35  0  0  1  0  0  0  0  0999 V2000
  189.0350  177.7110  142.5490 C   0  0  1  0  0  3  0  0  0  0  0  0
  183.3680  178.7990  143.4170 C   0  0  0  0  0  0  0  0  0  0  0  0
  184.7210  178.8990  145.1190 C   0  0  0  0  0  0  0  0  0  0  0  0
  184.7020  178.9090  143.7360 C   0  0  0  0  0  0  0  0  0  0  0  0
  182.6340  178.7520  144.5460 N   0  0  0  0  0  2  0  0  0  0  0  0
  182.7870  178.7390  142.0470 C   0  0  0  0  0  1  0  0  0  0  0  0
  187.8500  177.4490  143.4910 C   0  0  1  0  0  3  0  0  0  0  0  0
  185.8600  178.8940  142.7910 C   0  0  0  0  0  2  0  0  0  0  0  0
  187.9380  178.2470  144.7950 C   0  0  0  0  0  2  0  0  0  0  0  0
  183.4600  178.8120  145.5820 N   0  0  0  0  0  0  0  0  0  0  0  0
  185.9180  178.9980  146.0140 C   0  0  0  0  0  2  0  0  0  0  0  0
  186.8700  177.8330  145.7920 C   0  0  0  0  0  2  0  0  0  0  0  0
  186.4920  177.5070  142.7780 C   0  0  0  0  0  2  0  0  0  0  0  0
  192.2680  177.2460  141.1960 O   0  0  0  0  0  0  0  0  0  0  0  0
  190.4290  177.4130  143.1240 C   0  0  2  0  0  0  0  0  0  0  0  0
  191.4840  177.0010  142.0960 C   0  0  0  0  0  0  0  0  0  0  0  0
  190.7950  176.0300  143.0580 C   0  0  0  0  0  2  0  0  0  0  0  0
  191.2150  177.3620  145.6120 C   0  0  0  0  0  1  0  0  0  0  0  0
  190.9390  178.1220  144.3560 C   0  0  0  0  0  0  0  0  0  0  0  0
  191.2680  179.4130  144.3060 C   0  0  0  0  0  2  0  0  0  0  0  0
  188.8360  177.0300  141.3130 O   0  0  0  0  0  0  0  0  0  0  0  0
  188.7960  177.6970  140.0840 C   0  0  0  0  0  0  0  0  0  0  0  0
  188.3690  178.8830  140.0490 O   0  0  0  0  0  0  0  0  0  0  0  0
  190.8510  175.9000  137.8210 C   0  0  2  0  0  3  0  0  0  0  0  0
  190.2020  176.9870  136.9860 C   0  0  1  0  0  3  0  0  0  0  0  0
  190.1560  175.9740  139.0460 O   0  0  0  0  0  0  0  0  0  0  0  0
  188.1050  176.5230  137.9550 C   0  0  0  0  0  2  0  0  0  0  0  0
  188.8190  176.4560  136.6100 C   0  0  0  0  0  2  0  0  0  0  0  0
  192.2000  176.1950  138.0250 O   0  0  0  0  0  1  0  0  0  0  0  0
  189.9230  177.9280  137.9640 O   0  0  0  0  0  0  0  0  0  0  0  0
  189.2560  177.0390  138.8070 C   0  0  1  0  0  0  0  0  0  0  0  0
  1 21  1  6  0  0  0
  1 15  1  0  0  0  0
  2  4  2  0  0  0  0
  2  5  1  0  0  0  0
  3 10  2  0  0  0  0
  3 11  1  0  0  0  0
  4  3  1  0  0  0  0
  5 10  1  0  0  0  0
  6  2  1  0  0  0  0
  7  1  1  6  0  0  0
  7  9  1  0  0  0  0
  8  4  1  0  0  0  0
  9 12  1  0  0  0  0
 12 11  1  0  0  0  0
 13  8  1  0  0  0  0
 13  7  1  0  0  0  0
 14 16  2  0  0  0  0
 15 19  1  1  0  0  0
 16 17  1  0  0  0  0
 16 15  1  0  0  0  0
 17 15  1  0  0  0  0
 19 18  1  0  0  0  0
 20 19  2  0  0  0  0
 22 21  1  0  0  0  0
 23 22  2  0  0  0  0
 24 29  1  1  0  0  0
 24 26  1  0  0  0  0
 25 28  1  1  0  0  0
 25 24  1  0  0  0  0
 25 30  1  0  0  0  0
 27 31  1  0  0  0  0
 28 27  1  0  0  0  0
 30 31  1  0  0  0  0
 31 26  1  0  0  0  0
 31 22  1  1  0  0  0
M  END
>  <MODEL>
1

>  <REMARK>
 VINA RESULT:      -9.0      0.000      0.000
  Name = 
  6 active torsions:
  status: ('A' for Active; 'I' for Inactive)
    1  A    between atoms: O_2  and  C_11
    2  A    between atoms: O_2  and  C_27
    3  A    between atoms: C_11  and  C_28
    4  A    between atoms: C_14  and  C_20
    5  A    between atoms: C_14  and  C_27
    6  A    between atoms: C_17  and  C_27
                            x       y       z     vdW  Elec       q    Type
                         _______ _______ _______ _____ _____    ______ ____

>  <TORSDO>
F 6

$$$$
=
 OpenBabel11042410493D

 31 35  0  0  1  0  0  0  0  0999 V2000
  189.3060  177.6750  142.7640 C   0  0  1  0  0  3  0  0  0  0  0  0
  183.7860  178.8470  144.2530 C   0  0  0  0  0  0  0  0  0  0  0  0
  185.2940  178.7660  145.8200 C   0  0  0  0  0  0  0  0  0  0  0  0
  185.1470  178.8910  144.4510 C   0  0  0  0  0  0  0  0  0  0  0  0
  183.1590  178.7270  145.4390 N   0  0  0  0  0  2  0  0  0  0  0  0
  183.0790  178.9180  142.9440 C   0  0  0  0  0  1  0  0  0  0  0  0
  188.2040  177.3690  143.7900 C   0  0  1  0  0  3  0  0  0  0  0  0
  186.2120  178.9240  143.4020 C   0  0  0  0  0  2  0  0  0  0  0  0
  188.4420  178.0520  145.1400 C   0  0  0  0  0  2  0  0  0  0  0  0
  184.0790  178.6750  146.3930 N   0  0  0  0  0  0  0  0  0  0  0  0
  186.5710  178.7550  146.6020 C   0  0  0  0  0  2  0  0  0  0  0  0
  187.4560  177.5860  146.1970 C   0  0  0  0  0  2  0  0  0  0  0  0
  186.7890  177.5250  143.2170 C   0  0  0  0  0  2  0  0  0  0  0  0
  191.8790  179.6160  144.2150 O   0  0  0  0  0  0  0  0  0  0  0  0
  190.7480  177.4100  143.2260 C   0  0  2  0  0  0  0  0  0  0  0  0
  191.5770  178.6600  143.5220 C   0  0  0  0  0  0  0  0  0  0  0  0
  191.7380  177.7990  142.2670 C   0  0  0  0  0  2  0  0  0  0  0  0
  191.5970  176.2720  145.4140 C   0  0  0  0  0  1  0  0  0  0  0  0
  191.1070  176.1690  144.0070 C   0  0  0  0  0  0  0  0  0  0  0  0
  190.8780  174.9580  143.4980 C   0  0  0  0  0  2  0  0  0  0  0  0
  189.0300  177.0030  141.5370 O   0  0  0  0  0  0  0  0  0  0  0  0
  188.7890  177.6890  140.3410 C   0  0  0  0  0  0  0  0  0  0  0  0
  188.1000  178.7450  140.3740 O   0  0  0  0  0  0  0  0  0  0  0  0
  189.5860  177.6380  136.8870 C   0  0  2  0  0  3  0  0  0  0  0  0
  189.2380  176.2030  137.2320 C   0  0  1  0  0  3  0  0  0  0  0  0
  189.6510  178.2680  138.1470 O   0  0  0  0  0  0  0  0  0  0  0  0
  190.5630  176.3170  139.1760 C   0  0  0  0  0  2  0  0  0  0  0  0
  190.5060  175.5980  137.8340 C   0  0  0  0  0  2  0  0  0  0  0  0
  188.5630  178.2080  136.1270 O   0  0  0  0  0  1  0  0  0  0  0  0
  188.4250  176.3960  138.3380 O   0  0  0  0  0  0  0  0  0  0  0  0
  189.3350  177.2030  139.0230 C   0  0  1  0  0  0  0  0  0  0  0  0
  1 21  1  6  0  0  0
  1 15  1  0  0  0  0
  2  4  2  0  0  0  0
  2  5  1  0  0  0  0
  3 10  2  0  0  0  0
  3 11  1  0  0  0  0
  4  3  1  0  0  0  0
  5 10  1  0  0  0  0
  6  2  1  0  0  0  0
  7  1  1  6  0  0  0
  7  9  1  0  0  0  0
  8  4  1  0  0  0  0
  9 12  1  0  0  0  0
 12 11  1  0  0  0  0
 13  8  1  0  0  0  0
 13  7  1  0  0  0  0
 15 16  1  0  0  0  0
 15 19  1  1  0  0  0
 16 14  2  0  0  0  0
 17 15  1  0  0  0  0
 17 16  1  0  0  0  0
 19 18  1  0  0  0  0
 20 19  2  0  0  0  0
 22 23  2  0  0  0  0
 22 21  1  0  0  0  0
 24 29  1  6  0  0  0
 24 25  1  0  0  0  0
 24 26  1  0  0  0  0
 25 28  1  1  0  0  0
 25 30  1  0  0  0  0
 26 31  1  0  0  0  0
 28 27  1  0  0  0  0
 30 31  1  0  0  0  0
 31 27  1  0  0  0  0
 31 22  1  1  0  0  0
M  END
>  <MODEL>
2

>  <REMARK>
 VINA RESULT:      -8.9      1.159      1.892
  Name = 
  6 active torsions:
  status: ('A' for Active; 'I' for Inactive)
    1  A    between atoms: O_2  and  C_11
    2  A    between atoms: O_2  and  C_27
    3  A    between atoms: C_11  and  C_28
    4  A    between atoms: C_14  and  C_20
    5  A    between atoms: C_14  and  C_27
    6  A    between atoms: C_17  and  C_27
                            x       y       z     vdW  Elec       q    Type
                         _______ _______ _______ _____ _____    ______ ____

>  <TORSDO>
F 6

$$$$
=
 OpenBabel11042410493D

 31 35  0  0  1  0  0  0  0  0999 V2000
  189.3300  177.5850  142.7750 C   0  0  1  0  0  3  0  0  0  0  0  0
  183.8260  178.8350  144.2580 C   0  0  0  0  0  0  0  0  0  0  0  0
  185.3370  178.7650  145.8230 C   0  0  0  0  0  0  0  0  0  0  0  0
  185.1880  178.8700  144.4530 C   0  0  0  0  0  0  0  0  0  0  0  0
  183.2010  178.7410  145.4470 N   0  0  0  0  0  2  0  0  0  0  0  0
  183.1170  178.8930  142.9500 C   0  0  0  0  0  1  0  0  0  0  0  0
  188.2280  177.3070  143.8090 C   0  0  1  0  0  3  0  0  0  0  0  0
  186.2500  178.8750  143.4000 C   0  0  0  0  0  2  0  0  0  0  0  0
  188.4760  178.0090  145.1470 C   0  0  0  0  0  2  0  0  0  0  0  0
  184.1230  178.6960  146.4000 N   0  0  0  0  0  0  0  0  0  0  0  0
  186.6160  178.7540  146.6020 C   0  0  0  0  0  2  0  0  0  0  0  0
  187.4880  177.5700  146.2140 C   0  0  0  0  0  2  0  0  0  0  0  0
  186.8130  177.4670  143.2370 C   0  0  0  0  0  2  0  0  0  0  0  0
  191.8310  179.6370  144.2000 O   0  0  0  0  0  0  0  0  0  0  0  0
  190.7740  177.3740  143.2580 C   0  0  2  0  0  0  0  0  0  0  0  0
  191.5640  178.6550  143.5290 C   0  0  0  0  0  0  0  0  0  0  0  0
  191.7630  177.7660  142.2990 C   0  0  0  0  0  2  0  0  0  0  0  0
  191.6150  176.3160  145.4900 C   0  0  0  0  0  1  0  0  0  0  0  0
  191.1610  176.1650  144.0750 C   0  0  0  0  0  0  0  0  0  0  0  0
  190.9870  174.9350  143.5890 C   0  0  0  0  0  2  0  0  0  0  0  0
  189.0770  176.8480  141.5820 O   0  0  0  0  0  0  0  0  0  0  0  0
  188.9050  177.4650  140.3370 C   0  0  0  0  0  0  0  0  0  0  0  0
  188.2130  178.5170  140.2710 O   0  0  0  0  0  0  0  0  0  0  0  0
  191.3170  176.0030  138.1880 C   0  0  2  0  0  3  0  0  0  0  0  0
  190.6020  177.0340  137.3350 C   0  0  1  0  0  3  0  0  0  0  0  0
  190.5330  175.9530  139.3600 O   0  0  0  0  0  0  0  0  0  0  0  0
  188.5130  176.2910  138.1340 C   0  0  0  0  0  2  0  0  0  0  0  0
  189.3230  176.3560  136.8450 C   0  0  0  0  0  2  0  0  0  0  0  0
  192.6030  176.4490  138.4990 O   0  0  0  0  0  1  0  0  0  0  0  0
  190.1420  177.9010  138.3140 O   0  0  0  0  0  0  0  0  0  0  0  0
  189.5300  176.9110  139.0820 C   0  0  1  0  0  0  0  0  0  0  0  0
  1 21  1  6  0  0  0
  1 15  1  0  0  0  0
  2  4  2  0  0  0  0
  2  5  1  0  0  0  0
  3 10  2  0  0  0  0
  3 11  1  0  0  0  0
  4  3  1  0  0  0  0
  5 10  1  0  0  0  0
  6  2  1  0  0  0  0
  7  1  1  6  0  0  0
  7  9  1  0  0  0  0
  8  4  1  0  0  0  0
  9 12  1  0  0  0  0
 12 11  1  0  0  0  0
 13  8  1  0  0  0  0
 13  7  1  0  0  0  0
 15 16  1  0  0  0  0
 15 19  1  1  0  0  0
 16 14  2  0  0  0  0
 17 15  1  0  0  0  0
 17 16  1  0  0  0  0
 19 18  1  0  0  0  0
 20 19  2  0  0  0  0
 22 21  1  0  0  0  0
 23 22  2  0  0  0  0
 24 29  1  1  0  0  0
 24 26  1  0  0  0  0
 25 28  1  1  0  0  0
 25 24  1  0  0  0  0
 25 30  1  0  0  0  0
 27 31  1  0  0  0  0
 28 27  1  0  0  0  0
 30 31  1  0  0  0  0
 31 26  1  0  0  0  0
 31 22  1  1  0  0  0
M  END
>  <MODEL>
3

>  <REMARK>
 VINA RESULT:      -8.9      0.992      1.415
  Name = 
  6 active torsions:
  status: ('A' for Active; 'I' for Inactive)
    1  A    between atoms: O_2  and  C_11
    2  A    between atoms: O_2  and  C_27
    3  A    between atoms: C_11  and  C_28
    4  A    between atoms: C_14  and  C_20
    5  A    between atoms: C_14  and  C_27
    6  A    between atoms: C_17  and  C_27
                            x       y       z     vdW  Elec       q    Type
                         _______ _______ _______ _____ _____    ______ ____

>  <TORSDO>
F 6

$$$$
=
 OpenBabel11042410493D

 31 35  0  0  1  0  0  0  0  0999 V2000
  189.0790  177.7810  142.8310 C   0  0  1  0  0  3  0  0  0  0  0  0
  183.3940  178.7960  143.6730 C   0  0  0  0  0  0  0  0  0  0  0  0
  184.7210  178.8080  145.3980 C   0  0  0  0  0  0  0  0  0  0  0  0
  184.7220  178.8940  144.0180 C   0  0  0  0  0  0  0  0  0  0  0  0
  182.6440  178.6840  144.7870 N   0  0  0  0  0  2  0  0  0  0  0  0
  182.8330  178.8090  142.2930 C   0  0  0  0  0  1  0  0  0  0  0  0
  187.8810  177.4630  143.7390 C   0  0  1  0  0  3  0  0  0  0  0  0
  185.8940  178.9360  143.0900 C   0  0  0  0  0  2  0  0  0  0  0  0
  187.9470  178.1880  145.0860 C   0  0  0  0  0  2  0  0  0  0  0  0
  183.4540  178.6900  145.8370 N   0  0  0  0  0  0  0  0  0  0  0  0
  185.9040  178.8620  146.3140 C   0  0  0  0  0  2  0  0  0  0  0  0
  186.8660  177.7150  146.0430 C   0  0  0  0  0  2  0  0  0  0  0  0
  186.5330  177.5540  143.0110 C   0  0  0  0  0  2  0  0  0  0  0  0
  192.1660  177.0710  141.2630 O   0  0  0  0  0  0  0  0  0  0  0  0
  190.4370  177.2280  143.2910 C   0  0  2  0  0  0  0  0  0  0  0  0
  191.3880  176.8160  142.1650 C   0  0  0  0  0  0  0  0  0  0  0  0
  190.6040  175.8280  143.0330 C   0  0  0  0  0  2  0  0  0  0  0  0
  191.2290  176.7650  145.7330 C   0  0  0  0  0  1  0  0  0  0  0  0
  191.0830  177.6940  144.5730 C   0  0  0  0  0  0  0  0  0  0  0  0
  191.6420  178.9030  144.6490 C   0  0  0  0  0  2  0  0  0  0  0  0
  188.7930  177.3880  141.4910 O   0  0  0  0  0  0  0  0  0  0  0  0
  188.5580  178.3140  140.4680 C   0  0  0  0  0  0  0  0  0  0  0  0
  188.2100  179.4850  140.7770 O   0  0  0  0  0  0  0  0  0  0  0  0
  188.5430  178.6350  136.9370 C   0  0  2  0  0  3  0  0  0  0  0  0
  188.0750  177.2180  137.2060 C   0  0  1  0  0  3  0  0  0  0  0  0
  188.9810  179.0770  138.2030 O   0  0  0  0  0  0  0  0  0  0  0  0
  189.8060  176.9110  138.7750 C   0  0  0  0  0  2  0  0  0  0  0  0
  189.3440  176.3920  137.4190 C   0  0  0  0  0  2  0  0  0  0  0  0
  187.4700  179.4190  136.5090 O   0  0  0  0  0  1  0  0  0  0  0  0
  187.5690  177.3540  138.4890 O   0  0  0  0  0  0  0  0  0  0  0  0
  188.7170  177.9490  139.0140 C   0  0  1  0  0  0  0  0  0  0  0  0
  1 21  1  6  0  0  0
  1 15  1  0  0  0  0
  2  4  2  0  0  0  0
  2  5  1  0  0  0  0
  3 10  2  0  0  0  0
  3 11  1  0  0  0  0
  4  3  1  0  0  0  0
  5 10  1  0  0  0  0
  6  2  1  0  0  0  0
  7  1  1  6  0  0  0
  7  9  1  0  0  0  0
  8  4  1  0  0  0  0
  9 12  1  0  0  0  0
 12 11  1  0  0  0  0
 13  8  1  0  0  0  0
 13  7  1  0  0  0  0
 14 16  2  0  0  0  0
 15 19  1  1  0  0  0
 16 17  1  0  0  0  0
 16 15  1  0  0  0  0
 17 15  1  0  0  0  0
 19 20  2  0  0  0  0
 19 18  1  0  0  0  0
 22 23  2  0  0  0  0
 22 21  1  0  0  0  0
 24 29  1  1  0  0  0
 24 25  1  0  0  0  0
 24 26  1  0  0  0  0
 25 28  1  1  0  0  0
 25 30  1  0  0  0  0
 26 31  1  0  0  0  0
 27 31  1  0  0  0  0
 28 27  1  0  0  0  0
 30 31  1  0  0  0  0
 31 22  1  1  0  0  0
M  END
>  <MODEL>
4

>  <REMARK>
 VINA RESULT:      -8.9      1.028      1.617
  Name = 
  6 active torsions:
  status: ('A' for Active; 'I' for Inactive)
    1  A    between atoms: O_2  and  C_11
    2  A    between atoms: O_2  and  C_27
    3  A    between atoms: C_11  and  C_28
    4  A    between atoms: C_14  and  C_20
    5  A    between atoms: C_14  and  C_27
    6  A    between atoms: C_17  and  C_27
                            x       y       z     vdW  Elec       q    Type
                         _______ _______ _______ _____ _____    ______ ____

>  <TORSDO>
F 6

$$$$
=
 OpenBabel11042410493D

 31 35  0  0  1  0  0  0  0  0999 V2000
  188.1800  177.7290  139.9700 C   0  0  1  0  0  3  0  0  0  0  0  0
  185.0500  178.7530  144.7880 C   0  0  0  0  0  0  0  0  0  0  0  0
  184.0160  178.6520  142.8750 C   0  0  0  0  0  0  0  0  0  0  0  0
  185.2030  178.3070  143.4950 C   0  0  0  0  0  0  0  0  0  0  0  0
  183.8320  179.3090  144.9340 N   0  0  0  0  0  2  0  0  0  0  0  0
  186.0530  178.6520  145.8830 C   0  0  0  0  0  1  0  0  0  0  0  0
  187.0420  178.5790  140.5550 C   0  0  1  0  0  3  0  0  0  0  0  0
  186.4330  177.7170  142.8830 C   0  0  0  0  0  2  0  0  0  0  0  0
  185.6590  178.1450  140.0590 C   0  0  0  0  0  2  0  0  0  0  0  0
  183.2030  179.2490  143.7670 N   0  0  0  0  0  0  0  0  0  0  0  0
  183.6270  178.4040  141.4500 C   0  0  0  0  0  2  0  0  0  0  0  0
  184.5690  179.1110  140.4890 C   0  0  0  0  0  2  0  0  0  0  0  0
  187.1610  178.7820  142.0710 C   0  0  0  0  0  2  0  0  0  0  0  0
  190.8510  177.1900  137.7180 O   0  0  0  0  0  0  0  0  0  0  0  0
  188.3550  177.7980  138.4440 C   0  0  2  0  0  0  0  0  0  0  0  0
  189.8030  177.7660  137.9520 C   0  0  0  0  0  0  0  0  0  0  0  0
  188.9340  179.0260  137.9870 C   0  0  0  0  0  2  0  0  0  0  0  0
  186.5580  178.1140  136.5790 C   0  0  0  0  0  1  0  0  0  0  0  0
  187.3190  177.2250  137.5070 C   0  0  0  0  0  0  0  0  0  0  0  0
  187.1540  175.9060  137.4060 C   0  0  0  0  0  2  0  0  0  0  0  0
  189.4030  178.0250  140.6390 O   0  0  0  0  0  0  0  0  0  0  0  0
  190.1340  177.0550  141.3350 C   0  0  0  0  0  0  0  0  0  0  0  0
  190.5340  176.0330  140.7140 O   0  0  0  0  0  0  0  0  0  0  0  0
  191.7090  176.5130  144.4650 C   0  0  2  0  0  3  0  0  0  0  0  0
  190.2520  176.7770  144.7970 C   0  0  1  0  0  3  0  0  0  0  0  0
  191.7920  176.8340  143.0950 O   0  0  0  0  0  0  0  0  0  0  0  0
  190.2180  178.6150  143.3230 C   0  0  0  0  0  2  0  0  0  0  0  0
  190.0950  178.2980  144.8080 C   0  0  0  0  0  2  0  0  0  0  0  0
  192.0030  175.1610  144.6520 O   0  0  0  0  0  1  0  0  0  0  0  0
  189.6470  176.4070  143.6060 O   0  0  0  0  0  0  0  0  0  0  0  0
  190.4590  177.2050  142.7990 C   0  0  1  0  0  0  0  0  0  0  0  0
  1 21  1  1  0  0  0
  2  5  1  0  0  0  0
  2  6  1  0  0  0  0
  3  4  1  0  0  0  0
  3 10  2  0  0  0  0
  4  2  2  0  0  0  0
  7  1  1  1  0  0  0
  7 13  1  0  0  0  0
  8  4  1  0  0  0  0
  9 12  1  0  0  0  0
  9  7  1  0  0  0  0
 10  5  1  0  0  0  0
 11  3  1  0  0  0  0
 12 11  1  0  0  0  0
 13  8  1  0  0  0  0
 14 16  2  0  0  0  0
 15 19  1  6  0  0  0
 15  1  1  0  0  0  0
 16 17  1  0  0  0  0
 16 15  1  0  0  0  0
 17 15  1  0  0  0  0
 18 19  1  0  0  0  0
 20 19  2  0  0  0  0
 21 22  1  0  0  0  0
 23 22  2  0  0  0  0
 24 29  1  6  0  0  0
 24 25  1  0  0  0  0
 25 28  1  6  0  0  0
 26 24  1  0  0  0  0
 27 28  1  0  0  0  0
 30 25  1  0  0  0  0
 31 22  1  6  0  0  0
 31 26  1  0  0  0  0
 31 27  1  0  0  0  0
 31 30  1  0  0  0  0
M  END
>  <MODEL>
5

>  <REMARK>
 VINA RESULT:      -8.3      1.657      5.222
  Name = 
  6 active torsions:
  status: ('A' for Active; 'I' for Inactive)
    1  A    between atoms: O_2  and  C_11
    2  A    between atoms: O_2  and  C_27
    3  A    between atoms: C_11  and  C_28
    4  A    between atoms: C_14  and  C_20
    5  A    between atoms: C_14  and  C_27
    6  A    between atoms: C_17  and  C_27
                            x       y       z     vdW  Elec       q    Type
                         _______ _______ _______ _____ _____    ______ ____

>  <TORSDO>
F 6

$$$$
=
 OpenBabel11042410493D

 31 35  0  0  1  0  0  0  0  0999 V2000
  187.5680  177.8200  139.7050 C   0  0  1  0  0  3  0  0  0  0  0  0
  184.7520  178.8520  144.7120 C   0  0  0  0  0  0  0  0  0  0  0  0
  183.5880  178.6550  142.8830 C   0  0  0  0  0  0  0  0  0  0  0  0
  184.8300  178.3760  143.4230 C   0  0  0  0  0  0  0  0  0  0  0  0
  183.5250  179.3620  144.9320 N   0  0  0  0  0  2  0  0  0  0  0  0
  185.8350  178.8230  145.7330 C   0  0  0  0  0  1  0  0  0  0  0  0
  186.4390  178.6390  140.3500 C   0  0  1  0  0  3  0  0  0  0  0  0
  186.0370  177.8190  142.7380 C   0  0  0  0  0  2  0  0  0  0  0  0
  185.0450  178.1360  139.9680 C   0  0  0  0  0  2  0  0  0  0  0  0
  182.8170  179.2430  143.8160 N   0  0  0  0  0  0  0  0  0  0  0  0
  183.1080  178.3510  141.4970 C   0  0  0  0  0  2  0  0  0  0  0  0
  183.9480  179.0680  140.4520 C   0  0  0  0  0  2  0  0  0  0  0  0
  186.6590  178.8900  141.8480 C   0  0  0  0  0  2  0  0  0  0  0  0
  189.3800  179.1920  136.9970 O   0  0  0  0  0  0  0  0  0  0  0  0
  187.5140  177.6880  138.1750 C   0  0  2  0  0  0  0  0  0  0  0  0
  188.3280  178.7280  137.4020 C   0  0  0  0  0  0  0  0  0  0  0  0
  186.8030  178.7540  137.5320 C   0  0  0  0  0  2  0  0  0  0  0  0
  185.9860  175.8790  137.0790 C   0  0  0  0  0  1  0  0  0  0  0  0
  187.3390  176.3460  137.5070 C   0  0  0  0  0  0  0  0  0  0  0  0
  188.4010  175.6110  137.1770 C   0  0  0  0  0  2  0  0  0  0  0  0
  188.8350  178.3140  140.1320 O   0  0  0  0  0  0  0  0  0  0  0  0
  189.8800  177.4690  140.5220 C   0  0  0  0  0  0  0  0  0  0  0  0
  190.4710  176.7860  139.6410 O   0  0  0  0  0  0  0  0  0  0  0  0
  190.5790  178.4150  143.8670 C   0  0  2  0  0  3  0  0  0  0  0  0
  191.6830  177.4450  143.4930 C   0  0  1  0  0  3  0  0  0  0  0  0
  189.6730  178.3040  142.7920 O   0  0  0  0  0  0  0  0  0  0  0  0
  190.1080  175.9700  142.5450 C   0  0  0  0  0  2  0  0  0  0  0  0
  191.0990  176.0470  143.7000 C   0  0  0  0  0  2  0  0  0  0  0  0
  191.0850  179.7140  143.9260 O   0  0  0  0  0  1  0  0  0  0  0  0
  191.6880  177.5820  142.1140 O   0  0  0  0  0  0  0  0  0  0  0  0
  190.3190  177.3600  141.9600 C   0  0  1  0  0  0  0  0  0  0  0  0
  1 21  1  6  0  0  0
  2  5  1  0  0  0  0
  2  6  1  0  0  0  0
  3  4  1  0  0  0  0
  3 10  2  0  0  0  0
  4  2  2  0  0  0  0
  7  1  1  1  0  0  0
  7 13  1  0  0  0  0
  8  4  1  0  0  0  0
  9  7  1  0  0  0  0
  9 12  1  0  0  0  0
 10  5  1  0  0  0  0
 11  3  1  0  0  0  0
 12 11  1  0  0  0  0
 13  8  1  0  0  0  0
 14 16  2  0  0  0  0
 15 19  1  6  0  0  0
 15  1  1  0  0  0  0
 16 17  1  0  0  0  0
 16 15  1  0  0  0  0
 17 15  1  0  0  0  0
 18 19  1  0  0  0  0
 20 19  2  0  0  0  0
 21 22  1  0  0  0  0
 23 22  2  0  0  0  0
 24 29  1  6  0  0  0
 25 28  1  6  0  0  0
 25 24  1  0  0  0  0
 26 24  1  0  0  0  0
 27 28  1  0  0  0  0
 30 25  1  0  0  0  0
 31 22  1  6  0  0  0
 31 30  1  0  0  0  0
 31 27  1  0  0  0  0
 31 26  1  0  0  0  0
M  END
>  <MODEL>
6

>  <REMARK>
 VINA RESULT:      -8.1      1.598      5.197
  Name = 
  6 active torsions:
  status: ('A' for Active; 'I' for Inactive)
    1  A    between atoms: O_2  and  C_11
    2  A    between atoms: O_2  and  C_27
    3  A    between atoms: C_11  and  C_28
    4  A    between atoms: C_14  and  C_20
    5  A    between atoms: C_14  and  C_27
    6  A    between atoms: C_17  and  C_27
                            x       y       z     vdW  Elec       q    Type
                         _______ _______ _______ _____ _____    ______ ____

>  <TORSDO>
F 6

$$$$
=
 OpenBabel11042410493D

 31 35  0  0  1  0  0  0  0  0999 V2000
  184.3660  178.3700  140.5510 C   0  0  1  0  0  3  0  0  0  0  0  0
  187.5350  177.8550  145.4250 C   0  0  0  0  0  0  0  0  0  0  0  0
  185.4280  178.3700  145.6010 C   0  0  0  0  0  0  0  0  0  0  0  0
  186.3520  177.8370  144.7220 C   0  0  0  0  0  0  0  0  0  0  0  0
  187.3200  178.3470  146.6600 N   0  0  0  0  0  2  0  0  0  0  0  0
  188.8660  177.4060  144.9290 C   0  0  0  0  0  1  0  0  0  0  0  0
  184.6490  179.0030  141.9230 C   0  0  1  0  0  3  0  0  0  0  0  0
  186.1590  177.4580  143.2890 C   0  0  0  0  0  2  0  0  0  0  0  0
  183.5250  178.7590  142.9340 C   0  0  0  0  0  2  0  0  0  0  0  0
  186.0360  178.6630  146.7660 N   0  0  0  0  0  0  0  0  0  0  0  0
  183.9640  178.5850  145.3650 C   0  0  0  0  0  2  0  0  0  0  0  0
  183.7270  179.5510  144.2140 C   0  0  0  0  0  2  0  0  0  0  0  0
  186.0660  178.7180  142.4350 C   0  0  0  0  0  2  0  0  0  0  0  0
  182.4610  180.0350  138.0820 O   0  0  0  0  0  0  0  0  0  0  0  0
  182.8940  178.3530  140.1090 C   0  0  2  0  0  0  0  0  0  0  0  0
  182.4820  179.4880  139.1700 C   0  0  0  0  0  0  0  0  0  0  0  0
  182.1170  179.4260  140.6560 C   0  0  0  0  0  2  0  0  0  0  0  0
  180.6680  177.0000  140.2600 C   0  0  0  0  0  1  0  0  0  0  0  0
  182.1310  177.0580  139.9660 C   0  0  0  0  0  0  0  0  0  0  0  0
  182.7230  175.9770  139.4570 C   0  0  0  0  0  2  0  0  0  0  0  0
  185.1910  178.9710  139.5570 O   0  0  0  0  0  0  0  0  0  0  0  0
  185.8220  178.2280  138.5520 C   0  0  0  0  0  0  0  0  0  0  0  0
  185.1100  177.6560  137.6820 O   0  0  0  0  0  0  0  0  0  0  0  0
  189.1160  178.3940  137.2510 C   0  0  2  0  0  3  0  0  0  0  0  0
  189.0830  177.1220  138.0780 C   0  0  1  0  0  3  0  0  0  0  0  0
  187.8970  179.0240  137.5770 O   0  0  0  0  0  0  0  0  0  0  0  0
  187.9990  178.2580  139.8360 C   0  0  0  0  0  2  0  0  0  0  0  0
  189.3160  177.5590  139.5240 C   0  0  0  0  0  2  0  0  0  0  0  0
  189.1350  178.0780  135.8910 O   0  0  0  0  0  1  0  0  0  0  0  0
  187.7260  176.8360  138.0520 O   0  0  0  0  0  0  0  0  0  0  0  0
  187.3220  178.1010  138.4810 C   0  0  1  0  0  0  0  0  0  0  0  0
  1 21  1  6  0  0  0
  2  5  1  0  0  0  0
  3 10  2  0  0  0  0
  4  2  2  0  0  0  0
  4  3  1  0  0  0  0
  5 10  1  0  0  0  0
  6  2  1  0  0  0  0
  7  1  1  6  0  0  0
  7 13  1  0  0  0  0
  7  9  1  0  0  0  0
  8  4  1  0  0  0  0
  9 12  1  0  0  0  0
 11  3  1  0  0  0  0
 12 11  1  0  0  0  0
 13  8  1  0  0  0  0
 14 16  2  0  0  0  0
 15 19  1  6  0  0  0
 15  1  1  0  0  0  0
 15 17  1  0  0  0  0
 16 15  1  0  0  0  0
 16 17  1  0  0  0  0
 19 18  1  0  0  0  0
 20 19  2  0  0  0  0
 22 21  1  0  0  0  0
 23 22  2  0  0  0  0
 24 29  1  6  0  0  0
 24 26  1  0  0  0  0
 24 25  1  0  0  0  0
 25 28  1  1  0  0  0
 26 31  1  0  0  0  0
 28 27  1  0  0  0  0
 30 25  1  0  0  0  0
 30 31  1  0  0  0  0
 31 22  1  1  0  0  0
 31 27  1  0  0  0  0
M  END
>  <MODEL>
7

>  <REMARK>
 VINA RESULT:      -7.9      2.468      5.782
  Name = 
  6 active torsions:
  status: ('A' for Active; 'I' for Inactive)
    1  A    between atoms: O_2  and  C_11
    2  A    between atoms: O_2  and  C_27
    3  A    between atoms: C_11  and  C_28
    4  A    between atoms: C_14  and  C_20
    5  A    between atoms: C_14  and  C_27
    6  A    between atoms: C_17  and  C_27
                            x       y       z     vdW  Elec       q    Type
                         _______ _______ _______ _____ _____    ______ ____

>  <TORSDO>
F 6

$$$$
=
 OpenBabel11042410493D

 31 35  0  0  1  0  0  0  0  0999 V2000
  188.4990  178.0220  143.1850 C   0  0  1  0  0  3  0  0  0  0  0  0
  182.7310  178.6880  142.6020 C   0  0  0  0  0  0  0  0  0  0  0  0
  183.6020  178.8420  144.5910 C   0  0  0  0  0  0  0  0  0  0  0  0
  183.9300  178.8840  143.2480 C   0  0  0  0  0  0  0  0  0  0  0  0
  181.7430  178.5630  143.5090 N   0  0  0  0  0  2  0  0  0  0  0  0
  182.5190  178.6210  141.1300 C   0  0  0  0  0  1  0  0  0  0  0  0
  187.1380  177.6550  143.7960 C   0  0  1  0  0  3  0  0  0  0  0  0
  185.2860  178.9740  142.6260 C   0  0  0  0  0  2  0  0  0  0  0  0
  186.8370  178.4250  145.0850 C   0  0  0  0  0  2  0  0  0  0  0  0
  182.2760  178.6550  144.7210 N   0  0  0  0  0  0  0  0  0  0  0  0
  184.5250  179.0030  145.7590 C   0  0  0  0  0  2  0  0  0  0  0  0
  185.5860  177.9140  145.7780 C   0  0  0  0  0  2  0  0  0  0  0  0
  186.0020  177.6350  142.7650 C   0  0  0  0  0  2  0  0  0  0  0  0
  189.1020  176.7530  146.4290 O   0  0  0  0  0  0  0  0  0  0  0  0
  189.7360  177.5320  143.9550 C   0  0  2  0  0  0  0  0  0  0  0  0
  189.5370  177.3530  145.4620 C   0  0  0  0  0  0  0  0  0  0  0  0
  190.2980  178.5210  144.8280 C   0  0  0  0  0  2  0  0  0  0  0  0
  190.5390  175.1610  143.2210 C   0  0  0  0  0  1  0  0  0  0  0  0
  190.7620  176.6350  143.3060 C   0  0  0  0  0  0  0  0  0  0  0  0
  191.8240  177.1570  142.6910 C   0  0  0  0  0  2  0  0  0  0  0  0
  188.5490  177.6090  141.8220 O   0  0  0  0  0  0  0  0  0  0  0  0
  188.6130  178.5210  140.7620 C   0  0  0  0  0  0  0  0  0  0  0  0
  188.2920  179.7220  140.9720 O   0  0  0  0  0  0  0  0  0  0  0  0
  188.9420  178.5180  137.2310 C   0  0  2  0  0  3  0  0  0  0  0  0
  188.9140  177.0530  137.6250 C   0  0  1  0  0  3  0  0  0  0  0  0
  189.0550  179.1840  138.4680 O   0  0  0  0  0  0  0  0  0  0  0  0
  190.4420  177.4640  139.3720 C   0  0  0  0  0  2  0  0  0  0  0  0
  190.3410  176.7090  138.0530 C   0  0  0  0  0  2  0  0  0  0  0  0
  187.7390  178.8680  136.6150 O   0  0  0  0  0  1  0  0  0  0  0  0
  188.2340  177.1260  138.8310 O   0  0  0  0  0  0  0  0  0  0  0  0
  189.0610  178.1050  139.3830 C   0  0  1  0  0  0  0  0  0  0  0  0
  1 21  1  6  0  0  0
  1 15  1  0  0  0  0
  2  4  2  0  0  0  0
  2  5  1  0  0  0  0
  3 10  2  0  0  0  0
  3 11  1  0  0  0  0
  4  3  1  0  0  0  0
  5 10  1  0  0  0  0
  6  2  1  0  0  0  0
  7  1  1  6  0  0  0
  7  9  1  0  0  0  0
  8 13  1  0  0  0  0
  8  4  1  0  0  0  0
  9 12  1  0  0  0  0
 11 12  1  0  0  0  0
 13  7  1  0  0  0  0
 15 19  1  6  0  0  0
 15 17  1  0  0  0  0
 15 16  1  0  0  0  0
 16 14  2  0  0  0  0
 17 16  1  0  0  0  0
 18 19  1  0  0  0  0
 20 19  2  0  0  0  0
 22 23  2  0  0  0  0
 22 21  1  0  0  0  0
 24 29  1  1  0  0  0
 24 25  1  0  0  0  0
 24 26  1  0  0  0  0
 25 28  1  1  0  0  0
 25 30  1  0  0  0  0
 26 31  1  0  0  0  0
 27 31  1  0  0  0  0
 28 27  1  0  0  0  0
 30 31  1  0  0  0  0
 31 22  1  1  0  0  0
M  END
>  <MODEL>
8

>  <REMARK>
 VINA RESULT:      -7.7      1.493      2.392
  Name = 
  6 active torsions:
  status: ('A' for Active; 'I' for Inactive)
    1  A    between atoms: O_2  and  C_11
    2  A    between atoms: O_2  and  C_27
    3  A    between atoms: C_11  and  C_28
    4  A    between atoms: C_14  and  C_20
    5  A    between atoms: C_14  and  C_27
    6  A    between atoms: C_17  and  C_27
                            x       y       z     vdW  Elec       q    Type
                         _______ _______ _______ _____ _____    ______ ____

>  <TORSDO>
F 6

$$$$
=
 OpenBabel11042410493D

 31 35  0  0  1  0  0  0  0  0999 V2000
  184.9740  178.3090  140.2980 C   0  0  1  0  0  3  0  0  0  0  0  0
  186.7880  178.2210  145.8450 C   0  0  0  0  0  0  0  0  0  0  0  0
  184.6740  178.5510  145.4450 C   0  0  0  0  0  0  0  0  0  0  0  0
  185.8350  178.0770  144.8620 C   0  0  0  0  0  0  0  0  0  0  0  0
  186.2190  178.7280  146.9560 N   0  0  0  0  0  2  0  0  0  0  0  0
  188.2330  177.8780  145.7340 C   0  0  0  0  0  1  0  0  0  0  0  0
  184.8380  179.0040  141.6620 C   0  0  1  0  0  3  0  0  0  0  0  0
  186.0540  177.6400  143.4490 C   0  0  0  0  0  2  0  0  0  0  0  0
  183.5120  178.6910  142.3600 C   0  0  0  0  0  2  0  0  0  0  0  0
  184.9320  178.9310  146.7100 N   0  0  0  0  0  0  0  0  0  0  0  0
  183.3110  178.6280  144.8280 C   0  0  0  0  0  2  0  0  0  0  0  0
  183.3080  179.5340  143.6070 C   0  0  0  0  0  2  0  0  0  0  0  0
  186.0900  178.8620  142.5370 C   0  0  0  0  0  2  0  0  0  0  0  0
  182.4620  175.8640  139.8440 O   0  0  0  0  0  0  0  0  0  0  0  0
  183.6870  178.2050  139.4640 C   0  0  2  0  0  0  0  0  0  0  0  0
  183.0790  176.8040  139.3750 C   0  0  0  0  0  0  0  0  0  0  0  0
  183.8530  177.4790  138.2400 C   0  0  0  0  0  2  0  0  0  0  0  0
  183.1320  180.6430  138.7190 C   0  0  0  0  0  1  0  0  0  0  0  0
  182.7200  179.3600  139.3640 C   0  0  0  0  0  0  0  0  0  0  0  0
  181.4490  179.2130  139.7370 C   0  0  0  0  0  2  0  0  0  0  0  0
  186.0240  178.9110  139.5460 O   0  0  0  0  0  0  0  0  0  0  0  0
  187.2290  178.2530  139.2750 C   0  0  0  0  0  0  0  0  0  0  0  0
  187.9410  177.8650  140.2410 O   0  0  0  0  0  0  0  0  0  0  0  0
  187.1360  177.9810  135.7410 C   0  0  2  0  0  3  0  0  0  0  0  0
  188.0050  176.8270  136.2020 C   0  0  1  0  0  3  0  0  0  0  0  0
  186.9660  178.7470  136.9130 O   0  0  0  0  0  0  0  0  0  0  0  0
  189.1780  178.2550  137.6650 C   0  0  0  0  0  2  0  0  0  0  0  0
  189.4010  177.4140  136.4140 C   0  0  0  0  0  2  0  0  0  0  0  0
  185.8980  177.5030  135.3070 O   0  0  0  0  0  1  0  0  0  0  0  0
  187.5370  176.6550  137.4950 O   0  0  0  0  0  0  0  0  0  0  0  0
  187.6910  177.9920  137.8640 C   0  0  1  0  0  0  0  0  0  0  0  0
  1 21  1  6  0  0  0
  2  5  1  0  0  0  0
  3 10  2  0  0  0  0
  4  3  1  0  0  0  0
  4  2  2  0  0  0  0
  6  2  1  0  0  0  0
  7  1  1  6  0  0  0
  7  9  1  0  0  0  0
  7 13  1  0  0  0  0
  8  4  1  0  0  0  0
  9 12  1  0  0  0  0
 10  5  1  0  0  0  0
 11  3  1  0  0  0  0
 12 11  1  0  0  0  0
 13  8  1  0  0  0  0
 15 19  1  1  0  0  0
 15  1  1  0  0  0  0
 16 15  1  0  0  0  0
 16 14  2  0  0  0  0
 17 16  1  0  0  0  0
 17 15  1  0  0  0  0
 18 19  1  0  0  0  0
 19 20  2  0  0  0  0
 22 21  1  0  0  0  0
 22 23  2  0  0  0  0
 24 29  1  1  0  0  0
 24 25  1  0  0  0  0
 24 26  1  0  0  0  0
 25 28  1  1  0  0  0
 25 30  1  0  0  0  0
 26 31  1  0  0  0  0
 27 31  1  0  0  0  0
 28 27  1  0  0  0  0
 30 31  1  0  0  0  0
 31 22  1  1  0  0  0
M  END
>  <MODEL>
9

>  <REMARK>
 VINA RESULT:      -7.7      2.571      5.578
  Name = 
  6 active torsions:
  status: ('A' for Active; 'I' for Inactive)
    1  A    between atoms: O_2  and  C_11
    2  A    between atoms: O_2  and  C_27
    3  A    between atoms: C_11  and  C_28
    4  A    between atoms: C_14  and  C_20
    5  A    between atoms: C_14  and  C_27
    6  A    between atoms: C_17  and  C_27
                            x       y       z     vdW  Elec       q    Type
                         _______ _______ _______ _____ _____    ______ ____

>  <TORSDO>
F 6

$$$$
