=
 OpenBabel11032419513D

 27 28  0  0  1  0  0  0  0  0999 V2000
  190.6770  177.2070  145.1090 C   0  0  0  0  0  2  0  0  0  0  0  0
  187.8900  177.8930  146.3370 C   0  0  0  0  0  0  0  0  0  0  0  0
  189.5860  176.7640  144.1300 C   0  0  1  0  0  3  0  0  0  0  0  0
  187.0050  178.1600  147.2880 C   0  0  0  0  0  2  0  0  0  0  0  0
  189.0980  177.5050  147.0460 C   0  0  0  0  0  0  0  0  0  0  0  0
  187.6290  178.0170  148.5680 N   0  0  0  0  0  0  0  0  0  0  0  0
  188.5930  177.8510  143.9870 N   0  0  0  0  0  0  0  0  0  0  0  0
  187.5110  177.5830  144.9260 C   0  0  0  0  0  2  0  0  0  0  0  0
  188.8300  177.6230  148.4320 N   0  0  0  0  0  0  0  0  0  0  0  0
  190.2860  177.1540  146.5550 C   0  0  0  0  0  2  0  0  0  0  0  0
  190.2340  176.3010  142.8070 C   0  0  2  0  0  3  0  0  0  0  0  0
  190.5440  174.9410  142.8760 O   0  0  0  0  0  1  0  0  0  0  0  0
  191.4790  177.1080  142.4460 C   0  0  0  0  0  2  0  0  0  0  0  0
  191.5380  177.3510  140.9780 C   0  0  0  0  0  0  0  0  0  0  0  0
  192.7670  177.4610  140.3420 O   0  0  0  0  0  1  0  0  0  0  0  0
  190.4750  177.4250  140.3080 O   0  0  0  0  0  0  0  0  0  0  0  0
  187.9460  177.8410  142.6790 C   0  0  0  0  0  2  0  0  0  0  0  0
  186.4460  177.9560  142.8560 C   0  0  0  0  0  2  0  0  0  0  0  0
  185.9000  178.9870  141.8880 C   0  0  0  0  0  2  0  0  0  0  0  0
  184.4880  179.2070  142.1530 N   0  0  0  0  0  0  0  0  0  0  0  0
  183.7700  178.8280  140.9450 C   0  0  0  0  0  2  0  0  0  0  0  0
  184.2930  180.2220  139.0800 O   0  0  0  0  0  1  0  0  0  0  0  0
  184.6490  179.0380  139.7260 C   0  0  0  0  0  2  0  0  0  0  0  0
  184.1080  178.2580  143.1870 C   0  0  0  0  0  2  0  0  0  0  0  0
  183.6010  179.2070  145.4360 O   0  0  0  0  0  1  0  0  0  0  0  0
  183.1740  178.9050  144.1500 C   0  0  0  0  0  0  0  0  0  0  0  0
  181.9860  179.1420  143.8100 O   0  0  0  0  0  0  0  0  0  0  0  0
  1 10  1  0  0  0  0
  2  5  2  0  0  0  0
  2  4  1  0  0  0  0
  3 11  1  6  0  0  0
  3  1  1  0  0  0  0
  4  6  1  0  0  0  0
  5  9  1  0  0  0  0
  7  3  1  0  0  0  0
  7  8  1  0  0  0  0
  8  2  1  0  0  0  0
  9  6  2  0  0  0  0
 10  5  1  0  0  0  0
 11 12  1  1  0  0  0
 13 11  1  0  0  0  0
 14 13  1  0  0  0  0
 15 14  1  0  0  0  0
 16 14  2  0  0  0  0
 17 18  1  0  0  0  0
 17  7  1  0  0  0  0
 19 20  1  0  0  0  0
 19 18  1  0  0  0  0
 20 24  1  0  0  0  0
 21 20  1  0  0  0  0
 22 23  1  0  0  0  0
 23 21  1  0  0  0  0
 24 26  1  0  0  0  0
 26 25  1  0  0  0  0
 27 26  2  0  0  0  0
M  END
>  <MODEL>
1

>  <REMARK>
 VINA RESULT:      -7.3      0.000      0.000
  Name = 
  11 active torsions:
  status: ('A' for Active; 'I' for Inactive)
    1  A    between atoms: C_1  and  C_4
    2  A    between atoms: C_1  and  C_22
    3  A    between atoms: C_6  and  C_15
    4  A    between atoms: C_6  and  N_20
    5  A    between atoms: C_7  and  C_14
    6  A    between atoms: C_7  and  C_27
    7  A    between atoms: C_9  and  C_22
    8  A    between atoms: C_14  and  N_20
    9  A    between atoms: N_17  and  C_27
   10  A    between atoms: C_18  and  C_19
   11  A    between atoms: C_19  and  N_20
                            x       y       z     vdW  Elec       q    Type
                         _______ _______ _______ _____ _____    ______ ____

>  <TORSDO>
F 11

$$$$
=
 OpenBabel11032419513D

 27 28  0  0  1  0  0  0  0  0999 V2000
  186.9530  178.3900  147.1950 C   0  0  0  0  0  2  0  0  0  0  0  0
  185.6400  178.3080  144.3640 C   0  0  0  0  0  0  0  0  0  0  0  0
  187.5950  177.2600  146.3890 C   0  0  1  0  0  3  0  0  0  0  0  0
  184.7100  178.5110  143.4410 C   0  0  0  0  0  3  0  0  0  0  0  0
  185.0120  178.6810  145.6200 C   0  0  0  0  0  0  0  0  0  0  0  0
  183.5420  179.0590  144.0600 N   0  0  0  0  0  0  0  0  0  0  0  0
  187.9340  177.7590  145.0380 N   0  0  0  0  0  0  0  0  0  0  0  0
  186.8250  177.4220  144.1550 C   0  0  0  0  0  2  0  0  0  0  0  0
  183.7070  179.1410  145.3180 N   0  0  0  0  0  0  0  0  0  0  0  0
  185.5220  178.6770  146.8500 C   0  0  0  0  0  3  0  0  0  0  0  0
  188.7860  176.6710  147.1790 C   0  0  2  0  0  3  0  0  0  0  0  0
  188.3430  176.1620  148.4020 O   0  0  0  0  0  1  0  0  0  0  0  0
  189.9030  177.6870  147.4030 C   0  0  0  0  0  2  0  0  0  0  0  0
  191.2220  177.0010  147.4940 C   0  0  0  0  0  0  0  0  0  0  0  0
  191.5820  176.0600  146.5390 O   0  0  0  0  0  0  0  0  0  0  0  0
  192.0240  177.2970  148.4180 O   0  0  0  0  0  1  0  0  0  0  0  0
  189.0800  177.0620  144.4610 C   0  0  0  0  0  2  0  0  0  0  0  0
  188.6570  176.3690  143.1820 C   0  0  0  0  0  2  0  0  0  0  0  0
  189.8670  176.1730  142.2900 C   0  0  0  0  0  2  0  0  0  0  0  0
  190.1460  177.4020  141.5680 N   0  0  0  0  0  0  0  0  0  0  0  0
  191.5940  177.5170  141.4750 C   0  0  0  0  0  2  0  0  0  0  0  0
  193.4220  177.4470  139.9430 O   0  0  0  0  0  1  0  0  0  0  0  0
  192.0540  177.2040  140.0630 C   0  0  0  0  0  2  0  0  0  0  0  0
  189.6490  177.2100  140.2150 C   0  0  0  0  0  2  0  0  0  0  0  0
  188.8270  179.0370  138.7320 O   0  0  0  0  0  0  0  0  0  0  0  0
  188.6630  178.2750  139.8810 C   0  0  0  0  0  0  0  0  0  0  0  0
  187.7030  178.5100  140.6590 O   0  0  0  0  0  1  0  0  0  0  0  0
  2  5  1  0  0  0  0
  3 11  1  1  0  0  0
  3  1  1  0  0  0  0
  4  6  1  0  0  0  0
  4  2  2  0  0  0  0
  5 10  2  0  0  0  0
  6  9  2  0  0  0  0
  7  3  1  0  0  0  0
  8  2  1  0  0  0  0
  8  7  1  0  0  0  0
  9  5  1  0  0  0  0
 10  1  1  0  0  0  0
 11 13  1  0  0  0  0
 11 12  1  1  0  0  0
 13 14  1  0  0  0  0
 14 16  1  0  0  0  0
 15 14  2  0  0  0  0
 17  7  1  0  0  0  0
 18 17  1  0  0  0  0
 19 18  1  0  0  0  0
 20 19  1  0  0  0  0
 21 20  1  0  0  0  0
 22 23  1  0  0  0  0
 23 21  1  0  0  0  0
 24 20  1  0  0  0  0
 25 26  2  0  0  0  0
 26 24  1  0  0  0  0
 26 27  1  0  0  0  0
M  END
>  <MODEL>
2

>  <REMARK>
 VINA RESULT:      -7.0      2.709      5.808
  Name = 
  11 active torsions:
  status: ('A' for Active; 'I' for Inactive)
    1  A    between atoms: C_1  and  C_4
    2  A    between atoms: C_1  and  C_22
    3  A    between atoms: C_6  and  C_15
    4  A    between atoms: C_6  and  N_20
    5  A    between atoms: C_7  and  C_14
    6  A    between atoms: C_7  and  C_27
    7  A    between atoms: C_9  and  C_22
    8  A    between atoms: C_14  and  N_20
    9  A    between atoms: N_17  and  C_27
   10  A    between atoms: C_18  and  C_19
   11  A    between atoms: C_19  and  N_20
                            x       y       z     vdW  Elec       q    Type
                         _______ _______ _______ _____ _____    ______ ____

>  <TORSDO>
F 11

$$$$
=
 OpenBabel11032419513D

 27 28  0  0  1  0  0  0  0  0999 V2000
  185.0400  178.3270  146.0220 C   0  0  0  0  0  2  0  0  0  0  0  0
  188.0590  177.7240  146.5430 C   0  0  0  0  0  0  0  0  0  0  0  0
  185.8200  178.5700  144.7280 C   0  0  1  0  0  3  0  0  0  0  0  0
  189.1710  177.5700  147.2490 C   0  0  0  0  0  3  0  0  0  0  0  0
  187.0890  178.2640  147.4820 C   0  0  0  0  0  0  0  0  0  0  0  0
  188.9200  177.9320  148.6100 N   0  0  0  0  0  0  0  0  0  0  0  0
  186.7400  177.4350  144.4950 N   0  0  0  0  0  0  0  0  0  0  0  0
  188.0370  177.7990  145.0510 C   0  0  0  0  0  2  0  0  0  0  0  0
  187.7270  178.3490  148.7440 N   0  0  0  0  0  0  0  0  0  0  0  0
  185.8120  178.5830  147.2810 C   0  0  0  0  0  3  0  0  0  0  0  0
  184.8340  178.8510  143.5730 C   0  0  2  0  0  3  0  0  0  0  0  0
  185.2220  180.0000  142.8810 O   0  0  0  0  0  1  0  0  0  0  0  0
  183.3900  178.9860  144.0510 C   0  0  0  0  0  2  0  0  0  0  0  0
  182.4500  178.9400  142.8960 C   0  0  0  0  0  0  0  0  0  0  0  0
  182.8510  178.3640  141.6980 O   0  0  0  0  0  0  0  0  0  0  0  0
  181.2830  179.3940  143.0150 O   0  0  0  0  0  1  0  0  0  0  0  0
  187.0040  177.2180  143.0750 C   0  0  0  0  0  2  0  0  0  0  0  0
  188.3250  176.4930  142.9130 C   0  0  0  0  0  2  0  0  0  0  0  0
  189.0900  177.0930  141.7500 C   0  0  0  0  0  2  0  0  0  0  0  0
  190.5040  176.7850  141.8850 N   0  0  0  0  0  0  0  0  0  0  0  0
  191.1270  177.1010  140.6080 C   0  0  0  0  0  2  0  0  0  0  0  0
  190.8050  175.6240  138.7610 O   0  0  0  0  0  1  0  0  0  0  0  0
  190.2210  176.6780  139.4650 C   0  0  0  0  0  2  0  0  0  0  0  0
  191.0400  177.7200  142.8610 C   0  0  0  0  0  2  0  0  0  0  0  0
  191.8650  177.6490  145.2110 O   0  0  0  0  0  1  0  0  0  0  0  0
  191.5860  176.9770  144.0290 C   0  0  0  0  0  0  0  0  0  0  0  0
  191.8310  175.7460  143.9330 O   0  0  0  0  0  0  0  0  0  0  0  0
  1 10  1  0  0  0  0
  2  4  2  0  0  0  0
  2  5  1  0  0  0  0
  3 11  1  6  0  0  0
  3  1  1  0  0  0  0
  4  6  1  0  0  0  0
  5  9  1  0  0  0  0
  6  9  2  0  0  0  0
  7  3  1  0  0  0  0
  7  8  1  0  0  0  0
  8  2  1  0  0  0  0
 10  5  2  0  0  0  0
 11 12  1  1  0  0  0
 11 13  1  0  0  0  0
 14 16  1  0  0  0  0
 14 13  1  0  0  0  0
 15 14  2  0  0  0  0
 17  7  1  0  0  0  0
 18 17  1  0  0  0  0
 19 20  1  0  0  0  0
 19 18  1  0  0  0  0
 20 24  1  0  0  0  0
 21 20  1  0  0  0  0
 22 23  1  0  0  0  0
 23 21  1  0  0  0  0
 24 26  1  0  0  0  0
 26 25  1  0  0  0  0
 27 26  2  0  0  0  0
M  END
>  <MODEL>
3

>  <REMARK>
 VINA RESULT:      -6.9      1.918      6.271
  Name = 
  11 active torsions:
  status: ('A' for Active; 'I' for Inactive)
    1  A    between atoms: C_1  and  C_4
    2  A    between atoms: C_1  and  C_22
    3  A    between atoms: C_6  and  C_15
    4  A    between atoms: C_6  and  N_20
    5  A    between atoms: C_7  and  C_14
    6  A    between atoms: C_7  and  C_27
    7  A    between atoms: C_9  and  C_22
    8  A    between atoms: C_14  and  N_20
    9  A    between atoms: N_17  and  C_27
   10  A    between atoms: C_18  and  C_19
   11  A    between atoms: C_19  and  N_20
                            x       y       z     vdW  Elec       q    Type
                         _______ _______ _______ _____ _____    ______ ____

>  <TORSDO>
F 11

$$$$
=
 OpenBabel11032419513D

 27 28  0  0  1  0  0  0  0  0999 V2000
  185.4230  178.2180  145.4510 C   0  0  0  0  0  2  0  0  0  0  0  0
  188.3690  177.6540  146.3190 C   0  0  0  0  0  0  0  0  0  0  0  0
  186.3350  178.3930  144.2350 C   0  0  1  0  0  3  0  0  0  0  0  0
  189.3990  177.5420  147.1460 C   0  0  0  0  0  2  0  0  0  0  0  0
  187.3070  178.2410  147.1200 C   0  0  0  0  0  0  0  0  0  0  0  0
  189.0080  177.9760  148.4510 N   0  0  0  0  0  0  0  0  0  0  0  0
  187.2710  177.2500  144.1620 N   0  0  0  0  0  0  0  0  0  0  0  0
  188.5040  177.6480  144.8320 C   0  0  0  0  0  2  0  0  0  0  0  0
  187.8080  178.3960  148.4350 N   0  0  0  0  0  0  0  0  0  0  0  0
  186.0580  178.5450  146.7690 C   0  0  0  0  0  2  0  0  0  0  0  0
  185.4760  178.6080  142.9690 C   0  0  2  0  0  3  0  0  0  0  0  0
  185.8550  179.7900  142.3300 O   0  0  0  0  0  1  0  0  0  0  0  0
  183.9800  178.6270  143.2690 C   0  0  0  0  0  2  0  0  0  0  0  0
  183.1930  178.4730  142.0140 C   0  0  0  0  0  0  0  0  0  0  0  0
  181.9160  179.0120  141.9250 O   0  0  0  0  0  1  0  0  0  0  0  0
  183.6950  177.8820  141.0230 O   0  0  0  0  0  0  0  0  0  0  0  0
  187.6830  176.9570  142.7930 C   0  0  0  0  0  2  0  0  0  0  0  0
  189.0130  177.6250  142.5110 C   0  0  0  0  0  2  0  0  0  0  0  0
  189.8210  176.7620  141.5620 C   0  0  0  0  0  2  0  0  0  0  0  0
  190.0610  177.4880  140.3260 N   0  0  0  0  0  0  0  0  0  0  0  0
  191.3020  176.9710  139.7690 C   0  0  0  0  0  2  0  0  0  0  0  0
  193.6680  177.2880  139.8000 O   0  0  0  0  0  1  0  0  0  0  0  0
  192.4920  177.5740  140.4940 C   0  0  0  0  0  2  0  0  0  0  0  0
  188.9960  177.1090  139.4110 C   0  0  0  0  0  2  0  0  0  0  0  0
  186.9410  178.5150  139.5030 O   0  0  0  0  0  1  0  0  0  0  0  0
  188.2220  178.3150  139.0070 C   0  0  0  0  0  0  0  0  0  0  0  0
  188.7140  179.1320  138.1870 O   0  0  0  0  0  0  0  0  0  0  0  0
  1 10  1  0  0  0  0
  2  5  2  0  0  0  0
  2  4  1  0  0  0  0
  3 11  1  6  0  0  0
  3  1  1  0  0  0  0
  4  6  1  0  0  0  0
  5  9  1  0  0  0  0
  7  3  1  0  0  0  0
  7  8  1  0  0  0  0
  8  2  1  0  0  0  0
  9  6  2  0  0  0  0
 10  5  1  0  0  0  0
 11 12  1  1  0  0  0
 11 13  1  0  0  0  0
 14 13  1  0  0  0  0
 15 14  1  0  0  0  0
 16 14  2  0  0  0  0
 17  7  1  0  0  0  0
 18 17  1  0  0  0  0
 19 18  1  0  0  0  0
 20 19  1  0  0  0  0
 21 20  1  0  0  0  0
 21 23  1  0  0  0  0
 22 23  1  0  0  0  0
 24 20  1  0  0  0  0
 26 24  1  0  0  0  0
 26 25  1  0  0  0  0
 27 26  2  0  0  0  0
M  END
>  <MODEL>
4

>  <REMARK>
 VINA RESULT:      -6.9      2.058      5.953
  Name = 
  11 active torsions:
  status: ('A' for Active; 'I' for Inactive)
    1  A    between atoms: C_1  and  C_4
    2  A    between atoms: C_1  and  C_22
    3  A    between atoms: C_6  and  C_15
    4  A    between atoms: C_6  and  N_20
    5  A    between atoms: C_7  and  C_14
    6  A    between atoms: C_7  and  C_27
    7  A    between atoms: C_9  and  C_22
    8  A    between atoms: C_14  and  N_20
    9  A    between atoms: N_17  and  C_27
   10  A    between atoms: C_18  and  C_19
   11  A    between atoms: C_19  and  N_20
                            x       y       z     vdW  Elec       q    Type
                         _______ _______ _______ _____ _____    ______ ____

>  <TORSDO>
F 11

$$$$
=
 OpenBabel11032419513D

 27 28  0  0  1  0  0  0  0  0999 V2000
  190.3860  177.5080  144.8560 C   0  0  0  0  0  2  0  0  0  0  0  0
  187.5980  177.8470  146.2220 C   0  0  0  0  0  0  0  0  0  0  0  0
  189.3340  176.7850  144.0120 C   0  0  1  0  0  3  0  0  0  0  0  0
  186.7390  178.0630  147.2070 C   0  0  0  0  0  2  0  0  0  0  0  0
  188.8960  177.7470  146.8700 C   0  0  0  0  0  0  0  0  0  0  0  0
  187.4520  178.1670  148.4430 N   0  0  0  0  0  0  0  0  0  0  0  0
  188.1590  177.6670  143.8400 N   0  0  0  0  0  0  0  0  0  0  0  0
  187.1970  177.3260  144.8810 C   0  0  0  0  0  2  0  0  0  0  0  0
  188.6930  177.9680  148.2550 N   0  0  0  0  0  0  0  0  0  0  0  0
  190.0960  177.5490  146.3260 C   0  0  0  0  0  2  0  0  0  0  0  0
  189.9740  176.2960  142.6940 C   0  0  2  0  0  3  0  0  0  0  0  0
  190.3650  174.9610  142.8180 O   0  0  0  0  0  1  0  0  0  0  0  0
  191.1600  177.1540  142.2610 C   0  0  0  0  0  2  0  0  0  0  0  0
  191.2010  177.2800  140.7780 C   0  0  0  0  0  0  0  0  0  0  0  0
  192.4180  177.4380  140.1280 O   0  0  0  0  0  1  0  0  0  0  0  0
  190.1370  177.2110  140.1090 O   0  0  0  0  0  0  0  0  0  0  0  0
  187.4480  177.4080  142.5920 C   0  0  0  0  0  2  0  0  0  0  0  0
  187.3450  178.6910  141.7930 C   0  0  0  0  0  2  0  0  0  0  0  0
  185.9660  179.2920  141.9800 C   0  0  0  0  0  2  0  0  0  0  0  0
  184.9780  178.4690  141.3040 N   0  0  0  0  0  0  0  0  0  0  0  0
  183.7950  178.4490  142.1530 C   0  0  0  0  0  2  0  0  0  0  0  0
  183.3330  178.5380  144.4930 O   0  0  0  0  0  1  0  0  0  0  0  0
  184.0920  179.1250  143.4790 C   0  0  0  0  0  2  0  0  0  0  0  0
  184.6130  179.1750  140.0870 C   0  0  0  0  0  2  0  0  0  0  0  0
  184.3090  177.4860  138.2790 O   0  0  0  0  0  0  0  0  0  0  0  0
  185.1160  178.4300  138.8990 C   0  0  0  0  0  0  0  0  0  0  0  0
  186.2860  178.6300  138.4810 O   0  0  0  0  0  1  0  0  0  0  0  0
  1 10  1  0  0  0  0
  2  5  2  0  0  0  0
  2  4  1  0  0  0  0
  3 11  1  6  0  0  0
  3  1  1  0  0  0  0
  4  6  1  0  0  0  0
  5  9  1  0  0  0  0
  7  3  1  0  0  0  0
  7  8  1  0  0  0  0
  8  2  1  0  0  0  0
  9  6  2  0  0  0  0
 10  5  1  0  0  0  0
 11 12  1  1  0  0  0
 13 11  1  0  0  0  0
 14 13  1  0  0  0  0
 15 14  1  0  0  0  0
 16 14  2  0  0  0  0
 17  7  1  0  0  0  0
 18 19  1  0  0  0  0
 18 17  1  0  0  0  0
 20 19  1  0  0  0  0
 20 21  1  0  0  0  0
 21 23  1  0  0  0  0
 23 22  1  0  0  0  0
 24 20  1  0  0  0  0
 25 26  2  0  0  0  0
 26 24  1  0  0  0  0
 27 26  1  0  0  0  0
M  END
>  <MODEL>
5

>  <REMARK>
 VINA RESULT:      -6.7      0.983      2.722
  Name = 
  11 active torsions:
  status: ('A' for Active; 'I' for Inactive)
    1  A    between atoms: C_1  and  C_4
    2  A    between atoms: C_1  and  C_22
    3  A    between atoms: C_6  and  C_15
    4  A    between atoms: C_6  and  N_20
    5  A    between atoms: C_7  and  C_14
    6  A    between atoms: C_7  and  C_27
    7  A    between atoms: C_9  and  C_22
    8  A    between atoms: C_14  and  N_20
    9  A    between atoms: N_17  and  C_27
   10  A    between atoms: C_18  and  C_19
   11  A    between atoms: C_19  and  N_20
                            x       y       z     vdW  Elec       q    Type
                         _______ _______ _______ _____ _____    ______ ____

>  <TORSDO>
F 11

$$$$
=
 OpenBabel11032419513D

 27 28  0  0  1  0  0  0  0  0999 V2000
  187.0130  178.4370  146.6900 C   0  0  0  0  0  2  0  0  0  0  0  0
  185.2810  178.3750  144.0930 C   0  0  0  0  0  0  0  0  0  0  0  0
  187.5440  177.3340  145.7710 C   0  0  1  0  0  3  0  0  0  0  0  0
  184.2150  178.5740  143.3290 C   0  0  0  0  0  3  0  0  0  0  0  0
  184.8470  178.7130  145.4390 C   0  0  0  0  0  0  0  0  0  0  0  0
  183.1470  179.0860  144.1320 N   0  0  0  0  0  0  0  0  0  0  0  0
  187.6610  177.8630  144.3950 N   0  0  0  0  0  0  0  0  0  0  0  0
  186.4350  177.5180  143.6860 C   0  0  0  0  0  2  0  0  0  0  0  0
  183.5030  179.1500  145.3500 N   0  0  0  0  0  0  0  0  0  0  0  0
  185.5410  178.6990  146.5750 C   0  0  0  0  0  3  0  0  0  0  0  0
  188.8530  176.7570  146.3560 C   0  0  2  0  0  3  0  0  0  0  0  0
  188.6820  176.4650  147.7110 O   0  0  0  0  0  1  0  0  0  0  0  0
  190.0450  177.6910  146.1640 C   0  0  0  0  0  2  0  0  0  0  0  0
  191.3130  176.9130  146.1000 C   0  0  0  0  0  0  0  0  0  0  0  0
  191.7170  176.3420  144.9000 O   0  0  0  0  0  0  0  0  0  0  0  0
  192.0360  176.7980  147.1240 O   0  0  0  0  0  1  0  0  0  0  0  0
  188.7160  177.2010  143.6340 C   0  0  0  0  0  2  0  0  0  0  0  0
  188.9860  177.9790  142.3620 C   0  0  0  0  0  2  0  0  0  0  0  0
  189.7880  177.1200  141.4050 C   0  0  0  0  0  2  0  0  0  0  0  0
  189.2000  177.1880  140.0780 N   0  0  0  0  0  0  0  0  0  0  0  0
  188.2090  178.2540  140.1110 C   0  0  0  0  0  2  0  0  0  0  0  0
  186.0350  178.6120  139.1940 O   0  0  0  0  0  1  0  0  0  0  0  0
  187.3250  178.1840  138.8790 C   0  0  0  0  0  2  0  0  0  0  0  0
  190.2570  177.6220  139.1790 C   0  0  0  0  0  2  0  0  0  0  0  0
  192.5880  176.7390  139.1510 O   0  0  0  0  0  1  0  0  0  0  0  0
  191.2300  176.5150  138.9680 C   0  0  0  0  0  0  0  0  0  0  0  0
  190.8250  175.3860  138.5860 O   0  0  0  0  0  0  0  0  0  0  0  0
  2  5  1  0  0  0  0
  3 11  1  1  0  0  0
  3  1  1  0  0  0  0
  4  2  2  0  0  0  0
  4  6  1  0  0  0  0
  5 10  2  0  0  0  0
  6  9  2  0  0  0  0
  7  3  1  0  0  0  0
  8  2  1  0  0  0  0
  8  7  1  0  0  0  0
  9  5  1  0  0  0  0
 10  1  1  0  0  0  0
 11 12  1  1  0  0  0
 13 11  1  0  0  0  0
 14 13  1  0  0  0  0
 14 16  1  0  0  0  0
 15 14  2  0  0  0  0
 17  7  1  0  0  0  0
 18 17  1  0  0  0  0
 19 18  1  0  0  0  0
 20 21  1  0  0  0  0
 20 19  1  0  0  0  0
 23 22  1  0  0  0  0
 23 21  1  0  0  0  0
 24 20  1  0  0  0  0
 26 25  1  0  0  0  0
 26 24  1  0  0  0  0
 27 26  2  0  0  0  0
M  END
>  <MODEL>
6

>  <REMARK>
 VINA RESULT:      -6.7      2.580      5.584
  Name = 
  11 active torsions:
  status: ('A' for Active; 'I' for Inactive)
    1  A    between atoms: C_1  and  C_4
    2  A    between atoms: C_1  and  C_22
    3  A    between atoms: C_6  and  C_15
    4  A    between atoms: C_6  and  N_20
    5  A    between atoms: C_7  and  C_14
    6  A    between atoms: C_7  and  C_27
    7  A    between atoms: C_9  and  C_22
    8  A    between atoms: C_14  and  N_20
    9  A    between atoms: N_17  and  C_27
   10  A    between atoms: C_18  and  C_19
   11  A    between atoms: C_19  and  N_20
                            x       y       z     vdW  Elec       q    Type
                         _______ _______ _______ _____ _____    ______ ____

>  <TORSDO>
F 11

$$$$
=
 OpenBabel11032419513D

 27 28  0  0  1  0  0  0  0  0999 V2000
  191.7520  177.1480  142.0940 C   0  0  0  0  0  2  0  0  0  0  0  0
  189.1820  177.3300  140.3300 C   0  0  0  0  0  0  0  0  0  0  0  0
  190.6100  177.7060  142.9460 C   0  0  1  0  0  3  0  0  0  0  0  0
  188.4670  177.4170  139.2170 C   0  0  0  0  0  3  0  0  0  0  0  0
  190.5610  177.5050  139.9060 C   0  0  0  0  0  0  0  0  0  0  0  0
  189.3480  177.5750  138.1000 N   0  0  0  0  0  0  0  0  0  0  0  0
  189.3990  176.8840  142.7330 N   0  0  0  0  0  0  0  0  0  0  0  0
  188.6060  177.5300  141.6940 C   0  0  0  0  0  2  0  0  0  0  0  0
  190.5540  177.6440  138.4960 N   0  0  0  0  0  0  0  0  0  0  0  0
  191.6750  177.4880  140.6360 C   0  0  0  0  0  3  0  0  0  0  0  0
  191.0670  177.8160  144.4180 C   0  0  2  0  0  3  0  0  0  0  0  0
  191.9730  178.8690  144.5600 O   0  0  0  0  0  1  0  0  0  0  0  0
  191.6780  176.5190  144.9430 C   0  0  0  0  0  2  0  0  0  0  0  0
  191.5220  176.4280  146.4210 C   0  0  0  0  0  0  0  0  0  0  0  0
  190.3620  176.8910  147.0260 O   0  0  0  0  0  0  0  0  0  0  0  0
  192.4290  175.9030  147.1200 O   0  0  0  0  0  1  0  0  0  0  0  0
  188.5230  176.8730  143.9010 C   0  0  0  0  0  2  0  0  0  0  0  0
  187.0960  177.1340  143.4640 C   0  0  0  0  0  2  0  0  0  0  0  0
  186.3250  177.7650  144.6070 C   0  0  0  0  0  2  0  0  0  0  0  0
  185.0630  178.2890  144.1140 N   0  0  0  0  0  0  0  0  0  0  0  0
  184.4410  178.9990  145.2220 C   0  0  0  0  0  2  0  0  0  0  0  0
  185.6190  179.4370  147.2510 O   0  0  0  0  0  1  0  0  0  0  0  0
  184.9390  178.4440  146.5440 C   0  0  0  0  0  2  0  0  0  0  0  0
  185.3920  179.2830  143.1050 C   0  0  0  0  0  2  0  0  0  0  0  0
  185.3000  179.3800  140.6170 O   0  0  0  0  0  0  0  0  0  0  0  0
  184.7570  178.9190  141.8080 C   0  0  0  0  0  0  0  0  0  0  0  0
  183.7070  178.2270  141.7950 O   0  0  0  0  0  1  0  0  0  0  0  0
  1  3  1  0  0  0  0
  2  8  1  0  0  0  0
  3 11  1  1  0  0  0
  4  2  2  0  0  0  0
  5  2  1  0  0  0  0
  5 10  2  0  0  0  0
  6  9  2  0  0  0  0
  6  4  1  0  0  0  0
  7  3  1  0  0  0  0
  7 17  1  0  0  0  0
  8  7  1  0  0  0  0
  9  5  1  0  0  0  0
 10  1  1  0  0  0  0
 11 12  1  6  0  0  0
 11 13  1  0  0  0  0
 13 14  1  0  0  0  0
 14 15  2  0  0  0  0
 14 16  1  0  0  0  0
 18 17  1  0  0  0  0
 18 19  1  0  0  0  0
 20 19  1  0  0  0  0
 20 21  1  0  0  0  0
 21 23  1  0  0  0  0
 23 22  1  0  0  0  0
 24 20  1  0  0  0  0
 25 26  2  0  0  0  0
 26 24  1  0  0  0  0
 27 26  1  0  0  0  0
M  END
>  <MODEL>
7

>  <REMARK>
 VINA RESULT:      -6.7      2.749      5.454
  Name = 
  11 active torsions:
  status: ('A' for Active; 'I' for Inactive)
    1  A    between atoms: C_1  and  C_4
    2  A    between atoms: C_1  and  C_22
    3  A    between atoms: C_6  and  C_15
    4  A    between atoms: C_6  and  N_20
    5  A    between atoms: C_7  and  C_14
    6  A    between atoms: C_7  and  C_27
    7  A    between atoms: C_9  and  C_22
    8  A    between atoms: C_14  and  N_20
    9  A    between atoms: N_17  and  C_27
   10  A    between atoms: C_18  and  C_19
   11  A    between atoms: C_19  and  N_20
                            x       y       z     vdW  Elec       q    Type
                         _______ _______ _______ _____ _____    ______ ____

>  <TORSDO>
F 11

$$$$
=
 OpenBabel11032419513D

 27 28  0  0  1  0  0  0  0  0999 V2000
  185.2660  178.2750  146.1820 C   0  0  0  0  0  2  0  0  0  0  0  0
  188.2970  177.6000  146.5160 C   0  0  0  0  0  0  0  0  0  0  0  0
  185.9630  178.4620  144.8320 C   0  0  1  0  0  3  0  0  0  0  0  0
  189.4490  177.4340  147.1500 C   0  0  0  0  0  3  0  0  0  0  0  0
  187.4070  178.1920  147.5020 C   0  0  0  0  0  0  0  0  0  0  0  0
  189.3020  177.8380  148.5140 N   0  0  0  0  0  0  0  0  0  0  0  0
  186.8340  177.2960  144.5700 N   0  0  0  0  0  0  0  0  0  0  0  0
  188.1750  177.6370  145.0270 C   0  0  0  0  0  2  0  0  0  0  0  0
  188.1310  178.2920  148.7150 N   0  0  0  0  0  0  0  0  0  0  0  0
  186.1280  178.5420  147.3790 C   0  0  0  0  0  3  0  0  0  0  0  0
  184.9080  178.7410  143.7390 C   0  0  2  0  0  3  0  0  0  0  0  0
  185.1200  180.0030  143.1810 O   0  0  0  0  0  1  0  0  0  0  0  0
  183.4770  178.6270  144.2580 C   0  0  0  0  0  2  0  0  0  0  0  0
  182.5010  178.9170  143.1710 C   0  0  0  0  0  0  0  0  0  0  0  0
  182.8020  178.5750  141.8590 O   0  0  0  0  0  0  0  0  0  0  0  0
  181.3910  179.4430  143.4440 O   0  0  0  0  0  1  0  0  0  0  0  0
  186.9950  177.0340  143.1430 C   0  0  0  0  0  2  0  0  0  0  0  0
  188.4090  177.3820  142.7220 C   0  0  0  0  0  2  0  0  0  0  0  0
  188.3670  178.2320  141.4680 C   0  0  0  0  0  2  0  0  0  0  0  0
  188.9680  177.5030  140.3640 N   0  0  0  0  0  0  0  0  0  0  0  0
  188.8830  178.3660  139.1940 C   0  0  0  0  0  2  0  0  0  0  0  0
  187.4510  179.0020  137.3940 O   0  0  0  0  0  1  0  0  0  0  0  0
  187.6190  178.0620  138.4110 C   0  0  0  0  0  2  0  0  0  0  0  0
  190.3800  177.3600  140.6820 C   0  0  0  0  0  2  0  0  0  0  0  0
  192.3080  177.1330  139.1190 O   0  0  0  0  0  1  0  0  0  0  0  0
  191.0820  176.6620  139.5700 C   0  0  0  0  0  0  0  0  0  0  0  0
  190.5470  175.6680  139.0130 O   0  0  0  0  0  0  0  0  0  0  0  0
  1 10  1  0  0  0  0
  2  4  2  0  0  0  0
  2  5  1  0  0  0  0
  3 11  1  6  0  0  0
  3  1  1  0  0  0  0
  4  6  1  0  0  0  0
  5  9  1  0  0  0  0
  6  9  2  0  0  0  0
  7  3  1  0  0  0  0
  7  8  1  0  0  0  0
  8  2  1  0  0  0  0
 10  5  2  0  0  0  0
 11 12  1  1  0  0  0
 11 13  1  0  0  0  0
 14 16  1  0  0  0  0
 14 13  1  0  0  0  0
 15 14  2  0  0  0  0
 17  7  1  0  0  0  0
 18 17  1  0  0  0  0
 19 18  1  0  0  0  0
 20 24  1  0  0  0  0
 20 19  1  0  0  0  0
 21 20  1  0  0  0  0
 22 23  1  0  0  0  0
 23 21  1  0  0  0  0
 25 26  1  0  0  0  0
 26 24  1  0  0  0  0
 27 26  2  0  0  0  0
M  END
>  <MODEL>
8

>  <REMARK>
 VINA RESULT:      -6.5      2.019      6.062
  Name = 
  11 active torsions:
  status: ('A' for Active; 'I' for Inactive)
    1  A    between atoms: C_1  and  C_4
    2  A    between atoms: C_1  and  C_22
    3  A    between atoms: C_6  and  C_15
    4  A    between atoms: C_6  and  N_20
    5  A    between atoms: C_7  and  C_14
    6  A    between atoms: C_7  and  C_27
    7  A    between atoms: C_9  and  C_22
    8  A    between atoms: C_14  and  N_20
    9  A    between atoms: N_17  and  C_27
   10  A    between atoms: C_18  and  C_19
   11  A    between atoms: C_19  and  N_20
                            x       y       z     vdW  Elec       q    Type
                         _______ _______ _______ _____ _____    ______ ____

>  <TORSDO>
F 11

$$$$
=
 OpenBabel11032419513D

 27 28  0  0  1  0  0  0  0  0999 V2000
  188.5290  177.6360  145.3430 C   0  0  0  0  0  2  0  0  0  0  0  0
  185.6810  178.5520  144.4470 C   0  0  0  0  0  0  0  0  0  0  0  0
  188.2740  177.1290  143.9210 C   0  0  1  0  0  3  0  0  0  0  0  0
  184.4250  178.9510  144.5890 C   0  0  0  0  0  3  0  0  0  0  0  0
  186.1170  178.2000  145.7890 C   0  0  0  0  0  0  0  0  0  0  0  0
  184.0740  178.9260  145.9750 N   0  0  0  0  0  0  0  0  0  0  0  0
  187.7110  178.2290  143.1080 N   0  0  0  0  0  0  0  0  0  0  0  0
  186.2600  178.1040  143.1450 C   0  0  0  0  0  2  0  0  0  0  0  0
  185.0410  178.4760  146.6670 N   0  0  0  0  0  0  0  0  0  0  0  0
  187.3040  177.7550  146.1990 C   0  0  0  0  0  3  0  0  0  0  0  0
  189.5680  176.5020  143.3550 C   0  0  2  0  0  3  0  0  0  0  0  0
  189.4030  175.1240  143.2010 O   0  0  0  0  0  1  0  0  0  0  0  0
  190.7910  176.7950  144.2200 C   0  0  0  0  0  2  0  0  0  0  0  0
  191.6380  177.8450  143.5900 C   0  0  0  0  0  0  0  0  0  0  0  0
  192.0630  178.9350  144.3380 O   0  0  0  0  0  1  0  0  0  0  0  0
  191.9960  177.7310  142.3890 O   0  0  0  0  0  0  0  0  0  0  0  0
  188.0490  178.1020  141.6930 C   0  0  0  0  0  2  0  0  0  0  0  0
  186.9070  178.6340  140.8520 C   0  0  0  0  0  2  0  0  0  0  0  0
  187.1270  178.2510  139.4020 C   0  0  0  0  0  2  0  0  0  0  0  0
  185.9620  178.6230  138.6160 N   0  0  0  0  0  0  0  0  0  0  0  0
  185.8720  177.6700  137.5200 C   0  0  0  0  0  2  0  0  0  0  0  0
  187.4450  177.9590  135.7480 O   0  0  0  0  0  1  0  0  0  0  0  0
  187.2590  177.3500  136.9900 C   0  0  0  0  0  2  0  0  0  0  0  0
  184.8030  178.4020  139.4650 C   0  0  0  0  0  2  0  0  0  0  0  0
  184.1790  180.7240  138.8060 O   0  0  0  0  0  0  0  0  0  0  0  0
  183.7820  179.4580  139.2140 C   0  0  0  0  0  0  0  0  0  0  0  0
  182.5640  179.2130  139.4080 O   0  0  0  0  0  1  0  0  0  0  0  0
  1 10  1  0  0  0  0
  2  4  2  0  0  0  0
  2  5  1  0  0  0  0
  3 11  1  6  0  0  0
  3  1  1  0  0  0  0
  4  6  1  0  0  0  0
  5 10  2  0  0  0  0
  5  9  1  0  0  0  0
  6  9  2  0  0  0  0
  7  8  1  0  0  0  0
  7  3  1  0  0  0  0
  8  2  1  0  0  0  0
 11 12  1  1  0  0  0
 11 13  1  0  0  0  0
 14 13  1  0  0  0  0
 14 15  1  0  0  0  0
 16 14  2  0  0  0  0
 17  7  1  0  0  0  0
 18 17  1  0  0  0  0
 19 18  1  0  0  0  0
 20 19  1  0  0  0  0
 20 24  1  0  0  0  0
 21 20  1  0  0  0  0
 22 23  1  0  0  0  0
 23 21  1  0  0  0  0
 25 26  2  0  0  0  0
 26 27  1  0  0  0  0
 26 24  1  0  0  0  0
M  END
>  <MODEL>
9

>  <REMARK>
 VINA RESULT:      -6.5      2.358      3.493
  Name = 
  11 active torsions:
  status: ('A' for Active; 'I' for Inactive)
    1  A    between atoms: C_1  and  C_4
    2  A    between atoms: C_1  and  C_22
    3  A    between atoms: C_6  and  C_15
    4  A    between atoms: C_6  and  N_20
    5  A    between atoms: C_7  and  C_14
    6  A    between atoms: C_7  and  C_27
    7  A    between atoms: C_9  and  C_22
    8  A    between atoms: C_14  and  N_20
    9  A    between atoms: N_17  and  C_27
   10  A    between atoms: C_18  and  C_19
   11  A    between atoms: C_19  and  N_20
                            x       y       z     vdW  Elec       q    Type
                         _______ _______ _______ _____ _____    ______ ____

>  <TORSDO>
F 11

$$$$
