=
 OpenBabel11042412013D

 28 30  0  0  1  0  0  0  0  0999 V2000
  190.2830  177.3190  141.4470 C   0  0  2  0  0  3  0  0  0  0  0  0
  190.7580  177.5360  139.1080 O   0  0  0  0  0  0  0  0  0  0  0  0
  187.1890  178.3570  139.5150 N   0  0  0  0  0  1  0  0  0  0  0  0
  188.8170  177.7080  141.2030 C   0  0  2  0  0  3  0  0  0  0  0  0
  188.6090  178.3590  139.8300 C   0  0  1  0  0  3  0  0  0  0  0  0
  190.8480  176.6530  140.1950 C   0  0  0  0  0  2  0  0  0  0  0  0
  189.4000  177.5920  138.7510 C   0  0  1  0  0  3  0  0  0  0  0  0
  189.2800  178.2350  137.3720 C   0  0  0  0  0  3  0  0  0  0  0  0
  189.1750  179.6120  137.4710 F   0  0  0  0  0  0  0  0  0  0  0  0
  188.1960  177.7250  136.6800 F   0  0  0  0  0  0  0  0  0  0  0  0
  188.3850  178.6050  142.2200 O   0  0  0  0  0  0  0  0  0  0  0  0
  185.6440  178.0870  142.1850 O   0  0  0  0  0  0  0  0  0  0  0  0
  185.4250  177.8030  144.5530 C   0  0  1  0  0  3  0  0  0  0  0  0
  188.3350  177.9530  144.5190 C   0  0  0  0  0  3  0  0  0  0  0  0
  186.2330  178.0190  143.2980 C   0  0  0  0  0  0  0  0  0  0  0  0
  186.2780  177.4120  145.7350 C   0  0  0  0  0  3  0  0  0  0  0  0
  187.6950  178.1920  143.3660 C   0  0  0  0  0  0  0  0  0  0  0  0
  187.6100  177.5050  145.7210 C   0  0  0  0  0  3  0  0  0  0  0  0
  184.6200  179.0210  144.8750 C   0  0  0  0  0  0  0  0  0  0  0  0
  183.8480  179.0200  145.9100 N   0  0  0  0  0  1  0  0  0  0  0  0
  184.5920  180.1280  143.9770 N   0  0  0  0  0  2  0  0  0  0  0  0
  190.4010  176.3370  142.6080 C   0  0  0  0  0  2  0  0  0  0  0  0
  191.6030  176.6260  143.5000 C   0  0  1  0  0  3  0  0  0  0  0  0
  191.6830  178.1170  143.7450 C   0  0  0  0  0  1  0  0  0  0  0  0
  191.4770  175.9130  144.8360 C   0  0  0  0  0  2  0  0  0  0  0  0
  192.1570  175.9400  147.0770 C   0  0  0  0  0  2  0  0  0  0  0  0
  190.8800  176.6340  146.9830 C   0  0  0  0  0  2  0  0  0  0  0  0
  191.8780  176.7970  145.9160 N   0  0  0  0  0  0  0  0  0  0  0  0
  1 22  1  1  0  0  0
  2  6  1  0  0  0  0
  4  1  1  0  0  0  0
  4 11  1  1  0  0  0
  5  3  1  6  0  0  0
  5  4  1  0  0  0  0
  6  1  1  0  0  0  0
  7  8  1  6  0  0  0
  7  2  1  0  0  0  0
  7  5  1  0  0  0  0
  8  9  1  0  0  0  0
 10  8  1  0  0  0  0
 11 17  1  0  0  0  0
 12 15  2  0  0  0  0
 13 19  1  1  0  0  0
 13 16  1  0  0  0  0
 14 18  1  0  0  0  0
 15 17  1  0  0  0  0
 15 13  1  0  0  0  0
 17 14  2  0  0  0  0
 18 16  2  0  0  0  0
 19 20  1  0  0  0  0
 21 19  2  0  0  0  0
 22 23  1  0  0  0  0
 23 24  1  1  0  0  0
 23 25  1  0  0  0  0
 25 28  1  0  0  0  0
 27 26  1  0  0  0  0
 28 27  1  0  0  0  0
 28 26  1  0  0  0  0
M  END
>  <MODEL>
1

>  <REMARK>
 VINA RESULT:      -8.1      0.000      0.000
  Name = 
  8 active torsions:
  status: ('A' for Active; 'I' for Inactive)
    1  A    between atoms: C_1  and  C_26
    2  A    between atoms: C_3  and  C_7
    3  A    between atoms: C_5  and  C_12
    4  A    between atoms: O_11  and  C_15
    5  A    between atoms: O_11  and  C_20
    6  A    between atoms: C_12  and  C_14
    7  A    between atoms: C_14  and  C_25
    8  A    between atoms: N_17  and  C_25
                            x       y       z     vdW  Elec       q    Type
                         _______ _______ _______ _____ _____    ______ ____

>  <TORSDO>
F 8

$$$$
=
 OpenBabel11042412013D

 28 30  0  0  1  0  0  0  0  0999 V2000
  187.8910  177.9930  142.5640 C   0  0  2  0  0  3  0  0  0  0  0  0
  189.5520  177.7710  140.8500 O   0  0  0  0  0  0  0  0  0  0  0  0
  186.3770  178.4880  139.1220 N   0  0  0  0  0  1  0  0  0  0  0  0
  186.8090  178.2580  141.5060 C   0  0  2  0  0  3  0  0  0  0  0  0
  187.4080  178.6180  140.1400 C   0  0  1  0  0  3  0  0  0  0  0  0
  188.9900  177.1230  141.9610 C   0  0  0  0  0  2  0  0  0  0  0  0
  188.5990  177.6930  139.8200 C   0  0  1  0  0  3  0  0  0  0  0  0
  189.2740  178.0470  138.4970 C   0  0  0  0  0  3  0  0  0  0  0  0
  190.5440  177.5010  138.4250 F   0  0  0  0  0  0  0  0  0  0  0  0
  189.3350  179.4180  138.3240 F   0  0  0  0  0  0  0  0  0  0  0  0
  185.9620  179.3160  141.9420 O   0  0  0  0  0  0  0  0  0  0  0  0
  183.7740  177.9730  140.8520 O   0  0  0  0  0  0  0  0  0  0  0  0
  182.2840  178.4300  142.6720 C   0  0  1  0  0  3  0  0  0  0  0  0
  184.6820  179.4770  143.9540 C   0  0  0  0  0  3  0  0  0  0  0  0
  183.6370  178.4660  142.0050 C   0  0  0  0  0  0  0  0  0  0  0  0
  182.3530  178.7420  144.1470 C   0  0  0  0  0  3  0  0  0  0  0  0
  184.7860  179.1060  142.6700 C   0  0  0  0  0  0  0  0  0  0  0  0
  183.4480  179.2430  144.7240 C   0  0  0  0  0  3  0  0  0  0  0  0
  181.3370  179.3640  141.9870 C   0  0  0  0  0  0  0  0  0  0  0  0
  180.5700  180.1240  142.6940 N   0  0  0  0  0  1  0  0  0  0  0  0
  181.1770  179.3230  140.5710 N   0  0  0  0  0  2  0  0  0  0  0  0
  187.3080  177.2640  143.7700 C   0  0  0  0  0  2  0  0  0  0  0  0
  187.8990  177.7480  145.0890 C   0  0  1  0  0  3  0  0  0  0  0  0
  186.8220  177.7100  146.1510 C   0  0  0  0  0  1  0  0  0  0  0  0
  189.0560  176.8660  145.5280 C   0  0  0  0  0  2  0  0  0  0  0  0
  191.3010  176.7530  144.8700 C   0  0  0  0  0  2  0  0  0  0  0  0
  191.2590  176.8650  146.3210 C   0  0  0  0  0  2  0  0  0  0  0  0
  190.2970  177.6190  145.5060 N   0  0  0  0  0  0  0  0  0  0  0  0
  1 22  1  1  0  0  0
  2  6  1  0  0  0  0
  4 11  1  1  0  0  0
  4  1  1  0  0  0  0
  5  3  1  6  0  0  0
  5  4  1  0  0  0  0
  6  1  1  0  0  0  0
  7  8  1  6  0  0  0
  7  5  1  0  0  0  0
  7  2  1  0  0  0  0
  9  8  1  0  0  0  0
 10  8  1  0  0  0  0
 11 17  1  0  0  0  0
 12 15  2  0  0  0  0
 13 19  1  6  0  0  0
 13 16  1  0  0  0  0
 14 18  1  0  0  0  0
 15 17  1  0  0  0  0
 15 13  1  0  0  0  0
 16 18  2  0  0  0  0
 17 14  2  0  0  0  0
 19 20  1  0  0  0  0
 21 19  2  0  0  0  0
 22 23  1  0  0  0  0
 23 25  1  0  0  0  0
 23 24  1  1  0  0  0
 26 28  1  0  0  0  0
 26 27  1  0  0  0  0
 28 25  1  0  0  0  0
 28 27  1  0  0  0  0
M  END
>  <MODEL>
2

>  <REMARK>
 VINA RESULT:      -7.7      2.147      3.194
  Name = 
  8 active torsions:
  status: ('A' for Active; 'I' for Inactive)
    1  A    between atoms: C_1  and  C_26
    2  A    between atoms: C_3  and  C_7
    3  A    between atoms: C_5  and  C_12
    4  A    between atoms: O_11  and  C_15
    5  A    between atoms: O_11  and  C_20
    6  A    between atoms: C_12  and  C_14
    7  A    between atoms: C_14  and  C_25
    8  A    between atoms: N_17  and  C_25
                            x       y       z     vdW  Elec       q    Type
                         _______ _______ _______ _____ _____    ______ ____

>  <TORSDO>
F 8

$$$$
=
 OpenBabel11042412013D

 28 30  0  0  1  0  0  0  0  0999 V2000
  187.4990  177.4610  145.0940 C   0  0  2  0  0  3  0  0  0  0  0  0
  185.2990  178.2360  145.6450 O   0  0  0  0  0  0  0  0  0  0  0  0
  185.8020  179.0140  142.0790 N   0  0  0  0  0  1  0  0  0  0  0  0
  187.3250  177.9440  143.6460 C   0  0  2  0  0  3  0  0  0  0  0  0
  185.8580  178.2240  143.2990 C   0  0  1  0  0  3  0  0  0  0  0  0
  186.6480  178.3230  146.0230 C   0  0  0  0  0  2  0  0  0  0  0  0
  185.1710  178.9760  144.4570 C   0  0  1  0  0  3  0  0  0  0  0  0
  183.6880  179.2260  144.1920 C   0  0  0  0  0  3  0  0  0  0  0  0
  182.9490  179.1170  145.3570 F   0  0  0  0  0  0  0  0  0  0  0  0
  183.2010  178.3530  143.2350 F   0  0  0  0  0  0  0  0  0  0  0  0
  187.8420  176.9650  142.7500 O   0  0  0  0  0  0  0  0  0  0  0  0
  187.8070  177.9810  140.1530 O   0  0  0  0  0  0  0  0  0  0  0  0
  190.1290  177.5910  139.7130 C   0  0  1  0  0  3  0  0  0  0  0  0
  190.2220  176.9080  142.5450 C   0  0  0  0  0  3  0  0  0  0  0  0
  188.9190  177.6050  140.6130 C   0  0  0  0  0  0  0  0  0  0  0  0
  191.4230  177.4470  140.4780 C   0  0  0  0  0  3  0  0  0  0  0  0
  189.0170  177.1460  142.0110 C   0  0  0  0  0  0  0  0  0  0  0  0
  191.4590  177.1110  141.7700 C   0  0  0  0  0  3  0  0  0  0  0  0
  190.0090  176.5080  138.6890 C   0  0  0  0  0  0  0  0  0  0  0  0
  190.8490  175.5270  138.6970 N   0  0  0  0  0  1  0  0  0  0  0  0
  189.0650  176.6180  137.6270 N   0  0  0  0  0  2  0  0  0  0  0  0
  188.9550  177.5720  145.5350 C   0  0  0  0  0  2  0  0  0  0  0  0
  189.1070  177.6120  147.0510 C   0  0  1  0  0  3  0  0  0  0  0  0
  188.2710  176.5050  147.6560 C   0  0  0  0  0  1  0  0  0  0  0  0
  190.5570  177.4170  147.4620 C   0  0  0  0  0  2  0  0  0  0  0  0
  192.3070  175.9060  147.8340 C   0  0  0  0  0  2  0  0  0  0  0  0
  192.0680  175.9780  146.3990 C   0  0  0  0  0  2  0  0  0  0  0  0
  190.9310  176.0200  147.3290 N   0  0  0  0  0  0  0  0  0  0  0  0
  1 22  1  1  0  0  0
  1  6  1  0  0  0  0
  2  6  1  0  0  0  0
  4 11  1  6  0  0  0
  4  1  1  0  0  0  0
  5  3  1  6  0  0  0
  5  4  1  0  0  0  0
  5  7  1  0  0  0  0
  7  8  1  6  0  0  0
  7  2  1  0  0  0  0
  8  9  1  0  0  0  0
 10  8  1  0  0  0  0
 12 15  2  0  0  0  0
 13 19  1  6  0  0  0
 13 16  1  0  0  0  0
 13 15  1  0  0  0  0
 15 17  1  0  0  0  0
 16 18  2  0  0  0  0
 17 14  2  0  0  0  0
 17 11  1  0  0  0  0
 18 14  1  0  0  0  0
 19 20  1  0  0  0  0
 21 19  2  0  0  0  0
 22 23  1  0  0  0  0
 23 25  1  0  0  0  0
 23 24  1  1  0  0  0
 27 28  1  0  0  0  0
 27 26  1  0  0  0  0
 28 25  1  0  0  0  0
 28 26  1  0  0  0  0
M  END
>  <MODEL>
3

>  <REMARK>
 VINA RESULT:      -7.7      3.022      5.956
  Name = 
  8 active torsions:
  status: ('A' for Active; 'I' for Inactive)
    1  A    between atoms: C_1  and  C_26
    2  A    between atoms: C_3  and  C_7
    3  A    between atoms: C_5  and  C_12
    4  A    between atoms: O_11  and  C_15
    5  A    between atoms: O_11  and  C_20
    6  A    between atoms: C_12  and  C_14
    7  A    between atoms: C_14  and  C_25
    8  A    between atoms: N_17  and  C_25
                            x       y       z     vdW  Elec       q    Type
                         _______ _______ _______ _____ _____    ______ ____

>  <TORSDO>
F 8

$$$$
=
 OpenBabel11042412013D

 28 30  0  0  1  0  0  0  0  0999 V2000
  187.3330  177.6190  145.5870 C   0  0  2  0  0  3  0  0  0  0  0  0
  185.1690  178.3580  146.3050 O   0  0  0  0  0  0  0  0  0  0  0  0
  185.2540  178.8150  142.6500 N   0  0  0  0  0  1  0  0  0  0  0  0
  186.9840  177.9560  144.1290 C   0  0  2  0  0  3  0  0  0  0  0  0
  185.4760  178.1470  143.9220 C   0  0  1  0  0  3  0  0  0  0  0  0
  186.5440  178.5310  146.5230 C   0  0  0  0  0  2  0  0  0  0  0  0
  184.8800  178.9760  145.0760 C   0  0  1  0  0  3  0  0  0  0  0  0
  183.3670  179.1440  144.9540 C   0  0  0  0  0  3  0  0  0  0  0  0
  182.7850  178.0210  144.3930 F   0  0  0  0  0  0  0  0  0  0  0  0
  183.0520  180.2660  144.2080 F   0  0  0  0  0  0  0  0  0  0  0  0
  187.4500  176.9180  143.2740 O   0  0  0  0  0  0  0  0  0  0  0  0
  189.7830  175.4680  142.7900 O   0  0  0  0  0  0  0  0  0  0  0  0
  190.5050  176.7920  140.9290 C   0  0  1  0  0  3  0  0  0  0  0  0
  187.8840  178.0360  141.2060 C   0  0  0  0  0  3  0  0  0  0  0  0
  189.5110  176.4100  141.9970 C   0  0  0  0  0  0  0  0  0  0  0  0
  189.9080  177.6860  139.8700 C   0  0  0  0  0  3  0  0  0  0  0  0
  188.2460  177.1520  142.1470 C   0  0  0  0  0  0  0  0  0  0  0  0
  188.7160  178.2710  140.0130 C   0  0  0  0  0  3  0  0  0  0  0  0
  191.7060  177.4420  141.5390 C   0  0  0  0  0  0  0  0  0  0  0  0
  192.8030  177.5180  140.8620 N   0  0  0  0  0  2  0  0  0  0  0  0
  191.6910  177.8540  142.9040 N   0  0  0  0  0  1  0  0  0  0  0  0
  188.8200  177.8260  145.8550 C   0  0  0  0  0  2  0  0  0  0  0  0
  189.1820  177.6470  147.3240 C   0  0  1  0  0  3  0  0  0  0  0  0
  188.4280  176.4550  147.8720 C   0  0  0  0  0  1  0  0  0  0  0  0
  190.6730  177.4100  147.4960 C   0  0  0  0  0  2  0  0  0  0  0  0
  192.3630  175.8190  147.8080 C   0  0  0  0  0  2  0  0  0  0  0  0
  192.0720  175.8970  146.3840 C   0  0  0  0  0  2  0  0  0  0  0  0
  190.9750  175.9970  147.3570 N   0  0  0  0  0  0  0  0  0  0  0  0
  1 22  1  6  0  0  0
  1  6  1  0  0  0  0
  2  6  1  0  0  0  0
  4 11  1  6  0  0  0
  4  1  1  0  0  0  0
  5  3  1  6  0  0  0
  5  4  1  0  0  0  0
  5  7  1  0  0  0  0
  7  8  1  6  0  0  0
  7  2  1  0  0  0  0
  9  8  1  0  0  0  0
 10  8  1  0  0  0  0
 13 19  1  1  0  0  0
 13 15  1  0  0  0  0
 14 17  2  0  0  0  0
 15 17  1  0  0  0  0
 15 12  2  0  0  0  0
 16 18  2  0  0  0  0
 16 13  1  0  0  0  0
 17 11  1  0  0  0  0
 18 14  1  0  0  0  0
 19 21  1  0  0  0  0
 20 19  2  0  0  0  0
 22 23  1  0  0  0  0
 23 25  1  0  0  0  0
 23 24  1  6  0  0  0
 27 28  1  0  0  0  0
 27 26  1  0  0  0  0
 28 25  1  0  0  0  0
 28 26  1  0  0  0  0
M  END
>  <MODEL>
4

>  <REMARK>
 VINA RESULT:      -7.6      3.153      6.132
  Name = 
  8 active torsions:
  status: ('A' for Active; 'I' for Inactive)
    1  A    between atoms: C_1  and  C_26
    2  A    between atoms: C_3  and  C_7
    3  A    between atoms: C_5  and  C_12
    4  A    between atoms: O_11  and  C_15
    5  A    between atoms: O_11  and  C_20
    6  A    between atoms: C_12  and  C_14
    7  A    between atoms: C_14  and  C_25
    8  A    between atoms: N_17  and  C_25
                            x       y       z     vdW  Elec       q    Type
                         _______ _______ _______ _____ _____    ______ ____

>  <TORSDO>
F 8

$$$$
=
 OpenBabel11042412013D

 28 30  0  0  1  0  0  0  0  0999 V2000
  188.0280  177.9280  143.2250 C   0  0  2  0  0  3  0  0  0  0  0  0
  190.2840  177.5000  142.5380 O   0  0  0  0  0  0  0  0  0  0  0  0
  188.2870  177.7100  139.4480 N   0  0  0  0  0  1  0  0  0  0  0  0
  187.5650  177.9360  141.7610 C   0  0  2  0  0  3  0  0  0  0  0  0
  188.7360  178.0800  140.7820 C   0  0  1  0  0  3  0  0  0  0  0  0
  189.2540  177.0290  143.3660 C   0  0  0  0  0  2  0  0  0  0  0  0
  189.9110  177.1830  141.2200 C   0  0  1  0  0  3  0  0  0  0  0  0
  191.1310  177.3340  140.3140 C   0  0  0  0  0  3  0  0  0  0  0  0
  191.2410  176.2630  139.4450 F   0  0  0  0  0  0  0  0  0  0  0  0
  192.2890  177.4630  141.0600 F   0  0  0  0  0  0  0  0  0  0  0  0
  186.6460  179.0030  141.5560 O   0  0  0  0  0  0  0  0  0  0  0  0
  185.6200  178.6070  138.9930 O   0  0  0  0  0  0  0  0  0  0  0  0
  183.3160  178.7090  139.6400 C   0  0  1  0  0  3  0  0  0  0  0  0
  184.4060  178.7250  142.3420 C   0  0  0  0  0  3  0  0  0  0  0  0
  184.7940  178.6900  139.9420 C   0  0  0  0  0  0  0  0  0  0  0  0
  182.4670  178.4730  140.8650 C   0  0  0  0  0  3  0  0  0  0  0  0
  185.2790  178.8070  141.3290 C   0  0  0  0  0  0  0  0  0  0  0  0
  182.9690  178.5040  142.1030 C   0  0  0  0  0  3  0  0  0  0  0  0
  182.9320  179.9980  138.9840 C   0  0  0  0  0  0  0  0  0  0  0  0
  183.8320  180.8980  138.7730 N   0  0  0  0  0  1  0  0  0  0  0  0
  181.5630  180.2940  138.7170 N   0  0  0  0  0  2  0  0  0  0  0  0
  186.9320  177.3930  144.1420 C   0  0  0  0  0  2  0  0  0  0  0  0
  186.8040  178.1960  145.4320 C   0  0  1  0  0  3  0  0  0  0  0  0
  185.3370  178.3800  145.7490 C   0  0  0  0  0  1  0  0  0  0  0  0
  187.4740  177.4790  146.5920 C   0  0  0  0  0  2  0  0  0  0  0  0
  189.5910  176.8790  147.3950 C   0  0  0  0  0  2  0  0  0  0  0  0
  189.0890  177.9730  148.2140 C   0  0  0  0  0  2  0  0  0  0  0  0
  188.8300  177.9690  146.7680 N   0  0  0  0  0  0  0  0  0  0  0  0
  1  6  1  0  0  0  0
  1 22  1  1  0  0  0
  2  6  1  0  0  0  0
  4 11  1  1  0  0  0
  4  1  1  0  0  0  0
  5  3  1  6  0  0  0
  5  7  1  0  0  0  0
  5  4  1  0  0  0  0
  7  8  1  6  0  0  0
  7  2  1  0  0  0  0
  8 10  1  0  0  0  0
  9  8  1  0  0  0  0
 12 15  2  0  0  0  0
 13 19  1  1  0  0  0
 13 15  1  0  0  0  0
 13 16  1  0  0  0  0
 15 17  1  0  0  0  0
 16 18  2  0  0  0  0
 17 11  1  0  0  0  0
 17 14  2  0  0  0  0
 18 14  1  0  0  0  0
 20 19  1  0  0  0  0
 21 19  2  0  0  0  0
 22 23  1  0  0  0  0
 23 24  1  1  0  0  0
 23 25  1  0  0  0  0
 25 28  1  0  0  0  0
 26 27  1  0  0  0  0
 28 26  1  0  0  0  0
 28 27  1  0  0  0  0
M  END
>  <MODEL>
5

>  <REMARK>
 VINA RESULT:      -7.6      3.053      4.400
  Name = 
  8 active torsions:
  status: ('A' for Active; 'I' for Inactive)
    1  A    between atoms: C_1  and  C_26
    2  A    between atoms: C_3  and  C_7
    3  A    between atoms: C_5  and  C_12
    4  A    between atoms: O_11  and  C_15
    5  A    between atoms: O_11  and  C_20
    6  A    between atoms: C_12  and  C_14
    7  A    between atoms: C_14  and  C_25
    8  A    between atoms: N_17  and  C_25
                            x       y       z     vdW  Elec       q    Type
                         _______ _______ _______ _____ _____    ______ ____

>  <TORSDO>
F 8

$$$$
=
 OpenBabel11042412013D

 28 30  0  0  1  0  0  0  0  0999 V2000
  186.9450  178.0810  144.3060 C   0  0  2  0  0  3  0  0  0  0  0  0
  187.0080  177.9930  146.7000 O   0  0  0  0  0  0  0  0  0  0  0  0
  190.3060  176.8310  145.5380 N   0  0  0  0  0  1  0  0  0  0  0  0
  188.3860  177.5550  144.2310 C   0  0  2  0  0  3  0  0  0  0  0  0
  189.1160  177.6670  145.5750 C   0  0  1  0  0  3  0  0  0  0  0  0
  186.2800  177.5650  145.5790 C   0  0  0  0  0  2  0  0  0  0  0  0
  188.1870  177.2290  146.7240 C   0  0  1  0  0  3  0  0  0  0  0  0
  188.8430  177.3800  148.0950 C   0  0  0  0  0  3  0  0  0  0  0  0
  187.9250  177.1760  149.1110 F   0  0  0  0  0  0  0  0  0  0  0  0
  189.4320  178.6250  148.2280 F   0  0  0  0  0  0  0  0  0  0  0  0
  189.1080  178.2790  143.2400 O   0  0  0  0  0  0  0  0  0  0  0  0
  190.4640  176.0330  142.2920 O   0  0  0  0  0  0  0  0  0  0  0  0
  190.1300  176.5170  139.9690 C   0  0  1  0  0  3  0  0  0  0  0  0
  188.3930  178.6240  140.9860 C   0  0  0  0  0  3  0  0  0  0  0  0
  189.9170  176.7830  141.4390 C   0  0  0  0  0  0  0  0  0  0  0  0
  189.1600  177.2700  139.0930 C   0  0  0  0  0  3  0  0  0  0  0  0
  189.1080  177.9330  141.8840 C   0  0  0  0  0  0  0  0  0  0  0  0
  188.3830  178.2510  139.5610 C   0  0  0  0  0  3  0  0  0  0  0  0
  191.5380  176.8360  139.5780 C   0  0  0  0  0  0  0  0  0  0  0  0
  192.0040  176.3930  138.4590 N   0  0  0  0  0  2  0  0  0  0  0  0
  192.4080  177.5040  140.4880 N   0  0  0  0  0  1  0  0  0  0  0  0
  186.1260  177.6060  143.1100 C   0  0  0  0  0  2  0  0  0  0  0  0
  184.7690  178.2920  143.0180 C   0  0  1  0  0  3  0  0  0  0  0  0
  184.9350  179.7530  143.3720 C   0  0  0  0  0  1  0  0  0  0  0  0
  184.1960  178.1870  141.6140 C   0  0  0  0  0  2  0  0  0  0  0  0
  183.7750  179.4680  139.6990 C   0  0  0  0  0  2  0  0  0  0  0  0
  184.9300  178.6230  139.4340 C   0  0  0  0  0  2  0  0  0  0  0  0
  184.7580  179.2220  140.7650 N   0  0  0  0  0  0  0  0  0  0  0  0
  1 22  1  6  0  0  0
  1  6  1  0  0  0  0
  2  7  1  0  0  0  0
  4 11  1  6  0  0  0
  4  1  1  0  0  0  0
  4  5  1  0  0  0  0
  5  3  1  6  0  0  0
  5  7  1  0  0  0  0
  6  2  1  0  0  0  0
  7  8  1  1  0  0  0
  8 10  1  0  0  0  0
  8  9  1  0  0  0  0
 13 19  1  6  0  0  0
 13 15  1  0  0  0  0
 14 17  2  0  0  0  0
 15 17  1  0  0  0  0
 15 12  2  0  0  0  0
 16 18  2  0  0  0  0
 16 13  1  0  0  0  0
 17 11  1  0  0  0  0
 18 14  1  0  0  0  0
 19 21  1  0  0  0  0
 20 19  2  0  0  0  0
 23 22  1  0  0  0  0
 23 24  1  6  0  0  0
 25 23  1  0  0  0  0
 26 28  1  0  0  0  0
 27 26  1  0  0  0  0
 27 28  1  0  0  0  0
 28 25  1  0  0  0  0
M  END
>  <MODEL>
6

>  <REMARK>
 VINA RESULT:      -7.6      3.894      7.765
  Name = 
  8 active torsions:
  status: ('A' for Active; 'I' for Inactive)
    1  A    between atoms: C_1  and  C_26
    2  A    between atoms: C_3  and  C_7
    3  A    between atoms: C_5  and  C_12
    4  A    between atoms: O_11  and  C_15
    5  A    between atoms: O_11  and  C_20
    6  A    between atoms: C_12  and  C_14
    7  A    between atoms: C_14  and  C_25
    8  A    between atoms: N_17  and  C_25
                            x       y       z     vdW  Elec       q    Type
                         _______ _______ _______ _____ _____    ______ ____

>  <TORSDO>
F 8

$$$$
=
 OpenBabel11042412013D

 28 30  0  0  1  0  0  0  0  0999 V2000
  187.3590  178.1760  144.0030 C   0  0  2  0  0  3  0  0  0  0  0  0
  187.8190  177.9230  146.3420 O   0  0  0  0  0  0  0  0  0  0  0  0
  190.8290  176.7540  144.5670 N   0  0  0  0  0  1  0  0  0  0  0  0
  188.7460  177.6170  143.6520 C   0  0  2  0  0  3  0  0  0  0  0  0
  189.6950  177.6170  144.8570 C   0  0  1  0  0  3  0  0  0  0  0  0
  186.8980  177.5920  145.3360 C   0  0  0  0  0  2  0  0  0  0  0  0
  188.9550  177.1270  146.1180 C   0  0  1  0  0  3  0  0  0  0  0  0
  189.8360  177.1660  147.3640 C   0  0  0  0  0  3  0  0  0  0  0  0
  190.4120  175.9310  147.6060 F   0  0  0  0  0  0  0  0  0  0  0  0
  189.1130  177.5790  148.4690 F   0  0  0  0  0  0  0  0  0  0  0  0
  189.3200  178.3870  142.6010 O   0  0  0  0  0  0  0  0  0  0  0  0
  190.6380  176.0610  141.8050 O   0  0  0  0  0  0  0  0  0  0  0  0
  190.3660  176.4260  139.4530 C   0  0  1  0  0  3  0  0  0  0  0  0
  188.6620  178.6270  140.3160 C   0  0  0  0  0  3  0  0  0  0  0  0
  190.1280  176.7770  140.9010 C   0  0  0  0  0  0  0  0  0  0  0  0
  189.4340  177.1540  138.5160 C   0  0  0  0  0  3  0  0  0  0  0  0
  189.3400  177.9680  141.2650 C   0  0  0  0  0  0  0  0  0  0  0  0
  188.6730  178.1780  138.9120 C   0  0  0  0  0  3  0  0  0  0  0  0
  191.7890  176.6890  139.0770 C   0  0  0  0  0  0  0  0  0  0  0  0
  192.3050  176.0740  138.0660 N   0  0  0  0  0  2  0  0  0  0  0  0
  192.6180  177.5030  139.9040 N   0  0  0  0  0  1  0  0  0  0  0  0
  186.3350  177.8050  142.9350 C   0  0  0  0  0  2  0  0  0  0  0  0
  185.6970  179.0280  142.2850 C   0  0  1  0  0  3  0  0  0  0  0  0
  185.1280  178.6260  140.9420 C   0  0  0  0  0  1  0  0  0  0  0  0
  184.5790  179.5870  143.1490 C   0  0  0  0  0  2  0  0  0  0  0  0
  182.4730  179.0050  143.9920 C   0  0  0  0  0  2  0  0  0  0  0  0
  183.4240  178.9880  145.0950 C   0  0  0  0  0  2  0  0  0  0  0  0
  183.8380  178.5040  143.7710 N   0  0  0  0  0  0  0  0  0  0  0  0
  1 22  1  6  0  0  0
  1  6  1  0  0  0  0
  4 11  1  6  0  0  0
  4  1  1  0  0  0  0
  4  5  1  0  0  0  0
  5  3  1  6  0  0  0
  5  7  1  0  0  0  0
  6  2  1  0  0  0  0
  7  2  1  0  0  0  0
  7  8  1  1  0  0  0
  8  9  1  0  0  0  0
  8 10  1  0  0  0  0
 13 19  1  6  0  0  0
 13 15  1  0  0  0  0
 14 17  2  0  0  0  0
 15 17  1  0  0  0  0
 15 12  2  0  0  0  0
 16 18  2  0  0  0  0
 16 13  1  0  0  0  0
 17 11  1  0  0  0  0
 18 14  1  0  0  0  0
 19 21  1  0  0  0  0
 20 19  2  0  0  0  0
 23 24  1  6  0  0  0
 23 22  1  0  0  0  0
 23 25  1  0  0  0  0
 25 28  1  0  0  0  0
 26 27  1  0  0  0  0
 28 26  1  0  0  0  0
 28 27  1  0  0  0  0
M  END
>  <MODEL>
7

>  <REMARK>
 VINA RESULT:      -7.4      3.656      7.545
  Name = 
  8 active torsions:
  status: ('A' for Active; 'I' for Inactive)
    1  A    between atoms: C_1  and  C_26
    2  A    between atoms: C_3  and  C_7
    3  A    between atoms: C_5  and  C_12
    4  A    between atoms: O_11  and  C_15
    5  A    between atoms: O_11  and  C_20
    6  A    between atoms: C_12  and  C_14
    7  A    between atoms: C_14  and  C_25
    8  A    between atoms: N_17  and  C_25
                            x       y       z     vdW  Elec       q    Type
                         _______ _______ _______ _____ _____    ______ ____

>  <TORSDO>
F 8

$$$$
=
 OpenBabel11042412013D

 28 30  0  0  1  0  0  0  0  0999 V2000
  188.3410  177.3300  144.4750 C   0  0  2  0  0  3  0  0  0  0  0  0
  186.5920  177.8030  146.0440 O   0  0  0  0  0  0  0  0  0  0  0  0
  185.3970  179.0070  142.7730 N   0  0  0  0  0  1  0  0  0  0  0  0
  187.5110  177.9430  143.3380 C   0  0  2  0  0  3  0  0  0  0  0  0
  186.0330  178.1010  143.7170 C   0  0  1  0  0  3  0  0  0  0  0  0
  187.9600  177.9910  145.7970 C   0  0  0  0  0  2  0  0  0  0  0  0
  185.9070  178.6470  145.1530 C   0  0  1  0  0  3  0  0  0  0  0  0
  184.4540  178.7660  145.6070 C   0  0  0  0  0  3  0  0  0  0  0  0
  184.2890  178.2590  146.8850 F   0  0  0  0  0  0  0  0  0  0  0  0
  183.6050  178.1200  144.7260 F   0  0  0  0  0  0  0  0  0  0  0  0
  187.6140  177.1270  142.1770 O   0  0  0  0  0  0  0  0  0  0  0  0
  186.7220  178.7120  140.0620 O   0  0  0  0  0  0  0  0  0  0  0  0
  188.6480  178.3710  138.6790 C   0  0  1  0  0  3  0  0  0  0  0  0
  189.7190  177.0530  141.0480 C   0  0  0  0  0  3  0  0  0  0  0  0
  187.8750  178.2100  139.9650 C   0  0  0  0  0  0  0  0  0  0  0  0
  190.1080  178.0200  138.8300 C   0  0  0  0  0  3  0  0  0  0  0  0
  188.4370  177.4400  141.0890 C   0  0  0  0  0  0  0  0  0  0  0  0
  190.5890  177.3960  139.9080 C   0  0  0  0  0  3  0  0  0  0  0  0
  188.0280  177.5550  137.5890 C   0  0  0  0  0  0  0  0  0  0  0  0
  187.2920  178.1330  136.7010 N   0  0  0  0  0  2  0  0  0  0  0  0
  188.1310  176.1330  137.6020 N   0  0  0  0  0  1  0  0  0  0  0  0
  189.8330  177.5460  144.2420 C   0  0  0  0  0  2  0  0  0  0  0  0
  190.6890  176.4480  144.8610 C   0  0  1  0  0  3  0  0  0  0  0  0
  191.6150  175.8930  143.8020 C   0  0  0  0  0  1  0  0  0  0  0  0
  191.5220  176.9880  146.0120 C   0  0  0  0  0  2  0  0  0  0  0  0
  192.2850  176.5150  148.1760 C   0  0  0  0  0  2  0  0  0  0  0  0
  192.1540  175.2560  147.4560 C   0  0  0  0  0  2  0  0  0  0  0  0
  191.1600  176.3190  147.2490 N   0  0  0  0  0  0  0  0  0  0  0  0
  1 22  1  6  0  0  0
  1  6  1  0  0  0  0
  4 11  1  6  0  0  0
  4  5  1  0  0  0  0
  4  1  1  0  0  0  0
  5  3  1  6  0  0  0
  5  7  1  0  0  0  0
  6  2  1  0  0  0  0
  7  8  1  1  0  0  0
  7  2  1  0  0  0  0
  8  9  1  0  0  0  0
 10  8  1  0  0  0  0
 13 19  1  6  0  0  0
 13 16  1  0  0  0  0
 13 15  1  0  0  0  0
 14 17  2  0  0  0  0
 15 12  2  0  0  0  0
 15 17  1  0  0  0  0
 16 18  2  0  0  0  0
 17 11  1  0  0  0  0
 18 14  1  0  0  0  0
 19 21  1  0  0  0  0
 20 19  2  0  0  0  0
 22 23  1  0  0  0  0
 23 24  1  6  0  0  0
 23 25  1  0  0  0  0
 25 28  1  0  0  0  0
 27 26  1  0  0  0  0
 28 27  1  0  0  0  0
 28 26  1  0  0  0  0
M  END
>  <MODEL>
8

>  <REMARK>
 VINA RESULT:      -7.4      3.076      5.851
  Name = 
  8 active torsions:
  status: ('A' for Active; 'I' for Inactive)
    1  A    between atoms: C_1  and  C_26
    2  A    between atoms: C_3  and  C_7
    3  A    between atoms: C_5  and  C_12
    4  A    between atoms: O_11  and  C_15
    5  A    between atoms: O_11  and  C_20
    6  A    between atoms: C_12  and  C_14
    7  A    between atoms: C_14  and  C_25
    8  A    between atoms: N_17  and  C_25
                            x       y       z     vdW  Elec       q    Type
                         _______ _______ _______ _____ _____    ______ ____

>  <TORSDO>
F 8

$$$$
=
 OpenBabel11042412013D

 28 30  0  0  1  0  0  0  0  0999 V2000
  186.0440  178.3140  142.5520 C   0  0  2  0  0  3  0  0  0  0  0  0
  186.1850  178.4120  140.1610 O   0  0  0  0  0  0  0  0  0  0  0  0
  189.5960  177.7130  141.3670 N   0  0  0  0  0  1  0  0  0  0  0  0
  187.5520  178.0350  142.6470 C   0  0  2  0  0  3  0  0  0  0  0  0
  188.1470  177.5980  141.3020 C   0  0  1  0  0  3  0  0  0  0  0  0
  185.7560  179.1250  141.2910 C   0  0  0  0  0  2  0  0  0  0  0  0
  187.5890  178.4720  140.1620 C   0  0  1  0  0  3  0  0  0  0  0  0
  188.1010  178.0400  138.7910 C   0  0  0  0  0  3  0  0  0  0  0  0
  188.9130  179.0130  138.2330 F   0  0  0  0  0  0  0  0  0  0  0  0
  187.0500  177.7520  137.9380 F   0  0  0  0  0  0  0  0  0  0  0  0
  187.7900  177.0230  143.6190 O   0  0  0  0  0  0  0  0  0  0  0  0
  190.3220  178.0980  144.0780 O   0  0  0  0  0  0  0  0  0  0  0  0
  190.2520  177.8630  146.4610 C   0  0  1  0  0  3  0  0  0  0  0  0
  187.4760  177.1170  145.9860 C   0  0  0  0  0  3  0  0  0  0  0  0
  189.6360  177.7800  145.0870 C   0  0  0  0  0  0  0  0  0  0  0  0
  189.2270  177.7810  147.5660 C   0  0  0  0  0  3  0  0  0  0  0  0
  188.2560  177.2930  144.9110 C   0  0  0  0  0  0  0  0  0  0  0  0
  187.9620  177.4160  147.3440 C   0  0  0  0  0  3  0  0  0  0  0  0
  191.2900  176.8000  146.6350 C   0  0  0  0  0  0  0  0  0  0  0  0
  191.9070  176.6920  147.7640 N   0  0  0  0  0  1  0  0  0  0  0  0
  191.6980  175.9990  145.5290 N   0  0  0  0  0  2  0  0  0  0  0  0
  185.5600  179.1130  143.7580 C   0  0  0  0  0  2  0  0  0  0  0  0
  184.2670  178.5600  144.3450 C   0  0  1  0  0  3  0  0  0  0  0  0
  184.3470  178.6270  145.8540 C   0  0  0  0  0  1  0  0  0  0  0  0
  183.0660  179.3660  143.8790 C   0  0  0  0  0  2  0  0  0  0  0  0
  181.0460  179.3730  142.6930 C   0  0  0  0  0  2  0  0  0  0  0  0
  180.8430  178.6320  143.9300 C   0  0  0  0  0  2  0  0  0  0  0  0
  182.1140  178.5010  143.2040 N   0  0  0  0  0  0  0  0  0  0  0  0
  1  4  1  0  0  0  0
  1 22  1  1  0  0  0
  2  7  1  0  0  0  0
  2  6  1  0  0  0  0
  4 11  1  1  0  0  0
  5  3  1  1  0  0  0
  5  4  1  0  0  0  0
  6  1  1  0  0  0  0
  7  8  1  6  0  0  0
  7  5  1  0  0  0  0
  9  8  1  0  0  0  0
 10  8  1  0  0  0  0
 11 17  1  0  0  0  0
 12 15  2  0  0  0  0
 13 19  1  1  0  0  0
 13 16  1  0  0  0  0
 14 18  1  0  0  0  0
 15 13  1  0  0  0  0
 17 15  1  0  0  0  0
 17 14  2  0  0  0  0
 18 16  2  0  0  0  0
 19 20  1  0  0  0  0
 21 19  2  0  0  0  0
 22 23  1  0  0  0  0
 23 24  1  1  0  0  0
 25 23  1  0  0  0  0
 26 28  1  0  0  0  0
 26 27  1  0  0  0  0
 28 25  1  0  0  0  0
 28 27  1  0  0  0  0
M  END
>  <MODEL>
9

>  <REMARK>
 VINA RESULT:      -7.4      2.087      5.986
  Name = 
  8 active torsions:
  status: ('A' for Active; 'I' for Inactive)
    1  A    between atoms: C_1  and  C_26
    2  A    between atoms: C_3  and  C_7
    3  A    between atoms: C_5  and  C_12
    4  A    between atoms: O_11  and  C_15
    5  A    between atoms: O_11  and  C_20
    6  A    between atoms: C_12  and  C_14
    7  A    between atoms: C_14  and  C_25
    8  A    between atoms: N_17  and  C_25
                            x       y       z     vdW  Elec       q    Type
                         _______ _______ _______ _____ _____    ______ ____

>  <TORSDO>
F 8

$$$$
