=
 OpenBabel11042411103D

 33 35  0  0  1  0  0  0  0  0999 V2000
  186.5580  178.2410  146.8540 C   0  0  0  0  0  3  0  0  0  0  0  0
  190.4290  176.3700  144.3350 C   0  0  1  0  0  3  0  0  0  0  0  0
  187.1550  178.2110  143.8220 C   0  0  0  0  0  2  0  0  0  0  0  0
  191.7570  177.2950  146.1930 N   0  0  0  0  0  2  0  0  0  0  0  0
  185.7830  178.1180  144.4450 C   0  0  0  0  0  0  0  0  0  0  0  0
  191.5470  176.1200  145.3560 C   0  0  0  0  0  2  0  0  0  0  0  0
  191.0910  177.0920  147.4820 C   0  0  0  0  0  2  0  0  0  0  0  0
  187.7520  177.7610  146.6620 C   0  0  0  0  0  0  0  0  0  0  0  0
  189.2270  177.2310  144.8180 C   0  0  1  0  0  3  0  0  0  0  0  0
  189.6810  176.5040  147.3420 C   0  0  0  0  0  2  0  0  0  0  0  0
  187.9800  176.9330  143.9740 C   0  0  0  0  0  2  0  0  0  0  0  0
  185.5550  178.2240  145.7670 C   0  0  0  0  0  3  0  0  0  0  0  0
  188.8840  177.2250  146.3030 C   0  0  0  0  0  0  0  0  0  0  0  0
  191.0490  178.3160  142.9910 O   0  0  0  0  0  1  0  0  0  0  0  0
  191.0730  176.9140  143.0530 C   0  0  2  0  0  3  0  0  0  0  0  0
  190.5560  176.2700  141.8380 N   0  0  0  0  0  2  0  0  0  0  0  0
  190.8360  177.0580  140.6400 C   0  0  0  0  0  2  0  0  0  0  0  0
  187.5290  178.4780  139.7540 N   0  0  0  0  0  0  0  0  0  0  0  0
  187.2360  177.8970  138.5580 C   0  0  0  0  0  0  0  0  0  0  0  0
  188.1450  176.9920  138.0020 C   0  0  0  0  0  3  0  0  0  0  0  0
  189.5690  177.3220  139.9080 C   0  0  0  0  0  0  0  0  0  0  0  0
  189.3240  176.7050  138.6850 C   0  0  0  0  0  3  0  0  0  0  0  0
  188.6600  178.2020  140.4070 N   0  0  0  0  0  0  0  0  0  0  0  0
  185.2620  179.1770  138.2670 O   0  0  0  0  0  0  0  0  0  0  0  0
  185.5680  177.4720  136.7230 N   0  0  0  0  0  1  0  0  0  0  0  0
  185.9810  178.2240  137.8610 C   0  0  0  0  0  0  0  0  0  0  0  0
  184.5780  178.1290  143.5460 C   0  0  1  0  0  3  0  0  0  0  0  0
  183.5470  179.0990  144.0350 C   0  0  0  0  0  0  0  0  0  0  0  0
  183.7990  180.3320  144.0950 O   0  0  0  0  0  0  0  0  0  0  0  0
  182.3140  178.6260  144.4590 O   0  0  0  0  0  1  0  0  0  0  0  0
  184.9410  178.4030  142.0890 C   0  0  0  0  0  2  0  0  0  0  0  0
  182.8700  178.0020  140.5280 N   0  0  0  0  0  0  0  0  0  0  0  0
  183.7840  178.1780  141.2150 C   0  0  0  0  0  0  0  0  0  0  0  0
  2 15  1  6  0  0  0
  2  9  1  0  0  0  0
  2  6  1  0  0  0  0
  3 11  1  0  0  0  0
  3  5  1  0  0  0  0
  4  7  1  0  0  0  0
  5 12  2  0  0  0  0
  6  4  1  0  0  0  0
  8  1  2  0  0  0  0
  9 11  1  6  0  0  0
  9 13  1  0  0  0  0
 10  7  1  0  0  0  0
 12  1  1  0  0  0  0
 13  8  2  0  0  0  0
 13 10  1  0  0  0  0
 15 14  1  6  0  0  0
 16 15  1  0  0  0  0
 17 16  1  0  0  0  0
 18 23  1  0  0  0  0
 19 18  2  0  0  0  0
 20 19  1  0  0  0  0
 20 22  2  0  0  0  0
 21 23  2  0  0  0  0
 21 17  1  0  0  0  0
 22 21  1  0  0  0  0
 25 26  1  0  0  0  0
 26 24  2  0  0  0  0
 26 19  1  0  0  0  0
 27 31  1  6  0  0  0
 27 28  1  0  0  0  0
 27  5  1  0  0  0  0
 28 29  2  0  0  0  0
 28 30  1  0  0  0  0
 32 33  3  0  0  0  0
 33 31  1  0  0  0  0
M  END
>  <MODEL>
1

>  <REMARK>
 VINA RESULT:      -9.0      0.000      0.000
  Name = 
  9 active torsions:
  status: ('A' for Active; 'I' for Inactive)
    1  A    between atoms: C_3  and  C_18
    2  A    between atoms: C_5  and  C_6
    3  A    between atoms: C_5  and  C_13
    4  A    between atoms: C_5  and  C_15
    5  A    between atoms: C_11  and  C_25
    6  A    between atoms: C_13  and  C_20
    7  A    between atoms: C_14  and  N_16
    8  A    between atoms: C_14  and  C_28
    9  A    between atoms: N_16  and  C_18
                            x       y       z     vdW  Elec       q    Type
                         _______ _______ _______ _____ _____    ______ ____

>  <TORSDO>
F 9

$$$$
=
 OpenBabel11042411103D

 33 35  0  0  1  0  0  0  0  0999 V2000
  186.5470  178.1360  146.8210 C   0  0  0  0  0  3  0  0  0  0  0  0
  190.5400  176.4560  144.3580 C   0  0  1  0  0  3  0  0  0  0  0  0
  187.2540  178.2660  143.8150 C   0  0  0  0  0  2  0  0  0  0  0  0
  191.7830  177.3100  146.3070 N   0  0  0  0  0  2  0  0  0  0  0  0
  185.8610  178.1200  144.3820 C   0  0  0  0  0  0  0  0  0  0  0  0
  191.6240  176.1750  145.4060 C   0  0  0  0  0  2  0  0  0  0  0  0
  191.0750  177.0320  147.5590 C   0  0  0  0  0  2  0  0  0  0  0  0
  187.7550  177.6860  146.6500 C   0  0  0  0  0  0  0  0  0  0  0  0
  189.3050  177.2720  144.8380 C   0  0  1  0  0  3  0  0  0  0  0  0
  189.6810  176.4290  147.3390 C   0  0  0  0  0  2  0  0  0  0  0  0
  188.0960  176.9970  143.9350 C   0  0  0  0  0  2  0  0  0  0  0  0
  185.5850  178.1570  145.6990 C   0  0  0  0  0  3  0  0  0  0  0  0
  188.9090  177.1880  146.3080 C   0  0  0  0  0  0  0  0  0  0  0  0
  191.1850  178.4770  143.1430 O   0  0  0  0  0  1  0  0  0  0  0  0
  191.2200  177.0740  143.1290 C   0  0  2  0  0  3  0  0  0  0  0  0
  190.7460  176.4940  141.8650 N   0  0  0  0  0  2  0  0  0  0  0  0
  191.1950  177.2650  140.7070 C   0  0  0  0  0  2  0  0  0  0  0  0
  189.1320  177.5120  137.6370 N   0  0  0  0  0  0  0  0  0  0  0  0
  187.9180  177.9260  138.0950 C   0  0  0  0  0  0  0  0  0  0  0  0
  187.7470  178.1460  139.4650 C   0  0  0  0  0  3  0  0  0  0  0  0
  190.0420  177.5250  139.8040 C   0  0  0  0  0  0  0  0  0  0  0  0
  188.8210  177.9400  140.3270 C   0  0  0  0  0  3  0  0  0  0  0  0
  190.1610  177.3150  138.4660 N   0  0  0  0  0  0  0  0  0  0  0  0
  187.0310  178.5050  135.9740 O   0  0  0  0  0  0  0  0  0  0  0  0
  185.4570  177.9110  137.5720 N   0  0  0  0  0  1  0  0  0  0  0  0
  186.8020  178.1320  137.1570 C   0  0  0  0  0  0  0  0  0  0  0  0
  184.6900  178.1560  143.4410 C   0  0  1  0  0  3  0  0  0  0  0  0
  183.5980  179.0350  143.9690 C   0  0  0  0  0  0  0  0  0  0  0  0
  182.5100  178.5410  144.3710 O   0  0  0  0  0  1  0  0  0  0  0  0
  183.7760  180.4100  143.9830 O   0  0  0  0  0  0  0  0  0  0  0  0
  185.0910  178.5690  142.0270 C   0  0  0  0  0  2  0  0  0  0  0  0
  183.1520  178.0700  140.3300 N   0  0  0  0  0  0  0  0  0  0  0  0
  184.0070  178.2890  141.0780 C   0  0  0  0  0  0  0  0  0  0  0  0
  2 15  1  6  0  0  0
  2  9  1  0  0  0  0
  2  6  1  0  0  0  0
  3 11  1  0  0  0  0
  3  5  1  0  0  0  0
  4  7  1  0  0  0  0
  5 12  2  0  0  0  0
  6  4  1  0  0  0  0
  8  1  2  0  0  0  0
  9 11  1  6  0  0  0
  9 13  1  0  0  0  0
 10  7  1  0  0  0  0
 12  1  1  0  0  0  0
 13  8  2  0  0  0  0
 13 10  1  0  0  0  0
 15 14  1  6  0  0  0
 16 15  1  0  0  0  0
 17 16  1  0  0  0  0
 18 19  2  0  0  0  0
 18 23  1  0  0  0  0
 19 20  1  0  0  0  0
 20 22  2  0  0  0  0
 21 22  1  0  0  0  0
 21 17  1  0  0  0  0
 23 21  2  0  0  0  0
 24 26  2  0  0  0  0
 26 25  1  0  0  0  0
 26 19  1  0  0  0  0
 27 31  1  6  0  0  0
 27 28  1  0  0  0  0
 27  5  1  0  0  0  0
 28 30  2  0  0  0  0
 28 29  1  0  0  0  0
 32 33  3  0  0  0  0
 33 31  1  0  0  0  0
M  END
>  <MODEL>
2

>  <REMARK>
 VINA RESULT:      -8.8      0.969      1.182
  Name = 
  9 active torsions:
  status: ('A' for Active; 'I' for Inactive)
    1  A    between atoms: C_3  and  C_18
    2  A    between atoms: C_5  and  C_6
    3  A    between atoms: C_5  and  C_13
    4  A    between atoms: C_5  and  C_15
    5  A    between atoms: C_11  and  C_25
    6  A    between atoms: C_13  and  C_20
    7  A    between atoms: C_14  and  N_16
    8  A    between atoms: C_14  and  C_28
    9  A    between atoms: N_16  and  C_18
                            x       y       z     vdW  Elec       q    Type
                         _______ _______ _______ _____ _____    ______ ____

>  <TORSDO>
F 9

$$$$
=
 OpenBabel11042411103D

 33 35  0  0  1  0  0  0  0  0999 V2000
  186.6960  178.2200  146.8380 C   0  0  0  0  0  3  0  0  0  0  0  0
  190.4690  176.2500  144.2470 C   0  0  1  0  0  3  0  0  0  0  0  0
  187.2140  178.1390  143.7920 C   0  0  0  0  0  2  0  0  0  0  0  0
  191.8600  177.1780  146.0580 N   0  0  0  0  0  2  0  0  0  0  0  0
  185.8560  178.0770  144.4520 C   0  0  0  0  0  0  0  0  0  0  0  0
  191.6080  175.9960  145.2430 C   0  0  0  0  0  2  0  0  0  0  0  0
  191.2240  177.0030  147.3660 C   0  0  0  0  0  2  0  0  0  0  0  0
  187.8760  177.7170  146.6220 C   0  0  0  0  0  0  0  0  0  0  0  0
  189.2940  177.1370  144.7490 C   0  0  1  0  0  3  0  0  0  0  0  0
  189.8010  176.4380  147.2700 C   0  0  0  0  0  2  0  0  0  0  0  0
  188.0210  176.8500  143.9410 C   0  0  0  0  0  2  0  0  0  0  0  0
  185.6650  178.2050  145.7780 C   0  0  0  0  0  3  0  0  0  0  0  0
  188.9890  177.1580  146.2430 C   0  0  0  0  0  0  0  0  0  0  0  0
  191.2260  178.1630  142.9260 O   0  0  0  0  0  1  0  0  0  0  0  0
  191.0890  176.7660  142.9420 C   0  0  2  0  0  3  0  0  0  0  0  0
  190.4210  176.2350  141.7460 N   0  0  0  0  0  2  0  0  0  0  0  0
  190.3110  177.2390  140.6890 C   0  0  0  0  0  2  0  0  0  0  0  0
  193.4440  176.8950  138.7380 N   0  0  0  0  0  0  0  0  0  0  0  0
  193.0490  176.2570  137.6010 C   0  0  0  0  0  0  0  0  0  0  0  0
  191.7010  175.9220  137.4430 C   0  0  0  0  0  3  0  0  0  0  0  0
  191.2530  176.9090  139.5870 C   0  0  0  0  0  0  0  0  0  0  0  0
  190.7960  176.2490  138.4490 C   0  0  0  0  0  3  0  0  0  0  0  0
  192.5740  177.2090  139.7010 N   0  0  0  0  0  0  0  0  0  0  0  0
  194.7060  176.8370  136.0080 O   0  0  0  0  0  0  0  0  0  0  0  0
  194.2360  174.5700  136.1620 N   0  0  0  0  0  1  0  0  0  0  0  0
  194.0330  175.9230  136.5570 C   0  0  0  0  0  0  0  0  0  0  0  0
  184.6300  178.0960  143.5840 C   0  0  1  0  0  3  0  0  0  0  0  0
  183.6160  179.0700  144.1020 C   0  0  0  0  0  0  0  0  0  0  0  0
  182.4910  178.6740  144.5090 O   0  0  0  0  0  1  0  0  0  0  0  0
  183.9090  180.4260  144.0980 O   0  0  0  0  0  0  0  0  0  0  0  0
  184.9570  178.3720  142.1190 C   0  0  0  0  0  2  0  0  0  0  0  0
  182.8270  178.0580  140.6170 N   0  0  0  0  0  0  0  0  0  0  0  0
  183.7650  178.1970  141.2800 C   0  0  0  0  0  0  0  0  0  0  0  0
  2 15  1  6  0  0  0
  2  9  1  0  0  0  0
  2  6  1  0  0  0  0
  3 11  1  0  0  0  0
  3  5  1  0  0  0  0
  4  7  1  0  0  0  0
  5 12  2  0  0  0  0
  6  4  1  0  0  0  0
  8  1  2  0  0  0  0
  9 11  1  6  0  0  0
  9 13  1  0  0  0  0
 10  7  1  0  0  0  0
 12  1  1  0  0  0  0
 13  8  2  0  0  0  0
 13 10  1  0  0  0  0
 15 14  1  1  0  0  0
 16 15  1  0  0  0  0
 17 16  1  0  0  0  0
 18 23  1  0  0  0  0
 19 18  2  0  0  0  0
 20 19  1  0  0  0  0
 20 22  2  0  0  0  0
 21 23  2  0  0  0  0
 21 17  1  0  0  0  0
 22 21  1  0  0  0  0
 24 26  2  0  0  0  0
 25 26  1  0  0  0  0
 26 19  1  0  0  0  0
 27 31  1  6  0  0  0
 27 28  1  0  0  0  0
 27  5  1  0  0  0  0
 28 29  1  0  0  0  0
 30 28  2  0  0  0  0
 32 33  3  0  0  0  0
 33 31  1  0  0  0  0
M  END
>  <MODEL>
3

>  <REMARK>
 VINA RESULT:      -8.6      2.433      3.389
  Name = 
  9 active torsions:
  status: ('A' for Active; 'I' for Inactive)
    1  A    between atoms: C_3  and  C_18
    2  A    between atoms: C_5  and  C_6
    3  A    between atoms: C_5  and  C_13
    4  A    between atoms: C_5  and  C_15
    5  A    between atoms: C_11  and  C_25
    6  A    between atoms: C_13  and  C_20
    7  A    between atoms: C_14  and  N_16
    8  A    between atoms: C_14  and  C_28
    9  A    between atoms: N_16  and  C_18
                            x       y       z     vdW  Elec       q    Type
                         _______ _______ _______ _____ _____    ______ ____

>  <TORSDO>
F 9

$$$$
=
 OpenBabel11042411103D

 33 35  0  0  1  0  0  0  0  0999 V2000
  185.1280  178.8140  146.8840 C   0  0  0  0  0  3  0  0  0  0  0  0
  189.4660  176.8360  145.4340 C   0  0  1  0  0  3  0  0  0  0  0  0
  186.3350  178.4730  144.0600 C   0  0  0  0  0  2  0  0  0  0  0  0
  190.3670  178.0150  147.4010 N   0  0  0  0  0  2  0  0  0  0  0  0
  184.8650  178.3940  144.3990 C   0  0  0  0  0  0  0  0  0  0  0  0
  190.3540  176.7470  146.6820 C   0  0  0  0  0  2  0  0  0  0  0  0
  189.4550  177.9290  148.5440 C   0  0  0  0  0  2  0  0  0  0  0  0
  186.3440  178.3650  146.9940 C   0  0  0  0  0  0  0  0  0  0  0  0
  188.1740  177.6950  145.5610 C   0  0  1  0  0  3  0  0  0  0  0  0
  188.1140  177.2720  148.1920 C   0  0  0  0  0  2  0  0  0  0  0  0
  187.1330  177.2560  144.5230 C   0  0  0  0  0  2  0  0  0  0  0  0
  184.3700  178.6360  145.6280 C   0  0  0  0  0  3  0  0  0  0  0  0
  187.5340  177.8400  146.9370 C   0  0  0  0  0  0  0  0  0  0  0  0
  190.3410  178.6500  144.0480 O   0  0  0  0  0  1  0  0  0  0  0  0
  190.3490  177.2620  144.2540 C   0  0  2  0  0  3  0  0  0  0  0  0
  190.0770  176.4920  143.0320 N   0  0  0  0  0  2  0  0  0  0  0  0
  190.8180  177.0090  141.8840 C   0  0  0  0  0  2  0  0  0  0  0  0
  189.3190  177.3230  138.5080 N   0  0  0  0  0  0  0  0  0  0  0  0
  188.1160  177.9170  138.7420 C   0  0  0  0  0  0  0  0  0  0  0  0
  187.7630  178.2440  140.0540 C   0  0  0  0  0  3  0  0  0  0  0  0
  189.8690  177.3560  140.7930 C   0  0  0  0  0  0  0  0  0  0  0  0
  188.6500  177.9570  141.0890 C   0  0  0  0  0  3  0  0  0  0  0  0
  190.1680  177.0490  139.5020 N   0  0  0  0  0  0  0  0  0  0  0  0
  187.3850  179.2220  136.9020 O   0  0  0  0  0  0  0  0  0  0  0  0
  186.1040  177.3390  137.3470 N   0  0  0  0  0  1  0  0  0  0  0  0
  187.2010  178.2050  137.6250 C   0  0  0  0  0  0  0  0  0  0  0  0
  183.8710  178.2560  143.2810 C   0  0  1  0  0  3  0  0  0  0  0  0
  182.6530  179.0890  143.5350 C   0  0  0  0  0  0  0  0  0  0  0  0
  182.7320  180.3460  143.5990 O   0  0  0  0  0  0  0  0  0  0  0  0
  181.4300  178.4660  143.7360 O   0  0  0  0  0  1  0  0  0  0  0  0
  184.4790  178.5740  141.9180 C   0  0  0  0  0  2  0  0  0  0  0  0
  182.8130  177.9430  139.9900 N   0  0  0  0  0  0  0  0  0  0  0  0
  183.5490  178.2220  140.8400 C   0  0  0  0  0  0  0  0  0  0  0  0
  1  8  2  0  0  0  0
  2 15  1  6  0  0  0
  2  9  1  0  0  0  0
  2  6  1  0  0  0  0
  3  5  1  0  0  0  0
  3 11  1  0  0  0  0
  4  7  1  0  0  0  0
  5 12  2  0  0  0  0
  6  4  1  0  0  0  0
  9 11  1  6  0  0  0
  9 13  1  0  0  0  0
 10  7  1  0  0  0  0
 12  1  1  0  0  0  0
 13  8  2  0  0  0  0
 13 10  1  0  0  0  0
 15 14  1  6  0  0  0
 16 15  1  0  0  0  0
 17 16  1  0  0  0  0
 18 19  2  0  0  0  0
 18 23  1  0  0  0  0
 19 20  1  0  0  0  0
 20 22  2  0  0  0  0
 21 22  1  0  0  0  0
 21 17  1  0  0  0  0
 23 21  2  0  0  0  0
 24 26  2  0  0  0  0
 25 26  1  0  0  0  0
 26 19  1  0  0  0  0
 27 31  1  6  0  0  0
 27 28  1  0  0  0  0
 27  5  1  0  0  0  0
 28 29  2  0  0  0  0
 28 30  1  0  0  0  0
 32 33  3  0  0  0  0
 33 31  1  0  0  0  0
M  END
>  <MODEL>
4

>  <REMARK>
 VINA RESULT:      -8.4      1.281      1.543
  Name = 
  9 active torsions:
  status: ('A' for Active; 'I' for Inactive)
    1  A    between atoms: C_3  and  C_18
    2  A    between atoms: C_5  and  C_6
    3  A    between atoms: C_5  and  C_13
    4  A    between atoms: C_5  and  C_15
    5  A    between atoms: C_11  and  C_25
    6  A    between atoms: C_13  and  C_20
    7  A    between atoms: C_14  and  N_16
    8  A    between atoms: C_14  and  C_28
    9  A    between atoms: N_16  and  C_18
                            x       y       z     vdW  Elec       q    Type
                         _______ _______ _______ _____ _____    ______ ____

>  <TORSDO>
F 9

$$$$
=
 OpenBabel11042411103D

 33 35  0  0  1  0  0  0  0  0999 V2000
  183.9100  179.3000  144.7150 C   0  0  0  0  0  3  0  0  0  0  0  0
  188.3270  176.9930  144.6790 C   0  0  1  0  0  3  0  0  0  0  0  0
  185.8500  178.7130  142.3820 C   0  0  0  0  0  2  0  0  0  0  0  0
  188.7080  178.2420  146.7690 N   0  0  0  0  0  2  0  0  0  0  0  0
  184.3430  178.7380  142.2830 C   0  0  0  0  0  0  0  0  0  0  0  0
  188.8110  176.9340  146.1340 C   0  0  0  0  0  2  0  0  0  0  0  0
  187.5020  178.2800  147.6000 C   0  0  0  0  0  2  0  0  0  0  0  0
  185.0070  178.7910  145.1940 C   0  0  0  0  0  0  0  0  0  0  0  0
  187.1190  177.9300  144.3870 C   0  0  1  0  0  3  0  0  0  0  0  0
  186.2750  177.6780  146.9020 C   0  0  0  0  0  2  0  0  0  0  0  0
  186.3910  177.4840  143.1120 C   0  0  0  0  0  2  0  0  0  0  0  0
  183.5340  179.0850  143.3020 C   0  0  0  0  0  3  0  0  0  0  0  0
  186.1230  178.1970  145.5090 C   0  0  0  0  0  0  0  0  0  0  0  0
  189.6720  178.6590  143.4990 O   0  0  0  0  0  1  0  0  0  0  0  0
  189.5410  177.2920  143.7900 C   0  0  2  0  0  3  0  0  0  0  0  0
  189.5970  176.4370  142.5960 N   0  0  0  0  0  2  0  0  0  0  0  0
  190.6680  176.8370  141.6860 C   0  0  0  0  0  2  0  0  0  0  0  0
  188.4890  178.4350  139.1490 N   0  0  0  0  0  0  0  0  0  0  0  0
  189.0200  178.0280  137.9630 C   0  0  0  0  0  0  0  0  0  0  0  0
  190.1370  177.1880  137.9720 C   0  0  0  0  0  3  0  0  0  0  0  0
  190.0890  177.2250  140.3730 C   0  0  0  0  0  0  0  0  0  0  0  0
  190.6770  176.7850  139.1900 C   0  0  0  0  0  3  0  0  0  0  0  0
  189.0080  178.0480  140.3170 N   0  0  0  0  0  0  0  0  0  0  0  0
  188.8090  177.9660  135.6030 O   0  0  0  0  0  0  0  0  0  0  0  0
  187.4130  179.4750  136.6780 N   0  0  0  0  0  1  0  0  0  0  0  0
  188.4260  178.4730  136.6920 C   0  0  0  0  0  0  0  0  0  0  0  0
  183.7050  178.5850  140.9310 C   0  0  1  0  0  3  0  0  0  0  0  0
  184.6410  179.0060  139.8400 C   0  0  0  0  0  0  0  0  0  0  0  0
  184.6260  180.1860  139.3960 O   0  0  0  0  0  1  0  0  0  0  0  0
  185.5100  178.0750  139.2900 O   0  0  0  0  0  0  0  0  0  0  0  0
  183.1820  177.1720  140.6890 C   0  0  0  0  0  2  0  0  0  0  0  0
  181.3030  177.1770  138.8570 N   0  0  0  0  0  0  0  0  0  0  0  0
  182.1320  177.1760  139.6640 C   0  0  0  0  0  0  0  0  0  0  0  0
  1  8  2  0  0  0  0
  2 15  1  6  0  0  0
  2  6  1  0  0  0  0
  3 11  1  0  0  0  0
  4  7  1  0  0  0  0
  5  3  1  0  0  0  0
  5 12  2  0  0  0  0
  6  4  1  0  0  0  0
  8 13  2  0  0  0  0
  9 11  1  6  0  0  0
  9  2  1  0  0  0  0
  9 13  1  0  0  0  0
 10  7  1  0  0  0  0
 12  1  1  0  0  0  0
 13 10  1  0  0  0  0
 15 14  1  6  0  0  0
 16 15  1  0  0  0  0
 17 16  1  0  0  0  0
 18 23  1  0  0  0  0
 19 20  1  0  0  0  0
 19 18  2  0  0  0  0
 20 22  2  0  0  0  0
 21 17  1  0  0  0  0
 22 21  1  0  0  0  0
 23 21  2  0  0  0  0
 24 26  2  0  0  0  0
 25 26  1  0  0  0  0
 26 19  1  0  0  0  0
 27 31  1  6  0  0  0
 27  5  1  0  0  0  0
 28 27  1  0  0  0  0
 29 28  1  0  0  0  0
 30 28  2  0  0  0  0
 32 33  3  0  0  0  0
 33 31  1  0  0  0  0
M  END
>  <MODEL>
5

>  <REMARK>
 VINA RESULT:      -8.2      1.998      2.892
  Name = 
  9 active torsions:
  status: ('A' for Active; 'I' for Inactive)
    1  A    between atoms: C_3  and  C_18
    2  A    between atoms: C_5  and  C_6
    3  A    between atoms: C_5  and  C_13
    4  A    between atoms: C_5  and  C_15
    5  A    between atoms: C_11  and  C_25
    6  A    between atoms: C_13  and  C_20
    7  A    between atoms: C_14  and  N_16
    8  A    between atoms: C_14  and  C_28
    9  A    between atoms: N_16  and  C_18
                            x       y       z     vdW  Elec       q    Type
                         _______ _______ _______ _____ _____    ______ ____

>  <TORSDO>
F 9

$$$$
=
 OpenBabel11042411103D

 33 35  0  0  1  0  0  0  0  0999 V2000
  191.6820  176.4220  142.6630 C   0  0  0  0  0  3  0  0  0  0  0  0
  188.3730  178.1350  145.9720 C   0  0  1  0  0  3  0  0  0  0  0  0
  188.7040  177.1750  142.3200 C   0  0  0  0  0  2  0  0  0  0  0  0
  189.4190  176.4940  147.4840 N   0  0  0  0  0  2  0  0  0  0  0  0
  189.7790  177.3540  141.2740 C   0  0  0  0  0  0  0  0  0  0  0  0
  188.9590  177.8720  147.3650 C   0  0  0  0  0  2  0  0  0  0  0  0
  190.8740  176.4570  147.3120 C   0  0  0  0  0  2  0  0  0  0  0  0
  191.1770  176.6970  143.8300 C   0  0  0  0  0  0  0  0  0  0  0  0
  189.0730  177.4230  144.7790 C   0  0  1  0  0  3  0  0  0  0  0  0
  191.3610  177.3200  146.1410 C   0  0  0  0  0  2  0  0  0  0  0  0
  188.8010  178.1760  143.4700 C   0  0  0  0  0  2  0  0  0  0  0  0
  191.0480  176.9320  141.4290 C   0  0  0  0  0  3  0  0  0  0  0  0
  190.5530  177.0830  144.9070 C   0  0  0  0  0  0  0  0  0  0  0  0
  186.5080  176.6890  145.3360 O   0  0  0  0  0  1  0  0  0  0  0  0
  186.8660  177.8540  146.0330 C   0  0  2  0  0  3  0  0  0  0  0  0
  186.0530  179.0220  145.6680 N   0  0  0  0  0  2  0  0  0  0  0  0
  184.6820  178.6490  145.3250 C   0  0  0  0  0  2  0  0  0  0  0  0
  185.3590  179.2690  141.7330 N   0  0  0  0  0  0  0  0  0  0  0  0
  184.1660  179.0120  141.1300 C   0  0  0  0  0  0  0  0  0  0  0  0
  183.0770  178.6230  141.9150 C   0  0  0  0  0  3  0  0  0  0  0  0
  184.4770  178.7940  143.8590 C   0  0  0  0  0  0  0  0  0  0  0  0
  183.2370  178.5120  143.2940 C   0  0  0  0  0  3  0  0  0  0  0  0
  185.5110  179.1610  143.0560 N   0  0  0  0  0  0  0  0  0  0  0  0
  184.5600  180.1110  139.0670 O   0  0  0  0  0  0  0  0  0  0  0  0
  183.3080  178.1620  138.9230 N   0  0  0  0  0  1  0  0  0  0  0  0
  184.0310  179.1370  139.6690 C   0  0  0  0  0  0  0  0  0  0  0  0
  189.3820  177.8250  139.9030 C   0  0  1  0  0  3  0  0  0  0  0  0
  190.0160  176.9840  138.8380 C   0  0  0  0  0  0  0  0  0  0  0  0
  190.7870  177.4980  137.9840 O   0  0  0  0  0  0  0  0  0  0  0  0
  189.7210  175.6300  138.7730 O   0  0  0  0  0  1  0  0  0  0  0  0
  187.8680  177.8870  139.7240 C   0  0  0  0  0  2  0  0  0  0  0  0
  187.2500  178.6070  137.2770 N   0  0  0  0  0  0  0  0  0  0  0  0
  187.5240  178.2890  138.3550 C   0  0  0  0  0  0  0  0  0  0  0  0
  1  8  2  0  0  0  0
  2 15  1  1  0  0  0
  2  6  1  0  0  0  0
  3 11  1  0  0  0  0
  5 12  2  0  0  0  0
  5  3  1  0  0  0  0
  6  4  1  0  0  0  0
  7  4  1  0  0  0  0
  8 13  2  0  0  0  0
  9 11  1  6  0  0  0
  9 13  1  0  0  0  0
  9  2  1  0  0  0  0
 10  7  1  0  0  0  0
 12  1  1  0  0  0  0
 13 10  1  0  0  0  0
 15 14  1  6  0  0  0
 16 15  1  0  0  0  0
 17 16  1  0  0  0  0
 18 23  1  0  0  0  0
 19 18  2  0  0  0  0
 19 20  1  0  0  0  0
 20 22  2  0  0  0  0
 21 17  1  0  0  0  0
 22 21  1  0  0  0  0
 23 21  2  0  0  0  0
 24 26  2  0  0  0  0
 25 26  1  0  0  0  0
 26 19  1  0  0  0  0
 27 31  1  1  0  0  0
 27  5  1  0  0  0  0
 28 27  1  0  0  0  0
 29 28  2  0  0  0  0
 30 28  1  0  0  0  0
 32 33  3  0  0  0  0
 33 31  1  0  0  0  0
M  END
>  <MODEL>
6

>  <REMARK>
 VINA RESULT:      -7.8      2.323      5.328
  Name = 
  9 active torsions:
  status: ('A' for Active; 'I' for Inactive)
    1  A    between atoms: C_3  and  C_18
    2  A    between atoms: C_5  and  C_6
    3  A    between atoms: C_5  and  C_13
    4  A    between atoms: C_5  and  C_15
    5  A    between atoms: C_11  and  C_25
    6  A    between atoms: C_13  and  C_20
    7  A    between atoms: C_14  and  N_16
    8  A    between atoms: C_14  and  C_28
    9  A    between atoms: N_16  and  C_18
                            x       y       z     vdW  Elec       q    Type
                         _______ _______ _______ _____ _____    ______ ____

>  <TORSDO>
F 9

$$$$
=
 OpenBabel11042411103D

 33 35  0  0  1  0  0  0  0  0999 V2000
  186.4600  177.4030  145.6630 C   0  0  0  0  0  3  0  0  0  0  0  0
  185.9770  178.9430  140.9490 C   0  0  1  0  0  3  0  0  0  0  0  0
  188.3270  177.0310  143.2280 C   0  0  0  0  0  2  0  0  0  0  0  0
  183.6220  178.2810  141.2440 N   0  0  0  0  0  2  0  0  0  0  0  0
  188.7780  177.1990  144.6600 C   0  0  0  0  0  0  0  0  0  0  0  0
  184.5060  179.3330  140.7560 C   0  0  0  0  0  2  0  0  0  0  0  0
  183.1230  178.6510  142.5700 C   0  0  0  0  0  2  0  0  0  0  0  0
  185.8660  177.8600  144.6000 C   0  0  0  0  0  0  0  0  0  0  0  0
  186.3210  178.1470  142.2410 C   0  0  1  0  0  3  0  0  0  0  0  0
  184.2180  179.2070  143.4900 C   0  0  0  0  0  2  0  0  0  0  0  0
  187.8030  178.3220  142.6010 C   0  0  0  0  0  2  0  0  0  0  0  0
  187.9320  177.2700  145.7050 C   0  0  0  0  0  3  0  0  0  0  0  0
  185.4420  178.3490  143.4700 C   0  0  0  0  0  0  0  0  0  0  0  0
  187.8220  178.4130  139.4350 O   0  0  0  0  0  1  0  0  0  0  0  0
  186.4500  178.2360  139.6720 C   0  0  2  0  0  3  0  0  0  0  0  0
  185.6150  178.5490  138.5040 N   0  0  0  0  0  2  0  0  0  0  0  0
  186.1940  178.0370  137.2640 C   0  0  0  0  0  2  0  0  0  0  0  0
  186.5340  174.3620  136.9230 N   0  0  0  0  0  0  0  0  0  0  0  0
  185.2470  173.9200  136.8770 C   0  0  0  0  0  0  0  0  0  0  0  0
  184.2060  174.8500  136.9530 C   0  0  0  0  0  3  0  0  0  0  0  0
  185.8440  176.6010  137.1050 C   0  0  0  0  0  0  0  0  0  0  0  0
  184.5100  176.2040  137.0700 C   0  0  0  0  0  3  0  0  0  0  0  0
  186.8230  175.6610  137.0360 N   0  0  0  0  0  0  0  0  0  0  0  0
  183.9560  171.9850  137.3350 O   0  0  0  0  0  0  0  0  0  0  0  0
  185.8070  171.6380  135.9790 N   0  0  0  0  0  1  0  0  0  0  0  0
  184.9600  172.4810  136.7540 C   0  0  0  0  0  0  0  0  0  0  0  0
  190.2410  177.0610  144.9780 C   0  0  1  0  0  3  0  0  0  0  0  0
  191.0660  177.9910  144.1420 C   0  0  0  0  0  0  0  0  0  0  0  0
  190.9320  179.2400  144.2440 O   0  0  0  0  0  1  0  0  0  0  0  0
  191.9610  177.4670  143.2210 O   0  0  0  0  0  0  0  0  0  0  0  0
  190.5340  177.2520  146.4630 C   0  0  0  0  0  2  0  0  0  0  0  0
  192.4640  175.6500  147.2380 N   0  0  0  0  0  0  0  0  0  0  0  0
  191.6130  176.3570  146.8980 C   0  0  0  0  0  0  0  0  0  0  0  0
  1 12  1  0  0  0  0
  2 15  1  6  0  0  0
  2  9  1  0  0  0  0
  3  5  1  0  0  0  0
  4  7  1  0  0  0  0
  5 27  1  0  0  0  0
  5 12  2  0  0  0  0
  6  2  1  0  0  0  0
  6  4  1  0  0  0  0
  7 10  1  0  0  0  0
  8  1  2  0  0  0  0
  9 11  1  1  0  0  0
  9 13  1  0  0  0  0
 11  3  1  0  0  0  0
 13 10  1  0  0  0  0
 13  8  2  0  0  0  0
 15 14  1  6  0  0  0
 16 15  1  0  0  0  0
 17 16  1  0  0  0  0
 18 23  1  0  0  0  0
 19 18  2  0  0  0  0
 19 20  1  0  0  0  0
 20 22  2  0  0  0  0
 21 17  1  0  0  0  0
 22 21  1  0  0  0  0
 23 21  2  0  0  0  0
 25 26  1  0  0  0  0
 26 19  1  0  0  0  0
 26 24  2  0  0  0  0
 27 31  1  1  0  0  0
 28 29  1  0  0  0  0
 28 27  1  0  0  0  0
 30 28  2  0  0  0  0
 31 33  1  0  0  0  0
 33 32  3  0  0  0  0
M  END
>  <MODEL>
7

>  <REMARK>
 VINA RESULT:      -7.7      2.669      6.398
  Name = 
  9 active torsions:
  status: ('A' for Active; 'I' for Inactive)
    1  A    between atoms: C_3  and  C_18
    2  A    between atoms: C_5  and  C_6
    3  A    between atoms: C_5  and  C_13
    4  A    between atoms: C_5  and  C_15
    5  A    between atoms: C_11  and  C_25
    6  A    between atoms: C_13  and  C_20
    7  A    between atoms: C_14  and  N_16
    8  A    between atoms: C_14  and  C_28
    9  A    between atoms: N_16  and  C_18
                            x       y       z     vdW  Elec       q    Type
                         _______ _______ _______ _____ _____    ______ ____

>  <TORSDO>
F 9

$$$$
=
 OpenBabel11042411103D

 33 35  0  0  1  0  0  0  0  0999 V2000
  186.5560  177.4660  145.6840 C   0  0  0  0  0  3  0  0  0  0  0  0
  185.7590  178.9770  141.0030 C   0  0  1  0  0  3  0  0  0  0  0  0
  188.2600  177.0860  143.1340 C   0  0  0  0  0  2  0  0  0  0  0  0
  183.4300  178.3100  141.4560 N   0  0  0  0  0  2  0  0  0  0  0  0
  188.8040  177.2630  144.5320 C   0  0  0  0  0  0  0  0  0  0  0  0
  184.2770  179.3620  140.9050 C   0  0  0  0  0  2  0  0  0  0  0  0
  183.0180  178.6860  142.8110 C   0  0  0  0  0  2  0  0  0  0  0  0
  185.8920  177.9150  144.6600 C   0  0  0  0  0  0  0  0  0  0  0  0
  186.1900  178.1900  142.2750 C   0  0  1  0  0  3  0  0  0  0  0  0
  184.1700  179.2500  143.6530 C   0  0  0  0  0  2  0  0  0  0  0  0
  187.6910  178.3710  142.5350 C   0  0  0  0  0  2  0  0  0  0  0  0
  188.0280  177.3370  145.6300 C   0  0  0  0  0  3  0  0  0  0  0  0
  185.3930  178.3960  143.5570 C   0  0  0  0  0  0  0  0  0  0  0  0
  187.5310  178.3010  139.4620 O   0  0  0  0  0  1  0  0  0  0  0  0
  186.1490  178.2650  139.7020 C   0  0  2  0  0  3  0  0  0  0  0  0
  185.3480  178.7020  138.5500 N   0  0  0  0  0  2  0  0  0  0  0  0
  184.9190  177.5770  137.7230 C   0  0  0  0  0  2  0  0  0  0  0  0
  182.0630  175.6300  139.0640 N   0  0  0  0  0  0  0  0  0  0  0  0
  180.9910  176.4450  138.8580 C   0  0  0  0  0  0  0  0  0  0  0  0
  181.1880  177.6870  138.2490 C   0  0  0  0  0  3  0  0  0  0  0  0
  183.5320  177.1860  138.0930 C   0  0  0  0  0  0  0  0  0  0  0  0
  182.4740  178.0610  137.8660 C   0  0  0  0  0  3  0  0  0  0  0  0
  183.2950  175.9910  138.6950 N   0  0  0  0  0  0  0  0  0  0  0  0
  179.0260  176.6680  140.1650 O   0  0  0  0  0  0  0  0  0  0  0  0
  179.0280  174.8800  138.6850 N   0  0  0  0  0  1  0  0  0  0  0  0
  179.6450  176.0200  139.2780 C   0  0  0  0  0  0  0  0  0  0  0  0
  190.2840  177.1310  144.7540 C   0  0  1  0  0  3  0  0  0  0  0  0
  191.0490  178.0610  143.8620 C   0  0  0  0  0  0  0  0  0  0  0  0
  191.8250  177.6110  142.9760 O   0  0  0  0  0  0  0  0  0  0  0  0
  190.9280  179.4310  144.0410 O   0  0  0  0  0  1  0  0  0  0  0  0
  190.6740  177.3280  146.2160 C   0  0  0  0  0  2  0  0  0  0  0  0
  192.4290  175.5250  146.9610 N   0  0  0  0  0  0  0  0  0  0  0  0
  191.6550  176.3200  146.6320 C   0  0  0  0  0  0  0  0  0  0  0  0
  2 15  1  6  0  0  0
  2  9  1  0  0  0  0
  3  5  1  0  0  0  0
  4  7  1  0  0  0  0
  5 27  1  0  0  0  0
  5 12  2  0  0  0  0
  6  2  1  0  0  0  0
  6  4  1  0  0  0  0
  7 10  1  0  0  0  0
  8  1  2  0  0  0  0
  9 11  1  1  0  0  0
  9 13  1  0  0  0  0
 11  3  1  0  0  0  0
 12  1  1  0  0  0  0
 13 10  1  0  0  0  0
 13  8  2  0  0  0  0
 15 14  1  6  0  0  0
 16 15  1  0  0  0  0
 17 21  1  0  0  0  0
 17 16  1  0  0  0  0
 19 18  1  0  0  0  0
 19 26  1  0  0  0  0
 20 19  2  0  0  0  0
 21 23  1  0  0  0  0
 22 21  2  0  0  0  0
 22 20  1  0  0  0  0
 23 18  2  0  0  0  0
 25 26  1  0  0  0  0
 26 24  2  0  0  0  0
 27 31  1  1  0  0  0
 28 30  1  0  0  0  0
 28 27  1  0  0  0  0
 29 28  2  0  0  0  0
 31 33  1  0  0  0  0
 33 32  3  0  0  0  0
M  END
>  <MODEL>
8

>  <REMARK>
 VINA RESULT:      -7.6      2.550      6.756
  Name = 
  9 active torsions:
  status: ('A' for Active; 'I' for Inactive)
    1  A    between atoms: C_3  and  C_18
    2  A    between atoms: C_5  and  C_6
    3  A    between atoms: C_5  and  C_13
    4  A    between atoms: C_5  and  C_15
    5  A    between atoms: C_11  and  C_25
    6  A    between atoms: C_13  and  C_20
    7  A    between atoms: C_14  and  N_16
    8  A    between atoms: C_14  and  C_28
    9  A    between atoms: N_16  and  C_18
                            x       y       z     vdW  Elec       q    Type
                         _______ _______ _______ _____ _____    ______ ____

>  <TORSDO>
F 9

$$$$
=
 OpenBabel11042411103D

 33 35  0  0  1  0  0  0  0  0999 V2000
  182.0860  178.6340  143.9810 C   0  0  0  0  0  3  0  0  0  0  0  0
  183.3970  179.2510  139.2130 C   0  0  1  0  0  3  0  0  0  0  0  0
  184.7620  178.0620  142.5440 C   0  0  0  0  0  2  0  0  0  0  0  0
  181.1400  178.3780  138.7470 N   0  0  0  0  0  2  0  0  0  0  0  0
  184.6180  178.5320  143.9720 C   0  0  0  0  0  0  0  0  0  0  0  0
  182.0990  179.4240  138.4130 C   0  0  0  0  0  2  0  0  0  0  0  0
  180.1520  178.9140  139.6860 C   0  0  0  0  0  2  0  0  0  0  0  0
  181.9300  178.8220  142.7030 C   0  0  0  0  0  0  0  0  0  0  0  0
  183.2480  178.7420  140.6760 C   0  0  1  0  0  3  0  0  0  0  0  0
  180.7840  179.7480  140.8080 C   0  0  0  0  0  2  0  0  0  0  0  0
  184.4670  179.1510  141.5130 C   0  0  0  0  0  2  0  0  0  0  0  0
  183.4320  178.6840  144.5910 C   0  0  0  0  0  3  0  0  0  0  0  0
  181.9550  179.0510  141.4210 C   0  0  0  0  0  0  0  0  0  0  0  0
  184.2400  177.0220  138.6660 O   0  0  0  0  0  1  0  0  0  0  0  0
  184.3550  178.3910  138.3790 C   0  0  2  0  0  3  0  0  0  0  0  0
  185.7410  178.8780  138.4210 N   0  0  0  0  0  2  0  0  0  0  0  0
  186.6880  177.8780  137.9330 C   0  0  0  0  0  2  0  0  0  0  0  0
  189.8450  176.7550  139.5190 N   0  0  0  0  0  0  0  0  0  0  0  0
  189.7930  177.3000  140.7660 C   0  0  0  0  0  0  0  0  0  0  0  0
  188.6820  178.0670  141.1260 C   0  0  0  0  0  3  0  0  0  0  0  0
  187.7560  177.6660  138.9470 C   0  0  0  0  0  0  0  0  0  0  0  0
  187.6540  178.2530  140.2050 C   0  0  0  0  0  3  0  0  0  0  0  0
  188.8590  176.9340  138.6360 N   0  0  0  0  0  0  0  0  0  0  0  0
  192.0560  177.5030  141.4430 O   0  0  0  0  0  0  0  0  0  0  0  0
  190.6700  176.4120  142.9500 N   0  0  0  0  0  1  0  0  0  0  0  0
  190.8980  177.0860  141.7160 C   0  0  0  0  0  0  0  0  0  0  0  0
  185.8480  178.6260  144.8300 C   0  0  1  0  0  3  0  0  0  0  0  0
  185.4890  178.7420  146.2800 C   0  0  0  0  0  0  0  0  0  0  0  0
  185.6810  179.8190  146.9070 O   0  0  0  0  0  0  0  0  0  0  0  0
  184.9740  177.6400  146.9450 O   0  0  0  0  0  1  0  0  0  0  0  0
  186.8130  177.4670  144.5950 C   0  0  0  0  0  2  0  0  0  0  0  0
  189.0770  177.8700  145.8600 N   0  0  0  0  0  0  0  0  0  0  0  0
  188.0780  177.6930  145.3020 C   0  0  0  0  0  0  0  0  0  0  0  0
  1 12  1  0  0  0  0
  2 15  1  6  0  0  0
  2  9  1  0  0  0  0
  3  5  1  0  0  0  0
  4  7  1  0  0  0  0
  5 12  2  0  0  0  0
  5 27  1  0  0  0  0
  6  4  1  0  0  0  0
  6  2  1  0  0  0  0
  7 10  1  0  0  0  0
  8  1  2  0  0  0  0
  9 13  1  0  0  0  0
  9 11  1  1  0  0  0
 10 13  1  0  0  0  0
 11  3  1  0  0  0  0
 13  8  2  0  0  0  0
 15 16  1  0  0  0  0
 15 14  1  1  0  0  0
 17 16  1  0  0  0  0
 17 21  1  0  0  0  0
 18 19  1  0  0  0  0
 19 20  2  0  0  0  0
 19 26  1  0  0  0  0
 21 22  2  0  0  0  0
 22 20  1  0  0  0  0
 23 21  1  0  0  0  0
 23 18  2  0  0  0  0
 24 26  2  0  0  0  0
 26 25  1  0  0  0  0
 27 31  1  1  0  0  0
 27 28  1  0  0  0  0
 28 29  2  0  0  0  0
 28 30  1  0  0  0  0
 31 33  1  0  0  0  0
 33 32  3  0  0  0  0
M  END
>  <MODEL>
9

>  <REMARK>
 VINA RESULT:      -7.6      2.062      6.816
  Name = 
  9 active torsions:
  status: ('A' for Active; 'I' for Inactive)
    1  A    between atoms: C_3  and  C_18
    2  A    between atoms: C_5  and  C_6
    3  A    between atoms: C_5  and  C_13
    4  A    between atoms: C_5  and  C_15
    5  A    between atoms: C_11  and  C_25
    6  A    between atoms: C_13  and  C_20
    7  A    between atoms: C_14  and  N_16
    8  A    between atoms: C_14  and  C_28
    9  A    between atoms: N_16  and  C_18
                            x       y       z     vdW  Elec       q    Type
                         _______ _______ _______ _____ _____    ______ ____

>  <TORSDO>
F 9

$$$$
