=
 OpenBabel11042412043D

 30 31  0  0  1  0  0  0  0  0999 V2000
  186.6300  177.7610  143.6120 C   0  0  0  0  0  3  0  0  0  0  0  0
  186.3500  178.0160  144.8990 C   0  0  0  0  0  0  0  0  0  0  0  0
  187.3150  177.8350  146.0030 C   0  0  0  0  0  0  0  0  0  0  0  0
  188.6290  177.4210  145.7450 C   0  0  0  0  0  3  0  0  0  0  0  0
  187.8750  178.0040  148.3450 C   0  0  0  0  0  3  0  0  0  0  0  0
  189.5290  177.2860  146.8040 C   0  0  0  0  0  0  0  0  0  0  0  0
  189.1370  177.5800  148.0710 N   0  0  0  0  0  0  0  0  0  0  0  0
  186.9430  178.1440  147.3150 C   0  0  0  0  0  3  0  0  0  0  0  0
  190.9290  176.8610  146.5390 C   0  0  0  0  0  2  0  0  0  0  0  0
  191.6040  175.9410  144.1900 C   0  0  0  0  0  1  0  0  0  0  0  0
  191.5080  177.5710  144.9740 S   0  0  0  0  0  0  0  0  0  0  0  0
  188.0280  175.8950  143.0910 O   0  0  0  0  0  0  0  0  0  0  0  0
  187.8530  177.1420  143.0700 C   0  0  0  0  0  0  0  0  0  0  0  0
  188.8580  178.0070  142.3950 C   0  0  0  0  0  2  0  0  0  0  0  0
  188.4300  178.2750  140.9630 C   0  0  0  0  0  2  0  0  0  0  0  0
  190.3510  177.2610  137.8090 N   0  0  0  0  0  2  0  0  0  0  0  0
  189.4670  177.9740  138.6740 C   0  0  0  0  0  0  0  0  0  0  0  0
  188.8120  178.9470  138.2160 O   0  0  0  0  0  0  0  0  0  0  0  0
  189.3140  177.5770  140.0400 N   0  0  0  0  0  2  0  0  0  0  0  0
  191.1080  176.0970  138.2470 C   0  0  1  0  0  3  0  0  0  0  0  0
  190.4010  174.9340  137.9410 O   0  0  0  0  0  1  0  0  0  0  0  0
  192.4420  176.0710  137.5360 C   0  0  0  0  0  1  0  0  0  0  0  0
  184.9860  178.5380  145.2160 C   0  0  0  0  0  2  0  0  0  0  0  0
  184.4290  179.2020  144.0820 O   0  0  0  0  0  0  0  0  0  0  0  0
  182.1000  178.7900  144.3720 C   0  0  0  0  0  2  0  0  0  0  0  0
  183.1570  178.9290  143.5660 C   0  0  0  0  0  0  0  0  0  0  0  0
  183.0150  178.7720  142.1520 N   0  0  0  0  0  2  0  0  0  0  0  0
  183.9690  178.0530  141.3190 C   0  0  0  0  0  3  0  0  0  0  0  0
  183.6800  178.3430  139.8600 C   0  0  0  0  0  2  0  0  0  0  0  0
  184.8180  179.0530  140.5660 C   0  0  0  0  0  2  0  0  0  0  0  0
  1  2  2  0  0  0  0
  2 23  1  0  0  0  0
  2  3  1  0  0  0  0
  3  8  1  0  0  0  0
  4  3  2  0  0  0  0
  4  6  1  0  0  0  0
  6  7  2  0  0  0  0
  7  5  1  0  0  0  0
  8  5  2  0  0  0  0
  9  6  1  0  0  0  0
 10 11  1  0  0  0  0
 11  9  1  0  0  0  0
 13 12  2  0  0  0  0
 13  1  1  0  0  0  0
 14 13  1  0  0  0  0
 15 14  1  0  0  0  0
 16 20  1  0  0  0  0
 16 17  1  0  0  0  0
 17 19  1  0  0  0  0
 18 17  2  0  0  0  0
 19 15  1  0  0  0  0
 20 22  1  6  0  0  0
 21 20  1  0  0  0  0
 24 23  1  0  0  0  0
 26 24  1  0  0  0  0
 26 25  2  0  0  0  0
 27 26  1  0  0  0  0
 28 27  1  0  0  0  0
 29 30  1  0  0  0  0
 29 28  1  0  0  0  0
 30 28  1  0  0  0  0
M  END
>  <MODEL>
1

>  <REMARK>
 VINA RESULT:      -7.5      0.000      0.000
  Name = 
  13 active torsions:
  status: ('A' for Active; 'I' for Inactive)
    1  A    between atoms: C_1  and  N_29
    2  A    between atoms: C_2  and  N_3
    3  A    between atoms: C_5  and  C_18
    4  A    between atoms: S_12  and  C_17
    5  A    between atoms: C_13  and  C_14
    6  A    between atoms: C_13  and  C_26
    7  A    between atoms: C_14  and  N_24
    8  A    between atoms: C_15  and  C_26
    9  A    between atoms: C_17  and  C_19
   10  A    between atoms: C_18  and  C_25
   11  A    between atoms: C_25  and  O_30
   12  A    between atoms: C_27  and  N_29
   13  A    between atoms: C_27  and  O_30
                            x       y       z     vdW  Elec       q    Type
                         _______ _______ _______ _____ _____    ______ ____

>  <TORSDO>
F 13

$$$$
=
 OpenBabel11042412043D

 30 31  0  0  1  0  0  0  0  0999 V2000
  186.6170  177.6970  143.5520 C   0  0  0  0  0  3  0  0  0  0  0  0
  186.3290  177.9680  144.8350 C   0  0  0  0  0  0  0  0  0  0  0  0
  187.2950  177.8200  145.9430 C   0  0  0  0  0  0  0  0  0  0  0  0
  188.6130  177.4120  145.6960 C   0  0  0  0  0  3  0  0  0  0  0  0
  187.8530  178.0490  148.2810 C   0  0  0  0  0  3  0  0  0  0  0  0
  189.5140  177.3090  146.7580 C   0  0  0  0  0  0  0  0  0  0  0  0
  189.1180  177.6290  148.0180 N   0  0  0  0  0  0  0  0  0  0  0  0
  186.9200  178.1570  147.2480 C   0  0  0  0  0  3  0  0  0  0  0  0
  190.9170  176.8900  146.5030 C   0  0  0  0  0  2  0  0  0  0  0  0
  191.5540  175.9140  144.1650 C   0  0  0  0  0  1  0  0  0  0  0  0
  191.4880  177.5600  144.9180 S   0  0  0  0  0  0  0  0  0  0  0  0
  188.0620  175.8530  143.0880 O   0  0  0  0  0  0  0  0  0  0  0  0
  187.8510  177.0930  143.0210 C   0  0  0  0  0  0  0  0  0  0  0  0
  188.8250  177.9600  142.3040 C   0  0  0  0  0  2  0  0  0  0  0  0
  188.3750  178.1620  140.8680 C   0  0  0  0  0  2  0  0  0  0  0  0
  190.4140  177.3450  137.7300 N   0  0  0  0  0  2  0  0  0  0  0  0
  189.4470  177.9580  138.5840 C   0  0  0  0  0  0  0  0  0  0  0  0
  188.6820  178.8400  138.1130 O   0  0  0  0  0  0  0  0  0  0  0  0
  189.3400  177.5630  139.9550 N   0  0  0  0  0  2  0  0  0  0  0  0
  191.3030  176.2860  138.1840 C   0  0  1  0  0  3  0  0  0  0  0  0
  190.6330  175.0640  138.1550 O   0  0  0  0  0  1  0  0  0  0  0  0
  192.5050  176.2160  137.2690 C   0  0  0  0  0  1  0  0  0  0  0  0
  184.9550  178.4690  145.1420 C   0  0  0  0  0  2  0  0  0  0  0  0
  184.4610  179.2620  144.0630 O   0  0  0  0  0  0  0  0  0  0  0  0
  183.4740  178.4910  142.0360 C   0  0  0  0  0  2  0  0  0  0  0  0
  183.3420  178.9210  143.2940 C   0  0  0  0  0  0  0  0  0  0  0  0
  182.0450  179.0690  143.8780 N   0  0  0  0  0  2  0  0  0  0  0  0
  180.8110  178.6670  143.2160 C   0  0  0  0  0  3  0  0  0  0  0  0
  179.6650  178.7410  144.2040 C   0  0  0  0  0  2  0  0  0  0  0  0
  179.8620  179.8440  143.1850 C   0  0  0  0  0  2  0  0  0  0  0  0
  1  2  2  0  0  0  0
  2 23  1  0  0  0  0
  2  3  1  0  0  0  0
  3  8  1  0  0  0  0
  4  3  2  0  0  0  0
  4  6  1  0  0  0  0
  6  7  2  0  0  0  0
  7  5  1  0  0  0  0
  8  5  2  0  0  0  0
  9  6  1  0  0  0  0
 10 11  1  0  0  0  0
 11  9  1  0  0  0  0
 13 12  2  0  0  0  0
 13  1  1  0  0  0  0
 14 13  1  0  0  0  0
 15 14  1  0  0  0  0
 16 20  1  0  0  0  0
 16 17  1  0  0  0  0
 17 19  1  0  0  0  0
 18 17  2  0  0  0  0
 19 15  1  0  0  0  0
 20 22  1  6  0  0  0
 21 20  1  0  0  0  0
 24 23  1  0  0  0  0
 25 26  2  0  0  0  0
 26 27  1  0  0  0  0
 26 24  1  0  0  0  0
 28 27  1  0  0  0  0
 28 29  1  0  0  0  0
 30 28  1  0  0  0  0
 30 29  1  0  0  0  0
M  END
>  <MODEL>
2

>  <REMARK>
 VINA RESULT:      -7.4      0.857      1.762
  Name = 
  13 active torsions:
  status: ('A' for Active; 'I' for Inactive)
    1  A    between atoms: C_1  and  N_29
    2  A    between atoms: C_2  and  N_3
    3  A    between atoms: C_5  and  C_18
    4  A    between atoms: S_12  and  C_17
    5  A    between atoms: C_13  and  C_14
    6  A    between atoms: C_13  and  C_26
    7  A    between atoms: C_14  and  N_24
    8  A    between atoms: C_15  and  C_26
    9  A    between atoms: C_17  and  C_19
   10  A    between atoms: C_18  and  C_25
   11  A    between atoms: C_25  and  O_30
   12  A    between atoms: C_27  and  N_29
   13  A    between atoms: C_27  and  O_30
                            x       y       z     vdW  Elec       q    Type
                         _______ _______ _______ _____ _____    ______ ____

>  <TORSDO>
F 13

$$$$
=
 OpenBabel11042412043D

 30 31  0  0  1  0  0  0  0  0999 V2000
  186.7110  177.6840  143.6490 C   0  0  0  0  0  3  0  0  0  0  0  0
  186.4850  177.9520  144.9440 C   0  0  0  0  0  0  0  0  0  0  0  0
  187.4980  177.7920  146.0070 C   0  0  0  0  0  0  0  0  0  0  0  0
  188.8220  177.4590  145.6910 C   0  0  0  0  0  3  0  0  0  0  0  0
  188.1350  177.9240  148.3330 C   0  0  0  0  0  3  0  0  0  0  0  0
  189.7670  177.3430  146.7120 C   0  0  0  0  0  0  0  0  0  0  0  0
  189.4060  177.5780  148.0010 N   0  0  0  0  0  0  0  0  0  0  0  0
  187.1590  178.0420  147.3410 C   0  0  0  0  0  3  0  0  0  0  0  0
  191.1770  177.0040  146.3850 C   0  0  0  0  0  2  0  0  0  0  0  0
  191.8650  178.3390  144.2480 C   0  0  0  0  0  1  0  0  0  0  0  0
  191.3340  176.6460  144.6150 S   0  0  0  0  0  0  0  0  0  0  0  0
  188.1260  175.8310  143.1290 O   0  0  0  0  0  0  0  0  0  0  0  0
  187.9150  177.0710  143.0610 C   0  0  0  0  0  0  0  0  0  0  0  0
  188.8530  177.9280  142.2860 C   0  0  0  0  0  2  0  0  0  0  0  0
  189.4110  177.1480  141.1090 C   0  0  0  0  0  2  0  0  0  0  0  0
  188.2240  177.2510  137.4690 N   0  0  0  0  0  2  0  0  0  0  0  0
  188.9960  176.9160  138.6230 C   0  0  0  0  0  0  0  0  0  0  0  0
  189.9840  176.1460  138.4990 O   0  0  0  0  0  0  0  0  0  0  0  0
  188.6600  177.4630  139.9020 N   0  0  0  0  0  2  0  0  0  0  0  0
  187.0970  178.1700  137.5180 C   0  0  1  0  0  3  0  0  0  0  0  0
  187.4100  179.3370  136.8220 O   0  0  0  0  0  1  0  0  0  0  0  0
  185.8910  177.5170  136.8800 C   0  0  0  0  0  1  0  0  0  0  0  0
  185.1300  178.4650  145.3150 C   0  0  0  0  0  2  0  0  0  0  0  0
  184.5840  179.2450  144.2520 O   0  0  0  0  0  0  0  0  0  0  0  0
  182.2640  178.7200  144.3910 C   0  0  0  0  0  2  0  0  0  0  0  0
  183.3460  178.9880  143.6530 C   0  0  0  0  0  0  0  0  0  0  0  0
  183.2670  178.9910  142.2250 N   0  0  0  0  0  2  0  0  0  0  0  0
  184.0540  178.1130  141.3710 C   0  0  0  0  0  3  0  0  0  0  0  0
  183.8610  178.5150  139.9230 C   0  0  0  0  0  2  0  0  0  0  0  0
  185.1140  178.9300  140.6670 C   0  0  0  0  0  2  0  0  0  0  0  0
  1  2  2  0  0  0  0
  2 23  1  0  0  0  0
  2  3  1  0  0  0  0
  3  8  1  0  0  0  0
  4  3  2  0  0  0  0
  4  6  1  0  0  0  0
  6  7  2  0  0  0  0
  7  5  1  0  0  0  0
  8  5  2  0  0  0  0
  9  6  1  0  0  0  0
 10 11  1  0  0  0  0
 11  9  1  0  0  0  0
 13 12  2  0  0  0  0
 13  1  1  0  0  0  0
 14 13  1  0  0  0  0
 15 14  1  0  0  0  0
 16 20  1  0  0  0  0
 16 17  1  0  0  0  0
 17 19  1  0  0  0  0
 18 17  2  0  0  0  0
 19 15  1  0  0  0  0
 20 22  1  6  0  0  0
 21 20  1  0  0  0  0
 24 23  1  0  0  0  0
 26 24  1  0  0  0  0
 26 25  2  0  0  0  0
 27 26  1  0  0  0  0
 28 27  1  0  0  0  0
 29 30  1  0  0  0  0
 29 28  1  0  0  0  0
 30 28  1  0  0  0  0
M  END
>  <MODEL>
3

>  <REMARK>
 VINA RESULT:      -7.4      1.211      2.015
  Name = 
  13 active torsions:
  status: ('A' for Active; 'I' for Inactive)
    1  A    between atoms: C_1  and  N_29
    2  A    between atoms: C_2  and  N_3
    3  A    between atoms: C_5  and  C_18
    4  A    between atoms: S_12  and  C_17
    5  A    between atoms: C_13  and  C_14
    6  A    between atoms: C_13  and  C_26
    7  A    between atoms: C_14  and  N_24
    8  A    between atoms: C_15  and  C_26
    9  A    between atoms: C_17  and  C_19
   10  A    between atoms: C_18  and  C_25
   11  A    between atoms: C_25  and  O_30
   12  A    between atoms: C_27  and  N_29
   13  A    between atoms: C_27  and  O_30
                            x       y       z     vdW  Elec       q    Type
                         _______ _______ _______ _____ _____    ______ ____

>  <TORSDO>
F 13

$$$$
=
 OpenBabel11042412043D

 30 31  0  0  1  0  0  0  0  0999 V2000
  188.6440  177.8750  140.2960 C   0  0  0  0  0  3  0  0  0  0  0  0
  189.7280  177.2590  140.7890 C   0  0  0  0  0  0  0  0  0  0  0  0
  190.9660  177.0280  140.0170 C   0  0  0  0  0  0  0  0  0  0  0  0
  190.9200  176.4160  138.7560 C   0  0  0  0  0  3  0  0  0  0  0  0
  193.3520  177.2920  139.7510 C   0  0  0  0  0  3  0  0  0  0  0  0
  192.1020  176.2370  138.0340 C   0  0  0  0  0  0  0  0  0  0  0  0
  193.2830  176.6760  138.5410 N   0  0  0  0  0  0  0  0  0  0  0  0
  192.1940  177.4830  140.5080 C   0  0  0  0  0  3  0  0  0  0  0  0
  192.0610  175.6020  136.6900 C   0  0  0  0  0  2  0  0  0  0  0  0
  190.5890  173.4560  136.4650 C   0  0  0  0  0  1  0  0  0  0  0  0
  190.3470  175.2350  136.2270 S   0  0  0  0  0  0  0  0  0  0  0  0
  189.0470  179.2740  138.4020 O   0  0  0  0  0  0  0  0  0  0  0  0
  188.4160  178.3070  138.9060 C   0  0  0  0  0  0  0  0  0  0  0  0
  187.4880  177.5180  138.0510 C   0  0  0  0  0  2  0  0  0  0  0  0
  186.1090  178.1520  138.0650 C   0  0  0  0  0  2  0  0  0  0  0  0
  184.2770  179.3230  141.2170 N   0  0  0  0  0  2  0  0  0  0  0  0
  184.7400  179.2840  139.8670 C   0  0  0  0  0  0  0  0  0  0  0  0
  184.3790  180.1880  139.0670 O   0  0  0  0  0  0  0  0  0  0  0  0
  185.6140  178.2390  139.4320 N   0  0  0  0  0  2  0  0  0  0  0  0
  184.6830  178.3450  142.2150 C   0  0  1  0  0  3  0  0  0  0  0  0
  186.0270  178.5300  142.5360 O   0  0  0  0  0  1  0  0  0  0  0  0
  183.8440  178.5220  143.4600 C   0  0  0  0  0  1  0  0  0  0  0  0
  189.6760  176.8060  142.2130 C   0  0  0  0  0  2  0  0  0  0  0  0
  189.3450  177.8970  143.0710 O   0  0  0  0  0  0  0  0  0  0  0  0
  191.3500  178.9390  143.8280 C   0  0  0  0  0  2  0  0  0  0  0  0
  190.1760  178.3600  144.0980 C   0  0  0  0  0  0  0  0  0  0  0  0
  189.7540  178.1730  145.4510 N   0  0  0  0  0  2  0  0  0  0  0  0
  188.8630  177.1040  145.8800 C   0  0  0  0  0  3  0  0  0  0  0  0
  188.6960  177.1620  147.3840 C   0  0  0  0  0  2  0  0  0  0  0  0
  187.6140  177.7110  146.4780 C   0  0  0  0  0  2  0  0  0  0  0  0
  1  2  2  0  0  0  0
  2 23  1  0  0  0  0
  3  8  1  0  0  0  0
  3  2  1  0  0  0  0
  4  3  2  0  0  0  0
  5  8  2  0  0  0  0
  6  7  2  0  0  0  0
  6  4  1  0  0  0  0
  7  5  1  0  0  0  0
  9  6  1  0  0  0  0
 11 10  1  0  0  0  0
 11  9  1  0  0  0  0
 12 13  2  0  0  0  0
 13  1  1  0  0  0  0
 14 15  1  0  0  0  0
 14 13  1  0  0  0  0
 15 19  1  0  0  0  0
 16 20  1  0  0  0  0
 17 16  1  0  0  0  0
 18 17  2  0  0  0  0
 19 17  1  0  0  0  0
 20 21  1  0  0  0  0
 20 22  1  1  0  0  0
 23 24  1  0  0  0  0
 24 26  1  0  0  0  0
 25 26  2  0  0  0  0
 26 27  1  0  0  0  0
 27 28  1  0  0  0  0
 28 30  1  0  0  0  0
 28 29  1  0  0  0  0
 30 29  1  0  0  0  0
M  END
>  <MODEL>
4

>  <REMARK>
 VINA RESULT:      -7.1      2.712      7.373
  Name = 
  13 active torsions:
  status: ('A' for Active; 'I' for Inactive)
    1  A    between atoms: C_1  and  N_29
    2  A    between atoms: C_2  and  N_3
    3  A    between atoms: C_5  and  C_18
    4  A    between atoms: S_12  and  C_17
    5  A    between atoms: C_13  and  C_14
    6  A    between atoms: C_13  and  C_26
    7  A    between atoms: C_14  and  N_24
    8  A    between atoms: C_15  and  C_26
    9  A    between atoms: C_17  and  C_19
   10  A    between atoms: C_18  and  C_25
   11  A    between atoms: C_25  and  O_30
   12  A    between atoms: C_27  and  N_29
   13  A    between atoms: C_27  and  O_30
                            x       y       z     vdW  Elec       q    Type
                         _______ _______ _______ _____ _____    ______ ____

>  <TORSDO>
F 13

$$$$
=
 OpenBabel11042412043D

 30 31  0  0  1  0  0  0  0  0999 V2000
  187.0290  177.6090  142.5970 C   0  0  0  0  0  3  0  0  0  0  0  0
  186.1820  178.0650  143.5310 C   0  0  0  0  0  0  0  0  0  0  0  0
  186.4910  178.1000  144.9760 C   0  0  0  0  0  0  0  0  0  0  0  0
  187.6310  177.4600  145.4800 C   0  0  0  0  0  3  0  0  0  0  0  0
  186.0060  178.8930  147.2040 C   0  0  0  0  0  3  0  0  0  0  0  0
  187.9160  177.5340  146.8450 C   0  0  0  0  0  0  0  0  0  0  0  0
  187.1050  178.2450  147.6710 N   0  0  0  0  0  0  0  0  0  0  0  0
  185.6820  178.8360  145.8470 C   0  0  0  0  0  3  0  0  0  0  0  0
  189.1310  176.8690  147.3870 C   0  0  0  0  0  2  0  0  0  0  0  0
  191.6580  176.2120  147.3470 C   0  0  0  0  0  1  0  0  0  0  0  0
  190.5150  177.0680  146.2330 S   0  0  0  0  0  0  0  0  0  0  0  0
  188.4130  175.7150  143.0500 O   0  0  0  0  0  0  0  0  0  0  0  0
  188.3290  176.9500  142.8140 C   0  0  0  0  0  0  0  0  0  0  0  0
  189.5750  177.7470  142.6550 C   0  0  0  0  0  2  0  0  0  0  0  0
  190.3630  177.2390  141.4600 C   0  0  0  0  0  2  0  0  0  0  0  0
  189.1570  177.2570  137.8260 N   0  0  0  0  0  2  0  0  0  0  0  0
  189.8490  176.8640  139.0110 C   0  0  0  0  0  0  0  0  0  0  0  0
  190.6180  175.8670  138.9710 O   0  0  0  0  0  0  0  0  0  0  0  0
  189.6840  177.6030  140.2250 N   0  0  0  0  0  2  0  0  0  0  0  0
  188.2880  178.4240  137.7750 C   0  0  1  0  0  3  0  0  0  0  0  0
  189.0380  179.5570  137.4640 O   0  0  0  0  0  1  0  0  0  0  0  0
  187.2340  178.2160  136.7110 C   0  0  0  0  0  1  0  0  0  0  0  0
  184.8600  178.5870  143.0670 C   0  0  0  0  0  2  0  0  0  0  0  0
  184.9690  179.1160  141.7460 O   0  0  0  0  0  0  0  0  0  0  0  0
  184.2990  179.1660  139.4600 C   0  0  0  0  0  2  0  0  0  0  0  0
  184.0220  178.8970  140.7390 C   0  0  0  0  0  0  0  0  0  0  0  0
  182.7330  178.4030  141.1130 N   0  0  0  0  0  2  0  0  0  0  0  0
  181.5130  178.6810  140.3680 C   0  0  0  0  0  3  0  0  0  0  0  0
  180.3410  178.0120  141.0550 C   0  0  0  0  0  2  0  0  0  0  0  0
  180.5800  179.4960  141.2350 C   0  0  0  0  0  2  0  0  0  0  0  0
  1 13  1  0  0  0  0
  1  2  2  0  0  0  0
  2  3  1  0  0  0  0
  3  4  2  0  0  0  0
  3  8  1  0  0  0  0
  4  6  1  0  0  0  0
  5  7  1  0  0  0  0
  6  9  1  0  0  0  0
  6  7  2  0  0  0  0
  8  5  2  0  0  0  0
 11 10  1  0  0  0  0
 11  9  1  0  0  0  0
 13 12  2  0  0  0  0
 14 13  1  0  0  0  0
 15 14  1  0  0  0  0
 16 17  1  0  0  0  0
 17 19  1  0  0  0  0
 18 17  2  0  0  0  0
 19 15  1  0  0  0  0
 20 22  1  6  0  0  0
 20 16  1  0  0  0  0
 21 20  1  0  0  0  0
 23  2  1  0  0  0  0
 24 23  1  0  0  0  0
 25 26  2  0  0  0  0
 26 27  1  0  0  0  0
 26 24  1  0  0  0  0
 28 29  1  0  0  0  0
 28 27  1  0  0  0  0
 28 30  1  0  0  0  0
 29 30  1  0  0  0  0
M  END
>  <MODEL>
5

>  <REMARK>
 VINA RESULT:      -7.1      1.633      2.709
  Name = 
  13 active torsions:
  status: ('A' for Active; 'I' for Inactive)
    1  A    between atoms: C_1  and  N_29
    2  A    between atoms: C_2  and  N_3
    3  A    between atoms: C_5  and  C_18
    4  A    between atoms: S_12  and  C_17
    5  A    between atoms: C_13  and  C_14
    6  A    between atoms: C_13  and  C_26
    7  A    between atoms: C_14  and  N_24
    8  A    between atoms: C_15  and  C_26
    9  A    between atoms: C_17  and  C_19
   10  A    between atoms: C_18  and  C_25
   11  A    between atoms: C_25  and  O_30
   12  A    between atoms: C_27  and  N_29
   13  A    between atoms: C_27  and  O_30
                            x       y       z     vdW  Elec       q    Type
                         _______ _______ _______ _____ _____    ______ ____

>  <TORSDO>
F 13

$$$$
=
 OpenBabel11042412043D

 30 31  0  0  1  0  0  0  0  0999 V2000
  189.1730  177.3950  142.1050 C   0  0  0  0  0  3  0  0  0  0  0  0
  188.9040  177.6780  140.8220 C   0  0  0  0  0  0  0  0  0  0  0  0
  189.6310  177.0890  139.6790 C   0  0  0  0  0  0  0  0  0  0  0  0
  191.0310  177.1280  139.6230 C   0  0  0  0  0  3  0  0  0  0  0  0
  189.6300  175.8350  137.6150 C   0  0  0  0  0  3  0  0  0  0  0  0
  191.6950  176.5370  138.5460 C   0  0  0  0  0  0  0  0  0  0  0  0
  190.9870  175.9060  137.5740 N   0  0  0  0  0  0  0  0  0  0  0  0
  188.9280  176.4200  138.6710 C   0  0  0  0  0  3  0  0  0  0  0  0
  193.1810  176.5620  138.4860 C   0  0  0  0  0  2  0  0  0  0  0  0
  194.2620  176.1060  136.1530 C   0  0  0  0  0  1  0  0  0  0  0  0
  193.7910  175.1090  137.5910 S   0  0  0  0  0  0  0  0  0  0  0  0
  190.3160  175.3320  142.4860 O   0  0  0  0  0  0  0  0  0  0  0  0
  190.2870  176.5840  142.6260 C   0  0  0  0  0  0  0  0  0  0  0  0
  191.4490  177.2740  143.2480 C   0  0  0  0  0  2  0  0  0  0  0  0
  191.4690  177.0070  144.7420 C   0  0  0  0  0  2  0  0  0  0  0  0
  188.5520  177.3450  147.2000 N   0  0  0  0  0  2  0  0  0  0  0  0
  189.8340  177.0020  146.6740 C   0  0  0  0  0  0  0  0  0  0  0  0
  190.6580  176.3950  147.4090 O   0  0  0  0  0  0  0  0  0  0  0  0
  190.1740  177.3300  145.3240 N   0  0  0  0  0  2  0  0  0  0  0  0
  187.5280  178.0040  146.4030 C   0  0  1  0  0  3  0  0  0  0  0  0
  186.9080  177.0730  145.5700 O   0  0  0  0  0  1  0  0  0  0  0  0
  186.4950  178.6150  147.3230 C   0  0  0  0  0  1  0  0  0  0  0  0
  187.7840  178.6300  140.5460 C   0  0  0  0  0  2  0  0  0  0  0  0
  186.8610  178.6420  141.6350 O   0  0  0  0  0  0  0  0  0  0  0  0
  184.9120  179.0110  140.3150 C   0  0  0  0  0  2  0  0  0  0  0  0
  185.5130  178.9950  141.5080 C   0  0  0  0  0  0  0  0  0  0  0  0
  184.7930  179.3670  142.6870 N   0  0  0  0  0  2  0  0  0  0  0  0
  184.0900  178.4170  143.5380 C   0  0  0  0  0  3  0  0  0  0  0  0
  183.9310  179.0070  144.9240 C   0  0  0  0  0  2  0  0  0  0  0  0
  182.7660  179.0150  143.9560 C   0  0  0  0  0  2  0  0  0  0  0  0
  1 13  1  0  0  0  0
  2  1  2  0  0  0  0
  3  2  1  0  0  0  0
  4  3  1  0  0  0  0
  5  8  1  0  0  0  0
  6  4  2  0  0  0  0
  7  5  2  0  0  0  0
  7  6  1  0  0  0  0
  8  3  2  0  0  0  0
  9  6  1  0  0  0  0
 10 11  1  0  0  0  0
 11  9  1  0  0  0  0
 12 13  2  0  0  0  0
 13 14  1  0  0  0  0
 14 15  1  0  0  0  0
 15 19  1  0  0  0  0
 17 16  1  0  0  0  0
 17 18  2  0  0  0  0
 19 17  1  0  0  0  0
 20 16  1  0  0  0  0
 20 22  1  1  0  0  0
 21 20  1  0  0  0  0
 23  2  1  0  0  0  0
 23 24  1  0  0  0  0
 25 26  2  0  0  0  0
 26 24  1  0  0  0  0
 26 27  1  0  0  0  0
 27 28  1  0  0  0  0
 28 30  1  0  0  0  0
 28 29  1  0  0  0  0
 30 29  1  0  0  0  0
M  END
>  <MODEL>
6

>  <REMARK>
 VINA RESULT:      -7.0      2.409      7.002
  Name = 
  13 active torsions:
  status: ('A' for Active; 'I' for Inactive)
    1  A    between atoms: C_1  and  N_29
    2  A    between atoms: C_2  and  N_3
    3  A    between atoms: C_5  and  C_18
    4  A    between atoms: S_12  and  C_17
    5  A    between atoms: C_13  and  C_14
    6  A    between atoms: C_13  and  C_26
    7  A    between atoms: C_14  and  N_24
    8  A    between atoms: C_15  and  C_26
    9  A    between atoms: C_17  and  C_19
   10  A    between atoms: C_18  and  C_25
   11  A    between atoms: C_25  and  O_30
   12  A    between atoms: C_27  and  N_29
   13  A    between atoms: C_27  and  O_30
                            x       y       z     vdW  Elec       q    Type
                         _______ _______ _______ _____ _____    ______ ____

>  <TORSDO>
F 13

$$$$
=
 OpenBabel11042412043D

 30 31  0  0  1  0  0  0  0  0999 V2000
  189.9040  177.0980  140.2540 C   0  0  0  0  0  3  0  0  0  0  0  0
  189.6150  177.0030  141.5600 C   0  0  0  0  0  0  0  0  0  0  0  0
  188.3420  177.4570  142.1570 C   0  0  0  0  0  0  0  0  0  0  0  0
  187.9690  177.0480  143.4450 C   0  0  0  0  0  3  0  0  0  0  0  0
  186.3460  178.8120  142.0570 C   0  0  0  0  0  3  0  0  0  0  0  0
  186.7740  177.5160  143.9970 C   0  0  0  0  0  0  0  0  0  0  0  0
  185.9950  178.3820  143.2980 N   0  0  0  0  0  0  0  0  0  0  0  0
  187.5280  178.3600  141.4660 C   0  0  0  0  0  3  0  0  0  0  0  0
  186.3770  177.0980  145.3680 C   0  0  0  0  0  2  0  0  0  0  0  0
  187.2880  178.2200  147.5430 C   0  0  0  0  0  1  0  0  0  0  0  0
  185.9550  178.5530  146.3630 S   0  0  0  0  0  0  0  0  0  0  0  0
  189.2560  178.9950  138.9540 O   0  0  0  0  0  0  0  0  0  0  0  0
  189.1110  177.7700  139.2100 C   0  0  0  0  0  0  0  0  0  0  0  0
  188.1870  176.9560  138.3740 C   0  0  0  0  0  2  0  0  0  0  0  0
  187.3930  177.8630  137.4500 C   0  0  0  0  0  2  0  0  0  0  0  0
  183.7100  178.3320  138.3880 N   0  0  0  0  0  2  0  0  0  0  0  0
  184.8750  177.8730  137.7020 C   0  0  0  0  0  0  0  0  0  0  0  0
  184.7440  177.0920  136.7220 O   0  0  0  0  0  0  0  0  0  0  0  0
  186.1750  178.3070  138.1130 N   0  0  0  0  0  2  0  0  0  0  0  0
  183.7720  179.2700  139.4980 C   0  0  1  0  0  3  0  0  0  0  0  0
  183.2770  180.5100  139.0950 O   0  0  0  0  0  1  0  0  0  0  0  0
  182.9330  178.7470  140.6420 C   0  0  0  0  0  1  0  0  0  0  0  0
  190.6410  176.3770  142.4500 C   0  0  0  0  0  2  0  0  0  0  0  0
  191.5890  177.3520  142.8810 O   0  0  0  0  0  0  0  0  0  0  0  0
  190.9350  179.3680  143.9710 C   0  0  0  0  0  2  0  0  0  0  0  0
  191.4350  178.1300  144.0340 C   0  0  0  0  0  0  0  0  0  0  0  0
  191.8530  177.5810  145.2870 N   0  0  0  0  0  2  0  0  0  0  0  0
  191.2430  176.4070  145.8980 C   0  0  0  0  0  3  0  0  0  0  0  0
  192.0530  175.9940  147.1090 C   0  0  0  0  0  2  0  0  0  0  0  0
  190.7620  176.7660  147.2850 C   0  0  0  0  0  2  0  0  0  0  0  0
  1  2  2  0  0  0  0
  2  3  1  0  0  0  0
  2 23  1  0  0  0  0
  3  4  1  0  0  0  0
  4  6  2  0  0  0  0
  5  7  2  0  0  0  0
  6  9  1  0  0  0  0
  7  6  1  0  0  0  0
  8  5  1  0  0  0  0
  8  3  2  0  0  0  0
  9 11  1  0  0  0  0
 11 10  1  0  0  0  0
 12 13  2  0  0  0  0
 13  1  1  0  0  0  0
 14 13  1  0  0  0  0
 15 19  1  0  0  0  0
 15 14  1  0  0  0  0
 16 20  1  0  0  0  0
 17 19  1  0  0  0  0
 17 16  1  0  0  0  0
 18 17  2  0  0  0  0
 20 22  1  1  0  0  0
 21 20  1  0  0  0  0
 23 24  1  0  0  0  0
 24 26  1  0  0  0  0
 25 26  2  0  0  0  0
 26 27  1  0  0  0  0
 27 28  1  0  0  0  0
 28 29  1  0  0  0  0
 28 30  1  0  0  0  0
 29 30  1  0  0  0  0
M  END
>  <MODEL>
7

>  <REMARK>
 VINA RESULT:      -6.8      2.745      6.704
  Name = 
  13 active torsions:
  status: ('A' for Active; 'I' for Inactive)
    1  A    between atoms: C_1  and  N_29
    2  A    between atoms: C_2  and  N_3
    3  A    between atoms: C_5  and  C_18
    4  A    between atoms: S_12  and  C_17
    5  A    between atoms: C_13  and  C_14
    6  A    between atoms: C_13  and  C_26
    7  A    between atoms: C_14  and  N_24
    8  A    between atoms: C_15  and  C_26
    9  A    between atoms: C_17  and  C_19
   10  A    between atoms: C_18  and  C_25
   11  A    between atoms: C_25  and  O_30
   12  A    between atoms: C_27  and  N_29
   13  A    between atoms: C_27  and  O_30
                            x       y       z     vdW  Elec       q    Type
                         _______ _______ _______ _____ _____    ______ ____

>  <TORSDO>
F 13

$$$$
=
 OpenBabel11042412043D

 30 31  0  0  1  0  0  0  0  0999 V2000
  189.0520  177.4140  142.1470 C   0  0  0  0  0  3  0  0  0  0  0  0
  188.7680  177.7300  140.8750 C   0  0  0  0  0  0  0  0  0  0  0  0
  189.5150  177.2090  139.7110 C   0  0  0  0  0  0  0  0  0  0  0  0
  188.8390  176.7780  138.5610 C   0  0  0  0  0  3  0  0  0  0  0  0
  191.6080  176.7460  138.5990 C   0  0  0  0  0  3  0  0  0  0  0  0
  189.5690  176.3180  137.4640 C   0  0  0  0  0  0  0  0  0  0  0  0
  190.9270  176.3130  137.5050 N   0  0  0  0  0  0  0  0  0  0  0  0
  190.9130  177.2070  139.7200 C   0  0  0  0  0  3  0  0  0  0  0  0
  188.8610  175.8720  136.2350 C   0  0  0  0  0  2  0  0  0  0  0  0
  189.4090  173.3210  136.1050 C   0  0  0  0  0  1  0  0  0  0  0  0
  187.9710  174.3260  136.5570 S   0  0  0  0  0  0  0  0  0  0  0  0
  190.2030  175.3710  142.6030 O   0  0  0  0  0  0  0  0  0  0  0  0
  190.1990  176.6310  142.6390 C   0  0  0  0  0  0  0  0  0  0  0  0
  191.4170  177.3500  143.0990 C   0  0  0  0  0  2  0  0  0  0  0  0
  191.8250  176.8490  144.4730 C   0  0  0  0  0  2  0  0  0  0  0  0
  189.8070  177.0550  147.7210 N   0  0  0  0  0  2  0  0  0  0  0  0
  190.8430  176.7110  146.8010 C   0  0  0  0  0  0  0  0  0  0  0  0
  191.7990  175.9890  147.1940 O   0  0  0  0  0  0  0  0  0  0  0  0
  190.7900  177.1670  145.4460 N   0  0  0  0  0  2  0  0  0  0  0  0
  188.6460  177.8440  147.3350 C   0  0  1  0  0  3  0  0  0  0  0  0
  187.7710  177.0590  146.5840 O   0  0  0  0  0  1  0  0  0  0  0  0
  187.9370  178.3300  148.5790 C   0  0  0  0  0  1  0  0  0  0  0  0
  187.6110  178.6450  140.6330 C   0  0  0  0  0  2  0  0  0  0  0  0
  186.6540  178.5270  141.6860 O   0  0  0  0  0  0  0  0  0  0  0  0
  184.7220  179.0950  140.4120 C   0  0  0  0  0  2  0  0  0  0  0  0
  185.3360  178.9860  141.5940 C   0  0  0  0  0  0  0  0  0  0  0  0
  184.6620  179.3660  142.7970 N   0  0  0  0  0  2  0  0  0  0  0  0
  183.9930  178.4210  143.6810 C   0  0  0  0  0  3  0  0  0  0  0  0
  183.8340  179.0440  145.0530 C   0  0  0  0  0  2  0  0  0  0  0  0
  182.6590  178.9960  144.0990 C   0  0  0  0  0  2  0  0  0  0  0  0
  1 13  1  0  0  0  0
  2  1  2  0  0  0  0
  3  8  1  0  0  0  0
  3  2  1  0  0  0  0
  4  3  2  0  0  0  0
  5  8  2  0  0  0  0
  6  7  2  0  0  0  0
  6  4  1  0  0  0  0
  7  5  1  0  0  0  0
  9 11  1  0  0  0  0
  9  6  1  0  0  0  0
 10 11  1  0  0  0  0
 12 13  2  0  0  0  0
 13 14  1  0  0  0  0
 14 15  1  0  0  0  0
 15 19  1  0  0  0  0
 17 18  2  0  0  0  0
 17 16  1  0  0  0  0
 19 17  1  0  0  0  0
 20 16  1  0  0  0  0
 20 22  1  1  0  0  0
 21 20  1  0  0  0  0
 23  2  1  0  0  0  0
 23 24  1  0  0  0  0
 25 26  2  0  0  0  0
 26 24  1  0  0  0  0
 26 27  1  0  0  0  0
 27 28  1  0  0  0  0
 28 30  1  0  0  0  0
 28 29  1  0  0  0  0
 30 29  1  0  0  0  0
M  END
>  <MODEL>
8

>  <REMARK>
 VINA RESULT:      -6.7      2.713      7.282
  Name = 
  13 active torsions:
  status: ('A' for Active; 'I' for Inactive)
    1  A    between atoms: C_1  and  N_29
    2  A    between atoms: C_2  and  N_3
    3  A    between atoms: C_5  and  C_18
    4  A    between atoms: S_12  and  C_17
    5  A    between atoms: C_13  and  C_14
    6  A    between atoms: C_13  and  C_26
    7  A    between atoms: C_14  and  N_24
    8  A    between atoms: C_15  and  C_26
    9  A    between atoms: C_17  and  C_19
   10  A    between atoms: C_18  and  C_25
   11  A    between atoms: C_25  and  O_30
   12  A    between atoms: C_27  and  N_29
   13  A    between atoms: C_27  and  O_30
                            x       y       z     vdW  Elec       q    Type
                         _______ _______ _______ _____ _____    ______ ____

>  <TORSDO>
F 13

$$$$
=
 OpenBabel11042412043D

 30 31  0  0  1  0  0  0  0  0999 V2000
  189.4000  178.2110  139.3080 C   0  0  0  0  0  3  0  0  0  0  0  0
  190.3190  177.2470  139.4660 C   0  0  0  0  0  0  0  0  0  0  0  0
  190.8430  176.4190  138.3610 C   0  0  0  0  0  0  0  0  0  0  0  0
  192.1420  176.6140  137.8730 C   0  0  0  0  0  3  0  0  0  0  0  0
  190.5890  174.5790  136.8180 C   0  0  0  0  0  3  0  0  0  0  0  0
  192.6240  175.7980  136.8480 C   0  0  0  0  0  0  0  0  0  0  0  0
  191.8440  174.8040  136.3470 N   0  0  0  0  0  0  0  0  0  0  0  0
  190.0680  175.3800  137.8370 C   0  0  0  0  0  3  0  0  0  0  0  0
  194.0060  175.9890  136.3330 C   0  0  0  0  0  2  0  0  0  0  0  0
  195.4790  174.1230  135.2510 C   0  0  0  0  0  1  0  0  0  0  0  0
  195.0820  174.6600  136.9350 S   0  0  0  0  0  0  0  0  0  0  0  0
  189.0050  179.4780  137.3210 O   0  0  0  0  0  0  0  0  0  0  0  0
  188.6510  178.5380  138.0820 C   0  0  0  0  0  0  0  0  0  0  0  0
  187.5060  177.6740  137.6860 C   0  0  0  0  0  2  0  0  0  0  0  0
  186.2040  178.4400  137.8380 C   0  0  0  0  0  2  0  0  0  0  0  0
  184.4150  179.2870  141.1160 N   0  0  0  0  0  2  0  0  0  0  0  0
  184.8010  179.3390  139.7420 C   0  0  0  0  0  0  0  0  0  0  0  0
  184.2780  180.2020  138.9890 O   0  0  0  0  0  0  0  0  0  0  0  0
  185.7810  178.4310  139.2310 N   0  0  0  0  0  2  0  0  0  0  0  0
  185.0050  178.3520  142.0620 C   0  0  1  0  0  3  0  0  0  0  0  0
  186.3400  178.6870  142.2840 O   0  0  0  0  0  1  0  0  0  0  0  0
  184.2500  178.4220  143.3710 C   0  0  0  0  0  1  0  0  0  0  0  0
  190.8540  177.0260  140.8450 C   0  0  0  0  0  2  0  0  0  0  0  0
  190.0210  177.6640  141.8120 O   0  0  0  0  0  0  0  0  0  0  0  0
  191.6590  177.7720  143.5380 C   0  0  0  0  0  2  0  0  0  0  0  0
  190.3830  177.8500  143.1500 C   0  0  0  0  0  0  0  0  0  0  0  0
  189.3490  178.1000  144.1070 N   0  0  0  0  0  2  0  0  0  0  0  0
  188.8560  177.1000  145.0440 C   0  0  0  0  0  3  0  0  0  0  0  0
  188.1490  177.7920  146.1910 C   0  0  0  0  0  2  0  0  0  0  0  0
  187.3450  177.1560  145.0760 C   0  0  0  0  0  2  0  0  0  0  0  0
  1  2  2  0  0  0  0
  2 23  1  0  0  0  0
  3  2  1  0  0  0  0
  4  3  1  0  0  0  0
  5  8  1  0  0  0  0
  6  4  2  0  0  0  0
  7  5  2  0  0  0  0
  7  6  1  0  0  0  0
  8  3  2  0  0  0  0
  9  6  1  0  0  0  0
  9 11  1  0  0  0  0
 10 11  1  0  0  0  0
 12 13  2  0  0  0  0
 13  1  1  0  0  0  0
 14 15  1  0  0  0  0
 14 13  1  0  0  0  0
 15 19  1  0  0  0  0
 16 20  1  0  0  0  0
 17 16  1  0  0  0  0
 18 17  2  0  0  0  0
 19 17  1  0  0  0  0
 20 21  1  0  0  0  0
 20 22  1  1  0  0  0
 23 24  1  0  0  0  0
 24 26  1  0  0  0  0
 26 25  2  0  0  0  0
 26 27  1  0  0  0  0
 27 28  1  0  0  0  0
 28 30  1  0  0  0  0
 28 29  1  0  0  0  0
 30 29  1  0  0  0  0
M  END
>  <MODEL>
9

>  <REMARK>
 VINA RESULT:      -6.7      2.816      7.946
  Name = 
  13 active torsions:
  status: ('A' for Active; 'I' for Inactive)
    1  A    between atoms: C_1  and  N_29
    2  A    between atoms: C_2  and  N_3
    3  A    between atoms: C_5  and  C_18
    4  A    between atoms: S_12  and  C_17
    5  A    between atoms: C_13  and  C_14
    6  A    between atoms: C_13  and  C_26
    7  A    between atoms: C_14  and  N_24
    8  A    between atoms: C_15  and  C_26
    9  A    between atoms: C_17  and  C_19
   10  A    between atoms: C_18  and  C_25
   11  A    between atoms: C_25  and  O_30
   12  A    between atoms: C_27  and  N_29
   13  A    between atoms: C_27  and  O_30
                            x       y       z     vdW  Elec       q    Type
                         _______ _______ _______ _____ _____    ______ ____

>  <TORSDO>
F 13

$$$$
