=
 OpenBabel11042412123D

 37 41  0  0  1  0  0  0  0  0999 V2000
  185.6050  178.2620  144.5680 C   0  0  0  0  0  0  0  0  0  0  0  0
  184.3340  178.4960  144.0180 C   0  0  0  0  0  0  0  0  0  0  0  0
  187.3090  177.9840  146.2000 N   0  0  0  0  0  0  0  0  0  0  0  0
  181.9680  178.9680  142.5880 C   0  0  0  0  0  0  0  0  0  0  0  0
  185.9110  178.2090  142.0540 S   0  0  0  0  0  0  0  0  0  0  0  0
  185.9950  178.2060  145.9100 C   0  0  0  0  0  0  0  0  0  0  0  0
  186.5740  178.0880  143.5960 C   0  0  0  0  0  0  0  0  0  0  0  0
  181.9760  178.9710  144.0000 C   0  0  0  0  0  3  0  0  0  0  0  0
  185.0570  178.3720  146.9690 N   0  0  0  0  0  1  0  0  0  0  0  0
  188.2430  177.8260  145.2160 C   0  0  0  0  0  0  0  0  0  0  0  0
  183.1680  178.7230  141.8750 C   0  0  0  0  0  0  0  0  0  0  0  0
  187.8750  177.8820  143.9050 N   0  0  0  0  0  2  0  0  0  0  0  0
  183.1520  178.7310  144.7190 C   0  0  0  0  0  3  0  0  0  0  0  0
  189.4470  177.6360  145.5220 O   0  0  0  0  0  0  0  0  0  0  0  0
  184.3370  178.4940  142.6210 C   0  0  0  0  0  0  0  0  0  0  0  0
  184.1670  179.6430  139.8420 N   0  0  0  0  0  2  0  0  0  0  0  0
  184.5520  177.7270  138.4530 C   0  0  1  0  0  3  0  0  0  0  0  0
  184.3990  179.2320  138.4700 C   0  0  0  0  0  2  0  0  0  0  0  0
  183.1630  178.7330  140.3680 C   0  0  1  0  0  3  0  0  0  0  0  0
  183.4040  177.0630  139.6800 S   0  0  0  0  0  0  0  0  0  0  0  0
  184.2140  177.2180  137.1350 N   0  0  0  0  0  2  0  0  0  0  0  0
  185.3580  176.0600  135.0550 O   0  0  0  0  0  0  0  0  0  0  0  0
  185.7330  175.0280  137.2400 O   0  0  0  0  0  0  0  0  0  0  0  0
  185.5750  176.3370  136.5150 S   0  0  0  0  0  0  0  0  0  0  0  0
  187.0800  177.3100  136.7000 C   0  0  0  0  0  2  0  0  0  0  0  0
  187.7800  177.1170  137.9790 N   0  0  0  0  0  0  0  0  0  0  0  0
  190.1730  176.7900  139.0790 S   0  0  0  0  0  0  0  0  0  0  0  0
  188.1080  178.3690  138.5260 N   0  0  0  0  0  2  0  0  0  0  0  0
  189.0170  176.3860  137.7500 C   0  0  0  0  0  2  0  0  0  0  0  0
  189.0710  178.1320  139.5870 C   0  0  0  0  0  2  0  0  0  0  0  0
  180.1140  180.4360  142.3640 O   0  0  0  0  0  1  0  0  0  0  0  0
  180.6970  179.2750  141.8510 C   0  0  2  0  0  3  0  0  0  0  0  0
  179.7130  178.1150  141.9160 C   0  0  0  0  0  2  0  0  0  0  0  0
  179.3930  176.0390  140.7100 C   0  0  0  0  0  0  0  0  0  0  0  0
  178.9330  174.8210  140.7140 C   0  0  0  0  0  3  0  0  0  0  0  0
  179.3160  173.8820  141.8010 C   0  0  0  0  0  1  0  0  0  0  0  0
  179.8470  177.2610  140.7040 C   0  0  0  0  0  3  0  0  0  0  0  0
  1  6  1  0  0  0  0
  2  1  1  0  0  0  0
  2 13  1  0  0  0  0
  4  8  1  0  0  0  0
  5 15  1  0  0  0  0
  5  7  1  0  0  0  0
  6  3  2  0  0  0  0
  6  9  1  0  0  0  0
  7 12  1  0  0  0  0
  7  1  2  0  0  0  0
  8 13  2  0  0  0  0
 10 14  2  0  0  0  0
 10  3  1  0  0  0  0
 11  4  2  0  0  0  0
 11 15  1  0  0  0  0
 12 10  1  0  0  0  0
 15  2  2  0  0  0  0
 16 19  1  0  0  0  0
 17 21  1  6  0  0  0
 17 18  1  0  0  0  0
 17 20  1  0  0  0  0
 18 16  1  0  0  0  0
 19 11  1  1  0  0  0
 20 19  1  0  0  0  0
 22 24  2  0  0  0  0
 24 25  1  0  0  0  0
 24 21  1  0  0  0  0
 24 23  2  0  0  0  0
 25 26  1  0  0  0  0
 26 28  1  0  0  0  0
 27 30  1  0  0  0  0
 28 30  1  0  0  0  0
 29 26  1  0  0  0  0
 29 27  1  0  0  0  0
 32 33  1  0  0  0  0
 32 31  1  1  0  0  0
 32  4  1  0  0  0  0
 34 35  2  0  0  0  0
 35 36  1  0  0  0  0
 37 34  2  0  0  0  0
 37 33  1  0  0  0  0
M  END
>  <MODEL>
1

>  <REMARK>
 VINA RESULT:      -8.5      0.000      0.000
  Name = 
  8 active torsions:
  status: ('A' for Active; 'I' for Inactive)
    1  A    between atoms: C_6  and  C_31
    2  A    between atoms: C_6  and  C_34
    3  A    between atoms: C_7  and  N_21
    4  A    between atoms: C_9  and  C_31
    5  A    between atoms: N_11  and  C_27
    6  A    between atoms: C_20  and  C_25
    7  A    between atoms: N_21  and  S_36
    8  A    between atoms: C_27  and  S_36
                            x       y       z     vdW  Elec       q    Type
                         _______ _______ _______ _____ _____    ______ ____

>  <TORSDO>
F 8

$$$$
=
 OpenBabel11042412123D

 37 41  0  0  1  0  0  0  0  0999 V2000
  185.3730  178.3910  144.6360 C   0  0  0  0  0  0  0  0  0  0  0  0
  186.7220  178.0750  144.8620 C   0  0  0  0  0  0  0  0  0  0  0  0
  183.0800  178.8250  145.0880 N   0  0  0  0  0  0  0  0  0  0  0  0
  189.4500  177.4280  144.9400 C   0  0  0  0  0  0  0  0  0  0  0  0
  186.4670  178.3350  142.3530 S   0  0  0  0  0  0  0  0  0  0  0  0
  184.3270  178.5310  145.5550 C   0  0  0  0  0  0  0  0  0  0  0  0
  185.0900  178.5600  143.2920 C   0  0  0  0  0  0  0  0  0  0  0  0
  188.6850  177.4950  146.1250 C   0  0  0  0  0  3  0  0  0  0  0  0
  184.5380  178.3750  146.9560 N   0  0  0  0  0  1  0  0  0  0  0  0
  182.8330  178.9760  143.7530 C   0  0  0  0  0  0  0  0  0  0  0  0
  188.8390  177.6900  143.6890 C   0  0  0  0  0  0  0  0  0  0  0  0
  183.8430  178.8400  142.8480 N   0  0  0  0  0  2  0  0  0  0  0  0
  187.3250  177.8210  146.0930 C   0  0  0  0  0  3  0  0  0  0  0  0
  181.6680  179.2340  143.3590 O   0  0  0  0  0  0  0  0  0  0  0  0
  187.4690  178.0080  143.6830 C   0  0  0  0  0  0  0  0  0  0  0  0
  189.6540  176.2560  141.8850 N   0  0  0  0  0  2  0  0  0  0  0  0
  189.2250  177.5140  139.8890 C   0  0  1  0  0  3  0  0  0  0  0  0
  190.0300  176.3830  140.4890 C   0  0  0  0  0  2  0  0  0  0  0  0
  189.6510  177.6070  142.4230 C   0  0  1  0  0  3  0  0  0  0  0  0
  189.0660  178.7850  141.1630 S   0  0  0  0  0  0  0  0  0  0  0  0
  189.9280  178.0540  138.7380 N   0  0  0  0  0  2  0  0  0  0  0  0
  189.4130  177.6820  136.1740 O   0  0  0  0  0  0  0  0  0  0  0  0
  188.4570  179.6780  137.2150 O   0  0  0  0  0  0  0  0  0  0  0  0
  188.7990  178.2280  137.4310 S   0  0  0  0  0  0  0  0  0  0  0  0
  187.2930  177.3040  137.7850 C   0  0  0  0  0  2  0  0  0  0  0  0
  186.0580  178.0990  137.7220 N   0  0  0  0  0  0  0  0  0  0  0  0
  183.4210  177.9810  138.0020 S   0  0  0  0  0  0  0  0  0  0  0  0
  185.7960  178.6590  138.9840 N   0  0  0  0  0  2  0  0  0  0  0  0
  184.9410  177.2350  137.3700 C   0  0  0  0  0  2  0  0  0  0  0  0
  184.4260  179.1390  138.9610 C   0  0  0  0  0  2  0  0  0  0  0  0
  191.0490  175.7090  144.5760 O   0  0  0  0  0  1  0  0  0  0  0  0
  190.8950  177.0290  145.0090 C   0  0  2  0  0  3  0  0  0  0  0  0
  191.4590  177.1950  146.4130 C   0  0  0  0  0  2  0  0  0  0  0  0
  192.6270  175.8340  148.0410 C   0  0  0  0  0  0  0  0  0  0  0  0
  193.0600  175.7020  149.2630 C   0  0  0  0  0  3  0  0  0  0  0  0
  193.8880  176.7720  149.8780 C   0  0  0  0  0  1  0  0  0  0  0  0
  192.1870  175.9610  146.8210 C   0  0  0  0  0  3  0  0  0  0  0  0
  1  2  1  0  0  0  0
  1  6  1  0  0  0  0
  2 13  1  0  0  0  0
  3  6  2  0  0  0  0
  4 32  1  0  0  0  0
  4  8  1  0  0  0  0
  5  7  1  0  0  0  0
  5 15  1  0  0  0  0
  6  9  1  0  0  0  0
  7  1  2  0  0  0  0
 10  3  1  0  0  0  0
 11  4  2  0  0  0  0
 12  7  1  0  0  0  0
 12 10  1  0  0  0  0
 13  8  2  0  0  0  0
 14 10  2  0  0  0  0
 15 11  1  0  0  0  0
 15  2  2  0  0  0  0
 16 19  1  0  0  0  0
 17 21  1  6  0  0  0
 17 18  1  0  0  0  0
 17 20  1  0  0  0  0
 18 16  1  0  0  0  0
 19 11  1  1  0  0  0
 20 19  1  0  0  0  0
 22 24  2  0  0  0  0
 23 24  2  0  0  0  0
 24 25  1  0  0  0  0
 24 21  1  0  0  0  0
 26 25  1  0  0  0  0
 26 28  1  0  0  0  0
 27 30  1  0  0  0  0
 29 26  1  0  0  0  0
 29 27  1  0  0  0  0
 30 28  1  0  0  0  0
 32 31  1  1  0  0  0
 32 33  1  0  0  0  0
 33 37  1  0  0  0  0
 34 35  2  0  0  0  0
 35 36  1  0  0  0  0
 37 34  2  0  0  0  0
M  END
>  <MODEL>
2

>  <REMARK>
 VINA RESULT:      -8.3      2.946      7.601
  Name = 
  8 active torsions:
  status: ('A' for Active; 'I' for Inactive)
    1  A    between atoms: C_6  and  C_31
    2  A    between atoms: C_6  and  C_34
    3  A    between atoms: C_7  and  N_21
    4  A    between atoms: C_9  and  C_31
    5  A    between atoms: N_11  and  C_27
    6  A    between atoms: C_20  and  C_25
    7  A    between atoms: N_21  and  S_36
    8  A    between atoms: C_27  and  S_36
                            x       y       z     vdW  Elec       q    Type
                         _______ _______ _______ _____ _____    ______ ____

>  <TORSDO>
F 8

$$$$
=
 OpenBabel11042412123D

 37 41  0  0  1  0  0  0  0  0999 V2000
  184.2620  178.5090  143.0760 C   0  0  0  0  0  0  0  0  0  0  0  0
  185.3180  178.2170  143.9550 C   0  0  0  0  0  0  0  0  0  0  0  0
  182.0640  179.0090  142.3240 N   0  0  0  0  0  0  0  0  0  0  0  0
  187.6320  177.5710  145.4000 C   0  0  0  0  0  0  0  0  0  0  0  0
  186.3020  178.1550  141.6180 S   0  0  0  0  0  0  0  0  0  0  0  0
  182.9170  178.7710  143.3610 C   0  0  0  0  0  0  0  0  0  0  0  0
  184.6620  178.5060  141.7520 C   0  0  0  0  0  0  0  0  0  0  0  0
  186.4030  177.7930  146.0580 C   0  0  0  0  0  3  0  0  0  0  0  0
  182.4270  178.7950  144.6980 N   0  0  0  0  0  1  0  0  0  0  0  0
  182.4900  178.9890  141.0260 C   0  0  0  0  0  0  0  0  0  0  0  0
  187.7070  177.6740  143.9890 C   0  0  0  0  0  0  0  0  0  0  0  0
  183.7970  178.7330  140.7370 N   0  0  0  0  0  2  0  0  0  0  0  0
  185.2460  178.1200  145.3430 C   0  0  0  0  0  3  0  0  0  0  0  0
  181.6710  179.2010  140.0970 O   0  0  0  0  0  0  0  0  0  0  0  0
  186.5290  177.9960  143.2920 C   0  0  0  0  0  0  0  0  0  0  0  0
  189.1870  176.0150  142.9720 N   0  0  0  0  0  2  0  0  0  0  0  0
  189.8370  177.0020  140.8850 C   0  0  1  0  0  3  0  0  0  0  0  0
  190.1870  175.9580  141.9220 C   0  0  0  0  0  2  0  0  0  0  0  0
  189.0160  177.4250  143.2840 C   0  0  1  0  0  3  0  0  0  0  0  0
  189.1740  178.4290  141.7730 S   0  0  0  0  0  0  0  0  0  0  0  0
  191.0340  177.3870  140.1570 N   0  0  0  0  0  2  0  0  0  0  0  0
  190.5960  175.2460  138.6720 O   0  0  0  0  0  0  0  0  0  0  0  0
  192.2900  176.8190  137.8730 O   0  0  0  0  0  0  0  0  0  0  0  0
  190.9590  176.7000  138.5650 S   0  0  0  0  0  0  0  0  0  0  0  0
  189.6990  177.5380  137.5860 C   0  0  0  0  0  2  0  0  0  0  0  0
  188.3430  176.9920  137.7380 N   0  0  0  0  0  0  0  0  0  0  0  0
  185.7650  177.5570  137.4530 S   0  0  0  0  0  0  0  0  0  0  0  0
  187.9570  176.3600  136.5430 N   0  0  0  0  0  2  0  0  0  0  0  0
  187.4080  178.0760  137.9980 C   0  0  0  0  0  2  0  0  0  0  0  0
  186.5230  176.1410  136.6210 C   0  0  0  0  0  2  0  0  0  0  0  0
  188.5020  177.0320  147.5440 O   0  0  0  0  0  1  0  0  0  0  0  0
  188.8420  177.1770  146.1960 C   0  0  2  0  0  3  0  0  0  0  0  0
  189.9730  178.1840  146.0410 C   0  0  0  0  0  2  0  0  0  0  0  0
  191.7430  176.5380  146.1970 C   0  0  0  0  0  0  0  0  0  0  0  0
  192.2880  175.5640  146.8670 C   0  0  0  0  0  3  0  0  0  0  0  0
  192.6190  175.7430  148.3060 C   0  0  0  0  0  1  0  0  0  0  0  0
  191.1940  177.5080  145.5210 C   0  0  0  0  0  3  0  0  0  0  0  0
  1  6  1  0  0  0  0
  1  2  1  0  0  0  0
  2 13  1  0  0  0  0
  3  6  2  0  0  0  0
  4  8  1  0  0  0  0
  4 32  1  0  0  0  0
  5  7  1  0  0  0  0
  5 15  1  0  0  0  0
  6  9  1  0  0  0  0
  7  1  2  0  0  0  0
 10  3  1  0  0  0  0
 11  4  2  0  0  0  0
 12 10  1  0  0  0  0
 12  7  1  0  0  0  0
 13  8  2  0  0  0  0
 14 10  2  0  0  0  0
 15  2  2  0  0  0  0
 15 11  1  0  0  0  0
 16 19  1  0  0  0  0
 17 21  1  1  0  0  0
 17 20  1  0  0  0  0
 17 18  1  0  0  0  0
 18 16  1  0  0  0  0
 19 11  1  6  0  0  0
 20 19  1  0  0  0  0
 23 24  2  0  0  0  0
 24 22  2  0  0  0  0
 24 21  1  0  0  0  0
 25 26  1  0  0  0  0
 25 24  1  0  0  0  0
 26 29  1  0  0  0  0
 27 29  1  0  0  0  0
 28 30  1  0  0  0  0
 28 26  1  0  0  0  0
 30 27  1  0  0  0  0
 32 31  1  1  0  0  0
 33 32  1  0  0  0  0
 34 35  2  0  0  0  0
 35 36  1  0  0  0  0
 37 33  1  0  0  0  0
 37 34  2  0  0  0  0
M  END
>  <MODEL>
3

>  <REMARK>
 VINA RESULT:      -8.2      2.826      7.201
  Name = 
  8 active torsions:
  status: ('A' for Active; 'I' for Inactive)
    1  A    between atoms: C_6  and  C_31
    2  A    between atoms: C_6  and  C_34
    3  A    between atoms: C_7  and  N_21
    4  A    between atoms: C_9  and  C_31
    5  A    between atoms: N_11  and  C_27
    6  A    between atoms: C_20  and  C_25
    7  A    between atoms: N_21  and  S_36
    8  A    between atoms: C_27  and  S_36
                            x       y       z     vdW  Elec       q    Type
                         _______ _______ _______ _____ _____    ______ ____

>  <TORSDO>
F 8

$$$$
=
 OpenBabel11042412123D

 37 41  0  0  1  0  0  0  0  0999 V2000
  184.3030  178.5040  143.1860 C   0  0  0  0  0  0  0  0  0  0  0  0
  185.3290  178.2050  144.0970 C   0  0  0  0  0  0  0  0  0  0  0  0
  182.1390  179.0460  142.3670 N   0  0  0  0  0  0  0  0  0  0  0  0
  187.5880  177.5310  145.6140 C   0  0  0  0  0  0  0  0  0  0  0  0
  186.3680  178.0590  141.7880 S   0  0  0  0  0  0  0  0  0  0  0  0
  182.9600  178.8100  143.4300 C   0  0  0  0  0  0  0  0  0  0  0  0
  184.7350  178.4580  141.8720 C   0  0  0  0  0  0  0  0  0  0  0  0
  186.3500  177.8020  146.2360 C   0  0  0  0  0  3  0  0  0  0  0  0
  182.4380  178.8790  144.7540 N   0  0  0  0  0  1  0  0  0  0  0  0
  182.5960  178.9830  141.0810 C   0  0  0  0  0  0  0  0  0  0  0  0
  187.7000  177.5980  144.2040 C   0  0  0  0  0  0  0  0  0  0  0  0
  183.9020  178.6840  140.8300 N   0  0  0  0  0  2  0  0  0  0  0  0
  185.2200  178.1440  145.4850 C   0  0  0  0  0  3  0  0  0  0  0  0
  181.8070  179.1950  140.1260 O   0  0  0  0  0  0  0  0  0  0  0  0
  186.5490  177.9350  143.4710 C   0  0  0  0  0  0  0  0  0  0  0  0
  189.0870  175.9090  143.1070 N   0  0  0  0  0  2  0  0  0  0  0  0
  189.9250  177.0120  141.1500 C   0  0  1  0  0  3  0  0  0  0  0  0
  190.1320  175.8550  142.1020 C   0  0  0  0  0  2  0  0  0  0  0  0
  189.0180  177.2960  143.5390 C   0  0  1  0  0  3  0  0  0  0  0  0
  189.3390  178.4090  142.1330 S   0  0  0  0  0  0  0  0  0  0  0  0
  191.1860  177.3510  140.5140 N   0  0  0  0  0  2  0  0  0  0  0  0
  190.2610  177.6400  138.0570 O   0  0  0  0  0  0  0  0  0  0  0  0
  190.6370  175.3520  138.8340 O   0  0  0  0  0  0  0  0  0  0  0  0
  191.1600  176.7630  138.8810 S   0  0  0  0  0  0  0  0  0  0  0  0
  192.8180  176.8110  138.1770 C   0  0  0  0  0  2  0  0  0  0  0  0
  193.3540  175.5000  137.7840 N   0  0  0  0  0  0  0  0  0  0  0  0
  194.8170  174.2480  135.9580 S   0  0  0  0  0  0  0  0  0  0  0  0
  194.6090  175.3080  138.3860 N   0  0  0  0  0  2  0  0  0  0  0  0
  193.5340  175.4610  136.3410 C   0  0  0  0  0  2  0  0  0  0  0  0
  195.2350  174.1820  137.7160 C   0  0  0  0  0  2  0  0  0  0  0  0
  188.3860  177.0060  147.7900 O   0  0  0  0  0  1  0  0  0  0  0  0
  188.7660  177.1230  146.4500 C   0  0  2  0  0  3  0  0  0  0  0  0
  189.9220  178.1030  146.3120 C   0  0  0  0  0  2  0  0  0  0  0  0
  191.7260  176.4890  146.4090 C   0  0  0  0  0  0  0  0  0  0  0  0
  192.3360  175.5560  147.0820 C   0  0  0  0  0  3  0  0  0  0  0  0
  192.7740  175.8100  148.4800 C   0  0  0  0  0  1  0  0  0  0  0  0
  191.1100  177.4170  145.7320 C   0  0  0  0  0  3  0  0  0  0  0  0
  1  6  1  0  0  0  0
  1  2  1  0  0  0  0
  2 13  1  0  0  0  0
  3  6  2  0  0  0  0
  4  8  1  0  0  0  0
  4 32  1  0  0  0  0
  5  7  1  0  0  0  0
  5 15  1  0  0  0  0
  6  9  1  0  0  0  0
  7  1  2  0  0  0  0
 10  3  1  0  0  0  0
 11  4  2  0  0  0  0
 12 10  1  0  0  0  0
 12  7  1  0  0  0  0
 13  8  2  0  0  0  0
 14 10  2  0  0  0  0
 15  2  2  0  0  0  0
 15 11  1  0  0  0  0
 16 19  1  0  0  0  0
 17 21  1  1  0  0  0
 17 18  1  0  0  0  0
 17 20  1  0  0  0  0
 18 16  1  0  0  0  0
 19 11  1  6  0  0  0
 20 19  1  0  0  0  0
 22 24  2  0  0  0  0
 23 24  2  0  0  0  0
 24 21  1  0  0  0  0
 25 24  1  0  0  0  0
 26 25  1  0  0  0  0
 26 28  1  0  0  0  0
 27 29  1  0  0  0  0
 27 30  1  0  0  0  0
 29 26  1  0  0  0  0
 30 28  1  0  0  0  0
 32 31  1  1  0  0  0
 33 32  1  0  0  0  0
 34 35  2  0  0  0  0
 35 36  1  0  0  0  0
 37 33  1  0  0  0  0
 37 34  2  0  0  0  0
M  END
>  <MODEL>
4

>  <REMARK>
 VINA RESULT:      -8.1      3.491      7.527
  Name = 
  8 active torsions:
  status: ('A' for Active; 'I' for Inactive)
    1  A    between atoms: C_6  and  C_31
    2  A    between atoms: C_6  and  C_34
    3  A    between atoms: C_7  and  N_21
    4  A    between atoms: C_9  and  C_31
    5  A    between atoms: N_11  and  C_27
    6  A    between atoms: C_20  and  C_25
    7  A    between atoms: N_21  and  S_36
    8  A    between atoms: C_27  and  S_36
                            x       y       z     vdW  Elec       q    Type
                         _______ _______ _______ _____ _____    ______ ____

>  <TORSDO>
F 8

$$$$
=
 OpenBabel11042412123D

 37 41  0  0  1  0  0  0  0  0999 V2000
  189.0890  177.2530  145.0530 C   0  0  0  0  0  0  0  0  0  0  0  0
  188.0400  177.5350  144.1640 C   0  0  0  0  0  0  0  0  0  0  0  0
  190.2400  176.9120  147.1050 N   0  0  0  0  0  0  0  0  0  0  0  0
  186.2070  178.0960  142.1180 C   0  0  0  0  0  0  0  0  0  0  0  0
  190.1030  177.1760  142.7330 S   0  0  0  0  0  0  0  0  0  0  0  0
  189.0750  177.1860  146.4510 C   0  0  0  0  0  0  0  0  0  0  0  0
  190.2890  177.0350  144.4000 C   0  0  0  0  0  0  0  0  0  0  0  0
  185.8080  178.1050  143.4720 C   0  0  0  0  0  3  0  0  0  0  0  0
  187.8790  177.3940  147.1960 N   0  0  0  0  0  1  0  0  0  0  0  0
  191.4100  176.7120  146.4290 C   0  0  0  0  0  0  0  0  0  0  0  0
  187.5500  177.8010  141.7780 C   0  0  0  0  0  0  0  0  0  0  0  0
  191.4370  176.7770  145.0680 N   0  0  0  0  0  2  0  0  0  0  0  0
  186.7170  177.8210  144.4970 C   0  0  0  0  0  3  0  0  0  0  0  0
  192.4670  176.4750  147.0670 O   0  0  0  0  0  0  0  0  0  0  0  0
  188.4450  177.5270  142.8260 C   0  0  0  0  0  0  0  0  0  0  0  0
  188.5420  179.0890  139.9520 N   0  0  0  0  0  2  0  0  0  0  0  0
  190.1640  177.6040  138.9940 C   0  0  1  0  0  3  0  0  0  0  0  0
  189.3270  178.8410  138.7570 C   0  0  0  0  0  2  0  0  0  0  0  0
  187.9780  177.8040  140.3330 C   0  0  1  0  0  3  0  0  0  0  0  0
  189.1610  176.4650  139.9740 S   0  0  0  0  0  0  0  0  0  0  0  0
  190.5030  176.9930  137.7210 N   0  0  0  0  0  2  0  0  0  0  0  0
  191.7660  174.7260  138.2140 O   0  0  0  0  0  0  0  0  0  0  0  0
  192.8370  176.7810  138.9950 O   0  0  0  0  0  0  0  0  0  0  0  0
  192.0210  176.1700  137.8870 S   0  0  0  0  0  0  0  0  0  0  0  0
  192.9470  176.2570  136.3440 C   0  0  0  0  0  2  0  0  0  0  0  0
  194.4080  176.2730  136.5060 N   0  0  0  0  0  0  0  0  0  0  0  0
  196.6380  174.9540  135.9340 S   0  0  0  0  0  0  0  0  0  0  0  0
  194.9900  176.9790  135.4400 N   0  0  0  0  0  2  0  0  0  0  0  0
  194.9160  174.9100  136.4760 C   0  0  0  0  0  2  0  0  0  0  0  0
  196.4120  176.6840  135.4590 C   0  0  0  0  0  2  0  0  0  0  0  0
  185.2850  179.8180  140.7630 O   0  0  0  0  0  1  0  0  0  0  0  0
  185.2140  178.4510  141.0490 C   0  0  2  0  0  3  0  0  0  0  0  0
  183.7960  178.0670  141.4450 C   0  0  0  0  0  2  0  0  0  0  0  0
  183.5390  177.4050  139.1290 C   0  0  0  0  0  0  0  0  0  0  0  0
  184.1020  176.9850  138.0330 C   0  0  0  0  0  3  0  0  0  0  0  0
  185.2760  177.7060  137.4740 C   0  0  0  0  0  1  0  0  0  0  0  0
  182.9740  177.8180  140.2280 C   0  0  0  0  0  3  0  0  0  0  0  0
  1  6  1  0  0  0  0
  2 13  1  0  0  0  0
  2  1  1  0  0  0  0
  4  8  1  0  0  0  0
  5 15  1  0  0  0  0
  5  7  1  0  0  0  0
  6  3  2  0  0  0  0
  6  9  1  0  0  0  0
  7  1  2  0  0  0  0
  7 12  1  0  0  0  0
  8 13  2  0  0  0  0
 10 14  2  0  0  0  0
 10  3  1  0  0  0  0
 11  4  2  0  0  0  0
 11 15  1  0  0  0  0
 12 10  1  0  0  0  0
 15  2  2  0  0  0  0
 16 19  1  0  0  0  0
 17 21  1  6  0  0  0
 17 20  1  0  0  0  0
 18 17  1  0  0  0  0
 18 16  1  0  0  0  0
 19 11  1  1  0  0  0
 20 19  1  0  0  0  0
 21 24  1  0  0  0  0
 24 22  2  0  0  0  0
 24 23  2  0  0  0  0
 25 26  1  0  0  0  0
 25 24  1  0  0  0  0
 27 29  1  0  0  0  0
 28 30  1  0  0  0  0
 28 26  1  0  0  0  0
 29 26  1  0  0  0  0
 30 27  1  0  0  0  0
 32 31  1  1  0  0  0
 32 33  1  0  0  0  0
 32  4  1  0  0  0  0
 34 37  2  0  0  0  0
 35 34  2  0  0  0  0
 36 35  1  0  0  0  0
 37 33  1  0  0  0  0
M  END
>  <MODEL>
5

>  <REMARK>
 VINA RESULT:      -7.9      3.747      5.357
  Name = 
  8 active torsions:
  status: ('A' for Active; 'I' for Inactive)
    1  A    between atoms: C_6  and  C_31
    2  A    between atoms: C_6  and  C_34
    3  A    between atoms: C_7  and  N_21
    4  A    between atoms: C_9  and  C_31
    5  A    between atoms: N_11  and  C_27
    6  A    between atoms: C_20  and  C_25
    7  A    between atoms: N_21  and  S_36
    8  A    between atoms: C_27  and  S_36
                            x       y       z     vdW  Elec       q    Type
                         _______ _______ _______ _____ _____    ______ ____

>  <TORSDO>
F 8

$$$$
=
 OpenBabel11042412123D

 37 41  0  0  1  0  0  0  0  0999 V2000
  187.3020  178.2260  139.4500 C   0  0  0  0  0  0  0  0  0  0  0  0
  188.6400  177.8300  139.2980 C   0  0  0  0  0  0  0  0  0  0  0  0
  185.0840  178.8520  138.8710 N   0  0  0  0  0  0  0  0  0  0  0  0
  191.3460  177.0970  139.3630 C   0  0  0  0  0  0  0  0  0  0  0  0
  188.2720  178.1320  141.7880 S   0  0  0  0  0  0  0  0  0  0  0  0
  186.3240  178.4460  138.4740 C   0  0  0  0  0  0  0  0  0  0  0  0
  186.9610  178.4310  140.7760 C   0  0  0  0  0  0  0  0  0  0  0  0
  190.6520  177.2050  138.1380 C   0  0  0  0  0  3  0  0  0  0  0  0
  186.5950  178.2540  137.0890 N   0  0  0  0  0  1  0  0  0  0  0  0
  184.7840  179.0550  140.1880 C   0  0  0  0  0  0  0  0  0  0  0  0
  190.6740  177.3600  140.5810 C   0  0  0  0  0  0  0  0  0  0  0  0
  185.7280  178.8460  141.1470 N   0  0  0  0  0  2  0  0  0  0  0  0
  189.3010  177.5660  138.0990 C   0  0  0  0  0  3  0  0  0  0  0  0
  183.6330  179.4420  140.5130 O   0  0  0  0  0  0  0  0  0  0  0  0
  189.3190  177.7280  140.5160 C   0  0  0  0  0  0  0  0  0  0  0  0
  191.4160  178.5260  142.5980 N   0  0  0  0  0  2  0  0  0  0  0  0
  190.8550  177.0290  144.3860 C   0  0  1  0  0  3  0  0  0  0  0  0
  191.7120  178.2080  143.9830 C   0  0  0  0  0  2  0  0  0  0  0  0
  191.4170  177.2570  141.8880 C   0  0  1  0  0  3  0  0  0  0  0  0
  190.7420  175.9390  142.9500 S   0  0  0  0  0  0  0  0  0  0  0  0
  191.4830  176.3250  145.4910 N   0  0  0  0  0  2  0  0  0  0  0  0
  191.6660  177.2770  147.9490 O   0  0  0  0  0  0  0  0  0  0  0  0
  189.9760  175.5550  147.5530 O   0  0  0  0  0  0  0  0  0  0  0  0
  190.6630  176.7550  146.9590 S   0  0  0  0  0  0  0  0  0  0  0  0
  189.4460  178.0430  146.6370 C   0  0  0  0  0  2  0  0  0  0  0  0
  188.0590  177.5660  146.5480 N   0  0  0  0  0  0  0  0  0  0  0  0
  185.5300  178.2540  146.9680 S   0  0  0  0  0  0  0  0  0  0  0  0
  187.5420  177.8630  145.2760 N   0  0  0  0  0  2  0  0  0  0  0  0
  187.2440  178.2540  147.5390 C   0  0  0  0  0  2  0  0  0  0  0  0
  186.1020  177.6860  145.3490 C   0  0  0  0  0  2  0  0  0  0  0  0
  193.5540  177.8300  139.8460 O   0  0  0  0  0  1  0  0  0  0  0  0
  192.8070  176.7530  139.3610 C   0  0  2  0  0  3  0  0  0  0  0  0
  193.2920  176.3550  137.9750 C   0  0  0  0  0  2  0  0  0  0  0  0
  192.4730  174.2060  137.2120 C   0  0  0  0  0  0  0  0  0  0  0  0
  191.5710  173.5410  136.5480 C   0  0  0  0  0  3  0  0  0  0  0  0
  190.1290  173.7480  136.8410 C   0  0  0  0  0  1  0  0  0  0  0  0
  193.3810  174.8710  137.8690 C   0  0  0  0  0  3  0  0  0  0  0  0
  1  7  2  0  0  0  0
  2  1  1  0  0  0  0
  2 15  1  0  0  0  0
  3 10  1  0  0  0  0
  4 11  1  0  0  0  0
  6  3  2  0  0  0  0
  6  1  1  0  0  0  0
  7 12  1  0  0  0  0
  7  5  1  0  0  0  0
  8  4  2  0  0  0  0
  9  6  1  0  0  0  0
 10 14  2  0  0  0  0
 10 12  1  0  0  0  0
 13  8  1  0  0  0  0
 13  2  2  0  0  0  0
 15 11  2  0  0  0  0
 15  5  1  0  0  0  0
 16 18  1  0  0  0  0
 17 21  1  1  0  0  0
 18 17  1  0  0  0  0
 19 11  1  6  0  0  0
 19 16  1  0  0  0  0
 19 20  1  0  0  0  0
 20 17  1  0  0  0  0
 21 24  1  0  0  0  0
 24 23  2  0  0  0  0
 24 22  2  0  0  0  0
 25 24  1  0  0  0  0
 26 25  1  0  0  0  0
 26 29  1  0  0  0  0
 27 29  1  0  0  0  0
 28 30  1  0  0  0  0
 28 26  1  0  0  0  0
 30 27  1  0  0  0  0
 32  4  1  0  0  0  0
 32 31  1  6  0  0  0
 33 32  1  0  0  0  0
 34 37  2  0  0  0  0
 35 36  1  0  0  0  0
 35 34  2  0  0  0  0
 37 33  1  0  0  0  0
M  END
>  <MODEL>
6

>  <REMARK>
 VINA RESULT:      -7.8      3.797      9.679
  Name = 
  8 active torsions:
  status: ('A' for Active; 'I' for Inactive)
    1  A    between atoms: C_6  and  C_31
    2  A    between atoms: C_6  and  C_34
    3  A    between atoms: C_7  and  N_21
    4  A    between atoms: C_9  and  C_31
    5  A    between atoms: N_11  and  C_27
    6  A    between atoms: C_20  and  C_25
    7  A    between atoms: N_21  and  S_36
    8  A    between atoms: C_27  and  S_36
                            x       y       z     vdW  Elec       q    Type
                         _______ _______ _______ _____ _____    ______ ____

>  <TORSDO>
F 8

$$$$
=
 OpenBabel11042412123D

 37 41  0  0  1  0  0  0  0  0999 V2000
  182.6300  178.7810  142.7200 C   0  0  0  0  0  0  0  0  0  0  0  0
  183.6350  178.6440  143.6910 C   0  0  0  0  0  0  0  0  0  0  0  0
  180.4680  179.0720  141.7770 N   0  0  0  0  0  0  0  0  0  0  0  0
  185.8720  178.2880  145.3440 C   0  0  0  0  0  0  0  0  0  0  0  0
  184.7840  178.3980  141.4430 S   0  0  0  0  0  0  0  0  0  0  0  0
  181.2570  178.9920  142.8870 C   0  0  0  0  0  0  0  0  0  0  0  0
  183.1220  178.6650  141.4320 C   0  0  0  0  0  0  0  0  0  0  0  0
  184.5900  178.5040  145.8930 C   0  0  0  0  0  3  0  0  0  0  0  0
  180.6740  179.1260  144.1800 N   0  0  0  0  0  1  0  0  0  0  0  0
  180.9850  178.9430  140.5200 C   0  0  0  0  0  0  0  0  0  0  0  0
  186.0410  178.2490  143.9380 C   0  0  0  0  0  0  0  0  0  0  0  0
  182.3210  178.7350  140.3440 N   0  0  0  0  0  2  0  0  0  0  0  0
  183.4710  178.6880  145.0740 C   0  0  0  0  0  3  0  0  0  0  0  0
  180.2250  179.0090  139.5220 O   0  0  0  0  0  0  0  0  0  0  0  0
  184.9000  178.4270  143.1360 C   0  0  0  0  0  0  0  0  0  0  0  0
  187.6950  176.5830  143.2560 N   0  0  0  0  0  2  0  0  0  0  0  0
  188.4120  177.3140  141.0870 C   0  0  1  0  0  3  0  0  0  0  0  0
  188.7640  176.4560  142.2820 C   0  0  0  0  0  2  0  0  0  0  0  0
  187.4070  178.0050  143.3500 C   0  0  1  0  0  3  0  0  0  0  0  0
  187.5950  178.7960  141.7200 S   0  0  0  0  0  0  0  0  0  0  0  0
  189.6240  177.6840  140.3780 N   0  0  0  0  0  2  0  0  0  0  0  0
  189.1300  179.2540  138.3120 O   0  0  0  0  0  0  0  0  0  0  0  0
  187.9690  177.1010  138.3680 O   0  0  0  0  0  0  0  0  0  0  0  0
  189.2620  177.8040  138.6850 S   0  0  0  0  0  0  0  0  0  0  0  0
  190.5930  177.0770  137.7120 C   0  0  0  0  0  2  0  0  0  0  0  0
  190.2280  175.8430  137.0020 N   0  0  0  0  0  0  0  0  0  0  0  0
  191.0740  174.0760  135.2110 S   0  0  0  0  0  0  0  0  0  0  0  0
  190.6470  174.7310  137.7510 N   0  0  0  0  0  2  0  0  0  0  0  0
  190.9080  175.8030  135.7160 C   0  0  0  0  0  2  0  0  0  0  0  0
  190.5750  173.5750  136.8750 C   0  0  0  0  0  2  0  0  0  0  0  0
  187.1370  176.6900  146.5660 O   0  0  0  0  0  1  0  0  0  0  0  0
  187.0410  178.0490  146.2540 C   0  0  2  0  0  3  0  0  0  0  0  0
  186.9430  178.8780  147.5270 C   0  0  0  0  0  2  0  0  0  0  0  0
  189.0770  178.0140  148.2820 C   0  0  0  0  0  0  0  0  0  0  0  0
  190.3110  177.7180  147.9930 C   0  0  0  0  0  3  0  0  0  0  0  0
  190.6150  176.8520  146.8240 C   0  0  0  0  0  1  0  0  0  0  0  0
  187.8430  178.3180  148.5740 C   0  0  0  0  0  3  0  0  0  0  0  0
  1  6  1  0  0  0  0
  1  2  1  0  0  0  0
  2 13  1  0  0  0  0
  3  6  2  0  0  0  0
  4  8  1  0  0  0  0
  4 32  1  0  0  0  0
  5 15  1  0  0  0  0
  6  9  1  0  0  0  0
  7  5  1  0  0  0  0
  7  1  2  0  0  0  0
 10  3  1  0  0  0  0
 11  4  2  0  0  0  0
 12 10  1  0  0  0  0
 12  7  1  0  0  0  0
 13  8  2  0  0  0  0
 14 10  2  0  0  0  0
 15  2  2  0  0  0  0
 15 11  1  0  0  0  0
 16 19  1  0  0  0  0
 17 21  1  1  0  0  0
 17 20  1  0  0  0  0
 17 18  1  0  0  0  0
 18 16  1  0  0  0  0
 19 11  1  6  0  0  0
 20 19  1  0  0  0  0
 22 24  2  0  0  0  0
 23 24  2  0  0  0  0
 24 21  1  0  0  0  0
 25 24  1  0  0  0  0
 26 25  1  0  0  0  0
 26 28  1  0  0  0  0
 27 29  1  0  0  0  0
 27 30  1  0  0  0  0
 29 26  1  0  0  0  0
 30 28  1  0  0  0  0
 32 31  1  1  0  0  0
 32 33  1  0  0  0  0
 33 37  1  0  0  0  0
 34 37  2  0  0  0  0
 35 34  2  0  0  0  0
 36 35  1  0  0  0  0
M  END
>  <MODEL>
7

>  <REMARK>
 VINA RESULT:      -7.7      2.718      6.718
  Name = 
  8 active torsions:
  status: ('A' for Active; 'I' for Inactive)
    1  A    between atoms: C_6  and  C_31
    2  A    between atoms: C_6  and  C_34
    3  A    between atoms: C_7  and  N_21
    4  A    between atoms: C_9  and  C_31
    5  A    between atoms: N_11  and  C_27
    6  A    between atoms: C_20  and  C_25
    7  A    between atoms: N_21  and  S_36
    8  A    between atoms: C_27  and  S_36
                            x       y       z     vdW  Elec       q    Type
                         _______ _______ _______ _____ _____    ______ ____

>  <TORSDO>
F 8

$$$$
=
 OpenBabel11042412123D

 37 41  0  0  1  0  0  0  0  0999 V2000
  185.9690  178.1630  144.5930 C   0  0  0  0  0  0  0  0  0  0  0  0
  184.6780  178.4460  144.1180 C   0  0  0  0  0  0  0  0  0  0  0  0
  187.7490  177.7940  146.1240 N   0  0  0  0  0  0  0  0  0  0  0  0
  182.2560  179.0220  142.8280 C   0  0  0  0  0  0  0  0  0  0  0  0
  186.1410  178.1640  142.0660 S   0  0  0  0  0  0  0  0  0  0  0  0
  186.4290  178.0610  145.9100 C   0  0  0  0  0  0  0  0  0  0  0  0
  186.8810  177.9850  143.5670 C   0  0  0  0  0  0  0  0  0  0  0  0
  182.3390  178.9890  144.2370 C   0  0  0  0  0  3  0  0  0  0  0  0
  185.5530  178.2270  147.0220 N   0  0  0  0  0  1  0  0  0  0  0  0
  188.6240  177.6350  145.0880 C   0  0  0  0  0  0  0  0  0  0  0  0
  183.4080  178.7610  142.0460 C   0  0  0  0  0  0  0  0  0  0  0  0
  188.1890  177.7340  143.8000 N   0  0  0  0  0  2  0  0  0  0  0  0
  183.5440  178.6980  144.8870 C   0  0  0  0  0  3  0  0  0  0  0  0
  189.8360  177.4020  145.3240 O   0  0  0  0  0  0  0  0  0  0  0  0
  184.6080  178.4790  142.7220 C   0  0  0  0  0  0  0  0  0  0  0  0
  184.4690  179.4980  139.9710 N   0  0  0  0  0  2  0  0  0  0  0  0
  184.3610  177.5790  138.5370 C   0  0  1  0  0  3  0  0  0  0  0  0
  184.5330  179.0810  138.5820 C   0  0  0  0  0  2  0  0  0  0  0  0
  183.3240  178.8080  140.5430 C   0  0  1  0  0  3  0  0  0  0  0  0
  183.1650  177.1440  139.8200 S   0  0  0  0  0  0  0  0  0  0  0  0
  183.8510  177.1860  137.2350 N   0  0  0  0  0  2  0  0  0  0  0  0
  186.2200  176.0170  137.2500 O   0  0  0  0  0  0  0  0  0  0  0  0
  185.7520  177.5440  135.3970 O   0  0  0  0  0  0  0  0  0  0  0  0
  185.1550  176.5080  136.3110 S   0  0  0  0  0  0  0  0  0  0  0  0
  184.5630  175.1160  135.3320 C   0  0  0  0  0  2  0  0  0  0  0  0
  184.7490  173.8010  135.9620 N   0  0  0  0  0  0  0  0  0  0  0  0
  183.4620  171.6870  136.9190 S   0  0  0  0  0  0  0  0  0  0  0  0
  184.8660  172.8170  134.9660 N   0  0  0  0  0  2  0  0  0  0  0  0
  183.5860  173.4830  136.7770 C   0  0  0  0  0  2  0  0  0  0  0  0
  184.7090  171.5290  135.6180 C   0  0  0  0  0  2  0  0  0  0  0  0
  180.3430  180.4310  142.8600 O   0  0  0  0  0  1  0  0  0  0  0  0
  180.9580  179.3830  142.1680 C   0  0  2  0  0  3  0  0  0  0  0  0
  180.0200  178.1880  142.0760 C   0  0  0  0  0  2  0  0  0  0  0  0
  179.6780  178.8360  139.7670 C   0  0  0  0  0  0  0  0  0  0  0  0
  180.1660  179.3830  138.6900 C   0  0  0  0  0  3  0  0  0  0  0  0
  180.7820  180.7340  138.7560 C   0  0  0  0  0  1  0  0  0  0  0  0
  179.1920  178.2810  140.8410 C   0  0  0  0  0  3  0  0  0  0  0  0
  1  6  1  0  0  0  0
  2  1  1  0  0  0  0
  2 13  1  0  0  0  0
  4  8  1  0  0  0  0
  5 15  1  0  0  0  0
  5  7  1  0  0  0  0
  6  3  2  0  0  0  0
  6  9  1  0  0  0  0
  7 12  1  0  0  0  0
  7  1  2  0  0  0  0
  8 13  2  0  0  0  0
 10 14  2  0  0  0  0
 10  3  1  0  0  0  0
 11 15  1  0  0  0  0
 11  4  2  0  0  0  0
 12 10  1  0  0  0  0
 15  2  2  0  0  0  0
 16 19  1  0  0  0  0
 17 21  1  6  0  0  0
 17 18  1  0  0  0  0
 17 20  1  0  0  0  0
 18 16  1  0  0  0  0
 19 11  1  1  0  0  0
 20 19  1  0  0  0  0
 23 24  2  0  0  0  0
 24 21  1  0  0  0  0
 24 22  2  0  0  0  0
 25 26  1  0  0  0  0
 25 24  1  0  0  0  0
 26 29  1  0  0  0  0
 28 30  1  0  0  0  0
 28 26  1  0  0  0  0
 29 27  1  0  0  0  0
 30 27  1  0  0  0  0
 32  4  1  0  0  0  0
 32 31  1  1  0  0  0
 33 32  1  0  0  0  0
 34 37  2  0  0  0  0
 35 36  1  0  0  0  0
 35 34  2  0  0  0  0
 37 33  1  0  0  0  0
M  END
>  <MODEL>
8

>  <REMARK>
 VINA RESULT:      -7.7      2.155      3.282
  Name = 
  8 active torsions:
  status: ('A' for Active; 'I' for Inactive)
    1  A    between atoms: C_6  and  C_31
    2  A    between atoms: C_6  and  C_34
    3  A    between atoms: C_7  and  N_21
    4  A    between atoms: C_9  and  C_31
    5  A    between atoms: N_11  and  C_27
    6  A    between atoms: C_20  and  C_25
    7  A    between atoms: N_21  and  S_36
    8  A    between atoms: C_27  and  S_36
                            x       y       z     vdW  Elec       q    Type
                         _______ _______ _______ _____ _____    ______ ____

>  <TORSDO>
F 8

$$$$
=
 OpenBabel11042412123D

 37 41  0  0  1  0  0  0  0  0999 V2000
  187.7480  177.7210  143.8950 C   0  0  0  0  0  0  0  0  0  0  0  0
  186.9170  177.9930  142.7960 C   0  0  0  0  0  0  0  0  0  0  0  0
  188.4240  177.3920  146.1490 N   0  0  0  0  0  0  0  0  0  0  0  0
  185.5720  178.5370  140.3960 C   0  0  0  0  0  0  0  0  0  0  0  0
  189.2470  177.6530  141.8540 S   0  0  0  0  0  0  0  0  0  0  0  0
  187.4280  177.6550  145.2550 C   0  0  0  0  0  0  0  0  0  0  0  0
  189.0640  177.5150  143.5210 C   0  0  0  0  0  0  0  0  0  0  0  0
  184.8870  178.5420  141.6300 C   0  0  0  0  0  3  0  0  0  0  0  0
  186.0960  177.8530  145.7200 N   0  0  0  0  0  1  0  0  0  0  0  0
  189.7160  177.2030  145.7470 C   0  0  0  0  0  0  0  0  0  0  0  0
  186.9600  178.2530  140.3600 C   0  0  0  0  0  0  0  0  0  0  0  0
  190.0400  177.2680  144.4250 N   0  0  0  0  0  2  0  0  0  0  0  0
  185.5510  178.2670  142.8310 C   0  0  0  0  0  3  0  0  0  0  0  0
  190.6090  176.9760  146.6020 O   0  0  0  0  0  0  0  0  0  0  0  0
  187.6060  177.9880  141.5800 C   0  0  0  0  0  0  0  0  0  0  0  0
  188.9590  178.9700  139.1490 N   0  0  0  0  0  2  0  0  0  0  0  0
  189.6620  177.0120  137.9550 C   0  0  1  0  0  3  0  0  0  0  0  0
  189.7640  178.5190  138.0290 C   0  0  0  0  0  2  0  0  0  0  0  0
  187.6950  178.2590  139.0440 C   0  0  1  0  0  3  0  0  0  0  0  0
  187.9700  176.5730  138.4140 S   0  0  0  0  0  0  0  0  0  0  0  0
  189.9360  176.5700  136.5990 N   0  0  0  0  0  2  0  0  0  0  0  0
  190.9490  174.4780  135.3460 O   0  0  0  0  0  0  0  0  0  0  0  0
  190.5450  174.2400  137.7460 O   0  0  0  0  0  0  0  0  0  0  0  0
  190.9870  175.1910  136.6670 S   0  0  0  0  0  0  0  0  0  0  0  0
  192.6800  175.7170  136.9900 C   0  0  0  0  0  2  0  0  0  0  0  0
  193.4480  174.8110  137.8560 N   0  0  0  0  0  0  0  0  0  0  0  0
  195.3920  173.0040  137.8720 S   0  0  0  0  0  0  0  0  0  0  0  0
  194.5740  175.4850  138.3590 N   0  0  0  0  0  2  0  0  0  0  0  0
  193.9130  173.6730  137.0770 C   0  0  0  0  0  2  0  0  0  0  0  0
  195.4600  174.4790  138.9160 C   0  0  0  0  0  2  0  0  0  0  0  0
  184.5560  180.2510  139.1020 O   0  0  0  0  0  1  0  0  0  0  0  0
  184.8360  178.8820  139.1350 C   0  0  2  0  0  3  0  0  0  0  0  0
  183.5520  178.0760  138.9930 C   0  0  0  0  0  2  0  0  0  0  0  0
  181.6000  179.1650  139.9280 C   0  0  0  0  0  0  0  0  0  0  0  0
  180.8260  179.3450  140.9590 C   0  0  0  0  0  3  0  0  0  0  0  0
  180.2510  178.1740  141.6720 C   0  0  0  0  0  1  0  0  0  0  0  0
  182.3810  178.9920  138.8990 C   0  0  0  0  0  3  0  0  0  0  0  0
  1  6  1  0  0  0  0
  2 13  1  0  0  0  0
  2  1  1  0  0  0  0
  4  8  1  0  0  0  0
  5  7  1  0  0  0  0
  6  9  1  0  0  0  0
  6  3  2  0  0  0  0
  7  1  2  0  0  0  0
  7 12  1  0  0  0  0
  8 13  2  0  0  0  0
 10  3  1  0  0  0  0
 10 14  2  0  0  0  0
 11  4  2  0  0  0  0
 11 15  1  0  0  0  0
 12 10  1  0  0  0  0
 15  5  1  0  0  0  0
 15  2  2  0  0  0  0
 17 21  1  6  0  0  0
 17 18  1  0  0  0  0
 17 20  1  0  0  0  0
 18 16  1  0  0  0  0
 19 16  1  0  0  0  0
 19 11  1  1  0  0  0
 20 19  1  0  0  0  0
 21 24  1  0  0  0  0
 22 24  2  0  0  0  0
 24 25  1  0  0  0  0
 24 23  2  0  0  0  0
 25 26  1  0  0  0  0
 26 28  1  0  0  0  0
 27 30  1  0  0  0  0
 28 30  1  0  0  0  0
 29 26  1  0  0  0  0
 29 27  1  0  0  0  0
 32 31  1  1  0  0  0
 32  4  1  0  0  0  0
 33 32  1  0  0  0  0
 34 35  2  0  0  0  0
 35 36  1  0  0  0  0
 37 33  1  0  0  0  0
 37 34  2  0  0  0  0
M  END
>  <MODEL>
9

>  <REMARK>
 VINA RESULT:      -7.7      3.265      4.559
  Name = 
  8 active torsions:
  status: ('A' for Active; 'I' for Inactive)
    1  A    between atoms: C_6  and  C_31
    2  A    between atoms: C_6  and  C_34
    3  A    between atoms: C_7  and  N_21
    4  A    between atoms: C_9  and  C_31
    5  A    between atoms: N_11  and  C_27
    6  A    between atoms: C_20  and  C_25
    7  A    between atoms: N_21  and  S_36
    8  A    between atoms: C_27  and  S_36
                            x       y       z     vdW  Elec       q    Type
                         _______ _______ _______ _____ _____    ______ ____

>  <TORSDO>
F 8

$$$$
