=
 OpenBabel11042411373D

 45 50  0  0  1  0  0  0  0  0999 V2000
  190.8160  176.0620  139.1070 C   0  0  2  0  0  3  0  0  0  0  0  0
  189.4450  176.7070  139.3820 C   0  0  1  0  0  3  0  0  0  0  0  0
  190.7230  177.3340  139.9150 C   0  0  1  0  0  3  0  0  0  0  0  0
  191.4710  176.4040  137.7760 C   0  0  1  0  0  3  0  0  0  0  0  0
  192.7890  176.7630  137.9560 C   0  0  0  0  0  2  0  0  0  0  0  0
  192.9160  174.0760  137.0710 C   0  0  0  0  0  0  0  0  0  0  0  0
  192.0410  173.2190  136.7790 O   0  0  0  0  0  0  0  0  0  0  0  0
  192.5130  175.3790  137.4770 N   0  0  0  0  0  0  0  0  0  0  0  0
  194.3700  173.6930  137.0300 C   0  0  1  0  0  3  0  0  0  0  0  0
  195.0680  173.7250  138.3580 C   0  0  0  0  0  0  0  0  0  0  0  0
  195.6200  174.9060  138.8460 O   0  0  0  0  0  0  0  0  0  0  0  0
  195.1830  172.6640  139.0230 O   0  0  0  0  0  1  0  0  0  0  0  0
  195.3900  172.9490  135.1090 C   0  0  0  0  0  1  0  0  0  0  0  0
  194.6610  172.5570  136.2460 O   0  0  0  0  0  0  0  0  0  0  0  0
  190.8340  177.0140  141.3900 C   0  0  0  0  0  2  0  0  0  0  0  0
  189.5890  177.5140  142.1000 C   0  0  0  0  0  2  0  0  0  0  0  0
  187.8750  176.5630  143.6430 C   0  0  0  0  0  3  0  0  0  0  0  0
  188.9150  176.3860  142.8170 C   0  0  0  0  0  3  0  0  0  0  0  0
  186.4940  177.8560  145.2320 C   0  0  0  0  0  3  0  0  0  0  0  0
  186.2910  178.3990  141.7630 O   0  0  0  0  0  0  0  0  0  0  0  0
  185.2220  178.0430  145.0560 N   0  0  0  0  0  0  0  0  0  0  0  0
  184.9440  178.2480  143.7050 N   0  0  0  0  0  0  0  0  0  0  0  0
  186.1690  178.1920  143.0000 C   0  0  0  0  0  0  0  0  0  0  0  0
  187.2800  177.9100  143.9420 C   0  0  2  0  0  3  0  0  0  0  0  0
  183.6490  178.5820  143.1870 C   0  0  0  0  0  0  0  0  0  0  0  0
  181.9860  178.9820  141.8420 N   0  0  0  0  0  0  0  0  0  0  0  0
  181.1820  179.1510  140.6670 C   0  0  0  0  0  0  0  0  0  0  0  0
  181.5580  179.2380  143.0700 N   0  0  0  0  0  0  0  0  0  0  0  0
  182.5680  179.0020  143.9350 C   0  0  0  0  0  3  0  0  0  0  0  0
  183.2720  178.5790  141.8630 C   0  0  0  0  0  3  0  0  0  0  0  0
  180.0080  179.5990  140.7760 O   0  0  0  0  0  0  0  0  0  0  0  0
  181.1060  179.7790  138.2910 C   0  0  0  0  0  2  0  0  0  0  0  0
  181.7420  178.8500  139.3080 C   0  0  0  0  0  3  0  0  0  0  0  0
  182.5230  180.0320  138.7580 C   0  0  0  0  0  2  0  0  0  0  0  0
  188.7650  177.4490  138.1960 C   0  0  1  0  0  3  0  0  0  0  0  0
  187.8690  176.2580  136.0180 C   0  0  0  0  0  2  0  0  0  0  0  0
  187.6000  176.8410  137.3850 C   0  0  0  0  0  0  0  0  0  0  0  0
  187.6080  175.3400  137.2110 C   0  0  0  0  0  2  0  0  0  0  0  0
  186.2030  177.4160  137.5690 C   0  0  0  0  0  2  0  0  0  0  0  0
  185.3160  177.0560  136.3990 C   0  0  0  0  0  2  0  0  0  0  0  0
  183.8640  177.1270  136.8210 C   0  0  0  0  0  2  0  0  0  0  0  0
  183.3930  175.6020  137.6840 S   0  0  0  0  0  0  0  0  0  0  0  0
  184.1110  174.5510  136.3850 C   0  0  0  0  0  1  0  0  0  0  0  0
  189.0790  179.4080  137.1970 C   0  0  0  0  0  1  0  0  0  0  0  0
  188.6310  178.8300  138.3880 O   0  0  0  0  0  0  0  0  0  0  0  0
  1  4  1  6  0  0  0
  1  2  1  0  0  0  0
  1  3  1  0  0  0  0
  2 35  1  6  0  0  0
  2  3  1  0  0  0  0
  3 15  1  1  0  0  0
  4  5  1  1  0  0  0
  6  8  1  0  0  0  0
  7  6  2  0  0  0  0
  8  4  1  0  0  0  0
  8  5  1  0  0  0  0
  9 14  1  1  0  0  0
  9  6  1  0  0  0  0
  9 10  1  0  0  0  0
 10 11  2  0  0  0  0
 10 12  1  0  0  0  0
 13 14  1  0  0  0  0
 15 16  1  0  0  0  0
 16 18  1  0  0  0  0
 18 17  2  0  0  0  0
 20 23  2  0  0  0  0
 21 19  2  0  0  0  0
 22 21  1  0  0  0  0
 23 22  1  0  0  0  0
 23 24  1  0  0  0  0
 24 17  1  6  0  0  0
 24 19  1  0  0  0  0
 25 22  1  0  0  0  0
 25 29  1  0  0  0  0
 26 30  1  0  0  0  0
 26 28  1  0  0  0  0
 27 31  2  0  0  0  0
 27 26  1  0  0  0  0
 28 29  2  0  0  0  0
 30 25  2  0  0  0  0
 32 34  1  0  0  0  0
 32 33  1  0  0  0  0
 33 27  1  0  0  0  0
 34 33  1  0  0  0  0
 35 45  1  1  0  0  0
 36 38  1  0  0  0  0
 36 37  1  0  0  0  0
 37 39  1  0  0  0  0
 37 35  1  0  0  0  0
 38 37  1  0  0  0  0
 40 41  1  0  0  0  0
 40 39  1  0  0  0  0
 41 42  1  0  0  0  0
 43 42  1  0  0  0  0
 44 45  1  0  0  0  0
M  END
>  <MODEL>
1

>  <REMARK>
 VINA RESULT:      -6.8      0.000      0.000
  Name = 
  17 active torsions:
  status: ('A' for Active; 'I' for Inactive)
    1  A    between atoms: C_1  and  C_22
    2  A    between atoms: C_1  and  C_29
    3  A    between atoms: C_3  and  C_45
    4  A    between atoms: C_6  and  N_34
    5  A    between atoms: C_7  and  C_13
    6  A    between atoms: C_8  and  C_39
    7  A    between atoms: C_14  and  C_35
    8  A    between atoms: C_15  and  C_19
    9  A    between atoms: C_20  and  C_29
   10  A    between atoms: C_21  and  C_39
   11  A    between atoms: C_24  and  C_36
   12  A    between atoms: C_24  and  C_43
   13  A    between atoms: S_25  and  C_43
   14  A    between atoms: C_31  and  C_35
   15  A    between atoms: C_31  and  C_36
   16  A    between atoms: C_35  and  O_37
   17  A    between atoms: C_39  and  O_42
                            x       y       z     vdW  Elec       q    Type
                         _______ _______ _______ _____ _____    ______ ____

>  <TORSDO>
F 17

$$$$
=
 OpenBabel11042411373D

 45 50  0  0  1  0  0  0  0  0999 V2000
  182.7850  177.7190  139.4250 C   0  0  2  0  0  3  0  0  0  0  0  0
  181.5080  176.9920  138.9650 C   0  0  1  0  0  3  0  0  0  0  0  0
  181.4250  178.2800  139.7670 C   0  0  1  0  0  3  0  0  0  0  0  0
  183.4330  178.6550  138.4150 C   0  0  1  0  0  3  0  0  0  0  0  0
  184.2660  179.5540  139.0440 C   0  0  0  0  0  2  0  0  0  0  0  0
  186.0220  177.5860  138.0090 C   0  0  0  0  0  0  0  0  0  0  0  0
  185.8420  176.5150  137.3750 O   0  0  0  0  0  0  0  0  0  0  0  0
  184.8990  178.3800  138.3780 N   0  0  0  0  0  0  0  0  0  0  0  0
  187.4170  177.9860  138.4070 C   0  0  1  0  0  3  0  0  0  0  0  0
  188.2100  178.6610  137.3280 C   0  0  0  0  0  0  0  0  0  0  0  0
  188.1490  178.2150  136.0100 O   0  0  0  0  0  0  0  0  0  0  0  0
  188.9660  179.6220  137.6220 O   0  0  0  0  0  1  0  0  0  0  0  0
  188.3560  177.8260  140.4990 C   0  0  0  0  0  1  0  0  0  0  0  0
  187.5180  178.5970  139.6740 O   0  0  0  0  0  0  0  0  0  0  0  0
  181.0710  177.9320  141.1960 C   0  0  0  0  0  2  0  0  0  0  0  0
  181.4290  179.1030  142.0940 C   0  0  0  0  0  2  0  0  0  0  0  0
  182.5550  178.7420  144.2900 C   0  0  0  0  0  3  0  0  0  0  0  0
  181.4580  178.6660  143.5250 C   0  0  0  0  0  3  0  0  0  0  0  0
  184.4500  178.3220  142.7630 C   0  0  0  0  0  3  0  0  0  0  0  0
  184.9370  179.7610  145.9350 O   0  0  0  0  0  0  0  0  0  0  0  0
  185.5490  177.7560  143.1560 N   0  0  0  0  0  0  0  0  0  0  0  0
  185.8880  178.1920  144.4370 N   0  0  0  0  0  0  0  0  0  0  0  0
  184.9050  179.1220  144.8490 C   0  0  0  0  0  0  0  0  0  0  0  0
  183.8730  179.2650  143.7920 C   0  0  2  0  0  3  0  0  0  0  0  0
  187.0960  177.8340  145.1210 C   0  0  0  0  0  0  0  0  0  0  0  0
  189.1510  177.2630  145.5540 N   0  0  0  0  0  0  0  0  0  0  0  0
  190.5330  176.9050  145.4210 C   0  0  0  0  0  0  0  0  0  0  0  0
  188.5060  177.2880  146.7120 N   0  0  0  0  0  0  0  0  0  0  0  0
  187.2220  177.6370  146.4820 C   0  0  0  0  0  3  0  0  0  0  0  0
  188.3210  177.5890  144.5440 C   0  0  0  0  0  3  0  0  0  0  0  0
  191.1860  176.5560  146.4410 O   0  0  0  0  0  0  0  0  0  0  0  0
  191.8970  175.5620  143.8760 C   0  0  0  0  0  2  0  0  0  0  0  0
  191.1910  176.8910  144.0720 C   0  0  0  0  0  3  0  0  0  0  0  0
  190.5840  175.8270  143.1720 C   0  0  0  0  0  2  0  0  0  0  0  0
  181.1390  177.1030  137.4570 C   0  0  1  0  0  3  0  0  0  0  0  0
  181.6910  176.3910  134.9760 C   0  0  0  0  0  2  0  0  0  0  0  0
  181.4970  176.0110  136.4250 C   0  0  0  0  0  0  0  0  0  0  0  0
  182.8950  176.0530  135.8530 C   0  0  0  0  0  2  0  0  0  0  0  0
  180.9830  174.5970  136.6490 C   0  0  0  0  0  2  0  0  0  0  0  0
  181.9170  173.5810  136.0310 C   0  0  0  0  0  2  0  0  0  0  0  0
  182.1910  172.4710  137.0230 C   0  0  0  0  0  2  0  0  0  0  0  0
  183.8260  171.7480  136.7100 S   0  0  0  0  0  0  0  0  0  0  0  0
  184.6810  173.1200  137.5430 C   0  0  0  0  0  1  0  0  0  0  0  0
  180.1760  178.9340  136.6490 C   0  0  0  0  0  1  0  0  0  0  0  0
  179.8900  177.6890  137.2170 O   0  0  0  0  0  0  0  0  0  0  0  0
  1  4  1  6  0  0  0
  1  3  1  0  0  0  0
  2 35  1  6  0  0  0
  2  1  1  0  0  0  0
  2  3  1  0  0  0  0
  3 15  1  1  0  0  0
  4  5  1  1  0  0  0
  6  8  1  0  0  0  0
  6  9  1  0  0  0  0
  7  6  2  0  0  0  0
  8  4  1  0  0  0  0
  8  5  1  0  0  0  0
  9 10  1  6  0  0  0
  9 14  1  0  0  0  0
 10 12  1  0  0  0  0
 11 10  2  0  0  0  0
 14 13  1  0  0  0  0
 15 16  1  0  0  0  0
 16 18  1  0  0  0  0
 18 17  2  0  0  0  0
 19 21  2  0  0  0  0
 19 24  1  0  0  0  0
 21 22  1  0  0  0  0
 22 23  1  0  0  0  0
 22 25  1  0  0  0  0
 23 20  2  0  0  0  0
 24 17  1  1  0  0  0
 24 23  1  0  0  0  0
 25 29  1  0  0  0  0
 26 28  1  0  0  0  0
 27 26  1  0  0  0  0
 27 31  2  0  0  0  0
 29 28  2  0  0  0  0
 30 25  2  0  0  0  0
 30 26  1  0  0  0  0
 32 33  1  0  0  0  0
 33 27  1  0  0  0  0
 34 32  1  0  0  0  0
 34 33  1  0  0  0  0
 35 45  1  1  0  0  0
 36 38  1  0  0  0  0
 36 37  1  0  0  0  0
 37 39  1  0  0  0  0
 37 35  1  0  0  0  0
 38 37  1  0  0  0  0
 40 39  1  0  0  0  0
 40 41  1  0  0  0  0
 42 41  1  0  0  0  0
 42 43  1  0  0  0  0
 44 45  1  0  0  0  0
M  END
>  <MODEL>
2

>  <REMARK>
 VINA RESULT:      -6.6      4.139      7.707
  Name = 
  17 active torsions:
  status: ('A' for Active; 'I' for Inactive)
    1  A    between atoms: C_1  and  C_22
    2  A    between atoms: C_1  and  C_29
    3  A    between atoms: C_3  and  C_45
    4  A    between atoms: C_6  and  N_34
    5  A    between atoms: C_7  and  C_13
    6  A    between atoms: C_8  and  C_39
    7  A    between atoms: C_14  and  C_35
    8  A    between atoms: C_15  and  C_19
    9  A    between atoms: C_20  and  C_29
   10  A    between atoms: C_21  and  C_39
   11  A    between atoms: C_24  and  C_36
   12  A    between atoms: C_24  and  C_43
   13  A    between atoms: S_25  and  C_43
   14  A    between atoms: C_31  and  C_35
   15  A    between atoms: C_31  and  C_36
   16  A    between atoms: C_35  and  O_37
   17  A    between atoms: C_39  and  O_42
                            x       y       z     vdW  Elec       q    Type
                         _______ _______ _______ _____ _____    ______ ____

>  <TORSDO>
F 17

$$$$
=
 OpenBabel11042411373D

 45 50  0  0  1  0  0  0  0  0999 V2000
  190.0930  177.4800  138.2190 C   0  0  2  0  0  3  0  0  0  0  0  0
  189.3180  178.1890  139.3460 C   0  0  1  0  0  3  0  0  0  0  0  0
  188.5860  177.5700  138.1660 C   0  0  1  0  0  3  0  0  0  0  0  0
  190.4630  176.0240  138.4640 C   0  0  1  0  0  3  0  0  0  0  0  0
  190.5960  175.3450  137.2720 C   0  0  0  0  0  2  0  0  0  0  0  0
  193.2590  175.9180  138.0460 C   0  0  0  0  0  0  0  0  0  0  0  0
  193.7630  176.5380  139.0180 O   0  0  0  0  0  0  0  0  0  0  0  0
  191.8450  175.7880  137.9530 N   0  0  0  0  0  0  0  0  0  0  0  0
  194.1590  175.3650  136.9740 C   0  0  1  0  0  3  0  0  0  0  0  0
  193.9920  175.9980  135.6230 C   0  0  0  0  0  0  0  0  0  0  0  0
  193.1070  175.4650  134.6890 O   0  0  0  0  0  0  0  0  0  0  0  0
  194.6840  177.0030  135.3200 O   0  0  0  0  0  1  0  0  0  0  0  0
  195.9610  173.9420  136.8730 C   0  0  0  0  0  1  0  0  0  0  0  0
  195.5000  175.1750  137.3670 O   0  0  0  0  0  0  0  0  0  0  0  0
  188.1710  178.6790  137.2250 C   0  0  0  0  0  2  0  0  0  0  0  0
  186.6960  178.5280  136.9010 C   0  0  0  0  0  2  0  0  0  0  0  0
  185.0650  176.7690  137.5850 C   0  0  0  0  0  3  0  0  0  0  0  0
  186.2670  177.1080  137.0980 C   0  0  0  0  0  3  0  0  0  0  0  0
  184.6730  179.1160  138.2450 C   0  0  0  0  0  3  0  0  0  0  0  0
  182.8650  176.4750  139.7030 O   0  0  0  0  0  0  0  0  0  0  0  0
  184.5970  179.4870  139.4860 N   0  0  0  0  0  0  0  0  0  0  0  0
  183.9250  178.5250  140.2390 N   0  0  0  0  0  0  0  0  0  0  0  0
  183.5470  177.4800  139.3640 C   0  0  0  0  0  0  0  0  0  0  0  0
  184.0260  177.7750  137.9910 C   0  0  2  0  0  3  0  0  0  0  0  0
  183.5860  178.6730  141.6240 C   0  0  0  0  0  0  0  0  0  0  0  0
  183.7100  178.8500  143.7900 N   0  0  0  0  0  0  0  0  0  0  0  0
  184.2030  178.9280  145.1330 C   0  0  0  0  0  0  0  0  0  0  0  0
  182.4220  178.8460  143.4770 N   0  0  0  0  0  0  0  0  0  0  0  0
  182.3050  178.7350  142.1370 C   0  0  0  0  0  3  0  0  0  0  0  0
  184.4660  178.7410  142.6800 C   0  0  0  0  0  3  0  0  0  0  0  0
  183.3870  178.9610  146.0950 O   0  0  0  0  0  0  0  0  0  0  0  0
  185.9080  178.6490  146.8840 C   0  0  0  0  0  2  0  0  0  0  0  0
  185.6790  178.9160  145.4080 C   0  0  0  0  0  3  0  0  0  0  0  0
  186.1430  177.5470  145.8740 C   0  0  0  0  0  2  0  0  0  0  0  0
  189.1930  177.4310  140.6990 C   0  0  1  0  0  3  0  0  0  0  0  0
  191.3470  176.4720  141.8850 C   0  0  0  0  0  2  0  0  0  0  0  0
  190.2620  177.5210  141.8100 C   0  0  0  0  0  0  0  0  0  0  0  0
  191.6640  177.8760  141.3720 C   0  0  0  0  0  2  0  0  0  0  0  0
  189.8770  178.1370  143.1470 C   0  0  0  0  0  2  0  0  0  0  0  0
  189.2730  177.0960  144.0630 C   0  0  0  0  0  2  0  0  0  0  0  0
  189.7770  177.3070  145.4750 C   0  0  0  0  0  2  0  0  0  0  0  0
  191.5190  176.8130  145.5920 S   0  0  0  0  0  0  0  0  0  0  0  0
  191.4240  176.6140  147.3970 C   0  0  0  0  0  1  0  0  0  0  0  0
  187.4480  178.7030  141.2200 C   0  0  0  0  0  1  0  0  0  0  0  0
  187.8880  177.3760  141.2040 O   0  0  0  0  0  0  0  0  0  0  0  0
  1  4  1  1  0  0  0
  1  2  1  0  0  0  0
  2 35  1  1  0  0  0
  3 15  1  6  0  0  0
  3  1  1  0  0  0  0
  3  2  1  0  0  0  0
  4  5  1  6  0  0  0
  5  8  1  0  0  0  0
  6  7  2  0  0  0  0
  8  6  1  0  0  0  0
  8  4  1  0  0  0  0
  9 10  1  6  0  0  0
  9 14  1  0  0  0  0
  9  6  1  0  0  0  0
 11 10  2  0  0  0  0
 12 10  1  0  0  0  0
 13 14  1  0  0  0  0
 16 18  1  0  0  0  0
 16 15  1  0  0  0  0
 18 17  2  0  0  0  0
 19 21  2  0  0  0  0
 21 22  1  0  0  0  0
 22 25  1  0  0  0  0
 23 20  2  0  0  0  0
 23 22  1  0  0  0  0
 24 17  1  1  0  0  0
 24 19  1  0  0  0  0
 24 23  1  0  0  0  0
 25 29  1  0  0  0  0
 25 30  2  0  0  0  0
 26 27  1  0  0  0  0
 27 33  1  0  0  0  0
 27 31  2  0  0  0  0
 28 26  1  0  0  0  0
 29 28  2  0  0  0  0
 30 26  1  0  0  0  0
 33 34  1  0  0  0  0
 33 32  1  0  0  0  0
 34 32  1  0  0  0  0
 35 45  1  1  0  0  0
 35 37  1  0  0  0  0
 37 36  1  0  0  0  0
 37 39  1  0  0  0  0
 38 37  1  0  0  0  0
 38 36  1  0  0  0  0
 39 40  1  0  0  0  0
 40 41  1  0  0  0  0
 41 42  1  0  0  0  0
 42 43  1  0  0  0  0
 45 44  1  0  0  0  0
M  END
>  <MODEL>
3

>  <REMARK>
 VINA RESULT:      -6.6      2.742      5.701
  Name = 
  17 active torsions:
  status: ('A' for Active; 'I' for Inactive)
    1  A    between atoms: C_1  and  C_22
    2  A    between atoms: C_1  and  C_29
    3  A    between atoms: C_3  and  C_45
    4  A    between atoms: C_6  and  N_34
    5  A    between atoms: C_7  and  C_13
    6  A    between atoms: C_8  and  C_39
    7  A    between atoms: C_14  and  C_35
    8  A    between atoms: C_15  and  C_19
    9  A    between atoms: C_20  and  C_29
   10  A    between atoms: C_21  and  C_39
   11  A    between atoms: C_24  and  C_36
   12  A    between atoms: C_24  and  C_43
   13  A    between atoms: S_25  and  C_43
   14  A    between atoms: C_31  and  C_35
   15  A    between atoms: C_31  and  C_36
   16  A    between atoms: C_35  and  O_37
   17  A    between atoms: C_39  and  O_42
                            x       y       z     vdW  Elec       q    Type
                         _______ _______ _______ _____ _____    ______ ____

>  <TORSDO>
F 17

$$$$
=
 OpenBabel11042411373D

 45 50  0  0  1  0  0  0  0  0999 V2000
  182.7970  177.9110  138.9850 C   0  0  2  0  0  3  0  0  0  0  0  0
  181.4510  177.5700  138.3180 C   0  0  1  0  0  3  0  0  0  0  0  0
  181.5230  178.5670  139.4630 C   0  0  1  0  0  3  0  0  0  0  0  0
  183.6400  178.9770  138.3010 C   0  0  1  0  0  3  0  0  0  0  0  0
  184.4470  179.6230  139.2130 C   0  0  0  0  0  2  0  0  0  0  0  0
  186.1730  177.7670  137.9490 C   0  0  0  0  0  0  0  0  0  0  0  0
  186.0010  176.8890  137.0650 O   0  0  0  0  0  0  0  0  0  0  0  0
  185.0740  178.5690  138.3660 N   0  0  0  0  0  0  0  0  0  0  0  0
  187.5290  177.9220  138.5840 C   0  0  1  0  0  3  0  0  0  0  0  0
  188.6270  178.3070  137.6370 C   0  0  0  0  0  0  0  0  0  0  0  0
  188.8350  179.6390  137.2880 O   0  0  0  0  0  1  0  0  0  0  0  0
  189.3480  177.4120  137.1270 O   0  0  0  0  0  0  0  0  0  0  0  0
  188.2260  177.8870  140.7740 C   0  0  0  0  0  1  0  0  0  0  0  0
  187.5340  178.6320  139.8030 O   0  0  0  0  0  0  0  0  0  0  0  0
  181.0360  177.8850  140.7230 C   0  0  0  0  0  2  0  0  0  0  0  0
  180.8480  178.9280  141.8100 C   0  0  0  0  0  2  0  0  0  0  0  0
  181.9300  178.3720  143.9870 C   0  0  0  0  0  3  0  0  0  0  0  0
  180.8810  178.2810  143.1580 C   0  0  0  0  0  3  0  0  0  0  0  0
  183.9100  178.4410  142.5120 C   0  0  0  0  0  3  0  0  0  0  0  0
  184.1090  179.3860  145.8940 O   0  0  0  0  0  0  0  0  0  0  0  0
  185.0590  177.9550  142.8670 N   0  0  0  0  0  0  0  0  0  0  0  0
  185.3000  178.2120  144.2170 N   0  0  0  0  0  0  0  0  0  0  0  0
  184.1930  178.9350  144.7200 C   0  0  0  0  0  0  0  0  0  0  0  0
  183.1850  179.1250  143.6480 C   0  0  2  0  0  3  0  0  0  0  0  0
  186.5210  177.8950  144.8960 C   0  0  0  0  0  0  0  0  0  0  0  0
  188.5930  177.3850  145.3220 N   0  0  0  0  0  0  0  0  0  0  0  0
  189.9830  177.0620  145.1830 C   0  0  0  0  0  0  0  0  0  0  0  0
  187.9550  177.4050  146.4840 N   0  0  0  0  0  0  0  0  0  0  0  0
  186.6610  177.7170  146.2590 C   0  0  0  0  0  3  0  0  0  0  0  0
  187.7490  177.6760  144.3140 C   0  0  0  0  0  3  0  0  0  0  0  0
  190.6530  176.7420  146.2030 O   0  0  0  0  0  0  0  0  0  0  0  0
  191.6660  175.9400  143.7840 C   0  0  0  0  0  2  0  0  0  0  0  0
  190.6330  177.0500  143.8300 C   0  0  0  0  0  3  0  0  0  0  0  0
  190.3360  175.7590  143.0870 C   0  0  0  0  0  2  0  0  0  0  0  0
  181.1920  178.1720  136.9060 C   0  0  1  0  0  3  0  0  0  0  0  0
  179.3430  179.5690  135.6440 C   0  0  0  0  0  2  0  0  0  0  0  0
  180.4320  179.4990  136.6880 C   0  0  0  0  0  0  0  0  0  0  0  0
  178.9870  179.5300  137.1290 C   0  0  0  0  0  2  0  0  0  0  0  0
  181.1640  180.8090  136.9360 C   0  0  0  0  0  2  0  0  0  0  0  0
  180.3790  181.9760  136.3790 C   0  0  0  0  0  2  0  0  0  0  0  0
  180.1950  183.0250  137.4550 C   0  0  0  0  0  2  0  0  0  0  0  0
  181.2950  184.4340  137.1420 S   0  0  0  0  0  0  0  0  0  0  0  0
  180.7920  184.5420  135.3980 C   0  0  0  0  0  1  0  0  0  0  0  0
  182.1250  176.6900  135.5400 C   0  0  0  0  0  1  0  0  0  0  0  0
  182.2540  178.0000  136.0100 O   0  0  0  0  0  0  0  0  0  0  0  0
  1  4  1  6  0  0  0
  1  3  1  0  0  0  0
  2 35  1  6  0  0  0
  2  1  1  0  0  0  0
  2  3  1  0  0  0  0
  3 15  1  1  0  0  0
  4  8  1  0  0  0  0
  4  5  1  1  0  0  0
  6  8  1  0  0  0  0
  6  9  1  0  0  0  0
  7  6  2  0  0  0  0
  8  5  1  0  0  0  0
  9 10  1  6  0  0  0
  9 14  1  0  0  0  0
 11 10  1  0  0  0  0
 12 10  2  0  0  0  0
 14 13  1  0  0  0  0
 15 16  1  0  0  0  0
 16 18  1  0  0  0  0
 18 17  2  0  0  0  0
 19 21  2  0  0  0  0
 19 24  1  0  0  0  0
 21 22  1  0  0  0  0
 22 23  1  0  0  0  0
 22 25  1  0  0  0  0
 23 20  2  0  0  0  0
 24 17  1  1  0  0  0
 24 23  1  0  0  0  0
 25 29  1  0  0  0  0
 26 28  1  0  0  0  0
 27 26  1  0  0  0  0
 27 31  2  0  0  0  0
 29 28  2  0  0  0  0
 30 25  2  0  0  0  0
 30 26  1  0  0  0  0
 32 33  1  0  0  0  0
 33 27  1  0  0  0  0
 34 32  1  0  0  0  0
 34 33  1  0  0  0  0
 35 45  1  1  0  0  0
 36 37  1  0  0  0  0
 36 38  1  0  0  0  0
 37 35  1  0  0  0  0
 37 39  1  0  0  0  0
 37 38  1  0  0  0  0
 40 39  1  0  0  0  0
 40 41  1  0  0  0  0
 42 41  1  0  0  0  0
 43 42  1  0  0  0  0
 44 45  1  0  0  0  0
M  END
>  <MODEL>
4

>  <REMARK>
 VINA RESULT:      -6.5      4.051      7.999
  Name = 
  17 active torsions:
  status: ('A' for Active; 'I' for Inactive)
    1  A    between atoms: C_1  and  C_22
    2  A    between atoms: C_1  and  C_29
    3  A    between atoms: C_3  and  C_45
    4  A    between atoms: C_6  and  N_34
    5  A    between atoms: C_7  and  C_13
    6  A    between atoms: C_8  and  C_39
    7  A    between atoms: C_14  and  C_35
    8  A    between atoms: C_15  and  C_19
    9  A    between atoms: C_20  and  C_29
   10  A    between atoms: C_21  and  C_39
   11  A    between atoms: C_24  and  C_36
   12  A    between atoms: C_24  and  C_43
   13  A    between atoms: S_25  and  C_43
   14  A    between atoms: C_31  and  C_35
   15  A    between atoms: C_31  and  C_36
   16  A    between atoms: C_35  and  O_37
   17  A    between atoms: C_39  and  O_42
                            x       y       z     vdW  Elec       q    Type
                         _______ _______ _______ _____ _____    ______ ____

>  <TORSDO>
F 17

$$$$
=
 OpenBabel11042411373D

 45 50  0  0  1  0  0  0  0  0999 V2000
  185.6530  176.4290  137.2280 C   0  0  2  0  0  3  0  0  0  0  0  0
  184.8330  177.5990  137.8050 C   0  0  1  0  0  3  0  0  0  0  0  0
  185.5830  177.7470  136.4910 C   0  0  1  0  0  3  0  0  0  0  0  0
  184.8830  175.4000  136.4130 C   0  0  1  0  0  3  0  0  0  0  0  0
  185.5200  175.1470  135.2170 C   0  0  0  0  0  2  0  0  0  0  0  0
  186.2470  172.9640  136.8680 C   0  0  0  0  0  0  0  0  0  0  0  0
  185.9990  172.6640  138.0650 O   0  0  0  0  0  0  0  0  0  0  0  0
  185.7010  174.1560  136.3160 N   0  0  0  0  0  0  0  0  0  0  0  0
  187.1530  172.0790  136.0560 C   0  0  1  0  0  3  0  0  0  0  0  0
  186.4550  170.9820  135.3060 C   0  0  0  0  0  0  0  0  0  0  0  0
  185.1230  171.1140  134.9240 O   0  0  0  0  0  0  0  0  0  0  0  0
  187.0730  169.9180  135.0480 O   0  0  0  0  0  1  0  0  0  0  0  0
  189.2330  173.0540  136.1380 C   0  0  0  0  0  1  0  0  0  0  0  0
  188.1350  172.7630  135.3100 O   0  0  0  0  0  0  0  0  0  0  0  0
  186.8430  178.5450  136.7470 C   0  0  0  0  0  2  0  0  0  0  0  0
  188.0280  177.5970  136.7980 C   0  0  0  0  0  2  0  0  0  0  0  0
  189.5720  178.2380  138.6480 C   0  0  0  0  0  3  0  0  0  0  0  0
  189.2270  178.2970  137.3550 C   0  0  0  0  0  3  0  0  0  0  0  0
  187.8350  178.3940  140.3970 C   0  0  0  0  0  3  0  0  0  0  0  0
  190.6270  176.2870  140.7670 O   0  0  0  0  0  0  0  0  0  0  0  0
  188.1240  178.5370  141.6540 N   0  0  0  0  0  0  0  0  0  0  0  0
  189.2500  177.7820  141.9830 N   0  0  0  0  0  0  0  0  0  0  0  0
  189.6720  177.1080  140.8130 C   0  0  0  0  0  0  0  0  0  0  0  0
  188.7900  177.4710  139.6760 C   0  0  2  0  0  3  0  0  0  0  0  0
  189.7710  177.6430  143.3110 C   0  0  0  0  0  0  0  0  0  0  0  0
  189.9350  177.3980  145.4670 N   0  0  0  0  0  0  0  0  0  0  0  0
  189.6240  177.2260  146.8550 C   0  0  0  0  0  0  0  0  0  0  0  0
  191.1650  177.5710  145.0040 N   0  0  0  0  0  0  0  0  0  0  0  0
  191.1030  177.7290  143.6650 C   0  0  0  0  0  3  0  0  0  0  0  0
  189.0410  177.4400  144.4590 C   0  0  0  0  0  3  0  0  0  0  0  0
  190.5500  177.2710  147.7110 O   0  0  0  0  0  0  0  0  0  0  0  0
  188.0350  177.6550  148.6830 C   0  0  0  0  0  2  0  0  0  0  0  0
  188.2030  177.0460  147.3030 C   0  0  0  0  0  3  0  0  0  0  0  0
  187.5030  178.3840  147.4690 C   0  0  0  0  0  2  0  0  0  0  0  0
  183.2840  177.4930  137.6970 C   0  0  1  0  0  3  0  0  0  0  0  0
  181.2840  176.0710  138.6670 C   0  0  0  0  0  2  0  0  0  0  0  0
  182.3880  177.0780  138.8850 C   0  0  0  0  0  0  0  0  0  0  0  0
  182.5610  175.6680  139.4010 C   0  0  0  0  0  2  0  0  0  0  0  0
  182.1180  178.0910  139.9870 C   0  0  0  0  0  2  0  0  0  0  0  0
  180.8610  178.8800  139.6950 C   0  0  0  0  0  2  0  0  0  0  0  0
  180.4120  179.6030  140.9460 C   0  0  0  0  0  2  0  0  0  0  0  0
  180.0600  178.4040  142.2630 S   0  0  0  0  0  0  0  0  0  0  0  0
  181.3060  179.1320  143.3690 C   0  0  0  0  0  1  0  0  0  0  0  0
  182.0980  177.7870  135.8430 C   0  0  0  0  0  1  0  0  0  0  0  0
  182.6990  178.4810  136.8960 O   0  0  0  0  0  0  0  0  0  0  0  0
  1  4  1  6  0  0  0
  1  2  1  0  0  0  0
  2 35  1  6  0  0  0
  3 15  1  1  0  0  0
  3  1  1  0  0  0  0
  3  2  1  0  0  0  0
  4  5  1  6  0  0  0
  5  8  1  0  0  0  0
  6  7  2  0  0  0  0
  8  4  1  0  0  0  0
  8  6  1  0  0  0  0
  9 10  1  6  0  0  0
  9  6  1  0  0  0  0
 11 10  2  0  0  0  0
 12 10  1  0  0  0  0
 14  9  1  0  0  0  0
 14 13  1  0  0  0  0
 15 16  1  0  0  0  0
 16 18  1  0  0  0  0
 18 17  2  0  0  0  0
 19 21  2  0  0  0  0
 20 23  2  0  0  0  0
 21 22  1  0  0  0  0
 22 25  1  0  0  0  0
 23 22  1  0  0  0  0
 24 17  1  6  0  0  0
 24 19  1  0  0  0  0
 24 23  1  0  0  0  0
 25 29  1  0  0  0  0
 25 30  2  0  0  0  0
 26 27  1  0  0  0  0
 27 33  1  0  0  0  0
 27 31  2  0  0  0  0
 28 26  1  0  0  0  0
 29 28  2  0  0  0  0
 30 26  1  0  0  0  0
 33 34  1  0  0  0  0
 33 32  1  0  0  0  0
 34 32  1  0  0  0  0
 35 45  1  1  0  0  0
 35 37  1  0  0  0  0
 36 37  1  0  0  0  0
 36 38  1  0  0  0  0
 37 38  1  0  0  0  0
 37 39  1  0  0  0  0
 40 39  1  0  0  0  0
 40 41  1  0  0  0  0
 41 42  1  0  0  0  0
 42 43  1  0  0  0  0
 44 45  1  0  0  0  0
M  END
>  <MODEL>
5

>  <REMARK>
 VINA RESULT:      -6.3      3.664      7.428
  Name = 
  17 active torsions:
  status: ('A' for Active; 'I' for Inactive)
    1  A    between atoms: C_1  and  C_22
    2  A    between atoms: C_1  and  C_29
    3  A    between atoms: C_3  and  C_45
    4  A    between atoms: C_6  and  N_34
    5  A    between atoms: C_7  and  C_13
    6  A    between atoms: C_8  and  C_39
    7  A    between atoms: C_14  and  C_35
    8  A    between atoms: C_15  and  C_19
    9  A    between atoms: C_20  and  C_29
   10  A    between atoms: C_21  and  C_39
   11  A    between atoms: C_24  and  C_36
   12  A    between atoms: C_24  and  C_43
   13  A    between atoms: S_25  and  C_43
   14  A    between atoms: C_31  and  C_35
   15  A    between atoms: C_31  and  C_36
   16  A    between atoms: C_35  and  O_37
   17  A    between atoms: C_39  and  O_42
                            x       y       z     vdW  Elec       q    Type
                         _______ _______ _______ _____ _____    ______ ____

>  <TORSDO>
F 17

$$$$
=
 OpenBabel11042411373D

 45 50  0  0  1  0  0  0  0  0999 V2000
  190.6490  177.1160  138.3160 C   0  0  2  0  0  3  0  0  0  0  0  0
  189.8470  177.9430  139.3390 C   0  0  1  0  0  3  0  0  0  0  0  0
  189.1510  177.2500  138.1790 C   0  0  1  0  0  3  0  0  0  0  0  0
  190.9530  175.6750  138.7010 C   0  0  1  0  0  3  0  0  0  0  0  0
  190.9360  174.8580  137.5910 C   0  0  0  0  0  2  0  0  0  0  0  0
  193.6880  175.3280  138.0670 C   0  0  0  0  0  0  0  0  0  0  0  0
  194.3140  176.0170  138.9130 O   0  0  0  0  0  0  0  0  0  0  0  0
  192.2660  175.2870  138.1080 N   0  0  0  0  0  0  0  0  0  0  0  0
  194.4530  174.5960  136.9970 C   0  0  1  0  0  3  0  0  0  0  0  0
  194.7940  175.4210  135.7910 C   0  0  0  0  0  0  0  0  0  0  0  0
  194.0980  175.2600  134.5950 O   0  0  0  0  0  0  0  0  0  0  0  0
  195.7420  176.2450  135.8510 O   0  0  0  0  0  1  0  0  0  0  0  0
  195.8920  172.8840  136.4660 C   0  0  0  0  0  1  0  0  0  0  0  0
  195.5090  173.7900  137.4700 O   0  0  0  0  0  0  0  0  0  0  0  0
  188.8230  178.2880  137.1280 C   0  0  0  0  0  2  0  0  0  0  0  0
  188.4120  177.5840  135.8470 C   0  0  0  0  0  2  0  0  0  0  0  0
  185.9630  178.0330  135.6990 C   0  0  0  0  0  3  0  0  0  0  0  0
  187.2090  178.2490  135.2550 C   0  0  0  0  0  3  0  0  0  0  0  0
  184.3300  176.3940  136.5630 C   0  0  0  0  0  3  0  0  0  0  0  0
  186.0220  178.6050  138.7120 O   0  0  0  0  0  0  0  0  0  0  0  0
  183.4040  176.7160  137.4120 N   0  0  0  0  0  0  0  0  0  0  0  0
  183.8950  177.6310  138.3430 N   0  0  0  0  0  0  0  0  0  0  0  0
  185.2530  177.8730  138.0320 C   0  0  0  0  0  0  0  0  0  0  0  0
  185.6410  177.0960  136.8290 C   0  0  2  0  0  3  0  0  0  0  0  0
  183.1550  178.1130  139.4730 C   0  0  0  0  0  0  0  0  0  0  0  0
  182.5580  178.6380  141.4980 N   0  0  0  0  0  0  0  0  0  0  0  0
  182.5430  178.8240  142.9200 C   0  0  0  0  0  0  0  0  0  0  0  0
  181.5330  178.9230  140.7080 N   0  0  0  0  0  0  0  0  0  0  0  0
  181.8660  178.6060  139.4390 C   0  0  0  0  0  3  0  0  0  0  0  0
  183.5810  178.1320  140.7820 C   0  0  0  0  0  3  0  0  0  0  0  0
  181.4960  179.2470  143.4810 O   0  0  0  0  0  0  0  0  0  0  0  0
  184.5780  179.7140  143.9770 C   0  0  0  0  0  2  0  0  0  0  0  0
  183.7430  178.4680  143.7490 C   0  0  0  0  0  3  0  0  0  0  0  0
  183.7130  179.1730  145.0940 C   0  0  0  0  0  2  0  0  0  0  0  0
  189.6290  177.3080  140.7420 C   0  0  1  0  0  3  0  0  0  0  0  0
  191.4700  176.3630  142.3800 C   0  0  0  0  0  2  0  0  0  0  0  0
  190.6100  177.5150  141.9160 C   0  0  0  0  0  0  0  0  0  0  0  0
  192.0830  177.5080  141.5760 C   0  0  0  0  0  2  0  0  0  0  0  0
  190.2500  178.5190  143.0020 C   0  0  0  0  0  2  0  0  0  0  0  0
  190.3990  177.9010  144.3750 C   0  0  0  0  0  2  0  0  0  0  0  0
  189.1830  178.2300  145.2150 C   0  0  0  0  0  2  0  0  0  0  0  0
  187.7860  177.1820  144.7210 S   0  0  0  0  0  0  0  0  0  0  0  0
  186.8690  177.5480  146.2480 C   0  0  0  0  0  1  0  0  0  0  0  0
  187.8950  178.6160  141.2090 C   0  0  0  0  0  1  0  0  0  0  0  0
  188.2900  177.2760  141.1520 O   0  0  0  0  0  0  0  0  0  0  0  0
  1  4  1  1  0  0  0
  1  2  1  0  0  0  0
  2 35  1  1  0  0  0
  3 15  1  6  0  0  0
  3  1  1  0  0  0  0
  3  2  1  0  0  0  0
  4  5  1  6  0  0  0
  5  8  1  0  0  0  0
  6  8  1  0  0  0  0
  6  7  2  0  0  0  0
  8  4  1  0  0  0  0
  9 10  1  6  0  0  0
  9 14  1  0  0  0  0
  9  6  1  0  0  0  0
 10 12  1  0  0  0  0
 11 10  2  0  0  0  0
 13 14  1  0  0  0  0
 16 15  1  0  0  0  0
 18 17  2  0  0  0  0
 18 16  1  0  0  0  0
 19 24  1  0  0  0  0
 19 21  2  0  0  0  0
 21 22  1  0  0  0  0
 22 25  1  0  0  0  0
 23 22  1  0  0  0  0
 23 20  2  0  0  0  0
 24 17  1  6  0  0  0
 24 23  1  0  0  0  0
 25 30  2  0  0  0  0
 26 27  1  0  0  0  0
 27 31  2  0  0  0  0
 27 33  1  0  0  0  0
 28 26  1  0  0  0  0
 29 25  1  0  0  0  0
 29 28  2  0  0  0  0
 30 26  1  0  0  0  0
 32 34  1  0  0  0  0
 33 32  1  0  0  0  0
 33 34  1  0  0  0  0
 35 45  1  1  0  0  0
 35 37  1  0  0  0  0
 37 36  1  0  0  0  0
 37 39  1  0  0  0  0
 38 37  1  0  0  0  0
 38 36  1  0  0  0  0
 39 40  1  0  0  0  0
 40 41  1  0  0  0  0
 42 41  1  0  0  0  0
 42 43  1  0  0  0  0
 45 44  1  0  0  0  0
M  END
>  <MODEL>
6

>  <REMARK>
 VINA RESULT:      -5.9      2.280      5.407
  Name = 
  17 active torsions:
  status: ('A' for Active; 'I' for Inactive)
    1  A    between atoms: C_1  and  C_22
    2  A    between atoms: C_1  and  C_29
    3  A    between atoms: C_3  and  C_45
    4  A    between atoms: C_6  and  N_34
    5  A    between atoms: C_7  and  C_13
    6  A    between atoms: C_8  and  C_39
    7  A    between atoms: C_14  and  C_35
    8  A    between atoms: C_15  and  C_19
    9  A    between atoms: C_20  and  C_29
   10  A    between atoms: C_21  and  C_39
   11  A    between atoms: C_24  and  C_36
   12  A    between atoms: C_24  and  C_43
   13  A    between atoms: S_25  and  C_43
   14  A    between atoms: C_31  and  C_35
   15  A    between atoms: C_31  and  C_36
   16  A    between atoms: C_35  and  O_37
   17  A    between atoms: C_39  and  O_42
                            x       y       z     vdW  Elec       q    Type
                         _______ _______ _______ _____ _____    ______ ____

>  <TORSDO>
F 17

$$$$
=
 OpenBabel11042411373D

 45 50  0  0  1  0  0  0  0  0999 V2000
  190.1320  177.4880  138.7640 C   0  0  2  0  0  3  0  0  0  0  0  0
  189.2740  178.1790  139.8410 C   0  0  1  0  0  3  0  0  0  0  0  0
  188.6250  177.4780  138.6580 C   0  0  1  0  0  3  0  0  0  0  0  0
  190.5860  176.0680  139.0680 C   0  0  1  0  0  3  0  0  0  0  0  0
  190.5720  175.2940  137.9280 C   0  0  0  0  0  2  0  0  0  0  0  0
  193.2960  175.9950  138.2590 C   0  0  0  0  0  0  0  0  0  0  0  0
  193.9110  176.7060  139.0950 O   0  0  0  0  0  0  0  0  0  0  0  0
  191.8890  175.8230  138.3830 N   0  0  0  0  0  0  0  0  0  0  0  0
  194.0530  175.3750  137.1150 C   0  0  1  0  0  3  0  0  0  0  0  0
  194.1900  173.8830  137.1860 C   0  0  0  0  0  0  0  0  0  0  0  0
  195.0440  173.2870  138.1110 O   0  0  0  0  0  1  0  0  0  0  0  0
  193.5500  173.1630  136.3780 O   0  0  0  0  0  0  0  0  0  0  0  0
  194.7060  176.7550  135.3970 C   0  0  0  0  0  1  0  0  0  0  0  0
  193.7080  175.8690  135.8400 O   0  0  0  0  0  0  0  0  0  0  0  0
  188.1740  178.5290  137.6680 C   0  0  0  0  0  2  0  0  0  0  0  0
  188.2360  177.9490  136.2670 C   0  0  0  0  0  2  0  0  0  0  0  0
  185.8030  177.6880  135.7820 C   0  0  0  0  0  3  0  0  0  0  0  0
  186.9800  178.2710  135.5180 C   0  0  0  0  0  3  0  0  0  0  0  0
  184.8080  175.4900  136.3120 C   0  0  0  0  0  3  0  0  0  0  0  0
  184.8930  178.0840  138.6850 O   0  0  0  0  0  0  0  0  0  0  0  0
  183.6540  175.3700  136.8920 N   0  0  0  0  0  0  0  0  0  0  0  0
  183.4950  176.3580  137.8650 N   0  0  0  0  0  0  0  0  0  0  0  0
  184.6730  177.1400  137.8800 C   0  0  0  0  0  0  0  0  0  0  0  0
  185.6190  176.6460  136.8490 C   0  0  2  0  0  3  0  0  0  0  0  0
  182.3740  176.4450  138.7540 C   0  0  0  0  0  0  0  0  0  0  0  0
  180.9810  177.1120  140.2870 N   0  0  0  0  0  0  0  0  0  0  0  0
  180.3420  177.8640  141.3270 C   0  0  0  0  0  0  0  0  0  0  0  0
  180.5360  175.9450  139.8430 N   0  0  0  0  0  0  0  0  0  0  0  0
  181.3790  175.4970  138.8890 C   0  0  0  0  0  3  0  0  0  0  0  0
  182.1150  177.4590  139.6470 C   0  0  0  0  0  3  0  0  0  0  0  0
  179.3170  177.3970  141.8930 O   0  0  0  0  0  0  0  0  0  0  0  0
  180.3330  179.5270  143.1390 C   0  0  0  0  0  2  0  0  0  0  0  0
  180.9140  179.1750  141.7820 C   0  0  0  0  0  3  0  0  0  0  0  0
  181.7500  179.0060  143.0400 C   0  0  0  0  0  2  0  0  0  0  0  0
  189.1500  177.4560  141.2130 C   0  0  1  0  0  3  0  0  0  0  0  0
  191.1510  176.4480  142.6100 C   0  0  0  0  0  2  0  0  0  0  0  0
  190.2070  177.5950  142.3310 C   0  0  0  0  0  0  0  0  0  0  0  0
  191.6480  177.7000  141.8890 C   0  0  0  0  0  2  0  0  0  0  0  0
  189.8840  178.4620  143.5380 C   0  0  0  0  0  2  0  0  0  0  0  0
  189.2200  177.6450  144.6250 C   0  0  0  0  0  2  0  0  0  0  0  0
  189.9250  177.8830  145.9430 C   0  0  0  0  0  2  0  0  0  0  0  0
  189.0440  177.0300  147.2810 S   0  0  0  0  0  0  0  0  0  0  0  0
  187.4790  177.8720  146.8950 C   0  0  0  0  0  1  0  0  0  0  0  0
  187.2680  178.6220  141.3840 C   0  0  0  0  0  1  0  0  0  0  0  0
  187.8420  177.3900  141.7080 O   0  0  0  0  0  0  0  0  0  0  0  0
  1  4  1  1  0  0  0
  1  2  1  0  0  0  0
  2 35  1  1  0  0  0
  3 15  1  6  0  0  0
  3  1  1  0  0  0  0
  3  2  1  0  0  0  0
  4  5  1  6  0  0  0
  5  8  1  0  0  0  0
  6  8  1  0  0  0  0
  6  7  2  0  0  0  0
  8  4  1  0  0  0  0
  9 14  1  6  0  0  0
  9 10  1  0  0  0  0
  9  6  1  0  0  0  0
 10 11  1  0  0  0  0
 12 10  2  0  0  0  0
 13 14  1  0  0  0  0
 16 15  1  0  0  0  0
 18 17  2  0  0  0  0
 18 16  1  0  0  0  0
 19 24  1  0  0  0  0
 19 21  2  0  0  0  0
 21 22  1  0  0  0  0
 22 23  1  0  0  0  0
 22 25  1  0  0  0  0
 23 20  2  0  0  0  0
 24 17  1  6  0  0  0
 24 23  1  0  0  0  0
 25 29  1  0  0  0  0
 25 30  2  0  0  0  0
 26 27  1  0  0  0  0
 27 33  1  0  0  0  0
 27 31  2  0  0  0  0
 28 26  1  0  0  0  0
 29 28  2  0  0  0  0
 30 26  1  0  0  0  0
 33 34  1  0  0  0  0
 33 32  1  0  0  0  0
 34 32  1  0  0  0  0
 35 45  1  1  0  0  0
 35 37  1  0  0  0  0
 37 36  1  0  0  0  0
 37 39  1  0  0  0  0
 38 37  1  0  0  0  0
 38 36  1  0  0  0  0
 39 40  1  0  0  0  0
 40 41  1  0  0  0  0
 41 42  1  0  0  0  0
 43 42  1  0  0  0  0
 44 45  1  0  0  0  0
M  END
>  <MODEL>
7

>  <REMARK>
 VINA RESULT:      -5.8      2.801      5.638
  Name = 
  17 active torsions:
  status: ('A' for Active; 'I' for Inactive)
    1  A    between atoms: C_1  and  C_22
    2  A    between atoms: C_1  and  C_29
    3  A    between atoms: C_3  and  C_45
    4  A    between atoms: C_6  and  N_34
    5  A    between atoms: C_7  and  C_13
    6  A    between atoms: C_8  and  C_39
    7  A    between atoms: C_14  and  C_35
    8  A    between atoms: C_15  and  C_19
    9  A    between atoms: C_20  and  C_29
   10  A    between atoms: C_21  and  C_39
   11  A    between atoms: C_24  and  C_36
   12  A    between atoms: C_24  and  C_43
   13  A    between atoms: S_25  and  C_43
   14  A    between atoms: C_31  and  C_35
   15  A    between atoms: C_31  and  C_36
   16  A    between atoms: C_35  and  O_37
   17  A    between atoms: C_39  and  O_42
                            x       y       z     vdW  Elec       q    Type
                         _______ _______ _______ _____ _____    ______ ____

>  <TORSDO>
F 17

$$$$
=
 OpenBabel11042411373D

 45 50  0  0  1  0  0  0  0  0999 V2000
  191.1450  176.0050  138.5140 C   0  0  2  0  0  3  0  0  0  0  0  0
  189.7280  175.8640  137.9270 C   0  0  1  0  0  3  0  0  0  0  0  0
  190.2040  177.1860  138.5070 C   0  0  1  0  0  3  0  0  0  0  0  0
  192.2630  176.2960  137.5230 C   0  0  1  0  0  3  0  0  0  0  0  0
  193.2940  176.9770  138.1330 C   0  0  0  0  0  2  0  0  0  0  0  0
  194.2000  174.2950  138.0230 C   0  0  0  0  0  0  0  0  0  0  0  0
  193.6850  173.2250  137.6090 O   0  0  0  0  0  0  0  0  0  0  0  0
  193.4700  175.5130  137.9170 N   0  0  0  0  0  0  0  0  0  0  0  0
  195.5610  174.2630  138.6640 C   0  0  1  0  0  3  0  0  0  0  0  0
  196.7110  174.2490  137.7000 C   0  0  0  0  0  0  0  0  0  0  0  0
  197.5620  173.1490  137.6190 O   0  0  0  0  0  1  0  0  0  0  0  0
  196.9280  175.2560  136.9800 O   0  0  0  0  0  0  0  0  0  0  0  0
  196.9310  174.8540  140.4130 C   0  0  0  0  0  1  0  0  0  0  0  0
  195.7240  175.1440  139.7530 O   0  0  0  0  0  0  0  0  0  0  0  0
  189.5850  177.3570  139.8780 C   0  0  0  0  0  2  0  0  0  0  0  0
  190.6410  177.0850  140.9350 C   0  0  0  0  0  2  0  0  0  0  0  0
  189.4780  176.2060  142.9580 C   0  0  0  0  0  3  0  0  0  0  0  0
  190.1900  175.9860  141.8450 C   0  0  0  0  0  3  0  0  0  0  0  0
  188.8950  177.5930  144.9170 C   0  0  0  0  0  3  0  0  0  0  0  0
  187.2500  177.9900  141.8330 O   0  0  0  0  0  0  0  0  0  0  0  0
  187.6670  177.7980  145.2830 N   0  0  0  0  0  0  0  0  0  0  0  0
  186.8460  177.9510  144.1660 N   0  0  0  0  0  0  0  0  0  0  0  0
  187.6600  177.8390  143.0160 C   0  0  0  0  0  0  0  0  0  0  0  0
  189.0650  177.5760  143.4160 C   0  0  2  0  0  3  0  0  0  0  0  0
  185.4540  178.2880  144.2250 C   0  0  0  0  0  0  0  0  0  0  0  0
  183.3990  178.7490  143.6760 N   0  0  0  0  0  0  0  0  0  0  0  0
  182.2010  178.9900  142.9280 C   0  0  0  0  0  0  0  0  0  0  0  0
  183.4870  178.8890  144.9910 N   0  0  0  0  0  0  0  0  0  0  0  0
  184.7530  178.6130  145.3700 C   0  0  0  0  0  3  0  0  0  0  0  0
  184.5890  178.3830  143.1590 C   0  0  0  0  0  3  0  0  0  0  0  0
  181.1650  179.3930  143.5250 O   0  0  0  0  0  0  0  0  0  0  0  0
  180.9820  177.9780  141.0460 C   0  0  0  0  0  2  0  0  0  0  0  0
  182.1830  178.8190  141.4370 C   0  0  0  0  0  3  0  0  0  0  0  0
  180.9600  179.4740  140.8190 C   0  0  0  0  0  2  0  0  0  0  0  0
  189.6110  175.8030  136.3770 C   0  0  1  0  0  3  0  0  0  0  0  0
  190.4890  173.8620  134.8180 C   0  0  0  0  0  2  0  0  0  0  0  0
  189.3630  174.4870  135.6070 C   0  0  0  0  0  0  0  0  0  0  0  0
  190.0450  173.2500  136.1450 C   0  0  0  0  0  2  0  0  0  0  0  0
  187.9710  174.2130  135.0570 C   0  0  0  0  0  2  0  0  0  0  0  0
  187.1240  173.4840  136.0770 C   0  0  0  0  0  2  0  0  0  0  0  0
  185.9340  172.8510  135.3890 C   0  0  0  0  0  2  0  0  0  0  0  0
  186.2440  171.0850  135.1110 S   0  0  0  0  0  0  0  0  0  0  0  0
  184.5630  170.6250  135.6290 C   0  0  0  0  0  1  0  0  0  0  0  0
  189.7700  177.3250  134.7670 C   0  0  0  0  0  1  0  0  0  0  0  0
  188.9450  176.8970  135.8110 O   0  0  0  0  0  0  0  0  0  0  0  0
  1  4  1  6  0  0  0
  2 35  1  6  0  0  0
  2  3  1  0  0  0  0
  2  1  1  0  0  0  0
  3  1  1  0  0  0  0
  3 15  1  1  0  0  0
  4  8  1  0  0  0  0
  4  5  1  1  0  0  0
  6  9  1  0  0  0  0
  7  6  2  0  0  0  0
  8  6  1  0  0  0  0
  8  5  1  0  0  0  0
  9 10  1  6  0  0  0
  9 14  1  0  0  0  0
 11 10  1  0  0  0  0
 12 10  2  0  0  0  0
 14 13  1  0  0  0  0
 15 16  1  0  0  0  0
 16 18  1  0  0  0  0
 18 17  2  0  0  0  0
 19 21  2  0  0  0  0
 20 23  2  0  0  0  0
 22 25  1  0  0  0  0
 22 21  1  0  0  0  0
 23 24  1  0  0  0  0
 23 22  1  0  0  0  0
 24 17  1  6  0  0  0
 24 19  1  0  0  0  0
 25 29  1  0  0  0  0
 26 28  1  0  0  0  0
 27 31  2  0  0  0  0
 27 26  1  0  0  0  0
 28 29  2  0  0  0  0
 30 26  1  0  0  0  0
 30 25  2  0  0  0  0
 32 33  1  0  0  0  0
 33 27  1  0  0  0  0
 34 32  1  0  0  0  0
 34 33  1  0  0  0  0
 35 45  1  1  0  0  0
 36 37  1  0  0  0  0
 36 38  1  0  0  0  0
 37 38  1  0  0  0  0
 37 35  1  0  0  0  0
 39 37  1  0  0  0  0
 39 40  1  0  0  0  0
 41 40  1  0  0  0  0
 42 41  1  0  0  0  0
 42 43  1  0  0  0  0
 44 45  1  0  0  0  0
M  END
>  <MODEL>
8

>  <REMARK>
 VINA RESULT:      -5.6      2.211      2.891
  Name = 
  17 active torsions:
  status: ('A' for Active; 'I' for Inactive)
    1  A    between atoms: C_1  and  C_22
    2  A    between atoms: C_1  and  C_29
    3  A    between atoms: C_3  and  C_45
    4  A    between atoms: C_6  and  N_34
    5  A    between atoms: C_7  and  C_13
    6  A    between atoms: C_8  and  C_39
    7  A    between atoms: C_14  and  C_35
    8  A    between atoms: C_15  and  C_19
    9  A    between atoms: C_20  and  C_29
   10  A    between atoms: C_21  and  C_39
   11  A    between atoms: C_24  and  C_36
   12  A    between atoms: C_24  and  C_43
   13  A    between atoms: S_25  and  C_43
   14  A    between atoms: C_31  and  C_35
   15  A    between atoms: C_31  and  C_36
   16  A    between atoms: C_35  and  O_37
   17  A    between atoms: C_39  and  O_42
                            x       y       z     vdW  Elec       q    Type
                         _______ _______ _______ _____ _____    ______ ____

>  <TORSDO>
F 17

$$$$
=
 OpenBabel11042411373D

 45 50  0  0  1  0  0  0  0  0999 V2000
  183.2060  178.5490  138.6000 C   0  0  2  0  0  3  0  0  0  0  0  0
  183.5190  178.3990  137.0990 C   0  0  1  0  0  3  0  0  0  0  0  0
  184.3920  177.7290  138.1480 C   0  0  1  0  0  3  0  0  0  0  0  0
  182.1720  177.5930  139.1750 C   0  0  1  0  0  3  0  0  0  0  0  0
  182.7000  176.8730  140.2240 C   0  0  0  0  0  2  0  0  0  0  0  0
  181.1830  178.9110  141.4750 C   0  0  0  0  0  0  0  0  0  0  0  0
  180.5070  179.8780  141.0380 O   0  0  0  0  0  0  0  0  0  0  0  0
  181.8280  178.0340  140.5580 N   0  0  0  0  0  0  0  0  0  0  0  0
  181.3340  178.7250  142.9610 C   0  0  1  0  0  3  0  0  0  0  0  0
  182.7150  178.9810  143.4900 C   0  0  0  0  0  0  0  0  0  0  0  0
  182.9350  179.1670  144.8520 O   0  0  0  0  0  1  0  0  0  0  0  0
  183.6810  179.0610  142.6890 O   0  0  0  0  0  0  0  0  0  0  0  0
  179.5760  178.2590  144.3660 C   0  0  0  0  0  1  0  0  0  0  0  0
  180.2990  179.2870  143.7360 O   0  0  0  0  0  0  0  0  0  0  0  0
  185.6620  178.5370  138.3010 C   0  0  0  0  0  2  0  0  0  0  0  0
  186.6200  178.1690  137.1810 C   0  0  0  0  0  2  0  0  0  0  0  0
  188.2980  176.5820  138.1220 C   0  0  0  0  0  3  0  0  0  0  0  0
  187.1840  176.8020  137.4120 C   0  0  0  0  0  3  0  0  0  0  0  0
  190.5260  177.2220  138.9770 C   0  0  0  0  0  3  0  0  0  0  0  0
  187.5760  178.3080  140.5530 O   0  0  0  0  0  0  0  0  0  0  0  0
  190.8390  177.1400  140.2330 N   0  0  0  0  0  0  0  0  0  0  0  0
  189.7550  177.5110  141.0290 N   0  0  0  0  0  0  0  0  0  0  0  0
  188.6900  177.8630  140.1670 C   0  0  0  0  0  0  0  0  0  0  0  0
  189.1040  177.6820  138.7530 C   0  0  2  0  0  3  0  0  0  0  0  0
  189.8000  177.6250  142.4570 C   0  0  0  0  0  0  0  0  0  0  0  0
  189.2340  177.7220  144.5560 N   0  0  0  0  0  0  0  0  0  0  0  0
  188.4790  177.7280  145.7740 C   0  0  0  0  0  0  0  0  0  0  0  0
  190.5390  177.9470  144.4980 N   0  0  0  0  0  0  0  0  0  0  0  0
  190.9280  177.8970  143.2060 C   0  0  0  0  0  3  0  0  0  0  0  0
  188.7340  177.5230  143.3200 C   0  0  0  0  0  3  0  0  0  0  0  0
  189.0560  177.9940  146.8630 O   0  0  0  0  0  0  0  0  0  0  0  0
  186.3590  178.1820  146.9360 C   0  0  0  0  0  2  0  0  0  0  0  0
  186.9990  177.4750  145.7560 C   0  0  0  0  0  3  0  0  0  0  0  0
  186.2210  178.7630  145.5460 C   0  0  0  0  0  2  0  0  0  0  0  0
  182.5940  177.4540  136.2780 C   0  0  1  0  0  3  0  0  0  0  0  0
  181.8040  175.0930  137.1540 C   0  0  0  0  0  2  0  0  0  0  0  0
  182.7380  175.9170  136.2990 C   0  0  0  0  0  0  0  0  0  0  0  0
  181.6350  175.1250  135.6360 C   0  0  0  0  0  2  0  0  0  0  0  0
  184.1180  175.3090  136.0960 C   0  0  0  0  0  2  0  0  0  0  0  0
  184.4250  174.3000  137.1800 C   0  0  0  0  0  2  0  0  0  0  0  0
  184.9580  173.0280  136.5550 C   0  0  0  0  0  2  0  0  0  0  0  0
  183.7870  171.6670  136.8230 S   0  0  0  0  0  0  0  0  0  0  0  0
  183.2210  171.7090  135.0950 C   0  0  0  0  0  1  0  0  0  0  0  0
  181.3080  179.1600  135.6710 C   0  0  0  0  0  1  0  0  0  0  0  0
  181.2600  177.8740  136.2170 O   0  0  0  0  0  0  0  0  0  0  0  0
  1  4  1  6  0  0  0
  2 35  1  6  0  0  0
  2  3  1  0  0  0  0
  2  1  1  0  0  0  0
  3 15  1  1  0  0  0
  3  1  1  0  0  0  0
  4  5  1  1  0  0  0
  4  8  1  0  0  0  0
  5  8  1  0  0  0  0
  7  6  2  0  0  0  0
  8  6  1  0  0  0  0
  9  6  1  6  0  0  0
  9 10  1  0  0  0  0
  9 14  1  0  0  0  0
 10 11  1  0  0  0  0
 12 10  2  0  0  0  0
 14 13  1  0  0  0  0
 16 18  1  0  0  0  0
 16 15  1  0  0  0  0
 18 17  2  0  0  0  0
 19 21  2  0  0  0  0
 21 22  1  0  0  0  0
 22 25  1  0  0  0  0
 23 20  2  0  0  0  0
 23 22  1  0  0  0  0
 24 17  1  1  0  0  0
 24 19  1  0  0  0  0
 24 23  1  0  0  0  0
 25 29  1  0  0  0  0
 25 30  2  0  0  0  0
 26 27  1  0  0  0  0
 27 31  2  0  0  0  0
 28 26  1  0  0  0  0
 29 28  2  0  0  0  0
 30 26  1  0  0  0  0
 33 27  1  0  0  0  0
 33 32  1  0  0  0  0
 34 33  1  0  0  0  0
 34 32  1  0  0  0  0
 35 45  1  1  0  0  0
 35 37  1  0  0  0  0
 37 36  1  0  0  0  0
 38 37  1  0  0  0  0
 38 36  1  0  0  0  0
 39 37  1  0  0  0  0
 39 40  1  0  0  0  0
 41 42  1  0  0  0  0
 41 40  1  0  0  0  0
 43 42  1  0  0  0  0
 44 45  1  0  0  0  0
M  END
>  <MODEL>
9

>  <REMARK>
 VINA RESULT:      -5.6      3.719      9.132
  Name = 
  17 active torsions:
  status: ('A' for Active; 'I' for Inactive)
    1  A    between atoms: C_1  and  C_22
    2  A    between atoms: C_1  and  C_29
    3  A    between atoms: C_3  and  C_45
    4  A    between atoms: C_6  and  N_34
    5  A    between atoms: C_7  and  C_13
    6  A    between atoms: C_8  and  C_39
    7  A    between atoms: C_14  and  C_35
    8  A    between atoms: C_15  and  C_19
    9  A    between atoms: C_20  and  C_29
   10  A    between atoms: C_21  and  C_39
   11  A    between atoms: C_24  and  C_36
   12  A    between atoms: C_24  and  C_43
   13  A    between atoms: S_25  and  C_43
   14  A    between atoms: C_31  and  C_35
   15  A    between atoms: C_31  and  C_36
   16  A    between atoms: C_35  and  O_37
   17  A    between atoms: C_39  and  O_42
                            x       y       z     vdW  Elec       q    Type
                         _______ _______ _______ _____ _____    ______ ____

>  <TORSDO>
F 17

$$$$
