=
 OpenBabel11042411213D

 25 27  0  0  1  0  0  0  0  0999 V2000
  186.7050  177.4490  144.7200 C   0  0  0  0  0  3  0  0  0  0  0  0
  185.7180  179.2760  146.6300 N   0  0  0  0  0  0  0  0  0  0  0  0
  186.8670  178.1680  148.3240 O   0  0  0  0  0  0  0  0  0  0  0  0
  186.6190  178.2660  147.0920 C   0  0  0  0  0  0  0  0  0  0  0  0
  187.2440  177.2920  146.1190 C   0  0  2  0  0  3  0  0  0  0  0  0
  185.8440  178.4120  144.3700 C   0  0  0  0  0  0  0  0  0  0  0  0
  185.3510  179.3610  145.3870 C   0  0  0  0  0  3  0  0  0  0  0  0
  190.4490  177.2240  144.2780 C   0  0  0  0  0  3  0  0  0  0  0  0
  190.8470  176.6410  147.2890 C   0  0  0  0  0  3  0  0  0  0  0  0
  191.4810  176.6100  144.8580 C   0  0  0  0  0  3  0  0  0  0  0  0
  188.7450  177.3380  146.1050 C   0  0  0  0  0  0  0  0  0  0  0  0
  189.4770  178.0790  145.0210 C   0  0  0  0  0  2  0  0  0  0  0  0
  189.3860  176.7670  147.1300 C   0  0  0  0  0  3  0  0  0  0  0  0
  191.7530  176.5760  146.3060 C   0  0  0  0  0  3  0  0  0  0  0  0
  183.5620  178.6090  141.3600 C   0  0  0  0  0  0  0  0  0  0  0  0
  186.2620  178.5400  141.9420 N   0  0  0  0  0  0  0  0  0  0  0  0
  183.9980  178.5310  142.6890 C   0  0  0  0  0  3  0  0  0  0  0  0
  185.3690  178.4980  142.9720 C   0  0  0  0  0  0  0  0  0  0  0  0
  184.5040  178.6480  140.3320 C   0  0  0  0  0  3  0  0  0  0  0  0
  185.8650  178.6110  140.6390 C   0  0  0  0  0  0  0  0  0  0  0  0
  181.1800  178.7190  141.9380 C   0  0  0  0  0  2  0  0  0  0  0  0
  182.1340  178.6650  141.0160 C   0  0  0  0  0  3  0  0  0  0  0  0
  186.8010  178.6480  139.6020 O   0  0  0  0  0  0  0  0  0  0  0  0
  188.1360  178.1800  139.7460 C   0  0  0  0  0  2  0  0  0  0  0  0
  188.9750  178.6170  138.5610 C   0  0  0  0  0  1  0  0  0  0  0  0
  1  5  1  0  0  0  0
  2  4  1  0  0  0  0
  4  3  2  0  0  0  0
  5 11  1  6  0  0  0
  5  4  1  0  0  0  0
  6  1  2  0  0  0  0
  6  7  1  0  0  0  0
  7  2  2  0  0  0  0
  8 10  2  0  0  0  0
  8 12  1  0  0  0  0
 10 14  1  0  0  0  0
 11 13  2  0  0  0  0
 12 11  1  0  0  0  0
 13  9  1  0  0  0  0
 14  9  2  0  0  0  0
 15 17  1  0  0  0  0
 16 18  1  0  0  0  0
 17 18  2  0  0  0  0
 18  6  1  0  0  0  0
 19 20  1  0  0  0  0
 19 15  2  0  0  0  0
 20 16  2  0  0  0  0
 22 15  1  0  0  0  0
 22 21  2  0  0  0  0
 23 24  1  0  0  0  0
 23 20  1  0  0  0  0
 25 24  1  0  0  0  0
M  END
>  <MODEL>
1

>  <REMARK>
 VINA RESULT:      -9.2      0.000      0.000
  Name = 
  5 active torsions:
  status: ('A' for Active; 'I' for Inactive)
    1  A    between atoms: C_1  and  O_21
    2  A    between atoms: C_4  and  C_19
    3  A    between atoms: C_9  and  C_16
    4  A    between atoms: C_13  and  C_20
    5  A    between atoms: O_21  and  C_24
                            x       y       z     vdW  Elec       q    Type
                         _______ _______ _______ _____ _____    ______ ____

>  <TORSDO>
F 5

$$$$
=
 OpenBabel11042411213D

 25 27  0  0  1  0  0  0  0  0999 V2000
  186.5980  177.4930  145.2540 C   0  0  0  0  0  3  0  0  0  0  0  0
  186.0650  179.2860  147.3670 N   0  0  0  0  0  0  0  0  0  0  0  0
  187.5110  178.1110  148.7630 O   0  0  0  0  0  0  0  0  0  0  0  0
  187.0190  178.2470  147.6110 C   0  0  0  0  0  0  0  0  0  0  0  0
  187.4080  177.2890  146.5080 C   0  0  2  0  0  3  0  0  0  0  0  0
  185.7050  178.4810  145.1100 C   0  0  0  0  0  0  0  0  0  0  0  0
  185.4540  179.4110  146.2280 C   0  0  0  0  0  3  0  0  0  0  0  0
  190.1660  177.1790  144.0490 C   0  0  0  0  0  3  0  0  0  0  0  0
  191.1610  176.5650  146.9120 C   0  0  0  0  0  3  0  0  0  0  0  0
  191.2830  176.5420  144.4020 C   0  0  0  0  0  3  0  0  0  0  0  0
  188.8750  177.3090  146.1870 C   0  0  0  0  0  0  0  0  0  0  0  0
  189.3840  178.0450  144.9790 C   0  0  0  0  0  2  0  0  0  0  0  0
  189.7010  176.7180  147.0570 C   0  0  0  0  0  3  0  0  0  0  0  0
  191.8450  176.4910  145.7640 C   0  0  0  0  0  3  0  0  0  0  0  0
  182.8600  178.7930  142.6380 C   0  0  0  0  0  0  0  0  0  0  0  0
  185.6210  178.6750  142.6520 N   0  0  0  0  0  0  0  0  0  0  0  0
  183.5570  178.6710  143.8460 C   0  0  0  0  0  3  0  0  0  0  0  0
  184.9560  178.6130  143.8410 C   0  0  0  0  0  0  0  0  0  0  0  0
  183.5730  178.8510  141.4400 C   0  0  0  0  0  3  0  0  0  0  0  0
  184.9670  178.7880  141.4610 C   0  0  0  0  0  0  0  0  0  0  0  0
  180.6320  178.5980  143.6470 C   0  0  0  0  0  2  0  0  0  0  0  0
  181.3940  178.8770  142.5950 C   0  0  0  0  0  3  0  0  0  0  0  0
  185.6710  178.8450  140.2540 O   0  0  0  0  0  0  0  0  0  0  0  0
  185.0630  178.6020  138.9910 C   0  0  0  0  0  2  0  0  0  0  0  0
  186.0900  178.0700  138.0100 C   0  0  0  0  0  1  0  0  0  0  0  0
  1  5  1  0  0  0  0
  2  4  1  0  0  0  0
  4  3  2  0  0  0  0
  5 11  1  6  0  0  0
  5  4  1  0  0  0  0
  6  1  2  0  0  0  0
  6  7  1  0  0  0  0
  7  2  2  0  0  0  0
  8 10  2  0  0  0  0
  8 12  1  0  0  0  0
  9 13  1  0  0  0  0
 10 14  1  0  0  0  0
 11 13  2  0  0  0  0
 12 11  1  0  0  0  0
 14  9  2  0  0  0  0
 15 17  1  0  0  0  0
 16 18  1  0  0  0  0
 18 17  2  0  0  0  0
 18  6  1  0  0  0  0
 19 20  1  0  0  0  0
 19 15  2  0  0  0  0
 20 16  2  0  0  0  0
 22 15  1  0  0  0  0
 22 21  2  0  0  0  0
 23 20  1  0  0  0  0
 24 23  1  0  0  0  0
 25 24  1  0  0  0  0
M  END
>  <MODEL>
2

>  <REMARK>
 VINA RESULT:      -9.2      1.123      1.280
  Name = 
  5 active torsions:
  status: ('A' for Active; 'I' for Inactive)
    1  A    between atoms: C_1  and  O_21
    2  A    between atoms: C_4  and  C_19
    3  A    between atoms: C_9  and  C_16
    4  A    between atoms: C_13  and  C_20
    5  A    between atoms: O_21  and  C_24
                            x       y       z     vdW  Elec       q    Type
                         _______ _______ _______ _____ _____    ______ ____

>  <TORSDO>
F 5

$$$$
=
 OpenBabel11042411213D

 25 27  0  0  1  0  0  0  0  0999 V2000
  189.7730  178.0720  143.7270 C   0  0  0  0  0  3  0  0  0  0  0  0
  191.6390  175.9820  144.0590 N   0  0  0  0  0  0  0  0  0  0  0  0
  192.0140  176.6320  146.2620 O   0  0  0  0  0  0  0  0  0  0  0  0
  191.3630  176.8040  145.1980 C   0  0  0  0  0  0  0  0  0  0  0  0
  190.3260  177.9010  145.1180 C   0  0  2  0  0  3  0  0  0  0  0  0
  190.0980  177.2710  142.7040 C   0  0  0  0  0  0  0  0  0  0  0  0
  191.0690  176.1780  142.9090 C   0  0  0  0  0  3  0  0  0  0  0  0
  186.7390  178.1340  145.9820 C   0  0  0  0  0  3  0  0  0  0  0  0
  188.5170  177.9790  148.5080 C   0  0  0  0  0  3  0  0  0  0  0  0
  186.4260  178.5160  147.2220 C   0  0  0  0  0  3  0  0  0  0  0  0
  189.2060  177.7400  146.1050 C   0  0  0  0  0  0  0  0  0  0  0  0
  187.8690  177.2120  145.6660 C   0  0  0  0  0  2  0  0  0  0  0  0
  189.4750  178.0090  147.3870 C   0  0  0  0  0  3  0  0  0  0  0  0
  187.1980  178.1950  148.4360 C   0  0  0  0  0  3  0  0  0  0  0  0
  189.6630  177.4610  138.9530 C   0  0  0  0  0  0  0  0  0  0  0  0
  188.2370  177.9980  141.2580 N   0  0  0  0  0  0  0  0  0  0  0  0
  190.2360  177.2310  140.2090 C   0  0  0  0  0  3  0  0  0  0  0  0
  189.5030  177.5060  141.3710 C   0  0  0  0  0  0  0  0  0  0  0  0
  188.3650  177.9680  138.8750 C   0  0  0  0  0  3  0  0  0  0  0  0
  187.6560  178.2370  140.0470 C   0  0  0  0  0  0  0  0  0  0  0  0
  191.4300  176.3510  137.6630 C   0  0  0  0  0  2  0  0  0  0  0  0
  190.3860  177.1700  137.7070 C   0  0  0  0  0  3  0  0  0  0  0  0
  186.3570  178.7460  139.9580 O   0  0  0  0  0  0  0  0  0  0  0  0
  185.5590  179.0340  141.1000 C   0  0  0  0  0  2  0  0  0  0  0  0
  184.1490  178.5140  140.8970 C   0  0  0  0  0  1  0  0  0  0  0  0
  1  5  1  0  0  0  0
  2  4  1  0  0  0  0
  4  3  2  0  0  0  0
  5  4  1  0  0  0  0
  5 11  1  1  0  0  0
  6  7  1  0  0  0  0
  6  1  2  0  0  0  0
  7  2  2  0  0  0  0
  8 10  2  0  0  0  0
 10 14  1  0  0  0  0
 11 13  2  0  0  0  0
 12  8  1  0  0  0  0
 12 11  1  0  0  0  0
 13  9  1  0  0  0  0
 14  9  2  0  0  0  0
 15 17  1  0  0  0  0
 16 18  1  0  0  0  0
 17 18  2  0  0  0  0
 18  6  1  0  0  0  0
 19 15  2  0  0  0  0
 19 20  1  0  0  0  0
 20 16  2  0  0  0  0
 21 22  2  0  0  0  0
 22 15  1  0  0  0  0
 23 20  1  0  0  0  0
 23 24  1  0  0  0  0
 25 24  1  0  0  0  0
M  END
>  <MODEL>
3

>  <REMARK>
 VINA RESULT:      -9.0      2.260      5.244
  Name = 
  5 active torsions:
  status: ('A' for Active; 'I' for Inactive)
    1  A    between atoms: C_1  and  O_21
    2  A    between atoms: C_4  and  C_19
    3  A    between atoms: C_9  and  C_16
    4  A    between atoms: C_13  and  C_20
    5  A    between atoms: O_21  and  C_24
                            x       y       z     vdW  Elec       q    Type
                         _______ _______ _______ _____ _____    ______ ____

>  <TORSDO>
F 5

$$$$
=
 OpenBabel11042411213D

 25 27  0  0  1  0  0  0  0  0999 V2000
  187.2170  177.5190  143.0510 C   0  0  0  0  0  3  0  0  0  0  0  0
  185.0670  179.3470  143.0900 N   0  0  0  0  0  0  0  0  0  0  0  0
  184.4350  178.5990  145.2020 O   0  0  0  0  0  0  0  0  0  0  0  0
  185.2630  178.5380  144.2540 C   0  0  0  0  0  0  0  0  0  0  0  0
  186.4330  177.5840  144.3370 C   0  0  2  0  0  3  0  0  0  0  0  0
  186.9570  178.2980  141.9940 C   0  0  0  0  0  0  0  0  0  0  0  0
  185.8320  179.2540  142.0450 C   0  0  0  0  0  3  0  0  0  0  0  0
  189.6610  177.0930  146.0700 C   0  0  0  0  0  3  0  0  0  0  0  0
  187.5060  178.2380  147.9690 C   0  0  0  0  0  3  0  0  0  0  0  0
  189.6450  177.0490  147.4040 C   0  0  0  0  0  3  0  0  0  0  0  0
  187.3530  177.8610  145.4920 C   0  0  0  0  0  0  0  0  0  0  0  0
  188.8290  178.0370  145.2690 C   0  0  0  0  0  2  0  0  0  0  0  0
  186.7940  178.0220  146.6960 C   0  0  0  0  0  3  0  0  0  0  0  0
  188.7400  177.8200  148.2740 C   0  0  0  0  0  3  0  0  0  0  0  0
  189.8560  177.5650  139.6790 C   0  0  0  0  0  0  0  0  0  0  0  0
  187.2780  178.5520  139.5620 N   0  0  0  0  0  0  0  0  0  0  0  0
  189.0860  177.6740  140.8430 C   0  0  0  0  0  3  0  0  0  0  0  0
  187.7800  178.1740  140.7710 C   0  0  0  0  0  0  0  0  0  0  0  0
  189.3100  177.9630  138.4580 C   0  0  0  0  0  3  0  0  0  0  0  0
  188.0080  178.4620  138.4130 C   0  0  0  0  0  0  0  0  0  0  0  0
  191.8160  176.5360  138.6200 C   0  0  0  0  0  2  0  0  0  0  0  0
  191.2240  177.0280  139.7030 C   0  0  0  0  0  3  0  0  0  0  0  0
  187.4710  178.8600  137.1850 O   0  0  0  0  0  0  0  0  0  0  0  0
  187.2400  177.9560  136.1110 C   0  0  0  0  0  2  0  0  0  0  0  0
  186.1030  177.0140  136.4560 C   0  0  0  0  0  1  0  0  0  0  0  0
  1  5  1  0  0  0  0
  2  4  1  0  0  0  0
  4  5  1  0  0  0  0
  4  3  2  0  0  0  0
  5 11  1  1  0  0  0
  6  7  1  0  0  0  0
  6  1  2  0  0  0  0
  7  2  2  0  0  0  0
  8 10  2  0  0  0  0
  9 14  2  0  0  0  0
 10 14  1  0  0  0  0
 11 13  2  0  0  0  0
 12 11  1  0  0  0  0
 12  8  1  0  0  0  0
 13  9  1  0  0  0  0
 15 22  1  0  0  0  0
 15 17  1  0  0  0  0
 16 18  1  0  0  0  0
 18 17  2  0  0  0  0
 18  6  1  0  0  0  0
 19 15  2  0  0  0  0
 20 19  1  0  0  0  0
 20 16  2  0  0  0  0
 21 22  2  0  0  0  0
 23 20  1  0  0  0  0
 24 25  1  0  0  0  0
 24 23  1  0  0  0  0
M  END
>  <MODEL>
4

>  <REMARK>
 VINA RESULT:      -8.9      2.162      4.461
  Name = 
  5 active torsions:
  status: ('A' for Active; 'I' for Inactive)
    1  A    between atoms: C_1  and  O_21
    2  A    between atoms: C_4  and  C_19
    3  A    between atoms: C_9  and  C_16
    4  A    between atoms: C_13  and  C_20
    5  A    between atoms: O_21  and  C_24
                            x       y       z     vdW  Elec       q    Type
                         _______ _______ _______ _____ _____    ______ ____

>  <TORSDO>
F 5

$$$$
=
 OpenBabel11042411213D

 25 27  0  0  1  0  0  0  0  0999 V2000
  186.5920  177.4390  145.2590 C   0  0  0  0  0  3  0  0  0  0  0  0
  186.0820  179.2820  147.3340 N   0  0  0  0  0  0  0  0  0  0  0  0
  187.5490  178.1450  148.7390 O   0  0  0  0  0  0  0  0  0  0  0  0
  187.0420  178.2510  147.5910 C   0  0  0  0  0  0  0  0  0  0  0  0
  187.4180  177.2670  146.5070 C   0  0  2  0  0  3  0  0  0  0  0  0
  185.6950  178.4200  145.1020 C   0  0  0  0  0  0  0  0  0  0  0  0
  185.4560  179.3780  146.2010 C   0  0  0  0  0  3  0  0  0  0  0  0
  190.1480  177.0260  144.0250 C   0  0  0  0  0  3  0  0  0  0  0  0
  191.1840  176.6130  146.9090 C   0  0  0  0  0  3  0  0  0  0  0  0
  191.2770  176.4250  144.4050 C   0  0  0  0  0  3  0  0  0  0  0  0
  188.8820  177.2820  146.1660 C   0  0  0  0  0  0  0  0  0  0  0  0
  189.3670  177.9420  144.9060 C   0  0  0  0  0  2  0  0  0  0  0  0
  189.7250  176.7590  147.0620 C   0  0  0  0  0  3  0  0  0  0  0  0
  191.8560  176.4720  145.7600 C   0  0  0  0  0  3  0  0  0  0  0  0
  184.8560  178.6340  141.4210 C   0  0  0  0  0  0  0  0  0  0  0  0
  183.5690  178.6050  143.8660 N   0  0  0  0  0  0  0  0  0  0  0  0
  185.5930  178.5360  142.6080 C   0  0  0  0  0  3  0  0  0  0  0  0
  184.9290  178.5200  143.8410 C   0  0  0  0  0  0  0  0  0  0  0  0
  183.4650  178.7210  141.4850 C   0  0  0  0  0  3  0  0  0  0  0  0
  182.8270  178.7070  142.7260 C   0  0  0  0  0  0  0  0  0  0  0  0
  184.8580  178.3240  138.9870 C   0  0  0  0  0  2  0  0  0  0  0  0
  185.5070  178.6350  140.1040 C   0  0  0  0  0  3  0  0  0  0  0  0
  181.4330  178.7970  142.7790 O   0  0  0  0  0  0  0  0  0  0  0  0
  180.6910  178.6290  143.9810 C   0  0  0  0  0  2  0  0  0  0  0  0
  179.2520  179.0580  143.7720 C   0  0  0  0  0  1  0  0  0  0  0  0
  1  5  1  0  0  0  0
  2  4  1  0  0  0  0
  4  3  2  0  0  0  0
  5 11  1  6  0  0  0
  5  4  1  0  0  0  0
  6  1  2  0  0  0  0
  6  7  1  0  0  0  0
  7  2  2  0  0  0  0
  8 10  2  0  0  0  0
  8 12  1  0  0  0  0
  9 13  1  0  0  0  0
 10 14  1  0  0  0  0
 11 13  2  0  0  0  0
 12 11  1  0  0  0  0
 14  9  2  0  0  0  0
 15 19  2  0  0  0  0
 15 17  1  0  0  0  0
 17 18  2  0  0  0  0
 18 16  1  0  0  0  0
 18  6  1  0  0  0  0
 19 20  1  0  0  0  0
 20 23  1  0  0  0  0
 20 16  2  0  0  0  0
 21 22  2  0  0  0  0
 22 15  1  0  0  0  0
 23 24  1  0  0  0  0
 25 24  1  0  0  0  0
M  END
>  <MODEL>
5

>  <REMARK>
 VINA RESULT:      -8.9      1.840      3.497
  Name = 
  5 active torsions:
  status: ('A' for Active; 'I' for Inactive)
    1  A    between atoms: C_1  and  O_21
    2  A    between atoms: C_4  and  C_19
    3  A    between atoms: C_9  and  C_16
    4  A    between atoms: C_13  and  C_20
    5  A    between atoms: O_21  and  C_24
                            x       y       z     vdW  Elec       q    Type
                         _______ _______ _______ _____ _____    ______ ____

>  <TORSDO>
F 5

$$$$
=
 OpenBabel11042411213D

 25 27  0  0  1  0  0  0  0  0999 V2000
  188.6650  178.4500  143.0660 C   0  0  0  0  0  3  0  0  0  0  0  0
  190.0620  177.1310  140.9990 N   0  0  0  0  0  0  0  0  0  0  0  0
  192.0570  177.3350  142.1820 O   0  0  0  0  0  0  0  0  0  0  0  0
  190.8090  177.5120  142.1580 C   0  0  0  0  0  0  0  0  0  0  0  0
  190.1190  178.1620  143.3360 C   0  0  2  0  0  3  0  0  0  0  0  0
  188.0400  178.0780  141.9420 C   0  0  0  0  0  0  0  0  0  0  0  0
  188.7930  177.3790  140.8810 C   0  0  0  0  0  3  0  0  0  0  0  0
  189.1080  177.5040  146.8310 C   0  0  0  0  0  3  0  0  0  0  0  0
  191.8790  176.2880  146.1940 C   0  0  0  0  0  3  0  0  0  0  0  0
  190.0630  177.1600  147.6960 C   0  0  0  0  0  3  0  0  0  0  0  0
  190.2660  177.3910  144.6170 C   0  0  0  0  0  0  0  0  0  0  0  0
  189.0560  177.0100  145.4230 C   0  0  0  0  0  2  0  0  0  0  0  0
  191.4980  176.9970  144.9580 C   0  0  0  0  0  3  0  0  0  0  0  0
  191.2570  176.3570  147.3770 C   0  0  0  0  0  3  0  0  0  0  0  0
  184.3810  178.6960  142.6690 C   0  0  0  0  0  0  0  0  0  0  0  0
  186.1180  178.6840  140.5200 N   0  0  0  0  0  0  0  0  0  0  0  0
  185.7360  178.3970  142.8560 C   0  0  0  0  0  3  0  0  0  0  0  0
  186.6070  178.3960  141.7600 C   0  0  0  0  0  0  0  0  0  0  0  0
  183.9150  178.9850  141.3850 C   0  0  0  0  0  3  0  0  0  0  0  0
  184.8020  178.9740  140.3090 C   0  0  0  0  0  0  0  0  0  0  0  0
  183.8090  179.0050  145.0350 C   0  0  0  0  0  2  0  0  0  0  0  0
  183.4330  178.7290  143.7910 C   0  0  0  0  0  3  0  0  0  0  0  0
  184.3250  179.2620  139.0270 O   0  0  0  0  0  0  0  0  0  0  0  0
  184.3490  178.3200  137.9610 C   0  0  0  0  0  2  0  0  0  0  0  0
  182.9380  177.8880  137.6120 C   0  0  0  0  0  1  0  0  0  0  0  0
  1  5  1  0  0  0  0
  2  4  1  0  0  0  0
  4  3  2  0  0  0  0
  4  5  1  0  0  0  0
  5 11  1  1  0  0  0
  6  1  2  0  0  0  0
  7  2  2  0  0  0  0
  7  6  1  0  0  0  0
  8 10  2  0  0  0  0
  9 14  2  0  0  0  0
 11 13  2  0  0  0  0
 11 12  1  0  0  0  0
 12  8  1  0  0  0  0
 13  9  1  0  0  0  0
 14 10  1  0  0  0  0
 15 17  1  0  0  0  0
 15 22  1  0  0  0  0
 16 18  1  0  0  0  0
 18  6  1  0  0  0  0
 18 17  2  0  0  0  0
 19 15  2  0  0  0  0
 20 16  2  0  0  0  0
 20 19  1  0  0  0  0
 22 21  2  0  0  0  0
 23 20  1  0  0  0  0
 24 23  1  0  0  0  0
 25 24  1  0  0  0  0
M  END
>  <MODEL>
6

>  <REMARK>
 VINA RESULT:      -8.5      2.523      3.867
  Name = 
  5 active torsions:
  status: ('A' for Active; 'I' for Inactive)
    1  A    between atoms: C_1  and  O_21
    2  A    between atoms: C_4  and  C_19
    3  A    between atoms: C_9  and  C_16
    4  A    between atoms: C_13  and  C_20
    5  A    between atoms: O_21  and  C_24
                            x       y       z     vdW  Elec       q    Type
                         _______ _______ _______ _____ _____    ______ ____

>  <TORSDO>
F 5

$$$$
=
 OpenBabel11042411213D

 25 27  0  0  1  0  0  0  0  0999 V2000
  189.8600  178.0230  143.4310 C   0  0  0  0  0  3  0  0  0  0  0  0
  191.6800  176.0780  144.3610 N   0  0  0  0  0  0  0  0  0  0  0  0
  191.4920  176.9010  146.5300 O   0  0  0  0  0  0  0  0  0  0  0  0
  191.1060  176.9590  145.3320 C   0  0  0  0  0  0  0  0  0  0  0  0
  190.0720  177.9830  144.9220 C   0  0  2  0  0  3  0  0  0  0  0  0
  190.4530  177.1740  142.5820 C   0  0  0  0  0  0  0  0  0  0  0  0
  191.3930  176.1590  143.0970 C   0  0  0  0  0  3  0  0  0  0  0  0
  186.3760  177.9700  144.8790 C   0  0  0  0  0  3  0  0  0  0  0  0
  187.4860  178.2460  147.7520 C   0  0  0  0  0  3  0  0  0  0  0  0
  185.7440  178.4490  145.9520 C   0  0  0  0  0  3  0  0  0  0  0  0
  188.7570  177.8230  145.6290 C   0  0  0  0  0  0  0  0  0  0  0  0
  187.6060  177.1290  144.9550 C   0  0  0  0  0  2  0  0  0  0  0  0
  188.6850  178.2480  146.8950 C   0  0  0  0  0  3  0  0  0  0  0  0
  186.2140  178.3300  147.3440 C   0  0  0  0  0  3  0  0  0  0  0  0
  188.6880  177.7950  139.2950 C   0  0  0  0  0  0  0  0  0  0  0  0
  191.1520  176.9590  140.2260 N   0  0  0  0  0  0  0  0  0  0  0  0
  188.9310  177.7040  140.6710 C   0  0  0  0  0  3  0  0  0  0  0  0
  190.1840  177.2790  141.1310 C   0  0  0  0  0  0  0  0  0  0  0  0
  189.7020  177.4570  138.3980 C   0  0  0  0  0  3  0  0  0  0  0  0
  190.9410  177.0340  138.8810 C   0  0  0  0  0  0  0  0  0  0  0  0
  186.8580  177.7480  137.6610 C   0  0  0  0  0  2  0  0  0  0  0  0
  187.3970  178.2530  138.7660 C   0  0  0  0  0  3  0  0  0  0  0  0
  191.9490  176.6950  137.9730 O   0  0  0  0  0  0  0  0  0  0  0  0
  192.3200  175.3500  137.6960 C   0  0  0  0  0  2  0  0  0  0  0  0
  193.8300  175.2320  137.6100 C   0  0  0  0  0  1  0  0  0  0  0  0
  1  5  1  0  0  0  0
  2  4  1  0  0  0  0
  4  3  2  0  0  0  0
  5  4  1  0  0  0  0
  5 11  1  1  0  0  0
  6  7  1  0  0  0  0
  6  1  2  0  0  0  0
  7  2  2  0  0  0  0
  8 12  1  0  0  0  0
  8 10  2  0  0  0  0
 10 14  1  0  0  0  0
 11 13  2  0  0  0  0
 12 11  1  0  0  0  0
 13  9  1  0  0  0  0
 14  9  2  0  0  0  0
 15 17  1  0  0  0  0
 16 18  1  0  0  0  0
 17 18  2  0  0  0  0
 18  6  1  0  0  0  0
 19 20  1  0  0  0  0
 19 15  2  0  0  0  0
 20 16  2  0  0  0  0
 21 22  2  0  0  0  0
 22 15  1  0  0  0  0
 23 20  1  0  0  0  0
 24 23  1  0  0  0  0
 25 24  1  0  0  0  0
M  END
>  <MODEL>
7

>  <REMARK>
 VINA RESULT:      -8.4      3.340      5.207
  Name = 
  5 active torsions:
  status: ('A' for Active; 'I' for Inactive)
    1  A    between atoms: C_1  and  O_21
    2  A    between atoms: C_4  and  C_19
    3  A    between atoms: C_9  and  C_16
    4  A    between atoms: C_13  and  C_20
    5  A    between atoms: O_21  and  C_24
                            x       y       z     vdW  Elec       q    Type
                         _______ _______ _______ _____ _____    ______ ____

>  <TORSDO>
F 5

$$$$
=
 OpenBabel11042411213D

 25 27  0  0  1  0  0  0  0  0999 V2000
  189.2530  176.9840  141.8700 C   0  0  0  0  0  3  0  0  0  0  0  0
  191.7500  178.1740  142.4270 N   0  0  0  0  0  0  0  0  0  0  0  0
  192.6210  177.3380  140.4360 O   0  0  0  0  0  0  0  0  0  0  0  0
  191.6170  177.4760  141.1840 C   0  0  0  0  0  0  0  0  0  0  0  0
  190.2910  176.8710  140.7840 C   0  0  2  0  0  3  0  0  0  0  0  0
  189.4620  177.6390  143.0200 C   0  0  0  0  0  0  0  0  0  0  0  0
  190.7760  178.2610  143.2800 C   0  0  0  0  0  3  0  0  0  0  0  0
  187.4980  178.2390  138.7850 C   0  0  0  0  0  3  0  0  0  0  0  0
  189.8010  177.2240  136.9890 C   0  0  0  0  0  3  0  0  0  0  0  0
  187.4340  177.8960  137.4980 C   0  0  0  0  0  3  0  0  0  0  0  0
  189.7500  177.4120  139.4910 C   0  0  0  0  0  0  0  0  0  0  0  0
  188.7750  178.5560  139.4900 C   0  0  0  0  0  2  0  0  0  0  0  0
  190.2310  176.8890  138.3580 C   0  0  0  0  0  3  0  0  0  0  0  0
  188.5920  177.6620  136.6170 C   0  0  0  0  0  3  0  0  0  0  0  0
  187.6460  177.5800  146.3360 C   0  0  0  0  0  0  0  0  0  0  0  0
  187.1000  177.9530  143.6530 N   0  0  0  0  0  0  0  0  0  0  0  0
  188.6750  177.5160  145.3890 C   0  0  0  0  0  3  0  0  0  0  0  0
  188.3860  177.7080  144.0320 C   0  0  0  0  0  0  0  0  0  0  0  0
  186.3410  177.8300  145.9120 C   0  0  0  0  0  3  0  0  0  0  0  0
  186.0770  178.0150  144.5540 C   0  0  0  0  0  0  0  0  0  0  0  0
  188.7090  178.2090  148.4560 C   0  0  0  0  0  2  0  0  0  0  0  0
  187.9040  177.4040  147.7720 C   0  0  0  0  0  3  0  0  0  0  0  0
  184.7660  178.2630  144.1400 O   0  0  0  0  0  0  0  0  0  0  0  0
  183.8230  178.9690  144.9380 C   0  0  0  0  0  2  0  0  0  0  0  0
  182.4710  178.9950  144.2500 C   0  0  0  0  0  1  0  0  0  0  0  0
  1  6  2  0  0  0  0
  2  7  2  0  0  0  0
  3  4  2  0  0  0  0
  4  2  1  0  0  0  0
  5 11  1  6  0  0  0
  5  4  1  0  0  0  0
  5  1  1  0  0  0  0
  6  7  1  0  0  0  0
  6 18  1  0  0  0  0
  8 12  1  0  0  0  0
  9 13  1  0  0  0  0
 10  8  2  0  0  0  0
 12 11  1  0  0  0  0
 13 11  2  0  0  0  0
 14  9  2  0  0  0  0
 14 10  1  0  0  0  0
 15 22  1  0  0  0  0
 16 18  1  0  0  0  0
 16 20  2  0  0  0  0
 17 15  1  0  0  0  0
 18 17  2  0  0  0  0
 19 15  2  0  0  0  0
 20 19  1  0  0  0  0
 22 21  2  0  0  0  0
 23 20  1  0  0  0  0
 23 24  1  0  0  0  0
 25 24  1  0  0  0  0
M  END
>  <MODEL>
8

>  <REMARK>
 VINA RESULT:      -8.4      2.577      7.093
  Name = 
  5 active torsions:
  status: ('A' for Active; 'I' for Inactive)
    1  A    between atoms: C_1  and  O_21
    2  A    between atoms: C_4  and  C_19
    3  A    between atoms: C_9  and  C_16
    4  A    between atoms: C_13  and  C_20
    5  A    between atoms: O_21  and  C_24
                            x       y       z     vdW  Elec       q    Type
                         _______ _______ _______ _____ _____    ______ ____

>  <TORSDO>
F 5

$$$$
=
 OpenBabel11042411213D

 25 27  0  0  1  0  0  0  0  0999 V2000
  184.6600  177.8050  142.5470 C   0  0  0  0  0  3  0  0  0  0  0  0
  185.5690  179.3690  140.3820 N   0  0  0  0  0  0  0  0  0  0  0  0
  183.5360  179.0820  139.2860 O   0  0  0  0  0  0  0  0  0  0  0  0
  184.2250  178.8810  140.3210 C   0  0  0  0  0  0  0  0  0  0  0  0
  183.6440  178.0930  141.4730 C   0  0  2  0  0  3  0  0  0  0  0  0
  185.9110  178.2830  142.5210 C   0  0  0  0  0  0  0  0  0  0  0  0
  186.3570  179.1070  141.3800 C   0  0  0  0  0  3  0  0  0  0  0  0
  181.3080  178.5320  144.3050 C   0  0  0  0  0  3  0  0  0  0  0  0
  180.0730  179.5050  141.6420 C   0  0  0  0  0  3  0  0  0  0  0  0
  180.0150  178.6940  144.0190 C   0  0  0  0  0  3  0  0  0  0  0  0
  182.4200  178.7250  142.0730 C   0  0  0  0  0  0  0  0  0  0  0  0
  182.4090  179.1540  143.5130 C   0  0  0  0  0  2  0  0  0  0  0  0
  181.3860  178.9560  141.2570 C   0  0  0  0  0  3  0  0  0  0  0  0
  179.4810  179.3940  142.8370 C   0  0  0  0  0  3  0  0  0  0  0  0
  187.3550  177.8280  145.9860 C   0  0  0  0  0  0  0  0  0  0  0  0
  188.0910  177.4780  143.3450 N   0  0  0  0  0  0  0  0  0  0  0  0
  186.4600  178.1380  144.9550 C   0  0  0  0  0  3  0  0  0  0  0  0
  186.8440  177.9550  143.6200 C   0  0  0  0  0  0  0  0  0  0  0  0
  188.6240  177.3440  145.6680 C   0  0  0  0  0  3  0  0  0  0  0  0
  188.9840  177.1730  144.3300 C   0  0  0  0  0  0  0  0  0  0  0  0
  187.8980  178.1090  148.3620 C   0  0  0  0  0  2  0  0  0  0  0  0
  186.9900  177.9860  147.4010 C   0  0  0  0  0  3  0  0  0  0  0  0
  190.2590  176.6890  144.0220 O   0  0  0  0  0  0  0  0  0  0  0  0
  191.1930  177.4150  143.2330 C   0  0  0  0  0  2  0  0  0  0  0  0
  191.6280  178.6720  143.9610 C   0  0  0  0  0  1  0  0  0  0  0  0
  2  7  2  0  0  0  0
  3  4  2  0  0  0  0
  4  2  1  0  0  0  0
  4  5  1  0  0  0  0
  5 11  1  1  0  0  0
  5  1  1  0  0  0  0
  6  1  2  0  0  0  0
  6 18  1  0  0  0  0
  7  6  1  0  0  0  0
  9 14  2  0  0  0  0
 10  8  2  0  0  0  0
 11 12  1  0  0  0  0
 12  8  1  0  0  0  0
 13  9  1  0  0  0  0
 13 11  2  0  0  0  0
 14 10  1  0  0  0  0
 15 22  1  0  0  0  0
 16 18  1  0  0  0  0
 16 20  2  0  0  0  0
 17 15  1  0  0  0  0
 18 17  2  0  0  0  0
 19 15  2  0  0  0  0
 20 19  1  0  0  0  0
 22 21  2  0  0  0  0
 23 20  1  0  0  0  0
 24 25  1  0  0  0  0
 24 23  1  0  0  0  0
M  END
>  <MODEL>
9

>  <REMARK>
 VINA RESULT:      -8.3      2.237      7.450
  Name = 
  5 active torsions:
  status: ('A' for Active; 'I' for Inactive)
    1  A    between atoms: C_1  and  O_21
    2  A    between atoms: C_4  and  C_19
    3  A    between atoms: C_9  and  C_16
    4  A    between atoms: C_13  and  C_20
    5  A    between atoms: O_21  and  C_24
                            x       y       z     vdW  Elec       q    Type
                         _______ _______ _______ _____ _____    ______ ____

>  <TORSDO>
F 5

$$$$
