=
 OpenBabel11032420573D

 47 52  0  0  1  0  0  0  0  0999 V2000
  189.6000  177.1280  145.3260 C   0  0  2  0  0  3  0  0  0  0  0  0
  190.1080  177.3400  141.0540 C   0  0  0  0  0  0  0  0  0  0  0  0
  188.6760  177.0810  143.0020 C   0  0  0  0  0  3  0  0  0  0  0  0
  191.0670  177.3690  143.2800 C   0  0  0  0  0  3  0  0  0  0  0  0
  188.8310  177.1550  141.6150 C   0  0  0  0  0  3  0  0  0  0  0  0
  189.7910  177.1930  143.8410 C   0  0  0  0  0  0  0  0  0  0  0  0
  191.2200  177.4490  141.8930 C   0  0  0  0  0  3  0  0  0  0  0  0
  190.2930  177.4700  139.6050 C   0  0  0  0  0  3  0  0  0  0  0  0
  189.6310  176.7370  138.7670 N   0  0  0  0  0  0  0  0  0  0  0  0
  189.7760  176.8770  137.3490 C   0  0  0  0  0  0  0  0  0  0  0  0
  189.3030  177.8820  136.7520 O   0  0  0  0  0  0  0  0  0  0  0  0
  190.4580  175.8770  136.5920 N   0  0  0  0  0  2  0  0  0  0  0  0
  193.3050  173.9860  137.0910 C   0  0  1  0  0  3  0  0  0  0  0  0
  192.4260  175.0250  137.7170 C   0  0  0  0  0  2  0  0  0  0  0  0
  192.4780  173.4640  135.9450 C   0  0  2  0  0  3  0  0  0  0  0  0
  191.1190  173.6520  136.2460 O   0  0  0  0  0  0  0  0  0  0  0  0
  191.0440  174.6910  137.1970 C   0  0  2  0  0  3  0  0  0  0  0  0
  192.7410  172.0460  135.7500 N   0  0  0  0  0  1  0  0  0  0  0  0
  195.1020  174.2660  135.0950 O   0  0  0  0  0  0  0  0  0  0  0  0
  194.8260  174.7270  136.5050 S   0  0  0  0  0  0  0  0  0  0  0  0
  194.6700  176.2270  136.5060 O   0  0  0  0  0  0  0  0  0  0  0  0
  195.6780  173.6140  138.8240 C   0  0  0  0  0  1  0  0  0  0  0  0
  196.1970  174.2740  137.5570 C   0  0  0  0  0  2  0  0  0  0  0  0
  188.4960  178.0800  145.7910 C   0  0  0  0  0  2  0  0  0  0  0  0
  187.3270  177.2970  146.3830 C   0  0  0  0  0  2  0  0  0  0  0  0
  186.3510  178.6760  144.8740 O   0  0  0  0  0  0  0  0  0  0  0  0
  184.2490  178.9880  145.9120 C   0  0  0  0  0  2  0  0  0  0  0  0
  185.1290  179.3640  144.7520 C   0  0  2  0  0  3  0  0  0  0  0  0
  185.0870  177.9710  146.6120 C   0  0  0  0  0  2  0  0  0  0  0  0
  186.1010  177.5830  145.6490 N   0  0  0  0  0  0  0  0  0  0  0  0
  184.5710  178.6070  141.0610 C   0  0  0  0  0  0  0  0  0  0  0  0
  183.1760  178.5070  141.0130 C   0  0  0  0  0  3  0  0  0  0  0  0
  185.2110  178.8800  142.2730 C   0  0  0  0  0  3  0  0  0  0  0  0
  182.4230  178.6750  142.1790 C   0  0  0  0  0  3  0  0  0  0  0  0
  183.0650  178.9480  143.3930 C   0  0  0  0  0  3  0  0  0  0  0  0
  184.4600  179.0520  143.4430 C   0  0  0  0  0  0  0  0  0  0  0  0
  185.9870  177.3660  137.5210 C   0  0  1  0  0  3  0  0  0  0  0  0
  185.4550  178.5200  138.3970 C   0  0  2  0  0  0  0  0  0  0  0  0
  184.6450  177.2490  138.0590 C   0  0  0  0  0  2  0  0  0  0  0  0
  186.5150  178.5760  139.1730 O   0  0  0  0  0  0  0  0  0  0  0  0
  185.9260  177.7510  136.1780 O   0  0  0  0  0  1  0  0  0  0  0  0
  185.3480  178.4160  139.8830 N   0  0  0  0  0  0  0  0  0  0  0  0
  190.8490  177.4490  145.9980 N   0  0  0  0  0  2  0  0  0  0  0  0
  190.8520  176.7250  147.2610 C   0  0  0  0  0  2  0  0  0  0  0  0
  192.1240  175.9610  147.3890 C   0  0  0  0  0  0  0  0  0  0  0  0
  192.5010  175.0270  146.3800 N   0  0  0  0  0  1  0  0  0  0  0  0
  192.8440  176.1080  148.4100 O   0  0  0  0  0  0  0  0  0  0  0  0
  1 24  1  1  0  0  0
  1 43  1  0  0  0  0
  2  5  2  0  0  0  0
  2  7  1  0  0  0  0
  3  6  2  0  0  0  0
  4  6  1  0  0  0  0
  5  3  1  0  0  0  0
  6  1  1  0  0  0  0
  7  4  2  0  0  0  0
  8  2  1  0  0  0  0
  9  8  2  0  0  0  0
 10  9  1  0  0  0  0
 11 10  2  0  0  0  0
 12 10  1  0  0  0  0
 13 20  1  6  0  0  0
 13 14  1  0  0  0  0
 15 18  1  1  0  0  0
 15 16  1  0  0  0  0
 15 13  1  0  0  0  0
 16 17  1  0  0  0  0
 17 12  1  6  0  0  0
 17 14  1  0  0  0  0
 19 20  2  0  0  0  0
 20 21  2  0  0  0  0
 20 23  1  0  0  0  0
 23 22  1  0  0  0  0
 24 25  1  0  0  0  0
 26 30  1  0  0  0  0
 27 29  1  0  0  0  0
 28 36  1  6  0  0  0
 28 26  1  0  0  0  0
 28 27  1  0  0  0  0
 30 25  1  0  0  0  0
 30 29  1  0  0  0  0
 31 33  1  0  0  0  0
 32 31  2  0  0  0  0
 32 34  1  0  0  0  0
 33 36  2  0  0  0  0
 34 35  2  0  0  0  0
 35 36  1  0  0  0  0
 37 41  1  6  0  0  0
 37 39  1  0  0  0  0
 37 38  1  0  0  0  0
 38 39  1  6  0  0  0
 38 40  1  0  0  0  0
 38 42  1  0  0  0  0
 40 42  1  0  0  0  0
 42 31  1  0  0  0  0
 43 44  1  0  0  0  0
 44 45  1  0  0  0  0
 45 47  2  0  0  0  0
 46 45  1  0  0  0  0
M  END
>  <MODEL>
1

>  <REMARK>
 VINA RESULT:      -8.6      0.000      0.000
  Name = 
  14 active torsions:
  status: ('A' for Active; 'I' for Inactive)
    1  A    between atoms: C_1  and  C_15
    2  A    between atoms: C_1  and  C_45
    3  A    between atoms: C_4  and  C_5
    4  A    between atoms: C_6  and  S_17
    5  A    between atoms: C_7  and  C_13
    6  A    between atoms: C_7  and  N_30
    7  A    between atoms: C_14  and  N_36
    8  A    between atoms: C_15  and  N_32
    9  A    between atoms: S_17  and  C_42
   10  A    between atoms: C_20  and  C_45
   11  A    between atoms: C_22  and  C_44
   12  A    between atoms: C_27  and  N_41
   13  A    between atoms: N_30  and  C_45
   14  A    between atoms: N_35  and  C_38
                            x       y       z     vdW  Elec       q    Type
                         _______ _______ _______ _____ _____    ______ ____

>  <TORSDO>
F 14

$$$$
=
 OpenBabel11032420573D

 47 52  0  0  1  0  0  0  0  0999 V2000
  189.9970  176.9600  144.6840 C   0  0  2  0  0  3  0  0  0  0  0  0
  189.3870  177.8270  140.5100 C   0  0  0  0  0  0  0  0  0  0  0  0
  190.8240  177.0940  142.3280 C   0  0  0  0  0  3  0  0  0  0  0  0
  188.5320  177.7430  142.7770 C   0  0  0  0  0  3  0  0  0  0  0  0
  190.6330  177.3660  140.9700 C   0  0  0  0  0  3  0  0  0  0  0  0
  189.7740  177.2760  143.2360 C   0  0  0  0  0  0  0  0  0  0  0  0
  188.3400  178.0100  141.4180 C   0  0  0  0  0  3  0  0  0  0  0  0
  189.1440  178.0740  139.0850 C   0  0  0  0  0  3  0  0  0  0  0  0
  187.9440  178.1760  138.6070 N   0  0  0  0  0  0  0  0  0  0  0  0
  187.6920  178.4510  137.2250 C   0  0  0  0  0  0  0  0  0  0  0  0
  187.8970  179.6030  136.7530 O   0  0  0  0  0  0  0  0  0  0  0  0
  187.2040  177.4250  136.3620 N   0  0  0  0  0  2  0  0  0  0  0  0
  188.2040  174.1190  136.3110 C   0  0  1  0  0  3  0  0  0  0  0  0
  188.2680  175.3820  137.1130 C   0  0  0  0  0  2  0  0  0  0  0  0
  187.1220  174.3940  135.2990 C   0  0  2  0  0  3  0  0  0  0  0  0
  186.2410  175.3520  135.8280 O   0  0  0  0  0  0  0  0  0  0  0  0
  186.9500  176.0660  136.8160 C   0  0  2  0  0  3  0  0  0  0  0  0
  186.3920  173.1690  135.0090 N   0  0  0  0  0  1  0  0  0  0  0  0
  189.6830  172.5460  134.6890 O   0  0  0  0  0  0  0  0  0  0  0  0
  189.7740  173.8090  135.5100 S   0  0  0  0  0  0  0  0  0  0  0  0
  190.0910  174.9640  134.5940 O   0  0  0  0  0  0  0  0  0  0  0  0
  192.2360  174.5560  136.3620 C   0  0  0  0  0  1  0  0  0  0  0  0
  191.0790  173.6380  136.7190 C   0  0  0  0  0  2  0  0  0  0  0  0
  189.1880  177.8900  145.5910 C   0  0  0  0  0  2  0  0  0  0  0  0
  188.2190  177.0860  146.4550 C   0  0  0  0  0  2  0  0  0  0  0  0
  186.9040  178.5770  145.3690 O   0  0  0  0  0  0  0  0  0  0  0  0
  185.2950  178.9980  147.0510 C   0  0  0  0  0  2  0  0  0  0  0  0
  185.7660  179.3500  145.6670 C   0  0  2  0  0  3  0  0  0  0  0  0
  186.2390  177.9040  147.4230 C   0  0  0  0  0  2  0  0  0  0  0  0
  186.8450  177.4790  146.1740 N   0  0  0  0  0  0  0  0  0  0  0  0
  183.9380  178.9240  142.3520 C   0  0  0  0  0  0  0  0  0  0  0  0
  182.6210  178.7450  142.7910 C   0  0  0  0  0  3  0  0  0  0  0  0
  184.9640  179.1150  143.2810 C   0  0  0  0  0  3  0  0  0  0  0  0
  182.3330  178.7530  144.1590 C   0  0  0  0  0  3  0  0  0  0  0  0
  183.3620  178.9450  145.0890 C   0  0  0  0  0  3  0  0  0  0  0  0
  184.6790  179.1270  144.6540 C   0  0  0  0  0  0  0  0  0  0  0  0
  184.2900  177.9070  138.4890 C   0  0  1  0  0  3  0  0  0  0  0  0
  183.7570  178.8940  139.5510 C   0  0  2  0  0  0  0  0  0  0  0  0
  183.3640  177.4020  139.4870 C   0  0  0  0  0  2  0  0  0  0  0  0
  184.9410  179.3670  139.8740 O   0  0  0  0  0  0  0  0  0  0  0  0
  183.6140  178.1270  137.2860 O   0  0  0  0  0  1  0  0  0  0  0  0
  184.2440  178.8940  140.9620 N   0  0  0  0  0  0  0  0  0  0  0  0
  191.4130  177.0670  144.9990 N   0  0  0  0  0  2  0  0  0  0  0  0
  191.8120  175.8030  145.6000 C   0  0  0  0  0  2  0  0  0  0  0  0
  192.2030  176.0330  147.0190 C   0  0  0  0  0  0  0  0  0  0  0  0
  191.6240  177.1070  147.7540 N   0  0  0  0  0  1  0  0  0  0  0  0
  193.0780  175.3040  147.5540 O   0  0  0  0  0  0  0  0  0  0  0  0
  1 43  1  0  0  0  0
  1 24  1  1  0  0  0
  2  5  2  0  0  0  0
  2  7  1  0  0  0  0
  3  6  2  0  0  0  0
  4  6  1  0  0  0  0
  5  3  1  0  0  0  0
  6  1  1  0  0  0  0
  7  4  2  0  0  0  0
  8  2  1  0  0  0  0
  9  8  2  0  0  0  0
 10  9  1  0  0  0  0
 11 10  2  0  0  0  0
 12 10  1  0  0  0  0
 13 20  1  6  0  0  0
 13 14  1  0  0  0  0
 15 18  1  1  0  0  0
 15 16  1  0  0  0  0
 15 13  1  0  0  0  0
 16 17  1  0  0  0  0
 17 12  1  6  0  0  0
 17 14  1  0  0  0  0
 19 20  2  0  0  0  0
 20 23  1  0  0  0  0
 21 20  2  0  0  0  0
 22 23  1  0  0  0  0
 24 25  1  0  0  0  0
 26 28  1  0  0  0  0
 26 30  1  0  0  0  0
 27 29  1  0  0  0  0
 28 36  1  6  0  0  0
 28 27  1  0  0  0  0
 30 25  1  0  0  0  0
 30 29  1  0  0  0  0
 31 32  2  0  0  0  0
 31 33  1  0  0  0  0
 32 34  1  0  0  0  0
 33 36  2  0  0  0  0
 34 35  2  0  0  0  0
 36 35  1  0  0  0  0
 37 41  1  6  0  0  0
 37 39  1  0  0  0  0
 37 38  1  0  0  0  0
 38 39  1  6  0  0  0
 38 40  1  0  0  0  0
 38 42  1  0  0  0  0
 40 42  1  0  0  0  0
 42 31  1  0  0  0  0
 43 44  1  0  0  0  0
 44 45  1  0  0  0  0
 45 47  2  0  0  0  0
 45 46  1  0  0  0  0
M  END
>  <MODEL>
2

>  <REMARK>
 VINA RESULT:      -8.4      2.291      2.974
  Name = 
  14 active torsions:
  status: ('A' for Active; 'I' for Inactive)
    1  A    between atoms: C_1  and  C_15
    2  A    between atoms: C_1  and  C_45
    3  A    between atoms: C_4  and  C_5
    4  A    between atoms: C_6  and  S_17
    5  A    between atoms: C_7  and  C_13
    6  A    between atoms: C_7  and  N_30
    7  A    between atoms: C_14  and  N_36
    8  A    between atoms: C_15  and  N_32
    9  A    between atoms: S_17  and  C_42
   10  A    between atoms: C_20  and  C_45
   11  A    between atoms: C_22  and  C_44
   12  A    between atoms: C_27  and  N_41
   13  A    between atoms: N_30  and  C_45
   14  A    between atoms: N_35  and  C_38
                            x       y       z     vdW  Elec       q    Type
                         _______ _______ _______ _____ _____    ______ ____

>  <TORSDO>
F 14

$$$$
=
 OpenBabel11032420573D

 47 52  0  0  1  0  0  0  0  0999 V2000
  190.1660  176.8560  139.7380 C   0  0  2  0  0  3  0  0  0  0  0  0
  186.2240  178.3570  138.8660 C   0  0  0  0  0  0  0  0  0  0  0  0
  188.2400  177.1860  138.1770 C   0  0  0  0  0  3  0  0  0  0  0  0
  188.0670  178.0920  140.4190 C   0  0  0  0  0  3  0  0  0  0  0  0
  186.9590  177.6630  137.8880 C   0  0  0  0  0  3  0  0  0  0  0  0
  188.7980  177.3930  139.4450 C   0  0  0  0  0  0  0  0  0  0  0  0
  186.7830  178.5640  140.1300 C   0  0  0  0  0  3  0  0  0  0  0  0
  184.8590  178.8260  138.6060 C   0  0  0  0  0  3  0  0  0  0  0  0
  184.0070  179.0030  139.5640 N   0  0  0  0  0  0  0  0  0  0  0  0
  182.6820  179.4940  139.3290 C   0  0  0  0  0  0  0  0  0  0  0  0
  182.5020  180.6320  138.8150 O   0  0  0  0  0  0  0  0  0  0  0  0
  181.5470  178.7010  139.6740 N   0  0  0  0  0  2  0  0  0  0  0  0
  180.7860  175.3420  139.4060 C   0  0  1  0  0  3  0  0  0  0  0  0
  181.8600  176.3550  139.1580 C   0  0  0  0  0  2  0  0  0  0  0  0
  179.8080  176.0710  140.2910 C   0  0  2  0  0  3  0  0  0  0  0  0
  180.4960  177.0720  140.9970 O   0  0  0  0  0  0  0  0  0  0  0  0
  181.6600  177.3740  140.2600 C   0  0  2  0  0  3  0  0  0  0  0  0
  179.2030  175.1400  141.2330 N   0  0  0  0  0  1  0  0  0  0  0  0
  178.9310  175.8350  137.5060 O   0  0  0  0  0  0  0  0  0  0  0  0
  180.0200  174.8540  137.8640 S   0  0  0  0  0  0  0  0  0  0  0  0
  181.0640  174.8660  136.7750 O   0  0  0  0  0  0  0  0  0  0  0  0
  180.4200  172.1730  137.8540 C   0  0  0  0  0  1  0  0  0  0  0  0
  179.3220  173.2140  137.9950 C   0  0  0  0  0  2  0  0  0  0  0  0
  190.7540  177.4830  141.0040 C   0  0  0  0  0  2  0  0  0  0  0  0
  191.2680  176.4000  141.9500 C   0  0  0  0  0  2  0  0  0  0  0  0
  190.2370  177.7720  143.4290 O   0  0  0  0  0  0  0  0  0  0  0  0
  191.1170  176.9180  145.4520 C   0  0  0  0  0  2  0  0  0  0  0  0
  190.2430  177.9690  144.8230 C   0  0  2  0  0  3  0  0  0  0  0  0
  191.5010  176.0950  144.2680 C   0  0  0  0  0  2  0  0  0  0  0  0
  190.5640  176.4650  143.2230 N   0  0  0  0  0  0  0  0  0  0  0  0
  186.4450  178.0580  145.0940 C   0  0  0  0  0  0  0  0  0  0  0  0
  186.2680  177.8580  146.4680 C   0  0  0  0  0  3  0  0  0  0  0  0
  187.7330  178.0890  144.5540 C   0  0  0  0  0  3  0  0  0  0  0  0
  187.3790  177.6850  147.2980 C   0  0  0  0  0  3  0  0  0  0  0  0
  188.6690  177.7160  146.7550 C   0  0  0  0  0  3  0  0  0  0  0  0
  188.8500  177.9190  145.3830 C   0  0  0  0  0  0  0  0  0  0  0  0
  182.7690  178.6520  143.6060 C   0  0  1  0  0  3  0  0  0  0  0  0
  184.2450  179.0960  143.6920 C   0  0  2  0  0  0  0  0  0  0  0  0
  183.2980  179.0160  144.9080 C   0  0  0  0  0  2  0  0  0  0  0  0
  184.7140  178.0740  143.0090 O   0  0  0  0  0  0  0  0  0  0  0  0
  182.0070  179.7060  143.0950 O   0  0  0  0  0  1  0  0  0  0  0  0
  185.3180  178.2130  144.2370 N   0  0  0  0  0  0  0  0  0  0  0  0
  191.0450  177.1040  138.6050 N   0  0  0  0  0  2  0  0  0  0  0  0
  191.6040  175.8190  138.2110 C   0  0  0  0  0  2  0  0  0  0  0  0
  193.0910  175.8980  138.2410 C   0  0  0  0  0  0  0  0  0  0  0  0
  193.7380  176.8840  139.0410 N   0  0  0  0  0  1  0  0  0  0  0  0
  193.7750  175.1210  137.5260 O   0  0  0  0  0  0  0  0  0  0  0  0
  1 24  1  1  0  0  0
  2  7  1  0  0  0  0
  3  6  2  0  0  0  0
  5  3  1  0  0  0  0
  5  2  2  0  0  0  0
  6  1  1  0  0  0  0
  6  4  1  0  0  0  0
  7  4  2  0  0  0  0
  8  2  1  0  0  0  0
  8  9  2  0  0  0  0
 10  9  1  0  0  0  0
 10 12  1  0  0  0  0
 11 10  2  0  0  0  0
 13 20  1  6  0  0  0
 13 15  1  0  0  0  0
 14 13  1  0  0  0  0
 14 17  1  0  0  0  0
 15 16  1  0  0  0  0
 15 18  1  1  0  0  0
 17 12  1  6  0  0  0
 17 16  1  0  0  0  0
 19 20  2  0  0  0  0
 20 23  1  0  0  0  0
 21 20  2  0  0  0  0
 22 23  1  0  0  0  0
 24 25  1  0  0  0  0
 25 30  1  0  0  0  0
 26 28  1  0  0  0  0
 28 36  1  1  0  0  0
 28 27  1  0  0  0  0
 29 27  1  0  0  0  0
 30 26  1  0  0  0  0
 30 29  1  0  0  0  0
 31 32  1  0  0  0  0
 32 34  2  0  0  0  0
 33 31  2  0  0  0  0
 33 36  1  0  0  0  0
 35 34  1  0  0  0  0
 36 35  2  0  0  0  0
 37 41  1  6  0  0  0
 37 38  1  0  0  0  0
 37 39  1  0  0  0  0
 38 42  1  0  0  0  0
 38 39  1  6  0  0  0
 40 38  1  0  0  0  0
 40 42  1  0  0  0  0
 42 31  1  0  0  0  0
 43  1  1  0  0  0  0
 44 45  1  0  0  0  0
 44 43  1  0  0  0  0
 45 46  1  0  0  0  0
 47 45  2  0  0  0  0
M  END
>  <MODEL>
3

>  <REMARK>
 VINA RESULT:      -8.2      3.856      8.813
  Name = 
  14 active torsions:
  status: ('A' for Active; 'I' for Inactive)
    1  A    between atoms: C_1  and  C_15
    2  A    between atoms: C_1  and  C_45
    3  A    between atoms: C_4  and  C_5
    4  A    between atoms: C_6  and  S_17
    5  A    between atoms: C_7  and  C_13
    6  A    between atoms: C_7  and  N_30
    7  A    between atoms: C_14  and  N_36
    8  A    between atoms: C_15  and  N_32
    9  A    between atoms: S_17  and  C_42
   10  A    between atoms: C_20  and  C_45
   11  A    between atoms: C_22  and  C_44
   12  A    between atoms: C_27  and  N_41
   13  A    between atoms: N_30  and  C_45
   14  A    between atoms: N_35  and  C_38
                            x       y       z     vdW  Elec       q    Type
                         _______ _______ _______ _____ _____    ______ ____

>  <TORSDO>
F 14

$$$$
=
 OpenBabel11032420573D

 47 52  0  0  1  0  0  0  0  0999 V2000
  187.8360  177.6940  144.6840 C   0  0  2  0  0  3  0  0  0  0  0  0
  183.7920  178.7020  143.5970 C   0  0  0  0  0  0  0  0  0  0  0  0
  186.0180  177.9410  142.9840 C   0  0  0  0  0  3  0  0  0  0  0  0
  185.5180  178.5070  145.2880 C   0  0  0  0  0  3  0  0  0  0  0  0
  184.7060  178.2600  142.6230 C   0  0  0  0  0  3  0  0  0  0  0  0
  186.4290  178.0580  144.3180 C   0  0  0  0  0  0  0  0  0  0  0  0
  184.2040  178.8200  144.9270 C   0  0  0  0  0  3  0  0  0  0  0  0
  182.3960  178.9960  143.2550 C   0  0  0  0  0  3  0  0  0  0  0  0
  181.9570  178.8920  142.0410 N   0  0  0  0  0  0  0  0  0  0  0  0
  180.5890  179.1430  141.6990 C   0  0  0  0  0  0  0  0  0  0  0  0
  179.6850  179.0680  142.5740 O   0  0  0  0  0  0  0  0  0  0  0  0
  180.2320  179.4800  140.3590 N   0  0  0  0  0  2  0  0  0  0  0  0
  181.1430  181.0790  137.4360 C   0  0  1  0  0  3  0  0  0  0  0  0
  181.3680  181.0590  138.9160 C   0  0  0  0  0  2  0  0  0  0  0  0
  180.4350  179.7760  137.1660 C   0  0  2  0  0  3  0  0  0  0  0  0
  180.7890  178.8550  138.1660 O   0  0  0  0  0  0  0  0  0  0  0  0
  181.2080  179.6000  139.2870 C   0  0  2  0  0  3  0  0  0  0  0  0
  180.8310  179.2570  135.8650 N   0  0  0  0  0  1  0  0  0  0  0  0
  179.1000  182.0420  135.9540 O   0  0  0  0  0  0  0  0  0  0  0  0
  180.1200  182.4750  136.9790 S   0  0  0  0  0  0  0  0  0  0  0  0
  179.3980  182.9740  138.2060 O   0  0  0  0  0  0  0  0  0  0  0  0
  181.2170  184.9320  137.3070 C   0  0  0  0  0  1  0  0  0  0  0  0
  181.1170  183.7950  136.3020 C   0  0  0  0  0  2  0  0  0  0  0  0
  188.5120  176.8850  143.5770 C   0  0  0  0  0  2  0  0  0  0  0  0
  189.8630  177.4960  143.2140 C   0  0  0  0  0  2  0  0  0  0  0  0
  189.1820  176.8390  141.1560 O   0  0  0  0  0  0  0  0  0  0  0  0
  191.2010  177.1150  139.9550 C   0  0  0  0  0  2  0  0  0  0  0  0
  189.7680  176.6610  139.8890 C   0  0  2  0  0  3  0  0  0  0  0  0
  191.2910  177.6290  141.3520 C   0  0  0  0  0  2  0  0  0  0  0  0
  189.9170  177.7950  141.7890 N   0  0  0  0  0  0  0  0  0  0  0  0
  186.9440  177.9400  137.6760 C   0  0  0  0  0  0  0  0  0  0  0  0
  187.6390  178.8060  136.8240 C   0  0  0  0  0  3  0  0  0  0  0  0
  187.6290  177.2460  138.6760 C   0  0  0  0  0  3  0  0  0  0  0  0
  189.0180  178.9790  136.9770 C   0  0  0  0  0  3  0  0  0  0  0  0
  189.7030  178.2820  137.9800 C   0  0  0  0  0  3  0  0  0  0  0  0
  189.0120  177.4140  138.8310 C   0  0  0  0  0  0  0  0  0  0  0  0
  183.2650  176.9800  136.4010 C   0  0  1  0  0  3  0  0  0  0  0  0
  184.3620  176.8540  137.4800 C   0  0  2  0  0  0  0  0  0  0  0  0
  184.5440  176.4150  136.0110 C   0  0  0  0  0  2  0  0  0  0  0  0
  184.2480  178.0930  137.9070 O   0  0  0  0  0  0  0  0  0  0  0  0
  182.3310  175.9560  136.5820 O   0  0  0  0  0  1  0  0  0  0  0  0
  185.5360  177.7750  137.5420 N   0  0  0  0  0  0  0  0  0  0  0  0
  187.8400  176.9390  145.9280 N   0  0  0  0  0  2  0  0  0  0  0  0
  189.0900  177.2460  146.6080 C   0  0  0  0  0  2  0  0  0  0  0  0
  188.7940  177.9320  147.8970 C   0  0  0  0  0  0  0  0  0  0  0  0
  187.4460  178.2170  148.2610 N   0  0  0  0  0  1  0  0  0  0  0  0
  189.7380  178.2990  148.6430 O   0  0  0  0  0  0  0  0  0  0  0  0
  1 24  1  6  0  0  0
  1 43  1  0  0  0  0
  2  7  1  0  0  0  0
  3  6  2  0  0  0  0
  5  3  1  0  0  0  0
  5  2  2  0  0  0  0
  6  1  1  0  0  0  0
  6  4  1  0  0  0  0
  7  4  2  0  0  0  0
  8  2  1  0  0  0  0
  9  8  2  0  0  0  0
 10  9  1  0  0  0  0
 10 11  2  0  0  0  0
 12 10  1  0  0  0  0
 13 20  1  1  0  0  0
 13 14  1  0  0  0  0
 14 17  1  0  0  0  0
 15 18  1  6  0  0  0
 15 13  1  0  0  0  0
 15 16  1  0  0  0  0
 16 17  1  0  0  0  0
 17 12  1  1  0  0  0
 19 20  2  0  0  0  0
 20 21  2  0  0  0  0
 23 20  1  0  0  0  0
 23 22  1  0  0  0  0
 25 24  1  0  0  0  0
 26 30  1  0  0  0  0
 27 29  1  0  0  0  0
 28 36  1  6  0  0  0
 28 27  1  0  0  0  0
 28 26  1  0  0  0  0
 29 30  1  0  0  0  0
 30 25  1  0  0  0  0
 31 33  1  0  0  0  0
 32 34  1  0  0  0  0
 32 31  2  0  0  0  0
 33 36  2  0  0  0  0
 34 35  2  0  0  0  0
 35 36  1  0  0  0  0
 37 41  1  1  0  0  0
 37 38  1  0  0  0  0
 38 39  1  1  0  0  0
 38 42  1  0  0  0  0
 38 40  1  0  0  0  0
 39 37  1  0  0  0  0
 42 31  1  0  0  0  0
 42 40  1  0  0  0  0
 43 44  1  0  0  0  0
 44 45  1  0  0  0  0
 45 46  1  0  0  0  0
 45 47  2  0  0  0  0
M  END
>  <MODEL>
4

>  <REMARK>
 VINA RESULT:      -8.1      4.351      9.136
  Name = 
  14 active torsions:
  status: ('A' for Active; 'I' for Inactive)
    1  A    between atoms: C_1  and  C_15
    2  A    between atoms: C_1  and  C_45
    3  A    between atoms: C_4  and  C_5
    4  A    between atoms: C_6  and  S_17
    5  A    between atoms: C_7  and  C_13
    6  A    between atoms: C_7  and  N_30
    7  A    between atoms: C_14  and  N_36
    8  A    between atoms: C_15  and  N_32
    9  A    between atoms: S_17  and  C_42
   10  A    between atoms: C_20  and  C_45
   11  A    between atoms: C_22  and  C_44
   12  A    between atoms: C_27  and  N_41
   13  A    between atoms: N_30  and  C_45
   14  A    between atoms: N_35  and  C_38
                            x       y       z     vdW  Elec       q    Type
                         _______ _______ _______ _____ _____    ______ ____

>  <TORSDO>
F 14

$$$$
=
 OpenBabel11032420573D

 47 52  0  0  1  0  0  0  0  0999 V2000
  189.1640  177.2240  144.2090 C   0  0  2  0  0  3  0  0  0  0  0  0
  185.0630  178.4490  143.7280 C   0  0  0  0  0  0  0  0  0  0  0  0
  187.2200  177.8620  142.7710 C   0  0  0  0  0  3  0  0  0  0  0  0
  186.9170  177.8640  145.1770 C   0  0  0  0  0  3  0  0  0  0  0  0
  185.8880  178.2530  142.6050 C   0  0  0  0  0  3  0  0  0  0  0  0
  187.7390  177.6610  144.0560 C   0  0  0  0  0  0  0  0  0  0  0  0
  185.5830  178.2500  145.0100 C   0  0  0  0  0  3  0  0  0  0  0  0
  183.6500  178.8120  143.5810 C   0  0  0  0  0  3  0  0  0  0  0  0
  183.0270  178.6820  142.4530 N   0  0  0  0  0  0  0  0  0  0  0  0
  181.6390  178.9990  142.3040 C   0  0  0  0  0  0  0  0  0  0  0  0
  180.9130  179.1900  143.3180 O   0  0  0  0  0  0  0  0  0  0  0  0
  181.0590  179.1030  141.0050 N   0  0  0  0  0  2  0  0  0  0  0  0
  181.5580  180.0550  137.7220 C   0  0  1  0  0  3  0  0  0  0  0  0
  182.0560  180.2520  139.1200 C   0  0  0  0  0  2  0  0  0  0  0  0
  180.6830  178.8320  137.8260 C   0  0  2  0  0  3  0  0  0  0  0  0
  181.1230  178.0520  138.9070 O   0  0  0  0  0  0  0  0  0  0  0  0
  181.8220  178.9100  139.7810 C   0  0  2  0  0  3  0  0  0  0  0  0
  180.7710  178.0550  136.5980 N   0  0  0  0  0  1  0  0  0  0  0  0
  179.1810  181.3340  137.6340 O   0  0  0  0  0  0  0  0  0  0  0  0
  180.6150  181.4800  137.1890 S   0  0  0  0  0  0  0  0  0  0  0  0
  181.1990  182.7170  137.8240 O   0  0  0  0  0  0  0  0  0  0  0  0
  180.8400  183.1090  135.0350 C   0  0  0  0  0  1  0  0  0  0  0  0
  180.6710  181.6460  135.4110 C   0  0  0  0  0  2  0  0  0  0  0  0
  189.5210  176.1150  143.2180 C   0  0  0  0  0  2  0  0  0  0  0  0
  190.8410  176.4250  142.5180 C   0  0  0  0  0  2  0  0  0  0  0  0
  190.1820  176.0210  140.3880 O   0  0  0  0  0  0  0  0  0  0  0  0
  191.7840  177.3110  139.2190 C   0  0  0  0  0  2  0  0  0  0  0  0
  190.6210  176.3650  139.0950 C   0  0  2  0  0  3  0  0  0  0  0  0
  191.8630  177.5030  140.6960 C   0  0  0  0  0  2  0  0  0  0  0  0
  190.5940  177.0240  141.2140 N   0  0  0  0  0  0  0  0  0  0  0  0
  187.4440  176.7740  137.0340 C   0  0  0  0  0  0  0  0  0  0  0  0
  187.4720  178.1470  136.7640 C   0  0  0  0  0  3  0  0  0  0  0  0
  188.4600  176.1910  137.7950 C   0  0  0  0  0  3  0  0  0  0  0  0
  188.5150  178.9350  137.2600 C   0  0  0  0  0  3  0  0  0  0  0  0
  189.5330  178.3500  138.0220 C   0  0  0  0  0  3  0  0  0  0  0  0
  189.5090  176.9780  138.2910 C   0  0  0  0  0  0  0  0  0  0  0  0
  184.9720  173.7340  136.1810 C   0  0  1  0  0  3  0  0  0  0  0  0
  185.1930  175.1050  136.8560 C   0  0  2  0  0  0  0  0  0  0  0  0
  185.9810  173.8280  137.2200 C   0  0  0  0  0  2  0  0  0  0  0  0
  185.2900  175.7750  135.7280 O   0  0  0  0  0  0  0  0  0  0  0  0
  183.8110  173.1550  136.7000 O   0  0  0  0  0  1  0  0  0  0  0  0
  186.3740  175.9670  136.5530 N   0  0  0  0  0  0  0  0  0  0  0  0
  189.3950  176.7690  145.5710 N   0  0  0  0  0  2  0  0  0  0  0  0
  190.5520  177.4970  146.0730 C   0  0  0  0  0  2  0  0  0  0  0  0
  191.5820  176.5270  146.5370 C   0  0  0  0  0  0  0  0  0  0  0  0
  192.0690  176.5860  147.8760 N   0  0  0  0  0  1  0  0  0  0  0  0
  192.0550  175.6820  145.7340 O   0  0  0  0  0  0  0  0  0  0  0  0
  1 24  1  6  0  0  0
  1 43  1  0  0  0  0
  2  7  1  0  0  0  0
  3  6  2  0  0  0  0
  5  3  1  0  0  0  0
  5  2  2  0  0  0  0
  6  1  1  0  0  0  0
  6  4  1  0  0  0  0
  7  4  2  0  0  0  0
  8  2  1  0  0  0  0
  9  8  2  0  0  0  0
 10  9  1  0  0  0  0
 10 11  2  0  0  0  0
 12 10  1  0  0  0  0
 13 20  1  1  0  0  0
 13 15  1  0  0  0  0
 13 14  1  0  0  0  0
 14 17  1  0  0  0  0
 15 18  1  6  0  0  0
 15 16  1  0  0  0  0
 16 17  1  0  0  0  0
 17 12  1  1  0  0  0
 20 19  2  0  0  0  0
 20 21  2  0  0  0  0
 22 23  1  0  0  0  0
 23 20  1  0  0  0  0
 25 24  1  0  0  0  0
 26 30  1  0  0  0  0
 27 29  1  0  0  0  0
 28 36  1  6  0  0  0
 28 27  1  0  0  0  0
 28 26  1  0  0  0  0
 29 30  1  0  0  0  0
 30 25  1  0  0  0  0
 31 33  1  0  0  0  0
 32 31  2  0  0  0  0
 32 34  1  0  0  0  0
 33 36  2  0  0  0  0
 34 35  2  0  0  0  0
 35 36  1  0  0  0  0
 37 41  1  1  0  0  0
 37 38  1  0  0  0  0
 37 39  1  0  0  0  0
 38 39  1  1  0  0  0
 40 42  1  0  0  0  0
 40 38  1  0  0  0  0
 42 38  1  0  0  0  0
 42 31  1  0  0  0  0
 43 44  1  0  0  0  0
 44 45  1  0  0  0  0
 45 46  1  0  0  0  0
 47 45  2  0  0  0  0
M  END
>  <MODEL>
5

>  <REMARK>
 VINA RESULT:      -8.0      4.082      8.841
  Name = 
  14 active torsions:
  status: ('A' for Active; 'I' for Inactive)
    1  A    between atoms: C_1  and  C_15
    2  A    between atoms: C_1  and  C_45
    3  A    between atoms: C_4  and  C_5
    4  A    between atoms: C_6  and  S_17
    5  A    between atoms: C_7  and  C_13
    6  A    between atoms: C_7  and  N_30
    7  A    between atoms: C_14  and  N_36
    8  A    between atoms: C_15  and  N_32
    9  A    between atoms: S_17  and  C_42
   10  A    between atoms: C_20  and  C_45
   11  A    between atoms: C_22  and  C_44
   12  A    between atoms: C_27  and  N_41
   13  A    between atoms: N_30  and  C_45
   14  A    between atoms: N_35  and  C_38
                            x       y       z     vdW  Elec       q    Type
                         _______ _______ _______ _____ _____    ______ ____

>  <TORSDO>
F 14

$$$$
=
 OpenBabel11032420573D

 47 52  0  0  1  0  0  0  0  0999 V2000
  188.6110  177.5400  144.2820 C   0  0  2  0  0  3  0  0  0  0  0  0
  184.4670  178.5850  143.7470 C   0  0  0  0  0  0  0  0  0  0  0  0
  186.6250  177.9600  142.8200 C   0  0  0  0  0  3  0  0  0  0  0  0
  186.3600  178.2160  145.2160 C   0  0  0  0  0  3  0  0  0  0  0  0
  185.2800  178.2920  142.6370 C   0  0  0  0  0  3  0  0  0  0  0  0
  187.1710  177.9150  144.1090 C   0  0  0  0  0  0  0  0  0  0  0  0
  185.0130  178.5430  145.0330 C   0  0  0  0  0  3  0  0  0  0  0  0
  183.0410  178.8890  143.5880 C   0  0  0  0  0  3  0  0  0  0  0  0
  182.4660  178.8660  142.4280 N   0  0  0  0  0  0  0  0  0  0  0  0
  181.0670  179.1270  142.2630 C   0  0  0  0  0  0  0  0  0  0  0  0
  180.3070  179.2020  143.2660 O   0  0  0  0  0  0  0  0  0  0  0  0
  180.5160  179.3020  140.9580 N   0  0  0  0  0  2  0  0  0  0  0  0
  181.2200  180.6970  137.8770 C   0  0  1  0  0  3  0  0  0  0  0  0
  181.6660  180.6490  139.3060 C   0  0  0  0  0  2  0  0  0  0  0  0
  180.2670  179.5350  137.7640 C   0  0  2  0  0  3  0  0  0  0  0  0
  180.6090  178.5740  138.7290 O   0  0  0  0  0  0  0  0  0  0  0  0
  181.3190  179.2430  139.7470 C   0  0  2  0  0  3  0  0  0  0  0  0
  180.3600  178.9460  136.4360 N   0  0  0  0  0  1  0  0  0  0  0  0
  179.6570  182.1480  136.2200 O   0  0  0  0  0  0  0  0  0  0  0  0
  180.3920  182.2470  137.5340 S   0  0  0  0  0  0  0  0  0  0  0  0
  179.3950  182.5210  138.6320 O   0  0  0  0  0  0  0  0  0  0  0  0
  181.0490  184.6790  136.5340 C   0  0  0  0  0  1  0  0  0  0  0  0
  181.5690  183.5890  137.4570 C   0  0  0  0  0  2  0  0  0  0  0  0
  189.0800  176.5920  143.1760 C   0  0  0  0  0  2  0  0  0  0  0  0
  190.2540  177.1990  142.4110 C   0  0  0  0  0  2  0  0  0  0  0  0
  191.4000  177.2130  140.4570 O   0  0  0  0  0  0  0  0  0  0  0  0
  189.5950  177.3210  138.9320 C   0  0  0  0  0  2  0  0  0  0  0  0
  191.0910  177.3080  139.0870 C   0  0  2  0  0  3  0  0  0  0  0  0
  189.1420  177.1360  140.3410 C   0  0  0  0  0  2  0  0  0  0  0  0
  190.3100  176.6590  141.0590 N   0  0  0  0  0  0  0  0  0  0  0  0
  193.6420  175.0540  137.3800 C   0  0  0  0  0  0  0  0  0  0  0  0
  192.8100  174.0680  136.8340 C   0  0  0  0  0  3  0  0  0  0  0  0
  193.0900  176.1040  138.1160 C   0  0  0  0  0  3  0  0  0  0  0  0
  191.4280  174.1340  137.0310 C   0  0  0  0  0  3  0  0  0  0  0  0
  190.8760  175.1880  137.7700 C   0  0  0  0  0  3  0  0  0  0  0  0
  191.7040  176.1750  138.3130 C   0  0  0  0  0  0  0  0  0  0  0  0
  197.5830  174.5260  137.8970 C   0  0  1  0  0  3  0  0  0  0  0  0
  196.2890  174.1470  137.1460 C   0  0  2  0  0  0  0  0  0  0  0  0
  196.4800  173.9860  138.6700 C   0  0  0  0  0  2  0  0  0  0  0  0
  196.1930  175.2860  136.4960 O   0  0  0  0  0  0  0  0  0  0  0  0
  198.5410  173.5310  137.6820 O   0  0  0  0  0  1  0  0  0  0  0  0
  195.0540  174.9830  137.2040 N   0  0  0  0  0  0  0  0  0  0  0  0
  188.8050  176.9210  145.5840 N   0  0  0  0  0  2  0  0  0  0  0  0
  189.7990  177.7180  146.2900 C   0  0  0  0  0  2  0  0  0  0  0  0
  191.0370  176.9110  146.4750 C   0  0  0  0  0  0  0  0  0  0  0  0
  191.6600  176.8420  147.7550 N   0  0  0  0  0  1  0  0  0  0  0  0
  191.5570  176.3250  145.4900 O   0  0  0  0  0  0  0  0  0  0  0  0
  1 24  1  6  0  0  0
  1 43  1  0  0  0  0
  2  7  1  0  0  0  0
  3  6  2  0  0  0  0
  5  3  1  0  0  0  0
  5  2  2  0  0  0  0
  6  1  1  0  0  0  0
  6  4  1  0  0  0  0
  7  4  2  0  0  0  0
  8  2  1  0  0  0  0
  9  8  2  0  0  0  0
 10  9  1  0  0  0  0
 10 11  2  0  0  0  0
 12 10  1  0  0  0  0
 13 20  1  1  0  0  0
 13 14  1  0  0  0  0
 14 17  1  0  0  0  0
 15 18  1  6  0  0  0
 15 13  1  0  0  0  0
 15 16  1  0  0  0  0
 16 17  1  0  0  0  0
 17 12  1  1  0  0  0
 19 20  2  0  0  0  0
 20 21  2  0  0  0  0
 22 23  1  0  0  0  0
 23 20  1  0  0  0  0
 25 24  1  0  0  0  0
 26 30  1  0  0  0  0
 27 28  1  0  0  0  0
 27 29  1  0  0  0  0
 28 36  1  6  0  0  0
 28 26  1  0  0  0  0
 29 30  1  0  0  0  0
 30 25  1  0  0  0  0
 31 33  1  0  0  0  0
 32 34  1  0  0  0  0
 32 31  2  0  0  0  0
 33 36  2  0  0  0  0
 34 35  2  0  0  0  0
 35 36  1  0  0  0  0
 37 41  1  6  0  0  0
 37 39  1  0  0  0  0
 38 42  1  0  0  0  0
 38 37  1  0  0  0  0
 38 39  1  6  0  0  0
 40 38  1  0  0  0  0
 40 42  1  0  0  0  0
 42 31  1  0  0  0  0
 43 44  1  0  0  0  0
 44 45  1  0  0  0  0
 45 46  1  0  0  0  0
 47 45  2  0  0  0  0
M  END
>  <MODEL>
6

>  <REMARK>
 VINA RESULT:      -7.9      4.159     10.281
  Name = 
  14 active torsions:
  status: ('A' for Active; 'I' for Inactive)
    1  A    between atoms: C_1  and  C_15
    2  A    between atoms: C_1  and  C_45
    3  A    between atoms: C_4  and  C_5
    4  A    between atoms: C_6  and  S_17
    5  A    between atoms: C_7  and  C_13
    6  A    between atoms: C_7  and  N_30
    7  A    between atoms: C_14  and  N_36
    8  A    between atoms: C_15  and  N_32
    9  A    between atoms: S_17  and  C_42
   10  A    between atoms: C_20  and  C_45
   11  A    between atoms: C_22  and  C_44
   12  A    between atoms: C_27  and  N_41
   13  A    between atoms: N_30  and  C_45
   14  A    between atoms: N_35  and  C_38
                            x       y       z     vdW  Elec       q    Type
                         _______ _______ _______ _____ _____    ______ ____

>  <TORSDO>
F 14

$$$$
=
 OpenBabel11032420573D

 47 52  0  0  1  0  0  0  0  0999 V2000
  179.7380  178.0560  140.1360 C   0  0  2  0  0  3  0  0  0  0  0  0
  182.9320  179.0140  142.8620 C   0  0  0  0  0  0  0  0  0  0  0  0
  180.5590  178.8670  142.3550 C   0  0  0  0  0  3  0  0  0  0  0  0
  182.2000  178.2420  140.6830 C   0  0  0  0  0  3  0  0  0  0  0  0
  181.5890  179.1750  143.2480 C   0  0  0  0  0  3  0  0  0  0  0  0
  180.8590  178.3950  141.0710 C   0  0  0  0  0  0  0  0  0  0  0  0
  183.2300  178.5450  141.5800 C   0  0  0  0  0  3  0  0  0  0  0  0
  184.0310  179.2820  143.7960 C   0  0  0  0  0  3  0  0  0  0  0  0
  184.5180  178.3540  144.5570 N   0  0  0  0  0  0  0  0  0  0  0  0
  185.6140  178.5930  145.4480 C   0  0  0  0  0  0  0  0  0  0  0  0
  185.4530  179.2830  146.4910 O   0  0  0  0  0  0  0  0  0  0  0  0
  186.9040  178.0520  145.1650 N   0  0  0  0  0  2  0  0  0  0  0  0
  189.2600  176.9370  142.8990 C   0  0  1  0  0  3  0  0  0  0  0  0
  188.5270  176.5680  144.1520 C   0  0  0  0  0  2  0  0  0  0  0  0
  188.4900  178.1200  142.3720 C   0  0  2  0  0  3  0  0  0  0  0  0
  187.1660  178.0390  142.8320 O   0  0  0  0  0  0  0  0  0  0  0  0
  187.1780  177.2370  143.9920 C   0  0  2  0  0  3  0  0  0  0  0  0
  188.5010  178.1100  140.9170 N   0  0  0  0  0  1  0  0  0  0  0  0
  191.7420  177.5030  141.9950 O   0  0  0  0  0  0  0  0  0  0  0  0
  190.9520  177.3840  143.2760 S   0  0  0  0  0  0  0  0  0  0  0  0
  190.9600  178.7180  143.9790 O   0  0  0  0  0  0  0  0  0  0  0  0
  191.7110  176.6400  145.7690 C   0  0  0  0  0  1  0  0  0  0  0  0
  191.7110  176.1550  144.3290 C   0  0  0  0  0  2  0  0  0  0  0  0
  180.2300  177.2200  138.9520 C   0  0  0  0  0  2  0  0  0  0  0  0
  179.8680  175.7500  139.1470 C   0  0  0  0  0  2  0  0  0  0  0  0
  181.5430  175.5540  137.6330 O   0  0  0  0  0  0  0  0  0  0  0  0
  181.2320  173.3040  136.9760 C   0  0  0  0  0  2  0  0  0  0  0  0
  182.0220  174.5640  136.7550 C   0  0  2  0  0  3  0  0  0  0  0  0
  180.3490  173.6940  138.1130 C   0  0  0  0  0  2  0  0  0  0  0  0
  180.9470  174.8960  138.6670 N   0  0  0  0  0  0  0  0  0  0  0  0
  185.7900  175.0980  136.9150 C   0  0  0  0  0  0  0  0  0  0  0  0
  186.2260  173.8290  137.3140 C   0  0  0  0  0  3  0  0  0  0  0  0
  184.4270  175.3440  136.7370 C   0  0  0  0  0  3  0  0  0  0  0  0
  185.2960  172.8100  137.5400 C   0  0  0  0  0  3  0  0  0  0  0  0
  183.9300  173.0580  137.3610 C   0  0  0  0  0  3  0  0  0  0  0  0
  183.4910  174.3240  136.9590 C   0  0  0  0  0  0  0  0  0  0  0  0
  187.6860  178.6300  136.8220 C   0  0  1  0  0  3  0  0  0  0  0  0
  187.6610  177.1590  137.2870 C   0  0  2  0  0  0  0  0  0  0  0  0
  186.5910  178.2030  137.6740 C   0  0  0  0  0  2  0  0  0  0  0  0
  187.8490  176.6540  136.0870 O   0  0  0  0  0  0  0  0  0  0  0  0
  188.6290  179.3300  137.5810 O   0  0  0  0  0  1  0  0  0  0  0  0
  186.7280  176.1490  136.7040 N   0  0  0  0  0  0  0  0  0  0  0  0
  179.1110  179.2780  139.6560 N   0  0  0  0  0  2  0  0  0  0  0  0
  179.5190  179.4500  138.2700 C   0  0  0  0  0  2  0  0  0  0  0  0
  180.0090  180.8420  138.0690 C   0  0  0  0  0  0  0  0  0  0  0  0
  181.1280  181.3190  138.8110 N   0  0  0  0  0  1  0  0  0  0  0  0
  179.4080  181.6110  137.2760 O   0  0  0  0  0  0  0  0  0  0  0  0
  1 24  1  6  0  0  0
  1  6  1  0  0  0  0
  2  5  1  0  0  0  0
  2  8  1  0  0  0  0
  3  5  2  0  0  0  0
  4  6  2  0  0  0  0
  4  7  1  0  0  0  0
  6  3  1  0  0  0  0
  7  2  2  0  0  0  0
  8  9  2  0  0  0  0
  9 10  1  0  0  0  0
 10 11  2  0  0  0  0
 12 10  1  0  0  0  0
 13 20  1  1  0  0  0
 13 14  1  0  0  0  0
 15 18  1  6  0  0  0
 15 16  1  0  0  0  0
 15 13  1  0  0  0  0
 16 17  1  0  0  0  0
 17 14  1  0  0  0  0
 17 12  1  1  0  0  0
 19 20  2  0  0  0  0
 20 21  2  0  0  0  0
 20 23  1  0  0  0  0
 23 22  1  0  0  0  0
 24 25  1  0  0  0  0
 26 30  1  0  0  0  0
 27 29  1  0  0  0  0
 28 36  1  1  0  0  0
 28 27  1  0  0  0  0
 28 26  1  0  0  0  0
 29 30  1  0  0  0  0
 30 25  1  0  0  0  0
 31 32  1  0  0  0  0
 32 34  2  0  0  0  0
 33 31  2  0  0  0  0
 33 36  1  0  0  0  0
 35 34  1  0  0  0  0
 36 35  2  0  0  0  0
 37 38  1  0  0  0  0
 37 41  1  1  0  0  0
 37 39  1  0  0  0  0
 38 39  1  1  0  0  0
 40 42  1  0  0  0  0
 40 38  1  0  0  0  0
 42 31  1  0  0  0  0
 42 38  1  0  0  0  0
 43  1  1  0  0  0  0
 44 43  1  0  0  0  0
 45 44  1  0  0  0  0
 45 46  1  0  0  0  0
 47 45  2  0  0  0  0
M  END
>  <MODEL>
7

>  <REMARK>
 VINA RESULT:      -7.7      3.868      9.301
  Name = 
  14 active torsions:
  status: ('A' for Active; 'I' for Inactive)
    1  A    between atoms: C_1  and  C_15
    2  A    between atoms: C_1  and  C_45
    3  A    between atoms: C_4  and  C_5
    4  A    between atoms: C_6  and  S_17
    5  A    between atoms: C_7  and  C_13
    6  A    between atoms: C_7  and  N_30
    7  A    between atoms: C_14  and  N_36
    8  A    between atoms: C_15  and  N_32
    9  A    between atoms: S_17  and  C_42
   10  A    between atoms: C_20  and  C_45
   11  A    between atoms: C_22  and  C_44
   12  A    between atoms: C_27  and  N_41
   13  A    between atoms: N_30  and  C_45
   14  A    between atoms: N_35  and  C_38
                            x       y       z     vdW  Elec       q    Type
                         _______ _______ _______ _____ _____    ______ ____

>  <TORSDO>
F 14

$$$$
=
 OpenBabel11032420573D

 47 52  0  0  1  0  0  0  0  0999 V2000
  187.9390  177.5450  144.6110 C   0  0  2  0  0  3  0  0  0  0  0  0
  183.8280  178.7070  144.0620 C   0  0  0  0  0  0  0  0  0  0  0  0
  185.9480  177.9450  143.1500 C   0  0  0  0  0  3  0  0  0  0  0  0
  185.7280  178.3620  145.5280 C   0  0  0  0  0  3  0  0  0  0  0  0
  184.6130  178.3140  142.9640 C   0  0  0  0  0  3  0  0  0  0  0  0
  186.5100  177.9620  144.4320 C   0  0  0  0  0  0  0  0  0  0  0  0
  184.3910  178.7250  145.3420 C   0  0  0  0  0  3  0  0  0  0  0  0
  182.4110  179.0530  143.9030 C   0  0  0  0  0  3  0  0  0  0  0  0
  181.8730  179.1920  142.7330 N   0  0  0  0  0  0  0  0  0  0  0  0
  180.4840  179.4950  142.5620 C   0  0  0  0  0  0  0  0  0  0  0  0
  179.9800  180.5180  143.1010 O   0  0  0  0  0  0  0  0  0  0  0  0
  179.6510  178.6410  141.7790 N   0  0  0  0  0  2  0  0  0  0  0  0
  181.2490  177.3190  139.0170 C   0  0  1  0  0  3  0  0  0  0  0  0
  181.4630  177.7650  140.4300 C   0  0  0  0  0  2  0  0  0  0  0  0
  179.7500  177.2310  138.8940 C   0  0  2  0  0  3  0  0  0  0  0  0
  179.2050  176.9950  140.1660 O   0  0  0  0  0  0  0  0  0  0  0  0
  180.1490  177.4480  141.1120 C   0  0  2  0  0  3  0  0  0  0  0  0
  179.3900  176.1400  138.0000 N   0  0  0  0  0  1  0  0  0  0  0  0
  183.1540  177.9600  137.2120 O   0  0  0  0  0  0  0  0  0  0  0  0
  181.9210  178.5230  137.8750 S   0  0  0  0  0  0  0  0  0  0  0  0
  180.8900  178.8200  136.8150 O   0  0  0  0  0  0  0  0  0  0  0  0
  181.5680  181.1980  138.1300 C   0  0  0  0  0  1  0  0  0  0  0  0
  182.3440  180.0360  138.7270 C   0  0  0  0  0  2  0  0  0  0  0  0
  188.3890  176.5950  143.4990 C   0  0  0  0  0  2  0  0  0  0  0  0
  189.5780  177.1810  142.7420 C   0  0  0  0  0  2  0  0  0  0  0  0
  190.7140  177.0610  140.7850 O   0  0  0  0  0  0  0  0  0  0  0  0
  189.1370  178.0710  139.3400 C   0  0  0  0  0  2  0  0  0  0  0  0
  190.5130  177.4720  139.4540 C   0  0  2  0  0  3  0  0  0  0  0  0
  188.5990  177.8580  140.7150 C   0  0  0  0  0  2  0  0  0  0  0  0
  189.4750  176.8730  141.3220 N   0  0  0  0  0  0  0  0  0  0  0  0
  192.0930  174.7330  137.3310 C   0  0  0  0  0  0  0  0  0  0  0  0
  190.9660  174.2060  136.6880 C   0  0  0  0  0  3  0  0  0  0  0  0
  191.9510  175.7890  138.2340 C   0  0  0  0  0  3  0  0  0  0  0  0
  189.7000  174.7340  136.9530 C   0  0  0  0  0  3  0  0  0  0  0  0
  189.5590  175.7930  137.8580 C   0  0  0  0  0  3  0  0  0  0  0  0
  190.6820  176.3240  138.5000 C   0  0  0  0  0  0  0  0  0  0  0  0
  195.9860  173.7850  137.4850 C   0  0  1  0  0  3  0  0  0  0  0  0
  194.5130  173.3270  137.5480 C   0  0  2  0  0  0  0  0  0  0  0  0
  195.1410  174.3480  138.5220 C   0  0  0  0  0  2  0  0  0  0  0  0
  194.2740  173.5250  136.2700 O   0  0  0  0  0  0  0  0  0  0  0  0
  196.7960  172.7840  138.0280 O   0  0  0  0  0  1  0  0  0  0  0  0
  193.3840  174.1870  137.0840 N   0  0  0  0  0  0  0  0  0  0  0  0
  188.1070  176.9080  145.9080 N   0  0  0  0  0  2  0  0  0  0  0  0
  189.3020  177.4800  146.5110 C   0  0  0  0  0  2  0  0  0  0  0  0
  189.0160  177.8400  147.9280 C   0  0  0  0  0  0  0  0  0  0  0  0
  187.6720  177.8690  148.4000 N   0  0  0  0  0  1  0  0  0  0  0  0
  189.9590  178.1610  148.6960 O   0  0  0  0  0  0  0  0  0  0  0  0
  1 24  1  6  0  0  0
  1 43  1  0  0  0  0
  2  7  1  0  0  0  0
  3  6  2  0  0  0  0
  5  3  1  0  0  0  0
  5  2  2  0  0  0  0
  6  1  1  0  0  0  0
  6  4  1  0  0  0  0
  7  4  2  0  0  0  0
  8  2  1  0  0  0  0
  9  8  2  0  0  0  0
 10  9  1  0  0  0  0
 10 11  2  0  0  0  0
 12 10  1  0  0  0  0
 13 20  1  6  0  0  0
 13 14  1  0  0  0  0
 14 17  1  0  0  0  0
 15 18  1  6  0  0  0
 15 13  1  0  0  0  0
 15 16  1  0  0  0  0
 16 17  1  0  0  0  0
 17 12  1  6  0  0  0
 19 20  2  0  0  0  0
 20 23  1  0  0  0  0
 21 20  2  0  0  0  0
 22 23  1  0  0  0  0
 25 24  1  0  0  0  0
 26 30  1  0  0  0  0
 27 28  1  0  0  0  0
 27 29  1  0  0  0  0
 28 36  1  6  0  0  0
 28 26  1  0  0  0  0
 29 30  1  0  0  0  0
 30 25  1  0  0  0  0
 31 33  1  0  0  0  0
 32 34  1  0  0  0  0
 32 31  2  0  0  0  0
 33 36  2  0  0  0  0
 34 35  2  0  0  0  0
 35 36  1  0  0  0  0
 37 38  1  0  0  0  0
 37 41  1  1  0  0  0
 37 39  1  0  0  0  0
 38 39  1  1  0  0  0
 40 42  1  0  0  0  0
 40 38  1  0  0  0  0
 42 31  1  0  0  0  0
 42 38  1  0  0  0  0
 43 44  1  0  0  0  0
 44 45  1  0  0  0  0
 45 46  1  0  0  0  0
 45 47  2  0  0  0  0
M  END
>  <MODEL>
8

>  <REMARK>
 VINA RESULT:      -7.6      3.585      9.558
  Name = 
  14 active torsions:
  status: ('A' for Active; 'I' for Inactive)
    1  A    between atoms: C_1  and  C_15
    2  A    between atoms: C_1  and  C_45
    3  A    between atoms: C_4  and  C_5
    4  A    between atoms: C_6  and  S_17
    5  A    between atoms: C_7  and  C_13
    6  A    between atoms: C_7  and  N_30
    7  A    between atoms: C_14  and  N_36
    8  A    between atoms: C_15  and  N_32
    9  A    between atoms: S_17  and  C_42
   10  A    between atoms: C_20  and  C_45
   11  A    between atoms: C_22  and  C_44
   12  A    between atoms: C_27  and  N_41
   13  A    between atoms: N_30  and  C_45
   14  A    between atoms: N_35  and  C_38
                            x       y       z     vdW  Elec       q    Type
                         _______ _______ _______ _____ _____    ______ ____

>  <TORSDO>
F 14

$$$$
=
 OpenBabel11032420573D

 47 52  0  0  1  0  0  0  0  0999 V2000
  190.9320  176.8730  139.8470 C   0  0  2  0  0  3  0  0  0  0  0  0
  187.0920  177.6590  138.0620 C   0  0  0  0  0  0  0  0  0  0  0  0
  188.6610  177.9210  139.8990 C   0  0  0  0  0  3  0  0  0  0  0  0
  189.2690  176.5970  137.9610 C   0  0  0  0  0  3  0  0  0  0  0  0
  187.4150  178.1870  139.3250 C   0  0  0  0  0  3  0  0  0  0  0  0
  189.5950  177.1300  139.2190 C   0  0  0  0  0  0  0  0  0  0  0  0
  188.0240  176.8670  137.3850 C   0  0  0  0  0  3  0  0  0  0  0  0
  185.8110  177.9610  137.4140 C   0  0  0  0  0  3  0  0  0  0  0  0
  185.0720  177.0290  136.9010 N   0  0  0  0  0  0  0  0  0  0  0  0
  183.8030  177.3050  136.2960 C   0  0  0  0  0  0  0  0  0  0  0  0
  183.6420  177.1630  135.0540 O   0  0  0  0  0  0  0  0  0  0  0  0
  182.7050  177.7450  137.0940 N   0  0  0  0  0  2  0  0  0  0  0  0
  181.2290  177.2460  140.1760 C   0  0  1  0  0  3  0  0  0  0  0  0
  182.2510  176.6970  139.2290 C   0  0  0  0  0  2  0  0  0  0  0  0
  180.9450  178.6230  139.6340 C   0  0  2  0  0  3  0  0  0  0  0  0
  182.0710  179.0700  138.9250 O   0  0  0  0  0  0  0  0  0  0  0  0
  182.7970  177.9260  138.5340 C   0  0  2  0  0  3  0  0  0  0  0  0
  180.6650  179.5380  140.7300 N   0  0  0  0  0  1  0  0  0  0  0  0
  178.9330  176.5100  141.3940 O   0  0  0  0  0  0  0  0  0  0  0  0
  179.7550  176.2290  140.1610 S   0  0  0  0  0  0  0  0  0  0  0  0
  178.9370  176.5740  138.9410 O   0  0  0  0  0  0  0  0  0  0  0  0
  179.4500  173.7540  141.2210 C   0  0  0  0  0  1  0  0  0  0  0  0
  180.1830  174.4950  140.1150 C   0  0  0  0  0  2  0  0  0  0  0  0
  191.1210  177.7000  141.1200 C   0  0  0  0  0  2  0  0  0  0  0  0
  191.9780  176.9400  142.1300 C   0  0  0  0  0  2  0  0  0  0  0  0
  191.2710  177.7740  144.1150 O   0  0  0  0  0  0  0  0  0  0  0  0
  191.6580  175.8970  145.5020 C   0  0  0  0  0  2  0  0  0  0  0  0
  191.2040  177.3310  145.4490 C   0  0  2  0  0  3  0  0  0  0  0  0
  191.8880  175.5990  144.0580 C   0  0  0  0  0  2  0  0  0  0  0  0
  191.2090  176.6580  143.3350 N   0  0  0  0  0  0  0  0  0  0  0  0
  187.4480  177.9120  145.6870 C   0  0  0  0  0  0  0  0  0  0  0  0
  187.2410  177.7810  147.0660 C   0  0  0  0  0  3  0  0  0  0  0  0
  188.7310  177.7610  145.1570 C   0  0  0  0  0  3  0  0  0  0  0  0
  188.3180  177.4950  147.9090 C   0  0  0  0  0  3  0  0  0  0  0  0
  189.6030  177.3440  147.3760 C   0  0  0  0  0  3  0  0  0  0  0  0
  189.8140  177.4770  146.0000 C   0  0  0  0  0  0  0  0  0  0  0  0
  183.8080  178.5710  144.1390 C   0  0  1  0  0  3  0  0  0  0  0  0
  185.2350  179.0870  144.4190 C   0  0  2  0  0  0  0  0  0  0  0  0
  184.2430  178.6590  145.5210 C   0  0  0  0  0  2  0  0  0  0  0  0
  185.8200  178.2880  143.5540 O   0  0  0  0  0  0  0  0  0  0  0  0
  182.9840  179.6590  143.8340 O   0  0  0  0  0  1  0  0  0  0  0  0
  186.3530  178.1810  144.8170 N   0  0  0  0  0  0  0  0  0  0  0  0
  191.9890  177.1760  138.8940 N   0  0  0  0  0  2  0  0  0  0  0  0
  192.6880  175.9290  138.6230 C   0  0  0  0  0  2  0  0  0  0  0  0
  193.1190  175.9050  137.1980 C   0  0  0  0  0  0  0  0  0  0  0  0
  194.1430  176.7880  136.7460 N   0  0  0  0  0  1  0  0  0  0  0  0
  192.5490  175.1350  136.3830 O   0  0  0  0  0  0  0  0  0  0  0  0
  1 24  1  1  0  0  0
  2  5  1  0  0  0  0
  4  6  2  0  0  0  0
  5  3  2  0  0  0  0
  6  1  1  0  0  0  0
  6  3  1  0  0  0  0
  7  4  1  0  0  0  0
  7  2  2  0  0  0  0
  8  2  1  0  0  0  0
  9  8  2  0  0  0  0
 10  9  1  0  0  0  0
 10 12  1  0  0  0  0
 11 10  2  0  0  0  0
 13 20  1  6  0  0  0
 14 13  1  0  0  0  0
 15 13  1  0  0  0  0
 15 18  1  1  0  0  0
 16 15  1  0  0  0  0
 17 12  1  6  0  0  0
 17 16  1  0  0  0  0
 17 14  1  0  0  0  0
 20 19  2  0  0  0  0
 21 20  2  0  0  0  0
 23 20  1  0  0  0  0
 23 22  1  0  0  0  0
 24 25  1  0  0  0  0
 25 30  1  0  0  0  0
 26 28  1  0  0  0  0
 28 27  1  0  0  0  0
 28 36  1  6  0  0  0
 29 27  1  0  0  0  0
 30 29  1  0  0  0  0
 30 26  1  0  0  0  0
 31 32  1  0  0  0  0
 32 34  2  0  0  0  0
 33 31  2  0  0  0  0
 33 36  1  0  0  0  0
 35 34  1  0  0  0  0
 36 35  2  0  0  0  0
 37 41  1  1  0  0  0
 37 38  1  0  0  0  0
 37 39  1  0  0  0  0
 38 42  1  0  0  0  0
 38 39  1  6  0  0  0
 40 38  1  0  0  0  0
 40 42  1  0  0  0  0
 42 31  1  0  0  0  0
 43  1  1  0  0  0  0
 44 43  1  0  0  0  0
 45 44  1  0  0  0  0
 46 45  1  0  0  0  0
 47 45  2  0  0  0  0
M  END
>  <MODEL>
9

>  <REMARK>
 VINA RESULT:      -7.5      3.705      9.053
  Name = 
  14 active torsions:
  status: ('A' for Active; 'I' for Inactive)
    1  A    between atoms: C_1  and  C_15
    2  A    between atoms: C_1  and  C_45
    3  A    between atoms: C_4  and  C_5
    4  A    between atoms: C_6  and  S_17
    5  A    between atoms: C_7  and  C_13
    6  A    between atoms: C_7  and  N_30
    7  A    between atoms: C_14  and  N_36
    8  A    between atoms: C_15  and  N_32
    9  A    between atoms: S_17  and  C_42
   10  A    between atoms: C_20  and  C_45
   11  A    between atoms: C_22  and  C_44
   12  A    between atoms: C_27  and  N_41
   13  A    between atoms: N_30  and  C_45
   14  A    between atoms: N_35  and  C_38
                            x       y       z     vdW  Elec       q    Type
                         _______ _______ _______ _____ _____    ______ ____

>  <TORSDO>
F 14

$$$$
