=
 OpenBabel11042410493D

 31 36  0  0  1  0  0  0  0  0999 V2000
  187.5160  178.0230  136.5290 C   0  0  0  0  0  0  0  0  0  0  0  0
  190.2740  175.9470  137.1330 N   0  0  0  0  0  0  0  0  0  0  0  0
  192.1740  177.3760  140.2180 C   0  0  2  0  0  3  0  0  0  0  0  0
  189.0300  176.0490  136.7360 C   0  0  0  0  0  0  0  0  0  0  0  0
  186.3270  176.2270  135.3420 C   0  0  0  0  0  2  0  0  0  0  0  0
  191.3410  177.0620  141.2660 C   0  0  1  0  0  3  0  0  0  0  0  0
  188.0330  176.9640  137.4630 C   0  0  1  0  0  3  0  0  0  0  0  0
  191.3260  178.1040  142.3950 C   0  0  0  0  0  2  0  0  0  0  0  0
  186.2820  178.6040  134.5940 O   0  0  0  0  0  1  0  0  0  0  0  0
  190.7670  177.7270  140.0610 N   0  0  2  0  0  0  0  0  0  0  0  0
  192.1560  176.4340  138.9610 C   0  0  0  0  0  2  0  0  0  0  0  0
  188.6320  175.3120  135.5660 N   0  0  0  0  0  0  0  0  0  0  0  0
  186.7270  177.6610  135.5120 C   0  0  0  0  0  0  0  0  0  0  0  0
  188.5490  177.5070  138.7740 C   0  0  0  0  0  0  0  0  0  0  0  0
  190.0130  177.4950  138.9340 C   0  0  2  0  0  3  0  0  0  0  0  0
  190.7930  176.6930  138.2420 C   0  0  2  0  0  3  0  0  0  0  0  0
  188.2050  178.1350  141.0810 C   0  0  0  0  0  0  0  0  0  0  0  0
  187.4910  175.3690  134.9350 C   0  0  0  0  0  3  0  0  0  0  0  0
  187.9550  179.3760  136.6490 N   0  0  0  0  0  1  0  0  0  0  0  0
  187.6970  177.8330  139.7650 C   0  0  0  0  0  3  0  0  0  0  0  0
  189.9430  178.2420  143.0860 C   0  0  1  0  0  3  0  0  0  0  0  0
  188.8760  178.2560  142.0750 C   0  0  0  0  0  0  0  0  0  0  0  0
  189.7260  177.1250  143.9980 N   0  0  0  0  0  2  0  0  0  0  0  0
  186.1520  178.6420  146.8230 C   0  0  0  0  0  1  0  0  0  0  0  0
  187.8870  177.4820  145.5110 C   0  0  0  0  0  3  0  0  0  0  0  0
  187.7230  177.8290  149.2140 O   0  0  0  0  0  1  0  0  0  0  0  0
  190.1680  177.2650  146.4720 C   0  0  0  0  0  2  0  0  0  0  0  0
  189.4920  177.0530  147.8250 C   0  0  0  0  0  2  0  0  0  0  0  0
  189.1970  177.2580  145.3210 C   0  0  0  0  0  0  0  0  0  0  0  0
  188.2880  177.9780  147.9470 C   0  0  1  0  0  3  0  0  0  0  0  0
  187.2630  177.6110  146.8730 C   0  0  1  0  0  3  0  0  0  0  0  0
  1 19  1  0  0  0  0
  2 16  1  0  0  0  0
  3 11  1  6  0  0  0
  3  6  1  0  0  0  0
  4  2  2  0  0  0  0
  4  7  1  0  0  0  0
  5 13  1  0  0  0  0
  6  8  1  1  0  0  0
  7  1  1  6  0  0  0
  7 14  1  0  0  0  0
  8 21  1  0  0  0  0
  9 13  1  0  0  0  0
 10  3  1  0  0  0  0
 10  6  1  0  0  0  0
 12  4  1  0  0  0  0
 13  1  2  0  0  0  0
 14 15  1  0  0  0  0
 14 20  2  0  0  0  0
 15 10  1  0  0  0  0
 16 15  1  0  0  0  0
 16 11  1  0  0  0  0
 17 22  3  0  0  0  0
 18  5  1  0  0  0  0
 18 12  2  0  0  0  0
 20 17  1  0  0  0  0
 21 23  1  0  0  0  0
 22 21  1  0  0  0  0
 23 29  1  0  0  0  0
 24 31  1  0  0  0  0
 25 31  1  0  0  0  0
 27 28  1  0  0  0  0
 28 30  1  0  0  0  0
 29 25  2  0  0  0  0
 29 27  1  0  0  0  0
 30 26  1  0  0  0  0
 31 30  1  0  0  0  0
M  END
>  <MODEL>
1

>  <REMARK>
 VINA RESULT:      -9.1      0.000      0.000
  Name = 
  2 active torsions:
  status: ('A' for Active; 'I' for Inactive)
    1  A    between atoms: N_6  and  C_19
    2  A    between atoms: N_6  and  C_30
                            x       y       z     vdW  Elec       q    Type
                         _______ _______ _______ _____ _____    ______ ____

>  <TORSDO>
F 2

$$$$
=
 OpenBabel11042410493D

 31 36  0  0  1  0  0  0  0  0999 V2000
  182.3330  179.8000  138.9320 C   0  0  0  0  0  0  0  0  0  0  0  0
  184.0220  177.3120  137.1340 N   0  0  0  0  0  0  0  0  0  0  0  0
  187.8340  177.7580  137.7960 C   0  0  2  0  0  3  0  0  0  0  0  0
  182.9590  177.6560  137.8180 C   0  0  0  0  0  0  0  0  0  0  0  0
  180.2570  178.4810  138.9560 C   0  0  0  0  0  2  0  0  0  0  0  0
  187.9750  177.3230  139.0920 C   0  0  1  0  0  3  0  0  0  0  0  0
  183.0730  178.5010  139.0960 C   0  0  1  0  0  3  0  0  0  0  0  0
  189.0440  178.0770  139.8990 C   0  0  0  0  0  2  0  0  0  0  0  0
  180.2870  180.9520  138.6290 O   0  0  0  0  0  1  0  0  0  0  0  0
  186.9020  178.3090  138.7740 N   0  0  2  0  0  0  0  0  0  0  0  0
  186.6770  177.1330  136.9360 C   0  0  0  0  0  2  0  0  0  0  0  0
  181.6720  177.2570  137.3130 N   0  0  0  0  0  0  0  0  0  0  0  0
  180.9990  179.7780  138.8420 C   0  0  0  0  0  0  0  0  0  0  0  0
  184.4890  178.6650  139.5940 C   0  0  0  0  0  0  0  0  0  0  0  0
  185.5450  178.4340  138.5930 C   0  0  2  0  0  3  0  0  0  0  0  0
  185.3450  177.7170  137.5080 C   0  0  2  0  0  3  0  0  0  0  0  0
  186.0910  178.7960  141.3960 C   0  0  0  0  0  0  0  0  0  0  0  0
  180.4960  177.5980  137.7640 C   0  0  0  0  0  3  0  0  0  0  0  0
  183.0430  181.0250  138.7530 N   0  0  0  0  0  1  0  0  0  0  0  0
  184.7380  178.8640  140.9010 C   0  0  0  0  0  3  0  0  0  0  0  0
  188.6860  178.2290  141.4020 C   0  0  1  0  0  3  0  0  0  0  0  0
  187.2720  178.6040  141.5470 C   0  0  0  0  0  0  0  0  0  0  0  0
  188.9230  176.9710  142.1010 N   0  0  0  0  0  2  0  0  0  0  0  0
  189.1640  177.9210  146.8020 C   0  0  0  0  0  1  0  0  0  0  0  0
  189.0350  177.0320  144.5060 C   0  0  0  0  0  3  0  0  0  0  0  0
  191.8750  176.7020  146.8890 O   0  0  0  0  0  1  0  0  0  0  0  0
  191.1440  176.6650  143.2450 C   0  0  0  0  0  2  0  0  0  0  0  0
  191.7600  176.2060  144.5650 C   0  0  0  0  0  2  0  0  0  0  0  0
  189.6530  176.8580  143.3270 C   0  0  0  0  0  0  0  0  0  0  0  0
  191.2510  177.0830  145.7010 C   0  0  1  0  0  3  0  0  0  0  0  0
  189.7370  176.9070  145.8300 C   0  0  1  0  0  3  0  0  0  0  0  0
  1  7  1  0  0  0  0
  2 16  1  0  0  0  0
  2  4  2  0  0  0  0
  3 11  1  6  0  0  0
  3 10  1  0  0  0  0
  3  6  1  0  0  0  0
  6  8  1  1  0  0  0
  7  4  1  6  0  0  0
  7 14  1  0  0  0  0
  8 21  1  0  0  0  0
  9 13  1  0  0  0  0
 10  6  1  0  0  0  0
 11 16  1  0  0  0  0
 12 18  2  0  0  0  0
 12  4  1  0  0  0  0
 13  1  2  0  0  0  0
 13  5  1  0  0  0  0
 14 20  2  0  0  0  0
 15 10  1  0  0  0  0
 15 14  1  0  0  0  0
 16 15  1  0  0  0  0
 17 22  3  0  0  0  0
 18  5  1  0  0  0  0
 19  1  1  0  0  0  0
 20 17  1  0  0  0  0
 21 22  1  0  0  0  0
 21 23  1  0  0  0  0
 23 29  1  0  0  0  0
 25 31  1  0  0  0  0
 27 29  1  0  0  0  0
 27 28  1  0  0  0  0
 28 30  1  0  0  0  0
 29 25  2  0  0  0  0
 30 31  1  0  0  0  0
 30 26  1  0  0  0  0
 31 24  1  0  0  0  0
M  END
>  <MODEL>
2

>  <REMARK>
 VINA RESULT:      -8.9      3.896      4.918
  Name = 
  2 active torsions:
  status: ('A' for Active; 'I' for Inactive)
    1  A    between atoms: N_6  and  C_19
    2  A    between atoms: N_6  and  C_30
                            x       y       z     vdW  Elec       q    Type
                         _______ _______ _______ _____ _____    ______ ____

>  <TORSDO>
F 2

$$$$
=
 OpenBabel11042410493D

 31 36  0  0  1  0  0  0  0  0999 V2000
  180.6050  180.2230  136.9220 C   0  0  0  0  0  0  0  0  0  0  0  0
  179.2370  181.8380  139.7150 N   0  0  0  0  0  0  0  0  0  0  0  0
  179.8720  179.5710  142.8180 C   0  0  2  0  0  3  0  0  0  0  0  0
  179.8460  181.9470  138.5600 C   0  0  0  0  0  0  0  0  0  0  0  0
  180.8060  182.3460  135.6970 C   0  0  0  0  0  2  0  0  0  0  0  0
  181.2230  179.7150  143.0340 C   0  0  1  0  0  3  0  0  0  0  0  0
  180.9780  180.9880  138.1620 C   0  0  1  0  0  3  0  0  0  0  0  0
  181.9160  178.4490  143.5600 C   0  0  0  0  0  2  0  0  0  0  0  0
  180.0980  180.2180  134.6090 O   0  0  0  0  0  1  0  0  0  0  0  0
  180.7410  179.4000  141.6580 N   0  0  2  0  0  0  0  0  0  0  0  0
  179.1050  180.7730  142.1580 C   0  0  0  0  0  2  0  0  0  0  0  0
  179.3920  182.9660  137.6510 N   0  0  0  0  0  0  0  0  0  0  0  0
  180.5020  180.8800  135.7620 C   0  0  0  0  0  0  0  0  0  0  0  0
  181.4630  180.1150  139.2940 C   0  0  0  0  0  0  0  0  0  0  0  0
  180.5240  179.9520  140.4170 C   0  0  2  0  0  3  0  0  0  0  0  0
  179.5610  180.8140  140.6640 C   0  0  2  0  0  3  0  0  0  0  0  0
  183.2440  179.0110  140.4960 C   0  0  0  0  0  0  0  0  0  0  0  0
  179.7690  183.1610  136.4170 C   0  0  0  0  0  3  0  0  0  0  0  0
  180.2460  178.8440  136.9980 N   0  0  0  0  0  1  0  0  0  0  0  0
  182.7270  179.6520  139.3110 C   0  0  0  0  0  3  0  0  0  0  0  0
  183.3720  178.2870  143.0470 C   0  0  1  0  0  3  0  0  0  0  0  0
  183.4380  178.6040  141.6140 C   0  0  0  0  0  0  0  0  0  0  0  0
  184.2620  179.1820  143.7790 N   0  0  0  0  0  2  0  0  0  0  0  0
  188.3650  176.7530  144.3430 C   0  0  0  0  0  1  0  0  0  0  0  0
  186.4820  178.3340  144.1680 C   0  0  0  0  0  3  0  0  0  0  0  0
  188.2510  177.2770  147.2680 O   0  0  0  0  0  1  0  0  0  0  0  0
  184.9820  178.6290  146.1270 C   0  0  0  0  0  2  0  0  0  0  0  0
  186.2290  178.5020  146.9990 C   0  0  0  0  0  2  0  0  0  0  0  0
  185.3000  178.7410  144.6590 C   0  0  0  0  0  0  0  0  0  0  0  0
  187.1510  177.4370  146.4230 C   0  0  1  0  0  3  0  0  0  0  0  0
  187.6220  177.8780  145.0360 C   0  0  1  0  0  3  0  0  0  0  0  0
  1 19  1  0  0  0  0
  2 16  1  0  0  0  0
  3 11  1  6  0  0  0
  3  6  1  0  0  0  0
  4  2  2  0  0  0  0
  5 13  1  0  0  0  0
  5 18  1  0  0  0  0
  6  8  1  1  0  0  0
  7  1  1  6  0  0  0
  7  4  1  0  0  0  0
  7 14  1  0  0  0  0
  9 13  1  0  0  0  0
 10  3  1  0  0  0  0
 10  6  1  0  0  0  0
 12  4  1  0  0  0  0
 13  1  2  0  0  0  0
 14 20  2  0  0  0  0
 14 15  1  0  0  0  0
 15 16  1  0  0  0  0
 15 10  1  0  0  0  0
 16 11  1  0  0  0  0
 17 22  3  0  0  0  0
 18 12  2  0  0  0  0
 20 17  1  0  0  0  0
 21  8  1  0  0  0  0
 21 23  1  0  0  0  0
 22 21  1  0  0  0  0
 23 29  1  0  0  0  0
 24 31  1  0  0  0  0
 25 29  2  0  0  0  0
 25 31  1  0  0  0  0
 27 28  1  0  0  0  0
 29 27  1  0  0  0  0
 30 28  1  0  0  0  0
 30 26  1  0  0  0  0
 31 30  1  0  0  0  0
M  END
>  <MODEL>
3

>  <REMARK>
 VINA RESULT:      -8.2      6.322      8.272
  Name = 
  2 active torsions:
  status: ('A' for Active; 'I' for Inactive)
    1  A    between atoms: N_6  and  C_19
    2  A    between atoms: N_6  and  C_30
                            x       y       z     vdW  Elec       q    Type
                         _______ _______ _______ _____ _____    ______ ____

>  <TORSDO>
F 2

$$$$
=
 OpenBabel11042410493D

 31 36  0  0  1  0  0  0  0  0999 V2000
  181.5530  178.6830  137.9650 C   0  0  0  0  0  0  0  0  0  0  0  0
  184.1010  176.6630  136.6590 N   0  0  0  0  0  0  0  0  0  0  0  0
  187.4910  177.9960  138.0400 C   0  0  2  0  0  3  0  0  0  0  0  0
  182.8710  176.7470  137.1020 C   0  0  0  0  0  0  0  0  0  0  0  0
  179.8780  176.9120  137.6420 C   0  0  0  0  0  2  0  0  0  0  0  0
  187.4610  177.6070  139.3580 C   0  0  1  0  0  3  0  0  0  0  0  0
  182.5250  177.5950  138.3350 C   0  0  1  0  0  3  0  0  0  0  0  0
  188.1390  178.5920  140.3220 C   0  0  0  0  0  2  0  0  0  0  0  0
  179.4030  179.3210  137.2080 O   0  0  0  0  0  1  0  0  0  0  0  0
  186.2780  178.3120  138.7860 N   0  0  2  0  0  0  0  0  0  0  0  0
  186.7080  177.1150  137.0000 C   0  0  0  0  0  2  0  0  0  0  0  0
  181.8420  176.0560  136.3730 N   0  0  0  0  0  0  0  0  0  0  0  0
  180.3080  178.3480  137.6150 C   0  0  0  0  0  0  0  0  0  0  0  0
  183.7330  178.0890  139.0950 C   0  0  0  0  0  0  0  0  0  0  0  0
  184.9940  178.1130  138.3350 C   0  0  2  0  0  3  0  0  0  0  0  0
  185.1910  177.3680  137.2680 C   0  0  2  0  0  3  0  0  0  0  0  0
  184.8600  178.5950  141.1700 C   0  0  0  0  0  0  0  0  0  0  0  0
  180.5520  176.1100  136.5660 C   0  0  0  0  0  3  0  0  0  0  0  0
  181.9830  180.0410  137.8710 N   0  0  0  0  0  1  0  0  0  0  0  0
  183.6570  178.3420  140.4150 C   0  0  0  0  0  3  0  0  0  0  0  0
  187.4580  178.6560  141.7160 C   0  0  1  0  0  3  0  0  0  0  0  0
  185.9970  178.6880  141.5600 C   0  0  0  0  0  0  0  0  0  0  0  0
  187.8310  177.4900  142.5080 N   0  0  0  0  0  2  0  0  0  0  0  0
  185.5400  178.4900  146.6070 C   0  0  0  0  0  1  0  0  0  0  0  0
  186.6840  177.5780  144.6240 C   0  0  0  0  0  3  0  0  0  0  0  0
  187.9060  177.5440  148.1390 O   0  0  0  0  0  1  0  0  0  0  0  0
  189.1620  177.4110  144.6440 C   0  0  0  0  0  2  0  0  0  0  0  0
  189.0450  177.0240  146.1160 C   0  0  0  0  0  2  0  0  0  0  0  0
  187.8320  177.4580  143.9390 C   0  0  0  0  0  0  0  0  0  0  0  0
  187.9550  177.8540  146.7790 C   0  0  1  0  0  3  0  0  0  0  0  0
  186.6100  177.5320  146.1250 C   0  0  1  0  0  3  0  0  0  0  0  0
  1  7  1  0  0  0  0
  2  4  2  0  0  0  0
  2 16  1  0  0  0  0
  3 11  1  6  0  0  0
  3 10  1  0  0  0  0
  3  6  1  0  0  0  0
  6  8  1  1  0  0  0
  7  4  1  6  0  0  0
  7 14  1  0  0  0  0
  8 21  1  0  0  0  0
  9 13  1  0  0  0  0
 10  6  1  0  0  0  0
 11 16  1  0  0  0  0
 12 18  2  0  0  0  0
 12  4  1  0  0  0  0
 13  5  1  0  0  0  0
 13  1  2  0  0  0  0
 14 20  2  0  0  0  0
 15 10  1  0  0  0  0
 15 14  1  0  0  0  0
 16 15  1  0  0  0  0
 17 22  3  0  0  0  0
 18  5  1  0  0  0  0
 19  1  1  0  0  0  0
 20 17  1  0  0  0  0
 21 23  1  0  0  0  0
 22 21  1  0  0  0  0
 23 29  1  0  0  0  0
 25 31  1  0  0  0  0
 27 28  1  0  0  0  0
 28 30  1  0  0  0  0
 29 25  2  0  0  0  0
 29 27  1  0  0  0  0
 30 26  1  0  0  0  0
 31 24  1  0  0  0  0
 31 30  1  0  0  0  0
M  END
>  <MODEL>
4

>  <REMARK>
 VINA RESULT:      -8.2      3.843      4.751
  Name = 
  2 active torsions:
  status: ('A' for Active; 'I' for Inactive)
    1  A    between atoms: N_6  and  C_19
    2  A    between atoms: N_6  and  C_30
                            x       y       z     vdW  Elec       q    Type
                         _______ _______ _______ _____ _____    ______ ____

>  <TORSDO>
F 2

$$$$
=
 OpenBabel11042410493D

 31 36  0  0  1  0  0  0  0  0999 V2000
  180.2610  180.4270  136.9000 C   0  0  0  0  0  0  0  0  0  0  0  0
  179.1790  182.1090  139.7780 N   0  0  0  0  0  0  0  0  0  0  0  0
  179.7160  179.7240  142.8110 C   0  0  2  0  0  3  0  0  0  0  0  0
  179.7460  182.1820  138.6000 C   0  0  0  0  0  0  0  0  0  0  0  0
  180.6200  182.5460  135.7040 C   0  0  0  0  0  2  0  0  0  0  0  0
  181.0820  179.7290  142.9690 C   0  0  1  0  0  3  0  0  0  0  0  0
  180.7600  181.1250  138.1360 C   0  0  1  0  0  3  0  0  0  0  0  0
  181.6670  178.3900  143.4430 C   0  0  0  0  0  2  0  0  0  0  0  0
  179.6600  180.5210  134.6120 O   0  0  0  0  0  1  0  0  0  0  0  0
  180.5130  179.4920  141.6110 N   0  0  2  0  0  0  0  0  0  0  0  0
  179.0450  181.0090  142.2060 C   0  0  0  0  0  2  0  0  0  0  0  0
  179.3580  183.2590  137.7290 N   0  0  0  0  0  0  0  0  0  0  0  0
  180.1750  181.1160  135.7580 C   0  0  0  0  0  0  0  0  0  0  0  0
  181.2030  180.1830  139.2300 C   0  0  0  0  0  0  0  0  0  0  0  0
  180.3010  180.0900  140.3910 C   0  0  2  0  0  3  0  0  0  0  0  0
  179.4400  181.0370  140.6950 C   0  0  2  0  0  3  0  0  0  0  0  0
  182.9150  178.8840  140.3330 C   0  0  0  0  0  0  0  0  0  0  0  0
  179.7010  183.4430  136.4830 C   0  0  0  0  0  3  0  0  0  0  0  0
  179.7710  179.0880  136.9680 N   0  0  0  0  0  1  0  0  0  0  0  0
  182.4150  179.5990  139.1840 C   0  0  0  0  0  3  0  0  0  0  0  0
  183.0780  178.0960  142.8640 C   0  0  1  0  0  3  0  0  0  0  0  0
  183.1140  178.4360  141.4340 C   0  0  0  0  0  0  0  0  0  0  0  0
  184.0810  178.8840  143.5710 N   0  0  0  0  0  2  0  0  0  0  0  0
  187.0600  178.3470  147.2980 C   0  0  0  0  0  1  0  0  0  0  0  0
  185.4960  178.2060  145.3980 C   0  0  0  0  0  3  0  0  0  0  0  0
  189.0020  176.9610  145.5230 O   0  0  0  0  0  1  0  0  0  0  0  0
  186.4200  178.0820  143.0950 C   0  0  0  0  0  2  0  0  0  0  0  0
  187.5260  177.2010  143.6720 C   0  0  0  0  0  2  0  0  0  0  0  0
  185.3100  178.3510  144.0770 C   0  0  0  0  0  0  0  0  0  0  0  0
  187.9420  177.7290  145.0380 C   0  0  1  0  0  3  0  0  0  0  0  0
  186.7530  177.6350  145.9950 C   0  0  1  0  0  3  0  0  0  0  0  0
  1 19  1  0  0  0  0
  2 16  1  0  0  0  0
  3 11  1  6  0  0  0
  3  6  1  0  0  0  0
  4  2  2  0  0  0  0
  5 13  1  0  0  0  0
  5 18  1  0  0  0  0
  6  8  1  1  0  0  0
  7  1  1  6  0  0  0
  7  4  1  0  0  0  0
  7 14  1  0  0  0  0
  9 13  1  0  0  0  0
 10  3  1  0  0  0  0
 10  6  1  0  0  0  0
 12  4  1  0  0  0  0
 13  1  2  0  0  0  0
 14 15  1  0  0  0  0
 15 16  1  0  0  0  0
 15 10  1  0  0  0  0
 16 11  1  0  0  0  0
 17 22  3  0  0  0  0
 18 12  2  0  0  0  0
 20 14  2  0  0  0  0
 20 17  1  0  0  0  0
 21  8  1  0  0  0  0
 21 23  1  0  0  0  0
 22 21  1  0  0  0  0
 23 29  1  0  0  0  0
 25 31  1  0  0  0  0
 27 28  1  0  0  0  0
 27 29  1  0  0  0  0
 28 30  1  0  0  0  0
 29 25  2  0  0  0  0
 30 26  1  0  0  0  0
 30 31  1  0  0  0  0
 31 24  1  0  0  0  0
M  END
>  <MODEL>
5

>  <REMARK>
 VINA RESULT:      -7.9      6.577      8.487
  Name = 
  2 active torsions:
  status: ('A' for Active; 'I' for Inactive)
    1  A    between atoms: N_6  and  C_19
    2  A    between atoms: N_6  and  C_30
                            x       y       z     vdW  Elec       q    Type
                         _______ _______ _______ _____ _____    ______ ____

>  <TORSDO>
F 2

$$$$
=
 OpenBabel11042410493D

 31 36  0  0  1  0  0  0  0  0999 V2000
  186.7940  177.0740  136.1250 C   0  0  0  0  0  0  0  0  0  0  0  0
  189.6140  174.9960  136.0600 N   0  0  0  0  0  0  0  0  0  0  0  0
  192.3290  176.6170  138.3360 C   0  0  2  0  0  3  0  0  0  0  0  0
  188.3090  175.0920  136.0360 C   0  0  0  0  0  0  0  0  0  0  0  0
  185.3160  175.2170  135.4820 C   0  0  0  0  0  2  0  0  0  0  0  0
  191.8390  176.4000  139.6020 C   0  0  1  0  0  3  0  0  0  0  0  0
  187.5650  176.0780  136.9490 C   0  0  1  0  0  3  0  0  0  0  0  0
  192.1510  177.5250  140.6010 C   0  0  0  0  0  2  0  0  0  0  0  0
  185.0470  177.5310  134.5940 O   0  0  0  0  0  1  0  0  0  0  0  0
  190.9350  176.9830  138.5690 N   0  0  2  0  0  0  0  0  0  0  0  0
  191.9460  175.5830  137.2170 C   0  0  0  0  0  2  0  0  0  0  0  0
  187.5890  174.2760  135.0950 N   0  0  0  0  0  0  0  0  0  0  0  0
  185.7440  176.6510  135.4140 C   0  0  0  0  0  0  0  0  0  0  0  0
  188.4390  176.7090  138.0060 C   0  0  0  0  0  0  0  0  0  0  0  0
  189.8860  176.6810  137.7320 C   0  0  2  0  0  3  0  0  0  0  0  0
  190.4330  175.8130  136.9080 C   0  0  2  0  0  3  0  0  0  0  0  0
  188.7820  177.5180  140.2550 C   0  0  0  0  0  0  0  0  0  0  0  0
  186.3130  174.3070  134.8220 C   0  0  0  0  0  3  0  0  0  0  0  0
  187.2440  178.4230  136.0050 N   0  0  0  0  0  1  0  0  0  0  0  0
  187.9130  177.1260  139.1720 C   0  0  0  0  0  3  0  0  0  0  0  0
  191.0290  177.7430  141.6520 C   0  0  1  0  0  3  0  0  0  0  0  0
  189.7130  177.7010  140.9990 C   0  0  0  0  0  0  0  0  0  0  0  0
  191.0920  176.7020  142.6720 N   0  0  0  0  0  2  0  0  0  0  0  0
  192.0580  175.7990  147.2880 C   0  0  0  0  0  1  0  0  0  0  0  0
  191.6450  176.6610  145.0160 C   0  0  0  0  0  3  0  0  0  0  0  0
  189.6330  177.3280  148.0760 O   0  0  0  0  0  1  0  0  0  0  0  0
  189.3240  177.2700  144.3720 C   0  0  0  0  0  2  0  0  0  0  0  0
  189.1540  177.8020  145.7940 C   0  0  0  0  0  2  0  0  0  0  0  0
  190.7480  176.9030  144.0470 C   0  0  0  0  0  0  0  0  0  0  0  0
  189.8560  176.8740  146.7750 C   0  0  1  0  0  3  0  0  0  0  0  0
  191.3560  176.8700  146.4770 C   0  0  1  0  0  3  0  0  0  0  0  0
  1  7  1  0  0  0  0
  2 16  1  0  0  0  0
  3 11  1  6  0  0  0
  3 10  1  0  0  0  0
  3  6  1  0  0  0  0
  4  2  2  0  0  0  0
  6  8  1  1  0  0  0
  7  4  1  6  0  0  0
  7 14  1  0  0  0  0
  8 21  1  0  0  0  0
  9 13  1  0  0  0  0
 10  6  1  0  0  0  0
 12  4  1  0  0  0  0
 13  5  1  0  0  0  0
 13  1  2  0  0  0  0
 14 20  2  0  0  0  0
 15 14  1  0  0  0  0
 15 10  1  0  0  0  0
 16 11  1  0  0  0  0
 16 15  1  0  0  0  0
 17 22  3  0  0  0  0
 18 12  2  0  0  0  0
 18  5  1  0  0  0  0
 19  1  1  0  0  0  0
 20 17  1  0  0  0  0
 21 23  1  0  0  0  0
 22 21  1  0  0  0  0
 23 29  1  0  0  0  0
 25 31  1  0  0  0  0
 27 28  1  0  0  0  0
 28 30  1  0  0  0  0
 29 27  1  0  0  0  0
 29 25  2  0  0  0  0
 30 26  1  0  0  0  0
 31 30  1  0  0  0  0
 31 24  1  0  0  0  0
M  END
>  <MODEL>
6

>  <REMARK>
 VINA RESULT:      -7.9      1.452      2.250
  Name = 
  2 active torsions:
  status: ('A' for Active; 'I' for Inactive)
    1  A    between atoms: N_6  and  C_19
    2  A    between atoms: N_6  and  C_30
                            x       y       z     vdW  Elec       q    Type
                         _______ _______ _______ _____ _____    ______ ____

>  <TORSDO>
F 2

$$$$
=
 OpenBabel11042410493D

 31 36  0  0  1  0  0  0  0  0999 V2000
  190.3600  178.3550  144.3960 C   0  0  0  0  0  0  0  0  0  0  0  0
  187.7270  177.4860  146.5390 N   0  0  0  0  0  0  0  0  0  0  0  0
  184.4840  179.1470  145.1600 C   0  0  2  0  0  3  0  0  0  0  0  0
  188.8520  177.1350  145.9680 C   0  0  0  0  0  0  0  0  0  0  0  0
  191.6780  176.4010  145.0980 C   0  0  0  0  0  2  0  0  0  0  0  0
  184.2060  178.3980  144.0420 C   0  0  1  0  0  3  0  0  0  0  0  0
  189.1410  177.4790  144.4990 C   0  0  1  0  0  3  0  0  0  0  0  0
  183.5810  179.1960  142.8870 C   0  0  0  0  0  2  0  0  0  0  0  0
  192.6930  178.6400  144.6820 O   0  0  0  0  0  1  0  0  0  0  0  0
  185.5870  178.9270  144.2310 N   0  0  2  0  0  0  0  0  0  0  0  0
  185.2440  178.4430  146.3420 C   0  0  0  0  0  2  0  0  0  0  0  0
  189.8340  176.4550  146.7710 N   0  0  0  0  0  0  0  0  0  0  0  0
  191.5550  177.8420  144.7050 C   0  0  0  0  0  0  0  0  0  0  0  0
  187.9430  178.0100  143.7500 C   0  0  0  0  0  0  0  0  0  0  0  0
  186.8640  178.5600  144.5880 C   0  0  2  0  0  3  0  0  0  0  0  0
  186.7110  178.2290  145.8520 C   0  0  2  0  0  3  0  0  0  0  0  0
  186.5960  178.1520  141.7500 C   0  0  0  0  0  0  0  0  0  0  0  0
  191.0550  176.1350  146.4390 C   0  0  0  0  0  3  0  0  0  0  0  0
  190.2330  179.7440  144.0920 N   0  0  0  0  0  1  0  0  0  0  0  0
  187.8360  177.8430  142.4180 C   0  0  0  0  0  3  0  0  0  0  0  0
  184.0080  178.6850  141.4850 C   0  0  1  0  0  3  0  0  0  0  0  0
  185.4500  178.4030  141.4700 C   0  0  0  0  0  0  0  0  0  0  0  0
  183.2770  177.4670  141.1530 N   0  0  0  0  0  2  0  0  0  0  0  0
  181.4790  179.0030  136.9740 C   0  0  0  0  0  1  0  0  0  0  0  0
  182.7300  178.0910  138.8920 C   0  0  0  0  0  3  0  0  0  0  0  0
  181.2550  176.1840  136.0560 O   0  0  0  0  0  1  0  0  0  0  0  0
  182.2960  175.7480  139.5970 C   0  0  0  0  0  2  0  0  0  0  0  0
  182.1650  175.4100  138.1140 C   0  0  0  0  0  2  0  0  0  0  0  0
  182.8090  177.1430  139.8400 C   0  0  0  0  0  0  0  0  0  0  0  0
  181.4350  176.5360  137.3940 C   0  0  1  0  0  3  0  0  0  0  0  0
  182.2680  177.8150  137.4880 C   0  0  1  0  0  3  0  0  0  0  0  0
  1  7  1  0  0  0  0
  1 13  2  0  0  0  0
  3 11  1  1  0  0  0
  4  2  2  0  0  0  0
  4 12  1  0  0  0  0
  5 18  1  0  0  0  0
  6  8  1  6  0  0  0
  6 10  1  0  0  0  0
  6  3  1  0  0  0  0
  7 14  1  1  0  0  0
  7  4  1  0  0  0  0
  9 13  1  0  0  0  0
 10 15  1  0  0  0  0
 10  3  1  0  0  0  0
 13  5  1  0  0  0  0
 14 15  1  0  0  0  0
 15 16  1  0  0  0  0
 16 11  1  0  0  0  0
 16  2  1  0  0  0  0
 17 20  1  0  0  0  0
 18 12  2  0  0  0  0
 19  1  1  0  0  0  0
 20 14  2  0  0  0  0
 21  8  1  0  0  0  0
 22 21  1  0  0  0  0
 22 17  3  0  0  0  0
 23 21  1  0  0  0  0
 24 31  1  0  0  0  0
 25 29  2  0  0  0  0
 26 30  1  0  0  0  0
 27 29  1  0  0  0  0
 28 27  1  0  0  0  0
 29 23  1  0  0  0  0
 30 31  1  0  0  0  0
 30 28  1  0  0  0  0
 31 25  1  0  0  0  0
M  END
>  <MODEL>
7

>  <REMARK>
 VINA RESULT:      -7.1      4.421      9.235
  Name = 
  2 active torsions:
  status: ('A' for Active; 'I' for Inactive)
    1  A    between atoms: N_6  and  C_19
    2  A    between atoms: N_6  and  C_30
                            x       y       z     vdW  Elec       q    Type
                         _______ _______ _______ _____ _____    ______ ____

>  <TORSDO>
F 2

$$$$
=
 OpenBabel11042410493D

 31 36  0  0  1  0  0  0  0  0999 V2000
  190.2260  178.5330  143.4230 C   0  0  0  0  0  0  0  0  0  0  0  0
  186.9540  177.6480  144.3090 N   0  0  0  0  0  0  0  0  0  0  0  0
  184.5730  178.9990  141.5370 C   0  0  2  0  0  3  0  0  0  0  0  0
  188.2240  177.3310  144.3050 C   0  0  0  0  0  0  0  0  0  0  0  0
  191.1690  176.7200  144.7910 C   0  0  0  0  0  2  0  0  0  0  0  0
  184.8240  178.1580  140.4790 C   0  0  1  0  0  3  0  0  0  0  0  0
  189.1070  177.5900  143.0750 C   0  0  1  0  0  3  0  0  0  0  0  0
  184.7330  178.8330  139.1010 C   0  0  0  0  0  2  0  0  0  0  0  0
  192.2010  178.9850  144.6480 O   0  0  0  0  0  1  0  0  0  0  0  0
  185.9740  178.7860  141.1890 N   0  0  2  0  0  0  0  0  0  0  0  0
  184.7710  178.4280  142.9880 C   0  0  0  0  0  2  0  0  0  0  0  0
  188.7850  176.7730  145.5070 N   0  0  0  0  0  0  0  0  0  0  0  0
  191.1860  178.1200  144.2560 C   0  0  0  0  0  0  0  0  0  0  0  0
  188.3330  177.9910  141.8420 C   0  0  0  0  0  0  0  0  0  0  0  0
  186.9830  178.5280  142.0870 C   0  0  2  0  0  3  0  0  0  0  0  0
  186.3120  178.2750  143.1900 C   0  0  2  0  0  3  0  0  0  0  0  0
  187.9730  177.9080  139.4560 C   0  0  0  0  0  0  0  0  0  0  0  0
  190.0380  176.5080  145.7570 C   0  0  0  0  0  3  0  0  0  0  0  0
  190.2040  179.8870  142.9700 N   0  0  0  0  0  1  0  0  0  0  0  0
  188.8140  177.7250  140.6130 C   0  0  0  0  0  3  0  0  0  0  0  0
  185.7360  178.2540  138.0660 C   0  0  1  0  0  3  0  0  0  0  0  0
  187.0520  178.0640  138.6930 C   0  0  0  0  0  0  0  0  0  0  0  0
  185.2530  176.9720  137.5660 N   0  0  0  0  0  2  0  0  0  0  0  0
  187.3310  172.6590  137.2000 C   0  0  0  0  0  1  0  0  0  0  0  0
  186.0350  174.7510  137.0600 C   0  0  0  0  0  3  0  0  0  0  0  0
  188.5100  173.4690  134.5940 O   0  0  0  0  0  1  0  0  0  0  0  0
  186.9600  176.6450  135.7450 C   0  0  0  0  0  2  0  0  0  0  0  0
  187.4690  175.6030  134.7520 C   0  0  0  0  0  2  0  0  0  0  0  0
  186.0400  176.0660  136.7870 C   0  0  0  0  0  0  0  0  0  0  0  0
  187.9810  174.3830  135.5060 C   0  0  1  0  0  3  0  0  0  0  0  0
  186.8210  173.7420  136.2700 C   0  0  1  0  0  3  0  0  0  0  0  0
  1 13  2  0  0  0  0
  3 11  1  1  0  0  0
  4  2  2  0  0  0  0
  4 12  1  0  0  0  0
  5 18  1  0  0  0  0
  6  8  1  6  0  0  0
  6 10  1  0  0  0  0
  6  3  1  0  0  0  0
  7 14  1  6  0  0  0
  7  1  1  0  0  0  0
  7  4  1  0  0  0  0
 10  3  1  0  0  0  0
 10 15  1  0  0  0  0
 11 16  1  0  0  0  0
 12 18  2  0  0  0  0
 13  9  1  0  0  0  0
 13  5  1  0  0  0  0
 14 15  1  0  0  0  0
 15 16  1  0  0  0  0
 16  2  1  0  0  0  0
 17 20  1  0  0  0  0
 19  1  1  0  0  0  0
 20 14  2  0  0  0  0
 21 22  1  0  0  0  0
 21  8  1  0  0  0  0
 22 17  3  0  0  0  0
 23 21  1  0  0  0  0
 26 30  1  0  0  0  0
 27 29  1  0  0  0  0
 28 30  1  0  0  0  0
 28 27  1  0  0  0  0
 29 25  2  0  0  0  0
 29 23  1  0  0  0  0
 30 31  1  0  0  0  0
 31 25  1  0  0  0  0
 31 24  1  0  0  0  0
M  END
>  <MODEL>
8

>  <REMARK>
 VINA RESULT:      -6.7      2.873      8.836
  Name = 
  2 active torsions:
  status: ('A' for Active; 'I' for Inactive)
    1  A    between atoms: N_6  and  C_19
    2  A    between atoms: N_6  and  C_30
                            x       y       z     vdW  Elec       q    Type
                         _______ _______ _______ _____ _____    ______ ____

>  <TORSDO>
F 2

$$$$
=
 OpenBabel11042410493D

 31 36  0  0  1  0  0  0  0  0999 V2000
  181.4860  178.7790  139.4470 C   0  0  0  0  0  0  0  0  0  0  0  0
  184.5260  177.4880  138.2770 N   0  0  0  0  0  0  0  0  0  0  0  0
  187.3640  178.9310  140.5220 C   0  0  2  0  0  3  0  0  0  0  0  0
  183.2470  177.2960  138.4830 C   0  0  0  0  0  0  0  0  0  0  0  0
  180.2250  176.9120  138.4600 C   0  0  0  0  0  2  0  0  0  0  0  0
  187.1970  178.2500  141.7050 C   0  0  1  0  0  3  0  0  0  0  0  0
  182.5660  177.7820  139.7710 C   0  0  1  0  0  3  0  0  0  0  0  0
  187.5290  179.0740  142.9590 C   0  0  0  0  0  2  0  0  0  0  0  0
  179.4020  179.2650  138.4340 O   0  0  0  0  0  1  0  0  0  0  0  0
  186.0120  178.8950  141.0690 N   0  0  2  0  0  0  0  0  0  0  0  0
  186.9250  178.2120  139.1960 C   0  0  0  0  0  2  0  0  0  0  0  0
  182.4850  176.6520  137.4460 N   0  0  0  0  0  0  0  0  0  0  0  0
  180.3910  178.3610  138.8040 C   0  0  0  0  0  0  0  0  0  0  0  0
  183.5310  178.2530  140.8320 C   0  0  0  0  0  0  0  0  0  0  0  0
  184.8720  178.6270  140.3490 C   0  0  2  0  0  3  0  0  0  0  0  0
  185.3630  178.1820  139.2120 C   0  0  2  0  0  3  0  0  0  0  0  0
  184.2100  178.4240  143.1430 C   0  0  0  0  0  0  0  0  0  0  0  0
  181.1930  176.4800  137.3940 C   0  0  0  0  0  3  0  0  0  0  0  0
  181.6760  180.1690  139.7110 N   0  0  0  0  0  1  0  0  0  0  0  0
  183.2060  178.1840  142.1360 C   0  0  0  0  0  3  0  0  0  0  0  0
  186.6370  178.7210  144.1800 C   0  0  1  0  0  3  0  0  0  0  0  0
  185.2360  178.5830  143.7550 C   0  0  0  0  0  0  0  0  0  0  0  0
  187.0830  177.4690  144.7790 N   0  0  0  0  0  2  0  0  0  0  0  0
  191.6810  176.0860  144.8190 C   0  0  0  0  0  1  0  0  0  0  0  0
  189.4720  177.1770  144.8780 C   0  0  0  0  0  3  0  0  0  0  0  0
  191.8210  176.7000  147.7250 O   0  0  0  0  0  1  0  0  0  0  0  0
  188.2070  177.2050  147.0160 C   0  0  0  0  0  2  0  0  0  0  0  0
  189.5490  177.4090  147.7150 C   0  0  0  0  0  2  0  0  0  0  0  0
  188.3000  177.3210  145.5170 C   0  0  0  0  0  0  0  0  0  0  0  0
  190.6160  176.5630  147.0340 C   0  0  1  0  0  3  0  0  0  0  0  0
  190.7880  177.0380  145.5910 C   0  0  1  0  0  3  0  0  0  0  0  0
  1 19  1  0  0  0  0
  1  7  1  0  0  0  0
  2  4  2  0  0  0  0
  2 16  1  0  0  0  0
  3 11  1  6  0  0  0
  3 10  1  0  0  0  0
  3  6  1  0  0  0  0
  5 13  1  0  0  0  0
  6  8  1  1  0  0  0
  7  4  1  6  0  0  0
  7 14  1  0  0  0  0
  8 21  1  0  0  0  0
  9 13  1  0  0  0  0
 10  6  1  0  0  0  0
 11 16  1  0  0  0  0
 12  4  1  0  0  0  0
 13  1  2  0  0  0  0
 14 20  2  0  0  0  0
 15 14  1  0  0  0  0
 15 10  1  0  0  0  0
 16 15  1  0  0  0  0
 17 22  3  0  0  0  0
 18 12  2  0  0  0  0
 18  5  1  0  0  0  0
 20 17  1  0  0  0  0
 21 23  1  0  0  0  0
 22 21  1  0  0  0  0
 23 29  1  0  0  0  0
 24 31  1  0  0  0  0
 25 29  2  0  0  0  0
 25 31  1  0  0  0  0
 27 28  1  0  0  0  0
 29 27  1  0  0  0  0
 30 28  1  0  0  0  0
 30 26  1  0  0  0  0
 31 30  1  0  0  0  0
M  END
>  <MODEL>
9

>  <REMARK>
 VINA RESULT:      -6.6      4.193      5.204
  Name = 
  2 active torsions:
  status: ('A' for Active; 'I' for Inactive)
    1  A    between atoms: N_6  and  C_19
    2  A    between atoms: N_6  and  C_30
                            x       y       z     vdW  Elec       q    Type
                         _______ _______ _______ _____ _____    ______ ____

>  <TORSDO>
F 2

$$$$
