=
 OpenBabel11042411273D

 55 60  0  0  1  0  0  0  0  0999 V2000
  186.0930  178.6780  140.5570 C   0  0  0  0  0  3  0  0  0  0  0  0
  185.0370  178.7600  139.7420 C   0  0  0  0  0  0  0  0  0  0  0  0
  186.3890  178.1580  137.7850 C   0  0  0  0  0  0  0  0  0  0  0  0
  187.5840  176.6740  136.2930 C   0  0  0  0  0  3  0  0  0  0  0  0
  191.4370  177.0270  138.7600 C   0  0  0  0  0  2  0  0  0  0  0  0
  190.7370  175.2600  137.1360 C   0  0  0  0  0  2  0  0  0  0  0  0
  188.5080  177.1840  138.4920 C   0  0  0  0  0  0  0  0  0  0  0  0
  187.6390  178.3490  138.6090 C   0  0  2  0  0  3  0  0  0  0  0  0
  188.4980  176.3570  137.4290 C   0  0  0  0  0  0  0  0  0  0  0  0
  188.2900  177.6470  140.7790 O   0  0  0  0  0  0  0  0  0  0  0  0
  186.5670  177.5380  136.4470 C   0  0  0  0  0  0  0  0  0  0  0  0
  185.1840  178.3960  138.3140 C   0  0  0  0  0  3  0  0  0  0  0  0
  189.2660  175.0600  137.4730 C   0  0  1  0  0  3  0  0  0  0  0  0
  191.5330  175.5520  138.3970 C   0  0  0  0  0  2  0  0  0  0  0  0
  187.3830  178.3400  140.0320 N   0  0  0  0  0  0  0  0  0  0  0  0
  190.5300  177.3080  139.9690 C   0  0  1  0  0  3  0  0  0  0  0  0
  189.0540  176.8860  139.8480 C   0  0  2  0  0  3  0  0  0  0  0  0
  187.4250  173.4240  136.9190 N   0  0  0  0  0  0  0  0  0  0  0  0
  189.2110  173.3500  135.5730 C   0  0  0  0  0  3  0  0  0  0  0  0
  187.2960  172.4920  135.9560 C   0  0  0  0  0  0  0  0  0  0  0  0
  188.6350  173.9560  136.6700 C   0  0  0  0  0  0  0  0  0  0  0  0
  188.3540  172.4150  135.1220 N   0  0  0  0  0  2  0  0  0  0  0  0
  186.0800  171.6450  135.8060 C   0  0  0  0  0  2  0  0  0  0  0  0
  184.0610  171.9500  136.9350 C   0  0  0  0  0  1  0  0  0  0  0  0
  184.8930  172.4810  135.8680 N   0  0  0  0  0  2  0  0  0  0  0  0
  184.6260  176.9440  135.0190 C   0  0  0  0  0  1  0  0  0  0  0  0
  185.7190  177.7830  135.3610 O   0  0  0  0  0  0  0  0  0  0  0  0
  191.1630  176.8840  141.2950 C   0  0  0  0  0  2  0  0  0  0  0  0
  191.5600  178.0400  142.0860 N   0  0  0  0  0  2  0  0  0  0  0  0
  190.5280  178.2370  143.0930 C   0  0  0  0  0  2  0  0  0  0  0  0
  191.0870  177.9840  144.4570 C   0  0  0  0  0  0  0  0  0  0  0  0
  192.3140  178.1890  144.6600 O   0  0  0  0  0  0  0  0  0  0  0  0
  186.5340  177.2650  146.0960 C   0  0  0  0  0  1  0  0  0  0  0  0
  187.9500  177.7620  146.3240 C   0  0  1  0  0  3  0  0  0  0  0  0
  188.4410  177.3930  147.7290 C   0  0  2  0  0  3  0  0  0  0  0  0
  190.2500  177.5030  145.5210 N   0  0  0  0  0  0  0  0  0  0  0  0
  190.8130  177.2610  146.8490 C   0  0  1  0  0  3  0  0  0  0  0  0
  187.5890  178.0680  148.7900 C   0  0  0  0  0  1  0  0  0  0  0  0
  188.8580  177.1400  145.2680 C   0  0  0  0  0  2  0  0  0  0  0  0
  189.8920  177.8370  147.9230 C   0  0  0  0  0  2  0  0  0  0  0  0
  191.0450  175.7750  147.0690 C   0  0  0  0  0  1  0  0  0  0  0  0
  183.7990  179.1210  140.2680 O   0  0  0  0  0  0  0  0  0  0  0  0
  182.7390  179.4500  139.4490 N   0  0  0  0  0  0  0  0  0  0  0  0
  181.5160  179.1310  139.7450 C   0  0  0  0  0  0  0  0  0  0  0  0
  180.1680  177.4410  140.7370 O   0  0  0  0  0  1  0  0  0  0  0  0
  181.1660  178.3830  140.9990 C   0  0  2  0  0  3  0  0  0  0  0  0
  180.7140  179.3460  142.0890 C   0  0  0  0  0  2  0  0  0  0  0  0
  181.1860  178.9060  143.4380 C   0  0  0  0  0  0  0  0  0  0  0  0
  182.6300  178.9870  143.7820 C   0  0  0  0  0  1  0  0  0  0  0  0
  180.3970  178.4500  144.2480 O   0  0  0  0  0  0  0  0  0  0  0  0
  180.4180  179.5420  138.8260 C   0  0  0  0  0  2  0  0  0  0  0  0
  180.8720  181.6470  137.5150 N   0  0  0  0  0  2  0  0  0  0  0  0
  180.3750  181.0250  138.7000 C   0  0  0  0  0  0  0  0  0  0  0  0
  180.9290  183.0920  137.3720 C   0  0  0  0  0  1  0  0  0  0  0  0
  179.9260  181.7160  139.6510 O   0  0  0  0  0  0  0  0  0  0  0  0
  2 42  1  0  0  0  0
  2  1  2  0  0  0  0
  3 12  2  0  0  0  0
  4 11  2  0  0  0  0
  4  9  1  0  0  0  0
  5 16  1  0  0  0  0
  6 13  1  0  0  0  0
  6 14  1  0  0  0  0
  7  8  1  0  0  0  0
  8  3  1  6  0  0  0
  8 15  1  0  0  0  0
  9 13  1  0  0  0  0
  9  7  2  0  0  0  0
 11  3  1  0  0  0  0
 12  2  1  0  0  0  0
 13 21  1  6  0  0  0
 14  5  1  0  0  0  0
 15  1  1  0  0  0  0
 15 10  1  0  0  0  0
 16 28  1  1  0  0  0
 17  7  1  6  0  0  0
 17 16  1  0  0  0  0
 17 10  1  0  0  0  0
 19 21  2  0  0  0  0
 20 18  2  0  0  0  0
 21 18  1  0  0  0  0
 22 19  1  0  0  0  0
 22 20  1  0  0  0  0
 23 25  1  0  0  0  0
 23 20  1  0  0  0  0
 25 24  1  0  0  0  0
 26 27  1  0  0  0  0
 27 11  1  0  0  0  0
 28 29  1  0  0  0  0
 29 30  1  0  0  0  0
 30 31  1  0  0  0  0
 31 32  2  0  0  0  0
 31 36  1  0  0  0  0
 34 33  1  6  0  0  0
 34 35  1  0  0  0  0
 35 40  1  0  0  0  0
 35 38  1  1  0  0  0
 36 37  1  0  0  0  0
 37 41  1  1  0  0  0
 37 40  1  0  0  0  0
 39 36  1  0  0  0  0
 39 34  1  0  0  0  0
 43 44  2  0  0  0  0
 43 42  1  0  0  0  0
 44 46  1  0  0  0  0
 46 45  1  6  0  0  0
 46 47  1  0  0  0  0
 47 48  1  0  0  0  0
 48 49  1  0  0  0  0
 48 50  2  0  0  0  0
 51 44  1  0  0  0  0
 52 53  1  0  0  0  0
 53 51  1  0  0  0  0
 53 55  2  0  0  0  0
 54 52  1  0  0  0  0
M  END
>  <MODEL>
1

>  <REMARK>
 VINA RESULT:      -8.0      0.000      0.000
  Name = 
  15 active torsions:
  status: ('A' for Active; 'I' for Inactive)
    1  A    between atoms: C_1  and  C_32
    2  A    between atoms: C_4  and  C_43
    3  A    between atoms: N_7  and  O_31
    4  A    between atoms: C_9  and  O_31
    5  A    between atoms: C_17  and  C_22
    6  A    between atoms: C_17  and  C_33
    7  A    between atoms: C_20  and  C_52
    8  A    between atoms: C_20  and  N_53
    9  A    between atoms: C_23  and  C_33
   10  A    between atoms: C_23  and  C_43
   11  A    between atoms: C_26  and  C_27
   12  A    between atoms: C_27  and  N_45
   13  A    between atoms: C_29  and  C_46
   14  A    between atoms: C_32  and  N_53
   15  A    between atoms: C_38  and  O_54
                            x       y       z     vdW  Elec       q    Type
                         _______ _______ _______ _____ _____    ______ ____

>  <TORSDO>
F 15

$$$$
=
 OpenBabel11042411273D

 55 60  0  0  1  0  0  0  0  0999 V2000
  189.2640  176.9540  141.5890 C   0  0  0  0  0  3  0  0  0  0  0  0
  188.2670  177.3850  142.3690 C   0  0  0  0  0  0  0  0  0  0  0  0
  187.0980  178.4000  140.4670 C   0  0  0  0  0  0  0  0  0  0  0  0
  185.7220  178.4310  138.4760 C   0  0  0  0  0  3  0  0  0  0  0  0
  189.3440  177.6790  135.7600 C   0  0  0  0  0  2  0  0  0  0  0  0
  186.9110  177.3000  135.3200 C   0  0  0  0  0  2  0  0  0  0  0  0
  187.9860  177.5310  138.3700 C   0  0  0  0  0  0  0  0  0  0  0  0
  188.3310  178.1980  139.6200 C   0  0  2  0  0  3  0  0  0  0  0  0
  186.7640  177.5970  137.8090 C   0  0  0  0  0  0  0  0  0  0  0  0
  189.8030  176.3680  139.2860 O   0  0  0  0  0  0  0  0  0  0  0  0
  185.8680  178.8270  139.7520 C   0  0  0  0  0  0  0  0  0  0  0  0
  187.0970  178.0560  141.7590 C   0  0  0  0  0  3  0  0  0  0  0  0
  186.4220  176.7130  136.6370 C   0  0  1  0  0  3  0  0  0  0  0  0
  188.3230  176.8240  135.0210 C   0  0  0  0  0  2  0  0  0  0  0  0
  189.2500  177.2340  140.1840 N   0  0  0  0  0  0  0  0  0  0  0  0
  189.9860  176.9730  136.9650 C   0  0  1  0  0  3  0  0  0  0  0  0
  189.0410  176.5140  138.0910 C   0  0  2  0  0  3  0  0  0  0  0  0
  184.4130  175.3670  137.3620 N   0  0  0  0  0  0  0  0  0  0  0  0
  184.0320  176.8600  135.7400 C   0  0  0  0  0  3  0  0  0  0  0  0
  183.1280  175.3620  136.9610 C   0  0  0  0  0  0  0  0  0  0  0  0
  184.9730  176.3110  136.5850 C   0  0  0  0  0  0  0  0  0  0  0  0
  182.8570  176.2500  135.9820 N   0  0  0  0  0  2  0  0  0  0  0  0
  182.0930  174.4800  137.5670 C   0  0  0  0  0  2  0  0  0  0  0  0
  181.7630  175.7860  139.4730 C   0  0  0  0  0  1  0  0  0  0  0  0
  181.1130  175.2890  138.2710 N   0  0  0  0  0  2  0  0  0  0  0  0
  183.5400  179.0910  140.5690 C   0  0  0  0  0  1  0  0  0  0  0  0
  184.8510  179.5850  140.3440 O   0  0  0  0  0  0  0  0  0  0  0  0
  190.9880  175.8940  136.5530 C   0  0  0  0  0  2  0  0  0  0  0  0
  192.3200  176.1840  137.0640 N   0  0  0  0  0  2  0  0  0  0  0  0
  192.7040  175.0600  137.9050 C   0  0  0  0  0  2  0  0  0  0  0  0
  193.4980  174.0730  137.1100 C   0  0  0  0  0  0  0  0  0  0  0  0
  192.9970  173.5960  136.0560 O   0  0  0  0  0  0  0  0  0  0  0  0
  197.3340  174.9490  140.0170 C   0  0  0  0  0  1  0  0  0  0  0  0
  196.7730  174.6080  138.6480 C   0  0  1  0  0  3  0  0  0  0  0  0
  197.6290  173.5440  137.9520 C   0  0  2  0  0  3  0  0  0  0  0  0
  194.8050  173.6590  137.5390 N   0  0  0  0  0  0  0  0  0  0  0  0
  195.5680  172.6930  136.7500 C   0  0  1  0  0  3  0  0  0  0  0  0
  199.0350  174.0630  137.7060 C   0  0  0  0  0  1  0  0  0  0  0  0
  195.3430  174.1050  138.8220 C   0  0  0  0  0  2  0  0  0  0  0  0
  197.0150  173.1590  136.6050 C   0  0  0  0  0  2  0  0  0  0  0  0
  195.5000  171.3130  137.3840 C   0  0  0  0  0  1  0  0  0  0  0  0
  188.3170  177.1290  143.7380 O   0  0  0  0  0  0  0  0  0  0  0  0
  187.5050  177.8050  144.6240 N   0  0  0  0  0  0  0  0  0  0  0  0
  187.7110  177.7780  145.9050 C   0  0  0  0  0  0  0  0  0  0  0  0
  188.6370  176.8420  147.8860 O   0  0  0  0  0  1  0  0  0  0  0  0
  188.8490  177.0110  146.5160 C   0  0  2  0  0  3  0  0  0  0  0  0
  190.1720  177.7220  146.2660 C   0  0  0  0  0  2  0  0  0  0  0  0
  191.2570  176.7540  145.9170 C   0  0  0  0  0  0  0  0  0  0  0  0
  191.9590  176.0080  146.9930 C   0  0  0  0  0  1  0  0  0  0  0  0
  191.5910  176.5960  144.7560 O   0  0  0  0  0  0  0  0  0  0  0  0
  186.8090  178.5530  146.8010 C   0  0  0  0  0  2  0  0  0  0  0  0
  185.2900  179.2750  144.9210 N   0  0  0  0  0  2  0  0  0  0  0  0
  185.4500  178.6610  146.2000 C   0  0  0  0  0  0  0  0  0  0  0  0
  183.9810  179.4800  144.3250 C   0  0  0  0  0  1  0  0  0  0  0  0
  184.4530  178.2360  146.8390 O   0  0  0  0  0  0  0  0  0  0  0  0
  1  2  2  0  0  0  0
  2 42  1  0  0  0  0
  3 12  2  0  0  0  0
  4 11  2  0  0  0  0
  5 16  1  0  0  0  0
  6 13  1  0  0  0  0
  8  7  1  6  0  0  0
  8 15  1  0  0  0  0
  8  3  1  0  0  0  0
  9  7  2  0  0  0  0
  9  4  1  0  0  0  0
 10 15  1  0  0  0  0
 11 27  1  0  0  0  0
 11  3  1  0  0  0  0
 12  2  1  0  0  0  0
 13 21  1  6  0  0  0
 13  9  1  0  0  0  0
 14  6  1  0  0  0  0
 14  5  1  0  0  0  0
 15  1  1  0  0  0  0
 16 28  1  6  0  0  0
 16 17  1  0  0  0  0
 17  7  1  1  0  0  0
 17 10  1  0  0  0  0
 19 22  1  0  0  0  0
 19 21  2  0  0  0  0
 20 18  2  0  0  0  0
 20 23  1  0  0  0  0
 21 18  1  0  0  0  0
 22 20  1  0  0  0  0
 23 25  1  0  0  0  0
 25 24  1  0  0  0  0
 27 26  1  0  0  0  0
 28 29  1  0  0  0  0
 29 30  1  0  0  0  0
 31 36  1  0  0  0  0
 31 30  1  0  0  0  0
 32 31  2  0  0  0  0
 34 39  1  0  0  0  0
 34 33  1  1  0  0  0
 35 38  1  6  0  0  0
 35 34  1  0  0  0  0
 36 39  1  0  0  0  0
 37 41  1  1  0  0  0
 37 36  1  0  0  0  0
 40 37  1  0  0  0  0
 40 35  1  0  0  0  0
 42 43  1  0  0  0  0
 43 44  2  0  0  0  0
 44 46  1  0  0  0  0
 44 51  1  0  0  0  0
 46 45  1  1  0  0  0
 47 46  1  0  0  0  0
 48 47  1  0  0  0  0
 48 49  1  0  0  0  0
 50 48  2  0  0  0  0
 52 53  1  0  0  0  0
 53 51  1  0  0  0  0
 53 55  2  0  0  0  0
 54 52  1  0  0  0  0
M  END
>  <MODEL>
2

>  <REMARK>
 VINA RESULT:      -7.9      3.490      7.915
  Name = 
  15 active torsions:
  status: ('A' for Active; 'I' for Inactive)
    1  A    between atoms: C_1  and  C_32
    2  A    between atoms: C_4  and  C_43
    3  A    between atoms: N_7  and  O_31
    4  A    between atoms: C_9  and  O_31
    5  A    between atoms: C_17  and  C_22
    6  A    between atoms: C_17  and  C_33
    7  A    between atoms: C_20  and  C_52
    8  A    between atoms: C_20  and  N_53
    9  A    between atoms: C_23  and  C_33
   10  A    between atoms: C_23  and  C_43
   11  A    between atoms: C_26  and  C_27
   12  A    between atoms: C_27  and  N_45
   13  A    between atoms: C_29  and  C_46
   14  A    between atoms: C_32  and  N_53
   15  A    between atoms: C_38  and  O_54
                            x       y       z     vdW  Elec       q    Type
                         _______ _______ _______ _____ _____    ______ ____

>  <TORSDO>
F 15

$$$$
=
 OpenBabel11042411273D

 55 60  0  0  1  0  0  0  0  0999 V2000
  189.6760  176.9500  141.7990 C   0  0  0  0  0  3  0  0  0  0  0  0
  188.6410  177.4160  142.5050 C   0  0  0  0  0  0  0  0  0  0  0  0
  187.5300  178.2570  140.4870 C   0  0  0  0  0  0  0  0  0  0  0  0
  186.2330  178.1070  138.4480 C   0  0  0  0  0  3  0  0  0  0  0  0
  189.9740  177.2300  135.9390 C   0  0  0  0  0  2  0  0  0  0  0  0
  187.5680  176.7650  135.4370 C   0  0  0  0  0  2  0  0  0  0  0  0
  188.5170  177.2510  138.4990 C   0  0  0  0  0  0  0  0  0  0  0  0
  188.7990  178.0190  139.7060 C   0  0  2  0  0  3  0  0  0  0  0  0
  187.3170  177.2480  137.8880 C   0  0  0  0  0  0  0  0  0  0  0  0
  190.3170  176.2020  139.5700 O   0  0  0  0  0  0  0  0  0  0  0  0
  186.3200  178.6020  139.6950 C   0  0  0  0  0  0  0  0  0  0  0  0
  187.4830  178.0130  141.8000 C   0  0  0  0  0  3  0  0  0  0  0  0
  187.0390  176.2690  136.7750 C   0  0  1  0  0  3  0  0  0  0  0  0
  189.0000  176.2980  135.2300 C   0  0  0  0  0  2  0  0  0  0  0  0
  189.7120  177.1210  140.3770 N   0  0  0  0  0  0  0  0  0  0  0  0
  190.5820  176.6320  137.2180 C   0  0  1  0  0  3  0  0  0  0  0  0
  189.6010  176.2390  138.3400 C   0  0  2  0  0  3  0  0  0  0  0  0
  184.5670  176.6480  136.4240 N   0  0  0  0  0  0  0  0  0  0  0  0
  185.1570  174.5420  136.8980 C   0  0  0  0  0  3  0  0  0  0  0  0
  183.5050  175.8220  136.4670 C   0  0  0  0  0  0  0  0  0  0  0  0
  185.6010  175.8320  136.6990 C   0  0  0  0  0  0  0  0  0  0  0  0
  183.8190  174.5400  136.7510 N   0  0  0  0  0  2  0  0  0  0  0  0
  182.1140  176.2760  136.1930 C   0  0  0  0  0  2  0  0  0  0  0  0
  180.6470  177.5960  137.4390 C   0  0  0  0  0  1  0  0  0  0  0  0
  181.9200  177.6090  136.7380 N   0  0  0  0  0  2  0  0  0  0  0  0
  184.0150  179.5050  139.5300 C   0  0  0  0  0  1  0  0  0  0  0  0
  185.2670  179.3800  140.1870 O   0  0  0  0  0  0  0  0  0  0  0  0
  191.6190  175.5470  136.9290 C   0  0  0  0  0  2  0  0  0  0  0  0
  192.9130  176.1260  136.5990 N   0  0  0  0  0  2  0  0  0  0  0  0
  193.5390  175.2370  135.6310 C   0  0  0  0  0  2  0  0  0  0  0  0
  194.8970  174.8320  136.1100 C   0  0  0  0  0  0  0  0  0  0  0  0
  195.7110  175.7280  136.4610 O   0  0  0  0  0  0  0  0  0  0  0  0
  193.4460  170.1610  136.0060 C   0  0  0  0  0  1  0  0  0  0  0  0
  194.2740  171.2670  136.6360 C   0  0  1  0  0  3  0  0  0  0  0  0
  195.6650  170.7550  137.0300 C   0  0  2  0  0  3  0  0  0  0  0  0
  195.2810  173.4480  136.1590 N   0  0  0  0  0  0  0  0  0  0  0  0
  196.6120  173.0700  136.6290 C   0  0  1  0  0  3  0  0  0  0  0  0
  195.5580  169.6660  138.0830 C   0  0  0  0  0  1  0  0  0  0  0  0
  194.3960  172.4110  135.6340 C   0  0  0  0  0  2  0  0  0  0  0  0
  196.5130  171.8930  137.5980 C   0  0  0  0  0  2  0  0  0  0  0  0
  197.5190  172.7340  135.4560 C   0  0  0  0  0  1  0  0  0  0  0  0
  188.6410  177.2670  143.8910 O   0  0  0  0  0  0  0  0  0  0  0  0
  187.8100  178.0200  144.6930 N   0  0  0  0  0  0  0  0  0  0  0  0
  187.8400  177.9330  145.9880 C   0  0  0  0  0  0  0  0  0  0  0  0
  188.2960  176.7240  147.9850 O   0  0  0  0  0  1  0  0  0  0  0  0
  188.7800  177.0080  146.7060 C   0  0  2  0  0  3  0  0  0  0  0  0
  190.1730  177.6180  146.7890 C   0  0  0  0  0  2  0  0  0  0  0  0
  191.2230  176.6440  146.3560 C   0  0  0  0  0  0  0  0  0  0  0  0
  191.8760  175.7630  147.3590 C   0  0  0  0  0  1  0  0  0  0  0  0
  191.5710  176.5920  145.1890 O   0  0  0  0  0  0  0  0  0  0  0  0
  186.9320  178.7960  146.7930 C   0  0  0  0  0  2  0  0  0  0  0  0
  185.1440  179.2230  145.0660 N   0  0  0  0  0  2  0  0  0  0  0  0
  185.5270  178.6550  146.3190 C   0  0  0  0  0  0  0  0  0  0  0  0
  183.7710  179.1860  144.5930 C   0  0  0  0  0  1  0  0  0  0  0  0
  184.6850  178.0600  147.0400 O   0  0  0  0  0  0  0  0  0  0  0  0
  1  2  2  0  0  0  0
  2 42  1  0  0  0  0
  3 12  2  0  0  0  0
  4 11  2  0  0  0  0
  5 16  1  0  0  0  0
  6 13  1  0  0  0  0
  8  7  1  6  0  0  0
  8 15  1  0  0  0  0
  8  3  1  0  0  0  0
  9  4  1  0  0  0  0
  9  7  2  0  0  0  0
 10 15  1  0  0  0  0
 11 27  1  0  0  0  0
 11  3  1  0  0  0  0
 12  2  1  0  0  0  0
 13 21  1  6  0  0  0
 13  9  1  0  0  0  0
 14  6  1  0  0  0  0
 14  5  1  0  0  0  0
 15  1  1  0  0  0  0
 16 28  1  6  0  0  0
 16 17  1  0  0  0  0
 17  7  1  1  0  0  0
 17 10  1  0  0  0  0
 18 20  2  0  0  0  0
 18 21  1  0  0  0  0
 20 22  1  0  0  0  0
 21 19  2  0  0  0  0
 22 19  1  0  0  0  0
 23 20  1  0  0  0  0
 23 25  1  0  0  0  0
 25 24  1  0  0  0  0
 26 27  1  0  0  0  0
 29 28  1  0  0  0  0
 30 31  1  0  0  0  0
 30 29  1  0  0  0  0
 31 36  1  0  0  0  0
 31 32  2  0  0  0  0
 34 33  1  6  0  0  0
 34 35  1  0  0  0  0
 35 40  1  0  0  0  0
 35 38  1  1  0  0  0
 36 37  1  0  0  0  0
 37 41  1  6  0  0  0
 37 40  1  0  0  0  0
 39 36  1  0  0  0  0
 39 34  1  0  0  0  0
 42 43  1  0  0  0  0
 43 44  2  0  0  0  0
 44 46  1  0  0  0  0
 44 51  1  0  0  0  0
 46 47  1  0  0  0  0
 46 45  1  1  0  0  0
 48 47  1  0  0  0  0
 48 49  1  0  0  0  0
 50 48  2  0  0  0  0
 52 53  1  0  0  0  0
 53 51  1  0  0  0  0
 53 55  2  0  0  0  0
 54 52  1  0  0  0  0
M  END
>  <MODEL>
3

>  <REMARK>
 VINA RESULT:      -7.7      3.625      8.187
  Name = 
  15 active torsions:
  status: ('A' for Active; 'I' for Inactive)
    1  A    between atoms: C_1  and  C_32
    2  A    between atoms: C_4  and  C_43
    3  A    between atoms: N_7  and  O_31
    4  A    between atoms: C_9  and  O_31
    5  A    between atoms: C_17  and  C_22
    6  A    between atoms: C_17  and  C_33
    7  A    between atoms: C_20  and  C_52
    8  A    between atoms: C_20  and  N_53
    9  A    between atoms: C_23  and  C_33
   10  A    between atoms: C_23  and  C_43
   11  A    between atoms: C_26  and  C_27
   12  A    between atoms: C_27  and  N_45
   13  A    between atoms: C_29  and  C_46
   14  A    between atoms: C_32  and  N_53
   15  A    between atoms: C_38  and  O_54
                            x       y       z     vdW  Elec       q    Type
                         _______ _______ _______ _____ _____    ______ ____

>  <TORSDO>
F 15

$$$$
=
 OpenBabel11042411273D

 55 60  0  0  1  0  0  0  0  0999 V2000
  186.0160  178.7460  140.5500 C   0  0  0  0  0  3  0  0  0  0  0  0
  184.9100  178.8260  139.8040 C   0  0  0  0  0  0  0  0  0  0  0  0
  186.1080  178.1040  137.7900 C   0  0  0  0  0  0  0  0  0  0  0  0
  187.1580  176.5240  136.2860 C   0  0  0  0  0  3  0  0  0  0  0  0
  191.1790  176.8660  138.4720 C   0  0  0  0  0  2  0  0  0  0  0  0
  190.3220  175.0540  136.9760 C   0  0  0  0  0  2  0  0  0  0  0  0
  188.2430  177.0970  138.3940 C   0  0  0  0  0  0  0  0  0  0  0  0
  187.4160  178.2920  138.5180 C   0  0  2  0  0  3  0  0  0  0  0  0
  188.1390  176.2280  137.3710 C   0  0  0  0  0  0  0  0  0  0  0  0
  188.1950  177.6610  140.6680 O   0  0  0  0  0  0  0  0  0  0  0  0
  186.1770  177.4240  136.4700 C   0  0  0  0  0  0  0  0  0  0  0  0
  184.9480  178.3980  138.3870 C   0  0  0  0  0  3  0  0  0  0  0  0
  188.8730  174.9120  137.4200 C   0  0  1  0  0  3  0  0  0  0  0  0
  191.2110  175.3740  138.1670 C   0  0  0  0  0  2  0  0  0  0  0  0
  187.2570  178.3490  139.9550 N   0  0  0  0  0  0  0  0  0  0  0  0
  190.3650  177.2240  139.7250 C   0  0  1  0  0  3  0  0  0  0  0  0
  188.8730  176.8400  139.7220 C   0  0  2  0  0  3  0  0  0  0  0  0
  186.8580  173.4950  136.8680 N   0  0  0  0  0  0  0  0  0  0  0  0
  188.7440  172.9370  135.8010 C   0  0  0  0  0  3  0  0  0  0  0  0
  186.6830  172.4450  136.0440 C   0  0  0  0  0  0  0  0  0  0  0  0
  188.1600  173.7950  136.7090 C   0  0  1  0  0  3  0  0  0  0  0  0
  187.7990  172.0770  135.3800 N   0  0  0  0  0  0  0  0  0  0  0  0
  185.3670  171.7730  135.8570 C   0  0  0  0  0  2  0  0  0  0  0  0
  183.2320  171.4360  136.7360 C   0  0  0  0  0  1  0  0  0  0  0  0
  184.5540  171.9520  137.0480 N   0  0  0  0  0  2  0  0  0  0  0  0
  184.2140  176.7500  135.1110 C   0  0  0  0  0  1  0  0  0  0  0  0
  185.2640  177.6490  135.4340 O   0  0  0  0  0  0  0  0  0  0  0  0
  191.0750  176.8360  141.0230 C   0  0  0  0  0  2  0  0  0  0  0  0
  191.4370  178.0130  141.8000 N   0  0  0  0  0  2  0  0  0  0  0  0
  190.4390  178.1500  142.8500 C   0  0  0  0  0  2  0  0  0  0  0  0
  191.0610  177.8960  144.1860 C   0  0  0  0  0  0  0  0  0  0  0  0
  192.2980  178.0930  144.3290 O   0  0  0  0  0  0  0  0  0  0  0  0
  186.5870  177.2150  146.0430 C   0  0  0  0  0  1  0  0  0  0  0  0
  188.0160  177.7020  146.2020 C   0  0  1  0  0  3  0  0  0  0  0  0
  188.5710  177.3340  147.5830 C   0  0  2  0  0  3  0  0  0  0  0  0
  190.2730  177.4250  145.2910 N   0  0  0  0  0  0  0  0  0  0  0  0
  190.8970  177.1830  146.5900 C   0  0  1  0  0  3  0  0  0  0  0  0
  187.7760  178.0180  148.6820 C   0  0  0  0  0  1  0  0  0  0  0  0
  188.8680  177.0710  145.1050 C   0  0  0  0  0  2  0  0  0  0  0  0
  190.0330  177.7680  147.7060 C   0  0  0  0  0  2  0  0  0  0  0  0
  191.1290  175.6950  146.8040 C   0  0  0  0  0  1  0  0  0  0  0  0
  183.7200  179.2450  140.3970 O   0  0  0  0  0  0  0  0  0  0  0  0
  182.6080  178.4290  140.4280 N   0  0  0  0  0  0  0  0  0  0  0  0
  181.4660  178.8050  139.9380 C   0  0  0  0  0  0  0  0  0  0  0  0
  179.9460  180.5660  139.4450 O   0  0  0  0  0  1  0  0  0  0  0  0
  181.2720  180.1510  139.3020 C   0  0  2  0  0  3  0  0  0  0  0  0
  181.6610  180.1110  137.8310 C   0  0  0  0  0  2  0  0  0  0  0  0
  180.5350  180.5610  136.9550 C   0  0  0  0  0  0  0  0  0  0  0  0
  179.5940  179.5630  136.3840 C   0  0  0  0  0  1  0  0  0  0  0  0
  180.4040  181.7410  136.6790 O   0  0  0  0  0  0  0  0  0  0  0  0
  180.3140  177.8620  139.9830 C   0  0  0  0  0  2  0  0  0  0  0  0
  180.0820  178.6660  142.3620 N   0  0  0  0  0  2  0  0  0  0  0  0
  179.8800  177.6390  141.3900 C   0  0  0  0  0  0  0  0  0  0  0  0
  179.7540  178.4720  143.7640 C   0  0  0  0  0  1  0  0  0  0  0  0
  179.3650  176.5380  141.7140 O   0  0  0  0  0  0  0  0  0  0  0  0
  2 42  1  0  0  0  0
  2  1  2  0  0  0  0
  3 12  2  0  0  0  0
  4 11  2  0  0  0  0
  4  9  1  0  0  0  0
  5 16  1  0  0  0  0
  6 14  1  0  0  0  0
  7  8  1  0  0  0  0
  8  3  1  6  0  0  0
  8 15  1  0  0  0  0
  9 13  1  0  0  0  0
  9  7  2  0  0  0  0
 11  3  1  0  0  0  0
 12  2  1  0  0  0  0
 13  6  1  6  0  0  0
 14  5  1  0  0  0  0
 15  1  1  0  0  0  0
 15 10  1  0  0  0  0
 16 28  1  1  0  0  0
 17  7  1  6  0  0  0
 17 16  1  0  0  0  0
 17 10  1  0  0  0  0
 20 18  2  0  0  0  0
 21 19  1  6  0  0  0
 21 18  1  0  0  0  0
 21 13  1  0  0  0  0
 22 19  2  0  0  0  0
 22 20  1  0  0  0  0
 23 20  1  0  0  0  0
 23 25  1  0  0  0  0
 24 25  1  0  0  0  0
 26 27  1  0  0  0  0
 27 11  1  0  0  0  0
 28 29  1  0  0  0  0
 29 30  1  0  0  0  0
 30 31  1  0  0  0  0
 31 32  2  0  0  0  0
 31 36  1  0  0  0  0
 34 33  1  1  0  0  0
 34 35  1  0  0  0  0
 35 40  1  0  0  0  0
 35 38  1  1  0  0  0
 36 37  1  0  0  0  0
 37 41  1  1  0  0  0
 37 40  1  0  0  0  0
 39 36  1  0  0  0  0
 39 34  1  0  0  0  0
 42 43  1  0  0  0  0
 44 51  1  0  0  0  0
 44 43  2  0  0  0  0
 46 45  1  6  0  0  0
 46 44  1  0  0  0  0
 47 46  1  0  0  0  0
 48 47  1  0  0  0  0
 49 48  1  0  0  0  0
 50 48  2  0  0  0  0
 51 53  1  0  0  0  0
 52 54  1  0  0  0  0
 53 55  2  0  0  0  0
 53 52  1  0  0  0  0
M  END
>  <MODEL>
4

>  <REMARK>
 VINA RESULT:      -7.2      1.158      2.616
  Name = 
  15 active torsions:
  status: ('A' for Active; 'I' for Inactive)
    1  A    between atoms: C_1  and  C_32
    2  A    between atoms: C_4  and  C_43
    3  A    between atoms: N_7  and  O_31
    4  A    between atoms: C_9  and  O_31
    5  A    between atoms: C_17  and  C_22
    6  A    between atoms: C_17  and  C_33
    7  A    between atoms: C_20  and  C_52
    8  A    between atoms: C_20  and  N_53
    9  A    between atoms: C_23  and  C_33
   10  A    between atoms: C_23  and  C_43
   11  A    between atoms: C_26  and  C_27
   12  A    between atoms: C_27  and  N_45
   13  A    between atoms: C_29  and  C_46
   14  A    between atoms: C_32  and  N_53
   15  A    between atoms: C_38  and  O_54
                            x       y       z     vdW  Elec       q    Type
                         _______ _______ _______ _____ _____    ______ ____

>  <TORSDO>
F 15

$$$$
=
 OpenBabel11042411273D

 55 60  0  0  1  0  0  0  0  0999 V2000
  189.3520  176.7300  141.5950 C   0  0  0  0  0  3  0  0  0  0  0  0
  188.4940  177.0300  142.5750 C   0  0  0  0  0  0  0  0  0  0  0  0
  187.0610  178.3090  141.0500 C   0  0  0  0  0  0  0  0  0  0  0  0
  185.3940  178.6280  139.3240 C   0  0  0  0  0  3  0  0  0  0  0  0
  188.5420  178.3220  135.9980 C   0  0  0  0  0  2  0  0  0  0  0  0
  186.0650  177.9930  135.8890 C   0  0  0  0  0  2  0  0  0  0  0  0
  187.6010  177.7720  138.7350 C   0  0  0  0  0  0  0  0  0  0  0  0
  188.1450  178.2470  140.0020 C   0  0  2  0  0  3  0  0  0  0  0  0
  186.3080  177.9120  138.3860 C   0  0  0  0  0  0  0  0  0  0  0  0
  189.5200  176.5000  139.1740 O   0  0  0  0  0  0  0  0  0  0  0  0
  185.7410  178.8290  140.6060 C   0  0  0  0  0  0  0  0  0  0  0  0
  187.2530  177.7750  142.2600 C   0  0  0  0  0  3  0  0  0  0  0  0
  185.7760  177.2110  137.1620 C   0  0  1  0  0  3  0  0  0  0  0  0
  187.4060  177.5780  135.3070 C   0  0  0  0  0  2  0  0  0  0  0  0
  189.1250  177.2170  140.2660 N   0  0  0  0  0  0  0  0  0  0  0  0
  189.3520  177.4480  136.9690 C   0  0  1  0  0  3  0  0  0  0  0  0
  188.5850  176.8170  138.1470 C   0  0  2  0  0  3  0  0  0  0  0  0
  183.9000  175.6300  137.7590 N   0  0  0  0  0  0  0  0  0  0  0  0
  183.2610  177.5970  136.9060 C   0  0  0  0  0  3  0  0  0  0  0  0
  182.5610  175.7300  137.6640 C   0  0  0  0  0  0  0  0  0  0  0  0
  184.3310  176.8090  137.2760 C   0  0  0  0  0  0  0  0  0  0  0  0
  182.1340  176.9040  137.1540 N   0  0  0  0  0  2  0  0  0  0  0  0
  181.6340  174.6550  138.1140 C   0  0  0  0  0  2  0  0  0  0  0  0
  180.1360  175.4510  139.7160 C   0  0  0  0  0  1  0  0  0  0  0  0
  180.3000  175.2030  138.2930 N   0  0  0  0  0  2  0  0  0  0  0  0
  184.8660  179.3520  142.8680 C   0  0  0  0  0  1  0  0  0  0  0  0
  184.8400  179.4810  141.4550 O   0  0  0  0  0  0  0  0  0  0  0  0
  190.2620  176.4520  136.2510 C   0  0  0  0  0  2  0  0  0  0  0  0
  191.5820  176.4040  136.8610 N   0  0  0  0  0  2  0  0  0  0  0  0
  192.4150  175.5750  136.0030 C   0  0  0  0  0  2  0  0  0  0  0  0
  193.7630  175.3860  136.6220 C   0  0  0  0  0  0  0  0  0  0  0  0
  194.3010  176.3590  137.2170 O   0  0  0  0  0  0  0  0  0  0  0  0
  193.4500  170.6040  135.6390 C   0  0  0  0  0  1  0  0  0  0  0  0
  193.9200  171.7340  136.5390 C   0  0  1  0  0  3  0  0  0  0  0  0
  195.3350  171.4640  137.0650 C   0  0  2  0  0  3  0  0  0  0  0  0
  194.4470  174.1260  136.5340 N   0  0  0  0  0  0  0  0  0  0  0  0
  195.7640  173.9590  137.1450 C   0  0  1  0  0  3  0  0  0  0  0  0
  195.3570  170.2120  137.9250 C   0  0  0  0  0  1  0  0  0  0  0  0
  193.8930  173.0330  135.7390 C   0  0  0  0  0  2  0  0  0  0  0  0
  195.8240  172.6390  137.9120 C   0  0  0  0  0  2  0  0  0  0  0  0
  196.8560  174.0260  136.0900 C   0  0  0  0  0  1  0  0  0  0  0  0
  188.7510  176.5720  143.8660 O   0  0  0  0  0  0  0  0  0  0  0  0
  188.4370  177.3340  144.9720 N   0  0  0  0  0  0  0  0  0  0  0  0
  189.2150  177.3940  146.0090 C   0  0  0  0  0  0  0  0  0  0  0  0
  190.6690  176.0650  147.3420 O   0  0  0  0  0  1  0  0  0  0  0  0
  190.5130  176.6420  146.0800 C   0  0  2  0  0  3  0  0  0  0  0  0
  191.6850  177.5630  145.7690 C   0  0  0  0  0  2  0  0  0  0  0  0
  191.6790  177.9910  144.3350 C   0  0  0  0  0  0  0  0  0  0  0  0
  191.2580  179.3690  143.9740 C   0  0  0  0  0  1  0  0  0  0  0  0
  191.9890  177.2040  143.4570 O   0  0  0  0  0  0  0  0  0  0  0  0
  188.8250  178.2570  147.1580 C   0  0  0  0  0  2  0  0  0  0  0  0
  186.3660  178.3910  146.6150 N   0  0  0  0  0  2  0  0  0  0  0  0
  187.4020  178.0200  147.5260 C   0  0  0  0  0  0  0  0  0  0  0  0
  184.9600  178.2580  146.9550 C   0  0  0  0  0  1  0  0  0  0  0  0
  187.1250  177.5200  148.6470 O   0  0  0  0  0  0  0  0  0  0  0  0
  1  2  2  0  0  0  0
  2 42  1  0  0  0  0
  3 12  2  0  0  0  0
  4 11  2  0  0  0  0
  5 16  1  0  0  0  0
  6 13  1  0  0  0  0
  8  7  1  6  0  0  0
  8 15  1  0  0  0  0
  8  3  1  0  0  0  0
  9  7  2  0  0  0  0
  9  4  1  0  0  0  0
 10 15  1  0  0  0  0
 11  3  1  0  0  0  0
 11 27  1  0  0  0  0
 12  2  1  0  0  0  0
 13 21  1  1  0  0  0
 13  9  1  0  0  0  0
 14  6  1  0  0  0  0
 14  5  1  0  0  0  0
 15  1  1  0  0  0  0
 16 28  1  6  0  0  0
 16 17  1  0  0  0  0
 17  7  1  1  0  0  0
 17 10  1  0  0  0  0
 19 22  1  0  0  0  0
 19 21  2  0  0  0  0
 20 18  2  0  0  0  0
 20 23  1  0  0  0  0
 21 18  1  0  0  0  0
 22 20  1  0  0  0  0
 23 25  1  0  0  0  0
 25 24  1  0  0  0  0
 27 26  1  0  0  0  0
 28 29  1  0  0  0  0
 30 31  1  0  0  0  0
 30 29  1  0  0  0  0
 31 32  2  0  0  0  0
 34 33  1  6  0  0  0
 34 35  1  0  0  0  0
 35 40  1  0  0  0  0
 35 38  1  1  0  0  0
 36 31  1  0  0  0  0
 36 37  1  0  0  0  0
 37 41  1  6  0  0  0
 37 40  1  0  0  0  0
 39 36  1  0  0  0  0
 39 34  1  0  0  0  0
 42 43  1  0  0  0  0
 43 44  2  0  0  0  0
 44 46  1  0  0  0  0
 44 51  1  0  0  0  0
 46 45  1  1  0  0  0
 47 46  1  0  0  0  0
 48 47  1  0  0  0  0
 49 48  1  0  0  0  0
 50 48  2  0  0  0  0
 51 53  1  0  0  0  0
 52 54  1  0  0  0  0
 52 53  1  0  0  0  0
 53 55  2  0  0  0  0
M  END
>  <MODEL>
5

>  <REMARK>
 VINA RESULT:      -6.9      3.339      8.561
  Name = 
  15 active torsions:
  status: ('A' for Active; 'I' for Inactive)
    1  A    between atoms: C_1  and  C_32
    2  A    between atoms: C_4  and  C_43
    3  A    between atoms: N_7  and  O_31
    4  A    between atoms: C_9  and  O_31
    5  A    between atoms: C_17  and  C_22
    6  A    between atoms: C_17  and  C_33
    7  A    between atoms: C_20  and  C_52
    8  A    between atoms: C_20  and  N_53
    9  A    between atoms: C_23  and  C_33
   10  A    between atoms: C_23  and  C_43
   11  A    between atoms: C_26  and  C_27
   12  A    between atoms: C_27  and  N_45
   13  A    between atoms: C_29  and  C_46
   14  A    between atoms: C_32  and  N_53
   15  A    between atoms: C_38  and  O_54
                            x       y       z     vdW  Elec       q    Type
                         _______ _______ _______ _____ _____    ______ ____

>  <TORSDO>
F 15

$$$$
=
 OpenBabel11042411273D

 55 60  0  0  1  0  0  0  0  0999 V2000
  187.9720  178.1890  141.2540 C   0  0  0  0  0  3  0  0  0  0  0  0
  186.7500  178.5790  141.6310 C   0  0  0  0  0  0  0  0  0  0  0  0
  185.9130  178.4870  139.3270 C   0  0  0  0  0  0  0  0  0  0  0  0
  185.0890  177.4280  137.3120 C   0  0  0  0  0  3  0  0  0  0  0  0
  189.3430  176.7760  135.7190 C   0  0  0  0  0  2  0  0  0  0  0  0
  187.2130  175.6160  135.1090 C   0  0  0  0  0  2  0  0  0  0  0  0
  187.4400  177.2050  137.9260 C   0  0  0  0  0  0  0  0  0  0  0  0
  187.3310  178.3420  138.8330 C   0  0  2  0  0  3  0  0  0  0  0  0
  186.4040  176.7300  137.2080 C   0  0  0  0  0  0  0  0  0  0  0  0
  189.1630  176.9900  139.4980 O   0  0  0  0  0  0  0  0  0  0  0  0
  184.8380  178.2770  138.3230 C   0  0  0  0  0  0  0  0  0  0  0  0
  185.6590  178.6410  140.6310 C   0  0  0  0  0  3  0  0  0  0  0  0
  186.5380  175.4280  136.4600 C   0  0  1  0  0  3  0  0  0  0  0  0
  188.7200  175.4690  135.2470 C   0  0  0  0  0  2  0  0  0  0  0  0
  188.2500  177.9330  139.8720 N   0  0  0  0  0  0  0  0  0  0  0  0
  189.7930  176.7520  137.1890 C   0  0  1  0  0  3  0  0  0  0  0  0
  188.7060  176.4850  138.2470 C   0  0  2  0  0  3  0  0  0  0  0  0
  184.5270  174.5190  135.2320 N   0  0  0  0  0  0  0  0  0  0  0  0
  184.6500  173.9830  137.4010 C   0  0  0  0  0  3  0  0  0  0  0  0
  183.4870  173.7600  135.6270 C   0  0  0  0  0  0  0  0  0  0  0  0
  185.2510  174.6550  136.3580 C   0  0  0  0  0  0  0  0  0  0  0  0
  183.5240  173.4150  136.9300 N   0  0  0  0  0  2  0  0  0  0  0  0
  182.4120  173.3160  134.6980 C   0  0  0  0  0  2  0  0  0  0  0  0
  180.2620  174.2130  134.8370 C   0  0  0  0  0  1  0  0  0  0  0  0
  181.1530  173.2220  135.4180 N   0  0  0  0  0  2  0  0  0  0  0  0
  182.4310  178.3880  137.7280 C   0  0  0  0  0  1  0  0  0  0  0  0
  183.5810  178.8870  138.3950 O   0  0  0  0  0  0  0  0  0  0  0  0
  191.0530  175.9150  137.4080 C   0  0  0  0  0  2  0  0  0  0  0  0
  192.1940  176.4780  136.7010 N   0  0  0  0  0  2  0  0  0  0  0  0
  192.8830  175.3690  136.0580 C   0  0  0  0  0  2  0  0  0  0  0  0
  193.5560  174.5180  137.0870 C   0  0  0  0  0  0  0  0  0  0  0  0
  192.8450  173.8180  137.8580 O   0  0  0  0  0  0  0  0  0  0  0  0
  197.8670  175.6230  135.0560 C   0  0  0  0  0  1  0  0  0  0  0  0
  196.9680  174.6340  135.7770 C   0  0  1  0  0  3  0  0  0  0  0  0
  197.7480  173.8630  136.8490 C   0  0  2  0  0  3  0  0  0  0  0  0
  194.9870  174.5010  137.2110 N   0  0  0  0  0  0  0  0  0  0  0  0
  195.6290  173.6630  138.2230 C   0  0  1  0  0  3  0  0  0  0  0  0
  198.8530  173.0350  136.2170 C   0  0  0  0  0  1  0  0  0  0  0  0
  195.8140  175.4030  136.4130 C   0  0  0  0  0  2  0  0  0  0  0  0
  196.8170  172.9210  137.6140 C   0  0  0  0  0  2  0  0  0  0  0  0
  196.0620  174.5010  139.4150 C   0  0  0  0  0  1  0  0  0  0  0  0
  186.5100  178.8540  142.9760 O   0  0  0  0  0  0  0  0  0  0  0  0
  186.9620  178.0130  143.9720 N   0  0  0  0  0  0  0  0  0  0  0  0
  186.5180  178.0880  145.1890 C   0  0  0  0  0  0  0  0  0  0  0  0
  185.7030  179.5010  146.9190 O   0  0  0  0  0  1  0  0  0  0  0  0
  185.4820  179.0930  145.6020 C   0  0  2  0  0  3  0  0  0  0  0  0
  184.0820  178.5110  145.4540 C   0  0  0  0  0  2  0  0  0  0  0  0
  183.3200  179.1910  144.3620 C   0  0  0  0  0  0  0  0  0  0  0  0
  182.0050  178.6520  143.9280 C   0  0  0  0  0  1  0  0  0  0  0  0
  183.7860  180.1680  143.8010 O   0  0  0  0  0  0  0  0  0  0  0  0
  187.0330  177.1310  146.2070 C   0  0  0  0  0  2  0  0  0  0  0  0
  189.4580  177.0060  145.5270 N   0  0  0  0  0  2  0  0  0  0  0  0
  188.4720  177.3930  146.4850 C   0  0  0  0  0  0  0  0  0  0  0  0
  190.8800  177.1630  145.7810 C   0  0  0  0  0  1  0  0  0  0  0  0
  188.8080  177.9280  147.5740 O   0  0  0  0  0  0  0  0  0  0  0  0
  1  2  2  0  0  0  0
  2 42  1  0  0  0  0
  3 12  2  0  0  0  0
  4 11  2  0  0  0  0
  5 16  1  0  0  0  0
  6 14  1  0  0  0  0
  6 13  1  0  0  0  0
  8  7  1  6  0  0  0
  8  3  1  0  0  0  0
  8 15  1  0  0  0  0
  9  4  1  0  0  0  0
  9  7  2  0  0  0  0
 10 15  1  0  0  0  0
 11 27  1  0  0  0  0
 11  3  1  0  0  0  0
 12  2  1  0  0  0  0
 13 21  1  6  0  0  0
 13  9  1  0  0  0  0
 14  5  1  0  0  0  0
 15  1  1  0  0  0  0
 16 28  1  6  0  0  0
 16 17  1  0  0  0  0
 17  7  1  6  0  0  0
 17 10  1  0  0  0  0
 18 20  2  0  0  0  0
 18 21  1  0  0  0  0
 20 22  1  0  0  0  0
 21 19  2  0  0  0  0
 22 19  1  0  0  0  0
 23 25  1  0  0  0  0
 23 20  1  0  0  0  0
 24 25  1  0  0  0  0
 26 27  1  0  0  0  0
 29 28  1  0  0  0  0
 30 29  1  0  0  0  0
 30 31  1  0  0  0  0
 31 36  1  0  0  0  0
 31 32  2  0  0  0  0
 34 33  1  1  0  0  0
 34 39  1  0  0  0  0
 34 35  1  0  0  0  0
 35 38  1  6  0  0  0
 35 40  1  0  0  0  0
 36 37  1  0  0  0  0
 37 41  1  1  0  0  0
 39 36  1  0  0  0  0
 40 37  1  0  0  0  0
 42 43  1  0  0  0  0
 43 44  2  0  0  0  0
 44 46  1  0  0  0  0
 44 51  1  0  0  0  0
 46 45  1  1  0  0  0
 47 46  1  0  0  0  0
 48 47  1  0  0  0  0
 49 48  1  0  0  0  0
 50 48  2  0  0  0  0
 51 53  1  0  0  0  0
 52 54  1  0  0  0  0
 52 53  1  0  0  0  0
 53 55  2  0  0  0  0
M  END
>  <MODEL>
6

>  <REMARK>
 VINA RESULT:      -6.9      3.460      7.579
  Name = 
  15 active torsions:
  status: ('A' for Active; 'I' for Inactive)
    1  A    between atoms: C_1  and  C_32
    2  A    between atoms: C_4  and  C_43
    3  A    between atoms: N_7  and  O_31
    4  A    between atoms: C_9  and  O_31
    5  A    between atoms: C_17  and  C_22
    6  A    between atoms: C_17  and  C_33
    7  A    between atoms: C_20  and  C_52
    8  A    between atoms: C_20  and  N_53
    9  A    between atoms: C_23  and  C_33
   10  A    between atoms: C_23  and  C_43
   11  A    between atoms: C_26  and  C_27
   12  A    between atoms: C_27  and  N_45
   13  A    between atoms: C_29  and  C_46
   14  A    between atoms: C_32  and  N_53
   15  A    between atoms: C_38  and  O_54
                            x       y       z     vdW  Elec       q    Type
                         _______ _______ _______ _____ _____    ______ ____

>  <TORSDO>
F 15

$$$$
=
 OpenBabel11042411273D

 55 60  0  0  1  0  0  0  0  0999 V2000
  189.1420  177.2210  142.1960 C   0  0  0  0  0  3  0  0  0  0  0  0
  188.0490  177.6510  142.8330 C   0  0  0  0  0  0  0  0  0  0  0  0
  187.0480  178.4720  140.7490 C   0  0  0  0  0  0  0  0  0  0  0  0
  185.8950  178.2950  138.6290 C   0  0  0  0  0  3  0  0  0  0  0  0
  189.8190  177.5480  136.3690 C   0  0  0  0  0  2  0  0  0  0  0  0
  187.4670  177.0140  135.7070 C   0  0  0  0  0  2  0  0  0  0  0  0
  188.1950  177.5090  138.8270 C   0  0  0  0  0  0  0  0  0  0  0  0
  188.3730  178.2770  140.0540 C   0  0  2  0  0  3  0  0  0  0  0  0
  187.0390  177.4730  138.1380 C   0  0  0  0  0  0  0  0  0  0  0  0
  189.9520  176.5070  140.0110 O   0  0  0  0  0  0  0  0  0  0  0  0
  185.8840  178.7840  139.8800 C   0  0  0  0  0  0  0  0  0  0  0  0
  186.9220  178.2170  142.0560 C   0  0  0  0  0  3  0  0  0  0  0  0
  186.8650  176.4930  137.0040 C   0  0  1  0  0  3  0  0  0  0  0  0
  188.9230  176.5920  135.5930 C   0  0  0  0  0  2  0  0  0  0  0  0
  189.2670  177.4020  140.7800 N   0  0  0  0  0  0  0  0  0  0  0  0
  190.3580  176.9600  137.6830 C   0  0  1  0  0  3  0  0  0  0  0  0
  189.3180  176.5310  138.7360 C   0  0  2  0  0  3  0  0  0  0  0  0
  184.9400  174.9080  137.4030 N   0  0  0  0  0  0  0  0  0  0  0  0
  184.4900  176.6470  136.0690 C   0  0  0  0  0  3  0  0  0  0  0  0
  183.6680  174.8940  136.9650 C   0  0  0  0  0  0  0  0  0  0  0  0
  185.4490  176.0140  136.8310 C   0  0  0  0  0  0  0  0  0  0  0  0
  183.3560  175.9280  136.1560 N   0  0  0  0  0  2  0  0  0  0  0  0
  182.6850  173.8490  137.3640 C   0  0  0  0  0  2  0  0  0  0  0  0
  180.6240  174.5930  138.1680 C   0  0  0  0  0  1  0  0  0  0  0  0
  181.3500  174.2530  136.9560 N   0  0  0  0  0  2  0  0  0  0  0  0
  183.4560  179.0100  140.3380 C   0  0  0  0  0  1  0  0  0  0  0  0
  184.7770  179.5270  140.3050 O   0  0  0  0  0  0  0  0  0  0  0  0
  191.4450  175.9090  137.4590 C   0  0  0  0  0  2  0  0  0  0  0  0
  192.2920  176.2550  136.3270 N   0  0  0  0  0  2  0  0  0  0  0  0
  192.4030  175.0620  135.5020 C   0  0  0  0  0  2  0  0  0  0  0  0
  193.0990  173.9760  136.2610 C   0  0  0  0  0  0  0  0  0  0  0  0
  192.4220  173.0030  136.6900 O   0  0  0  0  0  0  0  0  0  0  0  0
  197.3830  176.0490  135.1280 C   0  0  0  0  0  1  0  0  0  0  0  0
  196.5540  174.8050  135.3980 C   0  0  1  0  0  3  0  0  0  0  0  0
  197.3440  173.7910  136.2340 C   0  0  2  0  0  3  0  0  0  0  0  0
  194.5120  174.0390  136.5120 N   0  0  0  0  0  0  0  0  0  0  0  0
  195.1760  172.9700  137.2550 C   0  0  1  0  0  3  0  0  0  0  0  0
  198.5730  173.3150  135.4790 C   0  0  0  0  0  1  0  0  0  0  0  0
  195.2840  175.2200  136.1330 C   0  0  0  0  0  2  0  0  0  0  0  0
  196.4760  172.5740  136.5580 C   0  0  0  0  0  2  0  0  0  0  0  0
  195.4360  173.3970  138.6910 C   0  0  0  0  0  1  0  0  0  0  0  0
  187.9610  177.4930  144.2150 O   0  0  0  0  0  0  0  0  0  0  0  0
  189.0720  177.1870  144.9740 N   0  0  0  0  0  0  0  0  0  0  0  0
  189.1610  177.5150  146.2260 C   0  0  0  0  0  0  0  0  0  0  0  0
  188.2720  178.2050  148.3210 O   0  0  0  0  0  1  0  0  0  0  0  0
  188.0630  178.2490  146.9410 C   0  0  2  0  0  3  0  0  0  0  0  0
  186.7050  177.6560  146.5900 C   0  0  0  0  0  2  0  0  0  0  0  0
  185.6440  178.7090  146.5390 C   0  0  0  0  0  0  0  0  0  0  0  0
  184.5630  178.6250  145.5230 C   0  0  0  0  0  1  0  0  0  0  0  0
  185.6800  179.6570  147.3050 O   0  0  0  0  0  0  0  0  0  0  0  0
  190.3790  177.1290  146.9910 C   0  0  0  0  0  2  0  0  0  0  0  0
  191.2570  176.4630  144.7230 N   0  0  0  0  0  2  0  0  0  0  0  0
  191.2860  176.3070  146.1420 C   0  0  0  0  0  0  0  0  0  0  0  0
  192.0600  175.6310  143.8420 C   0  0  0  0  0  1  0  0  0  0  0  0
  192.0470  175.4640  146.6820 O   0  0  0  0  0  0  0  0  0  0  0  0
  1  2  2  0  0  0  0
  2 42  1  0  0  0  0
  3 12  2  0  0  0  0
  4 11  2  0  0  0  0
  5 16  1  0  0  0  0
  6 13  1  0  0  0  0
  8  7  1  6  0  0  0
  8  3  1  0  0  0  0
  8 15  1  0  0  0  0
  9  4  1  0  0  0  0
  9  7  2  0  0  0  0
 10 15  1  0  0  0  0
 11 27  1  0  0  0  0
 11  3  1  0  0  0  0
 12  2  1  0  0  0  0
 13 21  1  6  0  0  0
 13  9  1  0  0  0  0
 14  6  1  0  0  0  0
 14  5  1  0  0  0  0
 15  1  1  0  0  0  0
 16 28  1  6  0  0  0
 16 17  1  0  0  0  0
 17  7  1  1  0  0  0
 17 10  1  0  0  0  0
 19 22  1  0  0  0  0
 19 21  2  0  0  0  0
 20 23  1  0  0  0  0
 20 18  2  0  0  0  0
 21 18  1  0  0  0  0
 22 20  1  0  0  0  0
 25 23  1  0  0  0  0
 25 24  1  0  0  0  0
 27 26  1  0  0  0  0
 29 28  1  0  0  0  0
 30 31  1  0  0  0  0
 30 29  1  0  0  0  0
 31 36  1  0  0  0  0
 31 32  2  0  0  0  0
 34 33  1  1  0  0  0
 34 39  1  0  0  0  0
 34 35  1  0  0  0  0
 35 38  1  6  0  0  0
 35 40  1  0  0  0  0
 36 37  1  0  0  0  0
 37 41  1  1  0  0  0
 39 36  1  0  0  0  0
 40 37  1  0  0  0  0
 42 43  1  0  0  0  0
 43 44  2  0  0  0  0
 44 46  1  0  0  0  0
 44 51  1  0  0  0  0
 46 45  1  1  0  0  0
 47 46  1  0  0  0  0
 48 47  1  0  0  0  0
 48 50  2  0  0  0  0
 49 48  1  0  0  0  0
 52 53  1  0  0  0  0
 53 55  2  0  0  0  0
 53 51  1  0  0  0  0
 54 52  1  0  0  0  0
M  END
>  <MODEL>
7

>  <REMARK>
 VINA RESULT:      -6.8      3.479      8.431
  Name = 
  15 active torsions:
  status: ('A' for Active; 'I' for Inactive)
    1  A    between atoms: C_1  and  C_32
    2  A    between atoms: C_4  and  C_43
    3  A    between atoms: N_7  and  O_31
    4  A    between atoms: C_9  and  O_31
    5  A    between atoms: C_17  and  C_22
    6  A    between atoms: C_17  and  C_33
    7  A    between atoms: C_20  and  C_52
    8  A    between atoms: C_20  and  N_53
    9  A    between atoms: C_23  and  C_33
   10  A    between atoms: C_23  and  C_43
   11  A    between atoms: C_26  and  C_27
   12  A    between atoms: C_27  and  N_45
   13  A    between atoms: C_29  and  C_46
   14  A    between atoms: C_32  and  N_53
   15  A    between atoms: C_38  and  O_54
                            x       y       z     vdW  Elec       q    Type
                         _______ _______ _______ _____ _____    ______ ____

>  <TORSDO>
F 15

$$$$
=
 OpenBabel11042411273D

 55 60  0  0  1  0  0  0  0  0999 V2000
  184.8920  178.8310  139.6920 C   0  0  0  0  0  3  0  0  0  0  0  0
  183.6280  178.6230  139.3130 C   0  0  0  0  0  0  0  0  0  0  0  0
  184.3270  177.8720  137.0850 C   0  0  0  0  0  0  0  0  0  0  0  0
  185.2060  176.3220  135.4460 C   0  0  0  0  0  3  0  0  0  0  0  0
  189.5250  177.6290  136.2850 C   0  0  0  0  0  2  0  0  0  0  0  0
  188.6660  175.5220  135.2470 C   0  0  0  0  0  2  0  0  0  0  0  0
  186.7040  177.3360  137.0830 C   0  0  0  0  0  0  0  0  0  0  0  0
  185.7210  178.3740  137.3690 C   0  0  2  0  0  3  0  0  0  0  0  0
  186.4930  176.3400  136.2020 C   0  0  0  0  0  0  0  0  0  0  0  0
  187.1880  178.1640  139.2210 O   0  0  0  0  0  0  0  0  0  0  0  0
  184.1560  177.0530  135.8560 C   0  0  0  0  0  0  0  0  0  0  0  0
  183.3500  178.0330  137.9830 C   0  0  0  0  0  3  0  0  0  0  0  0
  187.4620  175.1880  136.1170 C   0  0  1  0  0  3  0  0  0  0  0  0
  189.7710  176.1390  136.0880 C   0  0  0  0  0  2  0  0  0  0  0  0
  185.9680  178.5840  138.7780 N   0  0  0  0  0  0  0  0  0  0  0  0
  189.0440  177.9950  137.6980 C   0  0  1  0  0  3  0  0  0  0  0  0
  187.7220  177.3610  138.1730 C   0  0  2  0  0  3  0  0  0  0  0  0
  185.8730  173.2550  136.4550 N   0  0  0  0  0  0  0  0  0  0  0  0
  187.1110  173.1640  134.5940 C   0  0  0  0  0  3  0  0  0  0  0  0
  185.6140  172.1530  135.7270 C   0  0  0  0  0  0  0  0  0  0  0  0
  186.8190  173.8830  135.7340 C   0  0  0  0  0  0  0  0  0  0  0  0
  186.3410  172.0600  134.5950 N   0  0  0  0  0  2  0  0  0  0  0  0
  184.5910  171.1450  136.1220 C   0  0  0  0  0  2  0  0  0  0  0  0
  182.5870  172.1830  135.5290 C   0  0  0  0  0  1  0  0  0  0  0  0
  183.5150  171.1320  135.1450 N   0  0  0  0  0  2  0  0  0  0  0  0
  182.0650  175.8860  135.2080 C   0  0  0  0  0  1  0  0  0  0  0  0
  182.9610  176.9840  135.1320 O   0  0  0  0  0  0  0  0  0  0  0  0
  190.1560  177.9030  138.7440 C   0  0  0  0  0  2  0  0  0  0  0  0
  189.6200  177.9780  140.0950 N   0  0  0  0  0  2  0  0  0  0  0  0
  190.0170  176.7550  140.7750 C   0  0  0  0  0  2  0  0  0  0  0  0
  190.8910  177.0770  141.9450 C   0  0  0  0  0  0  0  0  0  0  0  0
  192.0610  177.4960  141.7330 O   0  0  0  0  0  0  0  0  0  0  0  0
  187.0450  176.4160  144.8940 C   0  0  0  0  0  1  0  0  0  0  0  0
  188.3390  177.1370  144.5630 C   0  0  1  0  0  3  0  0  0  0  0  0
  189.1820  177.3590  145.8250 C   0  0  2  0  0  3  0  0  0  0  0  0
  190.4190  176.9050  143.2900 N   0  0  0  0  0  0  0  0  0  0  0  0
  191.2870  177.2250  144.4220 C   0  0  1  0  0  3  0  0  0  0  0  0
  188.4490  178.2530  146.8100 C   0  0  0  0  0  1  0  0  0  0  0  0
  189.1140  176.3010  143.5500 C   0  0  0  0  0  2  0  0  0  0  0  0
  190.5130  178.0240  145.4690 C   0  0  0  0  0  2  0  0  0  0  0  0
  191.8710  175.9570  145.0250 C   0  0  0  0  0  1  0  0  0  0  0  0
  182.5960  178.9000  140.2070 O   0  0  0  0  0  0  0  0  0  0  0  0
  182.7450  178.6910  141.5620 N   0  0  0  0  0  0  0  0  0  0  0  0
  181.7850  178.9240  142.4040 C   0  0  0  0  0  0  0  0  0  0  0  0
  180.0120  180.4540  142.8190 O   0  0  0  0  0  1  0  0  0  0  0  0
  180.4430  179.4360  141.9650 C   0  0  2  0  0  3  0  0  0  0  0  0
  179.4230  178.3050  141.9280 C   0  0  0  0  0  2  0  0  0  0  0  0
  179.4410  177.5940  140.6130 C   0  0  0  0  0  0  0  0  0  0  0  0
  179.0080  178.3030  139.3810 C   0  0  0  0  0  1  0  0  0  0  0  0
  179.7790  176.4250  140.5500 O   0  0  0  0  0  0  0  0  0  0  0  0
  182.0080  178.6510  143.8500 C   0  0  0  0  0  2  0  0  0  0  0  0
  184.2330  178.6080  145.0380 N   0  0  0  0  0  2  0  0  0  0  0  0
  183.2380  179.3440  144.3250 C   0  0  0  0  0  0  0  0  0  0  0  0
  185.4110  179.2500  145.5950 C   0  0  0  0  0  1  0  0  0  0  0  0
  183.3740  180.5780  144.1190 O   0  0  0  0  0  0  0  0  0  0  0  0
  2  1  2  0  0  0  0
  2 42  1  0  0  0  0
  3  8  1  0  0  0  0
  3 12  2  0  0  0  0
  4 11  2  0  0  0  0
  4  9  1  0  0  0  0
  5 16  1  0  0  0  0
  6 14  1  0  0  0  0
  6 13  1  0  0  0  0
  8  7  1  1  0  0  0
  8 15  1  0  0  0  0
  9  7  2  0  0  0  0
 11  3  1  0  0  0  0
 12  2  1  0  0  0  0
 13 21  1  6  0  0  0
 13  9  1  0  0  0  0
 14  5  1  0  0  0  0
 15 10  1  0  0  0  0
 15  1  1  0  0  0  0
 16 17  1  0  0  0  0
 16 28  1  1  0  0  0
 17  7  1  6  0  0  0
 17 10  1  0  0  0  0
 19 22  1  0  0  0  0
 19 21  2  0  0  0  0
 20 23  1  0  0  0  0
 20 18  2  0  0  0  0
 21 18  1  0  0  0  0
 22 20  1  0  0  0  0
 25 24  1  0  0  0  0
 25 23  1  0  0  0  0
 27 26  1  0  0  0  0
 27 11  1  0  0  0  0
 28 29  1  0  0  0  0
 29 30  1  0  0  0  0
 30 31  1  0  0  0  0
 31 36  1  0  0  0  0
 32 31  2  0  0  0  0
 34 33  1  1  0  0  0
 34 35  1  0  0  0  0
 35 38  1  1  0  0  0
 36 39  1  0  0  0  0
 36 37  1  0  0  0  0
 37 41  1  1  0  0  0
 37 40  1  0  0  0  0
 39 34  1  0  0  0  0
 40 35  1  0  0  0  0
 42 43  1  0  0  0  0
 43 44  2  0  0  0  0
 44 51  1  0  0  0  0
 46 44  1  0  0  0  0
 46 45  1  1  0  0  0
 47 46  1  0  0  0  0
 48 47  1  0  0  0  0
 49 48  1  0  0  0  0
 50 48  2  0  0  0  0
 51 53  1  0  0  0  0
 52 54  1  0  0  0  0
 53 52  1  0  0  0  0
 55 53  2  0  0  0  0
M  END
>  <MODEL>
8

>  <REMARK>
 VINA RESULT:      -6.6      1.992      3.311
  Name = 
  15 active torsions:
  status: ('A' for Active; 'I' for Inactive)
    1  A    between atoms: C_1  and  C_32
    2  A    between atoms: C_4  and  C_43
    3  A    between atoms: N_7  and  O_31
    4  A    between atoms: C_9  and  O_31
    5  A    between atoms: C_17  and  C_22
    6  A    between atoms: C_17  and  C_33
    7  A    between atoms: C_20  and  C_52
    8  A    between atoms: C_20  and  N_53
    9  A    between atoms: C_23  and  C_33
   10  A    between atoms: C_23  and  C_43
   11  A    between atoms: C_26  and  C_27
   12  A    between atoms: C_27  and  N_45
   13  A    between atoms: C_29  and  C_46
   14  A    between atoms: C_32  and  N_53
   15  A    between atoms: C_38  and  O_54
                            x       y       z     vdW  Elec       q    Type
                         _______ _______ _______ _____ _____    ______ ____

>  <TORSDO>
F 15

$$$$
=
 OpenBabel11042411273D

 55 60  0  0  1  0  0  0  0  0999 V2000
  187.8260  178.3600  140.8140 C   0  0  0  0  0  3  0  0  0  0  0  0
  186.9030  178.3800  141.7810 C   0  0  0  0  0  0  0  0  0  0  0  0
  185.0740  178.5560  140.1560 C   0  0  0  0  0  0  0  0  0  0  0  0
  183.5010  177.7560  138.4990 C   0  0  0  0  0  3  0  0  0  0  0  0
  186.5020  178.4170  135.0900 C   0  0  0  0  0  2  0  0  0  0  0  0
  184.4810  176.9460  135.1780 C   0  0  0  0  0  2  0  0  0  0  0  0
  185.8640  177.9570  137.9300 C   0  0  0  0  0  0  0  0  0  0  0  0
  186.0850  178.8370  139.0720 C   0  0  2  0  0  3  0  0  0  0  0  0
  184.6690  177.4100  137.6380 C   0  0  0  0  0  0  0  0  0  0  0  0
  188.1440  177.8340  138.4560 O   0  0  0  0  0  0  0  0  0  0  0  0
  183.6780  178.3090  139.7110 C   0  0  0  0  0  0  0  0  0  0  0  0
  185.4660  178.3870  141.4230 C   0  0  0  0  0  3  0  0  0  0  0  0
  184.5650  176.3460  136.5740 C   0  0  1  0  0  3  0  0  0  0  0  0
  185.8740  177.1220  134.5940 C   0  0  0  0  0  2  0  0  0  0  0  0
  187.4290  178.4510  139.4400 N   0  0  0  0  0  0  0  0  0  0  0  0
  187.6040  178.2050  136.1410 C   0  0  1  0  0  3  0  0  0  0  0  0
  187.1980  177.4950  137.4470 C   0  0  2  0  0  3  0  0  0  0  0  0
  182.1840  175.5070  136.5160 N   0  0  0  0  0  0  0  0  0  0  0  0
  183.6730  174.1060  137.4260 C   0  0  0  0  0  3  0  0  0  0  0  0
  181.6140  174.3610  136.9330 C   0  0  0  0  0  0  0  0  0  0  0  0
  183.4800  175.3360  136.8340 C   0  0  1  0  0  3  0  0  0  0  0  0
  182.4800  173.4880  137.4890 N   0  0  0  0  0  0  0  0  0  0  0  0
  180.1630  174.0710  136.7650 C   0  0  0  0  0  2  0  0  0  0  0  0
  178.9720  174.9470  138.5710 C   0  0  0  0  0  1  0  0  0  0  0  0
  179.5800  173.7320  138.0520 N   0  0  0  0  0  2  0  0  0  0  0  0
  181.4490  179.3510  140.0300 C   0  0  0  0  0  1  0  0  0  0  0  0
  182.5540  178.5910  140.4950 O   0  0  0  0  0  0  0  0  0  0  0  0
  188.8960  177.6500  135.5410 C   0  0  0  0  0  2  0  0  0  0  0  0
  188.6660  176.3800  134.8690 N   0  0  0  0  0  2  0  0  0  0  0  0
  189.1720  175.3380  135.7490 C   0  0  0  0  0  2  0  0  0  0  0  0
  190.6670  175.3090  135.7030 C   0  0  0  0  0  0  0  0  0  0  0  0
  191.2380  175.1320  134.5940 O   0  0  0  0  0  0  0  0  0  0  0  0
  190.7530  176.6830  140.3980 C   0  0  0  0  0  1  0  0  0  0  0  0
  191.3650  176.7100  139.0080 C   0  0  1  0  0  3  0  0  0  0  0  0
  192.8940  176.6120  139.0790 C   0  0  2  0  0  3  0  0  0  0  0  0
  191.4460  175.4660  136.8990 N   0  0  0  0  0  0  0  0  0  0  0  0
  192.9060  175.4350  136.8360 C   0  0  1  0  0  3  0  0  0  0  0  0
  193.4750  177.8090  139.8120 C   0  0  0  0  0  1  0  0  0  0  0  0
  190.7980  175.5430  138.2060 C   0  0  0  0  0  2  0  0  0  0  0  0
  193.4940  176.5700  137.6730 C   0  0  0  0  0  2  0  0  0  0  0  0
  193.4340  174.0870  137.3010 C   0  0  0  0  0  1  0  0  0  0  0  0
  187.3130  178.3210  143.1120 O   0  0  0  0  0  0  0  0  0  0  0  0
  188.6330  178.5050  143.4650 N   0  0  0  0  0  0  0  0  0  0  0  0
  189.1180  178.0430  144.5770 C   0  0  0  0  0  0  0  0  0  0  0  0
  187.2560  176.5980  144.8930 O   0  0  0  0  0  1  0  0  0  0  0  0
  188.2800  177.2770  145.5590 C   0  0  2  0  0  3  0  0  0  0  0  0
  187.7000  178.2100  146.6130 C   0  0  0  0  0  2  0  0  0  0  0  0
  188.1480  177.8290  147.9880 C   0  0  0  0  0  0  0  0  0  0  0  0
  189.4670  178.2910  148.4940 C   0  0  0  0  0  1  0  0  0  0  0  0
  187.4510  177.1120  148.6860 O   0  0  0  0  0  0  0  0  0  0  0  0
  190.5610  178.2560  144.8810 C   0  0  0  0  0  2  0  0  0  0  0  0
  191.6960  176.7820  146.5830 N   0  0  0  0  0  2  0  0  0  0  0  0
  191.2080  176.9680  145.2540 C   0  0  0  0  0  0  0  0  0  0  0  0
  192.4080  175.5790  146.9790 C   0  0  0  0  0  1  0  0  0  0  0  0
  191.3430  176.0660  144.3860 O   0  0  0  0  0  0  0  0  0  0  0  0
  1  2  2  0  0  0  0
  2 42  1  0  0  0  0
  3 12  2  0  0  0  0
  4 11  2  0  0  0  0
  5 16  1  0  0  0  0
  8  7  1  6  0  0  0
  8 15  1  0  0  0  0
  8  3  1  0  0  0  0
  9  7  2  0  0  0  0
  9  4  1  0  0  0  0
 10 15  1  0  0  0  0
 11  3  1  0  0  0  0
 11 27  1  0  0  0  0
 12  2  1  0  0  0  0
 13  6  1  6  0  0  0
 13 21  1  0  0  0  0
 13  9  1  0  0  0  0
 14  5  1  0  0  0  0
 14  6  1  0  0  0  0
 15  1  1  0  0  0  0
 16 28  1  6  0  0  0
 16 17  1  0  0  0  0
 17  7  1  1  0  0  0
 17 10  1  0  0  0  0
 18 21  1  0  0  0  0
 18 20  2  0  0  0  0
 19 22  2  0  0  0  0
 20 22  1  0  0  0  0
 21 19  1  6  0  0  0
 23 20  1  0  0  0  0
 23 25  1  0  0  0  0
 25 24  1  0  0  0  0
 26 27  1  0  0  0  0
 29 28  1  0  0  0  0
 29 30  1  0  0  0  0
 31 30  1  0  0  0  0
 31 36  1  0  0  0  0
 32 31  2  0  0  0  0
 34 35  1  0  0  0  0
 34 33  1  1  0  0  0
 35 38  1  6  0  0  0
 36 39  1  0  0  0  0
 37 36  1  0  0  0  0
 37 41  1  1  0  0  0
 37 40  1  0  0  0  0
 39 34  1  0  0  0  0
 40 35  1  0  0  0  0
 42 43  1  0  0  0  0
 43 44  2  0  0  0  0
 44 51  1  0  0  0  0
 44 46  1  0  0  0  0
 46 45  1  6  0  0  0
 46 47  1  0  0  0  0
 47 48  1  0  0  0  0
 48 49  1  0  0  0  0
 48 50  2  0  0  0  0
 51 53  1  0  0  0  0
 52 54  1  0  0  0  0
 53 52  1  0  0  0  0
 55 53  2  0  0  0  0
M  END
>  <MODEL>
9

>  <REMARK>
 VINA RESULT:      -6.3      2.558      7.864
  Name = 
  15 active torsions:
  status: ('A' for Active; 'I' for Inactive)
    1  A    between atoms: C_1  and  C_32
    2  A    between atoms: C_4  and  C_43
    3  A    between atoms: N_7  and  O_31
    4  A    between atoms: C_9  and  O_31
    5  A    between atoms: C_17  and  C_22
    6  A    between atoms: C_17  and  C_33
    7  A    between atoms: C_20  and  C_52
    8  A    between atoms: C_20  and  N_53
    9  A    between atoms: C_23  and  C_33
   10  A    between atoms: C_23  and  C_43
   11  A    between atoms: C_26  and  C_27
   12  A    between atoms: C_27  and  N_45
   13  A    between atoms: C_29  and  C_46
   14  A    between atoms: C_32  and  N_53
   15  A    between atoms: C_38  and  O_54
                            x       y       z     vdW  Elec       q    Type
                         _______ _______ _______ _____ _____    ______ ____

>  <TORSDO>
F 15

$$$$
