=
 OpenBabel11032419473D

 62 68  0  0  1  0  0  0  0  0999 V2000
  186.8940  178.3250  140.6750 C   0  0  2  0  0  3  0  0  0  0  0  0
  188.4520  177.7530  137.5450 C   0  0  1  0  0  3  0  0  0  0  0  0
  187.0570  177.5800  139.4940 O   0  0  0  0  0  0  0  0  0  0  0  0
  190.3530  176.6060  138.5120 N   0  0  0  0  0  0  0  0  0  0  0  0
  187.7140  177.7420  141.8390 C   0  0  0  0  0  2  0  0  0  0  0  0
  189.8960  177.3440  137.3270 C   0  0  0  0  0  2  0  0  0  0  0  0
  189.1210  178.0910  141.6740 N   0  0  0  0  0  2  0  0  0  0  0  0
  188.3500  177.8660  139.0350 C   0  0  1  0  0  3  0  0  0  0  0  0
  189.2980  176.7950  139.5200 C   0  0  2  0  0  3  0  0  0  0  0  0
  189.8220  177.0170  140.9650 C   0  0  1  0  0  3  0  0  0  0  0  0
  182.7690  178.6410  141.7070 N   0  0  0  0  0  0  0  0  0  0  0  0
  185.4410  178.4270  141.0190 C   0  0  0  0  0  0  0  0  0  0  0  0
  183.1130  178.5940  140.3910 C   0  0  0  0  0  0  0  0  0  0  0  0
  184.4560  178.5000  140.0230 C   0  0  0  0  0  3  0  0  0  0  0  0
  185.0630  178.4800  142.3630 C   0  0  0  0  0  3  0  0  0  0  0  0
  183.7090  178.5900  142.6900 C   0  0  0  0  0  3  0  0  0  0  0  0
  182.0570  178.6250  139.3410 C   0  0  0  0  0  2  0  0  0  0  0  0
  181.6810  180.0000  139.0410 N   0  0  0  0  0  2  0  0  0  0  0  0
  181.1160  181.4610  137.2010 C   0  0  0  0  0  2  0  0  0  0  0  0
  179.8580  180.7310  137.6230 C   0  0  0  0  0  2  0  0  0  0  0  0
  181.1970  180.0240  137.6720 C   0  0  0  0  0  3  0  0  0  0  0  0
  188.1410  179.0550  136.8690 C   0  0  0  0  0  0  0  0  0  0  0  0
  188.4580  180.1190  137.3800 O   0  0  0  0  0  0  0  0  0  0  0  0
  187.4280  179.0500  135.5590 C   0  0  0  0  0  1  0  0  0  0  0  0
  191.3240  177.2610  141.0370 C   0  0  0  0  0  2  0  0  0  0  0  0
  191.6430  178.0690  142.2810 C   0  0  0  0  0  2  0  0  0  0  0  0
  191.7390  177.1560  143.4860 C   0  0  0  0  0  2  0  0  0  0  0  0
  191.1760  177.8810  144.6960 C   0  0  2  0  0  3  0  0  0  0  0  0
  191.6260  177.2550  145.8620 O   0  0  0  0  0  0  0  0  0  0  0  0
  191.6410  175.8910  145.5620 C   0  0  0  0  0  2  0  0  0  0  0  0
  192.3810  175.8150  147.6400 C   0  0  0  0  0  1  0  0  0  0  0  0
  191.5450  175.1540  146.7400 O   0  0  0  0  0  0  0  0  0  0  0  0
  189.7520  177.8660  144.6670 O   0  0  0  0  0  0  0  0  0  0  0  0
  188.7470  178.1660  148.2350 C   0  0  0  0  0  3  0  0  0  0  0  0
  185.2940  178.0100  146.7070 C   0  0  0  0  0  1  0  0  0  0  0  0
  186.7710  178.0430  146.8390 C   0  0  0  0  0  0  0  0  0  0  0  0
  189.5520  178.0810  147.0980 C   0  0  0  0  0  3  0  0  0  0  0  0
  187.5770  177.9630  145.7000 C   0  0  0  0  0  3  0  0  0  0  0  0
  187.3570  178.1420  148.1060 C   0  0  0  0  0  3  0  0  0  0  0  0
  188.9710  177.9740  145.8210 C   0  0  0  0  0  0  0  0  0  0  0  0
  190.4700  175.1900  138.1160 C   0  0  2  0  0  3  0  0  0  0  0  0
  192.8320  175.5890  137.5250 C   0  0  0  0  0  2  0  0  0  0  0  0
  191.9000  174.7360  137.9400 C   0  0  0  0  0  3  0  0  0  0  0  0
  189.6590  174.9430  136.8290 C   0  0  1  0  0  3  0  0  0  0  0  0
  189.9790  174.5900  134.6550 C   0  0  0  0  0  1  0  0  0  0  0  0
  190.3470  174.1250  135.9210 O   0  0  0  0  0  0  0  0  0  0  0  0
  188.2640  174.3950  137.1150 C   0  0  0  0  0  2  0  0  0  0  0  0
  188.1180  172.9270  136.7340 C   0  0  0  0  0  2  0  0  0  0  0  0
  185.0890  171.0700  135.6410 C   0  0  0  0  0  2  0  0  0  0  0  0
  186.8760  172.7300  136.0120 N   0  0  0  0  0  0  0  0  0  0  0  0
  186.1080  173.8750  135.6260 C   0  0  0  0  0  3  0  0  0  0  0  0
  183.9160  172.9620  136.5380 C   0  0  2  0  0  3  0  0  0  0  0  0
  184.1210  175.2160  135.3000 C   0  0  0  0  0  2  0  0  0  0  0  0
  181.8910  174.1070  135.5270 C   0  0  0  0  0  2  0  0  0  0  0  0
  186.5720  171.3950  135.5030 C   0  0  0  0  0  2  0  0  0  0  0  0
  182.5220  172.7630  135.8910 C   0  0  2  0  0  3  0  0  0  0  0  0
  182.8070  174.8970  134.5950 C   0  0  0  0  0  2  0  0  0  0  0  0
  184.7770  173.9560  135.7590 C   0  0  0  0  0  0  0  0  0  0  0  0
  184.5620  171.6830  136.8560 N   0  0  0  0  0  2  0  0  0  0  0  0
  180.6380  172.9400  137.5490 C   0  0  0  0  0  1  0  0  0  0  0  0
  180.7860  171.0780  136.0580 O   0  0  0  0  0  1  0  0  0  0  0  0
  181.5460  171.9950  136.7900 C   0  0  1  0  0  3  0  0  0  0  0  0
  1 12  1  1  0  0  0
  1  5  1  0  0  0  0
  2 22  1  6  0  0  0
  2  8  1  0  0  0  0
  3  1  1  0  0  0  0
  6  2  1  0  0  0  0
  6  4  1  0  0  0  0
  7  5  1  0  0  0  0
  8  3  1  6  0  0  0
  8  9  1  0  0  0  0
  9  4  1  6  0  0  0
  9 10  1  0  0  0  0
 10 25  1  6  0  0  0
 10  7  1  0  0  0  0
 11 16  1  0  0  0  0
 12 15  1  0  0  0  0
 13 11  2  0  0  0  0
 14 13  1  0  0  0  0
 14 12  2  0  0  0  0
 15 16  2  0  0  0  0
 17 13  1  0  0  0  0
 18 17  1  0  0  0  0
 19 20  1  0  0  0  0
 19 21  1  0  0  0  0
 20 21  1  0  0  0  0
 21 18  1  0  0  0  0
 22 23  2  0  0  0  0
 24 22  1  0  0  0  0
 25 26  1  0  0  0  0
 26 27  1  0  0  0  0
 28 27  1  6  0  0  0
 28 29  1  0  0  0  0
 30 29  1  0  0  0  0
 30 32  1  0  0  0  0
 32 31  1  0  0  0  0
 33 28  1  0  0  0  0
 33 40  1  0  0  0  0
 35 36  1  0  0  0  0
 36 39  2  0  0  0  0
 37 34  2  0  0  0  0
 38 40  2  0  0  0  0
 38 36  1  0  0  0  0
 39 34  1  0  0  0  0
 40 37  1  0  0  0  0
 41 43  1  6  0  0  0
 41  4  1  0  0  0  0
 42 43  2  0  0  0  0
 44 47  1  1  0  0  0
 44 41  1  0  0  0  0
 45 46  1  0  0  0  0
 46 44  1  0  0  0  0
 48 47  1  0  0  0  0
 49 59  1  0  0  0  0
 50 48  1  0  0  0  0
 51 58  2  0  0  0  0
 51 50  1  0  0  0  0
 52 58  1  6  0  0  0
 52 59  1  0  0  0  0
 53 58  1  0  0  0  0
 54 56  1  0  0  0  0
 55 49  1  0  0  0  0
 55 50  1  0  0  0  0
 56 52  1  0  0  0  0
 56 62  1  1  0  0  0
 57 53  1  0  0  0  0
 57 54  1  0  0  0  0
 61 62  1  0  0  0  0
 62 60  1  6  0  0  0
M  END
>  <MODEL>
1

>  <REMARK>
 VINA RESULT:      -6.5      0.000      0.000
  Name = 
  22 active torsions:
  status: ('A' for Active; 'I' for Inactive)
    1  A    between atoms: O_1  and  C_17
    2  A    between atoms: O_1  and  C_61
    3  A    between atoms: C_4  and  C_5
    4  A    between atoms: N_8  and  C_18
    5  A    between atoms: C_9  and  C_30
    6  A    between atoms: C_10  and  C_11
    7  A    between atoms: C_16  and  C_59
    8  A    between atoms: C_16  and  C_62
    9  A    between atoms: C_17  and  O_36
   10  A    between atoms: C_17  and  C_62
   11  A    between atoms: C_18  and  C_54
   12  A    between atoms: N_19  and  C_57
   13  A    between atoms: N_21  and  C_30
   14  A    between atoms: N_21  and  C_39
   15  A    between atoms: C_35  and  O_36
   16  A    between atoms: C_35  and  O_42
   17  A    between atoms: C_41  and  C_54
   18  A    between atoms: C_41  and  O_56
   19  A    between atoms: C_41  and  C_57
   20  A    between atoms: C_43  and  C_51
   21  A    between atoms: C_55  and  C_59
   22  A    between atoms: C_57  and  C_60
                            x       y       z     vdW  Elec       q    Type
                         _______ _______ _______ _____ _____    ______ ____

>  <TORSDO>
F 22

$$$$
=
 OpenBabel11032419473D

 62 68  0  0  1  0  0  0  0  0999 V2000
  190.2000  177.3130  140.4920 C   0  0  2  0  0  3  0  0  0  0  0  0
  187.8880  176.6930  137.8790 C   0  0  1  0  0  3  0  0  0  0  0  0
  189.1250  176.5960  139.9380 O   0  0  0  0  0  0  0  0  0  0  0  0
  189.4340  175.3250  136.6110 N   0  0  0  0  0  0  0  0  0  0  0  0
  191.5460  176.6090  140.2460 C   0  0  0  0  0  2  0  0  0  0  0  0
  188.2200  176.1460  136.5040 C   0  0  0  0  0  2  0  0  0  0  0  0
  191.9660  176.8180  138.8640 N   0  0  0  0  0  2  0  0  0  0  0  0
  189.2260  176.7640  138.5500 C   0  0  1  0  0  3  0  0  0  0  0  0
  189.9630  175.5860  137.9590 C   0  0  2  0  0  3  0  0  0  0  0  0
  191.5100  175.7030  138.0300 C   0  0  1  0  0  3  0  0  0  0  0  0
  189.5630  178.0210  144.6480 N   0  0  0  0  0  0  0  0  0  0  0  0
  189.9590  177.5500  141.9500 C   0  0  0  0  0  0  0  0  0  0  0  0
  188.4860  177.7820  143.8520 C   0  0  0  0  0  0  0  0  0  0  0  0
  188.6630  177.5560  142.4860 C   0  0  0  0  0  3  0  0  0  0  0  0
  191.0490  177.8010  142.7870 C   0  0  0  0  0  3  0  0  0  0  0  0
  190.8290  178.0380  144.1470 C   0  0  0  0  0  3  0  0  0  0  0  0
  187.1180  177.7440  144.4390 C   0  0  0  0  0  2  0  0  0  0  0  0
  187.1900  177.6880  145.8920 N   0  0  0  0  0  2  0  0  0  0  0  0
  184.9750  178.4380  145.2860 C   0  0  0  0  0  2  0  0  0  0  0  0
  185.5060  179.3640  146.3600 C   0  0  0  0  0  2  0  0  0  0  0  0
  185.8440  177.8880  146.3980 C   0  0  0  0  0  3  0  0  0  0  0  0
  187.2400  178.0420  137.7940 C   0  0  0  0  0  0  0  0  0  0  0  0
  186.5680  178.4750  138.7190 O   0  0  0  0  0  0  0  0  0  0  0  0
  187.4140  178.8630  136.5620 C   0  0  0  0  0  1  0  0  0  0  0  0
  192.1770  175.7900  136.6630 C   0  0  0  0  0  2  0  0  0  0  0  0
  193.6200  176.2280  136.8340 C   0  0  0  0  0  2  0  0  0  0  0  0
  194.4890  175.5880  135.7700 C   0  0  0  0  0  2  0  0  0  0  0  0
  195.4340  174.6030  136.4370 C   0  0  2  0  0  3  0  0  0  0  0  0
  196.6960  175.1890  136.5660 O   0  0  0  0  0  0  0  0  0  0  0  0
  197.2410  174.6330  137.7250 C   0  0  0  0  0  2  0  0  0  0  0  0
  198.6120  175.1330  139.3810 C   0  0  0  0  0  1  0  0  0  0  0  0
  198.4680  175.2340  137.9980 O   0  0  0  0  0  0  0  0  0  0  0  0
  195.5380  173.4130  135.6630 O   0  0  0  0  0  0  0  0  0  0  0  0
  195.0300  170.3190  137.6650 C   0  0  0  0  0  3  0  0  0  0  0  0
  192.4990  169.6300  134.9430 C   0  0  0  0  0  1  0  0  0  0  0  0
  193.5440  170.3060  135.7520 C   0  0  0  0  0  0  0  0  0  0  0  0
  195.5300  171.5600  137.2640 C   0  0  0  0  0  3  0  0  0  0  0  0
  194.0410  171.5490  135.3530 C   0  0  0  0  0  3  0  0  0  0  0  0
  194.0410  169.6900  136.9050 C   0  0  0  0  0  3  0  0  0  0  0  0
  195.0410  172.1810  136.1010 C   0  0  0  0  0  0  0  0  0  0  0  0
  189.0140  173.9190  136.4620 C   0  0  2  0  0  3  0  0  0  0  0  0
  190.7990  172.9510  135.0620 C   0  0  0  0  0  2  0  0  0  0  0  0
  190.1680  172.9720  136.2320 C   0  0  0  0  0  3  0  0  0  0  0  0
  187.9810  173.8040  135.3230 C   0  0  1  0  0  3  0  0  0  0  0  0
  186.9950  171.8550  134.8970 C   0  0  0  0  0  1  0  0  0  0  0  0
  188.1300  172.6140  134.5960 O   0  0  0  0  0  0  0  0  0  0  0  0
  186.5480  173.9720  135.8160 C   0  0  0  0  0  2  0  0  0  0  0  0
  185.7610  174.9940  135.0050 C   0  0  0  0  0  2  0  0  0  0  0  0
  183.3990  175.2760  137.8610 C   0  0  0  0  0  2  0  0  0  0  0  0
  184.4870  175.2540  135.6470 N   0  0  0  0  0  0  0  0  0  0  0  0
  183.5490  176.1200  135.0030 C   0  0  0  0  0  3  0  0  0  0  0  0
  183.1190  177.5280  137.0780 C   0  0  2  0  0  3  0  0  0  0  0  0
  181.9060  177.8890  134.8300 C   0  0  0  0  0  2  0  0  0  0  0  0
  180.9430  178.8230  136.9400 C   0  0  0  0  0  2  0  0  0  0  0  0
  184.1140  174.4430  136.8040 C   0  0  0  0  0  2  0  0  0  0  0  0
  181.8150  177.9230  137.8150 C   0  0  2  0  0  3  0  0  0  0  0  0
  180.6220  178.1370  135.6150 C   0  0  0  0  0  2  0  0  0  0  0  0
  182.8550  177.0720  135.6440 C   0  0  0  0  0  0  0  0  0  0  0  0
  183.9530  176.6250  137.8820 N   0  0  0  0  0  2  0  0  0  0  0  0
  182.7610  179.9700  138.9320 C   0  0  0  0  0  1  0  0  0  0  0  0
  180.8870  178.8200  139.8690 O   0  0  0  0  0  1  0  0  0  0  0  0
  182.0700  178.6400  139.1470 C   0  0  1  0  0  3  0  0  0  0  0  0
  1 12  1  1  0  0  0
  2 22  1  6  0  0  0
  2  8  1  0  0  0  0
  3  1  1  0  0  0  0
  5  1  1  0  0  0  0
  6  4  1  0  0  0  0
  6  2  1  0  0  0  0
  7  5  1  0  0  0  0
  8  3  1  1  0  0  0
  9  4  1  6  0  0  0
  9 10  1  0  0  0  0
  9  8  1  0  0  0  0
 10 25  1  6  0  0  0
 10  7  1  0  0  0  0
 12 14  2  0  0  0  0
 12 15  1  0  0  0  0
 13 17  1  0  0  0  0
 13 11  2  0  0  0  0
 14 13  1  0  0  0  0
 15 16  2  0  0  0  0
 16 11  1  0  0  0  0
 17 18  1  0  0  0  0
 18 21  1  0  0  0  0
 19 20  1  0  0  0  0
 19 21  1  0  0  0  0
 20 21  1  0  0  0  0
 22 23  2  0  0  0  0
 24 22  1  0  0  0  0
 25 26  1  0  0  0  0
 27 26  1  0  0  0  0
 28 27  1  6  0  0  0
 28 29  1  0  0  0  0
 29 30  1  0  0  0  0
 30 32  1  0  0  0  0
 32 31  1  0  0  0  0
 33 40  1  0  0  0  0
 33 28  1  0  0  0  0
 35 36  1  0  0  0  0
 36 39  1  0  0  0  0
 37 34  1  0  0  0  0
 38 36  2  0  0  0  0
 38 40  1  0  0  0  0
 39 34  2  0  0  0  0
 40 37  2  0  0  0  0
 41 43  1  6  0  0  0
 41  4  1  0  0  0  0
 42 43  2  0  0  0  0
 44 47  1  1  0  0  0
 44 41  1  0  0  0  0
 46 45  1  0  0  0  0
 46 44  1  0  0  0  0
 48 50  1  0  0  0  0
 48 47  1  0  0  0  0
 49 59  1  0  0  0  0
 50 55  1  0  0  0  0
 51 58  2  0  0  0  0
 51 50  1  0  0  0  0
 52 58  1  6  0  0  0
 52 56  1  0  0  0  0
 52 59  1  0  0  0  0
 53 57  1  0  0  0  0
 53 58  1  0  0  0  0
 54 56  1  0  0  0  0
 55 49  1  0  0  0  0
 56 62  1  1  0  0  0
 57 54  1  0  0  0  0
 62 60  1  6  0  0  0
 62 61  1  0  0  0  0
M  END
>  <MODEL>
2

>  <REMARK>
 VINA RESULT:      -6.2      3.142      7.533
  Name = 
  22 active torsions:
  status: ('A' for Active; 'I' for Inactive)
    1  A    between atoms: O_1  and  C_17
    2  A    between atoms: O_1  and  C_61
    3  A    between atoms: C_4  and  C_5
    4  A    between atoms: N_8  and  C_18
    5  A    between atoms: C_9  and  C_30
    6  A    between atoms: C_10  and  C_11
    7  A    between atoms: C_16  and  C_59
    8  A    between atoms: C_16  and  C_62
    9  A    between atoms: C_17  and  O_36
   10  A    between atoms: C_17  and  C_62
   11  A    between atoms: C_18  and  C_54
   12  A    between atoms: N_19  and  C_57
   13  A    between atoms: N_21  and  C_30
   14  A    between atoms: N_21  and  C_39
   15  A    between atoms: C_35  and  O_36
   16  A    between atoms: C_35  and  O_42
   17  A    between atoms: C_41  and  C_54
   18  A    between atoms: C_41  and  O_56
   19  A    between atoms: C_41  and  C_57
   20  A    between atoms: C_43  and  C_51
   21  A    between atoms: C_55  and  C_59
   22  A    between atoms: C_57  and  C_60
                            x       y       z     vdW  Elec       q    Type
                         _______ _______ _______ _____ _____    ______ ____

>  <TORSDO>
F 22

$$$$
=
 OpenBabel11032419473D

 62 68  0  0  1  0  0  0  0  0999 V2000
  184.8450  177.7190  137.1320 C   0  0  2  0  0  3  0  0  0  0  0  0
  182.3570  179.4000  139.0130 C   0  0  1  0  0  3  0  0  0  0  0  0
  184.2950  178.1400  138.3550 O   0  0  0  0  0  0  0  0  0  0  0  0
  180.8330  177.5180  138.9910 N   0  0  0  0  0  0  0  0  0  0  0  0
  184.4220  176.2830  136.7760 C   0  0  0  0  0  2  0  0  0  0  0  0
  180.9090  178.9750  139.1590 C   0  0  0  0  0  2  0  0  0  0  0  0
  183.0460  176.2790  136.2920 N   0  0  0  0  0  2  0  0  0  0  0  0
  182.9310  178.3500  138.1100 C   0  0  1  0  0  3  0  0  0  0  0  0
  182.1590  177.1120  138.4990 C   0  0  2  0  0  3  0  0  0  0  0  0
  182.1280  176.0130  137.4030 C   0  0  1  0  0  3  0  0  0  0  0  0
  189.0820  178.1910  137.2150 N   0  0  0  0  0  0  0  0  0  0  0  0
  186.3340  177.8640  137.1630 C   0  0  0  0  0  0  0  0  0  0  0  0
  188.5270  177.1370  137.8730 C   0  0  0  0  0  0  0  0  0  0  0  0
  187.1420  176.9620  137.8700 C   0  0  0  0  0  3  0  0  0  0  0  0
  186.9270  178.9400  136.4990 C   0  0  0  0  0  3  0  0  0  0  0  0
  188.3160  179.0900  136.5370 C   0  0  0  0  0  3  0  0  0  0  0  0
  189.3970  176.1580  138.5820 C   0  0  0  0  0  2  0  0  0  0  0  0
  190.7690  176.6450  138.6380 N   0  0  0  0  0  2  0  0  0  0  0  0
  192.3670  175.1480  137.6170 C   0  0  0  0  0  2  0  0  0  0  0  0
  192.8900  176.5620  137.4710 C   0  0  0  0  0  2  0  0  0  0  0  0
  191.4020  176.2910  137.3800 C   0  0  0  0  0  3  0  0  0  0  0  0
  182.4720  180.7690  138.4120 C   0  0  0  0  0  0  0  0  0  0  0  0
  183.3550  181.5370  138.7660 O   0  0  0  0  0  0  0  0  0  0  0  0
  181.4930  181.1990  137.3740 C   0  0  0  0  0  1  0  0  0  0  0  0
  180.7340  175.7430  136.8510 C   0  0  0  0  0  2  0  0  0  0  0  0
  180.5110  174.2450  136.7560 C   0  0  0  0  0  2  0  0  0  0  0  0
  181.8410  173.5180  136.7670 C   0  0  0  0  0  2  0  0  0  0  0  0
  181.8010  172.4090  135.7290 C   0  0  2  0  0  3  0  0  0  0  0  0
  180.4960  171.9200  135.6260 O   0  0  0  0  0  0  0  0  0  0  0  0
  180.5440  170.9610  134.6130 C   0  0  0  0  0  2  0  0  0  0  0  0
  179.1890  170.1010  136.1280 C   0  0  0  0  0  1  0  0  0  0  0  0
  179.4840  170.0690  134.7660 O   0  0  0  0  0  0  0  0  0  0  0  0
  182.6790  171.3510  136.0980 O   0  0  0  0  0  0  0  0  0  0  0  0
  186.0900  172.7070  136.7040 C   0  0  0  0  0  3  0  0  0  0  0  0
  187.0650  169.6400  134.7210 C   0  0  0  0  0  1  0  0  0  0  0  0
  186.2430  170.6540  135.4260 C   0  0  0  0  0  0  0  0  0  0  0  0
  184.6990  172.5810  136.7320 C   0  0  0  0  0  3  0  0  0  0  0  0
  184.8520  170.5260  135.4580 C   0  0  0  0  0  3  0  0  0  0  0  0
  186.8610  171.7450  136.0460 C   0  0  0  0  0  3  0  0  0  0  0  0
  184.0700  171.4910  136.1040 C   0  0  0  0  0  0  0  0  0  0  0  0
  180.5580  176.9480  140.3240 C   0  0  2  0  0  3  0  0  0  0  0  0
  179.0210  175.0720  140.7750 C   0  0  0  0  0  2  0  0  0  0  0  0
  179.1760  176.3500  140.4440 C   0  0  0  0  0  3  0  0  0  0  0  0
  180.7800  178.0250  141.4040 C   0  0  1  0  0  3  0  0  0  0  0  0
  179.8800  179.0980  143.1350 C   0  0  0  0  0  1  0  0  0  0  0  0
  179.9290  177.8500  142.5050 O   0  0  0  0  0  0  0  0  0  0  0  0
  182.2380  178.1170  141.8450 C   0  0  0  0  0  2  0  0  0  0  0  0
  182.4150  178.9180  143.1290 C   0  0  0  0  0  2  0  0  0  0  0  0
  185.5600  179.1840  145.0940 C   0  0  0  0  0  2  0  0  0  0  0  0
  183.8230  179.1950  143.3420 N   0  0  0  0  0  0  0  0  0  0  0  0
  184.7220  179.1190  142.2300 C   0  0  0  0  0  3  0  0  0  0  0  0
  186.4200  177.6660  143.4450 C   0  0  2  0  0  3  0  0  0  0  0  0
  186.7490  178.5420  141.0420 C   0  0  0  0  0  2  0  0  0  0  0  0
  188.7130  177.7430  142.3650 C   0  0  0  0  0  2  0  0  0  0  0  0
  184.2330  179.7670  144.6220 C   0  0  0  0  0  2  0  0  0  0  0  0
  187.9420  177.8230  143.6830 C   0  0  2  0  0  3  0  0  0  0  0  0
  188.2130  178.7990  141.3840 C   0  0  0  0  0  2  0  0  0  0  0  0
  185.9250  178.5310  142.2870 C   0  0  0  0  0  0  0  0  0  0  0  0
  185.6530  177.7850  144.6920 N   0  0  0  0  0  2  0  0  0  0  0  0
  189.9570  176.4580  144.3210 C   0  0  0  0  0  1  0  0  0  0  0  0
  188.3920  177.1780  145.9780 O   0  0  0  0  0  1  0  0  0  0  0  0
  188.5120  176.7730  144.6450 C   0  0  1  0  0  3  0  0  0  0  0  0
  1 12  1  1  0  0  0
  1  3  1  0  0  0  0
  2 22  1  6  0  0  0
  2  6  1  0  0  0  0
  4  6  1  0  0  0  0
  4 41  1  0  0  0  0
  5  1  1  0  0  0  0
  7  5  1  0  0  0  0
  7 10  1  0  0  0  0
  8  3  1  1  0  0  0
  8  9  1  0  0  0  0
  8  2  1  0  0  0  0
  9  4  1  6  0  0  0
 10 25  1  6  0  0  0
 10  9  1  0  0  0  0
 11 13  1  0  0  0  0
 12 14  1  0  0  0  0
 13 17  1  0  0  0  0
 14 13  2  0  0  0  0
 15 16  1  0  0  0  0
 15 12  2  0  0  0  0
 16 11  2  0  0  0  0
 17 18  1  0  0  0  0
 20 19  1  0  0  0  0
 21 20  1  0  0  0  0
 21 19  1  0  0  0  0
 21 18  1  0  0  0  0
 22 23  2  0  0  0  0
 24 22  1  0  0  0  0
 26 27  1  0  0  0  0
 26 25  1  0  0  0  0
 28 33  1  0  0  0  0
 28 27  1  1  0  0  0
 29 28  1  0  0  0  0
 30 32  1  0  0  0  0
 30 29  1  0  0  0  0
 32 31  1  0  0  0  0
 33 40  1  0  0  0  0
 34 37  1  0  0  0  0
 35 36  1  0  0  0  0
 36 38  2  0  0  0  0
 36 39  1  0  0  0  0
 38 40  1  0  0  0  0
 39 34  2  0  0  0  0
 40 37  2  0  0  0  0
 41 43  1  6  0  0  0
 41 44  1  0  0  0  0
 43 42  2  0  0  0  0
 44 47  1  1  0  0  0
 44 46  1  0  0  0  0
 46 45  1  0  0  0  0
 47 48  1  0  0  0  0
 48 50  1  0  0  0  0
 50 55  1  0  0  0  0
 51 58  2  0  0  0  0
 51 50  1  0  0  0  0
 52 58  1  6  0  0  0
 52 56  1  0  0  0  0
 52 59  1  0  0  0  0
 53 57  1  0  0  0  0
 53 58  1  0  0  0  0
 54 56  1  0  0  0  0
 55 49  1  0  0  0  0
 56 62  1  1  0  0  0
 57 54  1  0  0  0  0
 59 49  1  0  0  0  0
 62 60  1  6  0  0  0
 62 61  1  0  0  0  0
M  END
>  <MODEL>
3

>  <REMARK>
 VINA RESULT:      -5.4      2.482     10.938
  Name = 
  22 active torsions:
  status: ('A' for Active; 'I' for Inactive)
    1  A    between atoms: O_1  and  C_17
    2  A    between atoms: O_1  and  C_61
    3  A    between atoms: C_4  and  C_5
    4  A    between atoms: N_8  and  C_18
    5  A    between atoms: C_9  and  C_30
    6  A    between atoms: C_10  and  C_11
    7  A    between atoms: C_16  and  C_59
    8  A    between atoms: C_16  and  C_62
    9  A    between atoms: C_17  and  O_36
   10  A    between atoms: C_17  and  C_62
   11  A    between atoms: C_18  and  C_54
   12  A    between atoms: N_19  and  C_57
   13  A    between atoms: N_21  and  C_30
   14  A    between atoms: N_21  and  C_39
   15  A    between atoms: C_35  and  O_36
   16  A    between atoms: C_35  and  O_42
   17  A    between atoms: C_41  and  C_54
   18  A    between atoms: C_41  and  O_56
   19  A    between atoms: C_41  and  C_57
   20  A    between atoms: C_43  and  C_51
   21  A    between atoms: C_55  and  C_59
   22  A    between atoms: C_57  and  C_60
                            x       y       z     vdW  Elec       q    Type
                         _______ _______ _______ _____ _____    ______ ____

>  <TORSDO>
F 22

$$$$
=
 OpenBabel11032419473D

 62 68  0  0  1  0  0  0  0  0999 V2000
  189.6900  177.4370  140.4930 C   0  0  2  0  0  3  0  0  0  0  0  0
  187.7190  176.6840  137.6470 C   0  0  1  0  0  3  0  0  0  0  0  0
  188.7090  176.6730  139.8360 O   0  0  0  0  0  0  0  0  0  0  0  0
  189.4430  175.3430  136.6000 N   0  0  0  0  0  0  0  0  0  0  0  0
  191.0770  176.7750  140.4210 C   0  0  0  0  0  2  0  0  0  0  0  0
  188.2250  176.1200  136.3330 C   0  0  0  0  0  2  0  0  0  0  0  0
  191.6480  176.9680  139.0930 N   0  0  0  0  0  2  0  0  0  0  0  0
  188.9670  176.8150  138.4660 C   0  0  1  0  0  3  0  0  0  0  0  0
  189.8040  175.6500  137.9930 C   0  0  2  0  0  3  0  0  0  0  0  0
  191.3270  175.8210  138.2400 C   0  0  1  0  0  3  0  0  0  0  0  0
  188.4550  178.1520  144.5110 N   0  0  0  0  0  0  0  0  0  0  0  0
  189.2740  177.6970  141.9070 C   0  0  0  0  0  0  0  0  0  0  0  0
  189.7840  178.0260  144.2470 C   0  0  0  0  0  0  0  0  0  0  0  0
  190.2170  177.7830  142.9420 C   0  0  0  0  0  3  0  0  0  0  0  0
  187.9160  177.8270  142.2030 C   0  0  0  0  0  3  0  0  0  0  0  0
  187.5210  178.0550  143.5240 C   0  0  0  0  0  3  0  0  0  0  0  0
  190.7790  178.1650  145.3450 C   0  0  0  0  0  2  0  0  0  0  0  0
  191.6270  176.9830  145.4140 N   0  0  0  0  0  2  0  0  0  0  0  0
  191.9350  175.3190  147.1390 C   0  0  0  0  0  2  0  0  0  0  0  0
  190.8090  176.2360  147.5680 C   0  0  0  0  0  2  0  0  0  0  0  0
  191.9930  176.7960  146.8060 C   0  0  0  0  0  3  0  0  0  0  0  0
  187.0430  178.0080  137.4530 C   0  0  0  0  0  0  0  0  0  0  0  0
  186.4780  178.5660  138.3820 O   0  0  0  0  0  0  0  0  0  0  0  0
  187.0570  178.6500  136.1070 C   0  0  0  0  0  1  0  0  0  0  0  0
  192.1460  175.9010  136.9570 C   0  0  0  0  0  2  0  0  0  0  0  0
  193.5320  176.4280  137.2780 C   0  0  0  0  0  2  0  0  0  0  0  0
  194.5260  175.9480  136.2390 C   0  0  0  0  0  2  0  0  0  0  0  0
  195.4280  174.9020  136.8700 C   0  0  2  0  0  3  0  0  0  0  0  0
  196.7000  175.4480  137.0690 O   0  0  0  0  0  0  0  0  0  0  0  0
  197.3110  175.4180  135.8140 C   0  0  0  0  0  2  0  0  0  0  0  0
  199.0220  174.3520  134.9180 C   0  0  0  0  0  1  0  0  0  0  0  0
  198.6790  175.2030  135.9670 O   0  0  0  0  0  0  0  0  0  0  0  0
  195.5270  173.7580  136.0290 O   0  0  0  0  0  0  0  0  0  0  0  0
  195.2930  170.6110  137.9980 C   0  0  0  0  0  3  0  0  0  0  0  0
  192.9120  169.6900  135.2110 C   0  0  0  0  0  1  0  0  0  0  0  0
  193.8620  170.4620  136.0490 C   0  0  0  0  0  0  0  0  0  0  0  0
  195.6720  171.9000  137.6170 C   0  0  0  0  0  3  0  0  0  0  0  0
  194.2380  171.7530  135.6700 C   0  0  0  0  0  3  0  0  0  0  0  0
  194.3920  169.8910  137.2110 C   0  0  0  0  0  3  0  0  0  0  0  0
  195.1500  172.4780  136.4460 C   0  0  0  0  0  0  0  0  0  0  0  0
  189.0870  173.9210  136.4390 C   0  0  2  0  0  3  0  0  0  0  0  0
  191.0810  173.4500  135.0640 C   0  0  0  0  0  2  0  0  0  0  0  0
  190.2560  173.0560  136.0290 C   0  0  0  0  0  3  0  0  0  0  0  0
  187.9310  173.7870  135.4280 C   0  0  1  0  0  3  0  0  0  0  0  0
  187.2060  171.7070  135.1060 C   0  0  0  0  0  1  0  0  0  0  0  0
  188.0860  172.6680  134.5960 O   0  0  0  0  0  0  0  0  0  0  0  0
  186.5630  173.7860  136.1030 C   0  0  0  0  0  2  0  0  0  0  0  0
  185.5050  174.5200  135.2890 C   0  0  0  0  0  2  0  0  0  0  0  0
  183.3900  175.2090  138.2680 C   0  0  0  0  0  2  0  0  0  0  0  0
  184.2700  174.5940  136.0470 N   0  0  0  0  0  0  0  0  0  0  0  0
  183.0320  174.7340  135.3430 C   0  0  0  0  0  3  0  0  0  0  0  0
  182.2070  176.6690  136.7740 C   0  0  2  0  0  3  0  0  0  0  0  0
  180.8220  175.6030  134.8780 C   0  0  0  0  0  2  0  0  0  0  0  0
  179.6940  176.9790  136.6340 C   0  0  0  0  0  2  0  0  0  0  0  0
  184.3110  174.2890  137.4750 C   0  0  0  0  0  2  0  0  0  0  0  0
  180.8980  176.8890  137.5720 C   0  0  2  0  0  3  0  0  0  0  0  0
  179.5900  175.7260  135.7690 C   0  0  0  0  0  2  0  0  0  0  0  0
  182.0590  175.5800  135.7120 C   0  0  0  0  0  0  0  0  0  0  0  0
  183.3730  176.5330  137.6570 N   0  0  0  0  0  2  0  0  0  0  0  0
  181.9570  179.1410  137.9420 C   0  0  0  0  0  1  0  0  0  0  0  0
  179.6700  178.7530  138.5220 O   0  0  0  0  0  1  0  0  0  0  0  0
  180.9290  178.1490  138.4450 C   0  0  1  0  0  3  0  0  0  0  0  0
  1 12  1  1  0  0  0
  2 22  1  6  0  0  0
  2  8  1  0  0  0  0
  3  1  1  0  0  0  0
  5  1  1  0  0  0  0
  6  4  1  0  0  0  0
  6  2  1  0  0  0  0
  7  5  1  0  0  0  0
  8  3  1  1  0  0  0
  9  4  1  6  0  0  0
  9 10  1  0  0  0  0
  9  8  1  0  0  0  0
 10 25  1  6  0  0  0
 10  7  1  0  0  0  0
 12 15  2  0  0  0  0
 12 14  1  0  0  0  0
 13 11  1  0  0  0  0
 13 17  1  0  0  0  0
 14 13  2  0  0  0  0
 15 16  1  0  0  0  0
 16 11  2  0  0  0  0
 17 18  1  0  0  0  0
 18 21  1  0  0  0  0
 19 20  1  0  0  0  0
 21 19  1  0  0  0  0
 21 20  1  0  0  0  0
 22 23  2  0  0  0  0
 24 22  1  0  0  0  0
 25 26  1  0  0  0  0
 27 26  1  0  0  0  0
 28 27  1  6  0  0  0
 28 29  1  0  0  0  0
 30 32  1  0  0  0  0
 30 29  1  0  0  0  0
 31 32  1  0  0  0  0
 33 40  1  0  0  0  0
 33 28  1  0  0  0  0
 35 36  1  0  0  0  0
 36 39  1  0  0  0  0
 37 34  1  0  0  0  0
 38 36  2  0  0  0  0
 38 40  1  0  0  0  0
 39 34  2  0  0  0  0
 40 37  2  0  0  0  0
 41 43  1  6  0  0  0
 41  4  1  0  0  0  0
 42 43  2  0  0  0  0
 44 47  1  1  0  0  0
 44 41  1  0  0  0  0
 46 45  1  0  0  0  0
 46 44  1  0  0  0  0
 48 50  1  0  0  0  0
 48 47  1  0  0  0  0
 50 55  1  0  0  0  0
 51 58  2  0  0  0  0
 51 50  1  0  0  0  0
 52 58  1  1  0  0  0
 52 56  1  0  0  0  0
 52 59  1  0  0  0  0
 53 58  1  0  0  0  0
 53 57  1  0  0  0  0
 54 56  1  0  0  0  0
 55 49  1  0  0  0  0
 56 62  1  6  0  0  0
 57 54  1  0  0  0  0
 59 49  1  0  0  0  0
 62 60  1  6  0  0  0
 62 61  1  0  0  0  0
M  END
>  <MODEL>
4

>  <REMARK>
 VINA RESULT:      -5.4      3.198      8.025
  Name = 
  22 active torsions:
  status: ('A' for Active; 'I' for Inactive)
    1  A    between atoms: O_1  and  C_17
    2  A    between atoms: O_1  and  C_61
    3  A    between atoms: C_4  and  C_5
    4  A    between atoms: N_8  and  C_18
    5  A    between atoms: C_9  and  C_30
    6  A    between atoms: C_10  and  C_11
    7  A    between atoms: C_16  and  C_59
    8  A    between atoms: C_16  and  C_62
    9  A    between atoms: C_17  and  O_36
   10  A    between atoms: C_17  and  C_62
   11  A    between atoms: C_18  and  C_54
   12  A    between atoms: N_19  and  C_57
   13  A    between atoms: N_21  and  C_30
   14  A    between atoms: N_21  and  C_39
   15  A    between atoms: C_35  and  O_36
   16  A    between atoms: C_35  and  O_42
   17  A    between atoms: C_41  and  C_54
   18  A    between atoms: C_41  and  O_56
   19  A    between atoms: C_41  and  C_57
   20  A    between atoms: C_43  and  C_51
   21  A    between atoms: C_55  and  C_59
   22  A    between atoms: C_57  and  C_60
                            x       y       z     vdW  Elec       q    Type
                         _______ _______ _______ _____ _____    ______ ____

>  <TORSDO>
F 22

$$$$
=
 OpenBabel11032419473D

 62 68  0  0  1  0  0  0  0  0999 V2000
  186.1050  174.7680  136.4590 C   0  0  2  0  0  3  0  0  0  0  0  0
  186.9700  178.1870  136.8020 C   0  0  1  0  0  3  0  0  0  0  0  0
  186.9240  175.7900  136.9700 O   0  0  0  0  0  0  0  0  0  0  0  0
  185.3890  178.5800  138.5940 N   0  0  0  0  0  0  0  0  0  0  0  0
  185.0170  174.3480  137.4640 C   0  0  0  0  0  2  0  0  0  0  0  0
  186.1680  179.2420  137.5390 C   0  0  0  0  0  2  0  0  0  0  0  0
  183.9550  175.3490  137.4880 N   0  0  0  0  0  2  0  0  0  0  0  0
  186.1390  176.9510  136.9640 C   0  0  1  0  0  3  0  0  0  0  0  0
  185.5180  177.1380  138.3280 C   0  0  2  0  0  3  0  0  0  0  0  0
  184.2140  176.3250  138.5490 C   0  0  1  0  0  3  0  0  0  0  0  0
  188.4510  171.4310  135.2170 N   0  0  0  0  0  0  0  0  0  0  0  0
  186.9440  173.6030  136.0350 C   0  0  0  0  0  0  0  0  0  0  0  0
  189.0850  172.5770  135.5860 C   0  0  0  0  0  0  0  0  0  0  0  0
  188.3430  173.6880  135.9890 C   0  0  0  0  0  3  0  0  0  0  0  0
  186.3150  172.4180  135.6480 C   0  0  0  0  0  3  0  0  0  0  0  0
  187.0930  171.3320  135.2370 C   0  0  0  0  0  3  0  0  0  0  0  0
  190.5730  172.6420  135.5780 C   0  0  0  0  0  2  0  0  0  0  0  0
  191.0240  173.9800  135.9330 N   0  0  0  0  0  2  0  0  0  0  0  0
  191.9950  175.0240  137.8840 C   0  0  0  0  0  2  0  0  0  0  0  0
  193.0620  174.9500  136.8120 C   0  0  0  0  0  2  0  0  0  0  0  0
  192.0500  173.8320  136.9500 C   0  0  0  0  0  3  0  0  0  0  0  0
  187.1540  178.5440  135.3580 C   0  0  0  0  0  0  0  0  0  0  0  0
  186.3770  179.3010  134.7940 O   0  0  0  0  0  0  0  0  0  0  0  0
  188.2980  177.9620  134.5980 C   0  0  0  0  0  1  0  0  0  0  0  0
  182.9790  177.1960  138.7450 C   0  0  0  0  0  2  0  0  0  0  0  0
  182.3710  177.5170  137.3920 C   0  0  0  0  0  2  0  0  0  0  0  0
  181.3030  178.5820  137.5390 C   0  0  0  0  0  2  0  0  0  0  0  0
  179.9960  178.0440  136.9810 C   0  0  2  0  0  3  0  0  0  0  0  0
  179.1730  179.1150  136.6200 O   0  0  0  0  0  0  0  0  0  0  0  0
  180.0320  180.2060  136.4810 C   0  0  0  0  0  2  0  0  0  0  0  0
  180.4840  182.0170  135.3030 C   0  0  0  0  0  1  0  0  0  0  0  0
  179.4410  181.1610  135.6560 O   0  0  0  0  0  0  0  0  0  0  0  0
  179.3340  177.2410  137.9520 O   0  0  0  0  0  0  0  0  0  0  0  0
  180.0080  173.8440  139.3090 C   0  0  0  0  0  3  0  0  0  0  0  0
  179.5100  172.8950  135.6840 C   0  0  0  0  0  1  0  0  0  0  0  0
  179.6060  173.7050  136.9240 C   0  0  0  0  0  0  0  0  0  0  0  0
  179.8130  175.2250  139.2580 C   0  0  0  0  0  3  0  0  0  0  0  0
  179.4050  175.0860  136.8740 C   0  0  0  0  0  3  0  0  0  0  0  0
  179.9100  173.0850  138.1410 C   0  0  0  0  0  3  0  0  0  0  0  0
  179.5140  175.8570  138.0370 C   0  0  0  0  0  0  0  0  0  0  0  0
  186.0120  178.9460  139.8800 C   0  0  2  0  0  3  0  0  0  0  0  0
  188.3380  178.1580  140.1110 C   0  0  0  0  0  2  0  0  0  0  0  0
  187.0460  177.9500  140.3470 C   0  0  0  0  0  3  0  0  0  0  0  0
  184.9190  179.1380  140.9490 C   0  0  1  0  0  3  0  0  0  0  0  0
  182.7600  178.9760  141.4660 C   0  0  0  0  0  1  0  0  0  0  0  0
  183.6330  179.1620  140.3890 O   0  0  0  0  0  0  0  0  0  0  0  0
  185.0120  178.1060  142.0700 C   0  0  0  0  0  2  0  0  0  0  0  0
  185.2950  178.7360  143.4280 C   0  0  0  0  0  2  0  0  0  0  0  0
  188.0990  176.3680  144.0190 C   0  0  0  0  0  2  0  0  0  0  0  0
  186.1380  177.8530  144.2100 N   0  0  0  0  0  0  0  0  0  0  0  0
  186.2330  178.0550  145.6240 C   0  0  0  0  0  3  0  0  0  0  0  0
  188.7750  177.9770  145.6670 C   0  0  2  0  0  3  0  0  0  0  0  0
  187.3180  178.2380  147.7790 C   0  0  0  0  0  2  0  0  0  0  0  0
  189.6930  177.4830  147.9790 C   0  0  0  0  0  2  0  0  0  0  0  0
  186.6700  176.6520  143.5710 C   0  0  0  0  0  2  0  0  0  0  0  0
  189.7760  177.1320  146.4930 C   0  0  2  0  0  3  0  0  0  0  0  0
  188.2710  177.2890  148.4990 C   0  0  0  0  0  2  0  0  0  0  0  0
  187.3870  178.0140  146.3050 C   0  0  0  0  0  0  0  0  0  0  0  0
  188.8040  177.6250  144.2410 N   0  0  0  0  0  2  0  0  0  0  0  0
  191.8780  175.9610  145.7580 C   0  0  0  0  0  1  0  0  0  0  0  0
  191.3210  178.1240  144.9080 O   0  0  0  0  0  1  0  0  0  0  0  0
  191.2290  177.3010  146.0340 C   0  0  1  0  0  3  0  0  0  0  0  0
  1 12  1  1  0  0  0
  1  3  1  0  0  0  0
  1  5  1  0  0  0  0
  2 22  1  6  0  0  0
  2  8  1  0  0  0  0
  2  6  1  0  0  0  0
  4 41  1  0  0  0  0
  5  7  1  0  0  0  0
  6  4  1  0  0  0  0
  7 10  1  0  0  0  0
  8  3  1  1  0  0  0
  8  9  1  0  0  0  0
  9 10  1  0  0  0  0
  9  4  1  6  0  0  0
 10 25  1  6  0  0  0
 11 16  2  0  0  0  0
 11 13  1  0  0  0  0
 13 14  2  0  0  0  0
 14 12  1  0  0  0  0
 15 12  2  0  0  0  0
 16 15  1  0  0  0  0
 17 13  1  0  0  0  0
 17 18  1  0  0  0  0
 18 21  1  0  0  0  0
 20 21  1  0  0  0  0
 20 19  1  0  0  0  0
 21 19  1  0  0  0  0
 23 22  2  0  0  0  0
 24 22  1  0  0  0  0
 26 27  1  0  0  0  0
 26 25  1  0  0  0  0
 28 27  1  1  0  0  0
 28 33  1  0  0  0  0
 29 28  1  0  0  0  0
 30 29  1  0  0  0  0
 31 32  1  0  0  0  0
 32 30  1  0  0  0  0
 33 40  1  0  0  0  0
 35 36  1  0  0  0  0
 36 39  1  0  0  0  0
 37 34  1  0  0  0  0
 38 36  2  0  0  0  0
 38 40  1  0  0  0  0
 39 34  2  0  0  0  0
 40 37  2  0  0  0  0
 41 43  1  1  0  0  0
 41 44  1  0  0  0  0
 42 43  2  0  0  0  0
 44 47  1  1  0  0  0
 46 44  1  0  0  0  0
 46 45  1  0  0  0  0
 47 48  1  0  0  0  0
 48 50  1  0  0  0  0
 49 59  1  0  0  0  0
 50 51  1  0  0  0  0
 51 58  2  0  0  0  0
 52 59  1  6  0  0  0
 52 58  1  0  0  0  0
 52 56  1  0  0  0  0
 53 57  1  0  0  0  0
 54 57  1  0  0  0  0
 55 49  1  0  0  0  0
 55 50  1  0  0  0  0
 56 62  1  6  0  0  0
 56 54  1  0  0  0  0
 58 53  1  0  0  0  0
 61 62  1  0  0  0  0
 62 60  1  6  0  0  0
M  END
>  <MODEL>
5

>  <REMARK>
 VINA RESULT:      -4.7      2.661     10.848
  Name = 
  22 active torsions:
  status: ('A' for Active; 'I' for Inactive)
    1  A    between atoms: O_1  and  C_17
    2  A    between atoms: O_1  and  C_61
    3  A    between atoms: C_4  and  C_5
    4  A    between atoms: N_8  and  C_18
    5  A    between atoms: C_9  and  C_30
    6  A    between atoms: C_10  and  C_11
    7  A    between atoms: C_16  and  C_59
    8  A    between atoms: C_16  and  C_62
    9  A    between atoms: C_17  and  O_36
   10  A    between atoms: C_17  and  C_62
   11  A    between atoms: C_18  and  C_54
   12  A    between atoms: N_19  and  C_57
   13  A    between atoms: N_21  and  C_30
   14  A    between atoms: N_21  and  C_39
   15  A    between atoms: C_35  and  O_36
   16  A    between atoms: C_35  and  O_42
   17  A    between atoms: C_41  and  C_54
   18  A    between atoms: C_41  and  O_56
   19  A    between atoms: C_41  and  C_57
   20  A    between atoms: C_43  and  C_51
   21  A    between atoms: C_55  and  C_59
   22  A    between atoms: C_57  and  C_60
                            x       y       z     vdW  Elec       q    Type
                         _______ _______ _______ _____ _____    ______ ____

>  <TORSDO>
F 22

$$$$
=
 OpenBabel11032419473D

 62 68  0  0  1  0  0  0  0  0999 V2000
  188.9550  177.6170  140.5050 C   0  0  2  0  0  3  0  0  0  0  0  0
  187.5620  176.7630  137.3610 C   0  0  1  0  0  3  0  0  0  0  0  0
  188.1750  176.7830  139.6850 O   0  0  0  0  0  0  0  0  0  0  0  0
  189.5570  175.6200  136.6000 N   0  0  0  0  0  0  0  0  0  0  0  0
  190.3920  177.0900  140.6580 C   0  0  0  0  0  2  0  0  0  0  0  0
  188.3300  176.2860  136.1440 C   0  0  0  0  0  2  0  0  0  0  0  0
  191.1530  177.3740  139.4450 N   0  0  0  0  0  2  0  0  0  0  0  0
  188.6390  176.9870  138.3780 C   0  0  1  0  0  3  0  0  0  0  0  0
  189.6520  175.9190  138.0380 C   0  0  2  0  0  3  0  0  0  0  0  0
  191.0900  176.2260  138.5370 C   0  0  1  0  0  3  0  0  0  0  0  0
  187.0050  178.1280  144.2620 N   0  0  0  0  0  0  0  0  0  0  0  0
  188.2890  177.7970  141.8330 C   0  0  0  0  0  0  0  0  0  0  0  0
  188.2190  177.5140  144.2330 C   0  0  0  0  0  0  0  0  0  0  0  0
  188.8770  177.3250  143.0160 C   0  0  0  0  0  3  0  0  0  0  0  0
  187.0400  178.4210  141.8890 C   0  0  0  0  0  3  0  0  0  0  0  0
  186.4070  178.5780  143.1250 C   0  0  0  0  0  3  0  0  0  0  0  0
  188.8570  177.0590  145.4990 C   0  0  0  0  0  2  0  0  0  0  0  0
  189.0530  178.1850  146.4010 N   0  0  0  0  0  2  0  0  0  0  0  0
  187.8130  177.5110  148.3620 C   0  0  0  0  0  2  0  0  0  0  0  0
  188.7100  178.6670  148.7500 C   0  0  0  0  0  2  0  0  0  0  0  0
  189.1880  177.6430  147.7420 C   0  0  0  0  0  3  0  0  0  0  0  0
  186.8020  178.0230  137.0740 C   0  0  0  0  0  0  0  0  0  0  0  0
  186.7660  178.4910  135.9460 O   0  0  0  0  0  0  0  0  0  0  0  0
  186.0860  178.7170  138.1830 C   0  0  0  0  0  1  0  0  0  0  0  0
  192.0960  176.4190  137.4090 C   0  0  0  0  0  2  0  0  0  0  0  0
  193.4830  176.0550  137.9060 C   0  0  0  0  0  2  0  0  0  0  0  0
  193.5150  174.6080  138.3550 C   0  0  0  0  0  2  0  0  0  0  0  0
  194.9390  174.0900  138.2400 C   0  0  2  0  0  3  0  0  0  0  0  0
  195.8240  175.0660  138.7070 O   0  0  0  0  0  0  0  0  0  0  0  0
  196.0230  174.7630  140.0560 C   0  0  0  0  0  2  0  0  0  0  0  0
  197.8120  175.8230  139.3170 C   0  0  0  0  0  1  0  0  0  0  0  0
  197.2680  175.2410  140.4610 O   0  0  0  0  0  0  0  0  0  0  0  0
  195.2460  173.7780  136.8850 O   0  0  0  0  0  0  0  0  0  0  0  0
  195.8050  170.1390  136.3530 C   0  0  0  0  0  3  0  0  0  0  0  0
  199.0560  171.4100  134.9020 C   0  0  0  0  0  1  0  0  0  0  0  0
  197.7100  171.3870  135.5260 C   0  0  0  0  0  0  0  0  0  0  0  0
  195.1880  171.3350  136.7260 C   0  0  0  0  0  3  0  0  0  0  0  0
  197.0910  172.5840  135.8950 C   0  0  0  0  0  3  0  0  0  0  0  0
  197.0690  170.1660  135.7580 C   0  0  0  0  0  3  0  0  0  0  0  0
  195.8300  172.5670  136.5030 C   0  0  0  0  0  0  0  0  0  0  0  0
  189.3720  174.1750  136.3640 C   0  0  2  0  0  3  0  0  0  0  0  0
  191.3030  173.8550  134.8630 C   0  0  0  0  0  2  0  0  0  0  0  0
  190.6430  173.4710  135.9510 C   0  0  0  0  0  3  0  0  0  0  0  0
  188.2650  173.9590  135.3150 C   0  0  1  0  0  3  0  0  0  0  0  0
  188.0330  171.8060  135.8310 C   0  0  0  0  0  1  0  0  0  0  0  0
  188.3060  172.6690  134.7640 O   0  0  0  0  0  0  0  0  0  0  0  0
  186.8760  174.2820  135.8570 C   0  0  0  0  0  2  0  0  0  0  0  0
  185.8410  174.4660  134.7540 C   0  0  0  0  0  2  0  0  0  0  0  0
  183.2670  174.4220  137.4350 C   0  0  0  0  0  2  0  0  0  0  0  0
  184.5380  174.7140  135.3420 N   0  0  0  0  0  0  0  0  0  0  0  0
  183.7260  175.7650  134.8100 C   0  0  0  0  0  3  0  0  0  0  0  0
  183.2220  176.7960  137.0800 C   0  0  2  0  0  3  0  0  0  0  0  0
  182.2400  177.6740  134.8630 C   0  0  0  0  0  2  0  0  0  0  0  0
  181.1680  178.2830  137.0380 C   0  0  0  0  0  2  0  0  0  0  0  0
  184.0070  173.7390  136.2920 C   0  0  0  0  0  2  0  0  0  0  0  0
  181.8920  177.1620  137.7840 C   0  0  2  0  0  3  0  0  0  0  0  0
  180.9140  177.8860  135.5860 C   0  0  0  0  0  2  0  0  0  0  0  0
  183.0510  176.6390  135.5700 C   0  0  0  0  0  0  0  0  0  0  0  0
  183.9140  175.6900  137.7540 N   0  0  0  0  0  2  0  0  0  0  0  0
  182.2890  176.3980  140.1480 C   0  0  0  0  0  1  0  0  0  0  0  0
  183.1450  178.4930  139.3800 O   0  0  0  0  0  1  0  0  0  0  0  0
  182.0820  177.5940  139.2430 C   0  0  1  0  0  3  0  0  0  0  0  0
  1  5  1  0  0  0  0
  1 12  1  1  0  0  0
  2 22  1  6  0  0  0
  2  8  1  0  0  0  0
  3  1  1  0  0  0  0
  6  4  1  0  0  0  0
  6  2  1  0  0  0  0
  7  5  1  0  0  0  0
  8  3  1  1  0  0  0
  9  4  1  6  0  0  0
  9  8  1  0  0  0  0
  9 10  1  0  0  0  0
 10 25  1  6  0  0  0
 10  7  1  0  0  0  0
 12 15  2  0  0  0  0
 12 14  1  0  0  0  0
 13 11  1  0  0  0  0
 13 17  1  0  0  0  0
 14 13  2  0  0  0  0
 15 16  1  0  0  0  0
 16 11  2  0  0  0  0
 17 18  1  0  0  0  0
 18 21  1  0  0  0  0
 19 20  1  0  0  0  0
 21 19  1  0  0  0  0
 21 20  1  0  0  0  0
 22 24  1  0  0  0  0
 23 22  2  0  0  0  0
 25 26  1  0  0  0  0
 26 27  1  0  0  0  0
 28 27  1  6  0  0  0
 28 29  1  0  0  0  0
 29 30  1  0  0  0  0
 30 32  1  0  0  0  0
 31 32  1  0  0  0  0
 33 28  1  0  0  0  0
 34 37  1  0  0  0  0
 35 36  1  0  0  0  0
 36 39  1  0  0  0  0
 36 38  2  0  0  0  0
 38 40  1  0  0  0  0
 39 34  2  0  0  0  0
 40 37  2  0  0  0  0
 40 33  1  0  0  0  0
 41 43  1  6  0  0  0
 41  4  1  0  0  0  0
 42 43  2  0  0  0  0
 44 47  1  1  0  0  0
 44 41  1  0  0  0  0
 46 44  1  0  0  0  0
 46 45  1  0  0  0  0
 48 50  1  0  0  0  0
 48 47  1  0  0  0  0
 49 59  1  0  0  0  0
 50 55  1  0  0  0  0
 51 50  1  0  0  0  0
 51 58  2  0  0  0  0
 52 58  1  6  0  0  0
 52 59  1  0  0  0  0
 52 56  1  0  0  0  0
 53 58  1  0  0  0  0
 53 57  1  0  0  0  0
 54 56  1  0  0  0  0
 55 49  1  0  0  0  0
 56 62  1  1  0  0  0
 57 54  1  0  0  0  0
 62 61  1  0  0  0  0
 62 60  1  1  0  0  0
M  END
>  <MODEL>
6

>  <REMARK>
 VINA RESULT:      -4.5      3.239      7.670
  Name = 
  22 active torsions:
  status: ('A' for Active; 'I' for Inactive)
    1  A    between atoms: O_1  and  C_17
    2  A    between atoms: O_1  and  C_61
    3  A    between atoms: C_4  and  C_5
    4  A    between atoms: N_8  and  C_18
    5  A    between atoms: C_9  and  C_30
    6  A    between atoms: C_10  and  C_11
    7  A    between atoms: C_16  and  C_59
    8  A    between atoms: C_16  and  C_62
    9  A    between atoms: C_17  and  O_36
   10  A    between atoms: C_17  and  C_62
   11  A    between atoms: C_18  and  C_54
   12  A    between atoms: N_19  and  C_57
   13  A    between atoms: N_21  and  C_30
   14  A    between atoms: N_21  and  C_39
   15  A    between atoms: C_35  and  O_36
   16  A    between atoms: C_35  and  O_42
   17  A    between atoms: C_41  and  C_54
   18  A    between atoms: C_41  and  O_56
   19  A    between atoms: C_41  and  C_57
   20  A    between atoms: C_43  and  C_51
   21  A    between atoms: C_55  and  C_59
   22  A    between atoms: C_57  and  C_60
                            x       y       z     vdW  Elec       q    Type
                         _______ _______ _______ _____ _____    ______ ____

>  <TORSDO>
F 22

$$$$
=
 OpenBabel11032419473D

 62 68  0  0  1  0  0  0  0  0999 V2000
  186.6490  174.6450  136.4550 C   0  0  2  0  0  3  0  0  0  0  0  0
  186.9960  178.1580  136.7600 C   0  0  1  0  0  3  0  0  0  0  0  0
  187.2910  175.7830  136.9750 O   0  0  0  0  0  0  0  0  0  0  0  0
  185.3050  178.3440  138.4840 N   0  0  0  0  0  0  0  0  0  0  0  0
  185.5940  174.0870  137.4270 C   0  0  0  0  0  2  0  0  0  0  0  0
  186.0210  179.0960  137.4450 C   0  0  0  0  0  2  0  0  0  0  0  0
  184.3990  174.9220  137.3920 N   0  0  0  0  0  2  0  0  0  0  0  0
  186.3460  176.8170  136.9160 C   0  0  1  0  0  3  0  0  0  0  0  0
  185.6520  176.9330  138.2520 C   0  0  2  0  0  3  0  0  0  0  0  0
  184.4710  175.9420  138.4420 C   0  0  1  0  0  3  0  0  0  0  0  0
  189.5030  171.6720  135.3610 N   0  0  0  0  0  0  0  0  0  0  0  0
  187.6630  173.6090  136.0860 C   0  0  0  0  0  0  0  0  0  0  0  0
  189.9470  172.8410  135.8980 C   0  0  0  0  0  0  0  0  0  0  0  0
  189.0370  173.8360  136.2570 C   0  0  0  0  0  3  0  0  0  0  0  0
  187.2320  172.4020  135.5310 C   0  0  0  0  0  3  0  0  0  0  0  0
  188.1750  171.4370  135.1700 C   0  0  0  0  0  3  0  0  0  0  0  0
  191.4050  173.0550  136.1180 C   0  0  0  0  0  2  0  0  0  0  0  0
  191.7050  174.4780  136.1790 N   0  0  0  0  0  2  0  0  0  0  0  0
  192.4650  176.2350  137.6530 C   0  0  0  0  0  2  0  0  0  0  0  0
  193.6530  175.3570  137.3200 C   0  0  0  0  0  2  0  0  0  0  0  0
  192.2790  174.7410  137.4860 C   0  0  0  0  0  3  0  0  0  0  0  0
  187.1830  178.5170  135.3160 C   0  0  0  0  0  0  0  0  0  0  0  0
  186.3480  179.1830  134.7220 O   0  0  0  0  0  0  0  0  0  0  0  0
  188.4010  178.0480  134.5950 C   0  0  0  0  0  1  0  0  0  0  0  0
  183.1170  176.6270  138.5740 C   0  0  0  0  0  2  0  0  0  0  0  0
  182.2480  176.2560  137.3870 C   0  0  0  0  0  2  0  0  0  0  0  0
  180.8760  175.8190  137.8590 C   0  0  0  0  0  2  0  0  0  0  0  0
  180.7380  174.3220  137.6430 C   0  0  2  0  0  3  0  0  0  0  0  0
  180.1200  173.7490  138.7580 O   0  0  0  0  0  0  0  0  0  0  0  0
  179.9730  174.7940  139.6720 C   0  0  0  0  0  2  0  0  0  0  0  0
  179.5400  175.3900  141.7520 C   0  0  0  0  0  1  0  0  0  0  0  0
  179.6210  174.2770  140.9170 O   0  0  0  0  0  0  0  0  0  0  0  0
  182.0170  173.7280  137.4490 O   0  0  0  0  0  0  0  0  0  0  0  0
  183.5150  170.4650  136.4760 C   0  0  0  0  0  3  0  0  0  0  0  0
  180.1950  170.0910  134.7080 C   0  0  0  0  0  1  0  0  0  0  0  0
  181.2920  170.6550  135.5330 C   0  0  0  0  0  0  0  0  0  0  0  0
  183.3690  171.7230  137.0640 C   0  0  0  0  0  3  0  0  0  0  0  0
  181.1440  171.9110  136.1260 C   0  0  0  0  0  3  0  0  0  0  0  0
  182.4780  169.9340  135.7060 C   0  0  0  0  0  3  0  0  0  0  0  0
  182.1830  172.4570  136.8890 C   0  0  0  0  0  0  0  0  0  0  0  0
  185.8170  178.8160  139.7840 C   0  0  2  0  0  3  0  0  0  0  0  0
  188.1480  178.1680  140.2670 C   0  0  0  0  0  2  0  0  0  0  0  0
  186.8520  177.8960  140.3870 C   0  0  0  0  0  3  0  0  0  0  0  0
  184.6420  179.0260  140.7590 C   0  0  1  0  0  3  0  0  0  0  0  0
  182.4520  178.9350  141.1470 C   0  0  0  0  0  1  0  0  0  0  0  0
  183.3990  178.9110  140.1180 O   0  0  0  0  0  0  0  0  0  0  0  0
  184.7210  178.1070  141.9740 C   0  0  0  0  0  2  0  0  0  0  0  0
  185.2110  178.8250  143.2250 C   0  0  0  0  0  2  0  0  0  0  0  0
  187.9820  176.4150  143.7990 C   0  0  0  0  0  2  0  0  0  0  0  0
  186.0500  177.9350  144.0040 N   0  0  0  0  0  0  0  0  0  0  0  0
  186.1690  178.1490  145.4140 C   0  0  0  0  0  3  0  0  0  0  0  0
  188.7090  178.0270  145.4220 C   0  0  2  0  0  3  0  0  0  0  0  0
  187.2870  178.3320  147.5520 C   0  0  0  0  0  2  0  0  0  0  0  0
  189.6510  177.5380  147.7260 C   0  0  0  0  0  2  0  0  0  0  0  0
  186.5530  176.7190  143.3680 C   0  0  0  0  0  2  0  0  0  0  0  0
  189.7070  177.1720  146.2420 C   0  0  2  0  0  3  0  0  0  0  0  0
  188.2340  177.3740  148.2670 C   0  0  0  0  0  2  0  0  0  0  0  0
  187.3310  178.0930  146.0790 C   0  0  0  0  0  0  0  0  0  0  0  0
  188.7120  177.6620  144.0000 N   0  0  0  0  0  2  0  0  0  0  0  0
  192.0700  176.3400  146.4780 C   0  0  0  0  0  1  0  0  0  0  0  0
  191.2580  177.1420  144.3770 O   0  0  0  0  0  1  0  0  0  0  0  0
  191.1570  177.3120  145.7610 C   0  0  1  0  0  3  0  0  0  0  0  0
  1 12  1  1  0  0  0
  1  3  1  0  0  0  0
  1  5  1  0  0  0  0
  2 22  1  6  0  0  0
  2  8  1  0  0  0  0
  2  6  1  0  0  0  0
  4 41  1  0  0  0  0
  6  4  1  0  0  0  0
  7  5  1  0  0  0  0
  7 10  1  0  0  0  0
  8  3  1  1  0  0  0
  8  9  1  0  0  0  0
  9 10  1  0  0  0  0
  9  4  1  6  0  0  0
 10 25  1  6  0  0  0
 11 13  1  0  0  0  0
 12 14  1  0  0  0  0
 13 17  1  0  0  0  0
 13 14  2  0  0  0  0
 15 12  2  0  0  0  0
 16 11  2  0  0  0  0
 16 15  1  0  0  0  0
 17 18  1  0  0  0  0
 18 21  1  0  0  0  0
 20 21  1  0  0  0  0
 20 19  1  0  0  0  0
 21 19  1  0  0  0  0
 23 22  2  0  0  0  0
 24 22  1  0  0  0  0
 26 27  1  0  0  0  0
 26 25  1  0  0  0  0
 28 27  1  1  0  0  0
 28 29  1  0  0  0  0
 29 30  1  0  0  0  0
 30 32  1  0  0  0  0
 32 31  1  0  0  0  0
 33 28  1  0  0  0  0
 34 37  1  0  0  0  0
 35 36  1  0  0  0  0
 36 39  1  0  0  0  0
 36 38  2  0  0  0  0
 38 40  1  0  0  0  0
 39 34  2  0  0  0  0
 40 37  2  0  0  0  0
 40 33  1  0  0  0  0
 41 43  1  1  0  0  0
 41 44  1  0  0  0  0
 42 43  2  0  0  0  0
 44 47  1  1  0  0  0
 46 44  1  0  0  0  0
 46 45  1  0  0  0  0
 47 48  1  0  0  0  0
 48 50  1  0  0  0  0
 49 59  1  0  0  0  0
 50 51  1  0  0  0  0
 51 58  2  0  0  0  0
 52 59  1  6  0  0  0
 52 58  1  0  0  0  0
 52 56  1  0  0  0  0
 53 57  1  0  0  0  0
 54 57  1  0  0  0  0
 55 49  1  0  0  0  0
 55 50  1  0  0  0  0
 56 62  1  6  0  0  0
 56 54  1  0  0  0  0
 58 53  1  0  0  0  0
 61 62  1  0  0  0  0
 62 60  1  1  0  0  0
M  END
>  <MODEL>
7

>  <REMARK>
 VINA RESULT:      -4.4      2.314     10.718
  Name = 
  22 active torsions:
  status: ('A' for Active; 'I' for Inactive)
    1  A    between atoms: O_1  and  C_17
    2  A    between atoms: O_1  and  C_61
    3  A    between atoms: C_4  and  C_5
    4  A    between atoms: N_8  and  C_18
    5  A    between atoms: C_9  and  C_30
    6  A    between atoms: C_10  and  C_11
    7  A    between atoms: C_16  and  C_59
    8  A    between atoms: C_16  and  C_62
    9  A    between atoms: C_17  and  O_36
   10  A    between atoms: C_17  and  C_62
   11  A    between atoms: C_18  and  C_54
   12  A    between atoms: N_19  and  C_57
   13  A    between atoms: N_21  and  C_30
   14  A    between atoms: N_21  and  C_39
   15  A    between atoms: C_35  and  O_36
   16  A    between atoms: C_35  and  O_42
   17  A    between atoms: C_41  and  C_54
   18  A    between atoms: C_41  and  O_56
   19  A    between atoms: C_41  and  C_57
   20  A    between atoms: C_43  and  C_51
   21  A    between atoms: C_55  and  C_59
   22  A    between atoms: C_57  and  C_60
                            x       y       z     vdW  Elec       q    Type
                         _______ _______ _______ _____ _____    ______ ____

>  <TORSDO>
F 22

$$$$
=
 OpenBabel11032419473D

 62 68  0  0  1  0  0  0  0  0999 V2000
  183.3040  175.5550  137.6040 C   0  0  2  0  0  3  0  0  0  0  0  0
  186.2420  177.3260  136.7170 C   0  0  1  0  0  3  0  0  0  0  0  0
  184.7030  175.6650  137.5210 O   0  0  0  0  0  0  0  0  0  0  0  0
  186.2750  178.6260  138.7610 N   0  0  0  0  0  0  0  0  0  0  0  0
  182.7750  175.9760  138.9860 C   0  0  0  0  0  2  0  0  0  0  0  0
  186.7510  178.5960  137.3710 C   0  0  0  0  0  2  0  0  0  0  0  0
  182.7860  177.4310  139.0960 N   0  0  0  0  0  2  0  0  0  0  0  0
  184.9780  177.0380  137.4690 C   0  0  1  0  0  3  0  0  0  0  0  0
  185.2920  177.5360  138.8600 C   0  0  2  0  0  3  0  0  0  0  0  0
  184.0390  177.8760  139.7110 C   0  0  1  0  0  3  0  0  0  0  0  0
  182.0350  171.6140  136.5840 N   0  0  0  0  0  0  0  0  0  0  0  0
  182.8780  174.1650  137.2500 C   0  0  0  0  0  0  0  0  0  0  0  0
  183.3430  171.9470  136.4100 C   0  0  0  0  0  0  0  0  0  0  0  0
  183.7850  173.2330  136.7270 C   0  0  0  0  0  3  0  0  0  0  0  0
  181.5400  173.8010  137.4160 C   0  0  0  0  0  3  0  0  0  0  0  0
  181.1330  172.5090  137.0730 C   0  0  0  0  0  3  0  0  0  0  0  0
  184.3090  170.9350  135.8980 C   0  0  0  0  0  2  0  0  0  0  0  0
  185.6760  171.3490  136.1840 N   0  0  0  0  0  2  0  0  0  0  0  0
  187.6430  171.3580  134.7810 C   0  0  0  0  0  2  0  0  0  0  0  0
  187.4130  172.7710  135.2740 C   0  0  0  0  0  2  0  0  0  0  0  0
  186.2310  171.8800  134.9520 C   0  0  0  0  0  3  0  0  0  0  0  0
  185.9810  177.5260  135.2550 C   0  0  0  0  0  0  0  0  0  0  0  0
  186.6650  178.2940  134.5940 O   0  0  0  0  0  0  0  0  0  0  0  0
  184.8680  176.7820  134.5990 C   0  0  0  0  0  1  0  0  0  0  0  0
  183.9290  179.3530  140.0680 C   0  0  0  0  0  2  0  0  0  0  0  0
  182.5320  179.6430  140.5840 C   0  0  0  0  0  2  0  0  0  0  0  0
  181.7330  180.3910  139.5360 C   0  0  0  0  0  2  0  0  0  0  0  0
  180.2570  180.0970  139.7440 C   0  0  2  0  0  3  0  0  0  0  0  0
  180.1110  179.1820  140.7910 O   0  0  0  0  0  0  0  0  0  0  0  0
  179.8280  177.9620  140.1740 C   0  0  0  0  0  2  0  0  0  0  0  0
  179.1970  175.8890  140.5890 C   0  0  0  0  0  1  0  0  0  0  0  0
  178.9950  177.2070  140.9960 O   0  0  0  0  0  0  0  0  0  0  0  0
  179.6860  179.5580  138.5570 O   0  0  0  0  0  0  0  0  0  0  0  0
  180.7140  179.6940  134.9850 C   0  0  0  0  0  3  0  0  0  0  0  0
  180.1970  183.3960  135.5460 C   0  0  0  0  0  1  0  0  0  0  0  0
  180.2540  181.9330  135.7870 C   0  0  0  0  0  0  0  0  0  0  0  0
  180.3900  179.1810  136.2420 C   0  0  0  0  0  3  0  0  0  0  0  0
  179.9240  181.4190  137.0440 C   0  0  0  0  0  3  0  0  0  0  0  0
  180.6520  181.0710  134.7600 C   0  0  0  0  0  3  0  0  0  0  0  0
  179.9960  180.0410  137.2820 C   0  0  0  0  0  0  0  0  0  0  0  0
  187.4480  178.3720  139.6190 C   0  0  2  0  0  3  0  0  0  0  0  0
  189.2230  176.7320  139.1230 C   0  0  0  0  0  2  0  0  0  0  0  0
  187.9710  176.9590  139.5110 C   0  0  0  0  0  3  0  0  0  0  0  0
  187.1030  178.7130  141.0820 C   0  0  1  0  0  3  0  0  0  0  0  0
  185.7300  178.0730  142.7130 C   0  0  0  0  0  1  0  0  0  0  0  0
  186.6680  177.5860  141.7970 O   0  0  0  0  0  0  0  0  0  0  0  0
  188.2500  179.4130  141.8040 C   0  0  0  0  0  2  0  0  0  0  0  0
  189.5360  178.5950  141.8000 C   0  0  0  0  0  2  0  0  0  0  0  0
  190.7140  175.6880  143.7940 C   0  0  0  0  0  2  0  0  0  0  0  0
  189.5200  177.6540  142.9030 N   0  0  0  0  0  0  0  0  0  0  0  0
  188.9170  178.0450  144.1410 C   0  0  0  0  0  3  0  0  0  0  0  0
  190.8860  177.2970  145.5670 C   0  0  2  0  0  3  0  0  0  0  0  0
  188.7050  178.2690  146.5410 C   0  0  0  0  0  2  0  0  0  0  0  0
  190.2490  176.9480  147.9970 C   0  0  0  0  0  2  0  0  0  0  0  0
  189.9040  176.2690  142.6410 C   0  0  0  0  0  2  0  0  0  0  0  0
  190.9850  176.3570  146.7940 C   0  0  2  0  0  3  0  0  0  0  0  0
  188.7890  177.2270  147.6510 C   0  0  0  0  0  2  0  0  0  0  0  0
  189.4630  177.8040  145.3420 C   0  0  0  0  0  0  0  0  0  0  0  0
  191.5470  176.7290  144.3850 N   0  0  0  0  0  2  0  0  0  0  0  0
  192.7110  176.5390  148.6150 C   0  0  0  0  0  1  0  0  0  0  0  0
  192.7240  174.6930  147.0960 O   0  0  0  0  0  1  0  0  0  0  0  0
  192.4300  176.0560  147.2080 C   0  0  1  0  0  3  0  0  0  0  0  0
  1 12  1  1  0  0  0
  1  5  1  0  0  0  0
  2 22  1  6  0  0  0
  2  6  1  0  0  0  0
  2  8  1  0  0  0  0
  3  1  1  0  0  0  0
  4 41  1  0  0  0  0
  5  7  1  0  0  0  0
  6  4  1  0  0  0  0
  7 10  1  0  0  0  0
  8  3  1  1  0  0  0
  8  9  1  0  0  0  0
  9  4  1  6  0  0  0
  9 10  1  0  0  0  0
 10 25  1  6  0  0  0
 11 16  1  0  0  0  0
 12 15  1  0  0  0  0
 13 11  2  0  0  0  0
 13 14  1  0  0  0  0
 14 12  2  0  0  0  0
 16 15  2  0  0  0  0
 17 18  1  0  0  0  0
 17 13  1  0  0  0  0
 19 21  1  0  0  0  0
 19 20  1  0  0  0  0
 21 20  1  0  0  0  0
 21 18  1  0  0  0  0
 23 22  2  0  0  0  0
 24 22  1  0  0  0  0
 25 26  1  0  0  0  0
 27 26  1  0  0  0  0
 28 27  1  6  0  0  0
 28 29  1  0  0  0  0
 30 29  1  0  0  0  0
 30 32  1  0  0  0  0
 31 32  1  0  0  0  0
 33 28  1  0  0  0  0
 34 37  1  0  0  0  0
 35 36  1  0  0  0  0
 36 38  2  0  0  0  0
 37 40  2  0  0  0  0
 38 40  1  0  0  0  0
 39 34  2  0  0  0  0
 39 36  1  0  0  0  0
 40 33  1  0  0  0  0
 41 43  1  1  0  0  0
 41 44  1  0  0  0  0
 42 43  2  0  0  0  0
 44 46  1  0  0  0  0
 44 47  1  1  0  0  0
 46 45  1  0  0  0  0
 48 47  1  0  0  0  0
 48 50  1  0  0  0  0
 49 59  1  0  0  0  0
 50 51  1  0  0  0  0
 51 58  2  0  0  0  0
 52 59  1  6  0  0  0
 52 56  1  0  0  0  0
 53 57  1  0  0  0  0
 55 50  1  0  0  0  0
 55 49  1  0  0  0  0
 56 62  1  1  0  0  0
 56 54  1  0  0  0  0
 57 54  1  0  0  0  0
 58 52  1  0  0  0  0
 58 53  1  0  0  0  0
 61 62  1  0  0  0  0
 62 60  1  1  0  0  0
M  END
>  <MODEL>
8

>  <REMARK>
 VINA RESULT:      -4.3      2.568     10.305
  Name = 
  22 active torsions:
  status: ('A' for Active; 'I' for Inactive)
    1  A    between atoms: O_1  and  C_17
    2  A    between atoms: O_1  and  C_61
    3  A    between atoms: C_4  and  C_5
    4  A    between atoms: N_8  and  C_18
    5  A    between atoms: C_9  and  C_30
    6  A    between atoms: C_10  and  C_11
    7  A    between atoms: C_16  and  C_59
    8  A    between atoms: C_16  and  C_62
    9  A    between atoms: C_17  and  O_36
   10  A    between atoms: C_17  and  C_62
   11  A    between atoms: C_18  and  C_54
   12  A    between atoms: N_19  and  C_57
   13  A    between atoms: N_21  and  C_30
   14  A    between atoms: N_21  and  C_39
   15  A    between atoms: C_35  and  O_36
   16  A    between atoms: C_35  and  O_42
   17  A    between atoms: C_41  and  C_54
   18  A    between atoms: C_41  and  O_56
   19  A    between atoms: C_41  and  C_57
   20  A    between atoms: C_43  and  C_51
   21  A    between atoms: C_55  and  C_59
   22  A    between atoms: C_57  and  C_60
                            x       y       z     vdW  Elec       q    Type
                         _______ _______ _______ _____ _____    ______ ____

>  <TORSDO>
F 22

$$$$
