=
 OpenBabel11032419383D

 49 56  0  0  1  0  0  0  0  0999 V2000
  187.3440  177.3590  138.3550 C   0  0  2  0  0  3  0  0  0  0  0  0
  189.8600  177.1970  135.5230 C   0  0  0  0  0  2  0  0  0  0  0  0
  190.6730  176.3730  136.5210 C   0  0  0  0  0  2  0  0  0  0  0  0
  188.7090  177.8860  136.2460 C   0  0  0  0  0  2  0  0  0  0  0  0
  188.3330  175.4380  137.0040 C   0  0  0  0  0  2  0  0  0  0  0  0
  189.8300  175.3670  137.3190 C   0  0  1  0  0  3  0  0  0  0  0  0
  187.7960  176.8770  136.9720 C   0  0  1  0  0  3  0  0  0  0  0  0
  190.3260  173.9490  137.0810 C   0  0  0  0  0  2  0  0  0  0  0  0
  191.4440  173.9200  136.0490 C   0  0  0  0  0  2  0  0  0  0  0  0
  192.6280  173.1100  136.5520 C   0  0  0  0  0  2  0  0  0  0  0  0
  193.4460  173.9100  137.3730 O   0  0  0  0  0  0  0  0  0  0  0  0
  196.3710  175.5260  136.5150 N   0  0  0  0  0  2  0  0  0  0  0  0
  195.0220  172.1780  136.6900 C   0  0  0  0  0  2  0  0  0  0  0  0
  197.5000  172.3560  137.2640 C   0  0  0  0  0  2  0  0  0  0  0  0
  197.3320  173.7230  137.9340 C   0  0  2  0  0  3  0  0  0  0  0  0
  195.6890  173.9430  138.7250 S   0  0  0  0  0  0  0  0  0  0  0  0
  194.8190  173.6490  137.1320 C   0  0  2  0  0  0  0  0  0  0  0  0
  195.3930  174.5670  136.0160 C   0  0  0  0  0  2  0  0  0  0  0  0
  197.5910  174.8150  136.8970 C   0  0  0  0  0  2  0  0  0  0  0  0
  196.2410  171.4850  137.3070 C   0  0  0  0  0  2  0  0  0  0  0  0
  185.9450  177.9480  138.2740 C   0  0  0  0  0  2  0  0  0  0  0  0
  185.2850  177.5450  136.9650 C   0  0  0  0  0  2  0  0  0  0  0  0
  183.9870  176.7510  137.1780 C   0  0  1  0  0  3  0  0  0  0  0  0
  183.7810  175.4700  136.3430 C   0  0  2  0  0  3  0  0  0  0  0  0
  184.8010  174.3900  136.6890 C   0  0  0  0  0  0  0  0  0  0  0  0
  184.8150  175.1990  135.3880 C   0  0  0  0  0  2  0  0  0  0  0  0
  185.3010  173.4720  137.5050 C   0  0  0  0  0  2  0  0  0  0  0  0
  183.6590  176.5430  138.6520 C   0  0  1  0  0  3  0  0  0  0  0  0
  182.4360  177.3670  139.0140 C   0  0  1  0  0  3  0  0  0  0  0  0
  182.3090  175.8750  138.7980 C   0  0  0  0  0  2  0  0  0  0  0  0
  182.4440  177.6380  140.4410 N   0  0  0  0  0  2  0  0  0  0  0  0
  183.3920  178.7100  140.6570 C   0  0  0  0  0  2  0  0  0  0  0  0
  184.4250  179.1910  142.8430 C   0  0  0  0  0  2  0  0  0  0  0  0
  184.4440  178.2600  141.6480 C   0  0  0  0  0  3  0  0  0  0  0  0
  185.4940  179.3400  141.7850 C   0  0  0  0  0  2  0  0  0  0  0  0
  188.3050  178.3840  138.9590 C   0  0  0  0  0  2  0  0  0  0  0  0
  189.0870  177.7970  140.0850 C   0  0  0  0  0  0  0  0  0  0  0  0
  189.3790  176.7670  142.1310 C   0  0  0  0  0  0  0  0  0  0  0  0
  190.9230  176.9180  141.4970 S   0  0  0  0  0  0  0  0  0  0  0  0
  190.4750  177.6590  140.0520 C   0  0  0  0  0  3  0  0  0  0  0  0
  188.4630  177.2990  141.2360 C   0  0  0  0  0  3  0  0  0  0  0  0
  189.0930  176.2000  143.4160 N   0  0  0  0  0  2  0  0  0  0  0  0
  187.0620  178.0490  146.6460 C   0  0  0  0  0  3  0  0  0  0  0  0
  186.3550  177.7330  145.4790 C   0  0  0  0  0  3  0  0  0  0  0  0
  189.3050  178.1340  148.2020 Cl  0  0  0  0  0  0  0  0  0  0  0  0
  188.4240  177.7470  146.7400 C   0  0  0  0  0  0  0  0  0  0  0  0
  189.0820  177.1350  145.6690 C   0  0  0  0  0  3  0  0  0  0  0  0
  188.3860  176.8280  144.4930 C   0  0  0  0  0  0  0  0  0  0  0  0
  187.0130  177.1230  144.4080 C   0  0  0  0  0  3  0  0  0  0  0  0
  1 21  1  6  0  0  0
  1 36  1  0  0  0  0
  2  4  1  0  0  0  0
  2  3  1  0  0  0  0
  3  6  1  0  0  0  0
  4  7  1  0  0  0  0
  5  6  1  0  0  0  0
  6  8  1  6  0  0  0
  7  5  1  0  0  0  0
  7  1  1  1  0  0  0
  9 10  1  0  0  0  0
  9  8  1  0  0  0  0
 10 11  1  0  0  0  0
 12 19  1  0  0  0  0
 13 17  1  0  0  0  0
 13 20  1  0  0  0  0
 14 20  1  0  0  0  0
 14 15  1  0  0  0  0
 15 19  1  6  0  0  0
 15 16  1  0  0  0  0
 17 11  1  1  0  0  0
 17 16  1  0  0  0  0
 18 12  1  0  0  0  0
 18 17  1  0  0  0  0
 22 21  1  0  0  0  0
 23 22  1  1  0  0  0
 24 25  1  0  0  0  0
 24 23  1  1  0  0  0
 25 27  2  0  0  0  0
 26 24  1  0  0  0  0
 26 25  1  0  0  0  0
 28 23  1  6  0  0  0
 28 30  1  0  0  0  0
 28 29  1  0  0  0  0
 29 31  1  1  0  0  0
 30 29  1  0  0  0  0
 31 32  1  0  0  0  0
 32 34  1  0  0  0  0
 34 35  1  0  0  0  0
 34 33  1  0  0  0  0
 35 33  1  0  0  0  0
 36 37  1  0  0  0  0
 37 41  1  0  0  0  0
 38 42  1  0  0  0  0
 39 38  1  0  0  0  0
 40 37  2  0  0  0  0
 40 39  1  0  0  0  0
 41 38  2  0  0  0  0
 42 48  1  0  0  0  0
 43 46  1  0  0  0  0
 44 43  2  0  0  0  0
 46 45  1  0  0  0  0
 47 46  2  0  0  0  0
 48 47  1  0  0  0  0
 49 48  2  0  0  0  0
 49 44  1  0  0  0  0
M  END
>  <MODEL>
1

>  <REMARK>
 VINA RESULT:      -7.2      0.000      0.000
  Name = 
  18 active torsions:
  status: ('A' for Active; 'I' for Inactive)
    1  A    between atoms: C_1  and  C_2
    2  A    between atoms: C_2  and  C_43
    3  A    between atoms: N_3  and  C_21
    4  A    between atoms: N_3  and  C_41
    5  A    between atoms: C_5  and  N_45
    6  A    between atoms: C_9  and  C_25
    7  A    between atoms: C_9  and  C_44
    8  A    between atoms: O_12  and  C_24
    9  A    between atoms: O_12  and  C_28
   10  A    between atoms: C_14  and  C_31
   11  A    between atoms: C_17  and  C_31
   12  A    between atoms: C_17  and  C_39
   13  A    between atoms: C_21  and  C_22
   14  A    between atoms: C_24  and  C_25
   15  A    between atoms: C_29  and  C_31
   16  A    between atoms: C_32  and  N_45
   17  A    between atoms: C_39  and  C_43
   18  A    between atoms: C_43  and  C_47
                            x       y       z     vdW  Elec       q    Type
                         _______ _______ _______ _____ _____    ______ ____

>  <TORSDO>
F 18

$$$$
=
 OpenBabel11032419383D

 49 56  0  0  1  0  0  0  0  0999 V2000
  185.5420  175.6980  136.7660 C   0  0  2  0  0  3  0  0  0  0  0  0
  188.6710  177.2840  135.3280 C   0  0  0  0  0  2  0  0  0  0  0  0
  188.3140  178.4340  136.2690 C   0  0  0  0  0  2  0  0  0  0  0  0
  187.4900  176.3270  135.2180 C   0  0  0  0  0  2  0  0  0  0  0  0
  187.7500  176.4470  137.7920 C   0  0  0  0  0  2  0  0  0  0  0  0
  187.8370  177.9700  137.6540 C   0  0  1  0  0  3  0  0  0  0  0  0
  187.0630  175.7760  136.5930 C   0  0  1  0  0  3  0  0  0  0  0  0
  188.7450  178.5220  138.7430 C   0  0  0  0  0  2  0  0  0  0  0  0
  189.6260  177.4310  139.3340 C   0  0  0  0  0  2  0  0  0  0  0  0
  189.8350  177.6470  140.8240 C   0  0  0  0  0  2  0  0  0  0  0  0
  188.8290  176.9830  141.5530 O   0  0  0  0  0  0  0  0  0  0  0  0
  191.5400  176.0870  143.4910 N   0  0  0  0  0  2  0  0  0  0  0  0
  187.9660  176.5370  143.7900 C   0  0  0  0  0  2  0  0  0  0  0  0
  189.2960  177.1890  145.8660 C   0  0  0  0  0  2  0  0  0  0  0  0
  190.4780  177.7130  145.0460 C   0  0  2  0  0  3  0  0  0  0  0  0
  189.9780  178.4120  143.4230 S   0  0  0  0  0  0  0  0  0  0  0  0
  189.2080  176.8230  142.9100 C   0  0  2  0  0  0  0  0  0  0  0  0
  190.2070  175.6460  143.0950 C   0  0  0  0  0  2  0  0  0  0  0  0
  191.4930  176.5840  144.8660 C   0  0  0  0  0  2  0  0  0  0  0  0
  187.9510  177.2670  145.1370 C   0  0  0  0  0  2  0  0  0  0  0  0
  185.0300  174.3460  136.2950 C   0  0  0  0  0  2  0  0  0  0  0  0
  185.8770  173.2310  136.8870 C   0  0  0  0  0  2  0  0  0  0  0  0
  186.1880  172.1220  135.8720 C   0  0  1  0  0  3  0  0  0  0  0  0
  185.0020  171.4690  135.1320 C   0  0  2  0  0  3  0  0  0  0  0  0
  183.9150  170.9980  136.0930 C   0  0  0  0  0  0  0  0  0  0  0  0
  184.8630  170.0580  135.3410 C   0  0  0  0  0  2  0  0  0  0  0  0
  182.9250  171.2320  136.9440 C   0  0  0  0  0  2  0  0  0  0  0  0
  187.3290  172.4900  134.9290 C   0  0  1  0  0  3  0  0  0  0  0  0
  188.6540  172.2410  135.6280 C   0  0  1  0  0  3  0  0  0  0  0  0
  188.1460  171.2600  134.5940 C   0  0  0  0  0  2  0  0  0  0  0  0
  189.6800  173.0740  135.0240 N   0  0  0  0  0  2  0  0  0  0  0  0
  190.7630  173.1620  135.9800 C   0  0  0  0  0  2  0  0  0  0  0  0
  192.4970  174.6810  136.8540 C   0  0  0  0  0  2  0  0  0  0  0  0
  191.1410  174.6140  136.1800 C   0  0  0  0  0  3  0  0  0  0  0  0
  191.2390  174.9030  137.6610 C   0  0  0  0  0  2  0  0  0  0  0  0
  184.8110  176.8170  136.0230 C   0  0  0  0  0  2  0  0  0  0  0  0
  183.6940  177.3720  136.8400 C   0  0  0  0  0  0  0  0  0  0  0  0
  182.6790  178.1510  138.7620 C   0  0  0  0  0  0  0  0  0  0  0  0
  181.5340  178.3520  137.5560 S   0  0  0  0  0  0  0  0  0  0  0  0
  182.4670  177.7470  136.2900 C   0  0  0  0  0  3  0  0  0  0  0  0
  183.8270  177.5970  138.2160 C   0  0  0  0  0  3  0  0  0  0  0  0
  182.4580  178.4830  140.1390 N   0  0  0  0  0  2  0  0  0  0  0  0
  185.3630  179.0990  143.1650 C   0  0  0  0  0  3  0  0  0  0  0  0
  185.7570  179.1040  141.8210 C   0  0  0  0  0  3  0  0  0  0  0  0
  183.5260  178.9010  145.1760 Cl  0  0  0  0  0  0  0  0  0  0  0  0
  184.0190  178.8990  143.4970 C   0  0  0  0  0  0  0  0  0  0  0  0
  183.0710  178.6990  142.4900 C   0  0  0  0  0  3  0  0  0  0  0  0
  183.4580  178.6900  141.1440 C   0  0  0  0  0  0  0  0  0  0  0  0
  184.8090  178.9030  140.8150 C   0  0  0  0  0  3  0  0  0  0  0  0
  1 36  1  6  0  0  0
  2  3  1  0  0  0  0
  3  6  1  0  0  0  0
  4  2  1  0  0  0  0
  4  7  1  0  0  0  0
  6  5  1  0  0  0  0
  6  8  1  1  0  0  0
  7  1  1  1  0  0  0
  7  5  1  0  0  0  0
  8  9  1  0  0  0  0
  9 10  1  0  0  0  0
 10 11  1  0  0  0  0
 12 19  1  0  0  0  0
 13 20  1  0  0  0  0
 15 19  1  6  0  0  0
 15 14  1  0  0  0  0
 16 15  1  0  0  0  0
 17 11  1  6  0  0  0
 17 18  1  0  0  0  0
 17 16  1  0  0  0  0
 17 13  1  0  0  0  0
 18 12  1  0  0  0  0
 20 14  1  0  0  0  0
 21  1  1  0  0  0  0
 21 22  1  0  0  0  0
 23 22  1  6  0  0  0
 24 26  1  0  0  0  0
 24 23  1  1  0  0  0
 24 25  1  0  0  0  0
 25 27  2  0  0  0  0
 26 25  1  0  0  0  0
 28 29  1  0  0  0  0
 28 23  1  1  0  0  0
 29 31  1  6  0  0  0
 30 28  1  0  0  0  0
 30 29  1  0  0  0  0
 31 32  1  0  0  0  0
 32 34  1  0  0  0  0
 33 35  1  0  0  0  0
 34 33  1  0  0  0  0
 34 35  1  0  0  0  0
 36 37  1  0  0  0  0
 37 41  1  0  0  0  0
 38 42  1  0  0  0  0
 39 38  1  0  0  0  0
 40 37  2  0  0  0  0
 40 39  1  0  0  0  0
 41 38  2  0  0  0  0
 42 48  1  0  0  0  0
 43 46  1  0  0  0  0
 44 43  2  0  0  0  0
 46 45  1  0  0  0  0
 47 46  2  0  0  0  0
 48 47  1  0  0  0  0
 49 48  2  0  0  0  0
 49 44  1  0  0  0  0
M  END
>  <MODEL>
2

>  <REMARK>
 VINA RESULT:      -7.0      2.932      7.253
  Name = 
  18 active torsions:
  status: ('A' for Active; 'I' for Inactive)
    1  A    between atoms: C_1  and  C_2
    2  A    between atoms: C_2  and  C_43
    3  A    between atoms: N_3  and  C_21
    4  A    between atoms: N_3  and  C_41
    5  A    between atoms: C_5  and  N_45
    6  A    between atoms: C_9  and  C_25
    7  A    between atoms: C_9  and  C_44
    8  A    between atoms: O_12  and  C_24
    9  A    between atoms: O_12  and  C_28
   10  A    between atoms: C_14  and  C_31
   11  A    between atoms: C_17  and  C_31
   12  A    between atoms: C_17  and  C_39
   13  A    between atoms: C_21  and  C_22
   14  A    between atoms: C_24  and  C_25
   15  A    between atoms: C_29  and  C_31
   16  A    between atoms: C_32  and  N_45
   17  A    between atoms: C_39  and  C_43
   18  A    between atoms: C_43  and  C_47
                            x       y       z     vdW  Elec       q    Type
                         _______ _______ _______ _____ _____    ______ ____

>  <TORSDO>
F 18

$$$$
=
 OpenBabel11032419383D

 49 56  0  0  1  0  0  0  0  0999 V2000
  190.1550  176.8690  139.0990 C   0  0  2  0  0  3  0  0  0  0  0  0
  188.0890  179.0490  136.7840 C   0  0  0  0  0  2  0  0  0  0  0  0
  187.9910  177.7730  135.9490 C   0  0  0  0  0  2  0  0  0  0  0  0
  189.1660  178.8820  137.8500 C   0  0  0  0  0  2  0  0  0  0  0  0
  187.7390  176.7660  138.2960 C   0  0  0  0  0  2  0  0  0  0  0  0
  187.7580  176.5070  136.7870 C   0  0  1  0  0  3  0  0  0  0  0  0
  188.8910  177.6690  138.7620 C   0  0  1  0  0  3  0  0  0  0  0  0
  186.4590  175.8280  136.3770 C   0  0  0  0  0  2  0  0  0  0  0  0
  185.4000  176.8490  135.9900 C   0  0  0  0  0  2  0  0  0  0  0  0
  184.2910  176.9040  137.0290 C   0  0  0  0  0  2  0  0  0  0  0  0
  184.5000  177.9910  137.9000 O   0  0  0  0  0  0  0  0  0  0  0  0
  182.3850  180.6350  138.5650 N   0  0  0  0  0  2  0  0  0  0  0  0
  183.1280  177.3210  139.8020 C   0  0  0  0  0  2  0  0  0  0  0  0
  180.6690  177.9820  139.9450 C   0  0  0  0  0  2  0  0  0  0  0  0
  180.7230  178.7860  138.6420 C   0  0  2  0  0  3  0  0  0  0  0  0
  181.9270  178.1150  137.4290 S   0  0  0  0  0  0  0  0  0  0  0  0
  183.3170  178.3010  138.6180 C   0  0  2  0  0  0  0  0  0  0  0  0
  183.3550  179.7450  139.1940 C   0  0  0  0  0  2  0  0  0  0  0  0
  181.0370  180.2440  138.9760 C   0  0  0  0  0  2  0  0  0  0  0  0
  181.6890  176.8410  140.0130 C   0  0  0  0  0  2  0  0  0  0  0  0
  190.6650  177.2510  140.4790 C   0  0  0  0  0  2  0  0  0  0  0  0
  190.0720  176.3260  141.5290 C   0  0  0  0  0  2  0  0  0  0  0  0
  190.0950  176.9390  142.9380 C   0  0  1  0  0  3  0  0  0  0  0  0
  191.4530  177.4190  143.4920 C   0  0  2  0  0  3  0  0  0  0  0  0
  191.5070  177.3540  145.0140 C   0  0  0  0  0  0  0  0  0  0  0  0
  191.4070  178.6570  144.2140 C   0  0  0  0  0  2  0  0  0  0  0  0
  191.5690  176.6790  146.1550 C   0  0  0  0  0  2  0  0  0  0  0  0
  188.9850  177.9620  143.1530 C   0  0  1  0  0  3  0  0  0  0  0  0
  187.6580  177.3540  142.7350 C   0  0  1  0  0  3  0  0  0  0  0  0
  188.0140  177.4640  144.2010 C   0  0  0  0  0  2  0  0  0  0  0  0
  186.7290  178.4180  142.3930 N   0  0  0  0  0  2  0  0  0  0  0  0
  185.4390  178.0320  142.9260 C   0  0  0  0  0  2  0  0  0  0  0  0
  184.4900  178.9400  145.0130 C   0  0  0  0  0  2  0  0  0  0  0  0
  184.7730  179.2380  143.5540 C   0  0  0  0  0  3  0  0  0  0  0  0
  183.3760  178.8610  143.9950 C   0  0  0  0  0  2  0  0  0  0  0  0
  191.2630  177.0650  138.0630 C   0  0  0  0  0  2  0  0  0  0  0  0
  191.8020  175.7570  137.5910 C   0  0  0  0  0  0  0  0  0  0  0  0
  193.3480  174.0480  137.4460 C   0  0  0  0  0  0  0  0  0  0  0  0
  192.0400  173.5270  136.5400 S   0  0  0  0  0  0  0  0  0  0  0  0
  191.0690  174.8800  136.7900 C   0  0  0  0  0  3  0  0  0  0  0  0
  193.0720  175.3030  137.9680 C   0  0  0  0  0  3  0  0  0  0  0  0
  194.5610  173.3010  137.6060 N   0  0  0  0  0  2  0  0  0  0  0  0
  198.3570  174.8650  138.6630 C   0  0  0  0  0  3  0  0  0  0  0  0
  198.1420  174.4020  137.3580 C   0  0  0  0  0  3  0  0  0  0  0  0
  197.5880  175.4000  141.2270 Cl  0  0  0  0  0  0  0  0  0  0  0  0
  197.3220  174.8150  139.6000 C   0  0  0  0  0  0  0  0  0  0  0  0
  196.0740  174.2980  139.2390 C   0  0  0  0  0  3  0  0  0  0  0  0
  195.8540  173.8220  137.9400 C   0  0  0  0  0  0  0  0  0  0  0  0
  196.8950  173.8860  136.9970 C   0  0  0  0  0  3  0  0  0  0  0  0
  1 36  1  6  0  0  0
  1 21  1  0  0  0  0
  2  4  1  0  0  0  0
  3  2  1  0  0  0  0
  3  6  1  0  0  0  0
  4  7  1  0  0  0  0
  5  7  1  0  0  0  0
  6  8  1  6  0  0  0
  6  5  1  0  0  0  0
  7  1  1  6  0  0  0
  9  8  1  0  0  0  0
  9 10  1  0  0  0  0
 10 11  1  0  0  0  0
 12 19  1  0  0  0  0
 12 18  1  0  0  0  0
 13 20  1  0  0  0  0
 14 20  1  0  0  0  0
 15 19  1  1  0  0  0
 15 14  1  0  0  0  0
 16 17  1  0  0  0  0
 16 15  1  0  0  0  0
 17 11  1  6  0  0  0
 17 18  1  0  0  0  0
 17 13  1  0  0  0  0
 21 22  1  0  0  0  0
 23 22  1  6  0  0  0
 24 23  1  1  0  0  0
 24 26  1  0  0  0  0
 24 25  1  0  0  0  0
 25 27  2  0  0  0  0
 26 25  1  0  0  0  0
 28 23  1  6  0  0  0
 28 30  1  0  0  0  0
 29 31  1  1  0  0  0
 29 28  1  0  0  0  0
 29 30  1  0  0  0  0
 31 32  1  0  0  0  0
 32 34  1  0  0  0  0
 34 35  1  0  0  0  0
 34 33  1  0  0  0  0
 35 33  1  0  0  0  0
 37 41  1  0  0  0  0
 37 36  1  0  0  0  0
 38 42  1  0  0  0  0
 38 41  2  0  0  0  0
 39 40  1  0  0  0  0
 39 38  1  0  0  0  0
 40 37  2  0  0  0  0
 42 48  1  0  0  0  0
 43 46  1  0  0  0  0
 44 43  2  0  0  0  0
 46 45  1  0  0  0  0
 47 46  2  0  0  0  0
 48 47  1  0  0  0  0
 49 44  1  0  0  0  0
 49 48  2  0  0  0  0
M  END
>  <MODEL>
3

>  <REMARK>
 VINA RESULT:      -6.8      3.167      9.640
  Name = 
  18 active torsions:
  status: ('A' for Active; 'I' for Inactive)
    1  A    between atoms: C_1  and  C_2
    2  A    between atoms: C_2  and  C_43
    3  A    between atoms: N_3  and  C_21
    4  A    between atoms: N_3  and  C_41
    5  A    between atoms: C_5  and  N_45
    6  A    between atoms: C_9  and  C_25
    7  A    between atoms: C_9  and  C_44
    8  A    between atoms: O_12  and  C_24
    9  A    between atoms: O_12  and  C_28
   10  A    between atoms: C_14  and  C_31
   11  A    between atoms: C_17  and  C_31
   12  A    between atoms: C_17  and  C_39
   13  A    between atoms: C_21  and  C_22
   14  A    between atoms: C_24  and  C_25
   15  A    between atoms: C_29  and  C_31
   16  A    between atoms: C_32  and  N_45
   17  A    between atoms: C_39  and  C_43
   18  A    between atoms: C_43  and  C_47
                            x       y       z     vdW  Elec       q    Type
                         _______ _______ _______ _____ _____    ______ ____

>  <TORSDO>
F 18

$$$$
=
 OpenBabel11032419383D

 49 56  0  0  1  0  0  0  0  0999 V2000
  187.5170  177.5660  138.3900 C   0  0  2  0  0  3  0  0  0  0  0  0
  189.6800  177.1300  135.3060 C   0  0  0  0  0  2  0  0  0  0  0  0
  190.6000  176.3770  136.2680 C   0  0  0  0  0  2  0  0  0  0  0  0
  188.6270  177.8950  136.0990 C   0  0  0  0  0  2  0  0  0  0  0  0
  188.3270  175.5240  137.0980 C   0  0  0  0  0  2  0  0  0  0  0  0
  189.8500  175.4550  137.2400 C   0  0  1  0  0  3  0  0  0  0  0  0
  187.7990  176.9640  137.0090 C   0  0  1  0  0  3  0  0  0  0  0  0
  190.3060  174.0130  137.0650 C   0  0  0  0  0  2  0  0  0  0  0  0
  191.0530  173.8250  135.7540 C   0  0  0  0  0  2  0  0  0  0  0  0
  192.4610  173.3080  135.9990 C   0  0  0  0  0  2  0  0  0  0  0  0
  192.9170  173.7290  137.2630 O   0  0  0  0  0  0  0  0  0  0  0  0
  195.8380  173.8470  139.0950 N   0  0  0  0  0  2  0  0  0  0  0  0
  194.3240  175.4250  136.2180 C   0  0  0  0  0  2  0  0  0  0  0  0
  196.8500  175.1160  136.0540 C   0  0  0  0  0  2  0  0  0  0  0  0
  196.8210  173.7850  136.8110 C   0  0  2  0  0  3  0  0  0  0  0  0
  195.2710  172.8370  136.5440 S   0  0  0  0  0  0  0  0  0  0  0  0
  194.2440  174.2200  137.1870 C   0  0  2  0  0  0  0  0  0  0  0  0
  194.7660  174.6890  138.5750 C   0  0  0  0  0  2  0  0  0  0  0  0
  197.0460  174.0590  138.2980 C   0  0  0  0  0  2  0  0  0  0  0  0
  195.5530  175.4320  135.3030 C   0  0  0  0  0  2  0  0  0  0  0  0
  186.2500  178.4030  138.3480 C   0  0  0  0  0  2  0  0  0  0  0  0
  185.0910  177.5710  137.8240 C   0  0  0  0  0  2  0  0  0  0  0  0
  183.9060  177.5280  138.8010 C   0  0  1  0  0  3  0  0  0  0  0  0
  183.4590  178.8540  139.4500 C   0  0  2  0  0  3  0  0  0  0  0  0
  183.2830  178.7240  140.9590 C   0  0  0  0  0  0  0  0  0  0  0  0
  182.1220  178.8530  139.9680 C   0  0  0  0  0  2  0  0  0  0  0  0
  183.7680  178.5830  142.1850 C   0  0  0  0  0  2  0  0  0  0  0  0
  182.7300  176.7190  138.2640 C   0  0  1  0  0  3  0  0  0  0  0  0
  183.1780  175.2890  138.0200 C   0  0  1  0  0  3  0  0  0  0  0  0
  182.3570  175.6280  139.2450 C   0  0  0  0  0  2  0  0  0  0  0  0
  182.3120  174.6770  137.0270 N   0  0  0  0  0  2  0  0  0  0  0  0
  183.1320  173.7560  136.2690 C   0  0  0  0  0  2  0  0  0  0  0  0
  185.0770  172.2820  136.6200 C   0  0  0  0  0  2  0  0  0  0  0  0
  183.7630  172.7520  137.2100 C   0  0  0  0  0  3  0  0  0  0  0  0
  183.8480  171.4080  136.5210 C   0  0  0  0  0  2  0  0  0  0  0  0
  188.6820  178.4110  138.9080 C   0  0  0  0  0  2  0  0  0  0  0  0
  189.3100  177.7900  140.1090 C   0  0  0  0  0  0  0  0  0  0  0  0
  189.3380  176.8150  142.2020 C   0  0  0  0  0  0  0  0  0  0  0  0
  190.9310  176.7810  141.6880 S   0  0  0  0  0  0  0  0  0  0  0  0
  190.6750  177.5080  140.1900 C   0  0  0  0  0  3  0  0  0  0  0  0
  188.5530  177.4030  141.2220 C   0  0  0  0  0  3  0  0  0  0  0  0
  188.8970  176.3300  143.4780 N   0  0  0  0  0  2  0  0  0  0  0  0
  186.5070  178.3670  146.3260 C   0  0  0  0  0  3  0  0  0  0  0  0
  186.0180  178.1780  145.0270 C   0  0  0  0  0  3  0  0  0  0  0  0
  188.3760  178.1080  148.3000 Cl  0  0  0  0  0  0  0  0  0  0  0  0
  187.7700  177.8790  146.6750 C   0  0  0  0  0  0  0  0  0  0  0  0
  188.5470  177.2070  145.7270 C   0  0  0  0  0  3  0  0  0  0  0  0
  188.0720  177.0250  144.4220 C   0  0  0  0  0  0  0  0  0  0  0  0
  186.7960  177.5070  144.0800 C   0  0  0  0  0  3  0  0  0  0  0  0
  1 21  1  6  0  0  0
  1 36  1  0  0  0  0
  2  4  1  0  0  0  0
  2  3  1  0  0  0  0
  3  6  1  0  0  0  0
  4  7  1  0  0  0  0
  5  6  1  0  0  0  0
  6  8  1  6  0  0  0
  7  5  1  0  0  0  0
  7  1  1  1  0  0  0
  9 10  1  0  0  0  0
  9  8  1  0  0  0  0
 10 11  1  0  0  0  0
 13 17  1  0  0  0  0
 15 14  1  6  0  0  0
 15 19  1  0  0  0  0
 16 15  1  0  0  0  0
 16 17  1  0  0  0  0
 17 11  1  1  0  0  0
 17 18  1  0  0  0  0
 18 12  1  0  0  0  0
 19 12  1  0  0  0  0
 20 14  1  0  0  0  0
 20 13  1  0  0  0  0
 22 21  1  0  0  0  0
 23 22  1  6  0  0  0
 24 23  1  6  0  0  0
 24 26  1  0  0  0  0
 24 25  1  0  0  0  0
 25 27  2  0  0  0  0
 26 25  1  0  0  0  0
 28 23  1  1  0  0  0
 28 30  1  0  0  0  0
 29 31  1  6  0  0  0
 29 28  1  0  0  0  0
 29 30  1  0  0  0  0
 32 31  1  0  0  0  0
 32 34  1  0  0  0  0
 33 34  1  0  0  0  0
 35 33  1  0  0  0  0
 35 34  1  0  0  0  0
 36 37  1  0  0  0  0
 37 40  2  0  0  0  0
 37 41  1  0  0  0  0
 38 42  1  0  0  0  0
 39 38  1  0  0  0  0
 40 39  1  0  0  0  0
 41 38  2  0  0  0  0
 42 48  1  0  0  0  0
 43 46  1  0  0  0  0
 44 43  2  0  0  0  0
 46 45  1  0  0  0  0
 47 46  2  0  0  0  0
 48 47  1  0  0  0  0
 49 48  2  0  0  0  0
 49 44  1  0  0  0  0
M  END
>  <MODEL>
4

>  <REMARK>
 VINA RESULT:      -6.7      1.313      3.297
  Name = 
  18 active torsions:
  status: ('A' for Active; 'I' for Inactive)
    1  A    between atoms: C_1  and  C_2
    2  A    between atoms: C_2  and  C_43
    3  A    between atoms: N_3  and  C_21
    4  A    between atoms: N_3  and  C_41
    5  A    between atoms: C_5  and  N_45
    6  A    between atoms: C_9  and  C_25
    7  A    between atoms: C_9  and  C_44
    8  A    between atoms: O_12  and  C_24
    9  A    between atoms: O_12  and  C_28
   10  A    between atoms: C_14  and  C_31
   11  A    between atoms: C_17  and  C_31
   12  A    between atoms: C_17  and  C_39
   13  A    between atoms: C_21  and  C_22
   14  A    between atoms: C_24  and  C_25
   15  A    between atoms: C_29  and  C_31
   16  A    between atoms: C_32  and  N_45
   17  A    between atoms: C_39  and  C_43
   18  A    between atoms: C_43  and  C_47
                            x       y       z     vdW  Elec       q    Type
                         _______ _______ _______ _____ _____    ______ ____

>  <TORSDO>
F 18

$$$$
=
 OpenBabel11032419383D

 49 56  0  0  1  0  0  0  0  0999 V2000
  187.0640  177.3550  142.7630 C   0  0  2  0  0  3  0  0  0  0  0  0
  185.9240  178.6050  146.1570 C   0  0  0  0  0  2  0  0  0  0  0  0
  185.3600  179.7720  145.3460 C   0  0  0  0  0  2  0  0  0  0  0  0
  186.8710  177.7880  145.2860 C   0  0  0  0  0  2  0  0  0  0  0  0
  184.7730  177.8360  143.7680 C   0  0  0  0  0  2  0  0  0  0  0  0
  184.6860  179.3410  144.0350 C   0  0  1  0  0  3  0  0  0  0  0  0
  186.1780  177.2660  144.0110 C   0  0  1  0  0  3  0  0  0  0  0  0
  183.2260  179.7710  144.0210 C   0  0  0  0  0  2  0  0  0  0  0  0
  182.2960  178.5740  144.1600 C   0  0  0  0  0  2  0  0  0  0  0  0
  180.8760  178.9380  143.7580 C   0  0  0  0  0  2  0  0  0  0  0  0
  180.8920  180.0220  142.8590 O   0  0  0  0  0  0  0  0  0  0  0  0
  179.8900  181.4500  139.8820 N   0  0  0  0  0  2  0  0  0  0  0  0
  179.1280  178.5960  141.9640 C   0  0  0  0  0  2  0  0  0  0  0  0
  178.9310  178.1660  139.4580 C   0  0  0  0  0  2  0  0  0  0  0  0
  180.1040  179.0910  139.1220 C   0  0  2  0  0  3  0  0  0  0  0  0
  181.3810  179.1440  140.4400 S   0  0  0  0  0  0  0  0  0  0  0  0
  180.1560  179.7190  141.6850 C   0  0  2  0  0  0  0  0  0  0  0  0
  179.3790  180.9580  141.1570 C   0  0  0  0  0  2  0  0  0  0  0  0
  179.5610  180.4890  138.8290 C   0  0  0  0  0  2  0  0  0  0  0  0
  179.0100  177.5440  140.8560 C   0  0  0  0  0  2  0  0  0  0  0  0
  188.5060  177.0330  143.1190 C   0  0  0  0  0  2  0  0  0  0  0  0
  189.3590  178.2880  143.0300 C   0  0  0  0  0  2  0  0  0  0  0  0
  190.8450  177.9770  142.7970 C   0  0  1  0  0  3  0  0  0  0  0  0
  191.7500  177.8150  144.0360 C   0  0  2  0  0  3  0  0  0  0  0  0
  191.7060  176.3980  144.5980 C   0  0  0  0  0  0  0  0  0  0  0  0
  191.0520  177.6090  145.2710 C   0  0  0  0  0  2  0  0  0  0  0  0
  191.9950  175.1050  144.5340 C   0  0  0  0  0  2  0  0  0  0  0  0
  191.0610  176.8700  141.7710 C   0  0  1  0  0  3  0  0  0  0  0  0
  190.8750  177.4390  140.3760 C   0  0  1  0  0  3  0  0  0  0  0  0
  192.2670  177.1830  140.9120 C   0  0  0  0  0  2  0  0  0  0  0  0
  190.5160  176.3670  139.4630 N   0  0  0  0  0  2  0  0  0  0  0  0
  191.0410  176.7310  138.1650 C   0  0  0  0  0  2  0  0  0  0  0  0
  193.2710  176.2280  137.2420 C   0  0  0  0  0  2  0  0  0  0  0  0
  191.9440  175.6270  137.6580 C   0  0  0  0  0  3  0  0  0  0  0  0
  192.2450  175.8630  136.1940 C   0  0  0  0  0  2  0  0  0  0  0  0
  186.9890  178.7270  142.0910 C   0  0  0  0  0  2  0  0  0  0  0  0
  186.5140  178.6160  140.6820 C   0  0  0  0  0  0  0  0  0  0  0  0
  186.7080  178.1650  138.4260 C   0  0  0  0  0  0  0  0  0  0  0  0
  185.0950  178.5570  138.6520 S   0  0  0  0  0  0  0  0  0  0  0  0
  185.1850  178.8270  140.3120 C   0  0  0  0  0  3  0  0  0  0  0  0
  187.3720  178.2410  139.6410 C   0  0  0  0  0  3  0  0  0  0  0  0
  187.2830  177.8400  137.1530 N   0  0  0  0  0  2  0  0  0  0  0  0
  188.0840  173.9310  135.7200 C   0  0  0  0  0  3  0  0  0  0  0  0
  188.7550  175.0230  135.1530 C   0  0  0  0  0  3  0  0  0  0  0  0
  186.3350  172.7720  137.4670 Cl  0  0  0  0  0  0  0  0  0  0  0  0
  187.1660  174.1370  136.7540 C   0  0  0  0  0  0  0  0  0  0  0  0
  186.9120  175.4300  137.2190 C   0  0  0  0  0  3  0  0  0  0  0  0
  187.5680  176.5290  136.6500 C   0  0  0  0  0  0  0  0  0  0  0  0
  188.5000  176.3160  135.6180 C   0  0  0  0  0  3  0  0  0  0  0  0
  1 36  1  1  0  0  0
  1 21  1  0  0  0  0
  3  2  1  0  0  0  0
  4  2  1  0  0  0  0
  5  7  1  0  0  0  0
  5  6  1  0  0  0  0
  6  8  1  1  0  0  0
  6  3  1  0  0  0  0
  7  1  1  6  0  0  0
  7  4  1  0  0  0  0
  8  9  1  0  0  0  0
 10  9  1  0  0  0  0
 11 10  1  0  0  0  0
 12 18  1  0  0  0  0
 14 20  1  0  0  0  0
 15 19  1  1  0  0  0
 15 14  1  0  0  0  0
 15 16  1  0  0  0  0
 16 17  1  0  0  0  0
 17 13  1  0  0  0  0
 17 11  1  1  0  0  0
 18 17  1  0  0  0  0
 19 12  1  0  0  0  0
 20 13  1  0  0  0  0
 22 21  1  0  0  0  0
 23 22  1  1  0  0  0
 24 23  1  6  0  0  0
 24 25  1  0  0  0  0
 24 26  1  0  0  0  0
 25 26  1  0  0  0  0
 27 25  2  0  0  0  0
 28 23  1  1  0  0  0
 29 31  1  6  0  0  0
 29 30  1  0  0  0  0
 29 28  1  0  0  0  0
 30 28  1  0  0  0  0
 32 31  1  0  0  0  0
 33 34  1  0  0  0  0
 34 32  1  0  0  0  0
 35 33  1  0  0  0  0
 35 34  1  0  0  0  0
 37 36  1  0  0  0  0
 38 39  1  0  0  0  0
 38 41  2  0  0  0  0
 39 40  1  0  0  0  0
 40 37  2  0  0  0  0
 41 37  1  0  0  0  0
 42 38  1  0  0  0  0
 43 46  1  0  0  0  0
 44 49  1  0  0  0  0
 44 43  2  0  0  0  0
 46 47  2  0  0  0  0
 46 45  1  0  0  0  0
 48 42  1  0  0  0  0
 48 47  1  0  0  0  0
 49 48  2  0  0  0  0
M  END
>  <MODEL>
5

>  <REMARK>
 VINA RESULT:      -6.7      4.358     11.448
  Name = 
  18 active torsions:
  status: ('A' for Active; 'I' for Inactive)
    1  A    between atoms: C_1  and  C_2
    2  A    between atoms: C_2  and  C_43
    3  A    between atoms: N_3  and  C_21
    4  A    between atoms: N_3  and  C_41
    5  A    between atoms: C_5  and  N_45
    6  A    between atoms: C_9  and  C_25
    7  A    between atoms: C_9  and  C_44
    8  A    between atoms: O_12  and  C_24
    9  A    between atoms: O_12  and  C_28
   10  A    between atoms: C_14  and  C_31
   11  A    between atoms: C_17  and  C_31
   12  A    between atoms: C_17  and  C_39
   13  A    between atoms: C_21  and  C_22
   14  A    between atoms: C_24  and  C_25
   15  A    between atoms: C_29  and  C_31
   16  A    between atoms: C_32  and  N_45
   17  A    between atoms: C_39  and  C_43
   18  A    between atoms: C_43  and  C_47
                            x       y       z     vdW  Elec       q    Type
                         _______ _______ _______ _____ _____    ______ ____

>  <TORSDO>
F 18

$$$$
=
 OpenBabel11032419383D

 49 56  0  0  1  0  0  0  0  0999 V2000
  189.3180  177.1370  139.6240 C   0  0  2  0  0  3  0  0  0  0  0  0
  188.4070  179.0270  136.4660 C   0  0  0  0  0  2  0  0  0  0  0  0
  188.4150  177.6340  135.8350 C   0  0  0  0  0  2  0  0  0  0  0  0
  189.0530  178.9680  137.8450 C   0  0  0  0  0  2  0  0  0  0  0  0
  187.2950  177.0800  138.0770 C   0  0  0  0  0  2  0  0  0  0  0  0
  187.7630  176.5570  136.7150 C   0  0  1  0  0  3  0  0  0  0  0  0
  188.3450  177.9600  138.7720 C   0  0  1  0  0  3  0  0  0  0  0  0
  186.5860  175.9190  135.9910 C   0  0  0  0  0  2  0  0  0  0  0  0
  186.3270  174.5070  136.4960 C   0  0  0  0  0  2  0  0  0  0  0  0
  184.8660  174.3240  136.8740 C   0  0  0  0  0  2  0  0  0  0  0  0
  184.0620  175.2210  136.1440 O   0  0  0  0  0  0  0  0  0  0  0  0
  180.7480  176.1160  135.8050 N   0  0  0  0  0  2  0  0  0  0  0  0
  183.4360  176.3570  138.2090 C   0  0  0  0  0  2  0  0  0  0  0  0
  181.1220  176.0410  139.2320 C   0  0  0  0  0  2  0  0  0  0  0  0
  180.6490  175.1360  138.0900 C   0  0  2  0  0  3  0  0  0  0  0  0
  182.0030  174.1420  137.3480 S   0  0  0  0  0  0  0  0  0  0  0  0
  182.9550  175.6540  136.9150 C   0  0  2  0  0  0  0  0  0  0  0  0
  182.0630  176.6570  136.1300 C   0  0  0  0  0  2  0  0  0  0  0  0
  179.9600  175.9980  137.0320 C   0  0  0  0  0  2  0  0  0  0  0  0
  182.6350  176.0050  139.4660 C   0  0  0  0  0  2  0  0  0  0  0  0
  189.0780  177.4060  141.1010 C   0  0  0  0  0  2  0  0  0  0  0  0
  187.9000  178.3510  141.2740 C   0  0  0  0  0  2  0  0  0  0  0  0
  187.1750  178.1530  142.6140 C   0  0  1  0  0  3  0  0  0  0  0  0
  185.6340  178.1010  142.5990 C   0  0  2  0  0  3  0  0  0  0  0  0
  185.0450  178.8690  141.4210 C   0  0  0  0  0  0  0  0  0  0  0  0
  184.9850  179.3500  142.8750 C   0  0  0  0  0  2  0  0  0  0  0  0
  184.7980  179.0150  140.1260 C   0  0  0  0  0  2  0  0  0  0  0  0
  187.7860  177.0360  143.4540 C   0  0  1  0  0  3  0  0  0  0  0  0
  188.3450  177.6230  144.7370 C   0  0  1  0  0  3  0  0  0  0  0  0
  187.0250  176.8840  144.7530 C   0  0  0  0  0  2  0  0  0  0  0  0
  189.3830  176.7480  145.2550 N   0  0  0  0  0  2  0  0  0  0  0  0
  189.7210  177.2370  146.5740 C   0  0  0  0  0  2  0  0  0  0  0  0
  188.8460  178.3390  148.5990 C   0  0  0  0  0  2  0  0  0  0  0  0
  188.5240  177.9440  147.1720 C   0  0  0  0  0  3  0  0  0  0  0  0
  187.9870  177.1260  148.3260 C   0  0  0  0  0  2  0  0  0  0  0  0
  190.7810  177.4180  139.2760 C   0  0  0  0  0  2  0  0  0  0  0  0
  191.3240  176.3900  138.3430 C   0  0  0  0  0  0  0  0  0  0  0  0
  192.9040  175.4280  136.9620 C   0  0  0  0  0  0  0  0  0  0  0  0
  191.6300  174.3410  136.9850 S   0  0  0  0  0  0  0  0  0  0  0  0
  190.6370  175.2170  138.0260 C   0  0  0  0  0  3  0  0  0  0  0  0
  192.5910  176.5170  137.7610 C   0  0  0  0  0  3  0  0  0  0  0  0
  194.1020  175.2420  136.1960 N   0  0  0  0  0  2  0  0  0  0  0  0
  197.9120  174.0070  137.5850 C   0  0  0  0  0  3  0  0  0  0  0  0
  196.7850  173.7970  138.3900 C   0  0  0  0  0  3  0  0  0  0  0  0
  199.1800  174.8680  135.3260 Cl  0  0  0  0  0  0  0  0  0  0  0  0
  197.7730  174.6130  136.3330 C   0  0  0  0  0  0  0  0  0  0  0  0
  196.5100  175.0140  135.8860 C   0  0  0  0  0  3  0  0  0  0  0  0
  195.3800  174.8190  136.6890 C   0  0  0  0  0  0  0  0  0  0  0  0
  195.5240  174.1980  137.9430 C   0  0  0  0  0  3  0  0  0  0  0  0
  1 36  1  6  0  0  0
  1 21  1  0  0  0  0
  2  4  1  0  0  0  0
  3  2  1  0  0  0  0
  3  6  1  0  0  0  0
  4  7  1  0  0  0  0
  5  7  1  0  0  0  0
  6  8  1  6  0  0  0
  6  5  1  0  0  0  0
  7  1  1  6  0  0  0
  8  9  1  0  0  0  0
  9 10  1  0  0  0  0
 11 10  1  0  0  0  0
 12 18  1  0  0  0  0
 12 19  1  0  0  0  0
 13 20  1  0  0  0  0
 14 20  1  0  0  0  0
 15 19  1  6  0  0  0
 15 14  1  0  0  0  0
 16 15  1  0  0  0  0
 17 11  1  6  0  0  0
 17 16  1  0  0  0  0
 17 13  1  0  0  0  0
 18 17  1  0  0  0  0
 21 22  1  0  0  0  0
 23 22  1  6  0  0  0
 24 23  1  6  0  0  0
 24 26  1  0  0  0  0
 25 24  1  0  0  0  0
 25 26  1  0  0  0  0
 27 25  2  0  0  0  0
 28 23  1  6  0  0  0
 28 29  1  0  0  0  0
 28 30  1  0  0  0  0
 29 30  1  0  0  0  0
 29 31  1  1  0  0  0
 31 32  1  0  0  0  0
 32 34  1  0  0  0  0
 34 35  1  0  0  0  0
 34 33  1  0  0  0  0
 35 33  1  0  0  0  0
 37 36  1  0  0  0  0
 38 39  1  0  0  0  0
 38 41  2  0  0  0  0
 39 40  1  0  0  0  0
 40 37  2  0  0  0  0
 41 37  1  0  0  0  0
 42 48  1  0  0  0  0
 42 38  1  0  0  0  0
 43 44  1  0  0  0  0
 45 46  1  0  0  0  0
 46 43  2  0  0  0  0
 47 46  1  0  0  0  0
 47 48  2  0  0  0  0
 48 49  1  0  0  0  0
 49 44  2  0  0  0  0
M  END
>  <MODEL>
6

>  <REMARK>
 VINA RESULT:      -6.5      3.499      9.548
  Name = 
  18 active torsions:
  status: ('A' for Active; 'I' for Inactive)
    1  A    between atoms: C_1  and  C_2
    2  A    between atoms: C_2  and  C_43
    3  A    between atoms: N_3  and  C_21
    4  A    between atoms: N_3  and  C_41
    5  A    between atoms: C_5  and  N_45
    6  A    between atoms: C_9  and  C_25
    7  A    between atoms: C_9  and  C_44
    8  A    between atoms: O_12  and  C_24
    9  A    between atoms: O_12  and  C_28
   10  A    between atoms: C_14  and  C_31
   11  A    between atoms: C_17  and  C_31
   12  A    between atoms: C_17  and  C_39
   13  A    between atoms: C_21  and  C_22
   14  A    between atoms: C_24  and  C_25
   15  A    between atoms: C_29  and  C_31
   16  A    between atoms: C_32  and  N_45
   17  A    between atoms: C_39  and  C_43
   18  A    between atoms: C_43  and  C_47
                            x       y       z     vdW  Elec       q    Type
                         _______ _______ _______ _____ _____    ______ ____

>  <TORSDO>
F 18

$$$$
=
 OpenBabel11032419383D

 49 56  0  0  1  0  0  0  0  0999 V2000
  190.0960  177.1190  137.9330 C   0  0  2  0  0  3  0  0  0  0  0  0
  187.6510  177.8880  135.1390 C   0  0  0  0  0  2  0  0  0  0  0  0
  186.6270  177.2890  136.1030 C   0  0  0  0  0  2  0  0  0  0  0  0
  189.0590  177.5740  135.6300 C   0  0  0  0  0  2  0  0  0  0  0  0
  188.0470  178.6250  137.7700 C   0  0  0  0  0  2  0  0  0  0  0  0
  186.8240  177.7290  137.5610 C   0  0  1  0  0  3  0  0  0  0  0  0
  189.3030  178.0980  137.0590 C   0  0  1  0  0  3  0  0  0  0  0  0
  185.5830  178.4450  138.0740 C   0  0  0  0  0  2  0  0  0  0  0  0
  185.6270  178.6150  139.5850 C   0  0  0  0  0  2  0  0  0  0  0  0
  184.3360  179.2290  140.1020 C   0  0  0  0  0  2  0  0  0  0  0  0
  183.2850  178.9710  139.2010 O   0  0  0  0  0  0  0  0  0  0  0  0
  180.6580  179.1970  141.4270 N   0  0  0  0  0  2  0  0  0  0  0  0
  182.7210  176.6870  139.8460 C   0  0  0  0  0  2  0  0  0  0  0  0
  180.2990  175.9880  140.2210 C   0  0  0  0  0  2  0  0  0  0  0  0
  179.7630  177.3980  139.9600 C   0  0  2  0  0  3  0  0  0  0  0  0
  180.7800  178.3460  138.7600 S   0  0  0  0  0  0  0  0  0  0  0  0
  182.2820  178.1710  139.8060 C   0  0  2  0  0  0  0  0  0  0  0  0
  181.9890  178.6210  141.2660 C   0  0  0  0  0  2  0  0  0  0  0  0
  179.6570  178.1390  141.2930 C   0  0  0  0  0  2  0  0  0  0  0  0
  181.6170  175.6810  139.5050 C   0  0  0  0  0  2  0  0  0  0  0  0
  190.5710  175.9400  137.1010 C   0  0  0  0  0  2  0  0  0  0  0  0
  189.7820  174.6930  137.4630 C   0  0  0  0  0  2  0  0  0  0  0  0
  189.8830  173.5970  136.3920 C   0  0  1  0  0  3  0  0  0  0  0  0
  188.5960  173.2060  135.6370 C   0  0  2  0  0  3  0  0  0  0  0  0
  187.3630  173.2710  136.5320 C   0  0  0  0  0  0  0  0  0  0  0  0
  188.0060  171.9660  136.0500 C   0  0  0  0  0  2  0  0  0  0  0  0
  186.4510  173.9460  137.2180 C   0  0  0  0  0  2  0  0  0  0  0  0
  191.0690  173.7990  135.4540 C   0  0  1  0  0  3  0  0  0  0  0  0
  192.1730  172.8270  135.8280 C   0  0  1  0  0  3  0  0  0  0  0  0
  191.2960  172.5530  134.6250 C   0  0  0  0  0  2  0  0  0  0  0  0
  193.4490  173.3510  135.3720 N   0  0  0  0  0  2  0  0  0  0  0  0
  194.4080  173.0880  136.4240 C   0  0  0  0  0  2  0  0  0  0  0  0
  195.2770  174.2620  138.4100 C   0  0  0  0  0  2  0  0  0  0  0  0
  194.9680  174.3990  136.9330 C   0  0  0  0  0  3  0  0  0  0  0  0
  194.0240  174.9780  137.9630 C   0  0  0  0  0  2  0  0  0  0  0  0
  189.2860  176.6180  139.1300 C   0  0  0  0  0  2  0  0  0  0  0  0
  189.9890  176.8970  140.4150 C   0  0  0  0  0  0  0  0  0  0  0  0
  190.2460  176.9180  142.7100 C   0  0  0  0  0  0  0  0  0  0  0  0
  191.6880  177.5200  142.1070 S   0  0  0  0  0  0  0  0  0  0  0  0
  191.2870  177.4060  140.4750 C   0  0  0  0  0  3  0  0  0  0  0  0
  189.3990  176.6160  141.6550 C   0  0  0  0  0  3  0  0  0  0  0  0
  189.9570  176.7830  144.1080 N   0  0  0  0  0  2  0  0  0  0  0  0
  186.4050  178.0570  146.0390 C   0  0  0  0  0  3  0  0  0  0  0  0
  187.5470  177.7890  146.8060 C   0  0  0  0  0  3  0  0  0  0  0  0
  185.0230  178.2540  143.6930 Cl  0  0  0  0  0  0  0  0  0  0  0  0
  186.4470  177.9110  144.6500 C   0  0  0  0  0  0  0  0  0  0  0  0
  187.6250  177.4920  144.0250 C   0  0  0  0  0  3  0  0  0  0  0  0
  188.7680  177.2090  144.7840 C   0  0  0  0  0  0  0  0  0  0  0  0
  188.7240  177.3700  146.1810 C   0  0  0  0  0  3  0  0  0  0  0  0
  1 21  1  6  0  0  0
  1 36  1  0  0  0  0
  2  4  1  0  0  0  0
  2  3  1  0  0  0  0
  3  6  1  0  0  0  0
  4  7  1  0  0  0  0
  6  5  1  0  0  0  0
  6  8  1  6  0  0  0
  7  5  1  0  0  0  0
  7  1  1  1  0  0  0
  8  9  1  0  0  0  0
  9 10  1  0  0  0  0
 11 10  1  0  0  0  0
 15 14  1  1  0  0  0
 15 19  1  0  0  0  0
 16 17  1  0  0  0  0
 16 15  1  0  0  0  0
 17 11  1  6  0  0  0
 17 13  1  0  0  0  0
 17 18  1  0  0  0  0
 18 12  1  0  0  0  0
 19 12  1  0  0  0  0
 20 13  1  0  0  0  0
 20 14  1  0  0  0  0
 21 22  1  0  0  0  0
 23 22  1  6  0  0  0
 24 26  1  0  0  0  0
 24 23  1  1  0  0  0
 24 25  1  0  0  0  0
 25 27  2  0  0  0  0
 26 25  1  0  0  0  0
 28 29  1  0  0  0  0
 28 23  1  1  0  0  0
 29 31  1  6  0  0  0
 30 28  1  0  0  0  0
 30 29  1  0  0  0  0
 31 32  1  0  0  0  0
 32 34  1  0  0  0  0
 34 35  1  0  0  0  0
 34 33  1  0  0  0  0
 35 33  1  0  0  0  0
 36 37  1  0  0  0  0
 37 40  2  0  0  0  0
 37 41  1  0  0  0  0
 38 42  1  0  0  0  0
 39 38  1  0  0  0  0
 40 39  1  0  0  0  0
 41 38  2  0  0  0  0
 42 48  1  0  0  0  0
 43 44  1  0  0  0  0
 45 46  1  0  0  0  0
 46 43  2  0  0  0  0
 47 46  1  0  0  0  0
 47 48  2  0  0  0  0
 48 49  1  0  0  0  0
 49 44  2  0  0  0  0
M  END
>  <MODEL>
7

>  <REMARK>
 VINA RESULT:      -6.5      2.865      9.110
  Name = 
  18 active torsions:
  status: ('A' for Active; 'I' for Inactive)
    1  A    between atoms: C_1  and  C_2
    2  A    between atoms: C_2  and  C_43
    3  A    between atoms: N_3  and  C_21
    4  A    between atoms: N_3  and  C_41
    5  A    between atoms: C_5  and  N_45
    6  A    between atoms: C_9  and  C_25
    7  A    between atoms: C_9  and  C_44
    8  A    between atoms: O_12  and  C_24
    9  A    between atoms: O_12  and  C_28
   10  A    between atoms: C_14  and  C_31
   11  A    between atoms: C_17  and  C_31
   12  A    between atoms: C_17  and  C_39
   13  A    between atoms: C_21  and  C_22
   14  A    between atoms: C_24  and  C_25
   15  A    between atoms: C_29  and  C_31
   16  A    between atoms: C_32  and  N_45
   17  A    between atoms: C_39  and  C_43
   18  A    between atoms: C_43  and  C_47
                            x       y       z     vdW  Elec       q    Type
                         _______ _______ _______ _____ _____    ______ ____

>  <TORSDO>
F 18

$$$$
=
 OpenBabel11032419383D

 49 56  0  0  1  0  0  0  0  0999 V2000
  189.2250  177.2870  140.1930 C   0  0  2  0  0  3  0  0  0  0  0  0
  188.8540  179.1010  136.8840 C   0  0  0  0  0  2  0  0  0  0  0  0
  188.6480  177.6910  136.3300 C   0  0  0  0  0  2  0  0  0  0  0  0
  189.3980  179.0180  138.3050 C   0  0  0  0  0  2  0  0  0  0  0  0
  187.3180  177.4880  138.5160 C   0  0  0  0  0  2  0  0  0  0  0  0
  187.7620  176.8050  137.2190 C   0  0  1  0  0  3  0  0  0  0  0  0
  188.4670  178.2120  139.2340 C   0  0  1  0  0  3  0  0  0  0  0  0
  186.5340  176.3380  136.4510 C   0  0  0  0  0  2  0  0  0  0  0  0
  186.0410  174.9920  136.9610 C   0  0  0  0  0  2  0  0  0  0  0  0
  184.5280  174.9860  137.1080 C   0  0  0  0  0  2  0  0  0  0  0  0
  183.9810  176.1410  136.5160 O   0  0  0  0  0  0  0  0  0  0  0  0
  180.8880  177.6290  136.1720 N   0  0  0  0  0  2  0  0  0  0  0  0
  183.4220  177.0900  138.6920 C   0  0  0  0  0  2  0  0  0  0  0  0
  181.0280  177.0460  139.5670 C   0  0  0  0  0  2  0  0  0  0  0  0
  180.4850  176.3930  138.2930 C   0  0  2  0  0  3  0  0  0  0  0  0
  181.7000  175.2850  137.4750 S   0  0  0  0  0  0  0  0  0  0  0  0
  182.9140  176.6540  137.2950 C   0  0  2  0  0  0  0  0  0  0  0  0
  182.2510  177.8890  136.6210 C   0  0  0  0  0  2  0  0  0  0  0  0
  180.0150  177.4900  137.3380 C   0  0  0  0  0  2  0  0  0  0  0  0
  182.4960  176.7200  139.8550 C   0  0  0  0  0  2  0  0  0  0  0  0
  188.7280  177.4860  141.6150 C   0  0  0  0  0  2  0  0  0  0  0  0
  189.0260  176.2510  142.4510 C   0  0  0  0  0  2  0  0  0  0  0  0
  189.2130  176.5770  143.9400 C   0  0  1  0  0  3  0  0  0  0  0  0
  190.6520  176.6140  144.4950 C   0  0  2  0  0  3  0  0  0  0  0  0
  191.4300  177.8250  143.9930 C   0  0  0  0  0  0  0  0  0  0  0  0
  191.6800  176.3890  143.5220 C   0  0  0  0  0  2  0  0  0  0  0  0
  191.6780  179.1280  143.9700 C   0  0  0  0  0  2  0  0  0  0  0  0
  188.3860  177.7770  144.3880 C   0  0  1  0  0  3  0  0  0  0  0  0
  187.1920  177.2910  145.1900 C   0  0  1  0  0  3  0  0  0  0  0  0
  188.3920  177.8810  145.8980 C   0  0  0  0  0  2  0  0  0  0  0  0
  186.1380  178.2890  145.1370 N   0  0  0  0  0  2  0  0  0  0  0  0
  185.4040  178.0560  143.9130 C   0  0  0  0  0  2  0  0  0  0  0  0
  183.0870  178.8890  143.7840 C   0  0  0  0  0  2  0  0  0  0  0  0
  184.5440  179.2630  143.6020 C   0  0  0  0  0  3  0  0  0  0  0  0
  183.6810  178.9630  142.3970 C   0  0  0  0  0  2  0  0  0  0  0  0
  190.7390  177.5020  140.1380 C   0  0  0  0  0  2  0  0  0  0  0  0
  191.3750  176.6200  139.1170 C   0  0  0  0  0  0  0  0  0  0  0  0
  193.1120  175.7960  137.8390 C   0  0  0  0  0  0  0  0  0  0  0  0
  191.7940  174.8390  137.4480 S   0  0  0  0  0  0  0  0  0  0  0  0
  190.6880  175.5910  138.4710 C   0  0  0  0  0  3  0  0  0  0  0  0
  192.7280  176.7410  138.7780 C   0  0  0  0  0  3  0  0  0  0  0  0
  194.4110  175.6510  137.2490 N   0  0  0  0  0  2  0  0  0  0  0  0
  196.9300  172.2590  137.6000 C   0  0  0  0  0  3  0  0  0  0  0  0
  197.4980  173.5160  137.3530 C   0  0  0  0  0  3  0  0  0  0  0  0
  194.8370  170.5660  138.0500 Cl  0  0  0  0  0  0  0  0  0  0  0  0
  195.5440  172.1340  137.7350 C   0  0  0  0  0  0  0  0  0  0  0  0
  194.7250  173.2610  137.6190 C   0  0  0  0  0  3  0  0  0  0  0  0
  195.2830  174.5190  137.3600 C   0  0  0  0  0  0  0  0  0  0  0  0
  196.6790  174.6420  137.2370 C   0  0  0  0  0  3  0  0  0  0  0  0
  1 36  1  1  0  0  0
  1 21  1  0  0  0  0
  2  4  1  0  0  0  0
  3  2  1  0  0  0  0
  3  6  1  0  0  0  0
  4  7  1  0  0  0  0
  5  7  1  0  0  0  0
  6  8  1  6  0  0  0
  6  5  1  0  0  0  0
  7  1  1  6  0  0  0
  8  9  1  0  0  0  0
  9 10  1  0  0  0  0
 11 10  1  0  0  0  0
 12 18  1  0  0  0  0
 12 19  1  0  0  0  0
 13 20  1  0  0  0  0
 14 20  1  0  0  0  0
 15 19  1  6  0  0  0
 15 14  1  0  0  0  0
 16 15  1  0  0  0  0
 17 11  1  6  0  0  0
 17 16  1  0  0  0  0
 17 13  1  0  0  0  0
 18 17  1  0  0  0  0
 21 22  1  0  0  0  0
 23 22  1  6  0  0  0
 24 23  1  6  0  0  0
 25 24  1  0  0  0  0
 26 25  1  0  0  0  0
 26 24  1  0  0  0  0
 27 25  2  0  0  0  0
 28 23  1  1  0  0  0
 28 29  1  0  0  0  0
 28 30  1  0  0  0  0
 29 31  1  6  0  0  0
 29 30  1  0  0  0  0
 32 31  1  0  0  0  0
 34 33  1  0  0  0  0
 34 32  1  0  0  0  0
 35 34  1  0  0  0  0
 35 33  1  0  0  0  0
 37 36  1  0  0  0  0
 38 41  2  0  0  0  0
 39 38  1  0  0  0  0
 39 40  1  0  0  0  0
 40 37  2  0  0  0  0
 41 37  1  0  0  0  0
 42 48  1  0  0  0  0
 42 38  1  0  0  0  0
 43 46  1  0  0  0  0
 44 43  2  0  0  0  0
 46 45  1  0  0  0  0
 47 46  2  0  0  0  0
 48 47  1  0  0  0  0
 49 44  1  0  0  0  0
 49 48  2  0  0  0  0
M  END
>  <MODEL>
8

>  <REMARK>
 VINA RESULT:      -6.4      3.352      9.589
  Name = 
  18 active torsions:
  status: ('A' for Active; 'I' for Inactive)
    1  A    between atoms: C_1  and  C_2
    2  A    between atoms: C_2  and  C_43
    3  A    between atoms: N_3  and  C_21
    4  A    between atoms: N_3  and  C_41
    5  A    between atoms: C_5  and  N_45
    6  A    between atoms: C_9  and  C_25
    7  A    between atoms: C_9  and  C_44
    8  A    between atoms: O_12  and  C_24
    9  A    between atoms: O_12  and  C_28
   10  A    between atoms: C_14  and  C_31
   11  A    between atoms: C_17  and  C_31
   12  A    between atoms: C_17  and  C_39
   13  A    between atoms: C_21  and  C_22
   14  A    between atoms: C_24  and  C_25
   15  A    between atoms: C_29  and  C_31
   16  A    between atoms: C_32  and  N_45
   17  A    between atoms: C_39  and  C_43
   18  A    between atoms: C_43  and  C_47
                            x       y       z     vdW  Elec       q    Type
                         _______ _______ _______ _____ _____    ______ ____

>  <TORSDO>
F 18

$$$$
=
 OpenBabel11032419383D

 49 56  0  0  1  0  0  0  0  0999 V2000
  185.5640  177.2200  137.5870 C   0  0  2  0  0  3  0  0  0  0  0  0
  188.8500  178.6330  136.3290 C   0  0  0  0  0  2  0  0  0  0  0  0
  189.1040  178.9040  137.8120 C   0  0  0  0  0  2  0  0  0  0  0  0
  187.3830  178.2790  136.1180 C   0  0  0  0  0  2  0  0  0  0  0  0
  188.0010  176.5930  137.9840 C   0  0  0  0  0  2  0  0  0  0  0  0
  188.6660  177.7530  138.7310 C   0  0  1  0  0  3  0  0  0  0  0  0
  186.9550  177.0620  136.9620 C   0  0  1  0  0  3  0  0  0  0  0  0
  189.8520  177.2250  139.5250 C   0  0  0  0  0  2  0  0  0  0  0  0
  190.5260  176.0650  138.8070 C   0  0  0  0  0  2  0  0  0  0  0  0
  191.9810  176.3860  138.5020 C   0  0  0  0  0  2  0  0  0  0  0  0
  192.1480  176.6080  137.1220 O   0  0  0  0  0  0  0  0  0  0  0  0
  195.4100  176.3870  136.0200 N   0  0  0  0  0  2  0  0  0  0  0  0
  192.3020  174.5540  135.8160 C   0  0  0  0  0  2  0  0  0  0  0  0
  194.3910  173.0960  135.9030 C   0  0  0  0  0  2  0  0  0  0  0  0
  195.1250  174.0570  136.8430 C   0  0  2  0  0  3  0  0  0  0  0  0
  193.9960  174.9610  137.9750 S   0  0  0  0  0  0  0  0  0  0  0  0
  193.0600  175.6780  136.5640 C   0  0  2  0  0  0  0  0  0  0  0  0
  194.0280  176.3560  135.5530 C   0  0  0  0  0  2  0  0  0  0  0  0
  195.9540  175.0290  136.0040 C   0  0  0  0  0  2  0  0  0  0  0  0
  192.8660  173.1460  136.0300 C   0  0  0  0  0  2  0  0  0  0  0  0
  184.4900  176.8750  136.5680 C   0  0  0  0  0  2  0  0  0  0  0  0
  184.7330  175.4850  136.0030 C   0  0  0  0  0  2  0  0  0  0  0  0
  183.6100  174.4980  136.3590 C   0  0  1  0  0  3  0  0  0  0  0  0
  182.1650  174.8840  135.9810 C   0  0  2  0  0  3  0  0  0  0  0  0
  181.1370  173.9610  136.6270 C   0  0  0  0  0  0  0  0  0  0  0  0
  181.4900  173.9420  135.1360 C   0  0  0  0  0  2  0  0  0  0  0  0
  180.4700  173.5100  137.6800 C   0  0  0  0  0  2  0  0  0  0  0  0
  183.9470  173.0610  135.9760 C   0  0  1  0  0  3  0  0  0  0  0  0
  185.2720  172.6730  136.6090 C   0  0  1  0  0  3  0  0  0  0  0  0
  183.9720  172.1850  137.2110 C   0  0  0  0  0  2  0  0  0  0  0  0
  185.8720  171.5930  135.8440 N   0  0  0  0  0  2  0  0  0  0  0  0
  187.3030  171.8060  135.8740 C   0  0  0  0  0  2  0  0  0  0  0  0
  188.5160  173.9380  135.6280 C   0  0  0  0  0  2  0  0  0  0  0  0
  187.6010  173.1370  136.5310 C   0  0  0  0  0  3  0  0  0  0  0  0
  189.0800  173.2230  136.8340 C   0  0  0  0  0  2  0  0  0  0  0  0
  185.3270  178.6270  138.1360 C   0  0  0  0  0  2  0  0  0  0  0  0
  184.6530  178.5840  139.4650 C   0  0  0  0  0  0  0  0  0  0  0  0
  184.4800  178.8950  141.7470 C   0  0  0  0  0  0  0  0  0  0  0  0
  182.9730  178.3400  141.2690 S   0  0  0  0  0  0  0  0  0  0  0  0
  183.3220  178.1980  139.6270 C   0  0  0  0  0  3  0  0  0  0  0  0
  185.3080  178.9800  140.6380 C   0  0  0  0  0  3  0  0  0  0  0  0
  184.8310  179.1940  143.1050 N   0  0  0  0  0  2  0  0  0  0  0  0
  187.7050  177.1250  145.4350 C   0  0  0  0  0  3  0  0  0  0  0  0
  186.7280  177.8990  146.0750 C   0  0  0  0  0  3  0  0  0  0  0  0
  188.9350  176.0610  143.2420 Cl  0  0  0  0  0  0  0  0  0  0  0  0
  187.7200  177.0340  144.0400 C   0  0  0  0  0  0  0  0  0  0  0  0
  186.7660  177.7200  143.2830 C   0  0  0  0  0  3  0  0  0  0  0  0
  185.7930  178.5060  143.9140 C   0  0  0  0  0  0  0  0  0  0  0  0
  185.7750  178.5850  145.3180 C   0  0  0  0  0  3  0  0  0  0  0  0
  1 21  1  6  0  0  0
  1 36  1  0  0  0  0
  2  3  1  0  0  0  0
  3  6  1  0  0  0  0
  4  2  1  0  0  0  0
  4  7  1  0  0  0  0
  5  6  1  0  0  0  0
  6  8  1  6  0  0  0
  7  1  1  1  0  0  0
  7  5  1  0  0  0  0
  9  8  1  0  0  0  0
 10  9  1  0  0  0  0
 11 10  1  0  0  0  0
 13 20  1  0  0  0  0
 13 17  1  0  0  0  0
 14 20  1  0  0  0  0
 15 14  1  6  0  0  0
 15 16  1  0  0  0  0
 17 11  1  1  0  0  0
 17 16  1  0  0  0  0
 18 12  1  0  0  0  0
 18 17  1  0  0  0  0
 19 12  1  0  0  0  0
 19 15  1  0  0  0  0
 22 21  1  0  0  0  0
 23 22  1  6  0  0  0
 24 23  1  1  0  0  0
 24 25  1  0  0  0  0
 25 27  2  0  0  0  0
 26 24  1  0  0  0  0
 26 25  1  0  0  0  0
 28 23  1  1  0  0  0
 28 29  1  0  0  0  0
 28 30  1  0  0  0  0
 29 31  1  6  0  0  0
 29 30  1  0  0  0  0
 31 32  1  0  0  0  0
 32 34  1  0  0  0  0
 33 34  1  0  0  0  0
 33 35  1  0  0  0  0
 34 35  1  0  0  0  0
 36 37  1  0  0  0  0
 37 40  2  0  0  0  0
 37 41  1  0  0  0  0
 38 42  1  0  0  0  0
 39 38  1  0  0  0  0
 40 39  1  0  0  0  0
 41 38  2  0  0  0  0
 42 48  1  0  0  0  0
 43 44  1  0  0  0  0
 45 46  1  0  0  0  0
 46 43  2  0  0  0  0
 47 48  2  0  0  0  0
 47 46  1  0  0  0  0
 48 49  1  0  0  0  0
 49 44  2  0  0  0  0
M  END
>  <MODEL>
9

>  <REMARK>
 VINA RESULT:      -6.3      2.502      4.455
  Name = 
  18 active torsions:
  status: ('A' for Active; 'I' for Inactive)
    1  A    between atoms: C_1  and  C_2
    2  A    between atoms: C_2  and  C_43
    3  A    between atoms: N_3  and  C_21
    4  A    between atoms: N_3  and  C_41
    5  A    between atoms: C_5  and  N_45
    6  A    between atoms: C_9  and  C_25
    7  A    between atoms: C_9  and  C_44
    8  A    between atoms: O_12  and  C_24
    9  A    between atoms: O_12  and  C_28
   10  A    between atoms: C_14  and  C_31
   11  A    between atoms: C_17  and  C_31
   12  A    between atoms: C_17  and  C_39
   13  A    between atoms: C_21  and  C_22
   14  A    between atoms: C_24  and  C_25
   15  A    between atoms: C_29  and  C_31
   16  A    between atoms: C_32  and  N_45
   17  A    between atoms: C_39  and  C_43
   18  A    between atoms: C_43  and  C_47
                            x       y       z     vdW  Elec       q    Type
                         _______ _______ _______ _____ _____    ______ ____

>  <TORSDO>
F 18

$$$$
