=
 OpenBabel11032420023D

 46 53  0  0  1  0  0  0  0  0999 V2000
  186.6880  175.2760  137.1460 C   0  0  0  0  0  0  0  0  0  0  0  0
  187.7040  179.4750  136.8370 C   0  0  0  0  0  3  0  0  0  0  0  0
  185.1490  173.4140  136.8640 C   0  0  0  0  0  0  0  0  0  0  0  0
  186.0660  178.1770  138.1670 C   0  0  0  0  0  0  0  0  0  0  0  0
  189.3530  177.9430  137.3750 C   0  0  0  0  0  3  0  0  0  0  0  0
  184.3920  175.6670  136.4250 C   0  0  0  0  0  3  0  0  0  0  0  0
  184.1420  174.2940  136.4700 C   0  0  0  0  0  3  0  0  0  0  0  0
  188.2310  177.2320  137.3640 C   0  0  0  0  0  0  0  0  0  0  0  0
  186.4090  173.9030  137.2070 C   0  0  0  0  0  3  0  0  0  0  0  0
  185.6960  178.4200  139.3780 N   0  0  0  0  0  0  0  0  0  0  0  0
  185.6500  176.1770  136.7630 C   0  0  0  0  0  0  0  0  0  0  0  0
  184.8950  172.0490  136.9120 O   0  0  0  0  0  1  0  0  0  0  0  0
  188.0820  175.7490  137.5310 C   0  0  2  0  0  3  0  0  0  0  0  0
  189.0160  179.3400  137.0440 C   0  0  0  0  0  3  0  0  0  0  0  0
  187.1190  178.1360  137.0710 C   0  0  2  0  0  0  0  0  0  0  0  0
  185.8050  177.6840  136.7350 C   0  0  2  0  0  3  0  0  0  0  0  0
  190.0410  173.9920  134.7690 C   0  0  0  0  0  3  0  0  0  0  0  0
  191.3920  174.0350  136.7830 C   0  0  0  0  0  0  0  0  0  0  0  0
  191.2250  173.6760  135.4410 C   0  0  0  0  0  3  0  0  0  0  0  0
  189.1610  175.0060  136.7900 C   0  0  0  0  0  0  0  0  0  0  0  0
  189.0140  174.6610  135.4390 C   0  0  0  0  0  3  0  0  0  0  0  0
  190.3540  174.7030  137.4530 C   0  0  0  0  0  3  0  0  0  0  0  0
  192.5950  173.7290  137.4200 O   0  0  0  0  0  0  0  0  0  0  0  0
  193.6100  174.7010  137.6440 C   0  0  0  0  0  2  0  0  0  0  0  0
  194.8400  174.3840  136.7920 C   0  0  2  0  0  3  0  0  0  0  0  0
  197.6430  170.5820  137.3460 C   0  0  0  0  0  1  0  0  0  0  0  0
  196.2170  172.6000  137.8700 C   0  0  0  0  0  0  0  0  0  0  0  0
  197.6060  174.6210  136.8440 S   0  0  0  0  0  0  0  0  0  0  0  0
  198.2350  172.9230  136.5840 C   0  0  0  0  0  2  0  0  0  0  0  0
  195.3940  171.9260  138.5460 O   0  0  0  0  0  0  0  0  0  0  0  0
  196.0630  174.0640  137.6660 C   0  0  1  0  0  3  0  0  0  0  0  0
  197.3580  172.0060  137.2770 N   0  0  0  0  0  0  0  0  0  0  0  0
  195.1140  175.4690  135.8680 N   0  0  0  0  0  0  0  0  0  0  0  0
  194.2560  176.3950  135.6150 C   0  0  0  0  0  2  0  0  0  0  0  0
  186.6050  178.9120  140.2810 O   0  0  0  0  0  0  0  0  0  0  0  0
  189.7220  177.0160  143.1450 C   0  0  2  0  0  0  0  0  0  0  0  0
  188.3020  177.2510  143.0430 N   0  0  0  0  0  0  0  0  0  0  0  0
  191.2350  176.9390  145.2330 C   0  0  0  0  0  1  0  0  0  0  0  0
  186.8330  178.2480  141.4630 N   0  0  0  0  0  0  0  0  0  0  0  0
  190.3710  177.7450  141.9590 C   0  0  0  0  0  2  0  0  0  0  0  0
  187.7100  177.7030  144.2900 C   0  0  0  0  0  2  0  0  0  0  0  0
  189.2420  178.1440  141.0070 C   0  0  0  0  0  2  0  0  0  0  0  0
  188.0270  177.8980  141.8150 C   0  0  0  0  0  0  0  0  0  0  0  0
  188.8440  177.7020  145.3030 C   0  0  0  0  0  2  0  0  0  0  0  0
  189.9950  175.5180  143.0560 C   0  0  0  0  0  1  0  0  0  0  0  0
  190.1220  177.6490  144.4780 C   0  0  2  0  0  3  0  0  0  0  0  0
  1  9  1  0  0  0  0
  1 13  1  0  0  0  0
  2 14  2  0  0  0  0
  3 12  1  0  0  0  0
  3  9  2  0  0  0  0
  4 10  2  0  0  0  0
  6  7  2  0  0  0  0
  6 11  1  0  0  0  0
  7  3  1  0  0  0  0
  8  5  2  0  0  0  0
  8 13  1  0  0  0  0
 10 35  1  0  0  0  0
 11  1  2  0  0  0  0
 13 20  1  6  0  0  0
 14  5  1  0  0  0  0
 15  2  1  6  0  0  0
 15  8  1  0  0  0  0
 15  4  1  0  0  0  0
 16 11  1  1  0  0  0
 16 15  1  0  0  0  0
 16  4  1  0  0  0  0
 17 21  2  0  0  0  0
 17 19  1  0  0  0  0
 18 23  1  0  0  0  0
 18 22  1  0  0  0  0
 19 18  2  0  0  0  0
 20 22  2  0  0  0  0
 21 20  1  0  0  0  0
 23 24  1  0  0  0  0
 25 24  1  1  0  0  0
 27 30  2  0  0  0  0
 28 31  1  0  0  0  0
 29 28  1  0  0  0  0
 29 32  1  0  0  0  0
 31 25  1  6  0  0  0
 31 27  1  0  0  0  0
 32 26  1  0  0  0  0
 32 27  1  0  0  0  0
 33 25  1  0  0  0  0
 34 33  2  0  0  0  0
 35 39  1  0  0  0  0
 36 45  1  6  0  0  0
 36 46  1  0  0  0  0
 37 36  1  0  0  0  0
 37 41  1  0  0  0  0
 39 43  2  0  0  0  0
 40 36  1  0  0  0  0
 41 44  1  0  0  0  0
 42 43  1  0  0  0  0
 42 40  1  0  0  0  0
 43 37  1  0  0  0  0
 46 38  1  1  0  0  0
 46 44  1  0  0  0  0
M  END
>  <MODEL>
1

>  <REMARK>
 VINA RESULT:      -8.2      0.000      0.000
  Name = 
  8 active torsions:
  status: ('A' for Active; 'I' for Inactive)
    1  A    between atoms: N_2  and  C_8
    2  A    between atoms: C_8  and  C_13
    3  A    between atoms: C_8  and  C_24
    4  A    between atoms: O_11  and  C_13
    5  A    between atoms: O_11  and  C_21
    6  A    between atoms: N_17  and  O_41
    7  A    between atoms: N_29  and  O_41
    8  A    between atoms: C_31  and  C_36
                            x       y       z     vdW  Elec       q    Type
                         _______ _______ _______ _____ _____    ______ ____

>  <TORSDO>
F 8

$$$$
=
 OpenBabel11032420023D

 46 53  0  0  1  0  0  0  0  0999 V2000
  181.8690  179.5000  138.5620 C   0  0  0  0  0  0  0  0  0  0  0  0
  180.4920  175.4200  138.1040 C   0  0  0  0  0  3  0  0  0  0  0  0
  181.7060  181.8840  138.1060 C   0  0  0  0  0  0  0  0  0  0  0  0
  181.4630  177.1080  136.5740 C   0  0  0  0  0  0  0  0  0  0  0  0
  182.1290  175.8990  139.6690 C   0  0  0  0  0  3  0  0  0  0  0  0
  180.2370  180.3460  136.9600 C   0  0  0  0  0  3  0  0  0  0  0  0
  180.6710  181.6500  137.2030 C   0  0  0  0  0  3  0  0  0  0  0  0
  181.9450  177.0430  139.0210 C   0  0  0  0  0  0  0  0  0  0  0  0
  182.3050  180.8160  138.7740 C   0  0  0  0  0  3  0  0  0  0  0  0
  182.2660  176.8800  135.5910 N   0  0  0  0  0  0  0  0  0  0  0  0
  180.8230  179.2610  137.6210 C   0  0  0  0  0  0  0  0  0  0  0  0
  182.1390  183.1830  138.3430 O   0  0  0  0  0  1  0  0  0  0  0  0
  182.5600  178.3780  139.3210 C   0  0  2  0  0  3  0  0  0  0  0  0
  181.2180  174.8920  139.0930 C   0  0  0  0  0  3  0  0  0  0  0  0
  180.9460  176.8210  137.9750 C   0  0  2  0  0  0  0  0  0  0  0  0
  180.3200  177.8820  137.2480 C   0  0  2  0  0  3  0  0  0  0  0  0
  181.5050  179.0020  142.9330 C   0  0  0  0  0  3  0  0  0  0  0  0
  183.9250  178.8820  142.8330 C   0  0  0  0  0  0  0  0  0  0  0  0
  182.7480  179.0530  143.5690 C   0  0  0  0  0  3  0  0  0  0  0  0
  182.6070  178.6350  140.8030 C   0  0  0  0  0  0  0  0  0  0  0  0
  181.4330  178.7860  141.5550 C   0  0  0  0  0  3  0  0  0  0  0  0
  183.8480  178.6710  141.4470 C   0  0  0  0  0  3  0  0  0  0  0  0
  185.1520  178.9130  143.5000 O   0  0  0  0  0  0  0  0  0  0  0  0
  185.5730  177.8720  144.3730 C   0  0  0  0  0  2  0  0  0  0  0  0
  186.8940  178.2490  145.0450 C   0  0  2  0  0  3  0  0  0  0  0  0
  191.1230  177.8750  142.9000 C   0  0  0  0  0  1  0  0  0  0  0  0
  188.7910  177.3290  143.7050 C   0  0  0  0  0  0  0  0  0  0  0  0
  189.0790  177.1280  146.3410 S   0  0  0  0  0  0  0  0  0  0  0  0
  190.5320  177.6350  145.3510 C   0  0  0  0  0  2  0  0  0  0  0  0
  188.3380  177.2320  142.5330 O   0  0  0  0  0  0  0  0  0  0  0  0
  187.9370  177.1290  144.9040 C   0  0  1  0  0  3  0  0  0  0  0  0
  190.1560  177.6150  143.9550 N   0  0  0  0  0  0  0  0  0  0  0  0
  186.6770  178.6050  146.4350 N   0  0  0  0  0  0  0  0  0  0  0  0
  185.5050  178.6270  146.9680 C   0  0  0  0  0  2  0  0  0  0  0  0
  183.2080  175.8870  135.6980 O   0  0  0  0  0  0  0  0  0  0  0  0
  187.3680  177.5740  136.8640 C   0  0  2  0  0  0  0  0  0  0  0  0
  186.6980  176.9260  135.7620 N   0  0  0  0  0  0  0  0  0  0  0  0
  189.8270  177.4100  137.6250 C   0  0  0  0  0  1  0  0  0  0  0  0
  184.5070  176.1220  135.3140 N   0  0  0  0  0  0  0  0  0  0  0  0
  186.3740  177.5800  138.0350 C   0  0  0  0  0  2  0  0  0  0  0  0
  187.5020  175.8880  135.1400 C   0  0  0  0  0  2  0  0  0  0  0  0
  185.0090  177.1890  137.4670 C   0  0  0  0  0  2  0  0  0  0  0  0
  185.3440  176.7060  136.1090 C   0  0  0  0  0  0  0  0  0  0  0  0
  188.8350  175.9130  135.8720 C   0  0  0  0  0  2  0  0  0  0  0  0
  187.7240  179.0030  136.4680 C   0  0  0  0  0  1  0  0  0  0  0  0
  188.5760  176.6840  137.1580 C   0  0  2  0  0  3  0  0  0  0  0  0
  1  9  1  0  0  0  0
  1 13  1  0  0  0  0
  2 14  2  0  0  0  0
  3 12  1  0  0  0  0
  3  9  2  0  0  0  0
  4 15  1  0  0  0  0
  6  7  2  0  0  0  0
  6 11  1  0  0  0  0
  7  3  1  0  0  0  0
  8 13  1  0  0  0  0
  8  5  2  0  0  0  0
 10 35  1  0  0  0  0
 10  4  2  0  0  0  0
 11  1  2  0  0  0  0
 13 20  1  1  0  0  0
 14  5  1  0  0  0  0
 15  2  1  1  0  0  0
 15  8  1  0  0  0  0
 16  4  1  6  0  0  0
 16 11  1  0  0  0  0
 16 15  1  0  0  0  0
 17 19  1  0  0  0  0
 18 23  1  0  0  0  0
 18 19  2  0  0  0  0
 20 22  2  0  0  0  0
 20 21  1  0  0  0  0
 21 17  2  0  0  0  0
 22 18  1  0  0  0  0
 23 24  1  0  0  0  0
 25 24  1  1  0  0  0
 25 33  1  0  0  0  0
 26 32  1  0  0  0  0
 27 32  1  0  0  0  0
 27 31  1  0  0  0  0
 29 28  1  0  0  0  0
 30 27  2  0  0  0  0
 31 25  1  1  0  0  0
 31 28  1  0  0  0  0
 32 29  1  0  0  0  0
 33 34  2  0  0  0  0
 36 45  1  6  0  0  0
 36 46  1  0  0  0  0
 36 40  1  0  0  0  0
 37 43  1  0  0  0  0
 37 36  1  0  0  0  0
 39 35  1  0  0  0  0
 39 43  2  0  0  0  0
 41 37  1  0  0  0  0
 41 44  1  0  0  0  0
 42 40  1  0  0  0  0
 43 42  1  0  0  0  0
 44 46  1  0  0  0  0
 46 38  1  6  0  0  0
M  END
>  <MODEL>
2

>  <REMARK>
 VINA RESULT:      -8.1      4.865      9.270
  Name = 
  8 active torsions:
  status: ('A' for Active; 'I' for Inactive)
    1  A    between atoms: N_2  and  C_8
    2  A    between atoms: C_8  and  C_13
    3  A    between atoms: C_8  and  C_24
    4  A    between atoms: O_11  and  C_13
    5  A    between atoms: O_11  and  C_21
    6  A    between atoms: N_17  and  O_41
    7  A    between atoms: N_29  and  O_41
    8  A    between atoms: C_31  and  C_36
                            x       y       z     vdW  Elec       q    Type
                         _______ _______ _______ _____ _____    ______ ____

>  <TORSDO>
F 8

$$$$
=
 OpenBabel11032420023D

 46 53  0  0  1  0  0  0  0  0999 V2000
  189.9260  175.1450  136.9560 C   0  0  0  0  0  0  0  0  0  0  0  0
  187.2760  178.5510  136.5960 C   0  0  0  0  0  3  0  0  0  0  0  0
  191.1790  173.2900  136.0030 C   0  0  0  0  0  0  0  0  0  0  0  0
  187.0320  176.1140  136.2280 C   0  0  0  0  0  0  0  0  0  0  0  0
  188.3320  178.1400  138.6140 C   0  0  0  0  0  3  0  0  0  0  0  0
  189.7000  174.5810  134.5940 C   0  0  0  0  0  3  0  0  0  0  0  0
  190.6190  173.5430  134.7520 C   0  0  0  0  0  3  0  0  0  0  0  0
  188.6470  177.0960  137.8550 C   0  0  0  0  0  0  0  0  0  0  0  0
  190.8290  174.0810  137.0970 C   0  0  0  0  0  3  0  0  0  0  0  0
  185.9830  175.4030  136.4670 N   0  0  0  0  0  0  0  0  0  0  0  0
  189.3370  175.3870  135.6780 C   0  0  0  0  0  0  0  0  0  0  0  0
  192.0900  172.2520  136.1570 O   0  0  0  0  0  1  0  0  0  0  0  0
  189.5840  175.9710  138.1850 C   0  0  2  0  0  3  0  0  0  0  0  0
  187.4780  179.0430  137.8200 C   0  0  0  0  0  3  0  0  0  0  0  0
  187.9830  177.2530  136.5620 C   0  0  2  0  0  0  0  0  0  0  0  0
  188.2930  176.4530  135.4170 C   0  0  2  0  0  3  0  0  0  0  0  0
  193.1310  177.1890  138.8820 C   0  0  0  0  0  3  0  0  0  0  0  0
  191.8550  177.2730  140.9420 C   0  0  0  0  0  0  0  0  0  0  0  0
  193.0530  177.4710  140.2480 C   0  0  0  0  0  3  0  0  0  0  0  0
  190.8130  176.4760  138.8940 C   0  0  0  0  0  0  0  0  0  0  0  0
  192.0130  176.6990  138.2040 C   0  0  0  0  0  3  0  0  0  0  0  0
  190.7350  176.7750  140.2570 C   0  0  0  0  0  3  0  0  0  0  0  0
  191.8000  177.5880  142.3010 O   0  0  0  0  0  0  0  0  0  0  0  0
  191.3330  176.6670  143.2810 C   0  0  0  0  0  2  0  0  0  0  0  0
  190.5360  177.4020  144.3590 C   0  0  2  0  0  3  0  0  0  0  0  0
  186.2150  178.7370  145.8320 C   0  0  0  0  0  1  0  0  0  0  0  0
  188.3810  177.4540  145.6210 C   0  0  0  0  0  0  0  0  0  0  0  0
  188.2320  176.3850  143.1920 S   0  0  0  0  0  0  0  0  0  0  0  0
  186.8910  177.5110  143.7210 C   0  0  0  0  0  2  0  0  0  0  0  0
  188.7140  177.6900  146.8130 O   0  0  0  0  0  0  0  0  0  0  0  0
  189.2370  176.6580  144.7030 C   0  0  1  0  0  3  0  0  0  0  0  0
  187.1540  177.9150  145.0850 N   0  0  0  0  0  0  0  0  0  0  0  0
  190.2770  178.7720  143.9580 N   0  0  0  0  0  0  0  0  0  0  0  0
  191.0910  179.7350  144.2190 C   0  0  0  0  0  2  0  0  0  0  0  0
  185.1940  175.6990  137.5500 O   0  0  0  0  0  0  0  0  0  0  0  0
  182.1610  179.0050  138.7240 C   0  0  2  0  0  0  0  0  0  0  0  0
  182.2830  177.8680  137.8440 N   0  0  0  0  0  0  0  0  0  0  0  0
  180.8650  181.2120  138.3970 C   0  0  0  0  0  1  0  0  0  0  0  0
  183.9410  176.2330  137.3660 N   0  0  0  0  0  0  0  0  0  0  0  0
  183.5390  179.2070  139.3700 C   0  0  0  0  0  2  0  0  0  0  0  0
  181.7560  178.1200  136.5130 C   0  0  0  0  0  2  0  0  0  0  0  0
  184.3660  177.9580  139.0600 C   0  0  0  0  0  2  0  0  0  0  0  0
  183.5490  177.2670  138.0380 C   0  0  0  0  0  0  0  0  0  0  0  0
  181.1890  179.5310  136.5610 C   0  0  0  0  0  2  0  0  0  0  0  0
  181.1160  178.7060  139.7950 C   0  0  0  0  0  1  0  0  0  0  0  0
  181.7980  180.1690  137.8010 C   0  0  2  0  0  3  0  0  0  0  0  0
  1  9  1  0  0  0  0
  1 13  1  0  0  0  0
  2 14  2  0  0  0  0
  3 12  1  0  0  0  0
  3  9  2  0  0  0  0
  4 10  2  0  0  0  0
  4 15  1  0  0  0  0
  6  7  2  0  0  0  0
  6 11  1  0  0  0  0
  7  3  1  0  0  0  0
  8 13  1  0  0  0  0
  8  5  2  0  0  0  0
 10 35  1  0  0  0  0
 11  1  2  0  0  0  0
 13 20  1  6  0  0  0
 14  5  1  0  0  0  0
 15  2  1  6  0  0  0
 15  8  1  0  0  0  0
 16 11  1  1  0  0  0
 16  4  1  0  0  0  0
 16 15  1  0  0  0  0
 17 19  1  0  0  0  0
 18 23  1  0  0  0  0
 19 18  2  0  0  0  0
 20 22  2  0  0  0  0
 21 17  2  0  0  0  0
 21 20  1  0  0  0  0
 22 18  1  0  0  0  0
 23 24  1  0  0  0  0
 25 24  1  6  0  0  0
 27 30  2  0  0  0  0
 28 29  1  0  0  0  0
 28 31  1  0  0  0  0
 29 32  1  0  0  0  0
 31 25  1  6  0  0  0
 31 27  1  0  0  0  0
 32 27  1  0  0  0  0
 32 26  1  0  0  0  0
 33 34  2  0  0  0  0
 33 25  1  0  0  0  0
 36 40  1  0  0  0  0
 36 45  1  1  0  0  0
 37 43  1  0  0  0  0
 37 36  1  0  0  0  0
 39 35  1  0  0  0  0
 39 43  2  0  0  0  0
 41 44  1  0  0  0  0
 41 37  1  0  0  0  0
 42 40  1  0  0  0  0
 43 42  1  0  0  0  0
 44 46  1  0  0  0  0
 46 38  1  1  0  0  0
 46 36  1  0  0  0  0
M  END
>  <MODEL>
3

>  <REMARK>
 VINA RESULT:      -7.1      3.909      7.943
  Name = 
  8 active torsions:
  status: ('A' for Active; 'I' for Inactive)
    1  A    between atoms: N_2  and  C_8
    2  A    between atoms: C_8  and  C_13
    3  A    between atoms: C_8  and  C_24
    4  A    between atoms: O_11  and  C_13
    5  A    between atoms: O_11  and  C_21
    6  A    between atoms: N_17  and  O_41
    7  A    between atoms: N_29  and  O_41
    8  A    between atoms: C_31  and  C_36
                            x       y       z     vdW  Elec       q    Type
                         _______ _______ _______ _____ _____    ______ ____

>  <TORSDO>
F 8

$$$$
=
 OpenBabel11032420023D

 46 53  0  0  1  0  0  0  0  0999 V2000
  190.7900  175.8240  137.4890 C   0  0  0  0  0  0  0  0  0  0  0  0
  187.5380  178.6290  136.9290 C   0  0  0  0  0  3  0  0  0  0  0  0
  192.7440  174.6160  136.6890 C   0  0  0  0  0  0  0  0  0  0  0  0
  188.1140  176.4220  135.9640 C   0  0  0  0  0  0  0  0  0  0  0  0
  187.9870  177.8170  139.0490 C   0  0  0  0  0  3  0  0  0  0  0  0
  191.4750  175.9840  135.1540 C   0  0  0  0  0  3  0  0  0  0  0  0
  192.5520  175.1340  135.4100 C   0  0  0  0  0  3  0  0  0  0  0  0
  188.8020  177.1340  138.2530 C   0  0  0  0  0  0  0  0  0  0  0  0
  191.8650  174.9530  137.7180 C   0  0  0  0  0  3  0  0  0  0  0  0
  187.2870  175.4920  135.6260 N   0  0  0  0  0  0  0  0  0  0  0  0
  190.5830  176.3360  136.1730 C   0  0  0  0  0  0  0  0  0  0  0  0
  193.8150  173.7670  136.9390 O   0  0  0  0  0  1  0  0  0  0  0  0
  189.8660  176.1540  138.6510 C   0  0  2  0  0  3  0  0  0  0  0  0
  187.2040  178.7480  138.2160 C   0  0  0  0  0  3  0  0  0  0  0  0
  188.5550  177.5570  136.8750 C   0  0  2  0  0  0  0  0  0  0  0  0
  189.4150  177.2190  135.7830 C   0  0  2  0  0  3  0  0  0  0  0  0
  192.4540  177.8540  140.8800 C   0  0  0  0  0  3  0  0  0  0  0  0
  190.7840  176.7950  142.2840 C   0  0  0  0  0  0  0  0  0  0  0  0
  191.9560  177.5460  142.1490 C   0  0  0  0  0  3  0  0  0  0  0  0
  190.6210  176.6320  139.8620 C   0  0  0  0  0  0  0  0  0  0  0  0
  191.7850  177.4040  139.7390 C   0  0  0  0  0  3  0  0  0  0  0  0
  190.1190  176.3410  141.1340 C   0  0  0  0  0  3  0  0  0  0  0  0
  190.2960  176.5250  143.5640 O   0  0  0  0  0  0  0  0  0  0  0  0
  191.0490  176.7960  144.7410 C   0  0  0  0  0  2  0  0  0  0  0  0
  190.1610  176.6580  145.9790 C   0  0  2  0  0  3  0  0  0  0  0  0
  185.6040  177.8770  146.5960 C   0  0  0  0  0  1  0  0  0  0  0  0
  188.0150  177.9300  145.8410 C   0  0  0  0  0  0  0  0  0  0  0  0
  189.3660  178.2520  148.1080 S   0  0  0  0  0  0  0  0  0  0  0  0
  187.5510  178.0450  148.2080 C   0  0  0  0  0  2  0  0  0  0  0  0
  187.7020  177.8990  144.6210 O   0  0  0  0  0  0  0  0  0  0  0  0
  189.4290  177.9720  146.2960 C   0  0  1  0  0  3  0  0  0  0  0  0
  187.0320  177.9490  146.8610 N   0  0  0  0  0  0  0  0  0  0  0  0
  190.9350  176.1910  147.1130 N   0  0  0  0  0  0  0  0  0  0  0  0
  192.1260  175.7200  146.9900 C   0  0  0  0  0  2  0  0  0  0  0  0
  186.1510  175.2900  136.3700 O   0  0  0  0  0  0  0  0  0  0  0  0
  182.2150  176.7050  138.3750 C   0  0  2  0  0  0  0  0  0  0  0  0
  183.3120  177.2180  137.5890 N   0  0  0  0  0  0  0  0  0  0  0  0
  180.8060  177.8670  140.1960 C   0  0  0  0  0  1  0  0  0  0  0  0
  185.2870  176.3330  136.6090 N   0  0  0  0  0  0  0  0  0  0  0  0
  182.5720  175.2530  138.7250 C   0  0  0  0  0  2  0  0  0  0  0  0
  183.7930  178.5060  138.0580 C   0  0  0  0  0  2  0  0  0  0  0  0
  183.7660  174.8620  137.8530 C   0  0  0  0  0  2  0  0  0  0  0  0
  184.2010  176.1600  137.2890 C   0  0  0  0  0  0  0  0  0  0  0  0
  182.8820  178.8830  139.2170 C   0  0  0  0  0  2  0  0  0  0  0  0
  180.9360  176.7470  137.5450 C   0  0  0  0  0  1  0  0  0  0  0  0
  182.1860  177.5910  139.6200 C   0  0  2  0  0  3  0  0  0  0  0  0
  1  9  1  0  0  0  0
  1 13  1  0  0  0  0
  2 14  2  0  0  0  0
  3 12  1  0  0  0  0
  3  9  2  0  0  0  0
  4 15  1  0  0  0  0
  6  7  2  0  0  0  0
  6 11  1  0  0  0  0
  7  3  1  0  0  0  0
  8 13  1  0  0  0  0
  8  5  2  0  0  0  0
 10  4  2  0  0  0  0
 10 35  1  0  0  0  0
 11  1  2  0  0  0  0
 13 20  1  1  0  0  0
 14  5  1  0  0  0  0
 15  2  1  6  0  0  0
 15  8  1  0  0  0  0
 16  4  1  6  0  0  0
 16 11  1  0  0  0  0
 16 15  1  0  0  0  0
 17 19  1  0  0  0  0
 18 23  1  0  0  0  0
 19 18  2  0  0  0  0
 20 22  2  0  0  0  0
 21 20  1  0  0  0  0
 21 17  2  0  0  0  0
 22 18  1  0  0  0  0
 23 24  1  0  0  0  0
 25 24  1  6  0  0  0
 25 33  1  0  0  0  0
 26 32  1  0  0  0  0
 27 31  1  0  0  0  0
 27 32  1  0  0  0  0
 28 29  1  0  0  0  0
 30 27  2  0  0  0  0
 31 25  1  1  0  0  0
 31 28  1  0  0  0  0
 32 29  1  0  0  0  0
 34 33  2  0  0  0  0
 35 39  1  0  0  0  0
 36 45  1  6  0  0  0
 36 40  1  0  0  0  0
 36 46  1  0  0  0  0
 37 41  1  0  0  0  0
 37 36  1  0  0  0  0
 39 43  2  0  0  0  0
 41 44  1  0  0  0  0
 42 40  1  0  0  0  0
 43 37  1  0  0  0  0
 43 42  1  0  0  0  0
 44 46  1  0  0  0  0
 46 38  1  6  0  0  0
M  END
>  <MODEL>
4

>  <REMARK>
 VINA RESULT:      -7.0      3.847      8.574
  Name = 
  8 active torsions:
  status: ('A' for Active; 'I' for Inactive)
    1  A    between atoms: N_2  and  C_8
    2  A    between atoms: C_8  and  C_13
    3  A    between atoms: C_8  and  C_24
    4  A    between atoms: O_11  and  C_13
    5  A    between atoms: O_11  and  C_21
    6  A    between atoms: N_17  and  O_41
    7  A    between atoms: N_29  and  O_41
    8  A    between atoms: C_31  and  C_36
                            x       y       z     vdW  Elec       q    Type
                         _______ _______ _______ _____ _____    ______ ____

>  <TORSDO>
F 8

$$$$
=
 OpenBabel11032420023D

 46 53  0  0  1  0  0  0  0  0999 V2000
  190.8890  175.6430  137.1700 C   0  0  0  0  0  0  0  0  0  0  0  0
  187.5120  178.2230  136.3400 C   0  0  0  0  0  3  0  0  0  0  0  0
  192.9590  174.5410  136.5220 C   0  0  0  0  0  0  0  0  0  0  0  0
  188.2810  176.0350  135.4710 C   0  0  0  0  0  0  0  0  0  0  0  0
  187.8790  177.4920  138.5050 C   0  0  0  0  0  3  0  0  0  0  0  0
  191.7050  175.7900  134.8770 C   0  0  0  0  0  3  0  0  0  0  0  0
  192.8150  175.0160  135.2200 C   0  0  0  0  0  3  0  0  0  0  0  0
  188.7810  176.8430  137.7780 C   0  0  0  0  0  0  0  0  0  0  0  0
  191.9990  174.8460  137.4870 C   0  0  0  0  0  3  0  0  0  0  0  0
  187.5340  175.0470  135.1100 N   0  0  0  0  0  0  0  0  0  0  0  0
  190.7320  176.1090  135.8300 C   0  0  0  0  0  0  0  0  0  0  0  0
  194.0630  173.7670  136.8590 O   0  0  0  0  0  1  0  0  0  0  0  0
  189.8770  175.9420  138.2650 C   0  0  2  0  0  3  0  0  0  0  0  0
  187.0930  178.3520  137.6000 C   0  0  0  0  0  3  0  0  0  0  0  0
  188.5950  177.2160  136.3760 C   0  0  2  0  0  0  0  0  0  0  0  0
  189.5390  176.9080  135.3470 C   0  0  2  0  0  3  0  0  0  0  0  0
  192.3470  177.6470  140.6190 C   0  0  0  0  0  3  0  0  0  0  0  0
  190.4020  176.9540  141.8920 C   0  0  0  0  0  0  0  0  0  0  0  0
  191.6620  177.5590  141.8340 C   0  0  0  0  0  3  0  0  0  0  0  0
  190.5260  176.4940  139.5060 C   0  0  0  0  0  0  0  0  0  0  0  0
  191.7780  177.1230  139.4570 C   0  0  0  0  0  3  0  0  0  0  0  0
  189.8380  176.4230  140.7210 C   0  0  0  0  0  3  0  0  0  0  0  0
  189.7310  176.9030  143.1150 O   0  0  0  0  0  0  0  0  0  0  0  0
  188.3590  176.5390  143.2190 C   0  0  0  0  0  2  0  0  0  0  0  0
  187.5650  177.6590  143.8920 C   0  0  2  0  0  3  0  0  0  0  0  0
  188.0760  178.6330  148.5200 C   0  0  0  0  0  1  0  0  0  0  0  0
  187.7600  177.3540  146.3640 C   0  0  0  0  0  0  0  0  0  0  0  0
  185.3690  178.1510  145.5170 S   0  0  0  0  0  0  0  0  0  0  0  0
  186.0550  178.9330  147.0230 C   0  0  0  0  0  2  0  0  0  0  0  0
  188.8220  176.6950  146.5220 O   0  0  0  0  0  0  0  0  0  0  0  0
  186.8820  177.1700  145.1780 C   0  0  1  0  0  3  0  0  0  0  0  0
  187.3220  178.3020  147.3210 N   0  0  0  0  0  0  0  0  0  0  0  0
  186.6080  178.2350  142.9650 N   0  0  0  0  0  0  0  0  0  0  0  0
  186.9180  178.5410  141.7540 C   0  0  0  0  0  2  0  0  0  0  0  0
  186.3700  174.7920  135.7910 O   0  0  0  0  0  0  0  0  0  0  0  0
  182.0790  176.1030  136.9670 C   0  0  2  0  0  0  0  0  0  0  0  0
  182.9830  176.1310  135.8420 N   0  0  0  0  0  0  0  0  0  0  0  0
  180.2590  177.7940  137.6640 C   0  0  0  0  0  1  0  0  0  0  0  0
  185.1940  175.3840  135.3940 N   0  0  0  0  0  0  0  0  0  0  0  0
  182.8810  175.5570  138.1570 C   0  0  0  0  0  2  0  0  0  0  0  0
  182.9760  177.4040  135.1410 C   0  0  0  0  0  2  0  0  0  0  0  0
  184.1850  174.9890  137.5960 C   0  0  0  0  0  2  0  0  0  0  0  0
  184.1910  175.4910  136.2040 C   0  0  0  0  0  0  0  0  0  0  0  0
  181.9270  178.2510  135.8440 C   0  0  0  0  0  2  0  0  0  0  0  0
  180.9090  175.1760  136.6520 C   0  0  0  0  0  1  0  0  0  0  0  0
  181.6830  177.5640  137.1800 C   0  0  2  0  0  3  0  0  0  0  0  0
  1  9  1  0  0  0  0
  1 13  1  0  0  0  0
  2 14  2  0  0  0  0
  3 12  1  0  0  0  0
  3  9  2  0  0  0  0
  4 15  1  0  0  0  0
  6  7  2  0  0  0  0
  6 11  1  0  0  0  0
  7  3  1  0  0  0  0
  8 13  1  0  0  0  0
  8  5  2  0  0  0  0
 10  4  2  0  0  0  0
 10 35  1  0  0  0  0
 11  1  2  0  0  0  0
 13 20  1  1  0  0  0
 14  5  1  0  0  0  0
 15  2  1  6  0  0  0
 15  8  1  0  0  0  0
 16  4  1  6  0  0  0
 16 11  1  0  0  0  0
 16 15  1  0  0  0  0
 17 19  1  0  0  0  0
 18 23  1  0  0  0  0
 19 18  2  0  0  0  0
 20 22  2  0  0  0  0
 21 20  1  0  0  0  0
 21 17  2  0  0  0  0
 22 18  1  0  0  0  0
 23 24  1  0  0  0  0
 25 24  1  6  0  0  0
 27 30  2  0  0  0  0
 27 32  1  0  0  0  0
 28 29  1  0  0  0  0
 29 32  1  0  0  0  0
 31 25  1  6  0  0  0
 31 28  1  0  0  0  0
 31 27  1  0  0  0  0
 32 26  1  0  0  0  0
 33 25  1  0  0  0  0
 34 33  2  0  0  0  0
 36 45  1  6  0  0  0
 36 46  1  0  0  0  0
 36 40  1  0  0  0  0
 37 43  1  0  0  0  0
 37 36  1  0  0  0  0
 39 35  1  0  0  0  0
 39 43  2  0  0  0  0
 41 37  1  0  0  0  0
 41 44  1  0  0  0  0
 42 40  1  0  0  0  0
 43 42  1  0  0  0  0
 44 46  1  0  0  0  0
 46 38  1  6  0  0  0
M  END
>  <MODEL>
5

>  <REMARK>
 VINA RESULT:      -7.0      3.790      8.975
  Name = 
  8 active torsions:
  status: ('A' for Active; 'I' for Inactive)
    1  A    between atoms: N_2  and  C_8
    2  A    between atoms: C_8  and  C_13
    3  A    between atoms: C_8  and  C_24
    4  A    between atoms: O_11  and  C_13
    5  A    between atoms: O_11  and  C_21
    6  A    between atoms: N_17  and  O_41
    7  A    between atoms: N_29  and  O_41
    8  A    between atoms: C_31  and  C_36
                            x       y       z     vdW  Elec       q    Type
                         _______ _______ _______ _____ _____    ______ ____

>  <TORSDO>
F 8

$$$$
=
 OpenBabel11032420023D

 46 53  0  0  1  0  0  0  0  0999 V2000
  182.6020  178.3090  142.2340 C   0  0  0  0  0  0  0  0  0  0  0  0
  186.6460  179.7630  142.7700 C   0  0  0  0  0  3  0  0  0  0  0  0
  180.2210  178.3580  142.7280 C   0  0  0  0  0  0  0  0  0  0  0  0
  185.0080  178.6080  144.2250 C   0  0  0  0  0  0  0  0  0  0  0  0
  186.1940  178.2590  141.0700 C   0  0  0  0  0  3  0  0  0  0  0  0
  181.7300  179.7650  143.9860 C   0  0  0  0  0  3  0  0  0  0  0  0
  180.4360  179.3150  143.7180 C   0  0  0  0  0  3  0  0  0  0  0  0
  185.0540  178.3500  141.7450 C   0  0  0  0  0  0  0  0  0  0  0  0
  181.2960  177.8540  141.9980 C   0  0  0  0  0  3  0  0  0  0  0  0
  185.2720  177.7280  145.1300 N   0  0  0  0  0  0  0  0  0  0  0  0
  182.8230  179.2730  143.2630 C   0  0  0  0  0  0  0  0  0  0  0  0
  178.9310  177.9090  142.4680 O   0  0  0  0  0  1  0  0  0  0  0  0
  183.7330  177.7230  141.4040 C   0  0  2  0  0  3  0  0  0  0  0  0
  187.1820  179.1450  141.7150 C   0  0  0  0  0  3  0  0  0  0  0  0
  185.2600  179.2560  142.8730 C   0  0  2  0  0  0  0  0  0  0  0  0
  184.1920  179.7830  143.6650 C   0  0  2  0  0  3  0  0  0  0  0  0
  182.9030  179.0640  137.9320 C   0  0  0  0  0  3  0  0  0  0  0  0
  183.3590  176.6880  137.7660 C   0  0  0  0  0  0  0  0  0  0  0  0
  183.0120  177.9020  137.1630 C   0  0  0  0  0  3  0  0  0  0  0  0
  183.4580  177.8010  139.9270 C   0  0  0  0  0  0  0  0  0  0  0  0
  183.1320  179.0160  139.3090 C   0  0  0  0  0  3  0  0  0  0  0  0
  183.5820  176.6440  139.1510 C   0  0  0  0  0  3  0  0  0  0  0  0
  183.4850  175.5490  136.9690 O   0  0  0  0  0  0  0  0  0  0  0  0
  184.5810  175.3530  136.0830 C   0  0  0  0  0  2  0  0  0  0  0  0
  185.8990  175.3860  136.8590 C   0  0  2  0  0  3  0  0  0  0  0  0
  189.0700  178.4300  138.6760 C   0  0  0  0  0  1  0  0  0  0  0  0
  187.2250  177.4680  137.2430 C   0  0  0  0  0  0  0  0  0  0  0  0
  188.4630  175.5970  135.8170 S   0  0  0  0  0  0  0  0  0  0  0  0
  189.4260  176.4850  137.0940 C   0  0  0  0  0  2  0  0  0  0  0  0
  186.3820  178.3150  137.6420 O   0  0  0  0  0  0  0  0  0  0  0  0
  186.8780  176.4080  136.2610 C   0  0  1  0  0  3  0  0  0  0  0  0
  188.5690  177.4860  137.6900 N   0  0  0  0  0  0  0  0  0  0  0  0
  186.4850  174.0610  136.9270 N   0  0  0  0  0  0  0  0  0  0  0  0
  185.9470  173.1000  137.5930 C   0  0  0  0  0  2  0  0  0  0  0  0
  186.2910  176.8300  144.9280 O   0  0  0  0  0  0  0  0  0  0  0  0
  190.6460  176.6780  143.3420 C   0  0  2  0  0  0  0  0  0  0  0  0
  189.8720  177.2530  144.4140 N   0  0  0  0  0  0  0  0  0  0  0  0
  192.7270  177.6030  142.1280 C   0  0  0  0  0  1  0  0  0  0  0  0
  187.5980  177.2190  145.1040 N   0  0  0  0  0  0  0  0  0  0  0  0
  189.6440  176.0070  142.3910 C   0  0  0  0  0  2  0  0  0  0  0  0
  190.2190  178.6380  144.6860 C   0  0  0  0  0  2  0  0  0  0  0  0
  188.3000  175.9570  143.1200 C   0  0  0  0  0  2  0  0  0  0  0  0
  188.5260  176.8390  144.2870 C   0  0  0  0  0  0  0  0  0  0  0  0
  191.3640  178.9630  143.7400 C   0  0  0  0  0  2  0  0  0  0  0  0
  191.6060  175.6380  143.9120 C   0  0  0  0  0  1  0  0  0  0  0  0
  191.3350  177.8720  142.6800 C   0  0  2  0  0  3  0  0  0  0  0  0
  1 11  1  0  0  0  0
  3  7  2  0  0  0  0
  4 10  2  0  0  0  0
  5 14  1  0  0  0  0
  5  8  2  0  0  0  0
  7  6  1  0  0  0  0
  8 15  1  0  0  0  0
  9  1  2  0  0  0  0
  9  3  1  0  0  0  0
 11  6  2  0  0  0  0
 12  3  1  0  0  0  0
 13 20  1  6  0  0  0
 13  8  1  0  0  0  0
 13  1  1  0  0  0  0
 14  2  2  0  0  0  0
 15  2  1  6  0  0  0
 15 16  1  0  0  0  0
 15  4  1  0  0  0  0
 16 11  1  6  0  0  0
 16  4  1  0  0  0  0
 17 21  1  0  0  0  0
 18 22  2  0  0  0  0
 19 18  1  0  0  0  0
 19 17  2  0  0  0  0
 21 20  2  0  0  0  0
 22 20  1  0  0  0  0
 23 18  1  0  0  0  0
 24 23  1  0  0  0  0
 25 24  1  6  0  0  0
 25 33  1  0  0  0  0
 27 30  2  0  0  0  0
 27 32  1  0  0  0  0
 28 31  1  0  0  0  0
 28 29  1  0  0  0  0
 29 32  1  0  0  0  0
 31 25  1  1  0  0  0
 31 27  1  0  0  0  0
 32 26  1  0  0  0  0
 33 34  2  0  0  0  0
 35 39  1  0  0  0  0
 35 10  1  0  0  0  0
 36 45  1  1  0  0  0
 36 37  1  0  0  0  0
 37 41  1  0  0  0  0
 40 42  1  0  0  0  0
 40 36  1  0  0  0  0
 42 43  1  0  0  0  0
 43 37  1  0  0  0  0
 43 39  2  0  0  0  0
 44 41  1  0  0  0  0
 46 38  1  1  0  0  0
 46 36  1  0  0  0  0
 46 44  1  0  0  0  0
M  END
>  <MODEL>
6

>  <REMARK>
 VINA RESULT:      -6.6      4.495      7.415
  Name = 
  8 active torsions:
  status: ('A' for Active; 'I' for Inactive)
    1  A    between atoms: N_2  and  C_8
    2  A    between atoms: C_8  and  C_13
    3  A    between atoms: C_8  and  C_24
    4  A    between atoms: O_11  and  C_13
    5  A    between atoms: O_11  and  C_21
    6  A    between atoms: N_17  and  O_41
    7  A    between atoms: N_29  and  O_41
    8  A    between atoms: C_31  and  C_36
                            x       y       z     vdW  Elec       q    Type
                         _______ _______ _______ _____ _____    ______ ____

>  <TORSDO>
F 8

$$$$
=
 OpenBabel11032420023D

 46 53  0  0  1  0  0  0  0  0999 V2000
  189.4310  177.3690  143.0960 C   0  0  0  0  0  0  0  0  0  0  0  0
  189.0660  178.7670  139.0130 C   0  0  0  0  0  3  0  0  0  0  0  0
  190.6540  177.1460  145.1870 C   0  0  0  0  0  0  0  0  0  0  0  0
  190.5280  177.1340  140.1670 C   0  0  0  0  0  0  0  0  0  0  0  0
  187.2190  177.8610  140.0750 C   0  0  0  0  0  3  0  0  0  0  0  0
  191.7340  178.1510  143.2730 C   0  0  0  0  0  3  0  0  0  0  0  0
  191.7700  177.7490  144.6090 C   0  0  0  0  0  3  0  0  0  0  0  0
  188.2180  177.6790  140.9320 C   0  0  0  0  0  0  0  0  0  0  0  0
  189.4970  176.9510  144.4330 C   0  0  0  0  0  3  0  0  0  0  0  0
  190.9730  176.0250  139.6810 N   0  0  0  0  0  0  0  0  0  0  0  0
  190.5820  177.9660  142.5000 C   0  0  0  0  0  0  0  0  0  0  0  0
  190.6950  176.7430  146.5160 O   0  0  0  0  0  1  0  0  0  0  0  0
  188.1410  177.1300  142.3260 C   0  0  2  0  0  3  0  0  0  0  0  0
  187.7570  178.5420  138.8810 C   0  0  0  0  0  3  0  0  0  0  0  0
  189.4440  178.1890  140.3210 C   0  0  2  0  0  0  0  0  0  0  0  0
  190.6610  178.3860  141.0470 C   0  0  2  0  0  3  0  0  0  0  0  0
  185.7490  178.1790  145.1070 C   0  0  0  0  0  3  0  0  0  0  0  0
  184.7560  178.7370  142.9660 C   0  0  0  0  0  0  0  0  0  0  0  0
  184.6930  178.7120  144.3630 C   0  0  0  0  0  3  0  0  0  0  0  0
  186.9350  177.6600  143.0550 C   0  0  0  0  0  0  0  0  0  0  0  0
  186.8710  177.6610  144.4560 C   0  0  0  0  0  3  0  0  0  0  0  0
  185.8830  178.2100  142.3160 C   0  0  0  0  0  3  0  0  0  0  0  0
  183.6970  179.2990  142.2500 O   0  0  0  0  0  0  0  0  0  0  0  0
  182.3350  179.0520  142.5800 C   0  0  0  0  0  2  0  0  0  0  0  0
  181.6130  178.4110  141.3940 C   0  0  2  0  0  3  0  0  0  0  0  0
  181.4810  176.4290  137.0720 C   0  0  0  0  0  1  0  0  0  0  0  0
  182.3570  177.4220  139.2240 C   0  0  0  0  0  0  0  0  0  0  0  0
  181.5840  179.9630  139.0920 S   0  0  0  0  0  0  0  0  0  0  0  0
  181.0500  178.8290  137.7590 C   0  0  0  0  0  2  0  0  0  0  0  0
  182.9590  176.3630  139.5450 O   0  0  0  0  0  0  0  0  0  0  0  0
  182.3780  178.6360  140.0810 C   0  0  1  0  0  3  0  0  0  0  0  0
  181.6360  177.5300  138.0100 N   0  0  0  0  0  0  0  0  0  0  0  0
  180.2470  178.8950  141.3060 N   0  0  0  0  0  0  0  0  0  0  0  0
  179.3460  178.5840  142.1710 C   0  0  0  0  0  2  0  0  0  0  0  0
  190.1820  175.2880  138.8350 O   0  0  0  0  0  0  0  0  0  0  0  0
  186.7430  175.9170  135.7880 C   0  0  2  0  0  0  0  0  0  0  0  0
  188.1400  176.2280  135.9700 N   0  0  0  0  0  0  0  0  0  0  0  0
  184.8950  177.2650  134.5940 C   0  0  0  0  0  1  0  0  0  0  0  0
  189.7950  175.8080  137.6230 N   0  0  0  0  0  0  0  0  0  0  0  0
  186.2660  175.2720  137.0980 C   0  0  0  0  0  2  0  0  0  0  0  0
  188.4730  177.5910  135.5900 C   0  0  0  0  0  2  0  0  0  0  0  0
  187.5150  174.9480  137.9180 C   0  0  0  0  0  2  0  0  0  0  0  0
  188.5830  175.6710  137.1920 C   0  0  0  0  0  0  0  0  0  0  0  0
  187.1800  178.1920  135.0600 C   0  0  0  0  0  2  0  0  0  0  0  0
  186.5890  174.9350  134.6320 C   0  0  0  0  0  1  0  0  0  0  0  0
  186.0730  177.2720  135.5550 C   0  0  2  0  0  3  0  0  0  0  0  0
  1  9  1  0  0  0  0
  3 12  1  0  0  0  0
  4 15  1  0  0  0  0
  5  8  2  0  0  0  0
  6  7  2  0  0  0  0
  7  3  1  0  0  0  0
  8 13  1  0  0  0  0
  9  3  2  0  0  0  0
 10  4  2  0  0  0  0
 11  1  2  0  0  0  0
 11  6  1  0  0  0  0
 13 20  1  1  0  0  0
 13  1  1  0  0  0  0
 14  2  2  0  0  0  0
 14  5  1  0  0  0  0
 15  2  1  6  0  0  0
 15  8  1  0  0  0  0
 15 16  1  0  0  0  0
 16  4  1  6  0  0  0
 16 11  1  0  0  0  0
 18 19  1  0  0  0  0
 19 17  2  0  0  0  0
 20 21  2  0  0  0  0
 21 17  1  0  0  0  0
 22 18  2  0  0  0  0
 22 20  1  0  0  0  0
 23 24  1  0  0  0  0
 23 18  1  0  0  0  0
 25 24  1  1  0  0  0
 26 32  1  0  0  0  0
 27 30  2  0  0  0  0
 27 31  1  0  0  0  0
 28 31  1  0  0  0  0
 29 32  1  0  0  0  0
 29 28  1  0  0  0  0
 31 25  1  1  0  0  0
 32 27  1  0  0  0  0
 33 25  1  0  0  0  0
 33 34  2  0  0  0  0
 35 10  1  0  0  0  0
 36 45  1  6  0  0  0
 36 37  1  0  0  0  0
 36 40  1  0  0  0  0
 37 43  1  0  0  0  0
 39 35  1  0  0  0  0
 40 42  1  0  0  0  0
 41 37  1  0  0  0  0
 43 39  2  0  0  0  0
 43 42  1  0  0  0  0
 44 46  1  0  0  0  0
 44 41  1  0  0  0  0
 46 38  1  6  0  0  0
 46 36  1  0  0  0  0
M  END
>  <MODEL>
7

>  <REMARK>
 VINA RESULT:      -6.4      4.724     10.526
  Name = 
  8 active torsions:
  status: ('A' for Active; 'I' for Inactive)
    1  A    between atoms: N_2  and  C_8
    2  A    between atoms: C_8  and  C_13
    3  A    between atoms: C_8  and  C_24
    4  A    between atoms: O_11  and  C_13
    5  A    between atoms: O_11  and  C_21
    6  A    between atoms: N_17  and  O_41
    7  A    between atoms: N_29  and  O_41
    8  A    between atoms: C_31  and  C_36
                            x       y       z     vdW  Elec       q    Type
                         _______ _______ _______ _____ _____    ______ ____

>  <TORSDO>
F 8

$$$$
=
 OpenBabel11032420023D

 46 53  0  0  1  0  0  0  0  0999 V2000
  190.6000  175.3850  137.2100 C   0  0  0  0  0  0  0  0  0  0  0  0
  187.5640  178.3610  136.3850 C   0  0  0  0  0  3  0  0  0  0  0  0
  192.4330  173.9410  136.5230 C   0  0  0  0  0  0  0  0  0  0  0  0
  187.9420  176.0200  135.6690 C   0  0  0  0  0  0  0  0  0  0  0  0
  188.0010  177.7600  138.5770 C   0  0  0  0  0  3  0  0  0  0  0  0
  191.2370  175.2250  134.8620 C   0  0  0  0  0  3  0  0  0  0  0  0
  192.2500  174.3250  135.1960 C   0  0  0  0  0  3  0  0  0  0  0  0
  188.7400  176.9280  137.8510 C   0  0  0  0  0  0  0  0  0  0  0  0
  191.6090  174.4610  137.5210 C   0  0  0  0  0  3  0  0  0  0  0  0
  187.0370  175.1280  135.4530 N   0  0  0  0  0  0  0  0  0  0  0  0
  190.4000  175.7600  135.8480 C   0  0  0  0  0  0  0  0  0  0  0  0
  193.4410  173.0420  136.8520 O   0  0  0  0  0  1  0  0  0  0  0  0
  189.7340  175.9170  138.3420 C   0  0  2  0  0  3  0  0  0  0  0  0
  187.2720  178.6510  137.6540 C   0  0  0  0  0  3  0  0  0  0  0  0
  188.4930  177.2110  136.4380 C   0  0  2  0  0  0  0  0  0  0  0  0
  189.2970  176.6840  135.3780 C   0  0  2  0  0  3  0  0  0  0  0  0
  192.5730  177.5030  140.3360 C   0  0  0  0  0  3  0  0  0  0  0  0
  190.7230  177.0430  141.8360 C   0  0  0  0  0  0  0  0  0  0  0  0
  192.0150  177.5310  141.6170 C   0  0  0  0  0  3  0  0  0  0  0  0
  190.5540  176.4660  139.4780 C   0  0  0  0  0  0  0  0  0  0  0  0
  191.8420  176.9790  139.2670 C   0  0  0  0  0  3  0  0  0  0  0  0
  189.9950  176.5120  140.7590 C   0  0  0  0  0  3  0  0  0  0  0  0
  190.1830  177.1070  143.1210 O   0  0  0  0  0  0  0  0  0  0  0  0
  190.9520  176.8390  144.2880 C   0  0  0  0  0  2  0  0  0  0  0  0
  190.0320  176.6390  145.4930 C   0  0  2  0  0  3  0  0  0  0  0  0
  185.5070  177.8100  146.3760 C   0  0  0  0  0  1  0  0  0  0  0  0
  187.8730  177.8950  145.4920 C   0  0  0  0  0  0  0  0  0  0  0  0
  189.3420  178.1920  147.6880 S   0  0  0  0  0  0  0  0  0  0  0  0
  187.5370  177.9680  147.8830 C   0  0  0  0  0  2  0  0  0  0  0  0
  187.4950  177.8820  144.2900 O   0  0  0  0  0  0  0  0  0  0  0  0
  189.3090  177.9410  145.8700 C   0  0  1  0  0  3  0  0  0  0  0  0
  186.9470  177.8900  146.5650 N   0  0  0  0  0  0  0  0  0  0  0  0
  190.7720  176.0940  146.6160 N   0  0  0  0  0  0  0  0  0  0  0  0
  192.0560  175.9980  146.6160 C   0  0  0  0  0  2  0  0  0  0  0  0
  185.9070  175.1030  136.2340 O   0  0  0  0  0  0  0  0  0  0  0  0
  182.1470  172.3940  136.0510 C   0  0  2  0  0  0  0  0  0  0  0  0
  183.4990  172.3900  136.5570 N   0  0  0  0  0  0  0  0  0  0  0  0
  180.7130  170.4420  135.1630 C   0  0  0  0  0  1  0  0  0  0  0  0
  185.3320  173.9020  136.5770 N   0  0  0  0  0  0  0  0  0  0  0  0
  181.9960  173.6770  135.2220 C   0  0  0  0  0  2  0  0  0  0  0  0
  184.1860  171.1300  136.3310 C   0  0  0  0  0  2  0  0  0  0  0  0
  183.2110  174.5540  135.5270 C   0  0  0  0  0  2  0  0  0  0  0  0
  184.1080  173.6300  136.2570 C   0  0  0  0  0  0  0  0  0  0  0  0
  183.1610  170.2200  135.6720 C   0  0  0  0  0  2  0  0  0  0  0  0
  181.1690  172.4050  137.2210 C   0  0  0  0  0  1  0  0  0  0  0  0
  182.0610  171.1450  135.1720 C   0  0  2  0  0  3  0  0  0  0  0  0
  1  9  1  0  0  0  0
  1 13  1  0  0  0  0
  2 14  2  0  0  0  0
  3 12  1  0  0  0  0
  3  9  2  0  0  0  0
  4 15  1  0  0  0  0
  6  7  2  0  0  0  0
  6 11  1  0  0  0  0
  7  3  1  0  0  0  0
  8 13  1  0  0  0  0
  8  5  2  0  0  0  0
 10  4  2  0  0  0  0
 10 35  1  0  0  0  0
 11  1  2  0  0  0  0
 13 20  1  1  0  0  0
 14  5  1  0  0  0  0
 15  2  1  6  0  0  0
 15  8  1  0  0  0  0
 16  4  1  6  0  0  0
 16 11  1  0  0  0  0
 16 15  1  0  0  0  0
 17 19  1  0  0  0  0
 18 23  1  0  0  0  0
 19 18  2  0  0  0  0
 20 22  2  0  0  0  0
 21 20  1  0  0  0  0
 21 17  2  0  0  0  0
 22 18  1  0  0  0  0
 23 24  1  0  0  0  0
 25 24  1  6  0  0  0
 25 33  1  0  0  0  0
 26 32  1  0  0  0  0
 27 31  1  0  0  0  0
 27 32  1  0  0  0  0
 28 29  1  0  0  0  0
 30 27  2  0  0  0  0
 31 25  1  1  0  0  0
 31 28  1  0  0  0  0
 32 29  1  0  0  0  0
 34 33  2  0  0  0  0
 35 39  1  0  0  0  0
 36 37  1  0  0  0  0
 36 45  1  1  0  0  0
 40 42  1  0  0  0  0
 40 36  1  0  0  0  0
 41 37  1  0  0  0  0
 42 43  1  0  0  0  0
 43 37  1  0  0  0  0
 43 39  2  0  0  0  0
 44 41  1  0  0  0  0
 46 38  1  1  0  0  0
 46 44  1  0  0  0  0
 46 36  1  0  0  0  0
M  END
>  <MODEL>
8

>  <REMARK>
 VINA RESULT:      -6.3      3.862      9.181
  Name = 
  8 active torsions:
  status: ('A' for Active; 'I' for Inactive)
    1  A    between atoms: N_2  and  C_8
    2  A    between atoms: C_8  and  C_13
    3  A    between atoms: C_8  and  C_24
    4  A    between atoms: O_11  and  C_13
    5  A    between atoms: O_11  and  C_21
    6  A    between atoms: N_17  and  O_41
    7  A    between atoms: N_29  and  O_41
    8  A    between atoms: C_31  and  C_36
                            x       y       z     vdW  Elec       q    Type
                         _______ _______ _______ _____ _____    ______ ____

>  <TORSDO>
F 8

$$$$
=
 OpenBabel11032420023D

 46 53  0  0  1  0  0  0  0  0999 V2000
  189.2680  177.2500  144.5420 C   0  0  0  0  0  0  0  0  0  0  0  0
  188.5670  179.3350  140.8120 C   0  0  0  0  0  3  0  0  0  0  0  0
  190.6810  176.6340  146.4240 C   0  0  0  0  0  0  0  0  0  0  0  0
  190.0540  177.4830  141.5140 C   0  0  0  0  0  0  0  0  0  0  0  0
  186.7930  178.3210  141.8980 C   0  0  0  0  0  3  0  0  0  0  0  0
  191.6140  177.9150  144.6000 C   0  0  0  0  0  3  0  0  0  0  0  0
  191.7630  177.2900  145.8390 C   0  0  0  0  0  3  0  0  0  0  0  0
  187.8620  177.9630  142.6020 C   0  0  0  0  0  0  0  0  0  0  0  0
  189.4470  176.6080  145.7760 C   0  0  0  0  0  3  0  0  0  0  0  0
  190.3930  176.4600  140.8060 N   0  0  0  0  0  0  0  0  0  0  0  0
  190.3830  177.9020  143.9350 C   0  0  0  0  0  0  0  0  0  0  0  0
  190.8350  176.0090  147.6560 O   0  0  0  0  0  1  0  0  0  0  0  0
  187.8980  177.1880  143.8860 C   0  0  2  0  0  3  0  0  0  0  0  0
  187.2420  179.1780  140.7850 C   0  0  0  0  0  3  0  0  0  0  0  0
  189.0450  178.5310  141.9570 C   0  0  2  0  0  0  0  0  0  0  0  0
  190.3370  178.5610  142.5710 C   0  0  2  0  0  3  0  0  0  0  0  0
  185.9900  178.1920  147.0320 C   0  0  0  0  0  3  0  0  0  0  0  0
  184.5070  178.3820  145.1220 C   0  0  0  0  0  0  0  0  0  0  0  0
  184.7350  178.4960  146.4980 C   0  0  0  0  0  3  0  0  0  0  0  0
  186.7980  177.6240  144.8170 C   0  0  0  0  0  0  0  0  0  0  0  0
  187.0210  177.7640  146.1940 C   0  0  0  0  0  3  0  0  0  0  0  0
  185.5460  177.9450  144.2850 C   0  0  0  0  0  3  0  0  0  0  0  0
  183.2510  178.7170  144.6140 O   0  0  0  0  0  0  0  0  0  0  0  0
  183.0600  179.1480  143.2720 C   0  0  0  0  0  2  0  0  0  0  0  0
  181.6990  178.6790  142.7550 C   0  0  2  0  0  3  0  0  0  0  0  0
  179.5970  176.6810  138.9850 C   0  0  0  0  0  1  0  0  0  0  0  0
  181.2700  177.9240  140.4120 C   0  0  0  0  0  0  0  0  0  0  0  0
  179.9530  180.1140  141.1430 S   0  0  0  0  0  0  0  0  0  0  0  0
  179.0540  178.8520  140.1710 C   0  0  0  0  0  2  0  0  0  0  0  0
  182.1910  177.0980  140.1690 O   0  0  0  0  0  0  0  0  0  0  0  0
  181.4760  179.1020  141.2950 C   0  0  1  0  0  3  0  0  0  0  0  0
  179.9810  177.7920  139.8410 N   0  0  0  0  0  0  0  0  0  0  0  0
  180.6340  179.1550  143.6170 N   0  0  0  0  0  0  0  0  0  0  0  0
  179.7420  178.3680  144.1120 C   0  0  0  0  0  2  0  0  0  0  0  0
  189.4860  175.9030  139.9390 O   0  0  0  0  0  0  0  0  0  0  0  0
  187.0470  176.3710  136.0220 C   0  0  2  0  0  0  0  0  0  0  0  0
  187.3750  177.1000  137.2230 N   0  0  0  0  0  0  0  0  0  0  0  0
  184.8960  176.4180  134.5980 C   0  0  0  0  0  1  0  0  0  0  0  0
  188.6810  176.7100  139.1700 N   0  0  0  0  0  0  0  0  0  0  0  0
  187.6200  174.9580  136.1990 C   0  0  0  0  0  2  0  0  0  0  0  0
  186.2330  177.7950  137.7940 C   0  0  0  0  0  2  0  0  0  0  0  0
  188.5500  175.0010  137.4130 C   0  0  0  0  0  2  0  0  0  0  0  0
  188.2380  176.3130  138.0210 C   0  0  0  0  0  0  0  0  0  0  0  0
  185.0790  177.5370  136.8380 C   0  0  0  0  0  2  0  0  0  0  0  0
  187.6960  177.0550  134.8230 C   0  0  0  0  0  1  0  0  0  0  0  0
  185.5190  176.3560  135.9840 C   0  0  2  0  0  3  0  0  0  0  0  0
  1  9  1  0  0  0  0
  3 12  1  0  0  0  0
  4 15  1  0  0  0  0
  5  8  2  0  0  0  0
  6  7  2  0  0  0  0
  7  3  1  0  0  0  0
  8 13  1  0  0  0  0
  9  3  2  0  0  0  0
 10  4  2  0  0  0  0
 11  1  2  0  0  0  0
 11  6  1  0  0  0  0
 13  1  1  0  0  0  0
 13 20  1  1  0  0  0
 14  2  2  0  0  0  0
 14  5  1  0  0  0  0
 15  2  1  6  0  0  0
 15 16  1  0  0  0  0
 15  8  1  0  0  0  0
 16  4  1  6  0  0  0
 16 11  1  0  0  0  0
 18 19  2  0  0  0  0
 19 17  1  0  0  0  0
 20 21  1  0  0  0  0
 21 17  2  0  0  0  0
 22 20  2  0  0  0  0
 22 18  1  0  0  0  0
 23 18  1  0  0  0  0
 24 23  1  0  0  0  0
 25 24  1  1  0  0  0
 25 33  1  0  0  0  0
 26 32  1  0  0  0  0
 27 31  1  0  0  0  0
 28 31  1  0  0  0  0
 29 28  1  0  0  0  0
 30 27  2  0  0  0  0
 31 25  1  1  0  0  0
 32 29  1  0  0  0  0
 32 27  1  0  0  0  0
 33 34  2  0  0  0  0
 35 10  1  0  0  0  0
 36 45  1  6  0  0  0
 36 40  1  0  0  0  0
 36 37  1  0  0  0  0
 37 41  1  0  0  0  0
 37 43  1  0  0  0  0
 39 35  1  0  0  0  0
 40 42  1  0  0  0  0
 42 43  1  0  0  0  0
 43 39  2  0  0  0  0
 44 41  1  0  0  0  0
 46 38  1  6  0  0  0
 46 36  1  0  0  0  0
 46 44  1  0  0  0  0
M  END
>  <MODEL>
9

>  <REMARK>
 VINA RESULT:      -6.3      5.062     11.286
  Name = 
  8 active torsions:
  status: ('A' for Active; 'I' for Inactive)
    1  A    between atoms: N_2  and  C_8
    2  A    between atoms: C_8  and  C_13
    3  A    between atoms: C_8  and  C_24
    4  A    between atoms: O_11  and  C_13
    5  A    between atoms: O_11  and  C_21
    6  A    between atoms: N_17  and  O_41
    7  A    between atoms: N_29  and  O_41
    8  A    between atoms: C_31  and  C_36
                            x       y       z     vdW  Elec       q    Type
                         _______ _______ _______ _____ _____    ______ ____

>  <TORSDO>
F 8

$$$$
