=
 OpenBabel11032420533D

 47 52  0  0  1  0  0  0  0  0999 V2000
  184.1200  178.2010  141.9860 C   0  0  1  0  0  3  0  0  0  0  0  0
  183.1570  179.3270  143.6370 O   0  0  0  0  0  0  0  0  0  0  0  0
  185.3510  179.0950  142.2340 C   0  0  1  0  0  3  0  0  0  0  0  0
  184.2820  179.5470  144.4720 C   0  0  2  0  0  3  0  0  0  0  0  0
  183.2750  178.1070  143.1230 O   0  0  0  0  0  0  0  0  0  0  0  0
  185.5850  179.2150  143.7400 C   0  0  0  0  0  2  0  0  0  0  0  0
  182.2610  178.9360  137.9410 C   0  0  1  0  0  3  0  0  0  0  0  0
  184.0780  179.4590  139.6820 C   0  0  0  0  0  2  0  0  0  0  0  0
  182.4370  177.4900  140.1320 C   0  0  1  0  0  3  0  0  0  0  0  0
  183.1500  180.0030  138.5980 C   0  0  0  0  0  2  0  0  0  0  0  0
  183.3620  178.5640  140.7020 C   0  0  1  0  0  0  0  0  0  0  0  0
  181.8520  178.7100  140.8480 C   0  0  0  0  0  2  0  0  0  0  0  0
  182.3460  177.5460  138.5920 C   0  0  0  0  0  2  0  0  0  0  0  0
  180.8140  179.3990  137.9090 C   0  0  0  0  0  2  0  0  0  0  0  0
  180.2450  181.6990  136.9690 C   0  0  1  0  0  0  0  0  0  0  0  0
  180.6640  183.1570  136.9720 C   0  0  0  0  0  1  0  0  0  0  0  0
  180.7050  180.8970  138.1850 C   0  0  1  0  0  3  0  0  0  0  0  0
  179.2500  181.3430  138.0550 C   0  0  0  0  0  2  0  0  0  0  0  0
  181.0790  180.9740  134.7270 O   0  0  0  0  0  0  0  0  0  0  0  0
  180.0400  181.0170  135.6470 C   0  0  0  0  0  0  0  0  0  0  0  0
  178.9340  180.4840  135.3620 O   0  0  0  0  0  1  0  0  0  0  0  0
  186.5860  178.4840  141.5910 C   0  0  0  0  0  2  0  0  0  0  0  0
  187.6390  178.0670  142.6210 C   0  0  0  0  0  2  0  0  0  0  0  0
  188.6550  175.9440  143.0820 O   0  0  0  0  0  1  0  0  0  0  0  0
  188.5860  176.9680  142.1300 C   0  0  2  0  0  3  0  0  0  0  0  0
  190.6300  178.1490  142.7270 C   0  0  0  0  0  2  0  0  0  0  0  0
  189.9620  177.4700  141.8040 C   0  0  0  0  0  0  0  0  0  0  0  0
  189.7500  176.9160  139.3600 N   0  0  0  0  0  0  0  0  0  0  0  0
  188.6290  177.7810  139.0140 C   0  0  0  0  0  2  0  0  0  0  0  0
  189.4480  177.7230  136.6670 C   0  0  0  0  0  2  0  0  0  0  0  0
  191.8240  177.4270  140.3200 O   0  0  0  0  0  0  0  0  0  0  0  0
  189.0330  178.6360  137.8190 C   0  0  0  0  0  2  0  0  0  0  0  0
  190.6190  176.8180  137.0790 C   0  0  1  0  0  3  0  0  0  0  0  0
  190.2360  176.0100  138.3250 C   0  0  0  0  0  2  0  0  0  0  0  0
  190.5760  177.2730  140.4760 C   0  0  0  0  0  0  0  0  0  0  0  0
  190.9930  175.8780  135.9360 C   0  0  0  0  0  3  0  0  0  0  0  0
  191.8360  174.8680  136.4060 O   0  0  0  0  0  1  0  0  0  0  0  0
  189.8430  175.3010  135.3960 O   0  0  0  0  0  1  0  0  0  0  0  0
  184.1960  178.7250  145.7600 C   0  0  0  0  0  2  0  0  0  0  0  0
  185.6900  179.7460  147.3340 O   0  0  0  0  0  0  0  0  0  0  0  0
  185.4530  178.7700  146.5740 C   0  0  0  0  0  0  0  0  0  0  0  0
  186.3030  177.6610  146.5530 O   0  0  0  0  0  0  0  0  0  0  0  0
  187.6930  177.7600  146.2550 C   0  0  0  0  0  2  0  0  0  0  0  0
  189.4810  176.3850  147.3610 O   0  0  0  0  0  1  0  0  0  0  0  0
  187.9230  177.5600  148.8460 C   0  0  0  0  0  2  0  0  0  0  0  0
  188.5280  177.3880  147.4710 C   0  0  0  0  0  0  0  0  0  0  0  0
  188.9630  178.5460  148.3300 C   0  0  0  0  0  2  0  0  0  0  0  0
  1  3  1  0  0  0  0
  1  5  1  1  0  0  0
  2  4  1  0  0  0  0
  3 22  1  6  0  0  0
  3  6  1  0  0  0  0
  4 39  1  1  0  0  0
  5  2  1  0  0  0  0
  6  4  1  0  0  0  0
  7 14  1  1  0  0  0
  7 13  1  0  0  0  0
  7 10  1  0  0  0  0
  9 13  1  6  0  0  0
  9 11  1  0  0  0  0
  9 12  1  0  0  0  0
 10  8  1  0  0  0  0
 11  8  1  6  0  0  0
 11 12  1  0  0  0  0
 11  1  1  0  0  0  0
 15 16  1  6  0  0  0
 15 18  1  0  0  0  0
 15 17  1  0  0  0  0
 17 14  1  6  0  0  0
 18 17  1  0  0  0  0
 19 20  2  0  0  0  0
 20 15  1  0  0  0  0
 21 20  1  0  0  0  0
 22 23  1  0  0  0  0
 25 23  1  0  0  0  0
 25 24  1  1  0  0  0
 27 25  1  0  0  0  0
 27 26  2  0  0  0  0
 28 35  1  0  0  0  0
 29 28  1  0  0  0  0
 30 33  1  0  0  0  0
 30 32  1  0  0  0  0
 31 35  2  0  0  0  0
 32 29  1  0  0  0  0
 33 36  1  6  0  0  0
 33 34  1  0  0  0  0
 34 28  1  0  0  0  0
 35 27  1  0  0  0  0
 36 37  1  0  0  0  0
 38 36  1  0  0  0  0
 39 41  1  0  0  0  0
 41 40  2  0  0  0  0
 42 41  1  0  0  0  0
 43 42  1  0  0  0  0
 43 46  1  0  0  0  0
 44 46  1  0  0  0  0
 46 47  1  0  0  0  0
 46 45  1  0  0  0  0
 47 45  1  0  0  0  0
M  END
>  <MODEL>
1

>  <REMARK>
 VINA RESULT:      -8.2      0.000      0.000
  Name = 
  15 active torsions:
  status: ('A' for Active; 'I' for Inactive)
    1  A    between atoms: C_1  and  C_30
    2  A    between atoms: C_4  and  C_32
    3  A    between atoms: C_8  and  C_18
    4  A    between atoms: C_10  and  C_22
    5  A    between atoms: C_15  and  C_19
    6  A    between atoms: C_15  and  C_34
    7  A    between atoms: C_23  and  C_44
    8  A    between atoms: O_24  and  C_40
    9  A    between atoms: O_24  and  C_47
   10  A    between atoms: C_29  and  C_39
   11  A    between atoms: C_29  and  C_42
   12  A    between atoms: C_32  and  C_35
   13  A    between atoms: C_34  and  C_42
   14  A    between atoms: C_40  and  C_41
   15  A    between atoms: C_44  and  C_47
                            x       y       z     vdW  Elec       q    Type
                         _______ _______ _______ _____ _____    ______ ____

>  <TORSDO>
F 15

$$$$
=
 OpenBabel11032420533D

 47 52  0  0  1  0  0  0  0  0999 V2000
  183.3220  178.3460  141.7380 C   0  0  1  0  0  3  0  0  0  0  0  0
  182.7010  179.3610  143.6120 O   0  0  0  0  0  0  0  0  0  0  0  0
  184.5950  179.2130  141.8140 C   0  0  1  0  0  3  0  0  0  0  0  0
  183.9650  179.5150  144.2370 C   0  0  2  0  0  3  0  0  0  0  0  0
  182.6980  178.1790  143.0030 O   0  0  0  0  0  0  0  0  0  0  0  0
  185.1040  179.2250  143.2560 C   0  0  0  0  0  2  0  0  0  0  0  0
  180.6110  180.2190  138.6560 C   0  0  1  0  0  3  0  0  0  0  0  0
  181.0690  179.5270  141.0890 C   0  0  0  0  0  2  0  0  0  0  0  0
  182.9710  179.2700  139.3310 C   0  0  1  0  0  3  0  0  0  0  0  0
  180.0370  179.6720  139.9710 C   0  0  0  0  0  2  0  0  0  0  0  0
  182.3470  178.8040  140.6450 C   0  0  1  0  0  0  0  0  0  0  0  0
  182.2730  177.9100  139.4130 C   0  0  0  0  0  2  0  0  0  0  0  0
  182.1400  180.3750  138.6430 C   0  0  0  0  0  2  0  0  0  0  0  0
  180.1740  179.3510  137.4870 C   0  0  0  0  0  2  0  0  0  0  0  0
  181.2680  178.0680  135.5760 C   0  0  1  0  0  0  0  0  0  0  0  0
  182.5910  177.8050  134.8820 C   0  0  0  0  0  1  0  0  0  0  0  0
  181.2050  179.3770  136.3610 C   0  0  1  0  0  3  0  0  0  0  0  0
  180.5020  179.2470  135.0110 C   0  0  0  0  0  2  0  0  0  0  0  0
  180.9960  175.9090  136.8070 O   0  0  0  0  0  1  0  0  0  0  0  0
  180.4370  176.8910  136.0000 C   0  0  0  0  0  0  0  0  0  0  0  0
  179.2370  176.7840  135.6300 O   0  0  0  0  0  0  0  0  0  0  0  0
  185.6780  178.6390  140.9150 C   0  0  0  0  0  2  0  0  0  0  0  0
  187.0290  178.5210  141.6240 C   0  0  0  0  0  2  0  0  0  0  0  0
  187.7830  178.5560  139.3480 O   0  0  0  0  0  1  0  0  0  0  0  0
  188.2300  178.5080  140.6740 C   0  0  2  0  0  3  0  0  0  0  0  0
  189.6100  176.6970  139.8100 C   0  0  0  0  0  2  0  0  0  0  0  0
  189.1360  177.3290  140.8750 C   0  0  0  0  0  0  0  0  0  0  0  0
  190.7240  177.1940  142.8220 N   0  0  0  0  0  0  0  0  0  0  0  0
  191.0270  178.6100  142.9830 C   0  0  0  0  0  2  0  0  0  0  0  0
  191.6110  178.1050  145.3470 C   0  0  0  0  0  2  0  0  0  0  0  0
  188.6700  176.0680  142.8410 O   0  0  0  0  0  0  0  0  0  0  0  0
  190.7680  178.9950  144.4340 C   0  0  0  0  0  2  0  0  0  0  0  0
  191.2720  176.6230  145.1320 C   0  0  1  0  0  3  0  0  0  0  0  0
  191.4660  176.2550  143.6560 C   0  0  0  0  0  2  0  0  0  0  0  0
  189.4770  176.8210  142.2190 C   0  0  0  0  0  0  0  0  0  0  0  0
  192.1540  175.7420  146.0150 C   0  0  0  0  0  3  0  0  0  0  0  0
  191.5650  175.5870  147.2720 O   0  0  0  0  0  1  0  0  0  0  0  0
  192.3180  174.4890  145.4260 O   0  0  0  0  0  1  0  0  0  0  0  0
  184.1000  178.6060  145.4600 C   0  0  0  0  0  2  0  0  0  0  0  0
  185.6770  179.7590  146.8530 O   0  0  0  0  0  0  0  0  0  0  0  0
  185.4220  178.7430  146.1530 C   0  0  0  0  0  0  0  0  0  0  0  0
  186.3220  177.6760  146.0940 O   0  0  0  0  0  0  0  0  0  0  0  0
  187.7320  177.8480  146.1980 C   0  0  0  0  0  2  0  0  0  0  0  0
  188.3370  176.0110  147.8000 O   0  0  0  0  0  1  0  0  0  0  0  0
  187.9600  178.2320  148.7690 C   0  0  0  0  0  2  0  0  0  0  0  0
  188.2310  177.3720  147.5550 C   0  0  0  0  0  0  0  0  0  0  0  0
  189.3500  178.1850  148.1490 C   0  0  0  0  0  2  0  0  0  0  0  0
  1  3  1  0  0  0  0
  1  5  1  1  0  0  0
  2  4  1  0  0  0  0
  3 22  1  6  0  0  0
  3  6  1  0  0  0  0
  4 39  1  1  0  0  0
  5  2  1  0  0  0  0
  6  4  1  0  0  0  0
  7 14  1  6  0  0  0
  7 10  1  0  0  0  0
  9 13  1  6  0  0  0
  9 12  1  0  0  0  0
  9 11  1  0  0  0  0
 10  8  1  0  0  0  0
 11 12  1  6  0  0  0
 11  8  1  0  0  0  0
 11  1  1  0  0  0  0
 13  7  1  0  0  0  0
 15 16  1  6  0  0  0
 15 20  1  0  0  0  0
 15 17  1  0  0  0  0
 17 14  1  1  0  0  0
 18 15  1  0  0  0  0
 18 17  1  0  0  0  0
 20 19  1  0  0  0  0
 21 20  2  0  0  0  0
 22 23  1  0  0  0  0
 25 24  1  6  0  0  0
 25 27  1  0  0  0  0
 25 23  1  0  0  0  0
 26 27  2  0  0  0  0
 27 35  1  0  0  0  0
 28 29  1  0  0  0  0
 28 34  1  0  0  0  0
 29 32  1  0  0  0  0
 32 30  1  0  0  0  0
 33 30  1  0  0  0  0
 33 36  1  1  0  0  0
 34 33  1  0  0  0  0
 35 28  1  0  0  0  0
 35 31  2  0  0  0  0
 36 37  1  0  0  0  0
 38 36  1  0  0  0  0
 39 41  1  0  0  0  0
 41 40  2  0  0  0  0
 42 41  1  0  0  0  0
 42 43  1  0  0  0  0
 43 46  1  0  0  0  0
 46 44  1  0  0  0  0
 46 47  1  0  0  0  0
 46 45  1  0  0  0  0
 47 45  1  0  0  0  0
M  END
>  <MODEL>
2

>  <REMARK>
 VINA RESULT:      -8.1      2.219      4.220
  Name = 
  15 active torsions:
  status: ('A' for Active; 'I' for Inactive)
    1  A    between atoms: C_1  and  C_30
    2  A    between atoms: C_4  and  C_32
    3  A    between atoms: C_8  and  C_18
    4  A    between atoms: C_10  and  C_22
    5  A    between atoms: C_15  and  C_19
    6  A    between atoms: C_15  and  C_34
    7  A    between atoms: C_23  and  C_44
    8  A    between atoms: O_24  and  C_40
    9  A    between atoms: O_24  and  C_47
   10  A    between atoms: C_29  and  C_39
   11  A    between atoms: C_29  and  C_42
   12  A    between atoms: C_32  and  C_35
   13  A    between atoms: C_34  and  C_42
   14  A    between atoms: C_40  and  C_41
   15  A    between atoms: C_44  and  C_47
                            x       y       z     vdW  Elec       q    Type
                         _______ _______ _______ _____ _____    ______ ____

>  <TORSDO>
F 15

$$$$
=
 OpenBabel11032420533D

 47 52  0  0  1  0  0  0  0  0999 V2000
  189.4790  176.7600  140.3320 C   0  0  1  0  0  3  0  0  0  0  0  0
  191.5670  176.7970  139.5840 O   0  0  0  0  0  0  0  0  0  0  0  0
  189.2570  178.0170  139.4680 C   0  0  1  0  0  3  0  0  0  0  0  0
  191.3470  177.2760  138.2670 C   0  0  2  0  0  3  0  0  0  0  0  0
  190.5690  175.9700  139.8800 O   0  0  0  0  0  0  0  0  0  0  0  0
  189.9210  177.8090  138.1060 C   0  0  0  0  0  2  0  0  0  0  0  0
  190.2180  177.7560  144.6700 C   0  0  1  0  0  3  0  0  0  0  0  0
  190.2860  176.0690  142.7320 C   0  0  0  0  0  2  0  0  0  0  0  0
  189.6460  178.5390  142.2230 C   0  0  1  0  0  3  0  0  0  0  0  0
  190.0410  176.2970  144.2220 C   0  0  0  0  0  2  0  0  0  0  0  0
  189.5420  177.0660  141.8340 C   0  0  1  0  0  0  0  0  0  0  0  0
  188.3280  177.7830  142.4120 C   0  0  0  0  0  2  0  0  0  0  0  0
  190.4530  178.7510  143.5220 C   0  0  0  0  0  2  0  0  0  0  0  0
  189.0250  178.2030  145.4990 C   0  0  0  0  0  2  0  0  0  0  0  0
  187.9320  177.9240  147.7850 C   0  0  1  0  0  0  0  0  0  0  0  0
  188.1080  178.2050  149.2650 C   0  0  0  0  0  1  0  0  0  0  0  0
  189.2300  177.8900  146.9790 C   0  0  1  0  0  3  0  0  0  0  0  0
  188.5070  176.5940  147.3400 C   0  0  0  0  0  2  0  0  0  0  0  0
  186.0330  177.4740  146.2230 O   0  0  0  0  0  0  0  0  0  0  0  0
  186.6450  178.3320  147.1270 C   0  0  0  0  0  0  0  0  0  0  0  0
  186.1160  179.4470  147.3840 O   0  0  0  0  0  1  0  0  0  0  0  0
  187.7710  178.2590  139.2580 C   0  0  0  0  0  2  0  0  0  0  0  0
  187.2350  177.5720  138.0010 C   0  0  0  0  0  2  0  0  0  0  0  0
  185.5150  179.2150  138.3070 O   0  0  0  0  0  1  0  0  0  0  0  0
  185.8810  178.1110  137.5280 C   0  0  2  0  0  3  0  0  0  0  0  0
  185.0600  175.8590  137.0980 C   0  0  0  0  0  2  0  0  0  0  0  0
  184.7910  177.0790  137.5440 C   0  0  0  0  0  0  0  0  0  0  0  0
  183.0050  177.0120  139.3140 N   0  0  0  0  0  0  0  0  0  0  0  0
  183.7790  177.4860  140.4540 C   0  0  0  0  0  2  0  0  0  0  0  0
  181.6300  178.2100  141.4740 C   0  0  0  0  0  2  0  0  0  0  0  0
  182.6180  177.9980  137.2250 O   0  0  0  0  0  0  0  0  0  0  0  0
  183.0380  178.6590  141.0840 C   0  0  0  0  0  2  0  0  0  0  0  0
  180.8570  177.7030  140.2480 C   0  0  1  0  0  3  0  0  0  0  0  0
  181.6390  176.5700  139.5740 C   0  0  0  0  0  2  0  0  0  0  0  0
  183.4210  177.3910  137.9950 C   0  0  0  0  0  0  0  0  0  0  0  0
  179.4700  177.2140  140.6590 C   0  0  0  0  0  3  0  0  0  0  0  0
  179.3830  175.8300  140.4870 O   0  0  0  0  0  1  0  0  0  0  0  0
  179.2310  177.5250  141.9970 O   0  0  0  0  0  1  0  0  0  0  0  0
  191.6080  176.1890  137.2220 C   0  0  0  0  0  2  0  0  0  0  0  0
  193.9490  176.6440  136.9720 O   0  0  0  0  0  0  0  0  0  0  0  0
  193.0480  175.7810  137.1420 C   0  0  0  0  0  0  0  0  0  0  0  0
  193.3770  174.4420  137.3680 O   0  0  0  0  0  0  0  0  0  0  0  0
  194.6400  173.8870  137.0110 C   0  0  0  0  0  2  0  0  0  0  0  0
  195.3320  172.1660  138.7040 O   0  0  0  0  0  1  0  0  0  0  0  0
  195.6730  174.5140  139.3240 C   0  0  0  0  0  2  0  0  0  0  0  0
  195.4140  173.4760  138.2550 C   0  0  0  0  0  0  0  0  0  0  0  0
  196.7890  174.0760  138.3840 C   0  0  0  0  0  2  0  0  0  0  0  0
  1  5  1  6  0  0  0
  1 11  1  0  0  0  0
  2  5  1  0  0  0  0
  3 22  1  6  0  0  0
  3  1  1  0  0  0  0
  4 39  1  6  0  0  0
  4  2  1  0  0  0  0
  6  4  1  0  0  0  0
  6  3  1  0  0  0  0
  7 14  1  6  0  0  0
  8 10  1  0  0  0  0
  9 12  1  1  0  0  0
  9 13  1  0  0  0  0
 10  7  1  0  0  0  0
 11  9  1  0  0  0  0
 11 12  1  1  0  0  0
 11  8  1  0  0  0  0
 13  7  1  0  0  0  0
 15 16  1  1  0  0  0
 17 14  1  6  0  0  0
 17 18  1  0  0  0  0
 17 15  1  0  0  0  0
 18 15  1  0  0  0  0
 19 20  2  0  0  0  0
 20 21  1  0  0  0  0
 20 15  1  0  0  0  0
 23 22  1  0  0  0  0
 25 27  1  0  0  0  0
 25 23  1  0  0  0  0
 25 24  1  1  0  0  0
 26 27  2  0  0  0  0
 27 35  1  0  0  0  0
 28 34  1  0  0  0  0
 28 29  1  0  0  0  0
 29 32  1  0  0  0  0
 31 35  2  0  0  0  0
 32 30  1  0  0  0  0
 33 36  1  1  0  0  0
 33 30  1  0  0  0  0
 34 33  1  0  0  0  0
 35 28  1  0  0  0  0
 36 38  1  0  0  0  0
 37 36  1  0  0  0  0
 40 41  2  0  0  0  0
 41 39  1  0  0  0  0
 41 42  1  0  0  0  0
 43 42  1  0  0  0  0
 43 46  1  0  0  0  0
 46 47  1  0  0  0  0
 46 44  1  0  0  0  0
 46 45  1  0  0  0  0
 47 45  1  0  0  0  0
M  END
>  <MODEL>
3

>  <REMARK>
 VINA RESULT:      -7.9      2.923     10.251
  Name = 
  15 active torsions:
  status: ('A' for Active; 'I' for Inactive)
    1  A    between atoms: C_1  and  C_30
    2  A    between atoms: C_4  and  C_32
    3  A    between atoms: C_8  and  C_18
    4  A    between atoms: C_10  and  C_22
    5  A    between atoms: C_15  and  C_19
    6  A    between atoms: C_15  and  C_34
    7  A    between atoms: C_23  and  C_44
    8  A    between atoms: O_24  and  C_40
    9  A    between atoms: O_24  and  C_47
   10  A    between atoms: C_29  and  C_39
   11  A    between atoms: C_29  and  C_42
   12  A    between atoms: C_32  and  C_35
   13  A    between atoms: C_34  and  C_42
   14  A    between atoms: C_40  and  C_41
   15  A    between atoms: C_44  and  C_47
                            x       y       z     vdW  Elec       q    Type
                         _______ _______ _______ _____ _____    ______ ____

>  <TORSDO>
F 15

$$$$
=
 OpenBabel11032420533D

 47 52  0  0  1  0  0  0  0  0999 V2000
  189.0060  176.2040  137.5920 C   0  0  1  0  0  3  0  0  0  0  0  0
  187.6570  175.7020  135.9020 O   0  0  0  0  0  0  0  0  0  0  0  0
  188.5970  177.6700  137.3460 C   0  0  1  0  0  3  0  0  0  0  0  0
  186.6430  176.6730  136.1030 C   0  0  2  0  0  3  0  0  0  0  0  0
  188.0470  175.2790  137.1010 O   0  0  0  0  0  0  0  0  0  0  0  0
  187.0870  177.7330  137.1130 C   0  0  0  0  0  2  0  0  0  0  0  0
  193.3100  175.8380  136.2890 C   0  0  1  0  0  3  0  0  0  0  0  0
  190.8660  176.4240  135.7530 C   0  0  0  0  0  2  0  0  0  0  0  0
  191.5100  175.8540  138.2090 C   0  0  1  0  0  3  0  0  0  0  0  0
  192.1760  175.8180  135.2530 C   0  0  0  0  0  2  0  0  0  0  0  0
  190.4340  175.8910  137.1250 C   0  0  1  0  0  0  0  0  0  0  0  0
  190.9990  174.5530  137.5840 C   0  0  0  0  0  2  0  0  0  0  0  0
  192.8880  176.3160  137.6880 C   0  0  0  0  0  2  0  0  0  0  0  0
  193.9590  174.4670  136.3900 C   0  0  0  0  0  2  0  0  0  0  0  0
  196.3570  174.2410  137.2240 C   0  0  1  0  0  0  0  0  0  0  0  0
  197.7480  174.8350  137.1150 C   0  0  0  0  0  1  0  0  0  0  0  0
  195.4420  174.5270  136.0340 C   0  0  1  0  0  3  0  0  0  0  0  0
  196.0740  173.1480  136.2130 C   0  0  0  0  0  2  0  0  0  0  0  0
  195.3290  172.7700  138.9630 O   0  0  0  0  0  0  0  0  0  0  0  0
  195.7730  174.0320  138.5920 C   0  0  0  0  0  0  0  0  0  0  0  0
  195.6800  174.9900  139.4050 O   0  0  0  0  0  1  0  0  0  0  0  0
  188.9450  178.5250  138.5530 C   0  0  0  0  0  2  0  0  0  0  0  0
  188.2130  178.0780  139.8210 C   0  0  0  0  0  2  0  0  0  0  0  0
  190.3140  177.6090  140.8770 O   0  0  0  0  0  1  0  0  0  0  0  0
  189.0570  178.1840  141.0950 C   0  0  2  0  0  3  0  0  0  0  0  0
  187.0910  177.6940  142.4470 C   0  0  0  0  0  2  0  0  0  0  0  0
  188.4020  177.5640  142.2950 C   0  0  0  0  0  0  0  0  0  0  0  0
  189.5880  177.5630  144.5130 N   0  0  0  0  0  0  0  0  0  0  0  0
  188.5710  178.2140  145.3290 C   0  0  0  0  0  2  0  0  0  0  0  0
  189.5970  177.1020  147.3030 C   0  0  0  0  0  2  0  0  0  0  0  0
  189.4680  175.6330  143.1910 O   0  0  0  0  0  0  0  0  0  0  0  0
  188.2930  177.3350  146.5420 C   0  0  0  0  0  2  0  0  0  0  0  0
  190.6450  176.4310  146.4020 C   0  0  1  0  0  3  0  0  0  0  0  0
  190.8720  177.2820  145.1470 C   0  0  0  0  0  2  0  0  0  0  0  0
  189.1760  176.8580  143.3350 C   0  0  0  0  0  0  0  0  0  0  0  0
  191.9580  176.2470  147.1590 C   0  0  0  0  0  3  0  0  0  0  0  0
  192.0530  177.1920  148.1830 O   0  0  0  0  0  1  0  0  0  0  0  0
  192.0180  174.9670  147.7090 O   0  0  0  0  0  1  0  0  0  0  0  0
  185.3370  176.0310  136.5750 C   0  0  0  0  0  2  0  0  0  0  0  0
  184.0540  177.1730  134.9000 O   0  0  0  0  0  0  0  0  0  0  0  0
  184.1160  176.7500  136.0850 C   0  0  0  0  0  0  0  0  0  0  0  0
  183.0110  176.8450  136.9340 O   0  0  0  0  0  0  0  0  0  0  0  0
  182.5310  178.0880  137.4400 C   0  0  0  0  0  2  0  0  0  0  0  0
  183.2000  177.1810  139.6850 O   0  0  0  0  0  1  0  0  0  0  0  0
  182.5610  179.5470  139.6040 C   0  0  0  0  0  2  0  0  0  0  0  0
  182.9850  178.2900  138.8790 C   0  0  0  0  0  0  0  0  0  0  0  0
  183.9860  179.3950  139.0880 C   0  0  0  0  0  2  0  0  0  0  0  0
  1  5  1  6  0  0  0
  2  4  1  0  0  0  0
  2  5  1  0  0  0  0
  3  1  1  0  0  0  0
  3 22  1  1  0  0  0
  4 39  1  1  0  0  0
  4  6  1  0  0  0  0
  6  3  1  0  0  0  0
  7 14  1  1  0  0  0
  7 13  1  0  0  0  0
  9 12  1  6  0  0  0
 10  8  1  0  0  0  0
 10  7  1  0  0  0  0
 11  8  1  6  0  0  0
 11 12  1  0  0  0  0
 11  1  1  0  0  0  0
 11  9  1  0  0  0  0
 13  9  1  0  0  0  0
 15 16  1  6  0  0  0
 15 20  1  0  0  0  0
 17 18  1  0  0  0  0
 17 14  1  1  0  0  0
 17 15  1  0  0  0  0
 18 15  1  0  0  0  0
 20 19  2  0  0  0  0
 20 21  1  0  0  0  0
 22 23  1  0  0  0  0
 23 25  1  0  0  0  0
 25 24  1  6  0  0  0
 25 27  1  0  0  0  0
 27 26  2  0  0  0  0
 27 35  1  0  0  0  0
 28 34  1  0  0  0  0
 28 29  1  0  0  0  0
 29 32  1  0  0  0  0
 31 35  2  0  0  0  0
 32 30  1  0  0  0  0
 33 36  1  1  0  0  0
 33 30  1  0  0  0  0
 34 33  1  0  0  0  0
 35 28  1  0  0  0  0
 36 38  1  0  0  0  0
 36 37  1  0  0  0  0
 40 41  2  0  0  0  0
 41 39  1  0  0  0  0
 41 42  1  0  0  0  0
 42 43  1  0  0  0  0
 43 46  1  0  0  0  0
 46 47  1  0  0  0  0
 46 45  1  0  0  0  0
 46 44  1  0  0  0  0
 47 45  1  0  0  0  0
M  END
>  <MODEL>
4

>  <REMARK>
 VINA RESULT:      -7.8      3.086     10.722
  Name = 
  15 active torsions:
  status: ('A' for Active; 'I' for Inactive)
    1  A    between atoms: C_1  and  C_30
    2  A    between atoms: C_4  and  C_32
    3  A    between atoms: C_8  and  C_18
    4  A    between atoms: C_10  and  C_22
    5  A    between atoms: C_15  and  C_19
    6  A    between atoms: C_15  and  C_34
    7  A    between atoms: C_23  and  C_44
    8  A    between atoms: O_24  and  C_40
    9  A    between atoms: O_24  and  C_47
   10  A    between atoms: C_29  and  C_39
   11  A    between atoms: C_29  and  C_42
   12  A    between atoms: C_32  and  C_35
   13  A    between atoms: C_34  and  C_42
   14  A    between atoms: C_40  and  C_41
   15  A    between atoms: C_44  and  C_47
                            x       y       z     vdW  Elec       q    Type
                         _______ _______ _______ _____ _____    ______ ____

>  <TORSDO>
F 15

$$$$
=
 OpenBabel11032420533D

 47 52  0  0  1  0  0  0  0  0999 V2000
  190.8230  177.3550  139.2330 C   0  0  1  0  0  3  0  0  0  0  0  0
  190.3280  176.4230  141.1840 O   0  0  0  0  0  0  0  0  0  0  0  0
  189.3020  177.5130  139.0410 C   0  0  1  0  0  3  0  0  0  0  0  0
  189.1870  177.1880  141.5380 C   0  0  2  0  0  3  0  0  0  0  0  0
  191.1930  177.2450  140.5990 O   0  0  0  0  0  0  0  0  0  0  0  0
  188.6830  178.0090  140.3490 C   0  0  0  0  0  2  0  0  0  0  0  0
  192.3210  174.3440  136.2240 C   0  0  1  0  0  3  0  0  0  0  0  0
  190.4790  175.1730  137.8150 C   0  0  0  0  0  2  0  0  0  0  0  0
  192.5800  176.6630  137.4420 C   0  0  1  0  0  3  0  0  0  0  0  0
  191.2080  173.9710  137.2160 C   0  0  0  0  0  2  0  0  0  0  0  0
  191.4280  176.2500  138.3560 C   0  0  1  0  0  0  0  0  0  0  0  0
  192.8540  175.8410  138.7040 C   0  0  0  0  0  2  0  0  0  0  0  0
  192.6110  175.8500  136.1290 C   0  0  0  0  0  2  0  0  0  0  0  0
  193.6010  173.5950  136.5600 C   0  0  0  0  0  2  0  0  0  0  0  0
  196.0820  174.1800  136.5560 C   0  0  1  0  0  0  0  0  0  0  0  0
  197.0960  175.1920  136.0600 C   0  0  0  0  0  1  0  0  0  0  0  0
  194.7830  174.1270  135.7540 C   0  0  1  0  0  3  0  0  0  0  0  0
  195.8370  173.0330  135.5960 C   0  0  0  0  0  2  0  0  0  0  0  0
  196.0330  174.8270  138.9700 O   0  0  0  0  0  1  0  0  0  0  0  0
  196.0830  173.8210  138.0140 C   0  0  0  0  0  0  0  0  0  0  0  0
  196.1340  172.6150  138.3810 O   0  0  0  0  0  0  0  0  0  0  0  0
  189.0100  178.5260  137.9450 C   0  0  0  0  0  2  0  0  0  0  0  0
  188.3190  177.8970  136.7330 C   0  0  0  0  0  2  0  0  0  0  0  0
  187.4390  175.6880  136.4200 O   0  0  0  0  0  1  0  0  0  0  0  0
  187.2200  176.8940  137.0970 C   0  0  2  0  0  3  0  0  0  0  0  0
  185.3450  177.2860  135.5930 C   0  0  0  0  0  2  0  0  0  0  0  0
  185.8350  177.4010  136.8200 C   0  0  0  0  0  0  0  0  0  0  0  0
  183.6150  177.7980  137.9330 N   0  0  0  0  0  0  0  0  0  0  0  0
  183.1740  176.4180  138.0880 C   0  0  0  0  0  2  0  0  0  0  0  0
  181.7300  177.2020  139.9540 C   0  0  0  0  0  2  0  0  0  0  0  0
  185.5620  178.8640  138.6790 O   0  0  0  0  0  0  0  0  0  0  0  0
  182.8030  176.1930  139.5490 C   0  0  0  0  0  2  0  0  0  0  0  0
  182.2280  178.6420  139.7590 C   0  0  1  0  0  3  0  0  0  0  0  0
  182.6680  178.8450  138.3040 C   0  0  0  0  0  2  0  0  0  0  0  0
  185.0210  178.0670  137.8560 C   0  0  0  0  0  0  0  0  0  0  0  0
  181.1310  179.6390  140.1220 C   0  0  0  0  0  3  0  0  0  0  0  0
  180.0580  179.5100  139.2360 O   0  0  0  0  0  1  0  0  0  0  0  0
  180.6840  179.4050  141.4220 O   0  0  0  0  0  1  0  0  0  0  0  0
  189.4790  178.1200  142.7160 C   0  0  0  0  0  2  0  0  0  0  0  0
  189.5360  177.3400  144.9840 O   0  0  0  0  0  0  0  0  0  0  0  0
  188.8340  177.6750  143.9940 C   0  0  0  0  0  0  0  0  0  0  0  0
  187.4420  177.7410  144.0980 O   0  0  0  0  0  0  0  0  0  0  0  0
  186.7120  177.0720  145.1230 C   0  0  0  0  0  2  0  0  0  0  0  0
  187.1910  178.2460  147.2910 O   0  0  0  0  0  1  0  0  0  0  0  0
  184.8570  178.2450  146.5360 C   0  0  0  0  0  2  0  0  0  0  0  0
  186.3240  178.0460  146.2260 C   0  0  0  0  0  0  0  0  0  0  0  0
  185.6340  179.3010  145.7610 C   0  0  0  0  0  2  0  0  0  0  0  0
  1  5  1  1  0  0  0
  2  4  1  0  0  0  0
  3 22  1  6  0  0  0
  3  1  1  0  0  0  0
  3  6  1  0  0  0  0
  4 39  1  1  0  0  0
  5  2  1  0  0  0  0
  6  4  1  0  0  0  0
  7 14  1  1  0  0  0
  7 10  1  0  0  0  0
  9 13  1  6  0  0  0
  9 11  1  0  0  0  0
  9 12  1  0  0  0  0
 10  8  1  0  0  0  0
 11  8  1  6  0  0  0
 11 12  1  0  0  0  0
 11  1  1  0  0  0  0
 13  7  1  0  0  0  0
 15 16  1  6  0  0  0
 15 20  1  0  0  0  0
 17 15  1  0  0  0  0
 17 14  1  1  0  0  0
 18 17  1  0  0  0  0
 18 15  1  0  0  0  0
 20 21  2  0  0  0  0
 20 19  1  0  0  0  0
 23 25  1  0  0  0  0
 23 22  1  0  0  0  0
 25 24  1  6  0  0  0
 26 27  2  0  0  0  0
 27 25  1  0  0  0  0
 27 35  1  0  0  0  0
 28 29  1  0  0  0  0
 28 34  1  0  0  0  0
 29 32  1  0  0  0  0
 32 30  1  0  0  0  0
 33 30  1  0  0  0  0
 33 36  1  6  0  0  0
 34 33  1  0  0  0  0
 35 28  1  0  0  0  0
 35 31  2  0  0  0  0
 36 38  1  0  0  0  0
 37 36  1  0  0  0  0
 39 41  1  0  0  0  0
 41 42  1  0  0  0  0
 41 40  2  0  0  0  0
 42 43  1  0  0  0  0
 43 46  1  0  0  0  0
 46 45  1  0  0  0  0
 46 44  1  0  0  0  0
 47 46  1  0  0  0  0
 47 45  1  0  0  0  0
M  END
>  <MODEL>
5

>  <REMARK>
 VINA RESULT:      -7.8      3.015      9.948
  Name = 
  15 active torsions:
  status: ('A' for Active; 'I' for Inactive)
    1  A    between atoms: C_1  and  C_30
    2  A    between atoms: C_4  and  C_32
    3  A    between atoms: C_8  and  C_18
    4  A    between atoms: C_10  and  C_22
    5  A    between atoms: C_15  and  C_19
    6  A    between atoms: C_15  and  C_34
    7  A    between atoms: C_23  and  C_44
    8  A    between atoms: O_24  and  C_40
    9  A    between atoms: O_24  and  C_47
   10  A    between atoms: C_29  and  C_39
   11  A    between atoms: C_29  and  C_42
   12  A    between atoms: C_32  and  C_35
   13  A    between atoms: C_34  and  C_42
   14  A    between atoms: C_40  and  C_41
   15  A    between atoms: C_44  and  C_47
                            x       y       z     vdW  Elec       q    Type
                         _______ _______ _______ _____ _____    ______ ____

>  <TORSDO>
F 15

$$$$
=
 OpenBabel11032420533D

 47 52  0  0  1  0  0  0  0  0999 V2000
  184.4980  179.4110  143.5320 C   0  0  1  0  0  3  0  0  0  0  0  0
  182.6180  178.5410  144.3270 O   0  0  0  0  0  0  0  0  0  0  0  0
  184.2570  178.5310  142.2890 C   0  0  1  0  0  3  0  0  0  0  0  0
  181.8810  178.4110  143.1230 C   0  0  2  0  0  3  0  0  0  0  0  0
  183.3050  179.6770  144.2540 O   0  0  0  0  0  0  0  0  0  0  0  0
  182.7800  178.6110  141.9010 C   0  0  0  0  0  2  0  0  0  0  0  0
  187.5050  177.4500  146.2660 C   0  0  1  0  0  3  0  0  0  0  0  0
  185.4090  178.9020  145.9410 C   0  0  0  0  0  2  0  0  0  0  0  0
  186.4640  177.7380  143.8660 C   0  0  1  0  0  3  0  0  0  0  0  0
  186.6850  178.6580  146.7440 C   0  0  0  0  0  2  0  0  0  0  0  0
  185.6360  178.8940  144.4230 C   0  0  1  0  0  0  0  0  0  0  0  0
  187.0460  179.1530  143.9080 C   0  0  0  0  0  2  0  0  0  0  0  0
  186.9860  176.7980  144.9750 C   0  0  0  0  0  2  0  0  0  0  0  0
  188.9650  177.8370  146.0940 C   0  0  0  0  0  2  0  0  0  0  0  0
  190.7490  176.9330  144.5140 C   0  0  1  0  0  0  0  0  0  0  0  0
  191.1590  175.7200  143.7010 C   0  0  0  0  0  1  0  0  0  0  0  0
  189.8130  176.6350  145.6840 C   0  0  1  0  0  3  0  0  0  0  0  0
  191.2900  176.9340  145.9300 C   0  0  0  0  0  2  0  0  0  0  0  0
  189.8680  178.4550  142.7380 O   0  0  0  0  0  0  0  0  0  0  0  0
  190.7040  178.2700  143.8320 C   0  0  0  0  0  0  0  0  0  0  0  0
  191.4180  179.2250  144.2380 O   0  0  0  0  0  1  0  0  0  0  0  0
  185.1000  179.0210  141.1230 C   0  0  0  0  0  2  0  0  0  0  0  0
  184.3070  179.1010  139.8170 C   0  0  0  0  0  2  0  0  0  0  0  0
  185.6050  178.7580  137.8290 O   0  0  0  0  0  1  0  0  0  0  0  0
  184.7720  178.1070  138.7470 C   0  0  2  0  0  3  0  0  0  0  0  0
  182.7970  178.1690  137.3230 C   0  0  0  0  0  2  0  0  0  0  0  0
  183.6390  177.4290  138.0330 C   0  0  0  0  0  0  0  0  0  0  0  0
  183.8490  175.1120  137.0790 N   0  0  0  0  0  0  0  0  0  0  0  0
  185.2570  175.1330  136.7040 C   0  0  0  0  0  2  0  0  0  0  0  0
  185.2260  172.6520  136.8610 C   0  0  0  0  0  2  0  0  0  0  0  0
  182.8230  175.4920  139.1500 O   0  0  0  0  0  0  0  0  0  0  0  0
  185.9400  173.9210  137.3250 C   0  0  0  0  0  2  0  0  0  0  0  0
  183.7440  172.6780  137.2610 C   0  0  1  0  0  3  0  0  0  0  0  0
  183.0760  173.9360  136.6940 C   0  0  0  0  0  2  0  0  0  0  0  0
  183.4050  175.9750  138.1340 C   0  0  0  0  0  0  0  0  0  0  0  0
  183.0320  171.4270  136.7500 C   0  0  0  0  0  3  0  0  0  0  0  0
  182.1170  171.7740  135.7530 O   0  0  0  0  0  1  0  0  0  0  0  0
  183.9620  170.5290  136.2270 O   0  0  0  0  0  1  0  0  0  0  0  0
  180.7160  179.4010  143.0680 C   0  0  0  0  0  2  0  0  0  0  0  0
  178.9310  178.0730  142.1710 O   0  0  0  0  0  0  0  0  0  0  0  0
  179.7000  179.0590  142.0200 C   0  0  0  0  0  0  0  0  0  0  0  0
  179.5510  179.9170  140.9280 O   0  0  0  0  0  0  0  0  0  0  0  0
  180.4500  179.9200  139.8210 C   0  0  0  0  0  2  0  0  0  0  0  0
  179.4610  182.2040  139.4840 O   0  0  0  0  0  1  0  0  0  0  0  0
  180.4750  181.1460  137.5180 C   0  0  0  0  0  2  0  0  0  0  0  0
  180.3040  181.2050  139.0190 C   0  0  0  0  0  0  0  0  0  0  0  0
  181.5750  181.7230  138.4000 C   0  0  0  0  0  2  0  0  0  0  0  0
  1  5  1  1  0  0  0
  1 11  1  0  0  0  0
  3 22  1  6  0  0  0
  3  1  1  0  0  0  0
  4 39  1  1  0  0  0
  4  2  1  0  0  0  0
  5  2  1  0  0  0  0
  6  3  1  0  0  0  0
  6  4  1  0  0  0  0
  7 14  1  6  0  0  0
  7 10  1  0  0  0  0
  8 10  1  0  0  0  0
  9 12  1  1  0  0  0
  9 11  1  0  0  0  0
  9 13  1  0  0  0  0
 11 12  1  6  0  0  0
 11  8  1  0  0  0  0
 13  7  1  0  0  0  0
 15 16  1  6  0  0  0
 15 17  1  0  0  0  0
 15 18  1  0  0  0  0
 17 18  1  0  0  0  0
 17 14  1  1  0  0  0
 19 20  2  0  0  0  0
 20 21  1  0  0  0  0
 20 15  1  0  0  0  0
 23 22  1  0  0  0  0
 25 24  1  6  0  0  0
 25 23  1  0  0  0  0
 26 27  2  0  0  0  0
 27 35  1  0  0  0  0
 27 25  1  0  0  0  0
 28 35  1  0  0  0  0
 29 28  1  0  0  0  0
 29 32  1  0  0  0  0
 30 33  1  0  0  0  0
 30 32  1  0  0  0  0
 33 36  1  6  0  0  0
 34 28  1  0  0  0  0
 34 33  1  0  0  0  0
 35 31  2  0  0  0  0
 37 36  1  0  0  0  0
 38 36  1  0  0  0  0
 41 40  2  0  0  0  0
 41 39  1  0  0  0  0
 42 41  1  0  0  0  0
 43 42  1  0  0  0  0
 45 47  1  0  0  0  0
 45 46  1  0  0  0  0
 46 44  1  0  0  0  0
 46 43  1  0  0  0  0
 47 46  1  0  0  0  0
M  END
>  <MODEL>
6

>  <REMARK>
 VINA RESULT:      -7.8      3.461      9.026
  Name = 
  15 active torsions:
  status: ('A' for Active; 'I' for Inactive)
    1  A    between atoms: C_1  and  C_30
    2  A    between atoms: C_4  and  C_32
    3  A    between atoms: C_8  and  C_18
    4  A    between atoms: C_10  and  C_22
    5  A    between atoms: C_15  and  C_19
    6  A    between atoms: C_15  and  C_34
    7  A    between atoms: C_23  and  C_44
    8  A    between atoms: O_24  and  C_40
    9  A    between atoms: O_24  and  C_47
   10  A    between atoms: C_29  and  C_39
   11  A    between atoms: C_29  and  C_42
   12  A    between atoms: C_32  and  C_35
   13  A    between atoms: C_34  and  C_42
   14  A    between atoms: C_40  and  C_41
   15  A    between atoms: C_44  and  C_47
                            x       y       z     vdW  Elec       q    Type
                         _______ _______ _______ _____ _____    ______ ____

>  <TORSDO>
F 15

$$$$
=
 OpenBabel11032420533D

 47 52  0  0  1  0  0  0  0  0999 V2000
  190.8170  177.2680  138.9970 C   0  0  1  0  0  3  0  0  0  0  0  0
  190.0720  176.3510  140.8750 O   0  0  0  0  0  0  0  0  0  0  0  0
  189.3390  177.5700  138.6810 C   0  0  1  0  0  3  0  0  0  0  0  0
  188.9790  177.2110  141.1510 C   0  0  2  0  0  3  0  0  0  0  0  0
  191.0560  177.1000  140.3860 O   0  0  0  0  0  0  0  0  0  0  0  0
  188.6560  178.0960  139.9450 C   0  0  0  0  0  2  0  0  0  0  0  0
  192.2910  174.1860  136.0500 C   0  0  1  0  0  3  0  0  0  0  0  0
  190.4010  175.1530  137.5000 C   0  0  0  0  0  2  0  0  0  0  0  0
  192.6520  176.4490  137.3440 C   0  0  1  0  0  3  0  0  0  0  0  0
  191.0680  173.9000  136.9330 C   0  0  0  0  0  2  0  0  0  0  0  0
  191.3930  176.1280  138.1470 C   0  0  1  0  0  0  0  0  0  0  0  0
  192.7410  175.5820  138.6030 C   0  0  0  0  0  2  0  0  0  0  0  0
  192.7240  175.6600  136.0180 C   0  0  0  0  0  2  0  0  0  0  0  0
  193.4640  173.3160  136.4730 C   0  0  0  0  0  2  0  0  0  0  0  0
  195.9400  173.7050  136.9370 C   0  0  1  0  0  0  0  0  0  0  0  0
  197.0710  174.7010  136.7700 C   0  0  0  0  0  1  0  0  0  0  0  0
  194.7850  173.8740  135.9510 C   0  0  1  0  0  3  0  0  0  0  0  0
  195.7940  172.7410  135.7770 C   0  0  0  0  0  2  0  0  0  0  0  0
  195.4310  171.7710  138.4360 O   0  0  0  0  0  0  0  0  0  0  0  0
  195.6900  173.1290  138.3010 C   0  0  0  0  0  0  0  0  0  0  0  0
  195.7090  173.8640  139.3240 O   0  0  0  0  0  1  0  0  0  0  0  0
  189.2360  178.6240  137.5910 C   0  0  0  0  0  2  0  0  0  0  0  0
  187.8110  178.7790  137.0560 C   0  0  0  0  0  2  0  0  0  0  0  0
  186.9220  178.2540  134.8910 O   0  0  0  0  0  1  0  0  0  0  0  0
  187.3920  177.6780  136.0770 C   0  0  2  0  0  3  0  0  0  0  0  0
  186.7450  175.5190  137.0000 C   0  0  0  0  0  2  0  0  0  0  0  0
  186.3660  176.7380  136.6410 C   0  0  0  0  0  0  0  0  0  0  0  0
  184.3700  177.3020  138.0630 N   0  0  0  0  0  0  0  0  0  0  0  0
  184.9820  178.2740  138.9610 C   0  0  0  0  0  2  0  0  0  0  0  0
  182.7060  179.2040  139.3320 C   0  0  0  0  0  2  0  0  0  0  0  0
  184.2330  177.2690  135.7260 O   0  0  0  0  0  0  0  0  0  0  0  0
  184.1430  179.5450  138.9380 C   0  0  0  0  0  2  0  0  0  0  0  0
  182.1060  178.1650  138.3720 C   0  0  1  0  0  3  0  0  0  0  0  0
  182.9920  176.9140  138.3430 C   0  0  0  0  0  2  0  0  0  0  0  0
  184.9430  177.1110  136.7630 C   0  0  0  0  0  0  0  0  0  0  0  0
  180.6890  177.7980  138.8040 C   0  0  0  0  0  3  0  0  0  0  0  0
  180.7120  176.6250  139.5630 O   0  0  0  0  0  1  0  0  0  0  0  0
  180.1400  178.8280  139.5670 O   0  0  0  0  0  1  0  0  0  0  0  0
  189.2510  178.0910  142.3730 C   0  0  0  0  0  2  0  0  0  0  0  0
  187.8600  176.5720  143.6020 O   0  0  0  0  0  0  0  0  0  0  0  0
  188.6600  177.5430  143.6370 C   0  0  0  0  0  0  0  0  0  0  0  0
  189.0990  178.0610  144.8580 O   0  0  0  0  0  0  0  0  0  0  0  0
  190.3000  177.6300  145.4930 C   0  0  0  0  0  2  0  0  0  0  0  0
  190.9560  176.3270  147.5380 O   0  0  0  0  0  1  0  0  0  0  0  0
  188.5700  176.8340  147.2780 C   0  0  0  0  0  2  0  0  0  0  0  0
  190.0070  177.1060  146.8910 C   0  0  0  0  0  0  0  0  0  0  0  0
  189.2920  178.0700  147.8010 C   0  0  0  0  0  2  0  0  0  0  0  0
  1  5  1  1  0  0  0
  2  4  1  0  0  0  0
  3 22  1  6  0  0  0
  3  1  1  0  0  0  0
  3  6  1  0  0  0  0
  4 39  1  1  0  0  0
  5  2  1  0  0  0  0
  6  4  1  0  0  0  0
  7 14  1  1  0  0  0
  7 10  1  0  0  0  0
  9 13  1  6  0  0  0
  9 11  1  0  0  0  0
  9 12  1  0  0  0  0
 10  8  1  0  0  0  0
 11  8  1  6  0  0  0
 11 12  1  0  0  0  0
 11  1  1  0  0  0  0
 13  7  1  0  0  0  0
 15 16  1  6  0  0  0
 15 20  1  0  0  0  0
 17 14  1  1  0  0  0
 17 15  1  0  0  0  0
 18 17  1  0  0  0  0
 18 15  1  0  0  0  0
 20 19  2  0  0  0  0
 20 21  1  0  0  0  0
 23 22  1  0  0  0  0
 25 24  1  6  0  0  0
 25 27  1  0  0  0  0
 25 23  1  0  0  0  0
 27 35  1  0  0  0  0
 27 26  2  0  0  0  0
 28 34  1  0  0  0  0
 28 29  1  0  0  0  0
 31 35  2  0  0  0  0
 32 29  1  0  0  0  0
 32 30  1  0  0  0  0
 33 36  1  1  0  0  0
 33 30  1  0  0  0  0
 34 33  1  0  0  0  0
 35 28  1  0  0  0  0
 36 37  1  0  0  0  0
 36 38  1  0  0  0  0
 39 41  1  0  0  0  0
 40 41  2  0  0  0  0
 41 42  1  0  0  0  0
 42 43  1  0  0  0  0
 43 46  1  0  0  0  0
 45 47  1  0  0  0  0
 46 45  1  0  0  0  0
 46 44  1  0  0  0  0
 46 47  1  0  0  0  0
M  END
>  <MODEL>
7

>  <REMARK>
 VINA RESULT:      -7.8      3.084      9.857
  Name = 
  15 active torsions:
  status: ('A' for Active; 'I' for Inactive)
    1  A    between atoms: C_1  and  C_30
    2  A    between atoms: C_4  and  C_32
    3  A    between atoms: C_8  and  C_18
    4  A    between atoms: C_10  and  C_22
    5  A    between atoms: C_15  and  C_19
    6  A    between atoms: C_15  and  C_34
    7  A    between atoms: C_23  and  C_44
    8  A    between atoms: O_24  and  C_40
    9  A    between atoms: O_24  and  C_47
   10  A    between atoms: C_29  and  C_39
   11  A    between atoms: C_29  and  C_42
   12  A    between atoms: C_32  and  C_35
   13  A    between atoms: C_34  and  C_42
   14  A    between atoms: C_40  and  C_41
   15  A    between atoms: C_44  and  C_47
                            x       y       z     vdW  Elec       q    Type
                         _______ _______ _______ _____ _____    ______ ____

>  <TORSDO>
F 15

$$$$
=
 OpenBabel11032420533D

 47 52  0  0  1  0  0  0  0  0999 V2000
  184.0870  179.4370  143.3350 C   0  0  1  0  0  3  0  0  0  0  0  0
  182.2270  178.7440  144.3270 O   0  0  0  0  0  0  0  0  0  0  0  0
  183.7050  178.4840  142.1850 C   0  0  1  0  0  3  0  0  0  0  0  0
  181.3950  178.5710  143.1910 C   0  0  2  0  0  3  0  0  0  0  0  0
  182.9680  179.8280  144.1170 O   0  0  0  0  0  0  0  0  0  0  0  0
  182.2100  178.6260  141.8970 C   0  0  0  0  0  2  0  0  0  0  0  0
  187.2180  177.4480  145.9040 C   0  0  1  0  0  3  0  0  0  0  0  0
  185.0420  178.8010  145.6960 C   0  0  0  0  0  2  0  0  0  0  0  0
  186.1450  177.8560  143.5360 C   0  0  1  0  0  3  0  0  0  0  0  0
  186.3360  178.5680  146.4750 C   0  0  0  0  0  2  0  0  0  0  0  0
  185.2580  178.9190  144.1820 C   0  0  1  0  0  0  0  0  0  0  0  0
  186.6480  179.2950  143.6830 C   0  0  0  0  0  2  0  0  0  0  0  0
  186.7260  176.8670  144.5690 C   0  0  0  0  0  2  0  0  0  0  0  0
  188.6540  177.9270  145.7570 C   0  0  0  0  0  2  0  0  0  0  0  0
  190.5560  177.0840  144.2850 C   0  0  1  0  0  0  0  0  0  0  0  0
  191.0770  175.8710  143.5400 C   0  0  0  0  0  1  0  0  0  0  0  0
  189.5940  176.7700  145.4300 C   0  0  1  0  0  3  0  0  0  0  0  0
  191.0370  177.1780  145.7190 C   0  0  0  0  0  2  0  0  0  0  0  0
  191.1720  179.4880  143.9870 O   0  0  0  0  0  1  0  0  0  0  0  0
  190.4500  178.3870  143.5460 C   0  0  0  0  0  0  0  0  0  0  0  0
  189.7100  178.4930  142.5310 O   0  0  0  0  0  0  0  0  0  0  0  0
  184.4840  178.8350  140.9280 C   0  0  0  0  0  2  0  0  0  0  0  0
  184.3130  177.7920  139.8210 C   0  0  0  0  0  2  0  0  0  0  0  0
  183.0750  178.2780  137.8250 O   0  0  0  0  0  1  0  0  0  0  0  0
  184.3450  178.3780  138.4060 C   0  0  2  0  0  3  0  0  0  0  0  0
  184.9710  177.0900  136.4360 C   0  0  0  0  0  2  0  0  0  0  0  0
  185.3750  177.7380  137.5200 C   0  0  0  0  0  0  0  0  0  0  0  0
  187.6920  176.7990  137.2530 N   0  0  0  0  0  0  0  0  0  0  0  0
  187.7430  176.6940  135.8010 C   0  0  0  0  0  2  0  0  0  0  0  0
  190.2200  176.7970  135.9870 C   0  0  0  0  0  2  0  0  0  0  0  0
  187.2750  178.6480  138.6280 O   0  0  0  0  0  0  0  0  0  0  0  0
  188.9950  177.4100  135.3090 C   0  0  0  0  0  2  0  0  0  0  0  0
  190.1180  176.9140  137.5150 C   0  0  1  0  0  3  0  0  0  0  0  0
  188.8220  176.2550  138.0000 C   0  0  0  0  0  2  0  0  0  0  0  0
  186.8150  177.7680  137.8430 C   0  0  0  0  0  0  0  0  0  0  0  0
  191.3250  176.2570  138.1810 C   0  0  0  0  0  3  0  0  0  0  0  0
  191.5330  176.8130  139.4450 O   0  0  0  0  0  1  0  0  0  0  0  0
  191.1090  174.8850  138.3130 O   0  0  0  0  0  1  0  0  0  0  0  0
  180.2860  179.6240  143.1420 C   0  0  0  0  0  2  0  0  0  0  0  0
  178.9530  178.9740  141.2560 O   0  0  0  0  0  0  0  0  0  0  0  0
  179.7260  179.8270  141.7660 C   0  0  0  0  0  0  0  0  0  0  0  0
  179.9940  181.0290  141.1070 O   0  0  0  0  0  0  0  0  0  0  0  0
  179.4570  181.3430  139.8250 C   0  0  0  0  0  2  0  0  0  0  0  0
  181.8330  180.9290  139.1230 O   0  0  0  0  0  1  0  0  0  0  0  0
  180.4760  182.3260  137.6320 C   0  0  0  0  0  2  0  0  0  0  0  0
  180.5530  181.3320  138.7690 C   0  0  0  0  0  0  0  0  0  0  0  0
  180.1260  180.8610  137.4040 C   0  0  0  0  0  2  0  0  0  0  0  0
  1  5  1  1  0  0  0
  1 11  1  0  0  0  0
  3 22  1  6  0  0  0
  3  1  1  0  0  0  0
  4 39  1  6  0  0  0
  4  2  1  0  0  0  0
  5  2  1  0  0  0  0
  6  3  1  0  0  0  0
  6  4  1  0  0  0  0
  7 14  1  6  0  0  0
  7 10  1  0  0  0  0
  8 10  1  0  0  0  0
  9 12  1  1  0  0  0
  9 11  1  0  0  0  0
  9 13  1  0  0  0  0
 11 12  1  6  0  0  0
 11  8  1  0  0  0  0
 13  7  1  0  0  0  0
 15 16  1  6  0  0  0
 15 17  1  0  0  0  0
 15 18  1  0  0  0  0
 17 18  1  0  0  0  0
 17 14  1  1  0  0  0
 20 19  1  0  0  0  0
 20 15  1  0  0  0  0
 21 20  2  0  0  0  0
 23 22  1  0  0  0  0
 25 24  1  6  0  0  0
 25 23  1  0  0  0  0
 26 27  2  0  0  0  0
 27 35  1  0  0  0  0
 27 25  1  0  0  0  0
 28 35  1  0  0  0  0
 28 34  1  0  0  0  0
 29 28  1  0  0  0  0
 30 33  1  0  0  0  0
 32 29  1  0  0  0  0
 32 30  1  0  0  0  0
 33 34  1  0  0  0  0
 33 36  1  1  0  0  0
 35 31  2  0  0  0  0
 36 38  1  0  0  0  0
 36 37  1  0  0  0  0
 40 41  2  0  0  0  0
 41 39  1  0  0  0  0
 42 41  1  0  0  0  0
 43 42  1  0  0  0  0
 45 46  1  0  0  0  0
 46 44  1  0  0  0  0
 46 43  1  0  0  0  0
 47 45  1  0  0  0  0
 47 46  1  0  0  0  0
M  END
>  <MODEL>
8

>  <REMARK>
 VINA RESULT:      -7.8      2.354      8.250
  Name = 
  15 active torsions:
  status: ('A' for Active; 'I' for Inactive)
    1  A    between atoms: C_1  and  C_30
    2  A    between atoms: C_4  and  C_32
    3  A    between atoms: C_8  and  C_18
    4  A    between atoms: C_10  and  C_22
    5  A    between atoms: C_15  and  C_19
    6  A    between atoms: C_15  and  C_34
    7  A    between atoms: C_23  and  C_44
    8  A    between atoms: O_24  and  C_40
    9  A    between atoms: O_24  and  C_47
   10  A    between atoms: C_29  and  C_39
   11  A    between atoms: C_29  and  C_42
   12  A    between atoms: C_32  and  C_35
   13  A    between atoms: C_34  and  C_42
   14  A    between atoms: C_40  and  C_41
   15  A    between atoms: C_44  and  C_47
                            x       y       z     vdW  Elec       q    Type
                         _______ _______ _______ _____ _____    ______ ____

>  <TORSDO>
F 15

$$$$
=
 OpenBabel11032420533D

 47 52  0  0  1  0  0  0  0  0999 V2000
  190.1500  177.1200  137.2780 C   0  0  1  0  0  3  0  0  0  0  0  0
  190.7780  175.2810  136.2050 O   0  0  0  0  0  0  0  0  0  0  0  0
  190.4460  176.3390  138.5740 C   0  0  1  0  0  3  0  0  0  0  0  0
  191.7990  174.8260  137.0780 C   0  0  2  0  0  3  0  0  0  0  0  0
  190.8560  176.6080  136.1570 O   0  0  0  0  0  0  0  0  0  0  0  0
  191.7650  175.5810  138.4090 C   0  0  0  0  0  2  0  0  0  0  0  0
  185.7510  177.1150  136.2710 C   0  0  1  0  0  3  0  0  0  0  0  0
  188.1980  177.4410  135.5520 C   0  0  0  0  0  2  0  0  0  0  0  0
  187.7010  176.5420  137.9430 C   0  0  1  0  0  3  0  0  0  0  0  0
  186.7490  177.9050  135.4100 C   0  0  0  0  0  2  0  0  0  0  0  0
  188.6480  177.2950  137.0120 C   0  0  1  0  0  0  0  0  0  0  0  0
  187.8750  178.0570  138.0800 C   0  0  0  0  0  2  0  0  0  0  0  0
  186.3980  176.1090  137.2360 C   0  0  0  0  0  2  0  0  0  0  0  0
  184.8540  178.0660  137.0460 C   0  0  0  0  0  2  0  0  0  0  0  0
  183.5400  178.0440  139.2300 C   0  0  1  0  0  0  0  0  0  0  0  0
  183.0870  177.1560  140.3730 C   0  0  0  0  0  1  0  0  0  0  0  0
  183.8760  177.3030  137.9370 C   0  0  1  0  0  3  0  0  0  0  0  0
  182.5720  178.0870  138.0650 C   0  0  0  0  0  2  0  0  0  0  0  0
  183.6910  180.5350  139.0940 O   0  0  0  0  0  0  0  0  0  0  0  0
  184.2240  179.3400  139.5580 C   0  0  0  0  0  0  0  0  0  0  0  0
  185.2790  179.3540  140.2470 O   0  0  0  0  0  1  0  0  0  0  0  0
  190.5720  177.2950  139.7490 C   0  0  0  0  0  2  0  0  0  0  0  0
  189.8310  176.7980  140.9930 C   0  0  0  0  0  2  0  0  0  0  0  0
  190.4410  175.2670  142.7350 O   0  0  0  0  0  1  0  0  0  0  0  0
  190.7450  176.5200  142.1900 C   0  0  2  0  0  3  0  0  0  0  0  0
  191.8000  177.9950  143.8160 C   0  0  0  0  0  2  0  0  0  0  0  0
  190.6740  177.5800  143.2510 C   0  0  0  0  0  0  0  0  0  0  0  0
  188.5790  177.3850  144.6290 N   0  0  0  0  0  0  0  0  0  0  0  0
  189.1620  176.9540  145.8920 C   0  0  0  0  0  2  0  0  0  0  0  0
  187.1440  177.8760  147.0140 C   0  0  0  0  0  2  0  0  0  0  0  0
  189.0120  179.2820  143.3250 O   0  0  0  0  0  0  0  0  0  0  0  0
  188.6720  177.8880  146.9920 C   0  0  0  0  0  2  0  0  0  0  0  0
  186.5720  178.3200  145.6600 C   0  0  1  0  0  3  0  0  0  0  0  0
  187.1230  177.4220  144.5450 C   0  0  0  0  0  2  0  0  0  0  0  0
  189.3910  178.1390  143.7180 C   0  0  0  0  0  0  0  0  0  0  0  0
  185.0460  178.2580  145.6800 C   0  0  0  0  0  3  0  0  0  0  0  0
  184.5720  178.6240  146.9420 O   0  0  0  0  0  1  0  0  0  0  0  0
  184.5200  179.1250  144.7230 O   0  0  0  0  0  1  0  0  0  0  0  0
  193.1850  174.9700  136.4450 C   0  0  0  0  0  2  0  0  0  0  0  0
  193.3070  172.5750  136.4450 O   0  0  0  0  0  0  0  0  0  0  0  0
  193.9200  173.6690  136.3320 C   0  0  0  0  0  0  0  0  0  0  0  0
  195.2750  173.6940  135.9930 O   0  0  0  0  0  0  0  0  0  0  0  0
  196.0900  174.8520  136.1550 C   0  0  0  0  0  2  0  0  0  0  0  0
  198.0590  175.6220  137.5110 O   0  0  0  0  0  1  0  0  0  0  0  0
  197.6210  173.2090  137.4830 C   0  0  0  0  0  2  0  0  0  0  0  0
  197.1400  174.6200  137.2310 C   0  0  0  0  0  0  0  0  0  0  0  0
  196.6570  173.8820  138.4520 C   0  0  0  0  0  2  0  0  0  0  0  0
  1  5  1  6  0  0  0
  1  3  1  0  0  0  0
  2  4  1  0  0  0  0
  3 22  1  1  0  0  0
  4 39  1  6  0  0  0
  4  6  1  0  0  0  0
  5  2  1  0  0  0  0
  6  3  1  0  0  0  0
  7 14  1  1  0  0  0
  7 13  1  0  0  0  0
  9 13  1  6  0  0  0
  9 12  1  0  0  0  0
 10  8  1  0  0  0  0
 10  7  1  0  0  0  0
 11  8  1  6  0  0  0
 11  1  1  0  0  0  0
 11  9  1  0  0  0  0
 11 12  1  0  0  0  0
 15 20  1  0  0  0  0
 15 16  1  1  0  0  0
 17 14  1  6  0  0  0
 17 18  1  0  0  0  0
 17 15  1  0  0  0  0
 18 15  1  0  0  0  0
 19 20  2  0  0  0  0
 20 21  1  0  0  0  0
 22 23  1  0  0  0  0
 23 25  1  0  0  0  0
 25 24  1  1  0  0  0
 25 27  1  0  0  0  0
 27 35  1  0  0  0  0
 27 26  2  0  0  0  0
 28 29  1  0  0  0  0
 29 32  1  0  0  0  0
 31 35  2  0  0  0  0
 32 30  1  0  0  0  0
 33 36  1  1  0  0  0
 33 30  1  0  0  0  0
 34 28  1  0  0  0  0
 34 33  1  0  0  0  0
 35 28  1  0  0  0  0
 36 37  1  0  0  0  0
 38 36  1  0  0  0  0
 41 39  1  0  0  0  0
 41 40  2  0  0  0  0
 42 43  1  0  0  0  0
 42 41  1  0  0  0  0
 43 46  1  0  0  0  0
 45 47  1  0  0  0  0
 46 45  1  0  0  0  0
 46 44  1  0  0  0  0
 46 47  1  0  0  0  0
M  END
>  <MODEL>
9

>  <REMARK>
 VINA RESULT:      -7.7      2.985      8.961
  Name = 
  15 active torsions:
  status: ('A' for Active; 'I' for Inactive)
    1  A    between atoms: C_1  and  C_30
    2  A    between atoms: C_4  and  C_32
    3  A    between atoms: C_8  and  C_18
    4  A    between atoms: C_10  and  C_22
    5  A    between atoms: C_15  and  C_19
    6  A    between atoms: C_15  and  C_34
    7  A    between atoms: C_23  and  C_44
    8  A    between atoms: O_24  and  C_40
    9  A    between atoms: O_24  and  C_47
   10  A    between atoms: C_29  and  C_39
   11  A    between atoms: C_29  and  C_42
   12  A    between atoms: C_32  and  C_35
   13  A    between atoms: C_34  and  C_42
   14  A    between atoms: C_40  and  C_41
   15  A    between atoms: C_44  and  C_47
                            x       y       z     vdW  Elec       q    Type
                         _______ _______ _______ _____ _____    ______ ____

>  <TORSDO>
F 15

$$$$
