=
 OpenBabel11032421283D

 34 37  0  0  1  0  0  0  0  0999 V2000
  189.6290  177.1000  143.8760 C   0  0  0  0  0  0  0  0  0  0  0  0
  190.7080  176.9840  141.6220 C   0  0  0  0  0  3  0  0  0  0  0  0
  190.3270  176.8480  146.1070 C   0  0  0  0  0  0  0  0  0  0  0  0
  188.5240  177.4130  142.0640 C   0  0  0  0  0  0  0  0  0  0  0  0
  188.5080  177.4980  140.3910 S   0  0  0  0  0  0  0  0  0  0  0  0
  188.9890  177.1030  146.5490 C   0  0  0  0  0  0  0  0  0  0  0  0
  189.7320  177.1410  142.5420 N   0  0  0  0  0  0  0  0  0  0  0  0
  190.1840  177.1420  140.3320 C   0  0  0  0  0  0  0  0  0  0  0  0
  187.9770  177.3580  145.5960 C   0  0  0  0  0  3  0  0  0  0  0  0
  188.3300  177.3510  144.2550 C   0  0  0  0  0  0  0  0  0  0  0  0
  187.5970  177.5590  143.0830 C   0  0  0  0  0  0  0  0  0  0  0  0
  190.6160  176.8530  144.7680 N   0  0  0  0  0  0  0  0  0  0  0  0
  191.4300  176.5750  147.0540 C   0  0  0  0  0  0  0  0  0  0  0  0
  192.2310  175.4080  146.8920 N   0  0  0  0  0  1  0  0  0  0  0  0
  191.6790  177.3570  148.0090 O   0  0  0  0  0  0  0  0  0  0  0  0
  188.2750  178.2640  148.6190 C   0  0  0  0  0  1  0  0  0  0  0  0
  188.6850  177.0990  147.9160 O   0  0  0  0  0  0  0  0  0  0  0  0
  190.9870  177.0840  139.0820 C   0  0  0  0  0  2  0  0  0  0  0  0
  191.1040  175.7030  138.6400 N   0  0  0  0  0  2  0  0  0  0  0  0
  189.2890  175.9060  136.9840 C   0  0  0  0  0  3  0  0  0  0  0  0
  190.2760  175.1390  137.6210 C   0  0  0  0  0  0  0  0  0  0  0  0
  190.4490  173.8370  137.2670 N   0  0  0  0  0  0  0  0  0  0  0  0
  188.6970  173.9830  135.6480 C   0  0  0  0  0  3  0  0  0  0  0  0
  189.6880  173.2490  136.3030 C   0  0  0  0  0  3  0  0  0  0  0  0
  188.5000  175.3200  135.9940 C   0  0  0  0  0  3  0  0  0  0  0  0
  186.2070  177.8470  142.9320 N   0  0  0  0  0  2  0  0  0  0  0  0
  185.7110  179.1570  142.5440 C   0  0  0  0  0  2  0  0  0  0  0  0
  184.9240  179.7800  143.6870 C   0  0  0  0  0  2  0  0  0  0  0  0
  184.4300  178.6270  145.8190 C   0  0  0  0  0  1  0  0  0  0  0  0
  184.0310  178.7500  144.3610 C   0  0  1  0  0  3  0  0  0  0  0  0
  182.3810  178.5330  142.0330 O   0  0  0  0  0  0  0  0  0  0  0  0
  182.6380  179.1640  144.2680 N   0  0  0  0  0  2  0  0  0  0  0  0
  180.4500  179.4640  143.0570 C   0  0  0  0  0  1  0  0  0  0  0  0
  181.8690  179.0230  143.0740 C   0  0  0  0  0  0  0  0  0  0  0  0
  1 10  2  0  0  0  0
  1 12  1  0  0  0  0
  2  7  1  0  0  0  0
  3  6  1  0  0  0  0
  3 13  1  0  0  0  0
  4  7  1  0  0  0  0
  4 11  2  0  0  0  0
  5  4  1  0  0  0  0
  6 17  1  0  0  0  0
  7  1  1  0  0  0  0
  8  5  1  0  0  0  0
  8  2  2  0  0  0  0
  9  6  2  0  0  0  0
 10  9  1  0  0  0  0
 11 10  1  0  0  0  0
 12  3  2  0  0  0  0
 13 15  2  0  0  0  0
 14 13  1  0  0  0  0
 17 16  1  0  0  0  0
 18  8  1  0  0  0  0
 19 18  1  0  0  0  0
 20 21  1  0  0  0  0
 21 19  1  0  0  0  0
 22 21  2  0  0  0  0
 23 25  1  0  0  0  0
 23 24  2  0  0  0  0
 24 22  1  0  0  0  0
 25 20  2  0  0  0  0
 26 11  1  0  0  0  0
 27 26  1  0  0  0  0
 27 28  1  0  0  0  0
 28 30  1  0  0  0  0
 30 29  1  1  0  0  0
 31 34  2  0  0  0  0
 32 30  1  0  0  0  0
 33 34  1  0  0  0  0
 34 32  1  0  0  0  0
M  END
>  <MODEL>
1

>  <REMARK>
 VINA RESULT:      -8.5      0.000      0.000
  Name = 
  9 active torsions:
  status: ('A' for Active; 'I' for Inactive)
    1  A    between atoms: N_1  and  C_23
    2  A    between atoms: C_2  and  C_15
    3  A    between atoms: C_2  and  N_31
    4  A    between atoms: C_3  and  C_11
    5  A    between atoms: N_7  and  C_26
    6  A    between atoms: C_15  and  C_26
    7  A    between atoms: C_21  and  O_33
    8  A    between atoms: C_23  and  C_27
    9  A    between atoms: N_31  and  C_32
                            x       y       z     vdW  Elec       q    Type
                         _______ _______ _______ _____ _____    ______ ____

>  <TORSDO>
F 9

$$$$
=
 OpenBabel11032421283D

 34 37  0  0  1  0  0  0  0  0999 V2000
  187.4890  178.2370  140.4740 C   0  0  0  0  0  0  0  0  0  0  0  0
  189.2240  177.5820  138.7950 C   0  0  0  0  0  3  0  0  0  0  0  0
  185.2650  178.9950  140.4090 C   0  0  0  0  0  0  0  0  0  0  0  0
  189.4510  177.5900  141.0530 C   0  0  0  0  0  0  0  0  0  0  0  0
  190.9740  177.0520  140.6060 S   0  0  0  0  0  0  0  0  0  0  0  0
  185.2490  179.0540  141.8400 C   0  0  0  0  0  0  0  0  0  0  0  0
  188.6700  177.8170  140.0040 N   0  0  0  0  0  0  0  0  0  0  0  0
  190.5480  177.1480  138.9480 C   0  0  0  0  0  0  0  0  0  0  0  0
  186.4040  178.6860  142.5660 C   0  0  0  0  0  3  0  0  0  0  0  0
  187.5190  178.2770  141.8490 C   0  0  0  0  0  0  0  0  0  0  0  0
  188.7930  177.8560  142.2420 C   0  0  0  0  0  0  0  0  0  0  0  0
  186.3960  178.5830  139.7560 N   0  0  0  0  0  0  0  0  0  0  0  0
  184.0880  179.3660  139.5930 C   0  0  0  0  0  0  0  0  0  0  0  0
  182.9860  178.4690  139.4920 N   0  0  0  0  0  1  0  0  0  0  0  0
  184.0370  180.4660  138.9820 O   0  0  0  0  0  0  0  0  0  0  0  0
  183.4760  178.7050  143.5370 C   0  0  0  0  0  1  0  0  0  0  0  0
  184.0950  179.4740  142.5160 O   0  0  0  0  0  0  0  0  0  0  0  0
  191.4400  176.7520  137.8270 C   0  0  0  0  0  2  0  0  0  0  0  0
  192.7940  176.5620  138.3240 N   0  0  0  0  0  2  0  0  0  0  0  0
  193.0720  174.3800  137.2120 C   0  0  0  0  0  3  0  0  0  0  0  0
  193.5800  175.4070  138.0210 C   0  0  0  0  0  0  0  0  0  0  0  0
  194.8380  175.3060  138.5270 N   0  0  0  0  0  0  0  0  0  0  0  0
  195.1570  173.1870  137.4690 C   0  0  0  0  0  3  0  0  0  0  0  0
  195.6300  174.2290  138.2710 C   0  0  0  0  0  3  0  0  0  0  0  0
  193.8700  173.2680  136.9390 C   0  0  0  0  0  3  0  0  0  0  0  0
  189.3310  177.7290  143.5590 N   0  0  0  0  0  2  0  0  0  0  0  0
  188.8980  176.7000  144.4900 C   0  0  0  0  0  2  0  0  0  0  0  0
  188.1580  177.3290  145.6600 C   0  0  0  0  0  2  0  0  0  0  0  0
  188.3380  178.2060  147.9650 C   0  0  0  0  0  1  0  0  0  0  0  0
  189.1270  177.7810  146.7420 C   0  0  1  0  0  3  0  0  0  0  0  0
  191.8640  177.5520  145.9420 O   0  0  0  0  0  0  0  0  0  0  0  0
  190.0230  176.6880  147.0930 N   0  0  0  0  0  2  0  0  0  0  0  0
  192.2400  175.4930  147.0660 C   0  0  0  0  0  1  0  0  0  0  0  0
  191.3840  176.6380  146.6630 C   0  0  0  0  0  0  0  0  0  0  0  0
  1 10  1  0  0  0  0
  2  8  2  0  0  0  0
  2  7  1  0  0  0  0
  3  6  2  0  0  0  0
  4 11  2  0  0  0  0
  5  4  1  0  0  0  0
  6 17  1  0  0  0  0
  6  9  1  0  0  0  0
  7  1  1  0  0  0  0
  7  4  1  0  0  0  0
  8  5  1  0  0  0  0
 10 11  1  0  0  0  0
 10  9  2  0  0  0  0
 11 26  1  0  0  0  0
 12  3  1  0  0  0  0
 12  1  2  0  0  0  0
 13  3  1  0  0  0  0
 14 13  1  0  0  0  0
 15 13  2  0  0  0  0
 17 16  1  0  0  0  0
 18 19  1  0  0  0  0
 18  8  1  0  0  0  0
 20 21  1  0  0  0  0
 21 19  1  0  0  0  0
 21 22  2  0  0  0  0
 23 24  2  0  0  0  0
 24 22  1  0  0  0  0
 25 20  2  0  0  0  0
 25 23  1  0  0  0  0
 26 27  1  0  0  0  0
 27 28  1  0  0  0  0
 28 30  1  0  0  0  0
 30 32  1  0  0  0  0
 30 29  1  1  0  0  0
 31 34  2  0  0  0  0
 34 33  1  0  0  0  0
 34 32  1  0  0  0  0
M  END
>  <MODEL>
2

>  <REMARK>
 VINA RESULT:      -8.5      2.579      6.583
  Name = 
  9 active torsions:
  status: ('A' for Active; 'I' for Inactive)
    1  A    between atoms: N_1  and  C_23
    2  A    between atoms: C_2  and  C_15
    3  A    between atoms: C_2  and  N_31
    4  A    between atoms: C_3  and  C_11
    5  A    between atoms: N_7  and  C_26
    6  A    between atoms: C_15  and  C_26
    7  A    between atoms: C_21  and  O_33
    8  A    between atoms: C_23  and  C_27
    9  A    between atoms: N_31  and  C_32
                            x       y       z     vdW  Elec       q    Type
                         _______ _______ _______ _____ _____    ______ ____

>  <TORSDO>
F 9

$$$$
=
 OpenBabel11032421283D

 34 37  0  0  1  0  0  0  0  0999 V2000
  189.6770  177.0860  143.8960 C   0  0  0  0  0  0  0  0  0  0  0  0
  190.7710  176.9540  141.6500 C   0  0  0  0  0  3  0  0  0  0  0  0
  190.3620  176.8550  146.1340 C   0  0  0  0  0  0  0  0  0  0  0  0
  188.5830  177.3810  142.0740 C   0  0  0  0  0  0  0  0  0  0  0  0
  188.5780  177.4520  140.4000 S   0  0  0  0  0  0  0  0  0  0  0  0
  189.0200  177.1100  146.5640 C   0  0  0  0  0  0  0  0  0  0  0  0
  189.7890  177.1170  142.5630 N   0  0  0  0  0  0  0  0  0  0  0  0
  190.2550  177.1010  140.3550 C   0  0  0  0  0  0  0  0  0  0  0  0
  188.0130  177.3540  145.6030 C   0  0  0  0  0  3  0  0  0  0  0  0
  188.3760  177.3370  144.2640 C   0  0  0  0  0  0  0  0  0  0  0  0
  187.6500  177.5330  143.0860 C   0  0  0  0  0  0  0  0  0  0  0  0
  190.6600  176.8500  144.7960 N   0  0  0  0  0  0  0  0  0  0  0  0
  191.4590  176.5930  147.0900 C   0  0  0  0  0  0  0  0  0  0  0  0
  192.2590  175.4230  146.9470 N   0  0  0  0  0  1  0  0  0  0  0  0
  191.7050  177.3880  148.0360 O   0  0  0  0  0  0  0  0  0  0  0  0
  188.1770  178.2550  148.5950 C   0  0  0  0  0  1  0  0  0  0  0  0
  188.7070  177.1170  147.9300 O   0  0  0  0  0  0  0  0  0  0  0  0
  191.0660  177.0340  139.1110 C   0  0  0  0  0  2  0  0  0  0  0  0
  190.7590  175.8080  138.3930 N   0  0  0  0  0  2  0  0  0  0  0  0
  193.1000  175.4190  137.7250 C   0  0  0  0  0  3  0  0  0  0  0  0
  191.7530  175.0290  137.7210 C   0  0  0  0  0  0  0  0  0  0  0  0
  191.3820  173.8940  137.0700 N   0  0  0  0  0  0  0  0  0  0  0  0
  193.6370  173.4730  136.3990 C   0  0  0  0  0  3  0  0  0  0  0  0
  192.2870  173.1150  136.4150 C   0  0  0  0  0  3  0  0  0  0  0  0
  194.0420  174.6330  137.0600 C   0  0  0  0  0  3  0  0  0  0  0  0
  186.2590  177.8150  142.9240 N   0  0  0  0  0  2  0  0  0  0  0  0
  185.7620  179.1220  142.5230 C   0  0  0  0  0  2  0  0  0  0  0  0
  184.9570  179.7460  143.6510 C   0  0  0  0  0  2  0  0  0  0  0  0
  184.4960  178.5990  145.7940 C   0  0  0  0  0  1  0  0  0  0  0  0
  184.0830  178.7090  144.3390 C   0  0  1  0  0  3  0  0  0  0  0  0
  182.4510  178.5740  141.9930 O   0  0  0  0  0  0  0  0  0  0  0  0
  182.6840  179.1060  144.2560 N   0  0  0  0  0  2  0  0  0  0  0  0
  180.4990  179.4280  143.0450 C   0  0  0  0  0  1  0  0  0  0  0  0
  181.9240  179.0080  143.0510 C   0  0  0  0  0  0  0  0  0  0  0  0
  1 10  2  0  0  0  0
  1 12  1  0  0  0  0
  2  7  1  0  0  0  0
  3  6  1  0  0  0  0
  3 13  1  0  0  0  0
  4  7  1  0  0  0  0
  4 11  2  0  0  0  0
  5  4  1  0  0  0  0
  6 17  1  0  0  0  0
  7  1  1  0  0  0  0
  8  5  1  0  0  0  0
  8  2  2  0  0  0  0
  9  6  2  0  0  0  0
 10  9  1  0  0  0  0
 11 10  1  0  0  0  0
 12  3  2  0  0  0  0
 13 15  2  0  0  0  0
 14 13  1  0  0  0  0
 17 16  1  0  0  0  0
 18  8  1  0  0  0  0
 19 18  1  0  0  0  0
 21 20  1  0  0  0  0
 21 19  1  0  0  0  0
 22 21  2  0  0  0  0
 23 24  2  0  0  0  0
 23 25  1  0  0  0  0
 24 22  1  0  0  0  0
 25 20  2  0  0  0  0
 26 11  1  0  0  0  0
 27 26  1  0  0  0  0
 27 28  1  0  0  0  0
 28 30  1  0  0  0  0
 30 29  1  1  0  0  0
 31 34  2  0  0  0  0
 32 30  1  0  0  0  0
 33 34  1  0  0  0  0
 34 32  1  0  0  0  0
M  END
>  <MODEL>
3

>  <REMARK>
 VINA RESULT:      -8.5      1.196      1.563
  Name = 
  9 active torsions:
  status: ('A' for Active; 'I' for Inactive)
    1  A    between atoms: N_1  and  C_23
    2  A    between atoms: C_2  and  C_15
    3  A    between atoms: C_2  and  N_31
    4  A    between atoms: C_3  and  C_11
    5  A    between atoms: N_7  and  C_26
    6  A    between atoms: C_15  and  C_26
    7  A    between atoms: C_21  and  O_33
    8  A    between atoms: C_23  and  C_27
    9  A    between atoms: N_31  and  C_32
                            x       y       z     vdW  Elec       q    Type
                         _______ _______ _______ _____ _____    ______ ____

>  <TORSDO>
F 9

$$$$
=
 OpenBabel11032421283D

 34 37  0  0  1  0  0  0  0  0999 V2000
  187.4660  177.9000  142.0220 C   0  0  0  0  0  0  0  0  0  0  0  0
  188.1790  178.2210  139.6450 C   0  0  0  0  0  3  0  0  0  0  0  0
  185.6020  178.4880  143.3290 C   0  0  0  0  0  0  0  0  0  0  0  0
  189.3340  177.1500  141.2790 C   0  0  0  0  0  0  0  0  0  0  0  0
  190.3990  176.9690  139.9980 S   0  0  0  0  0  0  0  0  0  0  0  0
  186.2020  177.8490  144.4610 C   0  0  0  0  0  0  0  0  0  0  0  0
  188.2400  177.8170  140.9330 N   0  0  0  0  0  0  0  0  0  0  0  0
  189.3390  177.8310  138.9620 C   0  0  0  0  0  0  0  0  0  0  0  0
  187.4670  177.2330  144.3260 C   0  0  0  0  0  3  0  0  0  0  0  0
  188.0800  177.2740  143.0820 C   0  0  0  0  0  0  0  0  0  0  0  0
  189.2990  176.7780  142.6120 C   0  0  0  0  0  0  0  0  0  0  0  0
  186.2560  178.4970  142.1250 N   0  0  0  0  0  0  0  0  0  0  0  0
  184.2810  179.1490  143.4070 C   0  0  0  0  0  0  0  0  0  0  0  0
  183.2200  178.7100  142.5640 N   0  0  0  0  0  1  0  0  0  0  0  0
  184.0720  180.0970  144.2080 O   0  0  0  0  0  0  0  0  0  0  0  0
  185.8140  178.7730  146.7290 C   0  0  0  0  0  1  0  0  0  0  0  0
  185.5400  177.8360  145.6960 O   0  0  0  0  0  0  0  0  0  0  0  0
  189.5860  178.0670  137.5160 C   0  0  0  0  0  2  0  0  0  0  0  0
  189.3420  176.8420  136.7710 N   0  0  0  0  0  2  0  0  0  0  0  0
  187.0720  177.5150  136.0880 C   0  0  0  0  0  3  0  0  0  0  0  0
  188.1180  176.5820  136.0810 C   0  0  0  0  0  0  0  0  0  0  0  0
  187.9690  175.4080  135.4080 N   0  0  0  0  0  0  0  0  0  0  0  0
  185.7630  176.0160  134.7190 C   0  0  0  0  0  3  0  0  0  0  0  0
  186.8250  175.1090  134.7340 C   0  0  0  0  0  3  0  0  0  0  0  0
  185.8920  177.2260  135.4020 C   0  0  0  0  0  3  0  0  0  0  0  0
  190.3090  176.0590  143.3210 N   0  0  0  0  0  2  0  0  0  0  0  0
  191.5890  176.6480  143.6830 C   0  0  0  0  0  2  0  0  0  0  0  0
  191.4320  177.5230  144.9160 C   0  0  0  0  0  2  0  0  0  0  0  0
  192.0310  175.9010  146.6840 C   0  0  0  0  0  1  0  0  0  0  0  0
  190.9000  176.7210  146.0930 C   0  0  1  0  0  3  0  0  0  0  0  0
  188.4820  176.3190  147.5680 O   0  0  0  0  0  0  0  0  0  0  0  0
  190.3680  177.6200  147.1070 N   0  0  0  0  0  2  0  0  0  0  0  0
  188.6750  178.3190  148.8370 C   0  0  0  0  0  1  0  0  0  0  0  0
  189.1530  177.3560  147.8110 C   0  0  0  0  0  0  0  0  0  0  0  0
  1 12  2  0  0  0  0
  1 10  1  0  0  0  0
  2  7  1  0  0  0  0
  3 13  1  0  0  0  0
  3  6  2  0  0  0  0
  4 11  2  0  0  0  0
  5  4  1  0  0  0  0
  6 17  1  0  0  0  0
  7  4  1  0  0  0  0
  7  1  1  0  0  0  0
  8  2  2  0  0  0  0
  8  5  1  0  0  0  0
  9  6  1  0  0  0  0
 10  9  2  0  0  0  0
 11 10  1  0  0  0  0
 11 26  1  0  0  0  0
 12  3  1  0  0  0  0
 13 15  2  0  0  0  0
 14 13  1  0  0  0  0
 17 16  1  0  0  0  0
 18  8  1  0  0  0  0
 19 18  1  0  0  0  0
 21 20  1  0  0  0  0
 21 19  1  0  0  0  0
 22 21  2  0  0  0  0
 23 24  2  0  0  0  0
 23 25  1  0  0  0  0
 24 22  1  0  0  0  0
 25 20  2  0  0  0  0
 26 27  1  0  0  0  0
 27 28  1  0  0  0  0
 28 30  1  0  0  0  0
 30 29  1  1  0  0  0
 30 32  1  0  0  0  0
 31 34  2  0  0  0  0
 32 34  1  0  0  0  0
 34 33  1  0  0  0  0
M  END
>  <MODEL>
4

>  <REMARK>
 VINA RESULT:      -8.3      2.025      5.527
  Name = 
  9 active torsions:
  status: ('A' for Active; 'I' for Inactive)
    1  A    between atoms: N_1  and  C_23
    2  A    between atoms: C_2  and  C_15
    3  A    between atoms: C_2  and  N_31
    4  A    between atoms: C_3  and  C_11
    5  A    between atoms: N_7  and  C_26
    6  A    between atoms: C_15  and  C_26
    7  A    between atoms: C_21  and  O_33
    8  A    between atoms: C_23  and  C_27
    9  A    between atoms: N_31  and  C_32
                            x       y       z     vdW  Elec       q    Type
                         _______ _______ _______ _____ _____    ______ ____

>  <TORSDO>
F 9

$$$$
=
 OpenBabel11032421283D

 34 37  0  0  1  0  0  0  0  0999 V2000
  187.2100  178.1510  141.0030 C   0  0  0  0  0  0  0  0  0  0  0  0
  189.2450  177.6670  139.6300 C   0  0  0  0  0  3  0  0  0  0  0  0
  185.0460  178.9770  140.5980 C   0  0  0  0  0  0  0  0  0  0  0  0
  189.0140  177.3760  141.8700 C   0  0  0  0  0  0  0  0  0  0  0  0
  190.5930  176.8560  141.6660 S   0  0  0  0  0  0  0  0  0  0  0  0
  184.7440  178.8510  141.9920 C   0  0  0  0  0  0  0  0  0  0  0  0
  188.4600  177.7600  140.7260 N   0  0  0  0  0  0  0  0  0  0  0  0
  190.5100  177.1770  139.9840 C   0  0  0  0  0  0  0  0  0  0  0  0
  185.7280  178.3580  142.8780 C   0  0  0  0  0  3  0  0  0  0  0  0
  186.9630  178.0120  142.3500 C   0  0  0  0  0  0  0  0  0  0  0  0
  188.1310  177.5060  142.9280 C   0  0  0  0  0  0  0  0  0  0  0  0
  186.2850  178.6190  140.1340 N   0  0  0  0  0  0  0  0  0  0  0  0
  184.0590  179.4850  139.6210 C   0  0  0  0  0  0  0  0  0  0  0  0
  182.8250  178.7970  139.4390 N   0  0  0  0  0  1  0  0  0  0  0  0
  184.2850  180.5200  138.9420 O   0  0  0  0  0  0  0  0  0  0  0  0
  183.0920  179.0420  143.8310 C   0  0  0  0  0  1  0  0  0  0  0  0
  183.4800  179.2150  142.4750 O   0  0  0  0  0  0  0  0  0  0  0  0
  191.6080  176.9020  139.0210 C   0  0  0  0  0  2  0  0  0  0  0  0
  191.4560  175.5630  138.4760 N   0  0  0  0  0  2  0  0  0  0  0  0
  190.5640  176.3630  136.3210 C   0  0  0  0  0  3  0  0  0  0  0  0
  190.9480  175.3090  137.1640 C   0  0  0  0  0  0  0  0  0  0  0  0
  190.8360  174.0250  136.7290 N   0  0  0  0  0  0  0  0  0  0  0  0
  189.9680  174.7510  134.6240 C   0  0  0  0  0  3  0  0  0  0  0  0
  190.3590  173.7270  135.4900 C   0  0  0  0  0  3  0  0  0  0  0  0
  190.0730  176.0760  135.0470 C   0  0  0  0  0  3  0  0  0  0  0  0
  188.3930  177.1940  144.2970 N   0  0  0  0  0  2  0  0  0  0  0  0
  187.8190  177.9480  145.4000 C   0  0  0  0  0  2  0  0  0  0  0  0
  188.0790  177.2320  146.7160 C   0  0  0  0  0  2  0  0  0  0  0  0
  188.9660  178.3200  148.7530 C   0  0  0  0  0  1  0  0  0  0  0  0
  189.3340  177.7650  147.3900 C   0  0  1  0  0  3  0  0  0  0  0  0
  191.6550  177.3790  145.7630 O   0  0  0  0  0  0  0  0  0  0  0  0
  190.3080  176.6930  147.5450 N   0  0  0  0  0  2  0  0  0  0  0  0
  192.4040  175.4440  146.9210 C   0  0  0  0  0  1  0  0  0  0  0  0
  191.4500  176.5610  146.6990 C   0  0  0  0  0  0  0  0  0  0  0  0
  1 10  1  0  0  0  0
  2  8  2  0  0  0  0
  2  7  1  0  0  0  0
  3  6  2  0  0  0  0
  4 11  2  0  0  0  0
  5  4  1  0  0  0  0
  6 17  1  0  0  0  0
  6  9  1  0  0  0  0
  7  1  1  0  0  0  0
  7  4  1  0  0  0  0
  8  5  1  0  0  0  0
 10  9  2  0  0  0  0
 10 11  1  0  0  0  0
 11 26  1  0  0  0  0
 12  3  1  0  0  0  0
 12  1  2  0  0  0  0
 13  3  1  0  0  0  0
 14 13  1  0  0  0  0
 15 13  2  0  0  0  0
 17 16  1  0  0  0  0
 18  8  1  0  0  0  0
 19 18  1  0  0  0  0
 20 21  1  0  0  0  0
 21 19  1  0  0  0  0
 22 21  2  0  0  0  0
 23 25  1  0  0  0  0
 23 24  2  0  0  0  0
 24 22  1  0  0  0  0
 25 20  2  0  0  0  0
 26 27  1  0  0  0  0
 27 28  1  0  0  0  0
 28 30  1  0  0  0  0
 30 32  1  0  0  0  0
 30 29  1  1  0  0  0
 31 34  2  0  0  0  0
 34 33  1  0  0  0  0
 34 32  1  0  0  0  0
M  END
>  <MODEL>
5

>  <REMARK>
 VINA RESULT:      -8.2      1.896      6.237
  Name = 
  9 active torsions:
  status: ('A' for Active; 'I' for Inactive)
    1  A    between atoms: N_1  and  C_23
    2  A    between atoms: C_2  and  C_15
    3  A    between atoms: C_2  and  N_31
    4  A    between atoms: C_3  and  C_11
    5  A    between atoms: N_7  and  C_26
    6  A    between atoms: C_15  and  C_26
    7  A    between atoms: C_21  and  O_33
    8  A    between atoms: C_23  and  C_27
    9  A    between atoms: N_31  and  C_32
                            x       y       z     vdW  Elec       q    Type
                         _______ _______ _______ _____ _____    ______ ____

>  <TORSDO>
F 9

$$$$
=
 OpenBabel11032421283D

 34 37  0  0  1  0  0  0  0  0999 V2000
  188.0960  178.0260  139.9520 C   0  0  0  0  0  0  0  0  0  0  0  0
  189.6780  177.2450  138.1780 C   0  0  0  0  0  3  0  0  0  0  0  0
  185.8490  178.7140  140.0390 C   0  0  0  0  0  0  0  0  0  0  0  0
  190.1290  177.4950  140.3890 C   0  0  0  0  0  0  0  0  0  0  0  0
  191.6180  176.9540  139.8440 S   0  0  0  0  0  0  0  0  0  0  0  0
  185.9740  178.9220  141.4500 C   0  0  0  0  0  0  0  0  0  0  0  0
  189.2390  177.5910  139.4080 N   0  0  0  0  0  0  0  0  0  0  0  0
  191.0260  176.8640  138.2380 C   0  0  0  0  0  0  0  0  0  0  0  0
  187.2080  178.6630  142.0880 C   0  0  0  0  0  3  0  0  0  0  0  0
  188.2610  178.2100  141.3060 C   0  0  0  0  0  0  0  0  0  0  0  0
  189.5820  177.8670  141.6060 C   0  0  0  0  0  0  0  0  0  0  0  0
  186.9250  178.2650  139.3180 N   0  0  0  0  0  0  0  0  0  0  0  0
  184.5840  178.9660  139.3150 C   0  0  0  0  0  0  0  0  0  0  0  0
  183.8000  177.8680  138.8580 N   0  0  0  0  0  1  0  0  0  0  0  0
  184.1820  180.1380  139.0920 O   0  0  0  0  0  0  0  0  0  0  0  0
  183.9960  178.5070  142.8870 C   0  0  0  0  0  1  0  0  0  0  0  0
  184.8790  179.3800  142.1950 O   0  0  0  0  0  0  0  0  0  0  0  0
  191.8170  176.3770  137.0770 C   0  0  0  0  0  2  0  0  0  0  0  0
  193.2300  176.3620  137.4200 N   0  0  0  0  0  2  0  0  0  0  0  0
  193.4790  173.9480  136.9890 C   0  0  0  0  0  3  0  0  0  0  0  0
  194.0300  175.1790  137.3750 C   0  0  0  0  0  0  0  0  0  0  0  0
  195.3460  175.2500  137.7130 N   0  0  0  0  0  0  0  0  0  0  0  0
  195.6380  172.9140  137.3070 C   0  0  0  0  0  3  0  0  0  0  0  0
  196.1530  174.1550  137.6870 C   0  0  0  0  0  3  0  0  0  0  0  0
  194.2920  172.8140  136.9560 C   0  0  0  0  0  3  0  0  0  0  0  0
  190.2530  177.8930  142.8660 N   0  0  0  0  0  2  0  0  0  0  0  0
  189.8580  177.0520  143.9860 C   0  0  0  0  0  2  0  0  0  0  0  0
  189.7250  177.8890  145.2480 C   0  0  0  0  0  2  0  0  0  0  0  0
  189.9140  176.9120  147.5120 C   0  0  0  0  0  1  0  0  0  0  0  0
  188.9830  177.1260  146.3340 C   0  0  1  0  0  3  0  0  0  0  0  0
  186.4300  177.1260  145.0430 O   0  0  0  0  0  0  0  0  0  0  0  0
  187.8170  177.8840  146.7650 N   0  0  0  0  0  2  0  0  0  0  0  0
  185.4190  178.6320  146.5770 C   0  0  0  0  0  1  0  0  0  0  0  0
  186.5670  177.8350  146.0750 C   0  0  0  0  0  0  0  0  0  0  0  0
  1 10  1  0  0  0  0
  2  8  2  0  0  0  0
  2  7  1  0  0  0  0
  3  6  2  0  0  0  0
  4 11  2  0  0  0  0
  5  4  1  0  0  0  0
  6  9  1  0  0  0  0
  6 17  1  0  0  0  0
  7  1  1  0  0  0  0
  7  4  1  0  0  0  0
  8  5  1  0  0  0  0
 10 11  1  0  0  0  0
 10  9  2  0  0  0  0
 11 26  1  0  0  0  0
 12  1  2  0  0  0  0
 12  3  1  0  0  0  0
 13  3  1  0  0  0  0
 14 13  1  0  0  0  0
 15 13  2  0  0  0  0
 17 16  1  0  0  0  0
 18 19  1  0  0  0  0
 18  8  1  0  0  0  0
 20 21  1  0  0  0  0
 21 19  1  0  0  0  0
 21 22  2  0  0  0  0
 23 24  2  0  0  0  0
 24 22  1  0  0  0  0
 25 20  2  0  0  0  0
 25 23  1  0  0  0  0
 26 27  1  0  0  0  0
 27 28  1  0  0  0  0
 28 30  1  0  0  0  0
 30 32  1  0  0  0  0
 30 29  1  1  0  0  0
 31 34  2  0  0  0  0
 34 33  1  0  0  0  0
 34 32  1  0  0  0  0
M  END
>  <MODEL>
6

>  <REMARK>
 VINA RESULT:      -8.2      2.937      5.984
  Name = 
  9 active torsions:
  status: ('A' for Active; 'I' for Inactive)
    1  A    between atoms: N_1  and  C_23
    2  A    between atoms: C_2  and  C_15
    3  A    between atoms: C_2  and  N_31
    4  A    between atoms: C_3  and  C_11
    5  A    between atoms: N_7  and  C_26
    6  A    between atoms: C_15  and  C_26
    7  A    between atoms: C_21  and  O_33
    8  A    between atoms: C_23  and  C_27
    9  A    between atoms: N_31  and  C_32
                            x       y       z     vdW  Elec       q    Type
                         _______ _______ _______ _____ _____    ______ ____

>  <TORSDO>
F 9

$$$$
=
 OpenBabel11032421283D

 34 37  0  0  1  0  0  0  0  0999 V2000
  189.8370  177.0660  143.8760 C   0  0  0  0  0  0  0  0  0  0  0  0
  191.0010  176.8770  141.6690 C   0  0  0  0  0  3  0  0  0  0  0  0
  190.4150  176.7450  146.1320 C   0  0  0  0  0  0  0  0  0  0  0  0
  188.8410  177.4790  142.0210 C   0  0  0  0  0  0  0  0  0  0  0  0
  188.9050  177.5740  140.3490 S   0  0  0  0  0  0  0  0  0  0  0  0
  189.0840  177.1060  146.5180 C   0  0  0  0  0  0  0  0  0  0  0  0
  190.0010  177.1070  142.5480 N   0  0  0  0  0  0  0  0  0  0  0  0
  190.5480  177.0850  140.3590 C   0  0  0  0  0  0  0  0  0  0  0  0
  188.1380  177.4480  145.5260 C   0  0  0  0  0  3  0  0  0  0  0  0
  188.5480  177.4200  144.2010 C   0  0  0  0  0  0  0  0  0  0  0  0
  187.8860  177.6940  143.0000 C   0  0  0  0  0  0  0  0  0  0  0  0
  190.7620  176.7350  144.8070 N   0  0  0  0  0  0  0  0  0  0  0  0
  191.4500  176.3790  147.1230 C   0  0  0  0  0  0  0  0  0  0  0  0
  191.8020  177.2980  148.1520 N   0  0  0  0  0  1  0  0  0  0  0  0
  192.0310  175.2620  147.0780 O   0  0  0  0  0  0  0  0  0  0  0  0
  188.2790  178.2910  148.5410 C   0  0  0  0  0  1  0  0  0  0  0  0
  188.7220  177.1180  147.8720 O   0  0  0  0  0  0  0  0  0  0  0  0
  191.3970  176.9690  139.1440 C   0  0  0  0  0  2  0  0  0  0  0  0
  191.3790  175.5970  138.6640 N   0  0  0  0  0  2  0  0  0  0  0  0
  189.7410  176.0680  136.8830 C   0  0  0  0  0  3  0  0  0  0  0  0
  190.5710  175.1670  137.5660 C   0  0  0  0  0  0  0  0  0  0  0  0
  190.6110  173.8630  137.1790 N   0  0  0  0  0  0  0  0  0  0  0  0
  189.0270  174.2690  135.4370 C   0  0  0  0  0  3  0  0  0  0  0  0
  189.8640  173.4000  136.1400 C   0  0  0  0  0  3  0  0  0  0  0  0
  188.9680  175.6110  135.8150 C   0  0  0  0  0  3  0  0  0  0  0  0
  186.5300  178.0930  142.7930 N   0  0  0  0  0  2  0  0  0  0  0  0
  186.1320  179.0050  141.7320 C   0  0  0  0  0  2  0  0  0  0  0  0
  184.6380  178.8890  141.4750 C   0  0  0  0  0  2  0  0  0  0  0  0
  183.2030  179.4960  139.5530 C   0  0  0  0  0  1  0  0  0  0  0  0
  184.3560  178.6200  140.0050 C   0  0  1  0  0  3  0  0  0  0  0  0
  185.0620  177.3570  137.5370 O   0  0  0  0  0  0  0  0  0  0  0  0
  185.5380  178.9180  139.2090 N   0  0  0  0  0  2  0  0  0  0  0  0
  187.0530  178.6140  137.2200 C   0  0  0  0  0  1  0  0  0  0  0  0
  185.8290  178.2520  137.9800 C   0  0  0  0  0  0  0  0  0  0  0  0
  1 10  2  0  0  0  0
  1 12  1  0  0  0  0
  2  7  1  0  0  0  0
  3  6  1  0  0  0  0
  3 13  1  0  0  0  0
  4  7  1  0  0  0  0
  4 11  2  0  0  0  0
  5  8  1  0  0  0  0
  5  4  1  0  0  0  0
  6 17  1  0  0  0  0
  7  1  1  0  0  0  0
  8  2  2  0  0  0  0
  9  6  2  0  0  0  0
 10  9  1  0  0  0  0
 11 10  1  0  0  0  0
 12  3  2  0  0  0  0
 13 14  1  0  0  0  0
 15 13  2  0  0  0  0
 17 16  1  0  0  0  0
 18  8  1  0  0  0  0
 19 18  1  0  0  0  0
 20 21  1  0  0  0  0
 21 19  1  0  0  0  0
 22 21  2  0  0  0  0
 23 25  1  0  0  0  0
 23 24  2  0  0  0  0
 24 22  1  0  0  0  0
 25 20  2  0  0  0  0
 26 11  1  0  0  0  0
 27 26  1  0  0  0  0
 28 27  1  0  0  0  0
 30 29  1  6  0  0  0
 30 28  1  0  0  0  0
 31 34  2  0  0  0  0
 32 30  1  0  0  0  0
 33 34  1  0  0  0  0
 34 32  1  0  0  0  0
M  END
>  <MODEL>
7

>  <REMARK>
 VINA RESULT:      -8.1      1.887      2.786
  Name = 
  9 active torsions:
  status: ('A' for Active; 'I' for Inactive)
    1  A    between atoms: N_1  and  C_23
    2  A    between atoms: C_2  and  C_15
    3  A    between atoms: C_2  and  N_31
    4  A    between atoms: C_3  and  C_11
    5  A    between atoms: N_7  and  C_26
    6  A    between atoms: C_15  and  C_26
    7  A    between atoms: C_21  and  O_33
    8  A    between atoms: C_23  and  C_27
    9  A    between atoms: N_31  and  C_32
                            x       y       z     vdW  Elec       q    Type
                         _______ _______ _______ _____ _____    ______ ____

>  <TORSDO>
F 9

$$$$
=
 OpenBabel11032421283D

 34 37  0  0  1  0  0  0  0  0999 V2000
  187.9120  178.2030  140.7450 C   0  0  0  0  0  0  0  0  0  0  0  0
  189.5760  177.5500  138.9940 C   0  0  0  0  0  3  0  0  0  0  0  0
  185.6690  178.9050  140.7760 C   0  0  0  0  0  0  0  0  0  0  0  0
  189.9170  177.6190  141.2370 C   0  0  0  0  0  0  0  0  0  0  0  0
  191.4290  177.1080  140.7250 S   0  0  0  0  0  0  0  0  0  0  0  0
  185.7240  178.9990  142.2030 C   0  0  0  0  0  0  0  0  0  0  0  0
  189.0780  177.8010  140.2250 N   0  0  0  0  0  0  0  0  0  0  0  0
  190.9170  177.1510  139.0890 C   0  0  0  0  0  0  0  0  0  0  0  0
  186.9230  178.6780  142.8780 C   0  0  0  0  0  3  0  0  0  0  0  0
  188.0110  178.2790  142.1150 C   0  0  0  0  0  0  0  0  0  0  0  0
  189.3130  177.8990  142.4510 C   0  0  0  0  0  0  0  0  0  0  0  0
  186.7750  178.5040  140.0750 N   0  0  0  0  0  0  0  0  0  0  0  0
  184.4430  179.2260  140.0130 C   0  0  0  0  0  0  0  0  0  0  0  0
  183.2420  178.5020  140.2650 N   0  0  0  0  0  1  0  0  0  0  0  0
  184.4360  180.1330  139.1390 O   0  0  0  0  0  0  0  0  0  0  0  0
  184.2160  178.8180  144.1630 C   0  0  0  0  0  1  0  0  0  0  0  0
  184.5960  179.4080  142.9270 O   0  0  0  0  0  0  0  0  0  0  0  0
  191.7610  176.7490  137.9340 C   0  0  0  0  0  2  0  0  0  0  0  0
  193.1090  176.4550  138.3930 N   0  0  0  0  0  2  0  0  0  0  0  0
  193.2150  174.2920  137.2150 C   0  0  0  0  0  3  0  0  0  0  0  0
  193.8080  175.2590  138.0400 C   0  0  0  0  0  0  0  0  0  0  0  0
  195.0680  175.0590  138.5130 N   0  0  0  0  0  0  0  0  0  0  0  0
  195.2190  172.9550  137.3890 C   0  0  0  0  0  3  0  0  0  0  0  0
  195.7780  173.9390  138.2080 C   0  0  0  0  0  3  0  0  0  0  0  0
  193.9280  173.1370  136.8910 C   0  0  0  0  0  3  0  0  0  0  0  0
  189.9210  177.8180  143.7410 N   0  0  0  0  0  2  0  0  0  0  0  0
  190.7490  176.6960  144.1530 C   0  0  0  0  0  2  0  0  0  0  0  0
  191.5720  177.0720  145.3750 C   0  0  0  0  0  2  0  0  0  0  0  0
  192.3710  175.6370  147.2240 C   0  0  0  0  0  1  0  0  0  0  0  0
  191.1450  176.2660  146.5920 C   0  0  1  0  0  3  0  0  0  0  0  0
  188.3370  176.8010  146.7100 O   0  0  0  0  0  0  0  0  0  0  0  0
  190.4890  177.1360  147.5570 N   0  0  0  0  0  2  0  0  0  0  0  0
  188.4790  178.2540  148.5840 C   0  0  0  0  0  1  0  0  0  0  0  0
  189.0780  177.3560  147.5630 C   0  0  0  0  0  0  0  0  0  0  0  0
  1 10  1  0  0  0  0
  2  8  2  0  0  0  0
  2  7  1  0  0  0  0
  3  6  2  0  0  0  0
  4 11  2  0  0  0  0
  5  4  1  0  0  0  0
  6  9  1  0  0  0  0
  6 17  1  0  0  0  0
  7  1  1  0  0  0  0
  7  4  1  0  0  0  0
  8  5  1  0  0  0  0
 10 11  1  0  0  0  0
 10  9  2  0  0  0  0
 11 26  1  0  0  0  0
 12  1  2  0  0  0  0
 12  3  1  0  0  0  0
 13 14  1  0  0  0  0
 13  3  1  0  0  0  0
 15 13  2  0  0  0  0
 17 16  1  0  0  0  0
 18 19  1  0  0  0  0
 18  8  1  0  0  0  0
 20 21  1  0  0  0  0
 21 19  1  0  0  0  0
 21 22  2  0  0  0  0
 23 24  2  0  0  0  0
 24 22  1  0  0  0  0
 25 20  2  0  0  0  0
 25 23  1  0  0  0  0
 26 27  1  0  0  0  0
 27 28  1  0  0  0  0
 28 30  1  0  0  0  0
 30 29  1  1  0  0  0
 30 32  1  0  0  0  0
 31 34  2  0  0  0  0
 32 34  1  0  0  0  0
 34 33  1  0  0  0  0
M  END
>  <MODEL>
8

>  <REMARK>
 VINA RESULT:      -8.1      2.567      6.376
  Name = 
  9 active torsions:
  status: ('A' for Active; 'I' for Inactive)
    1  A    between atoms: N_1  and  C_23
    2  A    between atoms: C_2  and  C_15
    3  A    between atoms: C_2  and  N_31
    4  A    between atoms: C_3  and  C_11
    5  A    between atoms: N_7  and  C_26
    6  A    between atoms: C_15  and  C_26
    7  A    between atoms: C_21  and  O_33
    8  A    between atoms: C_23  and  C_27
    9  A    between atoms: N_31  and  C_32
                            x       y       z     vdW  Elec       q    Type
                         _______ _______ _______ _____ _____    ______ ____

>  <TORSDO>
F 9

$$$$
=
 OpenBabel11032421283D

 34 37  0  0  1  0  0  0  0  0999 V2000
  187.9870  177.9220  141.1440 C   0  0  0  0  0  0  0  0  0  0  0  0
  185.7990  178.5500  142.1830 C   0  0  0  0  0  3  0  0  0  0  0  0
  188.9310  178.0070  138.9930 C   0  0  0  0  0  0  0  0  0  0  0  0
  187.5920  177.6370  143.2340 C   0  0  0  0  0  0  0  0  0  0  0  0
  186.5330  177.7770  144.5250 S   0  0  0  0  0  0  0  0  0  0  0  0
  190.1380  177.4330  139.5050 C   0  0  0  0  0  0  0  0  0  0  0  0
  187.0630  178.0790  142.0990 N   0  0  0  0  0  0  0  0  0  0  0  0
  185.3320  178.4430  143.5000 C   0  0  0  0  0  0  0  0  0  0  0  0
  190.2290  177.1110  140.8790 C   0  0  0  0  0  3  0  0  0  0  0  0
  189.1280  177.3710  141.6810 C   0  0  0  0  0  0  0  0  0  0  0  0
  188.8850  177.1800  143.0440 C   0  0  0  0  0  0  0  0  0  0  0  0
  187.8750  178.2400  139.8340 N   0  0  0  0  0  0  0  0  0  0  0  0
  188.7740  178.3660  137.5660 C   0  0  0  0  0  0  0  0  0  0  0  0
  189.5170  177.6640  136.5740 N   0  0  0  0  0  1  0  0  0  0  0  0
  187.9930  179.2860  137.2060 O   0  0  0  0  0  0  0  0  0  0  0  0
  192.5410  176.9570  139.1260 C   0  0  0  0  0  1  0  0  0  0  0  0
  191.2220  177.1910  138.6510 O   0  0  0  0  0  0  0  0  0  0  0  0
  183.9990  178.9130  143.9630 C   0  0  0  0  0  2  0  0  0  0  0  0
  183.1300  179.1230  142.8160 N   0  0  0  0  0  2  0  0  0  0  0  0
  181.0660  178.6930  144.0950 C   0  0  0  0  0  3  0  0  0  0  0  0
  181.7060  179.0140  142.8890 C   0  0  0  0  0  0  0  0  0  0  0  0
  180.9640  179.2250  141.7680 N   0  0  0  0  0  0  0  0  0  0  0  0
  178.9350  178.8180  142.9640 C   0  0  0  0  0  3  0  0  0  0  0  0
  179.6060  179.1340  141.7800 C   0  0  0  0  0  3  0  0  0  0  0  0
  179.6740  178.5970  144.1260 C   0  0  0  0  0  3  0  0  0  0  0  0
  189.7470  176.6310  144.0420 N   0  0  0  0  0  2  0  0  0  0  0  0
  190.6760  177.4410  144.8130 C   0  0  0  0  0  2  0  0  0  0  0  0
  191.6920  176.5520  145.5130 C   0  0  0  0  0  2  0  0  0  0  0  0
  192.3590  175.6110  147.7010 C   0  0  0  0  0  1  0  0  0  0  0  0
  191.1880  176.1180  146.8810 C   0  0  1  0  0  3  0  0  0  0  0  0
  188.3940  176.3950  147.4310 O   0  0  0  0  0  0  0  0  0  0  0  0
  190.5670  177.2460  147.5610 N   0  0  0  0  0  2  0  0  0  0  0  0
  188.6000  178.4990  148.5140 C   0  0  0  0  0  1  0  0  0  0  0  0
  189.1620  177.3190  147.8090 C   0  0  0  0  0  0  0  0  0  0  0  0
  1 10  1  0  0  0  0
  1  7  1  0  0  0  0
  2  8  2  0  0  0  0
  3  6  2  0  0  0  0
  3 12  1  0  0  0  0
  4  5  1  0  0  0  0
  6  9  1  0  0  0  0
  7  2  1  0  0  0  0
  7  4  1  0  0  0  0
  8 18  1  0  0  0  0
  8  5  1  0  0  0  0
  9 10  2  0  0  0  0
 10 11  1  0  0  0  0
 11  4  2  0  0  0  0
 11 26  1  0  0  0  0
 12  1  2  0  0  0  0
 13  3  1  0  0  0  0
 14 13  1  0  0  0  0
 15 13  2  0  0  0  0
 17 16  1  0  0  0  0
 17  6  1  0  0  0  0
 19 21  1  0  0  0  0
 19 18  1  0  0  0  0
 20 25  2  0  0  0  0
 21 20  1  0  0  0  0
 22 24  1  0  0  0  0
 22 21  2  0  0  0  0
 23 25  1  0  0  0  0
 24 23  2  0  0  0  0
 26 27  1  0  0  0  0
 27 28  1  0  0  0  0
 28 30  1  0  0  0  0
 30 32  1  0  0  0  0
 30 29  1  1  0  0  0
 31 34  2  0  0  0  0
 32 34  1  0  0  0  0
 34 33  1  0  0  0  0
M  END
>  <MODEL>
9

>  <REMARK>
 VINA RESULT:      -7.9      2.692      8.487
  Name = 
  9 active torsions:
  status: ('A' for Active; 'I' for Inactive)
    1  A    between atoms: N_1  and  C_23
    2  A    between atoms: C_2  and  C_15
    3  A    between atoms: C_2  and  N_31
    4  A    between atoms: C_3  and  C_11
    5  A    between atoms: N_7  and  C_26
    6  A    between atoms: C_15  and  C_26
    7  A    between atoms: C_21  and  O_33
    8  A    between atoms: C_23  and  C_27
    9  A    between atoms: N_31  and  C_32
                            x       y       z     vdW  Elec       q    Type
                         _______ _______ _______ _____ _____    ______ ____

>  <TORSDO>
F 9

$$$$
