=
 OpenBabel11032420493D

 51 57  0  0  1  0  0  0  0  0999 V2000
  191.9550  176.7250  138.0600 C   0  0  2  0  0  3  0  0  0  0  0  0
  189.4610  176.7700  137.4980 N   0  0  0  0  0  0  0  0  0  0  0  0
  187.0680  176.8690  136.7220 C   0  0  1  0  0  0  0  0  0  0  0  0
  187.8980  176.0730  135.7350 C   0  0  0  0  0  2  0  0  0  0  0  0
  188.2300  176.0140  137.2240 C   0  0  1  0  0  3  0  0  0  0  0  0
  188.2770  178.9120  137.5630 C   0  0  0  0  0  2  0  0  0  0  0  0
  190.5020  174.8400  138.3100 O   0  0  0  0  0  0  0  0  0  0  0  0
  187.2020  178.3920  136.6310 C   0  0  0  0  0  2  0  0  0  0  0  0
  190.6130  176.0500  137.9680 C   0  0  0  0  0  0  0  0  0  0  0  0
  189.5800  178.2090  137.2410 C   0  0  0  0  0  2  0  0  0  0  0  0
  185.7530  176.2940  136.9910 N   0  0  0  0  0  2  0  0  0  0  0  0
  184.7470  177.3450  136.9080 C   0  0  0  0  0  2  0  0  0  0  0  0
  182.3600  177.3130  137.6950 C   0  0  0  0  0  2  0  0  0  0  0  0
  181.9450  178.7170  137.2740 C   0  0  0  0  0  2  0  0  0  0  0  0
  183.8330  177.3010  138.1270 C   0  0  2  0  0  3  0  0  0  0  0  0
  184.1790  178.4430  139.0550 C   0  0  0  0  0  0  0  0  0  0  0  0
  182.0560  179.6460  138.4750 C   0  0  0  0  0  2  0  0  0  0  0  0
  183.3950  179.5300  139.1530 C   0  0  0  0  0  3  0  0  0  0  0  0
  185.4200  178.3790  139.7710 N   0  0  0  0  0  2  0  0  0  0  0  0
  185.6790  179.0910  141.0160 C   0  0  2  0  0  3  0  0  0  0  0  0
  187.0130  178.9270  141.3950 O   0  0  0  0  0  1  0  0  0  0  0  0
  184.7440  178.6000  142.1160 C   0  0  0  0  0  2  0  0  0  0  0  0
  184.9460  179.3380  143.4390 C   0  0  0  0  0  2  0  0  0  0  0  0
  183.9390  178.8930  144.4900 C   0  0  0  0  0  2  0  0  0  0  0  0
  185.3160  179.4200  146.3750 O   0  0  0  0  0  1  0  0  0  0  0  0
  184.6410  178.3770  145.7370 C   0  0  0  0  0  2  0  0  0  0  0  0
  193.1220  175.9380  135.9580 C   0  0  0  0  0  3  0  0  0  0  0  0
  194.1350  175.2140  135.3290 C   0  0  0  0  0  3  0  0  0  0  0  0
  194.9700  174.5000  137.4920 C   0  0  0  0  0  0  0  0  0  0  0  0
  195.0650  174.4900  136.0880 C   0  0  0  0  0  0  0  0  0  0  0  0
  193.0290  175.9520  137.3560 C   0  0  0  0  0  0  0  0  0  0  0  0
  196.1070  173.6140  138.4980 Cl  0  0  0  0  0  0  0  0  0  0  0  0
  193.9540  175.2290  138.1150 C   0  0  0  0  0  3  0  0  0  0  0  0
  196.9640  174.6150  134.5940 N   0  0  0  0  0  1  0  0  0  0  0  0
  196.1530  173.7230  135.4010 C   0  0  2  0  0  3  0  0  0  0  0  0
  195.0130  171.9030  135.4370 O   0  0  0  0  0  1  0  0  0  0  0  0
  195.6060  172.7220  134.5940 O   0  0  0  0  0  0  0  0  0  0  0  0
  192.3390  177.0330  139.4990 C   0  0  0  0  0  2  0  0  0  0  0  0
  191.0930  177.2980  140.3280 C   0  0  0  0  0  2  0  0  0  0  0  0
  191.4470  177.4000  141.8010 C   0  0  0  0  0  2  0  0  0  0  0  0
  189.6760  178.1930  143.3090 N   0  0  0  0  0  2  0  0  0  0  0  0
  191.8200  176.6190  146.1170 C   0  0  2  0  0  3  0  0  0  0  0  0
  189.4830  176.7800  146.8310 O   0  0  0  0  0  0  0  0  0  0  0  0
  187.8320  177.0700  145.2510 O   0  0  0  0  0  0  0  0  0  0  0  0
  190.8350  177.0120  147.2280 C   0  0  0  0  0  2  0  0  0  0  0  0
  189.0520  177.1480  145.5580 C   0  0  0  0  0  0  0  0  0  0  0  0
  190.6660  176.3630  143.9280 N   0  0  1  0  0  0  0  0  0  0  0  0
  190.2570  177.0150  142.6850 C   0  0  2  0  0  3  0  0  0  0  0  0
  191.5060  177.2670  144.7450 C   0  0  1  0  0  3  0  0  0  0  0  0
  190.0820  177.5620  144.5550 C   0  0  1  0  0  0  0  0  0  0  0  0
  191.9080  175.2280  146.0190 O   0  0  0  0  0  1  0  0  0  0  0  0
  1 38  1  1  0  0  0
  2  9  1  0  0  0  0
  3 11  1  1  0  0  0
  3  5  1  0  0  0  0
  4  3  1  0  0  0  0
  5  4  1  6  0  0  0
  5  2  1  0  0  0  0
  8  3  1  0  0  0  0
  8  6  1  0  0  0  0
  9  1  1  0  0  0  0
  9  7  2  0  0  0  0
 10  2  1  0  0  0  0
 10  6  1  0  0  0  0
 12 11  1  0  0  0  0
 13 15  1  0  0  0  0
 14 13  1  0  0  0  0
 14 17  1  0  0  0  0
 15 12  1  6  0  0  0
 15 16  1  0  0  0  0
 16 18  2  0  0  0  0
 16 19  1  0  0  0  0
 17 18  1  0  0  0  0
 19 20  1  0  0  0  0
 20 21  1  1  0  0  0
 20 22  1  0  0  0  0
 22 23  1  0  0  0  0
 23 24  1  0  0  0  0
 24 26  1  0  0  0  0
 26 25  1  0  0  0  0
 27 31  1  0  0  0  0
 28 27  2  0  0  0  0
 28 30  1  0  0  0  0
 29 33  1  0  0  0  0
 29 32  1  0  0  0  0
 30 29  2  0  0  0  0
 31  1  1  0  0  0  0
 31 33  2  0  0  0  0
 35 34  1  6  0  0  0
 35 30  1  0  0  0  0
 37 35  1  0  0  0  0
 37 36  1  0  0  0  0
 38 39  1  0  0  0  0
 39 40  1  0  0  0  0
 40 48  1  0  0  0  0
 41 50  1  0  0  0  0
 42 51  1  6  0  0  0
 42 45  1  0  0  0  0
 43 45  1  0  0  0  0
 44 46  2  0  0  0  0
 46 43  1  0  0  0  0
 47 50  1  0  0  0  0
 47 49  1  0  0  0  0
 48 41  1  0  0  0  0
 48 47  1  0  0  0  0
 49 42  1  0  0  0  0
 50 49  1  0  0  0  0
 50 46  1  0  0  0  0
M  END
>  <MODEL>
1

>  <REMARK>
 VINA RESULT:      -7.7      0.000      0.000
  Name = 
  17 active torsions:
  status: ('A' for Active; 'I' for Inactive)
    1  A    between atoms: C_4  and  C_25
    2  A    between atoms: C_4  and  N_33
    3  A    between atoms: C_6  and  C_11
    4  A    between atoms: C_7  and  C_27
    5  A    between atoms: C_7  and  O_45
    6  A    between atoms: C_8  and  C_41
    7  A    between atoms: C_8  and  C_42
    8  A    between atoms: C_10  and  C_12
    9  A    between atoms: C_10  and  C_30
   10  A    between atoms: C_11  and  C_30
   11  A    between atoms: C_12  and  N_37
   12  A    between atoms: C_17  and  C_38
   13  A    between atoms: C_17  and  C_41
   14  A    between atoms: C_22  and  N_33
   15  A    between atoms: C_32  and  C_42
   16  A    between atoms: C_36  and  N_37
   17  A    between atoms: C_42  and  C_44
                            x       y       z     vdW  Elec       q    Type
                         _______ _______ _______ _____ _____    ______ ____

>  <TORSDO>
F 17

$$$$
=
 OpenBabel11032420493D

 51 57  0  0  1  0  0  0  0  0999 V2000
  190.9270  175.7790  137.8420 C   0  0  2  0  0  3  0  0  0  0  0  0
  188.4310  176.1820  137.4680 N   0  0  0  0  0  0  0  0  0  0  0  0
  186.0320  176.6960  136.9010 C   0  0  1  0  0  0  0  0  0  0  0  0
  186.7560  176.1910  135.6700 C   0  0  0  0  0  2  0  0  0  0  0  0
  187.1290  175.6430  137.0450 C   0  0  1  0  0  3  0  0  0  0  0  0
  187.4430  178.2760  138.2640 C   0  0  0  0  0  2  0  0  0  0  0  0
  189.3230  174.0230  137.5790 O   0  0  0  0  0  0  0  0  0  0  0  0
  186.2970  178.1570  137.2800 C   0  0  0  0  0  2  0  0  0  0  0  0
  189.5290  175.2680  137.6230 C   0  0  0  0  0  0  0  0  0  0  0  0
  188.6670  177.6160  137.6640 C   0  0  0  0  0  2  0  0  0  0  0  0
  184.6810  176.1640  137.0550 N   0  0  0  0  0  2  0  0  0  0  0  0
  183.8900  177.0950  137.8500 C   0  0  0  0  0  2  0  0  0  0  0  0
  181.8070  175.7530  138.2700 C   0  0  0  0  0  2  0  0  0  0  0  0
  180.7660  176.8460  138.0650 C   0  0  0  0  0  2  0  0  0  0  0  0
  183.0790  176.3410  138.8970 C   0  0  2  0  0  3  0  0  0  0  0  0
  182.7860  177.2580  140.0620 C   0  0  0  0  0  0  0  0  0  0  0  0
  180.3650  177.4080  139.4220 C   0  0  0  0  0  2  0  0  0  0  0  0
  181.5640  177.7860  140.2490 C   0  0  0  0  0  3  0  0  0  0  0  0
  183.8730  177.6250  140.9220 N   0  0  0  0  0  2  0  0  0  0  0  0
  184.2470  179.0030  141.2190 C   0  0  2  0  0  3  0  0  0  0  0  0
  184.7130  179.6340  140.0650 O   0  0  0  0  0  1  0  0  0  0  0  0
  185.3030  179.0430  142.3190 C   0  0  0  0  0  2  0  0  0  0  0  0
  184.7750  179.6310  143.6260 C   0  0  0  0  0  2  0  0  0  0  0  0
  184.6890  178.5780  144.7210 C   0  0  0  0  0  2  0  0  0  0  0  0
  185.4150  179.3230  146.8770 O   0  0  0  0  0  1  0  0  0  0  0  0
  185.8470  178.7080  145.6990 C   0  0  0  0  0  2  0  0  0  0  0  0
  192.2810  177.0560  139.5560 C   0  0  0  0  0  3  0  0  0  0  0  0
  192.4210  177.6040  140.8320 C   0  0  0  0  0  3  0  0  0  0  0  0
  190.2190  176.7780  141.4300 C   0  0  0  0  0  0  0  0  0  0  0  0
  191.3950  177.4690  141.7770 C   0  0  0  0  0  0  0  0  0  0  0  0
  191.1080  176.3720  139.2070 C   0  0  0  0  0  0  0  0  0  0  0  0
  188.8970  176.5790  142.5700 Cl  0  0  0  0  0  0  0  0  0  0  0  0
  190.0850  176.2350  140.1490 C   0  0  0  0  0  3  0  0  0  0  0  0
  191.6220  177.0190  144.1430 N   0  0  0  0  0  1  0  0  0  0  0  0
  191.5540  178.0670  143.1410 C   0  0  2  0  0  3  0  0  0  0  0  0
  190.2030  178.6910  144.6890 O   0  0  0  0  0  1  0  0  0  0  0  0
  190.4870  178.9230  143.4240 O   0  0  0  0  0  0  0  0  0  0  0  0
  191.3570  176.7470  136.7500 C   0  0  0  0  0  2  0  0  0  0  0  0
  191.7120  175.9830  135.4850 C   0  0  0  0  0  2  0  0  0  0  0  0
  192.8150  174.9770  135.7650 C   0  0  0  0  0  2  0  0  0  0  0  0
  195.1980  174.7910  135.1930 N   0  0  0  0  0  2  0  0  0  0  0  0
  195.7380  174.3650  138.9990 C   0  0  2  0  0  3  0  0  0  0  0  0
  197.7910  175.1810  137.9430 O   0  0  0  0  0  0  0  0  0  0  0  0
  197.6870  176.1350  135.8500 O   0  0  0  0  0  0  0  0  0  0  0  0
  197.2620  174.2320  138.8700 C   0  0  0  0  0  2  0  0  0  0  0  0
  197.1530  175.4020  136.7250 C   0  0  0  0  0  0  0  0  0  0  0  0
  194.7790  175.6890  137.1250 N   0  0  1  0  0  0  0  0  0  0  0  0
  194.1890  175.6530  135.7870 C   0  0  2  0  0  3  0  0  0  0  0  0
  194.9900  174.3190  137.6440 C   0  0  1  0  0  3  0  0  0  0  0  0
  195.7950  174.8100  136.5190 C   0  0  1  0  0  0  0  0  0  0  0  0
  195.4120  175.5120  139.7260 O   0  0  0  0  0  1  0  0  0  0  0  0
  1 38  1  6  0  0  0
  1 31  1  0  0  0  0
  2  9  1  0  0  0  0
  2 10  1  0  0  0  0
  3  5  1  0  0  0  0
  3 11  1  1  0  0  0
  3  8  1  0  0  0  0
  4  3  1  0  0  0  0
  5  4  1  6  0  0  0
  5  2  1  0  0  0  0
  7  9  2  0  0  0  0
  8  6  1  0  0  0  0
  9  1  1  0  0  0  0
 10  6  1  0  0  0  0
 11 12  1  0  0  0  0
 13 15  1  0  0  0  0
 14 13  1  0  0  0  0
 14 17  1  0  0  0  0
 15 12  1  6  0  0  0
 15 16  1  0  0  0  0
 16 18  2  0  0  0  0
 16 19  1  0  0  0  0
 17 18  1  0  0  0  0
 19 20  1  0  0  0  0
 20 21  1  6  0  0  0
 20 22  1  0  0  0  0
 22 23  1  0  0  0  0
 23 24  1  0  0  0  0
 24 26  1  0  0  0  0
 26 25  1  0  0  0  0
 27 28  1  0  0  0  0
 28 30  2  0  0  0  0
 29 30  1  0  0  0  0
 29 32  1  0  0  0  0
 30 35  1  0  0  0  0
 31 27  2  0  0  0  0
 31 33  1  0  0  0  0
 33 29  2  0  0  0  0
 35 37  1  0  0  0  0
 35 34  1  1  0  0  0
 37 36  1  0  0  0  0
 39 40  1  0  0  0  0
 39 38  1  0  0  0  0
 40 48  1  0  0  0  0
 41 48  1  0  0  0  0
 41 50  1  0  0  0  0
 42 51  1  6  0  0  0
 43 45  1  0  0  0  0
 44 46  2  0  0  0  0
 45 42  1  0  0  0  0
 46 43  1  0  0  0  0
 47 49  1  0  0  0  0
 48 47  1  0  0  0  0
 49 42  1  0  0  0  0
 50 46  1  0  0  0  0
 50 47  1  0  0  0  0
 50 49  1  0  0  0  0
M  END
>  <MODEL>
2

>  <REMARK>
 VINA RESULT:      -7.1      2.366      6.361
  Name = 
  17 active torsions:
  status: ('A' for Active; 'I' for Inactive)
    1  A    between atoms: C_4  and  C_25
    2  A    between atoms: C_4  and  N_33
    3  A    between atoms: C_6  and  C_11
    4  A    between atoms: C_7  and  C_27
    5  A    between atoms: C_7  and  O_45
    6  A    between atoms: C_8  and  C_41
    7  A    between atoms: C_8  and  C_42
    8  A    between atoms: C_10  and  C_12
    9  A    between atoms: C_10  and  C_30
   10  A    between atoms: C_11  and  C_30
   11  A    between atoms: C_12  and  N_37
   12  A    between atoms: C_17  and  C_38
   13  A    between atoms: C_17  and  C_41
   14  A    between atoms: C_22  and  N_33
   15  A    between atoms: C_32  and  C_42
   16  A    between atoms: C_36  and  N_37
   17  A    between atoms: C_42  and  C_44
                            x       y       z     vdW  Elec       q    Type
                         _______ _______ _______ _____ _____    ______ ____

>  <TORSDO>
F 17

$$$$
=
 OpenBabel11032420493D

 51 57  0  0  1  0  0  0  0  0999 V2000
  187.7860  178.0170  140.7230 C   0  0  2  0  0  3  0  0  0  0  0  0
  185.4250  178.3370  139.7940 N   0  0  0  0  0  0  0  0  0  0  0  0
  183.0640  178.4190  138.9240 C   0  0  1  0  0  0  0  0  0  0  0  0
  183.1010  177.6810  140.2470 C   0  0  0  0  0  2  0  0  0  0  0  0
  184.0600  178.8430  140.0020 C   0  0  1  0  0  3  0  0  0  0  0  0
  185.0070  177.8210  137.4370 C   0  0  0  0  0  2  0  0  0  0  0  0
  186.1860  179.5360  141.6520 O   0  0  0  0  0  0  0  0  0  0  0  0
  183.5290  177.6220  137.7010 C   0  0  0  0  0  2  0  0  0  0  0  0
  186.4330  178.6750  140.7610 C   0  0  0  0  0  0  0  0  0  0  0  0
  185.7780  177.4430  138.6850 C   0  0  0  0  0  2  0  0  0  0  0  0
  181.9280  179.3260  138.7820 N   0  0  0  0  0  2  0  0  0  0  0  0
  180.7570  178.5620  138.3690 C   0  0  0  0  0  2  0  0  0  0  0  0
  179.5790  180.4430  137.1910 C   0  0  0  0  0  2  0  0  0  0  0  0
  180.5500  181.5750  137.5050 C   0  0  0  0  0  2  0  0  0  0  0  0
  179.5200  179.4530  138.3620 C   0  0  2  0  0  3  0  0  0  0  0  0
  179.3870  180.1390  139.7020 C   0  0  0  0  0  0  0  0  0  0  0  0
  180.0320  182.3500  138.7090 C   0  0  0  0  0  2  0  0  0  0  0  0
  179.6860  181.4400  139.8570 C   0  0  0  0  0  3  0  0  0  0  0  0
  179.0160  179.3420  140.8340 N   0  0  0  0  0  2  0  0  0  0  0  0
  179.9690  178.6310  141.6780 C   0  0  2  0  0  3  0  0  0  0  0  0
  179.4510  177.3890  142.0480 O   0  0  0  0  0  1  0  0  0  0  0  0
  180.3120  179.4600  142.9120 C   0  0  0  0  0  2  0  0  0  0  0  0
  181.3400  178.7810  143.8140 C   0  0  0  0  0  2  0  0  0  0  0  0
  182.7370  179.3450  143.5980 C   0  0  0  0  0  2  0  0  0  0  0  0
  183.7760  179.1030  145.7410 O   0  0  0  0  0  1  0  0  0  0  0  0
  183.7650  178.6010  144.4370 C   0  0  0  0  0  2  0  0  0  0  0  0
  187.7560  177.0030  143.0400 C   0  0  0  0  0  3  0  0  0  0  0  0
  188.3230  176.8470  144.3060 C   0  0  0  0  0  3  0  0  0  0  0  0
  190.1150  178.3640  143.6940 C   0  0  0  0  0  0  0  0  0  0  0  0
  189.5030  177.5250  144.6430 C   0  0  0  0  0  0  0  0  0  0  0  0
  188.3680  177.8350  142.0920 C   0  0  0  0  0  0  0  0  0  0  0  0
  191.5950  179.2380  144.0560 Cl  0  0  0  0  0  0  0  0  0  0  0  0
  189.5430  178.5130  142.4270 C   0  0  0  0  0  3  0  0  0  0  0  0
  191.2800  176.4960  145.9220 N   0  0  0  0  0  1  0  0  0  0  0  0
  190.1040  177.3440  146.0020 C   0  0  2  0  0  3  0  0  0  0  0  0
  189.3250  177.4390  148.0020 O   0  0  0  0  0  1  0  0  0  0  0  0
  189.1720  176.7750  146.8750 O   0  0  0  0  0  0  0  0  0  0  0  0
  188.7480  178.7490  139.7990 C   0  0  0  0  0  2  0  0  0  0  0  0
  188.9850  177.9330  138.5390 C   0  0  0  0  0  2  0  0  0  0  0  0
  190.2460  177.0970  138.6780 C   0  0  0  0  0  2  0  0  0  0  0  0
  190.4060  174.7650  137.9200 N   0  0  0  0  0  2  0  0  0  0  0  0
  194.1600  175.5380  137.4000 C   0  0  2  0  0  3  0  0  0  0  0  0
  193.4810  173.6620  135.9790 O   0  0  0  0  0  0  0  0  0  0  0  0
  191.2460  173.3200  135.5450 O   0  0  0  0  0  0  0  0  0  0  0  0
  194.4830  174.1280  136.8850 C   0  0  0  0  0  2  0  0  0  0  0  0
  192.1320  173.8460  136.2710 C   0  0  0  0  0  0  0  0  0  0  0  0
  191.7860  176.1430  136.9660 N   0  0  1  0  0  0  0  0  0  0  0  0
  190.4190  176.1520  137.4850 C   0  0  2  0  0  3  0  0  0  0  0  0
  192.7370  175.6750  137.9990 C   0  0  1  0  0  3  0  0  0  0  0  0
  191.7700  174.7390  137.4150 C   0  0  1  0  0  0  0  0  0  0  0  0
  194.3860  176.4840  136.3960 O   0  0  0  0  0  1  0  0  0  0  0  0
  1 38  1  6  0  0  0
  1  9  1  0  0  0  0
  1 31  1  0  0  0  0
  2  5  1  0  0  0  0
  2  9  1  0  0  0  0
  3 11  1  6  0  0  0
  3  5  1  0  0  0  0
  3  4  1  0  0  0  0
  5  4  1  1  0  0  0
  6  8  1  0  0  0  0
  6 10  1  0  0  0  0
  8  3  1  0  0  0  0
  9  7  2  0  0  0  0
 10  2  1  0  0  0  0
 12 11  1  0  0  0  0
 13 14  1  0  0  0  0
 13 15  1  0  0  0  0
 14 17  1  0  0  0  0
 15 12  1  1  0  0  0
 15 16  1  0  0  0  0
 16 18  2  0  0  0  0
 16 19  1  0  0  0  0
 17 18  1  0  0  0  0
 19 20  1  0  0  0  0
 20 21  1  1  0  0  0
 20 22  1  0  0  0  0
 22 23  1  0  0  0  0
 24 23  1  0  0  0  0
 24 26  1  0  0  0  0
 26 25  1  0  0  0  0
 27 28  1  0  0  0  0
 28 30  2  0  0  0  0
 29 32  1  0  0  0  0
 29 30  1  0  0  0  0
 30 35  1  0  0  0  0
 31 33  1  0  0  0  0
 31 27  2  0  0  0  0
 33 29  2  0  0  0  0
 35 34  1  6  0  0  0
 35 37  1  0  0  0  0
 37 36  1  0  0  0  0
 39 40  1  0  0  0  0
 39 38  1  0  0  0  0
 42 51  1  6  0  0  0
 42 49  1  0  0  0  0
 43 46  1  0  0  0  0
 43 45  1  0  0  0  0
 44 46  2  0  0  0  0
 45 42  1  0  0  0  0
 46 50  1  0  0  0  0
 47 50  1  0  0  0  0
 47 48  1  0  0  0  0
 47 49  1  0  0  0  0
 48 41  1  0  0  0  0
 48 40  1  0  0  0  0
 50 41  1  0  0  0  0
 50 49  1  0  0  0  0
M  END
>  <MODEL>
3

>  <REMARK>
 VINA RESULT:      -7.1      2.823      7.518
  Name = 
  17 active torsions:
  status: ('A' for Active; 'I' for Inactive)
    1  A    between atoms: C_4  and  C_25
    2  A    between atoms: C_4  and  N_33
    3  A    between atoms: C_6  and  C_11
    4  A    between atoms: C_7  and  C_27
    5  A    between atoms: C_7  and  O_45
    6  A    between atoms: C_8  and  C_41
    7  A    between atoms: C_8  and  C_42
    8  A    between atoms: C_10  and  C_12
    9  A    between atoms: C_10  and  C_30
   10  A    between atoms: C_11  and  C_30
   11  A    between atoms: C_12  and  N_37
   12  A    between atoms: C_17  and  C_38
   13  A    between atoms: C_17  and  C_41
   14  A    between atoms: C_22  and  N_33
   15  A    between atoms: C_32  and  C_42
   16  A    between atoms: C_36  and  N_37
   17  A    between atoms: C_42  and  C_44
                            x       y       z     vdW  Elec       q    Type
                         _______ _______ _______ _____ _____    ______ ____

>  <TORSDO>
F 17

$$$$
=
 OpenBabel11032420493D

 51 57  0  0  1  0  0  0  0  0999 V2000
  191.5360  176.3590  137.5130 C   0  0  2  0  0  3  0  0  0  0  0  0
  189.2840  175.5830  136.5850 N   0  0  0  0  0  0  0  0  0  0  0  0
  187.1410  174.8930  135.4570 C   0  0  1  0  0  0  0  0  0  0  0  0
  188.3280  174.4170  134.6440 C   0  0  0  0  0  2  0  0  0  0  0  0
  188.4240  174.4650  136.1670 C   0  0  1  0  0  3  0  0  0  0  0  0
  187.4720  177.2170  136.3710 C   0  0  0  0  0  2  0  0  0  0  0  0
  190.7550  174.1000  137.6340 O   0  0  0  0  0  0  0  0  0  0  0  0
  186.7850  176.3760  135.3140 C   0  0  0  0  0  2  0  0  0  0  0  0
  190.5190  175.2810  137.2550 C   0  0  0  0  0  0  0  0  0  0  0  0
  188.9660  176.9820  136.2800 C   0  0  0  0  0  2  0  0  0  0  0  0
  186.0600  173.9160  135.5550 N   0  0  0  0  0  2  0  0  0  0  0  0
  184.8160  174.6110  135.8640 C   0  0  0  0  0  2  0  0  0  0  0  0
  184.8140  172.7270  137.5270 C   0  0  0  0  0  2  0  0  0  0  0  0
  184.1400  171.6550  136.6790 C   0  0  0  0  0  2  0  0  0  0  0  0
  184.2440  174.1110  137.1840 C   0  0  2  0  0  3  0  0  0  0  0  0
  182.7340  174.1190  137.1130 C   0  0  0  0  0  0  0  0  0  0  0  0
  182.6570  171.6140  137.0220 C   0  0  0  0  0  2  0  0  0  0  0  0
  182.0320  172.9820  136.9740 C   0  0  0  0  0  3  0  0  0  0  0  0
  182.0660  175.3880  137.1080 N   0  0  0  0  0  2  0  0  0  0  0  0
  181.6610  176.1000  138.3150 C   0  0  2  0  0  3  0  0  0  0  0  0
  180.2850  175.9740  138.5090 O   0  0  0  0  0  1  0  0  0  0  0  0
  182.0600  177.5690  138.2260 C   0  0  0  0  0  2  0  0  0  0  0  0
  183.3640  177.7840  137.4610 C   0  0  0  0  0  2  0  0  0  0  0  0
  184.4950  178.2110  138.3860 C   0  0  0  0  0  2  0  0  0  0  0  0
  185.0060  179.6310  140.2440 O   0  0  0  0  0  1  0  0  0  0  0  0
  184.1130  179.4470  139.1850 C   0  0  0  0  0  2  0  0  0  0  0  0
  193.3880  176.1210  135.8060 C   0  0  0  0  0  3  0  0  0  0  0  0
  194.6830  175.7290  135.4640 C   0  0  0  0  0  3  0  0  0  0  0  0
  195.0520  174.9610  137.7360 C   0  0  0  0  0  0  0  0  0  0  0  0
  195.5230  175.1470  136.4230 C   0  0  0  0  0  0  0  0  0  0  0  0
  192.9190  175.9420  137.1150 C   0  0  0  0  0  0  0  0  0  0  0  0
  196.0590  174.2400  138.9820 Cl  0  0  0  0  0  0  0  0  0  0  0  0
  193.7550  175.3590  138.0720 C   0  0  0  0  0  3  0  0  0  0  0  0
  197.1310  173.3390  136.3760 N   0  0  0  0  0  1  0  0  0  0  0  0
  196.9130  174.7360  136.0450 C   0  0  2  0  0  3  0  0  0  0  0  0
  198.8860  174.7360  136.8940 O   0  0  0  0  0  1  0  0  0  0  0  0
  197.8520  175.5300  136.7080 O   0  0  0  0  0  0  0  0  0  0  0  0
  191.4920  176.8490  138.9520 C   0  0  0  0  0  2  0  0  0  0  0  0
  190.1900  176.4220  139.6110 C   0  0  0  0  0  2  0  0  0  0  0  0
  189.5320  177.6040  140.3000 C   0  0  0  0  0  2  0  0  0  0  0  0
  188.4600  178.3220  142.3920 N   0  0  0  0  0  2  0  0  0  0  0  0
  191.6180  176.8990  144.1120 C   0  0  2  0  0  3  0  0  0  0  0  0
  189.7470  176.9460  145.6920 O   0  0  0  0  0  0  0  0  0  0  0  0
  187.5940  177.1280  144.8940 O   0  0  0  0  0  0  0  0  0  0  0  0
  191.1320  177.2540  145.5250 C   0  0  0  0  0  2  0  0  0  0  0  0
  188.8310  177.2740  144.6950 C   0  0  0  0  0  0  0  0  0  0  0  0
  189.7100  176.5540  142.5540 N   0  0  1  0  0  0  0  0  0  0  0  0
  188.8100  177.1690  141.5790 C   0  0  2  0  0  3  0  0  0  0  0  0
  190.7550  177.5120  142.9820 C   0  0  1  0  0  3  0  0  0  0  0  0
  189.3570  177.7290  143.3710 C   0  0  1  0  0  0  0  0  0  0  0  0
  191.7350  175.5140  143.9750 O   0  0  0  0  0  1  0  0  0  0  0  0
  1 38  1  1  0  0  0
  2  9  1  0  0  0  0
  3 11  1  1  0  0  0
  3  5  1  0  0  0  0
  4  3  1  0  0  0  0
  5  4  1  6  0  0  0
  5  2  1  0  0  0  0
  8  3  1  0  0  0  0
  8  6  1  0  0  0  0
  9  1  1  0  0  0  0
  9  7  2  0  0  0  0
 10  6  1  0  0  0  0
 10  2  1  0  0  0  0
 11 12  1  0  0  0  0
 14 17  1  0  0  0  0
 14 13  1  0  0  0  0
 15 12  1  6  0  0  0
 15 13  1  0  0  0  0
 16 15  1  0  0  0  0
 18 17  1  0  0  0  0
 18 16  2  0  0  0  0
 19 16  1  0  0  0  0
 19 20  1  0  0  0  0
 20 21  1  6  0  0  0
 22 20  1  0  0  0  0
 23 22  1  0  0  0  0
 23 24  1  0  0  0  0
 24 26  1  0  0  0  0
 26 25  1  0  0  0  0
 27 31  1  0  0  0  0
 28 27  2  0  0  0  0
 28 30  1  0  0  0  0
 29 33  1  0  0  0  0
 29 32  1  0  0  0  0
 30 29  2  0  0  0  0
 31  1  1  0  0  0  0
 31 33  2  0  0  0  0
 35 34  1  1  0  0  0
 35 30  1  0  0  0  0
 35 37  1  0  0  0  0
 37 36  1  0  0  0  0
 38 39  1  0  0  0  0
 39 40  1  0  0  0  0
 40 48  1  0  0  0  0
 41 50  1  0  0  0  0
 42 51  1  1  0  0  0
 42 45  1  0  0  0  0
 45 43  1  0  0  0  0
 46 44  2  0  0  0  0
 46 43  1  0  0  0  0
 47 49  1  0  0  0  0
 47 50  1  0  0  0  0
 48 41  1  0  0  0  0
 48 47  1  0  0  0  0
 49 50  1  0  0  0  0
 49 42  1  0  0  0  0
 50 46  1  0  0  0  0
M  END
>  <MODEL>
4

>  <REMARK>
 VINA RESULT:      -7.1      2.513      3.646
  Name = 
  17 active torsions:
  status: ('A' for Active; 'I' for Inactive)
    1  A    between atoms: C_4  and  C_25
    2  A    between atoms: C_4  and  N_33
    3  A    between atoms: C_6  and  C_11
    4  A    between atoms: C_7  and  C_27
    5  A    between atoms: C_7  and  O_45
    6  A    between atoms: C_8  and  C_41
    7  A    between atoms: C_8  and  C_42
    8  A    between atoms: C_10  and  C_12
    9  A    between atoms: C_10  and  C_30
   10  A    between atoms: C_11  and  C_30
   11  A    between atoms: C_12  and  N_37
   12  A    between atoms: C_17  and  C_38
   13  A    between atoms: C_17  and  C_41
   14  A    between atoms: C_22  and  N_33
   15  A    between atoms: C_32  and  C_42
   16  A    between atoms: C_36  and  N_37
   17  A    between atoms: C_42  and  C_44
                            x       y       z     vdW  Elec       q    Type
                         _______ _______ _______ _____ _____    ______ ____

>  <TORSDO>
F 17

$$$$
=
 OpenBabel11032420493D

 51 57  0  0  1  0  0  0  0  0999 V2000
  191.4960  176.6420  137.7270 C   0  0  2  0  0  3  0  0  0  0  0  0
  189.1090  176.4240  136.8410 N   0  0  0  0  0  0  0  0  0  0  0  0
  186.8370  176.2980  135.7610 C   0  0  1  0  0  0  0  0  0  0  0  0
  187.8860  175.7390  134.8220 C   0  0  0  0  0  2  0  0  0  0  0  0
  188.0420  175.5500  136.3290 C   0  0  1  0  0  3  0  0  0  0  0  0
  187.6260  178.3700  136.9570 C   0  0  0  0  0  2  0  0  0  0  0  0
  190.3140  174.5660  137.5900 O   0  0  0  0  0  0  0  0  0  0  0  0
  186.7590  177.8260  135.8400 C   0  0  0  0  0  2  0  0  0  0  0  0
  190.2880  175.8120  137.3880 C   0  0  0  0  0  0  0  0  0  0  0  0
  189.0460  177.8870  136.7460 C   0  0  0  0  0  2  0  0  0  0  0  0
  185.5970  175.5280  135.7910 N   0  0  0  0  0  2  0  0  0  0  0  0
  184.5940  176.2690  136.5460 C   0  0  0  0  0  2  0  0  0  0  0  0
  183.7480  174.0560  137.3830 C   0  0  0  0  0  2  0  0  0  0  0  0
  182.3610  174.0700  136.7530 C   0  0  0  0  0  2  0  0  0  0  0  0
  184.1670  175.4790  137.7770 C   0  0  2  0  0  3  0  0  0  0  0  0
  183.0740  176.2310  138.5020 C   0  0  0  0  0  0  0  0  0  0  0  0
  181.3530  174.5530  137.7870 C   0  0  0  0  0  2  0  0  0  0  0  0
  181.7920  175.8340  138.4430 C   0  0  0  0  0  3  0  0  0  0  0  0
  183.4280  177.4380  139.1890 N   0  0  0  0  0  2  0  0  0  0  0  0
  182.9400  177.7930  140.5170 C   0  0  2  0  0  3  0  0  0  0  0  0
  181.6450  178.3080  140.4310 O   0  0  0  0  0  1  0  0  0  0  0  0
  183.8770  178.7980  141.1790 C   0  0  0  0  0  2  0  0  0  0  0  0
  184.9670  178.1300  142.0150 C   0  0  0  0  0  2  0  0  0  0  0  0
  184.6450  178.1790  143.5010 C   0  0  0  0  0  2  0  0  0  0  0  0
  185.2740  179.7160  145.2260 O   0  0  0  0  0  1  0  0  0  0  0  0
  184.6020  179.6140  144.0050 C   0  0  0  0  0  2  0  0  0  0  0  0
  193.1450  176.0080  135.9160 C   0  0  0  0  0  3  0  0  0  0  0  0
  194.3410  175.4100  135.5170 C   0  0  0  0  0  3  0  0  0  0  0  0
  194.8000  174.7860  137.8160 C   0  0  0  0  0  0  0  0  0  0  0  0
  195.1760  174.7950  136.4590 C   0  0  0  0  0  0  0  0  0  0  0  0
  192.7720  176.0040  137.2670 C   0  0  0  0  0  0  0  0  0  0  0  0
  195.8050  174.0330  139.0450 Cl  0  0  0  0  0  0  0  0  0  0  0  0
  193.6020  175.3890  138.2090 C   0  0  0  0  0  3  0  0  0  0  0  0
  196.4090  172.7270  136.2230 N   0  0  0  0  0  1  0  0  0  0  0  0
  196.4600  174.1630  136.0190 C   0  0  2  0  0  3  0  0  0  0  0  0
  197.6220  175.9470  136.3060 O   0  0  0  0  0  1  0  0  0  0  0  0
  197.5360  174.7030  136.7280 O   0  0  0  0  0  0  0  0  0  0  0  0
  191.5480  176.9930  139.2060 C   0  0  0  0  0  2  0  0  0  0  0  0
  190.3200  176.4490  139.9170 C   0  0  0  0  0  2  0  0  0  0  0  0
  189.5030  177.5840  140.5090 C   0  0  0  0  0  2  0  0  0  0  0  0
  188.4470  178.2970  142.6110 N   0  0  0  0  0  2  0  0  0  0  0  0
  191.6290  176.8920  144.3010 C   0  0  2  0  0  3  0  0  0  0  0  0
  189.7730  176.9300  145.8990 O   0  0  0  0  0  0  0  0  0  0  0  0
  187.6120  177.1000  145.1220 O   0  0  0  0  0  0  0  0  0  0  0  0
  191.1550  177.2450  145.7190 C   0  0  0  0  0  2  0  0  0  0  0  0
  188.8460  177.2520  144.9110 C   0  0  0  0  0  0  0  0  0  0  0  0
  189.7080  176.5360  142.7620 N   0  0  1  0  0  0  0  0  0  0  0  0
  188.7960  177.1450  141.7950 C   0  0  2  0  0  3  0  0  0  0  0  0
  190.7520  177.5000  143.1790 C   0  0  1  0  0  3  0  0  0  0  0  0
  189.3570  177.7090  143.5810 C   0  0  1  0  0  0  0  0  0  0  0  0
  191.7520  175.5070  144.1630 O   0  0  0  0  0  1  0  0  0  0  0  0
  1 38  1  1  0  0  0
  2  9  1  0  0  0  0
  3 11  1  1  0  0  0
  3  8  1  0  0  0  0
  3  5  1  0  0  0  0
  4  3  1  0  0  0  0
  5  4  1  6  0  0  0
  5  2  1  0  0  0  0
  8  6  1  0  0  0  0
  9  7  2  0  0  0  0
  9  1  1  0  0  0  0
 10  2  1  0  0  0  0
 10  6  1  0  0  0  0
 11 12  1  0  0  0  0
 13 15  1  0  0  0  0
 14 13  1  0  0  0  0
 14 17  1  0  0  0  0
 15 12  1  6  0  0  0
 15 16  1  0  0  0  0
 16 19  1  0  0  0  0
 17 18  1  0  0  0  0
 18 16  2  0  0  0  0
 19 20  1  0  0  0  0
 20 21  1  6  0  0  0
 20 22  1  0  0  0  0
 22 23  1  0  0  0  0
 23 24  1  0  0  0  0
 24 26  1  0  0  0  0
 26 25  1  0  0  0  0
 27 31  1  0  0  0  0
 28 27  2  0  0  0  0
 28 30  1  0  0  0  0
 29 33  1  0  0  0  0
 29 32  1  0  0  0  0
 30 29  2  0  0  0  0
 31  1  1  0  0  0  0
 31 33  2  0  0  0  0
 35 34  1  1  0  0  0
 35 30  1  0  0  0  0
 35 37  1  0  0  0  0
 36 37  1  0  0  0  0
 38 39  1  0  0  0  0
 39 40  1  0  0  0  0
 40 48  1  0  0  0  0
 41 50  1  0  0  0  0
 42 51  1  1  0  0  0
 42 45  1  0  0  0  0
 45 43  1  0  0  0  0
 46 44  2  0  0  0  0
 46 43  1  0  0  0  0
 47 49  1  0  0  0  0
 47 50  1  0  0  0  0
 48 41  1  0  0  0  0
 48 47  1  0  0  0  0
 49 50  1  0  0  0  0
 49 42  1  0  0  0  0
 50 46  1  0  0  0  0
M  END
>  <MODEL>
5

>  <REMARK>
 VINA RESULT:      -7.0      1.735      2.137
  Name = 
  17 active torsions:
  status: ('A' for Active; 'I' for Inactive)
    1  A    between atoms: C_4  and  C_25
    2  A    between atoms: C_4  and  N_33
    3  A    between atoms: C_6  and  C_11
    4  A    between atoms: C_7  and  C_27
    5  A    between atoms: C_7  and  O_45
    6  A    between atoms: C_8  and  C_41
    7  A    between atoms: C_8  and  C_42
    8  A    between atoms: C_10  and  C_12
    9  A    between atoms: C_10  and  C_30
   10  A    between atoms: C_11  and  C_30
   11  A    between atoms: C_12  and  N_37
   12  A    between atoms: C_17  and  C_38
   13  A    between atoms: C_17  and  C_41
   14  A    between atoms: C_22  and  N_33
   15  A    between atoms: C_32  and  C_42
   16  A    between atoms: C_36  and  N_37
   17  A    between atoms: C_42  and  C_44
                            x       y       z     vdW  Elec       q    Type
                         _______ _______ _______ _____ _____    ______ ____

>  <TORSDO>
F 17

$$$$
=
 OpenBabel11032420493D

 51 57  0  0  1  0  0  0  0  0999 V2000
  188.6040  177.5320  143.5480 C   0  0  2  0  0  3  0  0  0  0  0  0
  189.1450  177.3220  141.0590 N   0  0  0  0  0  0  0  0  0  0  0  0
  189.8170  177.3070  138.6320 C   0  0  1  0  0  0  0  0  0  0  0  0
  191.0400  177.4990  139.5040 C   0  0  0  0  0  2  0  0  0  0  0  0
  189.8890  176.6260  139.9970 C   0  0  1  0  0  3  0  0  0  0  0  0
  187.8350  178.6280  139.4540 C   0  0  0  0  0  2  0  0  0  0  0  0
  189.6420  175.6090  142.5710 O   0  0  0  0  0  0  0  0  0  0  0  0
  188.9440  178.5490  138.4240 C   0  0  0  0  0  2  0  0  0  0  0  0
  189.1600  176.7610  142.3820 C   0  0  0  0  0  0  0  0  0  0  0  0
  188.4550  178.5970  140.8360 C   0  0  0  0  0  2  0  0  0  0  0  0
  190.0260  176.3990  137.5080 N   0  0  0  0  0  2  0  0  0  0  0  0
  189.5670  177.0420  136.2830 C   0  0  0  0  0  2  0  0  0  0  0  0
  187.3100  176.2280  135.5360 C   0  0  0  0  0  2  0  0  0  0  0  0
  186.8160  175.6360  136.8490 C   0  0  0  0  0  2  0  0  0  0  0  0
  188.8270  176.0400  135.4040 C   0  0  2  0  0  3  0  0  0  0  0  0
  189.2750  174.6390  135.7540 C   0  0  0  0  0  0  0  0  0  0  0  0
  187.0710  174.1350  136.8410 C   0  0  0  0  0  2  0  0  0  0  0  0
  188.4910  173.8090  136.4630 C   0  0  0  0  0  3  0  0  0  0  0  0
  190.6020  174.2430  135.3840 N   0  0  0  0  0  2  0  0  0  0  0  0
  191.4480  173.3740  136.1930 C   0  0  2  0  0  3  0  0  0  0  0  0
  191.6630  173.9450  137.4480 O   0  0  0  0  0  1  0  0  0  0  0  0
  192.7740  173.1130  135.4870 C   0  0  0  0  0  2  0  0  0  0  0  0
  193.9830  173.5130  136.3300 C   0  0  0  0  0  2  0  0  0  0  0  0
  194.6740  172.3000  136.9350 C   0  0  0  0  0  2  0  0  0  0  0  0
  195.4290  173.0150  139.0910 O   0  0  0  0  0  1  0  0  0  0  0  0
  195.8580  172.7150  137.7950 C   0  0  0  0  0  2  0  0  0  0  0  0
  190.7400  176.9100  144.7530 C   0  0  0  0  0  3  0  0  0  0  0  0
  191.4590  176.7270  145.9340 C   0  0  0  0  0  3  0  0  0  0  0  0
  189.5040  177.3530  147.2260 C   0  0  0  0  0  0  0  0  0  0  0  0
  190.8500  176.9450  147.1770 C   0  0  0  0  0  0  0  0  0  0  0  0
  189.4000  177.3210  144.8000 C   0  0  0  0  0  0  0  0  0  0  0  0
  188.6850  177.6450  148.7530 Cl  0  0  0  0  0  0  0  0  0  0  0  0
  188.7900  177.5370  146.0390 C   0  0  0  0  0  3  0  0  0  0  0  0
  191.9510  178.0360  149.0350 N   0  0  0  0  0  1  0  0  0  0  0  0
  191.6350  176.7510  148.4380 C   0  0  2  0  0  3  0  0  0  0  0  0
  193.6210  176.3730  149.1630 O   0  0  0  0  0  1  0  0  0  0  0  0
  192.8150  176.0520  148.1720 O   0  0  0  0  0  0  0  0  0  0  0  0
  187.1270  177.2420  143.7690 C   0  0  0  0  0  2  0  0  0  0  0  0
  186.3510  178.5430  143.8890 C   0  0  0  0  0  2  0  0  0  0  0  0
  185.1260  178.3500  144.7660 C   0  0  0  0  0  2  0  0  0  0  0  0
  182.7090  178.4430  144.3270 N   0  0  0  0  0  2  0  0  0  0  0  0
  183.7160  178.2900  140.5960 C   0  0  2  0  0  3  0  0  0  0  0  0
  181.5010  179.3070  140.8300 O   0  0  0  0  0  0  0  0  0  0  0  0
  180.8420  180.1290  142.8780 O   0  0  0  0  0  0  0  0  0  0  0  0
  182.2650  178.3480  140.0980 C   0  0  0  0  0  2  0  0  0  0  0  0
  181.6100  179.3800  142.2170 C   0  0  0  0  0  0  0  0  0  0  0  0
  183.9580  179.3790  142.8190 N   0  0  1  0  0  0  0  0  0  0  0  0
  183.9500  179.1980  144.2700 C   0  0  2  0  0  3  0  0  0  0  0  0
  183.8440  178.0770  142.1250 C   0  0  1  0  0  3  0  0  0  0  0  0
  182.7050  178.6070  142.8820 C   0  0  1  0  0  0  0  0  0  0  0  0
  184.4180  179.4220  140.1750 O   0  0  0  0  0  1  0  0  0  0  0  0
  1 38  1  1  0  0  0
  1 31  1  0  0  0  0
  2  9  1  0  0  0  0
  3 11  1  6  0  0  0
  3  4  1  0  0  0  0
  3  5  1  0  0  0  0
  5  4  1  1  0  0  0
  5  2  1  0  0  0  0
  6 10  1  0  0  0  0
  8  3  1  0  0  0  0
  8  6  1  0  0  0  0
  9  7  2  0  0  0  0
  9  1  1  0  0  0  0
 10  2  1  0  0  0  0
 12 11  1  0  0  0  0
 13 14  1  0  0  0  0
 15 13  1  0  0  0  0
 15 16  1  0  0  0  0
 15 12  1  1  0  0  0
 16 18  2  0  0  0  0
 17 14  1  0  0  0  0
 18 17  1  0  0  0  0
 19 16  1  0  0  0  0
 19 20  1  0  0  0  0
 20 21  1  1  0  0  0
 22 20  1  0  0  0  0
 22 23  1  0  0  0  0
 23 24  1  0  0  0  0
 24 26  1  0  0  0  0
 26 25  1  0  0  0  0
 27 31  2  0  0  0  0
 27 28  1  0  0  0  0
 28 30  2  0  0  0  0
 29 32  1  0  0  0  0
 30 29  1  0  0  0  0
 30 35  1  0  0  0  0
 31 33  1  0  0  0  0
 33 29  2  0  0  0  0
 35 34  1  6  0  0  0
 37 35  1  0  0  0  0
 37 36  1  0  0  0  0
 38 39  1  0  0  0  0
 39 40  1  0  0  0  0
 42 51  1  1  0  0  0
 42 49  1  0  0  0  0
 43 46  1  0  0  0  0
 45 42  1  0  0  0  0
 45 43  1  0  0  0  0
 46 44  2  0  0  0  0
 46 50  1  0  0  0  0
 47 50  1  0  0  0  0
 47 48  1  0  0  0  0
 48 41  1  0  0  0  0
 48 40  1  0  0  0  0
 49 47  1  0  0  0  0
 49 50  1  0  0  0  0
 50 41  1  0  0  0  0
M  END
>  <MODEL>
6

>  <REMARK>
 VINA RESULT:      -6.9      3.124      9.188
  Name = 
  17 active torsions:
  status: ('A' for Active; 'I' for Inactive)
    1  A    between atoms: C_4  and  C_25
    2  A    between atoms: C_4  and  N_33
    3  A    between atoms: C_6  and  C_11
    4  A    between atoms: C_7  and  C_27
    5  A    between atoms: C_7  and  O_45
    6  A    between atoms: C_8  and  C_41
    7  A    between atoms: C_8  and  C_42
    8  A    between atoms: C_10  and  C_12
    9  A    between atoms: C_10  and  C_30
   10  A    between atoms: C_11  and  C_30
   11  A    between atoms: C_12  and  N_37
   12  A    between atoms: C_17  and  C_38
   13  A    between atoms: C_17  and  C_41
   14  A    between atoms: C_22  and  N_33
   15  A    between atoms: C_32  and  C_42
   16  A    between atoms: C_36  and  N_37
   17  A    between atoms: C_42  and  C_44
                            x       y       z     vdW  Elec       q    Type
                         _______ _______ _______ _____ _____    ______ ____

>  <TORSDO>
F 17

$$$$
=
 OpenBabel11032420493D

 51 57  0  0  1  0  0  0  0  0999 V2000
  188.6740  177.3120  143.5330 C   0  0  2  0  0  3  0  0  0  0  0  0
  189.3980  177.1360  141.0870 N   0  0  0  0  0  0  0  0  0  0  0  0
  190.2430  177.1590  138.7150 C   0  0  1  0  0  0  0  0  0  0  0  0
  191.3960  177.3710  139.6750 C   0  0  0  0  0  2  0  0  0  0  0  0
  190.2330  176.4680  140.0780 C   0  0  1  0  0  3  0  0  0  0  0  0
  188.1770  178.4260  139.4020 C   0  0  0  0  0  2  0  0  0  0  0  0
  189.8250  175.4220  142.6200 O   0  0  0  0  0  0  0  0  0  0  0  0
  189.3580  178.3820  138.4540 C   0  0  0  0  0  2  0  0  0  0  0  0
  189.3310  176.5650  142.4040 C   0  0  0  0  0  0  0  0  0  0  0  0
  188.6960  178.3970  140.8240 C   0  0  0  0  0  2  0  0  0  0  0  0
  190.5540  176.2660  137.6030 N   0  0  0  0  0  2  0  0  0  0  0  0
  189.8900  176.7520  136.4000 C   0  0  0  0  0  2  0  0  0  0  0  0
  189.2110  175.0010  134.7310 C   0  0  0  0  0  2  0  0  0  0  0  0
  189.1230  173.7980  135.6620 C   0  0  0  0  0  2  0  0  0  0  0  0
  190.3330  175.9440  135.1870 C   0  0  2  0  0  3  0  0  0  0  0  0
  191.6160  175.2130  135.5110 C   0  0  0  0  0  0  0  0  0  0  0  0
  190.4210  173.0080  135.5730 C   0  0  0  0  0  2  0  0  0  0  0  0
  191.6280  173.8900  135.7480 C   0  0  0  0  0  3  0  0  0  0  0  0
  192.8160  175.9840  135.6490 N   0  0  0  0  0  2  0  0  0  0  0  0
  193.9790  175.5510  136.4140 C   0  0  2  0  0  3  0  0  0  0  0  0
  193.9340  176.0870  137.7020 O   0  0  0  0  0  1  0  0  0  0  0  0
  195.2660  175.9610  135.7060 C   0  0  0  0  0  2  0  0  0  0  0  0
  196.2530  174.8050  135.5550 C   0  0  0  0  0  2  0  0  0  0  0  0
  197.6960  175.2810  135.6510 C   0  0  0  0  0  2  0  0  0  0  0  0
  197.6300  173.5450  137.2980 O   0  0  0  0  0  1  0  0  0  0  0  0
  198.4570  174.5110  136.7200 C   0  0  0  0  0  2  0  0  0  0  0  0
  190.8200  176.9120  144.8120 C   0  0  0  0  0  3  0  0  0  0  0  0
  191.5180  176.8240  146.0170 C   0  0  0  0  0  3  0  0  0  0  0  0
  189.4790  177.3140  147.2370 C   0  0  0  0  0  0  0  0  0  0  0  0
  190.8560  177.0230  147.2360 C   0  0  0  0  0  0  0  0  0  0  0  0
  189.4490  177.2060  144.8110 C   0  0  0  0  0  0  0  0  0  0  0  0
  188.5940  177.5760  148.7320 Cl  0  0  0  0  0  0  0  0  0  0  0  0
  188.7870  177.4020  146.0260 C   0  0  0  0  0  3  0  0  0  0  0  0
  191.8090  178.2570  149.0860 N   0  0  0  0  0  1  0  0  0  0  0  0
  191.6180  176.9330  148.5220 C   0  0  2  0  0  3  0  0  0  0  0  0
  193.4860  176.4440  149.4630 O   0  0  0  0  0  1  0  0  0  0  0  0
  192.8590  176.3270  148.3100 O   0  0  0  0  0  0  0  0  0  0  0  0
  187.2240  176.8960  143.7220 C   0  0  0  0  0  2  0  0  0  0  0  0
  186.3490  178.1230  143.9210 C   0  0  0  0  0  2  0  0  0  0  0  0
  185.0060  177.9320  143.2390 C   0  0  0  0  0  2  0  0  0  0  0  0
  185.2190  179.3970  141.2770 N   0  0  0  0  0  2  0  0  0  0  0  0
  181.5550  178.4000  140.5460 C   0  0  2  0  0  3  0  0  0  0  0  0
  182.6580  179.1240  138.4830 O   0  0  0  0  0  0  0  0  0  0  0  0
  184.9580  179.1910  138.3920 O   0  0  0  0  0  0  0  0  0  0  0  0
  181.4720  179.2490  139.2690 C   0  0  0  0  0  2  0  0  0  0  0  0
  183.9100  179.1650  139.0920 C   0  0  0  0  0  0  0  0  0  0  0  0
  183.8930  177.6970  141.0210 N   0  0  1  0  0  0  0  0  0  0  0  0
  185.1410  178.0130  141.7160 C   0  0  2  0  0  3  0  0  0  0  0  0
  182.8290  178.6590  141.3880 C   0  0  1  0  0  3  0  0  0  0  0  0
  183.9740  179.1030  140.5850 C   0  0  1  0  0  0  0  0  0  0  0  0
  181.4110  177.0450  140.2370 O   0  0  0  0  0  1  0  0  0  0  0  0
  1 38  1  1  0  0  0
  1 31  1  0  0  0  0
  2  9  1  0  0  0  0
  3 11  1  6  0  0  0
  3  4  1  0  0  0  0
  3  5  1  0  0  0  0
  5  4  1  1  0  0  0
  5  2  1  0  0  0  0
  6 10  1  0  0  0  0
  8  3  1  0  0  0  0
  8  6  1  0  0  0  0
  9  7  2  0  0  0  0
  9  1  1  0  0  0  0
 10  2  1  0  0  0  0
 12 11  1  0  0  0  0
 13 15  1  0  0  0  0
 13 14  1  0  0  0  0
 15 16  1  0  0  0  0
 15 12  1  1  0  0  0
 16 19  1  0  0  0  0
 16 18  2  0  0  0  0
 17 14  1  0  0  0  0
 17 18  1  0  0  0  0
 19 20  1  0  0  0  0
 20 21  1  1  0  0  0
 22 20  1  0  0  0  0
 23 24  1  0  0  0  0
 23 22  1  0  0  0  0
 24 26  1  0  0  0  0
 26 25  1  0  0  0  0
 27 28  1  0  0  0  0
 28 30  2  0  0  0  0
 29 32  1  0  0  0  0
 30 29  1  0  0  0  0
 30 35  1  0  0  0  0
 31 27  2  0  0  0  0
 31 33  1  0  0  0  0
 33 29  2  0  0  0  0
 35 34  1  6  0  0  0
 37 35  1  0  0  0  0
 37 36  1  0  0  0  0
 38 39  1  0  0  0  0
 40 39  1  0  0  0  0
 41 48  1  0  0  0  0
 42 51  1  6  0  0  0
 42 49  1  0  0  0  0
 43 46  1  0  0  0  0
 43 45  1  0  0  0  0
 44 46  2  0  0  0  0
 45 42  1  0  0  0  0
 46 50  1  0  0  0  0
 47 49  1  0  0  0  0
 47 48  1  0  0  0  0
 48 40  1  0  0  0  0
 50 47  1  0  0  0  0
 50 41  1  0  0  0  0
 50 49  1  0  0  0  0
M  END
>  <MODEL>
7

>  <REMARK>
 VINA RESULT:      -6.9      3.110      9.873
  Name = 
  17 active torsions:
  status: ('A' for Active; 'I' for Inactive)
    1  A    between atoms: C_4  and  C_25
    2  A    between atoms: C_4  and  N_33
    3  A    between atoms: C_6  and  C_11
    4  A    between atoms: C_7  and  C_27
    5  A    between atoms: C_7  and  O_45
    6  A    between atoms: C_8  and  C_41
    7  A    between atoms: C_8  and  C_42
    8  A    between atoms: C_10  and  C_12
    9  A    between atoms: C_10  and  C_30
   10  A    between atoms: C_11  and  C_30
   11  A    between atoms: C_12  and  N_37
   12  A    between atoms: C_17  and  C_38
   13  A    between atoms: C_17  and  C_41
   14  A    between atoms: C_22  and  N_33
   15  A    between atoms: C_32  and  C_42
   16  A    between atoms: C_36  and  N_37
   17  A    between atoms: C_42  and  C_44
                            x       y       z     vdW  Elec       q    Type
                         _______ _______ _______ _____ _____    ______ ____

>  <TORSDO>
F 17

$$$$
=
 OpenBabel11032420493D

 51 57  0  0  1  0  0  0  0  0999 V2000
  189.6990  176.9800  137.1230 C   0  0  2  0  0  3  0  0  0  0  0  0
  187.2590  176.2350  136.9700 N   0  0  0  0  0  0  0  0  0  0  0  0
  184.8920  175.4640  136.5860 C   0  0  1  0  0  0  0  0  0  0  0  0
  185.8600  174.5130  135.9120 C   0  0  0  0  0  2  0  0  0  0  0  0
  186.2540  175.1910  137.2220 C   0  0  1  0  0  3  0  0  0  0  0  0
  185.5650  177.8750  136.3080 C   0  0  0  0  0  2  0  0  0  0  0  0
  188.7930  175.1350  138.3500 O   0  0  0  0  0  0  0  0  0  0  0  0
  184.6250  176.7800  135.8480 C   0  0  0  0  0  2  0  0  0  0  0  0
  188.5740  176.0630  137.5210 C   0  0  0  0  0  0  0  0  0  0  0  0
  186.9910  177.4010  136.1200 C   0  0  0  0  0  2  0  0  0  0  0  0
  183.7820  174.7990  137.2620 N   0  0  0  0  0  2  0  0  0  0  0  0
  182.7740  175.7930  137.6130 C   0  0  0  0  0  2  0  0  0  0  0  0
  180.7980  174.9630  138.9260 C   0  0  0  0  0  2  0  0  0  0  0  0
  179.8120  176.0830  138.6170 C   0  0  0  0  0  2  0  0  0  0  0  0
  182.2260  175.5200  139.0090 C   0  0  2  0  0  3  0  0  0  0  0  0
  182.3140  176.7810  139.8380 C   0  0  0  0  0  0  0  0  0  0  0  0
  179.8250  177.0830  139.7650 C   0  0  0  0  0  2  0  0  0  0  0  0
  181.2230  177.5140  140.1180 C   0  0  0  0  0  3  0  0  0  0  0  0
  183.6120  177.2280  140.2510 N   0  0  0  0  0  2  0  0  0  0  0  0
  183.8690  178.5230  140.8680 C   0  0  2  0  0  3  0  0  0  0  0  0
  184.6240  179.3240  140.0090 O   0  0  0  0  0  1  0  0  0  0  0  0
  184.5830  178.3460  142.2040 C   0  0  0  0  0  2  0  0  0  0  0  0
  184.2260  179.4330  143.2160 C   0  0  0  0  0  2  0  0  0  0  0  0
  183.9140  178.8450  144.5850 C   0  0  0  0  0  2  0  0  0  0  0  0
  184.9440  178.9700  146.7420 O   0  0  0  0  0  1  0  0  0  0  0  0
  185.1830  178.6550  145.4020 C   0  0  0  0  0  2  0  0  0  0  0  0
  192.0310  176.7420  138.0740 C   0  0  0  0  0  3  0  0  0  0  0  0
  193.2640  176.0900  138.1210 C   0  0  0  0  0  3  0  0  0  0  0  0
  192.5230  174.5580  136.3910 C   0  0  0  0  0  0  0  0  0  0  0  0
  193.5200  174.9970  137.2820 C   0  0  0  0  0  0  0  0  0  0  0  0
  191.0350  176.3030  137.1910 C   0  0  0  0  0  0  0  0  0  0  0  0
  192.7830  173.1930  135.3160 Cl  0  0  0  0  0  0  0  0  0  0  0  0
  191.2890  175.2150  136.3520 C   0  0  0  0  0  3  0  0  0  0  0  0
  195.0790  173.7890  138.6850 N   0  0  0  0  0  1  0  0  0  0  0  0
  194.8450  174.3010  137.3460 C   0  0  2  0  0  3  0  0  0  0  0  0
  196.7040  174.4460  136.2810 O   0  0  0  0  0  1  0  0  0  0  0  0
  195.8720  175.1790  136.9910 O   0  0  0  0  0  0  0  0  0  0  0  0
  189.6870  178.2750  137.9210 C   0  0  0  0  0  2  0  0  0  0  0  0
  188.5170  178.2790  138.8920 C   0  0  0  0  0  2  0  0  0  0  0  0
  188.9930  178.6200  140.2930 C   0  0  0  0  0  2  0  0  0  0  0  0
  188.8720  176.6090  141.7020 N   0  0  0  0  0  2  0  0  0  0  0  0
  190.6930  178.7580  144.3520 C   0  0  2  0  0  3  0  0  0  0  0  0
  191.0820  176.3790  144.7840 O   0  0  0  0  0  0  0  0  0  0  0  0
  190.7000  174.8450  143.1090 O   0  0  0  0  0  0  0  0  0  0  0  0
  190.7340  177.6250  145.3880 C   0  0  0  0  0  2  0  0  0  0  0  0
  190.5010  175.9990  143.5760 C   0  0  0  0  0  0  0  0  0  0  0  0
  190.6120  177.8640  142.0320 N   0  0  1  0  0  0  0  0  0  0  0  0
  189.7610  177.4500  140.9170 C   0  0  2  0  0  3  0  0  0  0  0  0
  189.8010  178.4490  143.1230 C   0  0  1  0  0  3  0  0  0  0  0  0
  189.7030  177.0160  142.8230 C   0  0  1  0  0  0  0  0  0  0  0  0
  191.9890  179.1100  143.9680 O   0  0  0  0  0  1  0  0  0  0  0  0
  1 31  1  0  0  0  0
  1  9  1  0  0  0  0
  1 38  1  1  0  0  0
  2  5  1  0  0  0  0
  2  9  1  0  0  0  0
  3  5  1  0  0  0  0
  3 11  1  1  0  0  0
  4  3  1  0  0  0  0
  5  4  1  6  0  0  0
  8  6  1  0  0  0  0
  8  3  1  0  0  0  0
  9  7  2  0  0  0  0
 10  6  1  0  0  0  0
 10  2  1  0  0  0  0
 11 12  1  0  0  0  0
 13 15  1  0  0  0  0
 14 13  1  0  0  0  0
 14 17  1  0  0  0  0
 15 12  1  6  0  0  0
 15 16  1  0  0  0  0
 16 18  2  0  0  0  0
 16 19  1  0  0  0  0
 17 18  1  0  0  0  0
 19 20  1  0  0  0  0
 20 21  1  6  0  0  0
 20 22  1  0  0  0  0
 22 23  1  0  0  0  0
 23 24  1  0  0  0  0
 24 26  1  0  0  0  0
 26 25  1  0  0  0  0
 27 28  1  0  0  0  0
 29 30  1  0  0  0  0
 30 35  1  0  0  0  0
 30 28  2  0  0  0  0
 31 27  2  0  0  0  0
 32 29  1  0  0  0  0
 33 29  2  0  0  0  0
 33 31  1  0  0  0  0
 35 34  1  1  0  0  0
 36 37  1  0  0  0  0
 37 35  1  0  0  0  0
 38 39  1  0  0  0  0
 39 40  1  0  0  0  0
 40 48  1  0  0  0  0
 41 50  1  0  0  0  0
 42 51  1  6  0  0  0
 42 45  1  0  0  0  0
 43 45  1  0  0  0  0
 44 46  2  0  0  0  0
 46 43  1  0  0  0  0
 47 50  1  0  0  0  0
 47 49  1  0  0  0  0
 48 41  1  0  0  0  0
 48 47  1  0  0  0  0
 49 42  1  0  0  0  0
 50 49  1  0  0  0  0
 50 46  1  0  0  0  0
M  END
>  <MODEL>
8

>  <REMARK>
 VINA RESULT:      -6.5      2.104      2.753
  Name = 
  17 active torsions:
  status: ('A' for Active; 'I' for Inactive)
    1  A    between atoms: C_4  and  C_25
    2  A    between atoms: C_4  and  N_33
    3  A    between atoms: C_6  and  C_11
    4  A    between atoms: C_7  and  C_27
    5  A    between atoms: C_7  and  O_45
    6  A    between atoms: C_8  and  C_41
    7  A    between atoms: C_8  and  C_42
    8  A    between atoms: C_10  and  C_12
    9  A    between atoms: C_10  and  C_30
   10  A    between atoms: C_11  and  C_30
   11  A    between atoms: C_12  and  N_37
   12  A    between atoms: C_17  and  C_38
   13  A    between atoms: C_17  and  C_41
   14  A    between atoms: C_22  and  N_33
   15  A    between atoms: C_32  and  C_42
   16  A    between atoms: C_36  and  N_37
   17  A    between atoms: C_42  and  C_44
                            x       y       z     vdW  Elec       q    Type
                         _______ _______ _______ _____ _____    ______ ____

>  <TORSDO>
F 17

$$$$
=
 OpenBabel11032420493D

 51 57  0  0  1  0  0  0  0  0999 V2000
  190.9460  176.6120  138.3610 C   0  0  2  0  0  3  0  0  0  0  0  0
  188.5050  176.7000  137.6080 N   0  0  0  0  0  0  0  0  0  0  0  0
  186.1630  176.9660  136.7210 C   0  0  1  0  0  0  0  0  0  0  0  0
  187.1530  176.9750  135.5740 C   0  0  0  0  0  2  0  0  0  0  0  0
  187.4250  176.1100  136.8020 C   0  0  1  0  0  3  0  0  0  0  0  0
  186.9880  178.2740  138.7100 C   0  0  0  0  0  2  0  0  0  0  0  0
  189.8090  174.7800  137.3230 O   0  0  0  0  0  0  0  0  0  0  0  0
  186.0530  178.2700  137.5180 C   0  0  0  0  0  2  0  0  0  0  0  0
  189.7370  175.9710  137.7360 C   0  0  0  0  0  0  0  0  0  0  0  0
  188.3990  178.0290  138.2190 C   0  0  0  0  0  2  0  0  0  0  0  0
  184.9480  176.2020  136.4510 N   0  0  0  0  0  2  0  0  0  0  0  0
  184.0070  176.4010  137.5460 C   0  0  0  0  0  2  0  0  0  0  0  0
  182.3130  178.1180  136.8430 C   0  0  0  0  0  2  0  0  0  0  0  0
  182.0240  178.7470  138.2000 C   0  0  0  0  0  2  0  0  0  0  0  0
  182.6000  176.6190  137.0020 C   0  0  2  0  0  3  0  0  0  0  0  0
  181.6010  175.9240  137.8980 C   0  0  0  0  0  0  0  0  0  0  0  0
  180.7630  178.1180  138.7780 C   0  0  0  0  0  2  0  0  0  0  0  0
  180.8210  176.6150  138.7460 C   0  0  0  0  0  3  0  0  0  0  0  0
  181.5670  174.4910  137.8870 N   0  0  0  0  0  2  0  0  0  0  0  0
  181.4670  173.6880  136.6740 C   0  0  2  0  0  3  0  0  0  0  0  0
  180.4220  174.1540  135.8740 O   0  0  0  0  0  1  0  0  0  0  0  0
  181.2620  172.2180  137.0230 C   0  0  0  0  0  2  0  0  0  0  0  0
  182.5190  171.3770  136.8060 C   0  0  0  0  0  2  0  0  0  0  0  0
  183.5200  172.0840  135.9040 C   0  0  0  0  0  2  0  0  0  0  0  0
  184.6360  172.5700  137.9650 O   0  0  0  0  0  1  0  0  0  0  0  0
  184.8500  172.2870  136.6130 C   0  0  0  0  0  2  0  0  0  0  0  0
  192.6550  176.6800  136.4970 C   0  0  0  0  0  3  0  0  0  0  0  0
  193.8510  176.2420  135.9280 C   0  0  0  0  0  3  0  0  0  0  0  0
  194.1960  174.7420  137.8040 C   0  0  0  0  0  0  0  0  0  0  0  0
  194.6300  175.2720  136.5740 C   0  0  0  0  0  0  0  0  0  0  0  0
  192.2240  176.1570  137.7240 C   0  0  0  0  0  0  0  0  0  0  0  0
  195.1290  173.5260  138.6630 Cl  0  0  0  0  0  0  0  0  0  0  0  0
  192.9980  175.1870  138.3680 C   0  0  0  0  0  3  0  0  0  0  0  0
  195.8250  173.4150  135.5870 N   0  0  0  0  0  1  0  0  0  0  0  0
  195.9160  174.8160  135.9570 C   0  0  2  0  0  3  0  0  0  0  0  0
  197.6340  176.0360  136.3710 O   0  0  0  0  0  1  0  0  0  0  0  0
  196.9750  175.0000  136.8490 O   0  0  0  0  0  0  0  0  0  0  0  0
  190.9750  176.4210  139.8700 C   0  0  0  0  0  2  0  0  0  0  0  0
  191.3830  177.7150  140.5540 C   0  0  0  0  0  2  0  0  0  0  0  0
  191.7070  177.4630  142.0150 C   0  0  0  0  0  2  0  0  0  0  0  0
  189.7720  178.1810  143.3490 N   0  0  0  0  0  2  0  0  0  0  0  0
  191.7230  176.7290  146.3560 C   0  0  2  0  0  3  0  0  0  0  0  0
  189.3260  176.7850  146.8550 O   0  0  0  0  0  0  0  0  0  0  0  0
  187.8140  176.9860  145.1290 O   0  0  0  0  0  0  0  0  0  0  0  0
  190.6240  177.0830  147.3690 C   0  0  0  0  0  2  0  0  0  0  0  0
  188.9960  177.1230  145.5440 C   0  0  0  0  0  0  0  0  0  0  0  0
  190.7850  176.4040  144.0750 N   0  0  1  0  0  0  0  0  0  0  0  0
  190.4610  177.0290  142.7930 C   0  0  2  0  0  3  0  0  0  0  0  0
  191.5050  177.3520  144.9550 C   0  0  1  0  0  3  0  0  0  0  0  0
  190.0920  177.5790  144.6330 C   0  0  1  0  0  0  0  0  0  0  0  0
  191.8840  175.3440  146.2820 O   0  0  0  0  0  1  0  0  0  0  0  0
  1 38  1  1  0  0  0
  2  9  1  0  0  0  0
  2 10  1  0  0  0  0
  3 11  1  6  0  0  0
  3  5  1  0  0  0  0
  3  8  1  0  0  0  0
  4  3  1  0  0  0  0
  5  4  1  6  0  0  0
  5  2  1  0  0  0  0
  7  9  2  0  0  0  0
  8  6  1  0  0  0  0
  9  1  1  0  0  0  0
 10  6  1  0  0  0  0
 11 12  1  0  0  0  0
 13 15  1  0  0  0  0
 13 14  1  0  0  0  0
 14 17  1  0  0  0  0
 15 12  1  1  0  0  0
 15 16  1  0  0  0  0
 16 18  2  0  0  0  0
 18 17  1  0  0  0  0
 19 16  1  0  0  0  0
 20 21  1  6  0  0  0
 20 22  1  0  0  0  0
 20 19  1  0  0  0  0
 23 22  1  0  0  0  0
 24 26  1  0  0  0  0
 24 23  1  0  0  0  0
 26 25  1  0  0  0  0
 27 31  1  0  0  0  0
 28 27  2  0  0  0  0
 28 30  1  0  0  0  0
 29 33  1  0  0  0  0
 29 32  1  0  0  0  0
 30 29  2  0  0  0  0
 31  1  1  0  0  0  0
 31 33  2  0  0  0  0
 35 34  1  1  0  0  0
 35 30  1  0  0  0  0
 35 37  1  0  0  0  0
 36 37  1  0  0  0  0
 38 39  1  0  0  0  0
 39 40  1  0  0  0  0
 40 48  1  0  0  0  0
 41 50  1  0  0  0  0
 42 51  1  6  0  0  0
 42 45  1  0  0  0  0
 43 45  1  0  0  0  0
 44 46  2  0  0  0  0
 46 43  1  0  0  0  0
 47 50  1  0  0  0  0
 47 49  1  0  0  0  0
 48 41  1  0  0  0  0
 48 47  1  0  0  0  0
 49 42  1  0  0  0  0
 50 49  1  0  0  0  0
 50 46  1  0  0  0  0
M  END
>  <MODEL>
9

>  <REMARK>
 VINA RESULT:      -6.4      2.665      4.099
  Name = 
  17 active torsions:
  status: ('A' for Active; 'I' for Inactive)
    1  A    between atoms: C_4  and  C_25
    2  A    between atoms: C_4  and  N_33
    3  A    between atoms: C_6  and  C_11
    4  A    between atoms: C_7  and  C_27
    5  A    between atoms: C_7  and  O_45
    6  A    between atoms: C_8  and  C_41
    7  A    between atoms: C_8  and  C_42
    8  A    between atoms: C_10  and  C_12
    9  A    between atoms: C_10  and  C_30
   10  A    between atoms: C_11  and  C_30
   11  A    between atoms: C_12  and  N_37
   12  A    between atoms: C_17  and  C_38
   13  A    between atoms: C_17  and  C_41
   14  A    between atoms: C_22  and  N_33
   15  A    between atoms: C_32  and  C_42
   16  A    between atoms: C_36  and  N_37
   17  A    between atoms: C_42  and  C_44
                            x       y       z     vdW  Elec       q    Type
                         _______ _______ _______ _____ _____    ______ ____

>  <TORSDO>
F 17

$$$$
