=
 OpenBabel11042411293D

 55 60  0  0  1  0  0  0  0  0999 V2000
  190.9330  177.0370  142.8510 C   0  0  0  0  0  0  0  0  0  0  0  0
  188.2360  177.5730  142.1300 C   0  0  0  0  0  3  0  0  0  0  0  0
  191.2480  176.7410  147.4970 S   0  0  0  0  0  0  0  0  0  0  0  0
  187.6130  177.7450  144.5740 C   0  0  0  0  0  0  0  0  0  0  0  0
  189.2220  177.2660  146.2500 C   0  0  0  0  0  0  0  0  0  0  0  0
  189.9250  177.2260  143.9260 C   0  0  0  0  0  0  0  0  0  0  0  0
  189.6070  177.1070  147.5730 C   0  0  0  0  0  3  0  0  0  0  0  0
  190.6200  177.4380  141.4410 C   0  0  0  0  0  2  0  0  0  0  0  0
  187.9600  177.5870  145.8830 N   0  0  0  0  0  0  0  0  0  0  0  0
  190.2300  177.0880  145.2920 C   0  0  0  0  0  0  0  0  0  0  0  0
  188.5950  177.5430  143.5620 C   0  0  0  0  0  0  0  0  0  0  0  0
  189.1450  177.4940  141.1530 C   0  0  0  0  0  0  0  0  0  0  0  0
  191.4770  176.7790  145.8290 C   0  0  0  0  0  3  0  0  0  0  0  0
  192.0780  176.5760  143.1050 O   0  0  0  0  0  0  0  0  0  0  0  0
  184.3860  178.3350  142.6990 C   0  0  0  0  0  0  0  0  0  0  0  0
  185.7190  178.0210  142.9730 C   0  0  0  0  0  3  0  0  0  0  0  0
  184.0140  178.8720  144.9820 C   0  0  0  0  0  3  0  0  0  0  0  0
  183.5650  178.7450  143.7060 N   0  0  0  0  0  0  0  0  0  0  0  0
  185.3420  178.5730  145.2890 C   0  0  0  0  0  3  0  0  0  0  0  0
  186.2140  178.1520  144.2780 C   0  0  0  0  0  0  0  0  0  0  0  0
  181.0960  176.5950  138.3590 Cl  0  0  0  0  0  0  0  0  0  0  0  0
  182.4220  178.5670  141.2480 C   0  0  0  0  0  3  0  0  0  0  0  0
  183.8650  178.1650  141.3090 C   0  0  1  0  0  3  0  0  0  0  0  0
  183.5420  177.7930  138.4670 C   0  0  1  0  0  3  0  0  0  0  0  0
  184.5040  178.8100  139.0190 C   0  0  0  0  0  3  0  0  0  0  0  0
  182.0490  178.0470  138.7580 C   0  0  2  0  0  3  0  0  0  0  0  0
  181.6600  178.5200  140.1430 C   0  0  0  0  0  3  0  0  0  0  0  0
  184.6680  178.9710  140.3330 C   0  0  0  0  0  3  0  0  0  0  0  0
  183.8100  177.5020  137.0510 N   0  0  0  0  0  2  0  0  0  0  0  0
  184.6700  175.9710  136.8150 P   0  0  2  0  0  0  0  0  0  0  0  0
  184.4280  175.4820  135.4010 O   0  0  0  0  0  0  0  0  0  0  0  0
  184.0510  174.8290  137.9120 O   0  0  0  0  0  0  0  0  0  0  0  0
  183.4470  173.8390  137.1340 C   0  0  0  0  0  1  0  0  0  0  0  0
  186.3470  176.1830  137.0390 O   0  0  0  0  0  0  0  0  0  0  0  0
  186.8620  177.4460  136.0180 P   0  0  0  0  0  0  0  0  0  0  0  0
  187.0830  178.8940  136.8690 O   0  0  0  0  0  1  0  0  0  0  0  0
  188.1560  177.0610  135.3370 O   0  0  0  0  0  1  0  0  0  0  0  0
  185.6810  177.6920  134.8330 O   0  0  0  0  0  0  0  0  0  0  0  0
  188.7040  177.4910  139.7290 C   0  0  0  0  0  2  0  0  0  0  0  0
  189.8510  177.8450  138.7960 C   0  0  0  0  0  2  0  0  0  0  0  0
  191.5720  176.6240  137.4190 N   0  0  0  0  0  2  0  0  0  0  0  0
  190.2910  176.6330  138.0530 C   0  0  0  0  0  0  0  0  0  0  0  0
  189.5420  175.6190  138.0040 O   0  0  0  0  0  0  0  0  0  0  0  0
  192.1050  175.4550  136.7340 C   0  0  1  0  0  3  0  0  0  0  0  0
  191.4830  176.3320  134.8720 O   0  0  0  0  0  1  0  0  0  0  0  0
  192.5420  175.8080  135.4540 O   0  0  0  0  0  0  0  0  0  0  0  0
  193.2520  174.8610  137.5510 C   0  0  2  0  0  3  0  0  0  0  0  0
  194.1500  175.8720  137.9150 O   0  0  0  0  0  1  0  0  0  0  0  0
  195.1210  173.0990  137.5470 C   0  0  2  0  0  3  0  0  0  0  0  0
  193.9810  173.7620  136.7700 C   0  0  1  0  0  3  0  0  0  0  0  0
  195.0670  171.6960  137.0760 C   0  0  0  0  0  0  0  0  0  0  0  0
  193.0360  172.6390  136.3390 C   0  0  0  0  0  2  0  0  0  0  0  0
  194.8880  173.1180  138.9120 F   0  0  0  0  0  0  0  0  0  0  0  0
  195.9330  170.8750  137.3340 O   0  0  0  0  0  0  0  0  0  0  0  0
  193.8740  171.3740  136.2590 C   0  0  0  0  0  2  0  0  0  0  0  0
  1 14  2  0  0  0  0
  1  6  1  0  0  0  0
  2 11  1  0  0  0  0
  3  7  1  0  0  0  0
  4  9  2  0  0  0  0
  5  7  2  0  0  0  0
  6 10  1  0  0  0  0
  8  1  1  0  0  0  0
  9  5  1  0  0  0  0
 10 13  2  0  0  0  0
 10  5  1  0  0  0  0
 11  6  2  0  0  0  0
 11  4  1  0  0  0  0
 12  8  1  0  0  0  0
 12  2  2  0  0  0  0
 13  3  1  0  0  0  0
 15 16  2  0  0  0  0
 15 18  1  0  0  0  0
 16 20  1  0  0  0  0
 17 19  1  0  0  0  0
 18 17  2  0  0  0  0
 20  4  1  0  0  0  0
 20 19  2  0  0  0  0
 22 23  1  0  0  0  0
 23 15  1  1  0  0  0
 24 29  1  6  0  0  0
 24 26  1  0  0  0  0
 24 25  1  0  0  0  0
 25 28  2  0  0  0  0
 26 21  1  1  0  0  0
 26 27  1  0  0  0  0
 27 22  2  0  0  0  0
 28 23  1  0  0  0  0
 30 31  2  6  0  0  0
 30 34  1  0  0  0  0
 30 29  1  0  0  0  0
 30 32  1  0  0  0  0
 33 32  1  0  0  0  0
 35 36  1  0  0  0  0
 35 34  1  0  0  0  0
 37 35  1  0  0  0  0
 38 35  2  0  0  0  0
 39 12  1  0  0  0  0
 40 39  1  0  0  0  0
 41 42  1  0  0  0  0
 42 40  1  0  0  0  0
 43 42  2  0  0  0  0
 44 46  1  6  0  0  0
 44 41  1  0  0  0  0
 44 47  1  0  0  0  0
 45 46  1  0  0  0  0
 47 48  1  6  0  0  0
 49 53  1  1  0  0  0
 50 49  1  0  0  0  0
 50 47  1  1  0  0  0
 51 54  2  0  0  0  0
 51 49  1  0  0  0  0
 52 50  1  0  0  0  0
 55 52  1  0  0  0  0
 55 51  1  0  0  0  0
M  END
>  <MODEL>
1

>  <REMARK>
 VINA RESULT:      -9.6      0.000      0.000
  Name = 
  14 active torsions:
  status: ('A' for Active; 'I' for Inactive)
    1  A    between atoms: C_2  and  C_28
    2  A    between atoms: C_4  and  C_27
    3  A    between atoms: C_4  and  C_44
    4  A    between atoms: C_6  and  C_20
    5  A    between atoms: C_6  and  C_31
    6  A    between atoms: O_7  and  P_17
    7  A    between atoms: N_10  and  P_17
    8  A    between atoms: N_10  and  C_29
    9  A    between atoms: O_13  and  P_17
   10  A    between atoms: O_13  and  P_18
   11  A    between atoms: C_14  and  C_49
   12  A    between atoms: C_20  and  N_25
   13  A    between atoms: C_20  and  O_53
   14  A    between atoms: C_27  and  C_46
                            x       y       z     vdW  Elec       q    Type
                         _______ _______ _______ _____ _____    ______ ____

>  <TORSDO>
F 14

$$$$
=
 OpenBabel11042411293D

 55 60  0  0  1  0  0  0  0  0999 V2000
  190.7800  177.1500  142.7700 C   0  0  0  0  0  0  0  0  0  0  0  0
  188.0720  177.6790  142.0820 C   0  0  0  0  0  3  0  0  0  0  0  0
  191.1330  176.7400  147.4040 S   0  0  0  0  0  0  0  0  0  0  0  0
  187.4660  177.7830  144.5340 C   0  0  0  0  0  0  0  0  0  0  0  0
  189.0930  177.2780  146.1860 C   0  0  0  0  0  0  0  0  0  0  0  0
  189.7780  177.3030  143.8560 C   0  0  0  0  0  0  0  0  0  0  0  0
  189.4900  177.0900  147.5010 C   0  0  0  0  0  3  0  0  0  0  0  0
  190.4520  177.5830  141.3720 C   0  0  0  0  0  2  0  0  0  0  0  0
  187.8250  177.5960  145.8370 N   0  0  0  0  0  0  0  0  0  0  0  0
  190.0950  177.1340  145.2160 C   0  0  0  0  0  0  0  0  0  0  0  0
  188.4430  177.6160  143.5100 C   0  0  0  0  0  0  0  0  0  0  0  0
  188.9740  177.6320  141.0970 C   0  0  0  0  0  0  0  0  0  0  0  0
  191.3490  176.8230  145.7360 C   0  0  0  0  0  3  0  0  0  0  0  0
  191.9300  176.6930  143.0030 O   0  0  0  0  0  0  0  0  0  0  0  0
  184.2100  178.3610  142.7080 C   0  0  0  0  0  0  0  0  0  0  0  0
  185.5480  178.0520  142.9620 C   0  0  0  0  0  3  0  0  0  0  0  0
  183.8690  178.8950  144.9960 C   0  0  0  0  0  3  0  0  0  0  0  0
  183.4020  178.7670  143.7260 N   0  0  0  0  0  0  0  0  0  0  0  0
  185.2030  178.6020  145.2830 C   0  0  0  0  0  3  0  0  0  0  0  0
  186.0620  178.1850  144.2590 C   0  0  0  0  0  0  0  0  0  0  0  0
  180.8890  176.5730  138.4110 Cl  0  0  0  0  0  0  0  0  0  0  0  0
  182.2160  178.5550  141.2930 C   0  0  0  0  0  3  0  0  0  0  0  0
  183.6690  178.1880  141.3250 C   0  0  1  0  0  3  0  0  0  0  0  0
  183.3060  177.8310  138.4860 C   0  0  1  0  0  3  0  0  0  0  0  0
  184.2510  178.8670  139.0300 C   0  0  0  0  0  3  0  0  0  0  0  0
  181.8120  178.0450  138.8060 C   0  0  2  0  0  3  0  0  0  0  0  0
  181.4360  178.4970  140.2010 C   0  0  0  0  0  3  0  0  0  0  0  0
  184.4350  179.0210  140.3430 C   0  0  0  0  0  3  0  0  0  0  0  0
  183.5560  177.5570  137.0640 N   0  0  0  0  0  2  0  0  0  0  0  0
  184.4360  176.0420  136.7990 P   0  0  2  0  0  0  0  0  0  0  0  0
  185.8470  176.1930  137.3320 O   0  0  0  0  0  0  0  0  0  0  0  0
  184.5010  175.7400  135.1280 O   0  0  0  0  0  0  0  0  0  0  0  0
  185.3400  176.7200  134.5940 C   0  0  0  0  0  1  0  0  0  0  0  0
  183.6780  174.7550  137.6220 O   0  0  0  0  0  0  0  0  0  0  0  0
  184.4930  173.3150  137.2170 P   0  0  0  0  0  0  0  0  0  0  0  0
  185.1670  173.3860  135.6650 O   0  0  0  0  0  0  0  0  0  0  0  0
  185.5850  173.0410  138.2270 O   0  0  0  0  0  1  0  0  0  0  0  0
  183.3830  172.0400  137.2640 O   0  0  0  0  0  1  0  0  0  0  0  0
  188.5220  177.6610  139.6760 C   0  0  0  0  0  2  0  0  0  0  0  0
  189.6150  178.1900  138.7610 C   0  0  0  0  0  2  0  0  0  0  0  0
  190.8520  176.0870  138.1380 N   0  0  0  0  0  2  0  0  0  0  0  0
  189.9800  177.1530  137.7580 C   0  0  0  0  0  0  0  0  0  0  0  0
  189.5060  177.2110  136.5910 O   0  0  0  0  0  0  0  0  0  0  0  0
  191.2020  174.9960  137.2390 C   0  0  1  0  0  3  0  0  0  0  0  0
  189.7840  173.3880  137.3990 O   0  0  0  0  0  1  0  0  0  0  0  0
  190.0460  174.4530  136.6710 O   0  0  0  0  0  0  0  0  0  0  0  0
  192.1470  175.5090  136.1520 C   0  0  2  0  0  3  0  0  0  0  0  0
  191.5560  175.3490  134.8930 O   0  0  0  0  0  1  0  0  0  0  0  0
  194.6780  175.6450  135.7410 C   0  0  2  0  0  3  0  0  0  0  0  0
  193.4970  174.7870  136.2010 C   0  0  1  0  0  3  0  0  0  0  0  0
  195.7820  175.1770  136.6100 C   0  0  0  0  0  0  0  0  0  0  0  0
  193.8370  174.2950  137.6090 C   0  0  0  0  0  2  0  0  0  0  0  0
  194.4590  176.9900  135.9870 F   0  0  0  0  0  0  0  0  0  0  0  0
  196.9470  175.4990  136.4360 O   0  0  0  0  0  0  0  0  0  0  0  0
  195.3540  174.2800  137.7080 C   0  0  0  0  0  2  0  0  0  0  0  0
  1 14  2  0  0  0  0
  1  6  1  0  0  0  0
  2 11  1  0  0  0  0
  3  7  1  0  0  0  0
  4  9  2  0  0  0  0
  5  7  2  0  0  0  0
  6 10  1  0  0  0  0
  8  1  1  0  0  0  0
  9  5  1  0  0  0  0
 10 13  2  0  0  0  0
 10  5  1  0  0  0  0
 11  6  2  0  0  0  0
 11  4  1  0  0  0  0
 12  8  1  0  0  0  0
 12  2  2  0  0  0  0
 13  3  1  0  0  0  0
 15 16  2  0  0  0  0
 15 18  1  0  0  0  0
 16 20  1  0  0  0  0
 17 19  1  0  0  0  0
 18 17  2  0  0  0  0
 20  4  1  0  0  0  0
 20 19  2  0  0  0  0
 22 23  1  0  0  0  0
 23 15  1  1  0  0  0
 24 29  1  6  0  0  0
 24 26  1  0  0  0  0
 24 25  1  0  0  0  0
 25 28  2  0  0  0  0
 26 21  1  1  0  0  0
 26 27  1  0  0  0  0
 27 22  2  0  0  0  0
 28 23  1  0  0  0  0
 30 29  1  0  0  0  0
 30 31  2  1  0  0  0
 30 34  1  0  0  0  0
 32 30  1  0  0  0  0
 33 32  1  0  0  0  0
 35 38  1  0  0  0  0
 35 34  1  0  0  0  0
 35 37  1  0  0  0  0
 36 35  2  0  0  0  0
 39 12  1  0  0  0  0
 40 39  1  0  0  0  0
 42 41  1  0  0  0  0
 42 40  1  0  0  0  0
 43 42  2  0  0  0  0
 44 46  1  6  0  0  0
 44 41  1  0  0  0  0
 46 45  1  0  0  0  0
 47 48  1  6  0  0  0
 47 44  1  0  0  0  0
 49 53  1  1  0  0  0
 49 50  1  0  0  0  0
 49 51  1  0  0  0  0
 50 47  1  1  0  0  0
 50 52  1  0  0  0  0
 51 55  1  0  0  0  0
 52 55  1  0  0  0  0
 54 51  2  0  0  0  0
M  END
>  <MODEL>
2

>  <REMARK>
 VINA RESULT:      -9.5      1.575      2.420
  Name = 
  14 active torsions:
  status: ('A' for Active; 'I' for Inactive)
    1  A    between atoms: C_2  and  C_28
    2  A    between atoms: C_4  and  C_27
    3  A    between atoms: C_4  and  C_44
    4  A    between atoms: C_6  and  C_20
    5  A    between atoms: C_6  and  C_31
    6  A    between atoms: O_7  and  P_17
    7  A    between atoms: N_10  and  P_17
    8  A    between atoms: N_10  and  C_29
    9  A    between atoms: O_13  and  P_17
   10  A    between atoms: O_13  and  P_18
   11  A    between atoms: C_14  and  C_49
   12  A    between atoms: C_20  and  N_25
   13  A    between atoms: C_20  and  O_53
   14  A    between atoms: C_27  and  C_46
                            x       y       z     vdW  Elec       q    Type
                         _______ _______ _______ _____ _____    ______ ____

>  <TORSDO>
F 14

$$$$
=
 OpenBabel11042411293D

 55 60  0  0  1  0  0  0  0  0999 V2000
  187.0150  177.7740  146.9340 C   0  0  0  0  0  0  0  0  0  0  0  0
  186.0440  178.4120  144.3380 C   0  0  0  0  0  3  0  0  0  0  0  0
  191.5390  176.6690  146.6490 S   0  0  0  0  0  0  0  0  0  0  0  0
  188.2890  177.8050  143.3460 C   0  0  0  0  0  0  0  0  0  0  0  0
  190.1010  177.2290  144.7640 C   0  0  0  0  0  0  0  0  0  0  0  0
  187.9340  177.6570  145.7720 C   0  0  0  0  0  0  0  0  0  0  0  0
  191.4250  176.8800  144.9840 C   0  0  0  0  0  3  0  0  0  0  0  0
  185.5360  177.9050  146.7180 C   0  0  0  0  0  2  0  0  0  0  0  0
  189.5980  177.4720  143.5320 N   0  0  0  0  0  0  0  0  0  0  0  0
  189.2890  177.3050  145.9040 C   0  0  0  0  0  0  0  0  0  0  0  0
  187.4320  177.9260  144.4780 C   0  0  0  0  0  0  0  0  0  0  0  0
  185.1800  178.4380  145.3580 C   0  0  0  0  0  0  0  0  0  0  0  0
  189.9500  177.0090  147.0940 C   0  0  0  0  0  3  0  0  0  0  0  0
  187.4480  177.7290  148.1150 O   0  0  0  0  0  0  0  0  0  0  0  0
  188.0450  177.5020  139.5880 C   0  0  0  0  0  0  0  0  0  0  0  0
  188.5160  177.3850  140.8980 C   0  0  0  0  0  3  0  0  0  0  0  0
  186.1970  178.7890  140.3390 C   0  0  0  0  0  3  0  0  0  0  0  0
  186.8980  178.1920  139.3400 N   0  0  0  0  0  0  0  0  0  0  0  0
  186.6430  178.6980  141.6580 C   0  0  0  0  0  3  0  0  0  0  0  0
  187.8200  177.9980  141.9490 C   0  0  0  0  0  0  0  0  0  0  0  0
  189.8520  173.3770  136.0660 Cl  0  0  0  0  0  0  0  0  0  0  0  0
  187.8130  176.1300  137.5680 C   0  0  0  0  0  3  0  0  0  0  0  0
  188.7820  176.8200  138.4810 C   0  0  1  0  0  3  0  0  0  0  0  0
  190.7340  175.9080  136.5640 C   0  0  1  0  0  3  0  0  0  0  0  0
  190.5030  177.3740  136.8090 C   0  0  0  0  0  3  0  0  0  0  0  0
  189.5480  175.1300  135.9570 C   0  0  2  0  0  3  0  0  0  0  0  0
  188.1580  175.4170  136.4830 C   0  0  0  0  0  3  0  0  0  0  0  0
  189.6140  177.7980  137.7090 C   0  0  0  0  0  3  0  0  0  0  0  0
  192.0010  175.6650  135.8600 N   0  0  0  0  0  2  0  0  0  0  0  0
  193.4100  175.7470  136.9320 P   0  0  2  0  0  0  0  0  0  0  0  0
  192.9660  176.2550  138.2900 O   0  0  0  0  0  0  0  0  0  0  0  0
  194.5310  176.8390  136.2690 O   0  0  0  0  0  0  0  0  0  0  0  0
  194.6160  176.5220  134.9110 C   0  0  0  0  0  1  0  0  0  0  0  0
  194.1070  174.2040  137.1280 O   0  0  0  0  0  0  0  0  0  0  0  0
  195.4720  174.3630  138.1350 P   0  0  0  0  0  0  0  0  0  0  0  0
  196.8330  174.8870  137.2740 O   0  0  0  0  0  0  0  0  0  0  0  0
  195.1770  175.3400  139.2510 O   0  0  0  0  0  1  0  0  0  0  0  0
  195.8150  172.8540  138.8160 O   0  0  0  0  0  1  0  0  0  0  0  0
  183.8060  178.9800  145.1510 C   0  0  0  0  0  2  0  0  0  0  0  0
  183.5210  179.2080  143.6750 C   0  0  0  0  0  2  0  0  0  0  0  0
  181.5730  179.1950  142.0770 N   0  0  0  0  0  2  0  0  0  0  0  0
  182.0720  179.0030  143.4030 C   0  0  0  0  0  0  0  0  0  0  0  0
  181.3010  178.6450  144.3340 O   0  0  0  0  0  0  0  0  0  0  0  0
  180.1850  178.9470  141.7140 C   0  0  1  0  0  3  0  0  0  0  0  0
  179.6090  180.9940  142.0320 O   0  0  0  0  0  1  0  0  0  0  0  0
  179.6450  180.0750  141.0890 O   0  0  0  0  0  0  0  0  0  0  0  0
  180.1060  177.7300  140.7920 C   0  0  2  0  0  3  0  0  0  0  0  0
  179.5330  176.6510  141.4750 O   0  0  0  0  0  1  0  0  0  0  0  0
  181.5770  175.9090  139.7360 C   0  0  2  0  0  3  0  0  0  0  0  0
  181.4890  177.3450  140.2580 C   0  0  1  0  0  3  0  0  0  0  0  0
  182.5260  176.0280  138.6050 C   0  0  0  0  0  0  0  0  0  0  0  0
  181.9390  178.2550  139.1130 C   0  0  0  0  0  2  0  0  0  0  0  0
  180.3580  175.4670  139.2480 F   0  0  0  0  0  0  0  0  0  0  0  0
  182.9970  175.0610  138.0290 O   0  0  0  0  0  0  0  0  0  0  0  0
  182.8600  177.4230  138.2350 C   0  0  0  0  0  2  0  0  0  0  0  0
  1 14  2  0  0  0  0
  2 11  1  0  0  0  0
  2 12  2  0  0  0  0
  3 13  1  0  0  0  0
  4  9  2  0  0  0  0
  4 11  1  0  0  0  0
  5  7  2  0  0  0  0
  5 10  1  0  0  0  0
  6 10  1  0  0  0  0
  6  1  1  0  0  0  0
  7  3  1  0  0  0  0
  8  1  1  0  0  0  0
  9  5  1  0  0  0  0
 10 13  2  0  0  0  0
 11  6  2  0  0  0  0
 12  8  1  0  0  0  0
 15 16  1  0  0  0  0
 16 20  2  0  0  0  0
 17 19  2  0  0  0  0
 18 15  2  0  0  0  0
 18 17  1  0  0  0  0
 19 20  1  0  0  0  0
 20  4  1  0  0  0  0
 22 23  1  0  0  0  0
 23 15  1  1  0  0  0
 24 29  1  6  0  0  0
 24 25  1  0  0  0  0
 25 28  2  0  0  0  0
 26 21  1  1  0  0  0
 26 27  1  0  0  0  0
 26 24  1  0  0  0  0
 27 22  2  0  0  0  0
 28 23  1  0  0  0  0
 29 30  1  0  0  0  0
 30 34  1  0  0  0  0
 30 31  2  1  0  0  0
 32 30  1  0  0  0  0
 33 32  1  0  0  0  0
 34 35  1  0  0  0  0
 35 38  1  0  0  0  0
 35 37  1  0  0  0  0
 36 35  2  0  0  0  0
 39 12  1  0  0  0  0
 40 39  1  0  0  0  0
 41 42  1  0  0  0  0
 42 40  1  0  0  0  0
 42 43  2  0  0  0  0
 44 46  1  6  0  0  0
 44 41  1  0  0  0  0
 46 45  1  0  0  0  0
 47 48  1  1  0  0  0
 47 44  1  0  0  0  0
 49 53  1  6  0  0  0
 49 50  1  0  0  0  0
 50 47  1  6  0  0  0
 51 49  1  0  0  0  0
 52 50  1  0  0  0  0
 54 51  2  0  0  0  0
 55 51  1  0  0  0  0
 55 52  1  0  0  0  0
M  END
>  <MODEL>
3

>  <REMARK>
 VINA RESULT:      -9.5      3.982      9.062
  Name = 
  14 active torsions:
  status: ('A' for Active; 'I' for Inactive)
    1  A    between atoms: C_2  and  C_28
    2  A    between atoms: C_4  and  C_27
    3  A    between atoms: C_4  and  C_44
    4  A    between atoms: C_6  and  C_20
    5  A    between atoms: C_6  and  C_31
    6  A    between atoms: O_7  and  P_17
    7  A    between atoms: N_10  and  P_17
    8  A    between atoms: N_10  and  C_29
    9  A    between atoms: O_13  and  P_17
   10  A    between atoms: O_13  and  P_18
   11  A    between atoms: C_14  and  C_49
   12  A    between atoms: C_20  and  N_25
   13  A    between atoms: C_20  and  O_53
   14  A    between atoms: C_27  and  C_46
                            x       y       z     vdW  Elec       q    Type
                         _______ _______ _______ _____ _____    ______ ____

>  <TORSDO>
F 14

$$$$
=
 OpenBabel11042411293D

 55 60  0  0  1  0  0  0  0  0999 V2000
  185.2480  178.4700  144.8950 C   0  0  0  0  0  0  0  0  0  0  0  0
  186.7530  178.3310  142.4860 C   0  0  0  0  0  3  0  0  0  0  0  0
  188.0850  177.7050  148.5200 S   0  0  0  0  0  0  0  0  0  0  0  0
  188.8080  177.6750  143.8040 C   0  0  0  0  0  0  0  0  0  0  0  0
  188.7410  177.6370  146.1750 C   0  0  0  0  0  0  0  0  0  0  0  0
  186.6940  178.1310  144.9680 C   0  0  0  0  0  0  0  0  0  0  0  0
  189.3340  177.4670  147.4170 C   0  0  0  0  0  3  0  0  0  0  0  0
  184.5240  178.4180  143.5830 C   0  0  0  0  0  2  0  0  0  0  0  0
  189.4200  177.5100  145.0110 N   0  0  0  0  0  0  0  0  0  0  0  0
  187.3720  177.9380  146.1840 C   0  0  0  0  0  0  0  0  0  0  0  0
  187.4250  178.0140  143.7620 C   0  0  0  0  0  0  0  0  0  0  0  0
  185.4370  178.5490  142.3950 C   0  0  0  0  0  0  0  0  0  0  0  0
  186.8160  178.0170  147.4580 C   0  0  0  0  0  3  0  0  0  0  0  0
  184.5960  178.7680  145.9300 O   0  0  0  0  0  0  0  0  0  0  0  0
  189.7510  177.1150  140.1880 C   0  0  0  0  0  0  0  0  0  0  0  0
  188.9910  177.2490  141.3530 C   0  0  0  0  0  3  0  0  0  0  0  0
  191.7530  177.4280  141.4250 C   0  0  0  0  0  3  0  0  0  0  0  0
  191.1080  177.2140  140.2490 N   0  0  0  0  0  0  0  0  0  0  0  0
  191.0240  177.5590  142.6090 C   0  0  0  0  0  3  0  0  0  0  0  0
  189.6280  177.4600  142.5830 C   0  0  0  0  0  0  0  0  0  0  0  0
  185.8060  177.5330  136.0710 Cl  0  0  0  0  0  0  0  0  0  0  0  0
  188.7630  178.2450  138.2480 C   0  0  0  0  0  3  0  0  0  0  0  0
  189.0560  176.9170  138.8800 C   0  0  1  0  0  3  0  0  0  0  0  0
  187.9400  175.8760  136.4320 C   0  0  1  0  0  3  0  0  0  0  0  0
  189.3710  175.6120  136.8150 C   0  0  0  0  0  3  0  0  0  0  0  0
  187.5770  177.3480  136.1520 C   0  0  2  0  0  3  0  0  0  0  0  0
  188.1350  178.4120  137.0730 C   0  0  0  0  0  3  0  0  0  0  0  0
  189.8840  176.0770  137.9550 C   0  0  0  0  0  3  0  0  0  0  0  0
  187.4790  174.9590  135.3800 N   0  0  0  0  0  2  0  0  0  0  0  0
  186.3220  173.7560  135.9750 P   0  0  2  0  0  0  0  0  0  0  0  0
  186.3550  173.7480  137.4900 O   0  0  0  0  0  0  0  0  0  0  0  0
  186.7890  172.2270  135.4000 O   0  0  0  0  0  0  0  0  0  0  0  0
  188.1820  172.2620  135.3070 C   0  0  0  0  0  1  0  0  0  0  0  0
  184.7400  174.1410  135.4660 O   0  0  0  0  0  0  0  0  0  0  0  0
  183.6570  173.6510  136.6880 P   0  0  0  0  0  0  0  0  0  0  0  0
  183.7210  174.6760  138.0350 O   0  0  0  0  0  1  0  0  0  0  0  0
  182.2470  173.6240  136.1430 O   0  0  0  0  0  0  0  0  0  0  0  0
  184.0770  172.0880  137.1790 O   0  0  0  0  0  1  0  0  0  0  0  0
  184.8340  178.9040  141.0780 C   0  0  0  0  0  2  0  0  0  0  0  0
  183.6100  178.0500  140.7850 C   0  0  0  0  0  2  0  0  0  0  0  0
  181.5110  178.9100  139.6910 N   0  0  0  0  0  2  0  0  0  0  0  0
  182.8980  178.5820  139.5920 C   0  0  0  0  0  0  0  0  0  0  0  0
  183.5230  178.7550  138.5110 O   0  0  0  0  0  0  0  0  0  0  0  0
  180.7590  179.5000  138.5930 C   0  0  1  0  0  3  0  0  0  0  0  0
  179.4630  177.8100  138.3020 O   0  0  0  0  0  1  0  0  0  0  0  0
  179.4260  179.0810  138.6440 O   0  0  0  0  0  0  0  0  0  0  0  0
  180.8470  181.0240  138.6710 C   0  0  2  0  0  3  0  0  0  0  0  0
  180.1720  181.4830  139.8080 O   0  0  0  0  0  1  0  0  0  0  0  0
  180.6480  183.1560  137.2520 C   0  0  2  0  0  3  0  0  0  0  0  0
  180.2720  181.6810  137.4120 C   0  0  1  0  0  3  0  0  0  0  0  0
  180.7790  183.3050  135.7840 C   0  0  0  0  0  0  0  0  0  0  0  0
  180.7260  180.9730  136.1340 C   0  0  0  0  0  2  0  0  0  0  0  0
  181.8730  183.4370  137.8370 F   0  0  0  0  0  0  0  0  0  0  0  0
  180.9030  184.3880  135.2350 O   0  0  0  0  0  0  0  0  0  0  0  0
  180.7410  182.0260  135.0370 C   0  0  0  0  0  2  0  0  0  0  0  0
  1  6  1  0  0  0  0
  1 14  2  0  0  0  0
  2 11  1  0  0  0  0
  4  9  2  0  0  0  0
  5 10  1  0  0  0  0
  5  7  2  0  0  0  0
  6 10  1  0  0  0  0
  7  3  1  0  0  0  0
  8  1  1  0  0  0  0
  9  5  1  0  0  0  0
 10 13  2  0  0  0  0
 11  4  1  0  0  0  0
 11  6  2  0  0  0  0
 12  2  2  0  0  0  0
 12  8  1  0  0  0  0
 13  3  1  0  0  0  0
 15 18  2  0  0  0  0
 15 16  1  0  0  0  0
 16 20  2  0  0  0  0
 17 19  2  0  0  0  0
 18 17  1  0  0  0  0
 20 19  1  0  0  0  0
 20  4  1  0  0  0  0
 22 23  1  0  0  0  0
 23 15  1  1  0  0  0
 24 29  1  6  0  0  0
 24 25  1  0  0  0  0
 25 28  2  0  0  0  0
 26 21  1  1  0  0  0
 26 24  1  0  0  0  0
 26 27  1  0  0  0  0
 27 22  2  0  0  0  0
 28 23  1  0  0  0  0
 29 30  1  0  0  0  0
 30 31  2  1  0  0  0
 32 30  1  0  0  0  0
 33 32  1  0  0  0  0
 34 30  1  0  0  0  0
 34 35  1  0  0  0  0
 35 38  1  0  0  0  0
 35 36  1  0  0  0  0
 37 35  2  0  0  0  0
 39 12  1  0  0  0  0
 40 39  1  0  0  0  0
 42 41  1  0  0  0  0
 42 40  1  0  0  0  0
 43 42  2  0  0  0  0
 44 46  1  1  0  0  0
 44 47  1  0  0  0  0
 44 41  1  0  0  0  0
 45 46  1  0  0  0  0
 47 48  1  1  0  0  0
 49 50  1  0  0  0  0
 49 53  1  1  0  0  0
 50 47  1  1  0  0  0
 51 49  1  0  0  0  0
 52 50  1  0  0  0  0
 54 51  2  0  0  0  0
 55 51  1  0  0  0  0
 55 52  1  0  0  0  0
M  END
>  <MODEL>
4

>  <REMARK>
 VINA RESULT:      -9.3      4.277      8.887
  Name = 
  14 active torsions:
  status: ('A' for Active; 'I' for Inactive)
    1  A    between atoms: C_2  and  C_28
    2  A    between atoms: C_4  and  C_27
    3  A    between atoms: C_4  and  C_44
    4  A    between atoms: C_6  and  C_20
    5  A    between atoms: C_6  and  C_31
    6  A    between atoms: O_7  and  P_17
    7  A    between atoms: N_10  and  P_17
    8  A    between atoms: N_10  and  C_29
    9  A    between atoms: O_13  and  P_17
   10  A    between atoms: O_13  and  P_18
   11  A    between atoms: C_14  and  C_49
   12  A    between atoms: C_20  and  N_25
   13  A    between atoms: C_20  and  O_53
   14  A    between atoms: C_27  and  C_46
                            x       y       z     vdW  Elec       q    Type
                         _______ _______ _______ _____ _____    ______ ____

>  <TORSDO>
F 14

$$$$
=
 OpenBabel11042411293D

 55 60  0  0  1  0  0  0  0  0999 V2000
  186.9780  177.8640  145.8570 C   0  0  0  0  0  0  0  0  0  0  0  0
  186.8170  178.1900  143.0370 C   0  0  0  0  0  3  0  0  0  0  0  0
  191.3110  176.5680  147.0050 S   0  0  0  0  0  0  0  0  0  0  0  0
  189.2000  177.3790  142.8040 C   0  0  0  0  0  0  0  0  0  0  0  0
  190.5000  176.9280  144.7370 C   0  0  0  0  0  0  0  0  0  0  0  0
  188.1740  177.5620  145.0280 C   0  0  0  0  0  0  0  0  0  0  0  0
  191.6810  176.5630  145.3640 C   0  0  0  0  0  3  0  0  0  0  0  0
  185.6310  178.0180  145.2150 C   0  0  0  0  0  2  0  0  0  0  0  0
  190.3780  177.0260  143.3930 N   0  0  0  0  0  0  0  0  0  0  0  0
  189.4090  177.1820  145.5810 C   0  0  0  0  0  0  0  0  0  0  0  0
  188.0720  177.6770  143.6220 C   0  0  0  0  0  0  0  0  0  0  0  0
  185.7070  178.3810  143.7570 C   0  0  0  0  0  0  0  0  0  0  0  0
  189.6900  177.0210  146.9350 C   0  0  0  0  0  3  0  0  0  0  0  0
  187.0600  177.9570  147.1100 O   0  0  0  0  0  0  0  0  0  0  0  0
  190.0910  176.7140  139.1930 C   0  0  0  0  0  0  0  0  0  0  0  0
  190.1610  176.7570  140.5870 C   0  0  0  0  0  3  0  0  0  0  0  0
  188.0380  177.9060  139.2320 C   0  0  0  0  0  3  0  0  0  0  0  0
  189.0330  177.2810  138.5490 N   0  0  0  0  0  0  0  0  0  0  0  0
  188.0800  177.9730  140.6250 C   0  0  0  0  0  3  0  0  0  0  0  0
  189.1550  177.4030  141.3180 C   0  0  0  0  0  0  0  0  0  0  0  0
  192.8910  172.5100  136.5150 Cl  0  0  0  0  0  0  0  0  0  0  0  0
  190.5700  175.3610  137.2040 C   0  0  0  0  0  3  0  0  0  0  0  0
  191.1560  175.9980  138.4280 C   0  0  1  0  0  3  0  0  0  0  0  0
  193.6400  174.9910  137.3620 C   0  0  1  0  0  3  0  0  0  0  0  0
  193.4030  176.4670  137.5350 C   0  0  0  0  0  3  0  0  0  0  0  0
  192.7340  174.2770  136.3380 C   0  0  2  0  0  3  0  0  0  0  0  0
  191.2630  174.6340  136.3120 C   0  0  0  0  0  3  0  0  0  0  0  0
  192.2620  176.9330  138.0450 C   0  0  0  0  0  3  0  0  0  0  0  0
  195.0660  174.6850  137.1790 N   0  0  0  0  0  2  0  0  0  0  0  0
  195.8370  174.0930  138.6600 P   0  0  2  0  0  0  0  0  0  0  0  0
  195.1620  172.8040  139.0860 O   0  0  0  0  0  0  0  0  0  0  0  0
  195.6320  175.2580  139.8800 O   0  0  0  0  0  0  0  0  0  0  0  0
  196.8380  175.2940  140.5830 C   0  0  0  0  0  1  0  0  0  0  0  0
  197.4920  173.7780  138.3920 O   0  0  0  0  0  0  0  0  0  0  0  0
  197.6280  172.8220  136.9880 P   0  0  0  0  0  0  0  0  0  0  0  0
  196.2080  171.9540  136.6760 O   0  0  0  0  0  1  0  0  0  0  0  0
  197.9530  173.6980  135.7990 O   0  0  0  0  0  0  0  0  0  0  0  0
  198.8940  171.7220  137.2100 O   0  0  0  0  0  1  0  0  0  0  0  0
  184.4880  178.9390  143.1050 C   0  0  0  0  0  2  0  0  0  0  0  0
  183.4120  179.2590  144.1320 C   0  0  0  0  0  2  0  0  0  0  0  0
  181.8560  179.0100  142.1670 N   0  0  0  0  0  2  0  0  0  0  0  0
  182.0710  178.9290  143.5770 C   0  0  0  0  0  0  0  0  0  0  0  0
  181.1430  178.5640  144.3490 O   0  0  0  0  0  0  0  0  0  0  0  0
  180.5960  178.6370  141.5380 C   0  0  1  0  0  3  0  0  0  0  0  0
  180.4850  180.6730  140.8550 O   0  0  0  0  0  1  0  0  0  0  0  0
  179.7570  179.7520  141.4500 O   0  0  0  0  0  0  0  0  0  0  0  0
  180.8670  178.0550  140.1510 C   0  0  2  0  0  3  0  0  0  0  0  0
  180.0930  176.9060  139.9570 O   0  0  0  0  0  1  0  0  0  0  0  0
  182.6220  176.5880  138.9820 C   0  0  2  0  0  3  0  0  0  0  0  0
  182.3530  177.7310  139.9650 C   0  0  1  0  0  3  0  0  0  0  0  0
  183.8900  177.0000  138.3380 C   0  0  0  0  0  0  0  0  0  0  0  0
  183.1480  178.9370  139.4600 C   0  0  0  0  0  2  0  0  0  0  0  0
  181.6370  176.5070  138.0120 F   0  0  0  0  0  0  0  0  0  0  0  0
  184.5340  176.2640  137.6080 O   0  0  0  0  0  0  0  0  0  0  0  0
  184.3150  178.3820  138.6600 C   0  0  0  0  0  2  0  0  0  0  0  0
  1 14  2  0  0  0  0
  2 11  1  0  0  0  0
  2 12  2  0  0  0  0
  4  9  2  0  0  0  0
  4 11  1  0  0  0  0
  5  7  2  0  0  0  0
  5 10  1  0  0  0  0
  6 10  1  0  0  0  0
  6  1  1  0  0  0  0
  7  3  1  0  0  0  0
  8  1  1  0  0  0  0
  9  5  1  0  0  0  0
 10 13  2  0  0  0  0
 11  6  2  0  0  0  0
 12  8  1  0  0  0  0
 13  3  1  0  0  0  0
 15 16  1  0  0  0  0
 16 20  2  0  0  0  0
 17 19  2  0  0  0  0
 18 15  2  0  0  0  0
 18 17  1  0  0  0  0
 19 20  1  0  0  0  0
 20  4  1  0  0  0  0
 22 23  1  0  0  0  0
 23 15  1  6  0  0  0
 24 29  1  6  0  0  0
 24 25  1  0  0  0  0
 25 28  2  0  0  0  0
 26 21  1  1  0  0  0
 26 24  1  0  0  0  0
 27 26  1  0  0  0  0
 27 22  2  0  0  0  0
 28 23  1  0  0  0  0
 29 30  1  0  0  0  0
 30 31  2  1  0  0  0
 30 32  1  0  0  0  0
 32 33  1  0  0  0  0
 34 30  1  0  0  0  0
 35 38  1  0  0  0  0
 35 34  1  0  0  0  0
 36 35  1  0  0  0  0
 37 35  2  0  0  0  0
 39 12  1  0  0  0  0
 39 40  1  0  0  0  0
 41 42  1  0  0  0  0
 42 40  1  0  0  0  0
 42 43  2  0  0  0  0
 44 46  1  6  0  0  0
 44 41  1  0  0  0  0
 45 46  1  0  0  0  0
 47 48  1  1  0  0  0
 47 44  1  0  0  0  0
 49 53  1  6  0  0  0
 49 50  1  0  0  0  0
 50 47  1  6  0  0  0
 51 55  1  0  0  0  0
 51 49  1  0  0  0  0
 52 50  1  0  0  0  0
 54 51  2  0  0  0  0
 55 52  1  0  0  0  0
M  END
>  <MODEL>
5

>  <REMARK>
 VINA RESULT:      -9.3      4.229      9.729
  Name = 
  14 active torsions:
  status: ('A' for Active; 'I' for Inactive)
    1  A    between atoms: C_2  and  C_28
    2  A    between atoms: C_4  and  C_27
    3  A    between atoms: C_4  and  C_44
    4  A    between atoms: C_6  and  C_20
    5  A    between atoms: C_6  and  C_31
    6  A    between atoms: O_7  and  P_17
    7  A    between atoms: N_10  and  P_17
    8  A    between atoms: N_10  and  C_29
    9  A    between atoms: O_13  and  P_17
   10  A    between atoms: O_13  and  P_18
   11  A    between atoms: C_14  and  C_49
   12  A    between atoms: C_20  and  N_25
   13  A    between atoms: C_20  and  O_53
   14  A    between atoms: C_27  and  C_46
                            x       y       z     vdW  Elec       q    Type
                         _______ _______ _______ _____ _____    ______ ____

>  <TORSDO>
F 14

$$$$
=
 OpenBabel11042411293D

 55 60  0  0  1  0  0  0  0  0999 V2000
  187.4440  177.7870  146.3140 C   0  0  0  0  0  0  0  0  0  0  0  0
  187.2020  178.2710  143.5220 C   0  0  0  0  0  3  0  0  0  0  0  0
  191.7200  176.1560  147.2230 S   0  0  0  0  0  0  0  0  0  0  0  0
  189.5160  177.3220  143.1540 C   0  0  0  0  0  0  0  0  0  0  0  0
  190.8520  176.6870  145.0090 C   0  0  0  0  0  0  0  0  0  0  0  0
  188.5860  177.4530  145.4240 C   0  0  0  0  0  0  0  0  0  0  0  0
  192.0290  176.2140  145.5700 C   0  0  0  0  0  3  0  0  0  0  0  0
  186.0880  178.0610  145.7340 C   0  0  0  0  0  2  0  0  0  0  0  0
  190.6890  176.8630  143.6770 N   0  0  0  0  0  0  0  0  0  0  0  0
  189.8130  176.9650  145.9080 C   0  0  0  0  0  0  0  0  0  0  0  0
  188.4410  177.6480  144.0310 C   0  0  0  0  0  0  0  0  0  0  0  0
  186.1340  178.4950  144.2950 C   0  0  0  0  0  0  0  0  0  0  0  0
  190.1310  176.7160  147.2400 C   0  0  0  0  0  3  0  0  0  0  0  0
  187.5770  177.8090  147.5660 O   0  0  0  0  0  0  0  0  0  0  0  0
  190.2980  176.8850  139.4840 C   0  0  0  0  0  0  0  0  0  0  0  0
  190.4150  176.8510  140.8750 C   0  0  0  0  0  3  0  0  0  0  0  0
  188.2170  178.0150  139.6580 C   0  0  0  0  0  3  0  0  0  0  0  0
  189.2030  177.4570  138.9090 N   0  0  0  0  0  0  0  0  0  0  0  0
  188.3060  178.0050  141.0510 C   0  0  0  0  0  3  0  0  0  0  0  0
  189.4180  177.4280  141.6750 C   0  0  0  0  0  0  0  0  0  0  0  0
  192.9410  173.0640  136.1520 Cl  0  0  0  0  0  0  0  0  0  0  0  0
  190.8060  175.9180  137.2880 C   0  0  0  0  0  3  0  0  0  0  0  0
  191.3540  176.2420  138.6450 C   0  0  1  0  0  3  0  0  0  0  0  0
  193.8200  175.2490  137.5250 C   0  0  1  0  0  3  0  0  0  0  0  0
  193.6870  176.6760  137.9830 C   0  0  0  0  0  3  0  0  0  0  0  0
  192.9330  174.8370  136.3320 C   0  0  2  0  0  3  0  0  0  0  0  0
  191.5000  175.3230  136.3030 C   0  0  0  0  0  3  0  0  0  0  0  0
  192.5530  177.1320  138.5190 C   0  0  0  0  0  3  0  0  0  0  0  0
  195.2270  174.8590  137.3570 N   0  0  0  0  0  2  0  0  0  0  0  0
  195.9000  174.0760  138.7980 P   0  0  2  0  0  0  0  0  0  0  0  0
  195.0960  172.8280  139.1010 O   0  0  0  0  0  0  0  0  0  0  0  0
  195.7720  175.1530  140.1070 O   0  0  0  0  0  0  0  0  0  0  0  0
  197.0550  175.2500  140.6490 C   0  0  0  0  0  1  0  0  0  0  0  0
  197.5240  173.6280  138.5350 O   0  0  0  0  0  0  0  0  0  0  0  0
  197.5830  172.6360  137.1510 P   0  0  0  0  0  0  0  0  0  0  0  0
  196.7010  173.2970  135.8640 O   0  0  0  0  0  0  0  0  0  0  0  0
  199.0190  172.4350  136.7240 O   0  0  0  0  0  1  0  0  0  0  0  0
  196.9190  171.1310  137.5420 O   0  0  0  0  0  1  0  0  0  0  0  0
  184.9320  179.1650  143.7220 C   0  0  0  0  0  2  0  0  0  0  0  0
  184.2270  178.2650  142.7180 C   0  0  0  0  0  2  0  0  0  0  0  0
  183.6850  178.2590  140.2580 N   0  0  0  0  0  2  0  0  0  0  0  0
  184.4810  178.7550  141.3360 C   0  0  0  0  0  0  0  0  0  0  0  0
  185.3820  179.6130  141.1280 O   0  0  0  0  0  0  0  0  0  0  0  0
  183.8230  178.7380  138.8900 C   0  0  1  0  0  3  0  0  0  0  0  0
  182.7740  180.6050  138.7010 O   0  0  0  0  0  1  0  0  0  0  0  0
  183.9870  180.1260  138.8830 O   0  0  0  0  0  0  0  0  0  0  0  0
  185.0150  178.0510  138.2240 C   0  0  2  0  0  3  0  0  0  0  0  0
  185.9950  178.9990  137.9060 O   0  0  0  0  0  1  0  0  0  0  0  0
  185.5760  176.2050  136.5280 C   0  0  2  0  0  3  0  0  0  0  0  0
  184.5870  177.2890  136.9650 C   0  0  1  0  0  3  0  0  0  0  0  0
  184.6880  175.1530  135.9800 C   0  0  0  0  0  0  0  0  0  0  0  0
  183.2330  176.6000  137.1420 C   0  0  0  0  0  2  0  0  0  0  0  0
  186.2700  175.6820  137.6070 F   0  0  0  0  0  0  0  0  0  0  0  0
  185.1070  174.1850  135.3660 O   0  0  0  0  0  0  0  0  0  0  0  0
  183.2470  175.3790  136.2370 C   0  0  0  0  0  2  0  0  0  0  0  0
  1 14  2  0  0  0  0
  2 11  1  0  0  0  0
  2 12  2  0  0  0  0
  3 13  1  0  0  0  0
  4  9  2  0  0  0  0
  4 11  1  0  0  0  0
  5  7  2  0  0  0  0
  5 10  1  0  0  0  0
  6 10  1  0  0  0  0
  6  1  1  0  0  0  0
  7  3  1  0  0  0  0
  8  1  1  0  0  0  0
  9  5  1  0  0  0  0
 10 13  2  0  0  0  0
 11  6  2  0  0  0  0
 12  8  1  0  0  0  0
 15 16  1  0  0  0  0
 16 20  2  0  0  0  0
 17 19  2  0  0  0  0
 18 15  2  0  0  0  0
 18 17  1  0  0  0  0
 19 20  1  0  0  0  0
 20  4  1  0  0  0  0
 22 23  1  0  0  0  0
 23 15  1  1  0  0  0
 24 29  1  6  0  0  0
 24 25  1  0  0  0  0
 25 28  2  0  0  0  0
 26 21  1  1  0  0  0
 26 24  1  0  0  0  0
 27 26  1  0  0  0  0
 27 22  2  0  0  0  0
 28 23  1  0  0  0  0
 29 30  1  0  0  0  0
 30 31  2  1  0  0  0
 30 32  1  0  0  0  0
 32 33  1  0  0  0  0
 34 30  1  0  0  0  0
 35 38  1  0  0  0  0
 35 34  1  0  0  0  0
 36 35  2  0  0  0  0
 37 35  1  0  0  0  0
 39 12  1  0  0  0  0
 40 39  1  0  0  0  0
 41 42  1  0  0  0  0
 42 40  1  0  0  0  0
 43 42  2  0  0  0  0
 44 46  1  1  0  0  0
 44 41  1  0  0  0  0
 45 46  1  0  0  0  0
 47 48  1  6  0  0  0
 47 44  1  0  0  0  0
 49 50  1  0  0  0  0
 49 53  1  1  0  0  0
 50 52  1  0  0  0  0
 50 47  1  1  0  0  0
 51 55  1  0  0  0  0
 51 49  1  0  0  0  0
 54 51  2  0  0  0  0
 55 52  1  0  0  0  0
M  END
>  <MODEL>
6

>  <REMARK>
 VINA RESULT:      -9.0      3.733      8.718
  Name = 
  14 active torsions:
  status: ('A' for Active; 'I' for Inactive)
    1  A    between atoms: C_2  and  C_28
    2  A    between atoms: C_4  and  C_27
    3  A    between atoms: C_4  and  C_44
    4  A    between atoms: C_6  and  C_20
    5  A    between atoms: C_6  and  C_31
    6  A    between atoms: O_7  and  P_17
    7  A    between atoms: N_10  and  P_17
    8  A    between atoms: N_10  and  C_29
    9  A    between atoms: O_13  and  P_17
   10  A    between atoms: O_13  and  P_18
   11  A    between atoms: C_14  and  C_49
   12  A    between atoms: C_20  and  N_25
   13  A    between atoms: C_20  and  O_53
   14  A    between atoms: C_27  and  C_46
                            x       y       z     vdW  Elec       q    Type
                         _______ _______ _______ _____ _____    ______ ____

>  <TORSDO>
F 14

$$$$
=
 OpenBabel11042411293D

 55 60  0  0  1  0  0  0  0  0999 V2000
  185.1830  178.4840  144.9710 C   0  0  0  0  0  0  0  0  0  0  0  0
  186.6220  178.3340  142.5230 C   0  0  0  0  0  3  0  0  0  0  0  0
  188.1250  177.7830  148.5240 S   0  0  0  0  0  0  0  0  0  0  0  0
  188.7190  177.7110  143.7900 C   0  0  0  0  0  0  0  0  0  0  0  0
  188.7180  177.6980  146.1630 C   0  0  0  0  0  0  0  0  0  0  0  0
  186.6330  178.1600  145.0070 C   0  0  0  0  0  0  0  0  0  0  0  0
  189.3450  177.5460  147.3900 C   0  0  0  0  0  3  0  0  0  0  0  0
  184.4240  178.4110  143.6800 C   0  0  0  0  0  2  0  0  0  0  0  0
  189.3660  177.5650  144.9820 N   0  0  0  0  0  0  0  0  0  0  0  0
  187.3460  177.9860  146.2060 C   0  0  0  0  0  0  0  0  0  0  0  0
  187.3320  178.0360  143.7840 C   0  0  0  0  0  0  0  0  0  0  0  0
  185.3020  178.5390  142.4660 C   0  0  0  0  0  0  0  0  0  0  0  0
  186.8240  178.0720  147.4940 C   0  0  0  0  0  3  0  0  0  0  0  0
  184.5560  178.7860  146.0210 O   0  0  0  0  0  0  0  0  0  0  0  0
  189.5680  177.1200  140.1570 C   0  0  0  0  0  0  0  0  0  0  0  0
  188.8390  177.2590  141.3400 C   0  0  0  0  0  3  0  0  0  0  0  0
  191.6000  177.4700  141.3340 C   0  0  0  0  0  3  0  0  0  0  0  0
  190.9250  177.2350  140.1790 N   0  0  0  0  0  0  0  0  0  0  0  0
  190.9030  177.6070  142.5360 C   0  0  0  0  0  3  0  0  0  0  0  0
  189.5080  177.4910  142.5500 C   0  0  0  0  0  0  0  0  0  0  0  0
  185.5450  177.5100  136.1140 Cl  0  0  0  0  0  0  0  0  0  0  0  0
  188.5660  178.2150  138.2040 C   0  0  0  0  0  3  0  0  0  0  0  0
  188.8400  176.9000  138.8700 C   0  0  1  0  0  3  0  0  0  0  0  0
  187.6440  175.8110  136.4820 C   0  0  1  0  0  3  0  0  0  0  0  0
  189.0770  175.5230  136.8420 C   0  0  0  0  0  3  0  0  0  0  0  0
  187.3120  177.2830  136.1620 C   0  0  2  0  0  3  0  0  0  0  0  0
  187.9170  178.3610  137.0370 C   0  0  0  0  0  3  0  0  0  0  0  0
  189.6260  176.0100  137.9550 C   0  0  0  0  0  3  0  0  0  0  0  0
  187.1370  174.8740  135.4690 N   0  0  0  0  0  2  0  0  0  0  0  0
  186.0730  173.6330  136.1530 P   0  0  2  0  0  0  0  0  0  0  0  0
  186.8040  172.9210  137.2730 O   0  0  0  0  0  0  0  0  0  0  0  0
  185.6970  172.5120  134.9320 O   0  0  0  0  0  0  0  0  0  0  0  0
  186.6090  171.4640  135.0810 C   0  0  0  0  0  1  0  0  0  0  0  0
  184.6570  174.3390  136.7880 O   0  0  0  0  0  0  0  0  0  0  0  0
  183.3830  173.2210  136.6110 P   0  0  0  0  0  0  0  0  0  0  0  0
  182.9540  173.0050  134.9870 O   0  0  0  0  0  0  0  0  0  0  0  0
  183.7820  171.8890  137.2060 O   0  0  0  0  0  1  0  0  0  0  0  0
  182.0370  173.8060  137.4510 O   0  0  0  0  0  1  0  0  0  0  0  0
  184.6600  178.8740  141.1630 C   0  0  0  0  0  2  0  0  0  0  0  0
  183.9830  177.6560  140.5540 C   0  0  0  0  0  2  0  0  0  0  0  0
  181.9510  179.0470  141.0850 N   0  0  0  0  0  2  0  0  0  0  0  0
  182.5130  177.8780  140.4860 C   0  0  0  0  0  0  0  0  0  0  0  0
  181.7780  177.0450  139.8870 O   0  0  0  0  0  0  0  0  0  0  0  0
  180.5340  179.3720  141.0020 C   0  0  1  0  0  3  0  0  0  0  0  0
  180.7160  178.8690  143.0850 O   0  0  0  0  0  1  0  0  0  0  0  0
  180.0310  179.6520  142.2770 O   0  0  0  0  0  0  0  0  0  0  0  0
  180.3360  180.5680  140.0710 C   0  0  2  0  0  3  0  0  0  0  0  0
  179.6100  181.5680  140.7280 O   0  0  0  0  0  1  0  0  0  0  0  0
  180.5370  180.0910  137.5550 C   0  0  2  0  0  3  0  0  0  0  0  0
  179.6210  180.1550  138.7800 C   0  0  1  0  0  3  0  0  0  0  0  0
  179.9690  178.9630  136.7800 C   0  0  0  0  0  0  0  0  0  0  0  0
  178.9570  178.7820  138.9020 C   0  0  0  0  0  2  0  0  0  0  0  0
  181.8390  179.7760  137.9070 F   0  0  0  0  0  0  0  0  0  0  0  0
  180.3170  178.6990  135.6400 O   0  0  0  0  0  0  0  0  0  0  0  0
  178.9390  178.1840  137.5050 C   0  0  0  0  0  2  0  0  0  0  0  0
  1  6  1  0  0  0  0
  1 14  2  0  0  0  0
  2 11  1  0  0  0  0
  4  9  2  0  0  0  0
  5 10  1  0  0  0  0
  5  7  2  0  0  0  0
  6 10  1  0  0  0  0
  7  3  1  0  0  0  0
  8  1  1  0  0  0  0
  9  5  1  0  0  0  0
 10 13  2  0  0  0  0
 11  4  1  0  0  0  0
 11  6  2  0  0  0  0
 12  2  2  0  0  0  0
 12  8  1  0  0  0  0
 13  3  1  0  0  0  0
 15 18  2  0  0  0  0
 15 16  1  0  0  0  0
 16 20  2  0  0  0  0
 17 19  2  0  0  0  0
 18 17  1  0  0  0  0
 19 20  1  0  0  0  0
 20  4  1  0  0  0  0
 22 23  1  0  0  0  0
 23 15  1  1  0  0  0
 24 29  1  6  0  0  0
 24 25  1  0  0  0  0
 25 28  2  0  0  0  0
 26 21  1  1  0  0  0
 26 24  1  0  0  0  0
 26 27  1  0  0  0  0
 27 22  2  0  0  0  0
 28 23  1  0  0  0  0
 29 30  1  0  0  0  0
 30 34  1  0  0  0  0
 30 31  2  1  0  0  0
 32 33  1  0  0  0  0
 32 30  1  0  0  0  0
 35 34  1  0  0  0  0
 35 37  1  0  0  0  0
 35 38  1  0  0  0  0
 36 35  2  0  0  0  0
 39 12  1  0  0  0  0
 40 39  1  0  0  0  0
 42 40  1  0  0  0  0
 42 41  1  0  0  0  0
 43 42  2  0  0  0  0
 44 41  1  1  0  0  0
 44 46  1  0  0  0  0
 46 45  1  0  0  0  0
 47 48  1  1  0  0  0
 47 44  1  0  0  0  0
 49 53  1  1  0  0  0
 49 50  1  0  0  0  0
 50 52  1  0  0  0  0
 50 47  1  1  0  0  0
 51 55  1  0  0  0  0
 51 49  1  0  0  0  0
 54 51  2  0  0  0  0
 55 52  1  0  0  0  0
M  END
>  <MODEL>
7

>  <REMARK>
 VINA RESULT:      -8.8      4.208      8.738
  Name = 
  14 active torsions:
  status: ('A' for Active; 'I' for Inactive)
    1  A    between atoms: C_2  and  C_28
    2  A    between atoms: C_4  and  C_27
    3  A    between atoms: C_4  and  C_44
    4  A    between atoms: C_6  and  C_20
    5  A    between atoms: C_6  and  C_31
    6  A    between atoms: O_7  and  P_17
    7  A    between atoms: N_10  and  P_17
    8  A    between atoms: N_10  and  C_29
    9  A    between atoms: O_13  and  P_17
   10  A    between atoms: O_13  and  P_18
   11  A    between atoms: C_14  and  C_49
   12  A    between atoms: C_20  and  N_25
   13  A    between atoms: C_20  and  O_53
   14  A    between atoms: C_27  and  C_46
                            x       y       z     vdW  Elec       q    Type
                         _______ _______ _______ _____ _____    ______ ____

>  <TORSDO>
F 14

$$$$
=
 OpenBabel11042411293D

 55 60  0  0  1  0  0  0  0  0999 V2000
  189.6210  177.5820  143.1620 C   0  0  0  0  0  0  0  0  0  0  0  0
  187.0300  178.0360  142.0820 C   0  0  0  0  0  3  0  0  0  0  0  0
  189.3030  177.1960  147.8000 S   0  0  0  0  0  0  0  0  0  0  0  0
  186.0690  178.1320  144.4180 C   0  0  0  0  0  0  0  0  0  0  0  0
  187.4490  177.6750  146.2930 C   0  0  0  0  0  0  0  0  0  0  0  0
  188.4670  177.7110  144.0890 C   0  0  0  0  0  0  0  0  0  0  0  0
  187.6540  177.5010  147.6540 C   0  0  0  0  0  3  0  0  0  0  0  0
  189.4900  178.0020  141.7280 C   0  0  0  0  0  2  0  0  0  0  0  0
  186.2380  177.9580  145.7600 N   0  0  0  0  0  0  0  0  0  0  0  0
  188.5860  177.5550  145.4810 C   0  0  0  0  0  0  0  0  0  0  0  0
  187.1890  177.9880  143.5490 C   0  0  0  0  0  0  0  0  0  0  0  0
  188.0680  178.0110  141.2390 C   0  0  0  0  0  0  0  0  0  0  0  0
  189.7580  177.2790  146.1810 C   0  0  0  0  0  3  0  0  0  0  0  0
  190.7360  177.1570  143.5630 O   0  0  0  0  0  0  0  0  0  0  0  0
  183.0970  178.6030  142.1350 C   0  0  0  0  0  0  0  0  0  0  0  0
  184.3910  178.3310  142.5830 C   0  0  0  0  0  3  0  0  0  0  0  0
  182.4190  179.1610  144.3410 C   0  0  0  0  0  3  0  0  0  0  0  0
  182.1420  179.0030  143.0200 N   0  0  0  0  0  0  0  0  0  0  0  0
  183.7040  178.9040  144.8210 C   0  0  0  0  0  3  0  0  0  0  0  0
  184.7100  178.4940  143.9390 C   0  0  0  0  0  0  0  0  0  0  0  0
  180.3150  178.9410  137.1510 Cl  0  0  0  0  0  0  0  0  0  0  0  0
  182.5960  179.7230  140.0110 C   0  0  0  0  0  3  0  0  0  0  0  0
  182.7640  178.3980  140.6920 C   0  0  1  0  0  3  0  0  0  0  0  0
  182.3410  177.3490  138.0390 C   0  0  1  0  0  3  0  0  0  0  0  0
  183.6370  177.1260  138.7720 C   0  0  0  0  0  3  0  0  0  0  0  0
  182.0120  178.8120  137.6790 C   0  0  2  0  0  3  0  0  0  0  0  0
  182.2830  179.8830  138.7140 C   0  0  0  0  0  3  0  0  0  0  0  0
  183.8270  177.5950  140.0060 C   0  0  0  0  0  3  0  0  0  0  0  0
  182.1930  176.4300  136.9010 N   0  0  0  0  0  2  0  0  0  0  0  0
  181.4360  174.8930  137.3530 P   0  0  2  0  0  0  0  0  0  0  0  0
  180.2700  174.6260  136.4230 O   0  0  0  0  0  0  0  0  0  0  0  0
  180.8580  175.0240  138.9470 O   0  0  0  0  0  0  0  0  0  0  0  0
  179.4680  175.1190  138.8430 C   0  0  0  0  0  1  0  0  0  0  0  0
  182.5500  173.6090  137.2140 O   0  0  0  0  0  0  0  0  0  0  0  0
  181.6860  172.2020  136.7940 P   0  0  0  0  0  0  0  0  0  0  0  0
  180.9990  172.3210  135.2500 O   0  0  0  0  0  0  0  0  0  0  0  0
  182.6040  171.0020  136.8440 O   0  0  0  0  0  1  0  0  0  0  0  0
  180.4440  171.9800  137.9200 O   0  0  0  0  0  1  0  0  0  0  0  0
  187.8270  178.0230  139.7680 C   0  0  0  0  0  2  0  0  0  0  0  0
  189.0070  178.6280  139.0220 C   0  0  0  0  0  2  0  0  0  0  0  0
  189.1860  177.1860  136.9640 N   0  0  0  0  0  2  0  0  0  0  0  0
  188.8290  178.4370  137.5570 C   0  0  0  0  0  0  0  0  0  0  0  0
  188.3510  179.3680  136.8540 O   0  0  0  0  0  0  0  0  0  0  0  0
  188.9790  176.8950  135.5520 C   0  0  1  0  0  3  0  0  0  0  0  0
  191.0240  176.3790  135.9660 O   0  0  0  0  0  1  0  0  0  0  0  0
  190.1170  176.2840  135.0170 O   0  0  0  0  0  0  0  0  0  0  0  0
  187.7550  175.9930  135.3900 C   0  0  2  0  0  3  0  0  0  0  0  0
  186.6010  176.7740  135.2620 O   0  0  0  0  0  1  0  0  0  0  0  0
  186.1670  174.6480  136.8950 C   0  0  2  0  0  3  0  0  0  0  0  0
  187.6140  175.0280  136.5710 C   0  0  1  0  0  3  0  0  0  0  0  0
  186.2890  173.2420  137.3440 C   0  0  0  0  0  0  0  0  0  0  0  0
  188.3680  173.7170  136.3370 C   0  0  0  0  0  2  0  0  0  0  0  0
  185.3640  174.6850  135.7660 F   0  0  0  0  0  0  0  0  0  0  0  0
  185.3690  172.6270  137.8590 O   0  0  0  0  0  0  0  0  0  0  0  0
  187.6260  172.6450  137.1200 C   0  0  0  0  0  2  0  0  0  0  0  0
  1 14  2  0  0  0  0
  1  6  1  0  0  0  0
  2 11  1  0  0  0  0
  4  9  2  0  0  0  0
  5  7  2  0  0  0  0
  6 10  1  0  0  0  0
  7  3  1  0  0  0  0
  8  1  1  0  0  0  0
  9  5  1  0  0  0  0
 10 13  2  0  0  0  0
 10  5  1  0  0  0  0
 11  6  2  0  0  0  0
 11  4  1  0  0  0  0
 12  8  1  0  0  0  0
 12  2  2  0  0  0  0
 13  3  1  0  0  0  0
 15 16  2  0  0  0  0
 15 18  1  0  0  0  0
 16 20  1  0  0  0  0
 17 19  1  0  0  0  0
 18 17  2  0  0  0  0
 20  4  1  0  0  0  0
 20 19  2  0  0  0  0
 22 23  1  0  0  0  0
 23 15  1  1  0  0  0
 24 29  1  6  0  0  0
 24 25  1  0  0  0  0
 25 28  2  0  0  0  0
 26 21  1  1  0  0  0
 26 24  1  0  0  0  0
 26 27  1  0  0  0  0
 27 22  2  0  0  0  0
 28 23  1  0  0  0  0
 29 30  1  0  0  0  0
 30 31  2  6  0  0  0
 30 32  1  0  0  0  0
 33 32  1  0  0  0  0
 34 30  1  0  0  0  0
 35 37  1  0  0  0  0
 35 34  1  0  0  0  0
 35 38  1  0  0  0  0
 36 35  2  0  0  0  0
 39 12  1  0  0  0  0
 40 39  1  0  0  0  0
 41 42  1  0  0  0  0
 42 40  1  0  0  0  0
 43 42  2  0  0  0  0
 44 46  1  1  0  0  0
 44 41  1  0  0  0  0
 46 45  1  0  0  0  0
 47 48  1  1  0  0  0
 47 44  1  0  0  0  0
 49 53  1  6  0  0  0
 49 51  1  0  0  0  0
 50 47  1  6  0  0  0
 50 49  1  0  0  0  0
 51 54  2  0  0  0  0
 52 50  1  0  0  0  0
 52 55  1  0  0  0  0
 55 51  1  0  0  0  0
M  END
>  <MODEL>
8

>  <REMARK>
 VINA RESULT:      -8.6      3.180      4.438
  Name = 
  14 active torsions:
  status: ('A' for Active; 'I' for Inactive)
    1  A    between atoms: C_2  and  C_28
    2  A    between atoms: C_4  and  C_27
    3  A    between atoms: C_4  and  C_44
    4  A    between atoms: C_6  and  C_20
    5  A    between atoms: C_6  and  C_31
    6  A    between atoms: O_7  and  P_17
    7  A    between atoms: N_10  and  P_17
    8  A    between atoms: N_10  and  C_29
    9  A    between atoms: O_13  and  P_17
   10  A    between atoms: O_13  and  P_18
   11  A    between atoms: C_14  and  C_49
   12  A    between atoms: C_20  and  N_25
   13  A    between atoms: C_20  and  O_53
   14  A    between atoms: C_27  and  C_46
                            x       y       z     vdW  Elec       q    Type
                         _______ _______ _______ _____ _____    ______ ____

>  <TORSDO>
F 14

$$$$
=
 OpenBabel11042411293D

 55 60  0  0  1  0  0  0  0  0999 V2000
  189.8590  177.4500  143.7610 C   0  0  0  0  0  0  0  0  0  0  0  0
  187.3650  177.7790  142.4340 C   0  0  0  0  0  3  0  0  0  0  0  0
  189.1710  177.5860  148.3740 S   0  0  0  0  0  0  0  0  0  0  0  0
  186.2240  178.1360  144.6620 C   0  0  0  0  0  0  0  0  0  0  0  0
  187.4470  177.8920  146.6800 C   0  0  0  0  0  0  0  0  0  0  0  0
  188.6360  177.6820  144.5740 C   0  0  0  0  0  0  0  0  0  0  0  0
  187.5420  177.8730  148.0640 C   0  0  0  0  0  3  0  0  0  0  0  0
  189.8450  177.7060  142.2840 C   0  0  0  0  0  2  0  0  0  0  0  0
  186.2840  178.1130  146.0240 N   0  0  0  0  0  0  0  0  0  0  0  0
  188.6430  177.6820  145.9800 C   0  0  0  0  0  0  0  0  0  0  0  0
  187.4070  177.8950  143.9070 C   0  0  0  0  0  0  0  0  0  0  0  0
  188.4660  177.6590  141.6860 C   0  0  0  0  0  0  0  0  0  0  0  0
  189.7540  177.4870  146.7970 C   0  0  0  0  0  3  0  0  0  0  0  0
  190.9350  177.0730  144.2960 O   0  0  0  0  0  0  0  0  0  0  0  0
  183.4990  178.4920  142.0690 C   0  0  0  0  0  0  0  0  0  0  0  0
  184.7480  178.2740  142.6560 C   0  0  0  0  0  3  0  0  0  0  0  0
  182.5620  179.0040  144.1900 C   0  0  0  0  0  3  0  0  0  0  0  0
  182.4370  178.8440  142.8470 N   0  0  0  0  0  0  0  0  0  0  0  0
  183.7970  178.8010  144.8070 C   0  0  0  0  0  3  0  0  0  0  0  0
  184.9100  178.4420  144.0380 C   0  0  0  0  0  0  0  0  0  0  0  0
  181.0720  177.2160  137.0520 Cl  0  0  0  0  0  0  0  0  0  0  0  0
  182.1820  179.0960  140.0900 C   0  0  0  0  0  3  0  0  0  0  0  0
  183.3340  178.2830  140.5990 C   0  0  1  0  0  3  0  0  0  0  0  0
  183.6610  177.6050  137.8140 C   0  0  1  0  0  3  0  0  0  0  0  0
  184.7290  178.3480  138.5700 C   0  0  0  0  0  3  0  0  0  0  0  0
  182.3200  178.3470  137.6350 C   0  0  2  0  0  3  0  0  0  0  0  0
  181.7660  179.1190  138.8130 C   0  0  0  0  0  3  0  0  0  0  0  0
  184.5880  178.6460  139.8620 C   0  0  0  0  0  3  0  0  0  0  0  0
  184.1750  177.0360  136.5600 N   0  0  0  0  0  2  0  0  0  0  0  0
  184.2660  175.2670  136.5950 P   0  0  2  0  0  0  0  0  0  0  0  0
  183.8950  174.7820  137.9820 O   0  0  0  0  0  0  0  0  0  0  0  0
  185.8640  174.8020  136.2520 O   0  0  0  0  0  0  0  0  0  0  0  0
  186.0210  174.9600  134.8730 C   0  0  0  0  0  1  0  0  0  0  0  0
  183.1790  174.5870  135.4710 O   0  0  0  0  0  0  0  0  0  0  0  0
  182.7260  173.0450  136.0380 P   0  0  0  0  0  0  0  0  0  0  0  0
  181.5820  173.1440  137.2840 O   0  0  0  0  0  1  0  0  0  0  0  0
  182.1600  172.2250  134.9010 O   0  0  0  0  0  0  0  0  0  0  0  0
  184.1040  172.2670  136.6330 O   0  0  0  0  0  1  0  0  0  0  0  0
  188.3430  177.5060  140.2070 C   0  0  0  0  0  2  0  0  0  0  0  0
  189.2570  178.4770  139.4750 C   0  0  0  0  0  2  0  0  0  0  0  0
  189.4690  176.8780  137.5400 N   0  0  0  0  0  2  0  0  0  0  0  0
  189.2170  178.2030  138.0130 C   0  0  0  0  0  0  0  0  0  0  0  0
  188.9440  179.1330  137.2060 O   0  0  0  0  0  0  0  0  0  0  0  0
  189.3800  176.5130  136.1330 C   0  0  1  0  0  3  0  0  0  0  0  0
  188.3440  177.5980  134.5940 O   0  0  0  0  0  1  0  0  0  0  0  0
  189.4290  177.6600  135.3360 O   0  0  0  0  0  0  0  0  0  0  0  0
  190.5220  175.5600  135.7780 C   0  0  2  0  0  3  0  0  0  0  0  0
  190.0030  174.3630  135.2720 O   0  0  0  0  0  1  0  0  0  0  0  0
  192.1760  173.9570  136.9130 C   0  0  2  0  0  3  0  0  0  0  0  0
  191.4130  175.2810  136.9930 C   0  0  1  0  0  3  0  0  0  0  0  0
  193.4560  174.2740  137.5870 C   0  0  0  0  0  0  0  0  0  0  0  0
  192.4600  176.3770  137.2030 C   0  0  0  0  0  2  0  0  0  0  0  0
  192.4420  173.5980  135.6020 F   0  0  0  0  0  0  0  0  0  0  0  0
  194.2790  173.4230  137.8840 O   0  0  0  0  0  0  0  0  0  0  0  0
  193.6510  175.7140  137.8760 C   0  0  0  0  0  2  0  0  0  0  0  0
  1 14  2  0  0  0  0
  1  6  1  0  0  0  0
  2 11  1  0  0  0  0
  4  9  2  0  0  0  0
  5  7  2  0  0  0  0
  6 10  1  0  0  0  0
  7  3  1  0  0  0  0
  8  1  1  0  0  0  0
  9  5  1  0  0  0  0
 10  5  1  0  0  0  0
 10 13  2  0  0  0  0
 11  6  2  0  0  0  0
 11  4  1  0  0  0  0
 12  8  1  0  0  0  0
 12  2  2  0  0  0  0
 13  3  1  0  0  0  0
 15 16  2  0  0  0  0
 15 18  1  0  0  0  0
 16 20  1  0  0  0  0
 17 19  1  0  0  0  0
 18 17  2  0  0  0  0
 20  4  1  0  0  0  0
 20 19  2  0  0  0  0
 22 23  1  0  0  0  0
 23 15  1  1  0  0  0
 24 29  1  6  0  0  0
 24 25  1  0  0  0  0
 25 28  2  0  0  0  0
 26 21  1  1  0  0  0
 26 24  1  0  0  0  0
 26 27  1  0  0  0  0
 27 22  2  0  0  0  0
 28 23  1  0  0  0  0
 29 30  1  0  0  0  0
 30 31  2  1  0  0  0
 32 30  1  0  0  0  0
 33 32  1  0  0  0  0
 34 35  1  0  0  0  0
 34 30  1  0  0  0  0
 35 38  1  0  0  0  0
 35 36  1  0  0  0  0
 37 35  2  0  0  0  0
 39 12  1  0  0  0  0
 40 39  1  0  0  0  0
 41 42  1  0  0  0  0
 42 40  1  0  0  0  0
 43 42  2  0  0  0  0
 44 46  1  6  0  0  0
 44 41  1  0  0  0  0
 45 46  1  0  0  0  0
 47 48  1  1  0  0  0
 47 44  1  0  0  0  0
 49 53  1  6  0  0  0
 49 50  1  0  0  0  0
 49 51  1  0  0  0  0
 50 47  1  6  0  0  0
 50 52  1  0  0  0  0
 51 55  1  0  0  0  0
 51 54  2  0  0  0  0
 52 55  1  0  0  0  0
M  END
>  <MODEL>
9

>  <REMARK>
 VINA RESULT:      -8.2      1.791      2.966
  Name = 
  14 active torsions:
  status: ('A' for Active; 'I' for Inactive)
    1  A    between atoms: C_2  and  C_28
    2  A    between atoms: C_4  and  C_27
    3  A    between atoms: C_4  and  C_44
    4  A    between atoms: C_6  and  C_20
    5  A    between atoms: C_6  and  C_31
    6  A    between atoms: O_7  and  P_17
    7  A    between atoms: N_10  and  P_17
    8  A    between atoms: N_10  and  C_29
    9  A    between atoms: O_13  and  P_17
   10  A    between atoms: O_13  and  P_18
   11  A    between atoms: C_14  and  C_49
   12  A    between atoms: C_20  and  N_25
   13  A    between atoms: C_20  and  O_53
   14  A    between atoms: C_27  and  C_46
                            x       y       z     vdW  Elec       q    Type
                         _______ _______ _______ _____ _____    ______ ____

>  <TORSDO>
F 14

$$$$
