=
 OpenBabel11042410503D

 31 36  0  0  1  0  0  0  0  0999 V2000
  183.7960  178.9600  145.6390 C   0  0  0  0  0  3  0  0  0  0  0  0
  186.7150  178.0960  145.1660 C   0  0  0  0  0  0  0  0  0  0  0  0
  189.6630  177.0680  142.4190 C   0  0  0  0  0  0  0  0  0  0  0  0
  183.9360  178.9820  144.3100 C   0  0  0  0  0  3  0  0  0  0  0  0
  184.6250  178.2040  146.6320 C   0  0  0  0  0  2  0  0  0  0  0  0
  190.7030  176.9260  143.2430 C   0  0  0  0  0  3  0  0  0  0  0  0
  187.1720  177.6890  142.8310 C   0  0  0  0  0  3  0  0  0  0  0  0
  186.0910  178.2290  146.3800 C   0  0  0  0  0  0  0  0  0  0  0  0
  188.0290  177.8700  145.4930 C   0  0  0  0  0  0  0  0  0  0  0  0
  187.0100  178.1320  147.3240 O   0  0  0  0  0  0  0  0  0  0  0  0
  188.9460  177.5490  144.5050 C   0  0  0  0  0  0  0  0  0  0  0  0
  188.5150  177.4690  143.2000 C   0  0  0  0  0  0  0  0  0  0  0  0
  185.0050  178.3970  143.4710 C   0  0  0  0  0  3  0  0  0  0  0  0
  190.2320  177.2320  144.6120 C   0  0  0  0  0  3  0  0  0  0  0  0
  188.2030  177.9170  146.8260 N   0  0  0  0  0  0  0  0  0  0  0  0
  186.2410  178.0380  143.8390 C   0  0  0  0  0  0  0  0  0  0  0  0
  189.9330  177.7390  138.8000 C   0  0  0  0  0  2  0  0  0  0  0  0
  189.7040  176.9320  140.9960 N   0  0  0  0  0  0  0  0  0  0  0  0
  189.3620  177.9740  140.1130 C   0  0  0  0  0  0  0  0  0  0  0  0
  190.6000  176.3800  139.0450 C   0  0  2  0  0  3  0  0  0  0  0  0
  188.6850  178.9850  140.4370 O   0  0  0  0  0  0  0  0  0  0  0  0
  190.4520  175.9660  140.4030 O   0  0  0  0  0  0  0  0  0  0  0  0
  192.5200  175.5880  137.5670 N   0  0  0  0  0  0  0  0  0  0  0  0
  192.8430  177.1790  139.2500 O   0  0  0  0  0  0  0  0  0  0  0  0
  192.0830  173.8340  134.5970 O   0  0  0  0  0  0  0  0  0  0  0  0
  191.2140  173.6030  137.4190 N   0  0  0  0  0  1  0  0  0  0  0  0
  191.6310  174.8080  136.7210 C   0  0  2  0  0  3  0  0  0  0  0  0
  193.8790  174.9540  135.7000 C   0  0  0  0  0  3  0  0  0  0  0  0
  193.8690  175.7130  137.0230 C   0  0  0  0  0  3  0  0  0  0  0  0
  192.4890  174.4470  135.5720 C   0  0  0  0  0  0  0  0  0  0  0  0
  192.0470  176.4060  138.6500 C   0  0  0  0  0  0  0  0  0  0  0  0
  1  5  1  0  0  0  0
  2  9  1  0  0  0  0
  2  8  2  0  0  0  0
  3 12  1  0  0  0  0
  3  6  2  0  0  0  0
  4  1  2  0  0  0  0
  6 14  1  0  0  0  0
  7 12  2  0  0  0  0
  7 16  1  0  0  0  0
  8  5  1  0  0  0  0
  8 10  1  0  0  0  0
  9 15  2  0  0  0  0
 11 14  2  0  0  0  0
 11  9  1  0  0  0  0
 12 11  1  0  0  0  0
 13 16  2  0  0  0  0
 13  4  1  0  0  0  0
 15 10  1  0  0  0  0
 16  2  1  0  0  0  0
 17 20  1  0  0  0  0
 17 19  1  0  0  0  0
 18  3  1  0  0  0  0
 19 21  2  0  0  0  0
 19 18  1  0  0  0  0
 20 31  1  1  0  0  0
 20 22  1  0  0  0  0
 22 18  1  0  0  0  0
 23 31  1  0  0  0  0
 25 30  2  0  0  0  0
 27 26  1  1  0  0  0
 27 23  1  0  0  0  0
 28 29  2  0  0  0  0
 29 23  1  0  0  0  0
 30 28  1  0  0  0  0
 30 27  1  0  0  0  0
 31 24  2  0  0  0  0
M  END
>  <MODEL>
1

>  <REMARK>
 VINA RESULT:     -10.4      0.000      0.000
  Name = 
  2 active torsions:
  status: ('A' for Active; 'I' for Inactive)
    1  A    between atoms: C_6  and  N_9
    2  A    between atoms: C_26  and  C_29
                            x       y       z     vdW  Elec       q    Type
                         _______ _______ _______ _____ _____    ______ ____

>  <TORSDO>
F 2

$$$$
=
 OpenBabel11042410503D

 31 36  0  0  1  0  0  0  0  0999 V2000
  183.0240  179.0220  143.2780 C   0  0  0  0  0  3  0  0  0  0  0  0
  185.5190  178.4770  145.0000 C   0  0  0  0  0  0  0  0  0  0  0  0
  189.5910  177.6380  145.1000 C   0  0  0  0  0  0  0  0  0  0  0  0
  184.0300  178.9830  142.3980 C   0  0  0  0  0  3  0  0  0  0  0  0
  182.9890  178.4270  144.6520 C   0  0  0  0  0  2  0  0  0  0  0  0
  189.7980  177.6670  146.4180 C   0  0  0  0  0  3  0  0  0  0  0  0
  187.4620  177.9900  143.6510 C   0  0  0  0  0  3  0  0  0  0  0  0
  184.2310  178.6070  145.4510 C   0  0  0  0  0  0  0  0  0  0  0  0
  186.2680  178.4240  146.1500 C   0  0  0  0  0  0  0  0  0  0  0  0
  184.2660  178.6730  146.7700 O   0  0  0  0  0  0  0  0  0  0  0  0
  187.6260  178.1540  146.0820 C   0  0  0  0  0  0  0  0  0  0  0  0
  188.2030  177.9490  144.8490 C   0  0  0  0  0  0  0  0  0  0  0  0
  185.4090  178.4780  142.5760 C   0  0  0  0  0  3  0  0  0  0  0  0
  188.5080  177.9950  147.0640 C   0  0  0  0  0  3  0  0  0  0  0  0
  185.4860  178.5690  147.2340 N   0  0  0  0  0  0  0  0  0  0  0  0
  186.0790  178.2870  143.7190 C   0  0  0  0  0  0  0  0  0  0  0  0
  191.9100  176.1010  142.6740 C   0  0  0  0  0  2  0  0  0  0  0  0
  190.5960  177.4250  144.1040 N   0  0  0  0  0  0  0  0  0  0  0  0
  191.3370  176.2330  144.0010 C   0  0  0  0  0  0  0  0  0  0  0  0
  191.4400  177.4230  142.0540 C   0  0  2  0  0  3  0  0  0  0  0  0
  191.4510  175.3850  144.9250 O   0  0  0  0  0  0  0  0  0  0  0  0
  190.6220  178.1600  142.9620 O   0  0  0  0  0  0  0  0  0  0  0  0
  191.4620  176.9480  139.5500 N   0  0  0  0  0  0  0  0  0  0  0  0
  189.4610  177.1680  140.7390 O   0  0  0  0  0  0  0  0  0  0  0  0
  194.2710  175.8690  137.8080 O   0  0  0  0  0  0  0  0  0  0  0  0
  193.5540  178.0830  139.6400 N   0  0  0  0  0  1  0  0  0  0  0  0
  192.9070  176.7850  139.5300 C   0  0  2  0  0  3  0  0  0  0  0  0
  191.9300  176.0480  137.3800 C   0  0  0  0  0  3  0  0  0  0  0  0
  190.8190  176.5320  138.3080 C   0  0  0  0  0  3  0  0  0  0  0  0
  193.1640  176.2130  138.1900 C   0  0  0  0  0  0  0  0  0  0  0  0
  190.7220  177.1890  140.7580 C   0  0  0  0  0  0  0  0  0  0  0  0
  1  5  1  0  0  0  0
  2  8  2  0  0  0  0
  2  9  1  0  0  0  0
  3  6  2  0  0  0  0
  4 13  1  0  0  0  0
  4  1  2  0  0  0  0
  5  8  1  0  0  0  0
  6 14  1  0  0  0  0
  7 16  1  0  0  0  0
  7 12  2  0  0  0  0
  8 10  1  0  0  0  0
  9 15  2  0  0  0  0
 10 15  1  0  0  0  0
 11  9  1  0  0  0  0
 11 14  2  0  0  0  0
 12  3  1  0  0  0  0
 12 11  1  0  0  0  0
 13 16  2  0  0  0  0
 16  2  1  0  0  0  0
 17 19  1  0  0  0  0
 18  3  1  0  0  0  0
 19 18  1  0  0  0  0
 19 21  2  0  0  0  0
 20 31  1  6  0  0  0
 20 17  1  0  0  0  0
 20 22  1  0  0  0  0
 22 18  1  0  0  0  0
 23 31  1  0  0  0  0
 24 31  2  0  0  0  0
 25 30  2  0  0  0  0
 27 23  1  0  0  0  0
 27 26  1  6  0  0  0
 28 30  1  0  0  0  0
 28 29  2  0  0  0  0
 29 23  1  0  0  0  0
 30 27  1  0  0  0  0
M  END
>  <MODEL>
2

>  <REMARK>
 VINA RESULT:     -10.2      1.942      3.204
  Name = 
  2 active torsions:
  status: ('A' for Active; 'I' for Inactive)
    1  A    between atoms: C_6  and  N_9
    2  A    between atoms: C_26  and  C_29
                            x       y       z     vdW  Elec       q    Type
                         _______ _______ _______ _____ _____    ______ ____

>  <TORSDO>
F 2

$$$$
=
 OpenBabel11042410503D

 31 36  0  0  1  0  0  0  0  0999 V2000
  186.7440  177.8620  146.6840 C   0  0  0  0  0  3  0  0  0  0  0  0
  189.1410  177.5800  144.7700 C   0  0  0  0  0  0  0  0  0  0  0  0
  190.4910  177.4830  140.8370 C   0  0  0  0  0  0  0  0  0  0  0  0
  186.2310  178.1060  145.4740 C   0  0  0  0  0  3  0  0  0  0  0  0
  188.0020  177.1160  147.0090 C   0  0  0  0  0  2  0  0  0  0  0  0
  191.8050  177.3970  141.0490 C   0  0  0  0  0  3  0  0  0  0  0  0
  188.4590  177.6100  142.4540 C   0  0  0  0  0  3  0  0  0  0  0  0
  189.1630  177.4240  146.1310 C   0  0  0  0  0  0  0  0  0  0  0  0
  190.4650  177.5310  144.4090 C   0  0  0  0  0  0  0  0  0  0  0  0
  190.4270  177.3420  146.5120 O   0  0  0  0  0  0  0  0  0  0  0  0
  190.8210  177.5200  143.0700 C   0  0  0  0  0  0  0  0  0  0  0  0
  189.8270  177.5650  142.1180 C   0  0  0  0  0  0  0  0  0  0  0  0
  186.8120  177.8400  144.1400 C   0  0  0  0  0  3  0  0  0  0  0  0
  192.0220  177.4110  142.5130 C   0  0  0  0  0  3  0  0  0  0  0  0
  191.2490  177.4070  145.4950 N   0  0  0  0  0  0  0  0  0  0  0  0
  188.0980  177.6430  143.8230 C   0  0  0  0  0  0  0  0  0  0  0  0
  188.6870  176.7040  137.7130 C   0  0  0  0  0  2  0  0  0  0  0  0
  189.8580  177.5710  139.5570 N   0  0  0  0  0  0  0  0  0  0  0  0
  189.7480  176.4780  138.6760 C   0  0  0  0  0  0  0  0  0  0  0  0
  188.2480  178.1130  138.1330 C   0  0  2  0  0  3  0  0  0  0  0  0
  190.4520  175.4370  138.7460 O   0  0  0  0  0  0  0  0  0  0  0  0
  188.9740  178.5630  139.2760 O   0  0  0  0  0  0  0  0  0  0  0  0
  185.8440  177.7330  137.3740 N   0  0  0  0  0  0  0  0  0  0  0  0
  186.3430  178.5660  139.5020 O   0  0  0  0  0  0  0  0  0  0  0  0
  184.9670  175.8390  134.5940 O   0  0  0  0  0  0  0  0  0  0  0  0
  186.7660  178.1090  135.2120 N   0  0  0  0  0  1  0  0  0  0  0  0
  186.2690  177.1020  136.1350 C   0  0  2  0  0  3  0  0  0  0  0  0
  183.8370  176.7930  136.4660 C   0  0  0  0  0  3  0  0  0  0  0  0
  184.4150  177.5900  137.6320 C   0  0  0  0  0  3  0  0  0  0  0  0
  185.0170  176.5170  135.6070 C   0  0  0  0  0  0  0  0  0  0  0  0
  186.7700  178.1680  138.3840 C   0  0  0  0  0  0  0  0  0  0  0  0
  1  5  1  0  0  0  0
  2  8  2  0  0  0  0
  3  6  2  0  0  0  0
  3 12  1  0  0  0  0
  4  1  2  0  0  0  0
  6 14  1  0  0  0  0
  7 16  1  0  0  0  0
  8 10  1  0  0  0  0
  8  5  1  0  0  0  0
  9  2  1  0  0  0  0
  9 15  2  0  0  0  0
 11  9  1  0  0  0  0
 12  7  2  0  0  0  0
 12 11  1  0  0  0  0
 13  4  1  0  0  0  0
 14 11  2  0  0  0  0
 15 10  1  0  0  0  0
 16 13  2  0  0  0  0
 16  2  1  0  0  0  0
 17 20  1  0  0  0  0
 17 19  1  0  0  0  0
 18  3  1  0  0  0  0
 19 21  2  0  0  0  0
 19 18  1  0  0  0  0
 20 31  1  1  0  0  0
 20 22  1  0  0  0  0
 22 18  1  0  0  0  0
 23 29  1  0  0  0  0
 23 31  1  0  0  0  0
 25 30  2  0  0  0  0
 27 26  1  6  0  0  0
 27 23  1  0  0  0  0
 28 29  2  0  0  0  0
 30 27  1  0  0  0  0
 30 28  1  0  0  0  0
 31 24  2  0  0  0  0
M  END
>  <MODEL>
3

>  <REMARK>
 VINA RESULT:     -10.1      3.277      4.683
  Name = 
  2 active torsions:
  status: ('A' for Active; 'I' for Inactive)
    1  A    between atoms: C_6  and  N_9
    2  A    between atoms: C_26  and  C_29
                            x       y       z     vdW  Elec       q    Type
                         _______ _______ _______ _____ _____    ______ ____

>  <TORSDO>
F 2

$$$$
=
 OpenBabel11042410503D

 31 36  0  0  1  0  0  0  0  0999 V2000
  192.0570  176.3430  147.9870 C   0  0  0  0  0  3  0  0  0  0  0  0
  189.5240  177.1300  146.4190 C   0  0  0  0  0  0  0  0  0  0  0  0
  187.6810  177.5270  142.7130 C   0  0  0  0  0  0  0  0  0  0  0  0
  192.3310  176.0030  146.7240 C   0  0  0  0  0  3  0  0  0  0  0  0
  191.0400  177.3340  148.4650 C   0  0  0  0  0  2  0  0  0  0  0  0
  186.4560  177.8850  143.1040 C   0  0  0  0  0  3  0  0  0  0  0  0
  189.8500  176.9700  144.0320 C   0  0  0  0  0  3  0  0  0  0  0  0
  189.7280  177.2810  147.7660 C   0  0  0  0  0  0  0  0  0  0  0  0
  188.2020  177.4560  146.2460 C   0  0  0  0  0  0  0  0  0  0  0  0
  188.5760  177.6230  148.3170 O   0  0  0  0  0  0  0  0  0  0  0  0
  187.6700  177.5490  144.9690 C   0  0  0  0  0  0  0  0  0  0  0  0
  188.4870  177.3010  143.8900 C   0  0  0  0  0  0  0  0  0  0  0  0
  191.6350  176.3910  145.4770 C   0  0  0  0  0  3  0  0  0  0  0  0
  186.4510  177.9090  144.5830 C   0  0  0  0  0  3  0  0  0  0  0  0
  187.6220  177.7370  147.4270 N   0  0  0  0  0  0  0  0  0  0  0  0
  190.3870  176.8550  145.3380 C   0  0  0  0  0  0  0  0  0  0  0  0
  188.7800  178.0150  139.2240 C   0  0  0  0  0  2  0  0  0  0  0  0
  188.0930  177.3150  141.3590 N   0  0  0  0  0  0  0  0  0  0  0  0
  187.8750  178.2530  140.3320 C   0  0  0  0  0  0  0  0  0  0  0  0
  189.5050  176.7650  139.7400 C   0  0  2  0  0  3  0  0  0  0  0  0
  187.0350  179.1880  140.3920 O   0  0  0  0  0  0  0  0  0  0  0  0
  189.0650  176.4170  141.0530 O   0  0  0  0  0  0  0  0  0  0  0  0
  191.7660  176.4410  138.6080 N   0  0  0  0  0  0  0  0  0  0  0  0
  191.5630  177.5860  140.6370 O   0  0  0  0  0  0  0  0  0  0  0  0
  192.1490  175.4480  135.2980 O   0  0  0  0  0  0  0  0  0  0  0  0
  190.7200  174.4980  137.7130 N   0  0  0  0  0  1  0  0  0  0  0  0
  191.1580  175.8540  137.4240 C   0  0  2  0  0  3  0  0  0  0  0  0
  193.5490  176.3410  137.0120 C   0  0  0  0  0  3  0  0  0  0  0  0
  193.1800  176.7530  138.4340 C   0  0  0  0  0  3  0  0  0  0  0  0
  192.2740  175.8220  136.4530 C   0  0  0  0  0  0  0  0  0  0  0  0
  190.9940  176.9500  139.7090 C   0  0  0  0  0  0  0  0  0  0  0  0
  1  5  1  0  0  0  0
  2  8  2  0  0  0  0
  3  6  2  0  0  0  0
  3 12  1  0  0  0  0
  4  1  2  0  0  0  0
  6 14  1  0  0  0  0
  7 16  1  0  0  0  0
  8 10  1  0  0  0  0
  8  5  1  0  0  0  0
  9  2  1  0  0  0  0
  9 15  2  0  0  0  0
 11  9  1  0  0  0  0
 12  7  2  0  0  0  0
 12 11  1  0  0  0  0
 13  4  1  0  0  0  0
 14 11  2  0  0  0  0
 15 10  1  0  0  0  0
 16 13  2  0  0  0  0
 16  2  1  0  0  0  0
 17 20  1  0  0  0  0
 17 19  1  0  0  0  0
 18  3  1  0  0  0  0
 19 21  2  0  0  0  0
 19 18  1  0  0  0  0
 20 31  1  1  0  0  0
 20 22  1  0  0  0  0
 22 18  1  0  0  0  0
 23 31  1  0  0  0  0
 25 30  2  0  0  0  0
 27 26  1  1  0  0  0
 27 23  1  0  0  0  0
 28 29  2  0  0  0  0
 29 23  1  0  0  0  0
 30 28  1  0  0  0  0
 30 27  1  0  0  0  0
 31 24  2  0  0  0  0
M  END
>  <MODEL>
4

>  <REMARK>
 VINA RESULT:     -10.1      1.755      3.608
  Name = 
  2 active torsions:
  status: ('A' for Active; 'I' for Inactive)
    1  A    between atoms: C_6  and  N_9
    2  A    between atoms: C_26  and  C_29
                            x       y       z     vdW  Elec       q    Type
                         _______ _______ _______ _____ _____    ______ ____

>  <TORSDO>
F 2

$$$$
=
 OpenBabel11042410503D

 31 36  0  0  1  0  0  0  0  0999 V2000
  188.8760  177.2030  145.5850 C   0  0  0  0  0  3  0  0  0  0  0  0
  185.9930  178.1140  144.9930 C   0  0  0  0  0  0  0  0  0  0  0  0
  182.9800  178.5870  142.1660 C   0  0  0  0  0  0  0  0  0  0  0  0
  188.6700  176.8410  144.3150 C   0  0  0  0  0  3  0  0  0  0  0  0
  188.1420  178.2490  146.3680 C   0  0  0  0  0  2  0  0  0  0  0  0
  181.9920  179.0120  142.9550 C   0  0  0  0  0  3  0  0  0  0  0  0
  185.4470  177.9230  142.6490 C   0  0  0  0  0  3  0  0  0  0  0  0
  186.6670  178.2610  146.1780 C   0  0  0  0  0  0  0  0  0  0  0  0
  184.7120  178.5090  145.2890 C   0  0  0  0  0  0  0  0  0  0  0  0
  185.8020  178.6670  147.0910 O   0  0  0  0  0  0  0  0  0  0  0  0
  183.7690  178.6220  144.2800 C   0  0  0  0  0  0  0  0  0  0  0  0
  184.1390  178.3250  142.9880 C   0  0  0  0  0  0  0  0  0  0  0  0
  187.5970  177.2590  143.3850 C   0  0  0  0  0  3  0  0  0  0  0  0
  182.5100  179.0450  144.3400 C   0  0  0  0  0  3  0  0  0  0  0  0
  184.6010  178.8260  146.5920 N   0  0  0  0  0  0  0  0  0  0  0  0
  186.4040  177.7870  143.6840 C   0  0  0  0  0  0  0  0  0  0  0  0
  182.7140  179.0010  138.5080 C   0  0  0  0  0  2  0  0  0  0  0  0
  182.8780  178.3460  140.7590 N   0  0  0  0  0  0  0  0  0  0  0  0
  182.2690  179.2480  139.8660 C   0  0  0  0  0  0  0  0  0  0  0  0
  183.6190  177.7850  138.7470 C   0  0  2  0  0  3  0  0  0  0  0  0
  181.4780  180.1640  140.2120 O   0  0  0  0  0  0  0  0  0  0  0  0
  183.7000  177.4630  140.1350 O   0  0  0  0  0  0  0  0  0  0  0  0
  185.5080  177.1070  137.1750 N   0  0  0  0  0  0  0  0  0  0  0  0
  185.6640  179.0020  138.5360 O   0  0  0  0  0  0  0  0  0  0  0  0
  185.1480  174.8050  134.5940 O   0  0  0  0  0  0  0  0  0  0  0  0
  184.6190  174.9230  137.5060 N   0  0  0  0  0  1  0  0  0  0  0  0
  184.7160  176.0410  136.5820 C   0  0  2  0  0  3  0  0  0  0  0  0
  186.7800  176.4100  135.2690 C   0  0  0  0  0  3  0  0  0  0  0  0
  186.7450  177.3770  136.4490 C   0  0  0  0  0  3  0  0  0  0  0  0
  185.5140  175.6450  135.4010 C   0  0  0  0  0  0  0  0  0  0  0  0
  184.9870  178.0040  138.1700 C   0  0  0  0  0  0  0  0  0  0  0  0
  1  5  1  0  0  0  0
  2  9  1  0  0  0  0
  2  8  2  0  0  0  0
  3  6  2  0  0  0  0
  3 12  1  0  0  0  0
  4  1  2  0  0  0  0
  6 14  1  0  0  0  0
  7 12  2  0  0  0  0
  7 16  1  0  0  0  0
  8  5  1  0  0  0  0
  8 10  1  0  0  0  0
  9 15  2  0  0  0  0
 11 14  2  0  0  0  0
 11  9  1  0  0  0  0
 12 11  1  0  0  0  0
 13 16  2  0  0  0  0
 13  4  1  0  0  0  0
 15 10  1  0  0  0  0
 16  2  1  0  0  0  0
 17 20  1  0  0  0  0
 17 19  1  0  0  0  0
 18  3  1  0  0  0  0
 19 21  2  0  0  0  0
 19 18  1  0  0  0  0
 20 31  1  1  0  0  0
 20 22  1  0  0  0  0
 22 18  1  0  0  0  0
 23 31  1  0  0  0  0
 25 30  2  0  0  0  0
 27 23  1  0  0  0  0
 27 26  1  1  0  0  0
 28 30  1  0  0  0  0
 28 29  2  0  0  0  0
 29 23  1  0  0  0  0
 30 27  1  0  0  0  0
 31 24  2  0  0  0  0
M  END
>  <MODEL>
5

>  <REMARK>
 VINA RESULT:     -10.0      4.311      5.990
  Name = 
  2 active torsions:
  status: ('A' for Active; 'I' for Inactive)
    1  A    between atoms: C_6  and  N_9
    2  A    between atoms: C_26  and  C_29
                            x       y       z     vdW  Elec       q    Type
                         _______ _______ _______ _____ _____    ______ ____

>  <TORSDO>
F 2

$$$$
=
 OpenBabel11042410503D

 31 36  0  0  1  0  0  0  0  0999 V2000
  191.6620  175.7710  143.9660 C   0  0  0  0  0  3  0  0  0  0  0  0
  189.2870  177.1320  145.3780 C   0  0  0  0  0  0  0  0  0  0  0  0
  185.2980  178.2930  145.1920 C   0  0  0  0  0  0  0  0  0  0  0  0
  190.6270  175.5650  143.1450 C   0  0  0  0  0  3  0  0  0  0  0  0
  191.7980  176.8310  145.0150 C   0  0  0  0  0  2  0  0  0  0  0  0
  185.1430  178.7760  146.4260 C   0  0  0  0  0  3  0  0  0  0  0  0
  187.3340  177.2440  143.9630 C   0  0  0  0  0  3  0  0  0  0  0  0
  190.5780  177.0690  145.8340 C   0  0  0  0  0  0  0  0  0  0  0  0
  188.5910  177.6740  146.4310 C   0  0  0  0  0  0  0  0  0  0  0  0
  190.5920  177.5040  147.0820 O   0  0  0  0  0  0  0  0  0  0  0  0
  187.2560  178.0150  146.2790 C   0  0  0  0  0  0  0  0  0  0  0  0
  186.6480  177.7930  145.0650 C   0  0  0  0  0  0  0  0  0  0  0  0
  189.2990  176.2160  143.1310 C   0  0  0  0  0  3  0  0  0  0  0  0
  186.4290  178.6030  147.1370 C   0  0  0  0  0  3  0  0  0  0  0  0
  189.4030  177.8780  147.4830 N   0  0  0  0  0  0  0  0  0  0  0  0
  188.6930  176.8770  144.1250 C   0  0  0  0  0  0  0  0  0  0  0  0
  182.4290  179.0090  142.9830 C   0  0  0  0  0  2  0  0  0  0  0  0
  184.2730  178.2030  144.1990 N   0  0  0  0  0  0  0  0  0  0  0  0
  183.0500  178.8950  144.2900 C   0  0  0  0  0  0  0  0  0  0  0  0
  183.4450  178.2270  142.1420 C   0  0  2  0  0  3  0  0  0  0  0  0
  182.5850  179.3780  145.3550 O   0  0  0  0  0  0  0  0  0  0  0  0
  184.5530  177.7970  142.9330 O   0  0  0  0  0  0  0  0  0  0  0  0
  183.0410  179.2530  139.8430 N   0  0  0  0  0  0  0  0  0  0  0  0
  185.0620  179.5510  140.9820 O   0  0  0  0  0  0  0  0  0  0  0  0
  179.9030  179.5350  138.3730 O   0  0  0  0  0  0  0  0  0  0  0  0
  181.5610  177.4050  139.5920 N   0  0  0  0  0  1  0  0  0  0  0  0
  181.6480  178.8360  139.8330 C   0  0  2  0  0  3  0  0  0  0  0  0
  182.0900  180.4000  137.9680 C   0  0  0  0  0  3  0  0  0  0  0  0
  183.3730  180.1780  138.7650 C   0  0  0  0  0  3  0  0  0  0  0  0
  181.0840  179.5710  138.6800 C   0  0  0  0  0  0  0  0  0  0  0  0
  183.9120  179.0340  140.9660 C   0  0  0  0  0  0  0  0  0  0  0  0
  1  5  1  0  0  0  0
  2  8  2  0  0  0  0
  2  9  1  0  0  0  0
  3  6  2  0  0  0  0
  4  1  2  0  0  0  0
  5  8  1  0  0  0  0
  6 14  1  0  0  0  0
  7 16  1  0  0  0  0
  7 12  2  0  0  0  0
  8 10  1  0  0  0  0
  9 15  2  0  0  0  0
 10 15  1  0  0  0  0
 11  9  1  0  0  0  0
 11 14  2  0  0  0  0
 12  3  1  0  0  0  0
 12 11  1  0  0  0  0
 13  4  1  0  0  0  0
 13 16  2  0  0  0  0
 16  2  1  0  0  0  0
 17 19  1  0  0  0  0
 18 19  1  0  0  0  0
 18  3  1  0  0  0  0
 19 21  2  0  0  0  0
 20 31  1  6  0  0  0
 20 22  1  0  0  0  0
 20 17  1  0  0  0  0
 22 18  1  0  0  0  0
 23 31  1  0  0  0  0
 25 30  2  0  0  0  0
 27 26  1  6  0  0  0
 27 23  1  0  0  0  0
 28 30  1  0  0  0  0
 28 29  2  0  0  0  0
 29 23  1  0  0  0  0
 30 27  1  0  0  0  0
 31 24  2  0  0  0  0
M  END
>  <MODEL>
6

>  <REMARK>
 VINA RESULT:      -9.9      5.165      7.793
  Name = 
  2 active torsions:
  status: ('A' for Active; 'I' for Inactive)
    1  A    between atoms: C_6  and  N_9
    2  A    between atoms: C_26  and  C_29
                            x       y       z     vdW  Elec       q    Type
                         _______ _______ _______ _____ _____    ______ ____

>  <TORSDO>
F 2

$$$$
=
 OpenBabel11042410503D

 31 36  0  0  1  0  0  0  0  0999 V2000
  185.3020  178.4880  146.4320 C   0  0  0  0  0  3  0  0  0  0  0  0
  187.5640  177.7910  144.4610 C   0  0  0  0  0  0  0  0  0  0  0  0
  188.8250  177.5930  140.5030 C   0  0  0  0  0  0  0  0  0  0  0  0
  184.8420  178.8930  145.2450 C   0  0  0  0  0  3  0  0  0  0  0  0
  186.3730  177.4750  146.6990 C   0  0  0  0  0  2  0  0  0  0  0  0
  190.0930  177.2180  140.6860 C   0  0  0  0  0  3  0  0  0  0  0  0
  186.8830  178.0750  142.1630 C   0  0  0  0  0  3  0  0  0  0  0  0
  187.5650  177.5680  145.8140 C   0  0  0  0  0  0  0  0  0  0  0  0
  188.8440  177.4770  144.0740 C   0  0  0  0  0  0  0  0  0  0  0  0
  188.7850  177.2010  146.1660 O   0  0  0  0  0  0  0  0  0  0  0  0
  189.1760  177.4530  142.7280 C   0  0  0  0  0  0  0  0  0  0  0  0
  188.2070  177.7550  141.7990 C   0  0  0  0  0  0  0  0  0  0  0  0
  185.3400  178.5730  143.8880 C   0  0  0  0  0  3  0  0  0  0  0  0
  190.3210  177.1160  142.1440 C   0  0  0  0  0  3  0  0  0  0  0  0
  189.5930  177.1360  145.1370 N   0  0  0  0  0  0  0  0  0  0  0  0
  186.5500  178.1200  143.5390 C   0  0  0  0  0  0  0  0  0  0  0  0
  187.5800  177.3620  137.0370 C   0  0  0  0  0  2  0  0  0  0  0  0
  188.2150  177.8750  139.2410 N   0  0  0  0  0  0  0  0  0  0  0  0
  188.6300  177.2800  138.0340 C   0  0  0  0  0  0  0  0  0  0  0  0
  186.5270  178.1460  137.8290 C   0  0  2  0  0  3  0  0  0  0  0  0
  189.7460  176.7230  137.8660 O   0  0  0  0  0  0  0  0  0  0  0  0
  186.9610  178.3940  139.1660 O   0  0  0  0  0  0  0  0  0  0  0  0
  184.0120  178.1200  138.2480 N   0  0  0  0  0  0  0  0  0  0  0  0
  185.1350  176.2500  137.4040 O   0  0  0  0  0  0  0  0  0  0  0  0
  182.1060  180.9790  138.7730 O   0  0  0  0  0  0  0  0  0  0  0  0
  184.5560  179.7500  139.8960 N   0  0  0  0  0  1  0  0  0  0  0  0
  183.9880  179.5370  138.5740 C   0  0  2  0  0  3  0  0  0  0  0  0
  181.6830  178.6750  138.3210 C   0  0  0  0  0  3  0  0  0  0  0  0
  182.6810  177.5440  138.0850 C   0  0  0  0  0  3  0  0  0  0  0  0
  182.5440  179.8540  138.5940 C   0  0  0  0  0  0  0  0  0  0  0  0
  185.2040  177.4380  137.8220 C   0  0  0  0  0  0  0  0  0  0  0  0
  1  5  1  0  0  0  0
  2  8  2  0  0  0  0
  3  6  2  0  0  0  0
  3 12  1  0  0  0  0
  4  1  2  0  0  0  0
  6 14  1  0  0  0  0
  7 16  1  0  0  0  0
  8 10  1  0  0  0  0
  8  5  1  0  0  0  0
  9  2  1  0  0  0  0
  9 15  2  0  0  0  0
 11  9  1  0  0  0  0
 12  7  2  0  0  0  0
 12 11  1  0  0  0  0
 13  4  1  0  0  0  0
 14 11  2  0  0  0  0
 15 10  1  0  0  0  0
 16 13  2  0  0  0  0
 16  2  1  0  0  0  0
 17 20  1  0  0  0  0
 17 19  1  0  0  0  0
 18  3  1  0  0  0  0
 19 18  1  0  0  0  0
 20 31  1  1  0  0  0
 20 22  1  0  0  0  0
 21 19  2  0  0  0  0
 22 18  1  0  0  0  0
 23 27  1  0  0  0  0
 24 31  2  0  0  0  0
 27 30  1  0  0  0  0
 27 26  1  1  0  0  0
 28 30  1  0  0  0  0
 29 23  1  0  0  0  0
 29 28  2  0  0  0  0
 30 25  2  0  0  0  0
 31 23  1  0  0  0  0
M  END
>  <MODEL>
7

>  <REMARK>
 VINA RESULT:      -9.9      3.475      5.938
  Name = 
  2 active torsions:
  status: ('A' for Active; 'I' for Inactive)
    1  A    between atoms: C_6  and  N_9
    2  A    between atoms: C_26  and  C_29
                            x       y       z     vdW  Elec       q    Type
                         _______ _______ _______ _____ _____    ______ ____

>  <TORSDO>
F 2

$$$$
=
 OpenBabel11042410503D

 31 36  0  0  1  0  0  0  0  0999 V2000
  191.8390  177.2190  140.4200 C   0  0  0  0  0  3  0  0  0  0  0  0
  190.0070  177.3930  142.8910 C   0  0  0  0  0  0  0  0  0  0  0  0
  186.1410  177.8220  144.3630 C   0  0  0  0  0  0  0  0  0  0  0  0
  190.6010  177.2230  139.9140 C   0  0  0  0  0  3  0  0  0  0  0  0
  192.2770  177.7140  141.7650 C   0  0  0  0  0  2  0  0  0  0  0  0
  186.3760  177.6780  145.6680 C   0  0  0  0  0  3  0  0  0  0  0  0
  187.7030  177.7850  142.2850 C   0  0  0  0  0  3  0  0  0  0  0  0
  191.3770  177.3570  142.8940 C   0  0  0  0  0  0  0  0  0  0  0  0
  189.6710  177.2890  144.2180 C   0  0  0  0  0  0  0  0  0  0  0  0
  191.7780  177.1920  144.1430 O   0  0  0  0  0  0  0  0  0  0  0  0
  188.3500  177.4300  144.6130 C   0  0  0  0  0  0  0  0  0  0  0  0
  187.3910  177.6670  143.6550 C   0  0  0  0  0  0  0  0  0  0  0  0
  189.3230  177.5780  140.5700 C   0  0  0  0  0  3  0  0  0  0  0  0
  187.8260  177.4310  145.8350 C   0  0  0  0  0  3  0  0  0  0  0  0
  190.7710  177.1430  144.9780 N   0  0  0  0  0  0  0  0  0  0  0  0
  189.0500  177.6200  141.8800 C   0  0  0  0  0  0  0  0  0  0  0  0
  182.9370  179.2500  143.2160 C   0  0  0  0  0  2  0  0  0  0  0  0
  184.8550  178.0070  143.7650 N   0  0  0  0  0  0  0  0  0  0  0  0
  183.9080  178.9320  144.2460 C   0  0  0  0  0  0  0  0  0  0  0  0
  183.4300  178.3250  142.0960 C   0  0  2  0  0  3  0  0  0  0  0  0
  183.9310  179.4360  145.3990 O   0  0  0  0  0  0  0  0  0  0  0  0
  184.6140  177.6280  142.4830 O   0  0  0  0  0  0  0  0  0  0  0  0
  182.5650  179.2990  139.9050 N   0  0  0  0  0  0  0  0  0  0  0  0
  184.7890  179.5700  140.5750 O   0  0  0  0  0  0  0  0  0  0  0  0
  179.1920  179.6320  139.1300 O   0  0  0  0  0  0  0  0  0  0  0  0
  181.0250  177.4890  140.0350 N   0  0  0  0  0  1  0  0  0  0  0  0
  181.1930  178.9230  140.2060 C   0  0  2  0  0  3  0  0  0  0  0  0
  181.2610  180.4220  138.2390 C   0  0  0  0  0  3  0  0  0  0  0  0
  182.6790  180.1850  138.7510 C   0  0  0  0  0  3  0  0  0  0  0  0
  180.4120  179.6420  139.1770 C   0  0  0  0  0  0  0  0  0  0  0  0
  183.6520  179.0860  140.8220 C   0  0  0  0  0  0  0  0  0  0  0  0
  1  5  1  0  0  0  0
  2  8  2  0  0  0  0
  2  9  1  0  0  0  0
  3  6  2  0  0  0  0
  4  1  2  0  0  0  0
  4 13  1  0  0  0  0
  5  8  1  0  0  0  0
  6 14  1  0  0  0  0
  7 12  2  0  0  0  0
  8 10  1  0  0  0  0
  9 11  1  0  0  0  0
  9 15  2  0  0  0  0
 10 15  1  0  0  0  0
 11 14  2  0  0  0  0
 12  3  1  0  0  0  0
 12 11  1  0  0  0  0
 13 16  2  0  0  0  0
 16  7  1  0  0  0  0
 16  2  1  0  0  0  0
 17 19  1  0  0  0  0
 18 19  1  0  0  0  0
 18  3  1  0  0  0  0
 19 21  2  0  0  0  0
 20 31  1  6  0  0  0
 20 22  1  0  0  0  0
 20 17  1  0  0  0  0
 22 18  1  0  0  0  0
 23 27  1  0  0  0  0
 23 31  1  0  0  0  0
 24 31  2  0  0  0  0
 25 30  2  0  0  0  0
 27 26  1  6  0  0  0
 28 29  2  0  0  0  0
 28 30  1  0  0  0  0
 29 23  1  0  0  0  0
 30 27  1  0  0  0  0
M  END
>  <MODEL>
8

>  <REMARK>
 VINA RESULT:      -9.8      4.018      8.098
  Name = 
  2 active torsions:
  status: ('A' for Active; 'I' for Inactive)
    1  A    between atoms: C_6  and  N_9
    2  A    between atoms: C_26  and  C_29
                            x       y       z     vdW  Elec       q    Type
                         _______ _______ _______ _____ _____    ______ ____

>  <TORSDO>
F 2

$$$$
=
 OpenBabel11042410503D

 31 36  0  0  1  0  0  0  0  0999 V2000
  188.0270  177.4480  145.4840 C   0  0  0  0  0  3  0  0  0  0  0  0
  185.2450  178.2920  144.4640 C   0  0  0  0  0  0  0  0  0  0  0  0
  182.6770  178.6900  141.2170 C   0  0  0  0  0  0  0  0  0  0  0  0
  188.0210  177.0790  144.1990 C   0  0  0  0  0  3  0  0  0  0  0  0
  187.1610  178.4790  146.1430 C   0  0  0  0  0  2  0  0  0  0  0  0
  181.5730  179.0940  141.8470 C   0  0  0  0  0  3  0  0  0  0  0  0
  185.0580  178.0830  142.0660 C   0  0  0  0  0  3  0  0  0  0  0  0
  185.7310  178.4570  145.7350 C   0  0  0  0  0  0  0  0  0  0  0  0
  183.9250  178.6580  144.5640 C   0  0  0  0  0  0  0  0  0  0  0  0
  184.7300  178.8450  146.5070 O   0  0  0  0  0  0  0  0  0  0  0  0
  183.1410  178.7470  143.4250 C   0  0  0  0  0  0  0  0  0  0  0  0
  183.7060  178.4560  142.2040 C   0  0  0  0  0  0  0  0  0  0  0  0
  187.0890  177.4700  143.1170 C   0  0  0  0  0  3  0  0  0  0  0  0
  181.8780  179.1410  143.2950 C   0  0  0  0  0  3  0  0  0  0  0  0
  183.6150  178.9750  145.8330 N   0  0  0  0  0  0  0  0  0  0  0  0
  185.8540  177.9720  143.2330 C   0  0  0  0  0  0  0  0  0  0  0  0
  183.9360  178.3870  137.7610 C   0  0  0  0  0  2  0  0  0  0  0  0
  182.7910  178.4430  139.8120 N   0  0  0  0  0  0  0  0  0  0  0  0
  183.6910  179.1350  138.9800 C   0  0  0  0  0  0  0  0  0  0  0  0
  182.9950  177.1970  137.9900 C   0  0  2  0  0  3  0  0  0  0  0  0
  184.2330  180.2320  139.2760 O   0  0  0  0  0  0  0  0  0  0  0  0
  182.3600  177.2770  139.2660 O   0  0  0  0  0  0  0  0  0  0  0  0
  182.9940  174.6800  137.5860 N   0  0  0  0  0  0  0  0  0  0  0  0
  184.9820  175.8720  137.8950 O   0  0  0  0  0  0  0  0  0  0  0  0
  180.2520  172.9120  136.3870 O   0  0  0  0  0  0  0  0  0  0  0  0
  180.8380  174.8060  138.5870 N   0  0  0  0  0  1  0  0  0  0  0  0
  181.5620  174.6580  137.3350 C   0  0  2  0  0  3  0  0  0  0  0  0
  182.5760  172.4860  136.7210 C   0  0  0  0  0  3  0  0  0  0  0  0
  183.6580  173.4250  137.2460 C   0  0  0  0  0  3  0  0  0  0  0  0
  181.3370  173.3030  136.7870 C   0  0  0  0  0  0  0  0  0  0  0  0
  183.7230  175.8930  137.8380 C   0  0  0  0  0  0  0  0  0  0  0  0
  1  5  1  0  0  0  0
  2  9  1  0  0  0  0
  2  8  2  0  0  0  0
  3  6  2  0  0  0  0
  3 12  1  0  0  0  0
  4  1  2  0  0  0  0
  6 14  1  0  0  0  0
  7 12  2  0  0  0  0
  7 16  1  0  0  0  0
  8  5  1  0  0  0  0
  8 10  1  0  0  0  0
  9 15  2  0  0  0  0
 11  9  1  0  0  0  0
 12 11  1  0  0  0  0
 13 16  2  0  0  0  0
 13  4  1  0  0  0  0
 14 11  2  0  0  0  0
 15 10  1  0  0  0  0
 16  2  1  0  0  0  0
 17 20  1  0  0  0  0
 17 19  1  0  0  0  0
 18  3  1  0  0  0  0
 19 21  2  0  0  0  0
 19 18  1  0  0  0  0
 20 31  1  1  0  0  0
 20 22  1  0  0  0  0
 22 18  1  0  0  0  0
 23 31  1  0  0  0  0
 25 30  2  0  0  0  0
 27 23  1  0  0  0  0
 27 26  1  1  0  0  0
 28 30  1  0  0  0  0
 28 29  2  0  0  0  0
 29 23  1  0  0  0  0
 30 27  1  0  0  0  0
 31 24  2  0  0  0  0
M  END
>  <MODEL>
9

>  <REMARK>
 VINA RESULT:      -9.8      5.440      7.226
  Name = 
  2 active torsions:
  status: ('A' for Active; 'I' for Inactive)
    1  A    between atoms: C_6  and  N_9
    2  A    between atoms: C_26  and  C_29
                            x       y       z     vdW  Elec       q    Type
                         _______ _______ _______ _____ _____    ______ ____

>  <TORSDO>
F 2

$$$$
