=
 OpenBabel11032421043D

 59 62  0  0  1  0  0  0  0  0999 V2000
  190.4750  177.3780  140.3300 C   0  0  0  0  0  2  0  0  0  0  0  0
  190.3880  177.1830  142.8590 C   0  0  0  0  0  0  0  0  0  0  0  0
  188.3650  177.6760  141.6040 C   0  0  0  0  0  3  0  0  0  0  0  0
  189.7340  177.4020  141.6280 C   0  0  0  0  0  0  0  0  0  0  0  0
  189.6570  177.2540  144.0600 C   0  0  0  0  0  0  0  0  0  0  0  0
  191.8550  176.8860  142.9040 C   0  0  0  0  0  1  0  0  0  0  0  0
  187.6380  177.7590  142.7950 C   0  0  0  0  0  0  0  0  0  0  0  0
  188.2850  177.5470  144.0170 C   0  0  0  0  0  3  0  0  0  0  0  0
  186.1790  178.0770  142.7820 C   0  0  0  0  0  2  0  0  0  0  0  0
  185.8580  179.0360  141.6450 C   0  0  0  0  0  2  0  0  0  0  0  0
  183.9340  179.3420  140.0590 C   0  0  0  0  0  0  0  0  0  0  0  0
  184.7310  179.6470  139.1300 O   0  0  0  0  0  0  0  0  0  0  0  0
  184.4340  179.0220  141.3640 N   0  0  0  0  0  2  0  0  0  0  0  0
  182.5640  179.2920  139.7890 O   0  0  0  0  0  0  0  0  0  0  0  0
  180.9490  178.6150  136.4690 C   0  0  2  0  0  0  0  0  0  0  0  0
  181.7680  178.3060  135.2860 C   0  0  0  0  0  2  0  0  0  0  0  0
  179.7310  180.4380  137.6940 C   0  0  0  0  0  2  0  0  0  0  0  0
  180.9950  180.6770  138.5400 C   0  0  1  0  0  3  0  0  0  0  0  0
  180.6330  177.5370  135.6270 O   0  0  0  0  0  0  0  0  0  0  0  0
  180.0350  179.8270  136.3230 C   0  0  0  0  0  2  0  0  0  0  0  0
  181.5650  178.2450  137.8140 C   0  0  1  0  0  3  0  0  0  0  0  0
  182.0400  179.5390  138.4890 C   0  0  2  0  0  3  0  0  0  0  0  0
  181.2340  176.6660  139.5780 O   0  0  0  0  0  1  0  0  0  0  0  0
  180.5600  177.4960  138.6830 C   0  0  0  0  0  2  0  0  0  0  0  0
  181.6350  182.0230  138.2250 C   0  0  0  0  0  2  0  0  0  0  0  0
  182.9500  182.0700  138.6980 O   0  0  0  0  0  1  0  0  0  0  0  0
  190.3100  177.0330  145.2820 O   0  0  0  0  0  0  0  0  0  0  0  0
  189.8310  177.5340  146.5260 C   0  0  0  0  0  2  0  0  0  0  0  0
  191.6910  176.1080  147.3240 C   0  0  0  0  0  1  0  0  0  0  0  0
  190.3220  176.6600  147.6660 C   0  0  0  0  0  2  0  0  0  0  0  0
  189.5330  177.0890  139.1770 C   0  0  0  0  0  2  0  0  0  0  0  0
  189.0750  178.3420  138.6030 N   0  0  0  0  0  2  0  0  0  0  0  0
  189.1530  178.2070  137.2120 N   0  0  0  0  0  2  0  0  0  0  0  0
  187.9430  178.8000  136.6650 C   0  0  0  0  0  2  0  0  0  0  0  0
  186.7850  177.9930  137.0310 N   0  0  0  0  0  0  0  0  0  0  0  0
  186.6210  176.7470  136.7010 C   0  0  0  0  0  0  0  0  0  0  0  0
  187.8290  176.3980  134.6640 N   0  0  0  0  0  2  0  0  0  0  0  0
  188.5050  175.1140  136.5320 N   0  0  0  0  0  2  0  0  0  0  0  0
  187.6160  176.0250  135.8840 C   0  0  0  0  0  0  0  0  0  0  0  0
  189.6640  174.5350  135.8690 C   0  0  0  0  0  2  0  0  0  0  0  0
  190.4270  173.6780  136.8660 C   0  0  0  0  0  2  0  0  0  0  0  0
  191.9300  173.7340  136.6160 C   0  0  2  0  0  3  0  0  0  0  0  0
  192.2640  174.9090  135.9380 O   0  0  0  0  0  1  0  0  0  0  0  0
  192.3570  172.6160  135.8930 O   0  0  0  0  0  0  0  0  0  0  0  0
  193.7330  172.7990  135.7310 C   0  0  0  0  0  2  0  0  0  0  0  0
  194.4610  172.2710  136.9520 C   0  0  0  0  0  2  0  0  0  0  0  0
  195.9180  172.6970  136.8980 C   0  0  0  0  0  2  0  0  0  0  0  0
  196.0270  174.2080  136.7400 C   0  0  1  0  0  3  0  0  0  0  0  0
  195.6130  174.8390  137.9140 O   0  0  0  0  0  1  0  0  0  0  0  0
  197.4630  174.6000  136.4430 C   0  0  0  0  0  2  0  0  0  0  0  0
  197.6730  175.9410  136.7640 O   0  0  0  0  0  0  0  0  0  0  0  0
  197.3730  176.6150  135.6270 N   0  0  0  0  0  1  0  0  0  0  0  0
  185.3740  176.0660  137.0830 C   0  0  0  0  0  0  0  0  0  0  0  0
  184.5900  176.6080  137.9100 O   0  0  0  0  0  0  0  0  0  0  0  0
  185.0690  174.8170  136.5360 O   0  0  0  0  0  0  0  0  0  0  0  0
  183.8880  174.1160  136.8950 C   0  0  0  0  0  2  0  0  0  0  0  0
  181.4340  174.3830  136.9250 C   0  0  0  0  0  2  0  0  0  0  0  0
  181.8090  173.6180  135.6730 C   0  0  0  0  0  2  0  0  0  0  0  0
  182.7030  174.7300  136.1760 C   0  0  0  0  0  3  0  0  0  0  0  0
  1  4  1  0  0  0  0
  2  6  1  0  0  0  0
  2  5  1  0  0  0  0
  3  4  1  0  0  0  0
  3  7  2  0  0  0  0
  4  2  2  0  0  0  0
  5 27  1  0  0  0  0
  7  8  1  0  0  0  0
  8  5  2  0  0  0  0
  9  7  1  0  0  0  0
 10  9  1  0  0  0  0
 11 13  1  0  0  0  0
 12 11  2  0  0  0  0
 13 10  1  0  0  0  0
 14 11  1  0  0  0  0
 15 16  1  6  0  0  0
 15 21  1  0  0  0  0
 16 19  1  0  0  0  0
 17 18  1  0  0  0  0
 18 25  1  6  0  0  0
 19 15  1  0  0  0  0
 20 15  1  0  0  0  0
 20 17  1  0  0  0  0
 21 22  1  0  0  0  0
 21 24  1  1  0  0  0
 22 18  1  0  0  0  0
 22 14  1  1  0  0  0
 24 23  1  0  0  0  0
 25 26  1  0  0  0  0
 27 28  1  0  0  0  0
 28 30  1  0  0  0  0
 29 30  1  0  0  0  0
 31  1  1  0  0  0  0
 32 31  1  0  0  0  0
 33 32  1  0  0  0  0
 34 35  1  0  0  0  0
 34 33  1  0  0  0  0
 36 35  2  0  0  0  0
 36 53  1  0  0  0  0
 37 39  2  0  0  0  0
 39 38  1  0  0  0  0
 39 36  1  0  0  0  0
 40 38  1  0  0  0  0
 40 41  1  0  0  0  0
 42 43  1  6  0  0  0
 42 41  1  0  0  0  0
 44 42  1  0  0  0  0
 45 44  1  0  0  0  0
 45 46  1  0  0  0  0
 47 46  1  0  0  0  0
 48 47  1  0  0  0  0
 48 49  1  1  0  0  0
 50 48  1  0  0  0  0
 50 51  1  0  0  0  0
 52 51  1  0  0  0  0
 53 54  2  0  0  0  0
 55 56  1  0  0  0  0
 55 53  1  0  0  0  0
 58 59  1  0  0  0  0
 58 57  1  0  0  0  0
 59 56  1  0  0  0  0
 59 57  1  0  0  0  0
M  END
>  <MODEL>
1

>  <REMARK>
 VINA RESULT:      -5.7      0.000      0.000
  Name = 
  31 active torsions:
  status: ('A' for Active; 'I' for Inactive)
    1  A    between atoms: O_2  and  C_19
    2  A    between atoms: O_2  and  C_21
    3  A    between atoms: C_3  and  C_10
    4  A    between atoms: C_3  and  C_41
    5  A    between atoms: C_5  and  C_30
    6  A    between atoms: C_5  and  O_37
    7  A    between atoms: C_9  and  C_12
    8  A    between atoms: C_9  and  C_52
    9  A    between atoms: C_10  and  N_27
   10  A    between atoms: C_13  and  C_53
   11  A    between atoms: C_13  and  O_55
   12  A    between atoms: C_14  and  C_16
   13  A    between atoms: C_14  and  N_59
   14  A    between atoms: C_15  and  C_18
   15  A    between atoms: C_16  and  C_29
   16  A    between atoms: C_17  and  N_32
   17  A    between atoms: C_17  and  N_49
   18  A    between atoms: C_19  and  C_54
   19  A    between atoms: C_20  and  C_30
   20  A    between atoms: C_20  and  C_53
   21  A    between atoms: C_24  and  O_34
   22  A    between atoms: C_26  and  C_48
   23  A    between atoms: C_28  and  O_50
   24  A    between atoms: C_28  and  C_56
   25  A    between atoms: C_31  and  C_33
   26  A    between atoms: C_31  and  O_50
   27  A    between atoms: C_33  and  C_51
   28  A    between atoms: O_34  and  C_58
   29  A    between atoms: C_41  and  O_55
   30  A    between atoms: N_46  and  N_49
   31  A    between atoms: N_46  and  C_52
                            x       y       z     vdW  Elec       q    Type
                         _______ _______ _______ _____ _____    ______ ____

>  <TORSDO>
F 31

$$$$
=
 OpenBabel11032421043D

 59 62  0  0  1  0  0  0  0  0999 V2000
  188.9030  178.1850  140.9840 C   0  0  0  0  0  2  0  0  0  0  0  0
  190.3650  177.3570  139.0810 C   0  0  0  0  0  0  0  0  0  0  0  0
  188.1290  178.1970  138.6250 C   0  0  0  0  0  3  0  0  0  0  0  0
  189.1490  177.9130  139.5350 C   0  0  0  0  0  0  0  0  0  0  0  0
  190.5380  177.0810  137.7120 C   0  0  0  0  0  0  0  0  0  0  0  0
  191.4710  177.0470  140.0420 C   0  0  0  0  0  1  0  0  0  0  0  0
  188.2920  177.9130  137.2660 C   0  0  0  0  0  0  0  0  0  0  0  0
  189.4940  177.3580  136.8140 C   0  0  0  0  0  3  0  0  0  0  0  0
  187.1970  178.1900  136.2880 C   0  0  0  0  0  2  0  0  0  0  0  0
  187.4580  177.4560  134.9820 C   0  0  0  0  0  2  0  0  0  0  0  0
  186.0370  175.3930  135.1670 C   0  0  0  0  0  0  0  0  0  0  0  0
  186.8360  174.9020  136.0110 O   0  0  0  0  0  0  0  0  0  0  0  0
  186.2900  176.6840  134.5980 N   0  0  0  0  0  2  0  0  0  0  0  0
  184.8920  174.6720  134.8180 O   0  0  0  0  0  0  0  0  0  0  0  0
  181.9160  174.8000  137.1030 C   0  0  2  0  0  0  0  0  0  0  0  0
  182.0630  175.2360  138.5010 C   0  0  0  0  0  2  0  0  0  0  0  0
  181.7860  172.8020  135.5870 C   0  0  0  0  0  2  0  0  0  0  0  0
  183.3070  172.9040  135.3680 C   0  0  1  0  0  3  0  0  0  0  0  0
  181.0350  175.7340  137.6690 O   0  0  0  0  0  0  0  0  0  0  0  0
  181.3330  173.4040  136.9200 C   0  0  0  0  0  2  0  0  0  0  0  0
  182.9400  175.3650  136.1230 C   0  0  1  0  0  3  0  0  0  0  0  0
  183.9400  174.2500  135.7880 C   0  0  2  0  0  3  0  0  0  0  0  0
  182.7040  177.1900  134.5990 O   0  0  0  0  0  1  0  0  0  0  0  0
  182.2540  175.8990  134.8710 C   0  0  0  0  0  2  0  0  0  0  0  0
  184.0450  171.7310  136.0010 C   0  0  0  0  0  2  0  0  0  0  0  0
  183.2030  171.0230  136.8640 O   0  0  0  0  0  1  0  0  0  0  0  0
  191.7480  176.5310  137.2640 O   0  0  0  0  0  0  0  0  0  0  0  0
  191.8200  175.4110  136.3870 C   0  0  0  0  0  2  0  0  0  0  0  0
  191.5610  172.9530  136.2290 C   0  0  0  0  0  1  0  0  0  0  0  0
  191.2550  174.1760  137.0680 C   0  0  0  0  0  2  0  0  0  0  0  0
  187.4840  178.6720  141.2070 C   0  0  0  0  0  2  0  0  0  0  0  0
  186.9330  178.0260  142.3850 N   0  0  0  0  0  2  0  0  0  0  0  0
  185.6140  177.6720  142.0770 N   0  0  0  0  0  2  0  0  0  0  0  0
  185.0680  178.7520  141.2700 C   0  0  0  0  0  2  0  0  0  0  0  0
  183.6160  178.6350  141.2020 N   0  0  0  0  0  0  0  0  0  0  0  0
  182.8090  178.8820  142.1910 C   0  0  0  0  0  0  0  0  0  0  0  0
  182.9590  180.4390  144.0030 N   0  0  0  0  0  2  0  0  0  0  0  0
  183.9530  178.3190  144.3400 N   0  0  0  0  0  2  0  0  0  0  0  0
  183.3120  179.2950  143.5160 C   0  0  0  0  0  0  0  0  0  0  0  0
  184.2710  178.5540  145.7400 C   0  0  0  0  0  2  0  0  0  0  0  0
  185.7510  178.8760  145.8640 C   0  0  0  0  0  2  0  0  0  0  0  0
  186.1900  178.9360  147.3230 C   0  0  2  0  0  3  0  0  0  0  0  0
  185.8580  180.1750  147.8770 O   0  0  0  0  0  1  0  0  0  0  0  0
  187.5640  178.7040  147.4400 O   0  0  0  0  0  0  0  0  0  0  0  0
  187.7360  177.3720  147.0510 C   0  0  0  0  0  2  0  0  0  0  0  0
  188.9360  176.7850  147.7710 C   0  0  0  0  0  2  0  0  0  0  0  0
  189.9310  176.2570  146.7520 C   0  0  0  0  0  2  0  0  0  0  0  0
  190.4100  177.3820  145.8420 C   0  0  1  0  0  3  0  0  0  0  0  0
  191.7980  177.3280  145.7110 O   0  0  0  0  0  1  0  0  0  0  0  0
  189.7730  177.2490  144.4700 C   0  0  0  0  0  2  0  0  0  0  0  0
  190.7570  177.0600  143.4990 O   0  0  0  0  0  0  0  0  0  0  0  0
  190.7320  175.7300  143.2430 N   0  0  0  0  0  1  0  0  0  0  0  0
  181.3660  178.6630  142.0050 C   0  0  0  0  0  0  0  0  0  0  0  0
  180.7140  178.0100  142.8660 O   0  0  0  0  0  0  0  0  0  0  0  0
  180.7270  179.1710  140.8710 O   0  0  0  0  0  0  0  0  0  0  0  0
  180.3820  178.3360  139.7770 C   0  0  0  0  0  2  0  0  0  0  0  0
  181.8210  179.0040  137.8850 C   0  0  0  0  0  2  0  0  0  0  0  0
  181.4550  180.2520  138.6610 C   0  0  0  0  0  2  0  0  0  0  0  0
  180.4410  179.1410  138.4940 C   0  0  0  0  0  3  0  0  0  0  0  0
  1 31  1  0  0  0  0
  2  4  1  0  0  0  0
  2  6  1  0  0  0  0
  3  4  2  0  0  0  0
  4  1  1  0  0  0  0
  5  2  2  0  0  0  0
  7  3  1  0  0  0  0
  8  7  2  0  0  0  0
  8  5  1  0  0  0  0
  9  7  1  0  0  0  0
 10  9  1  0  0  0  0
 11 12  2  0  0  0  0
 13 10  1  0  0  0  0
 13 11  1  0  0  0  0
 14 11  1  0  0  0  0
 15 20  1  6  0  0  0
 15 19  1  0  0  0  0
 15 16  1  0  0  0  0
 17 20  1  0  0  0  0
 18 17  1  0  0  0  0
 18 22  1  0  0  0  0
 18 25  1  1  0  0  0
 19 16  1  0  0  0  0
 21 24  1  6  0  0  0
 21 15  1  0  0  0  0
 22 14  1  6  0  0  0
 22 21  1  0  0  0  0
 23 24  1  0  0  0  0
 25 26  1  0  0  0  0
 27  5  1  0  0  0  0
 28 30  1  0  0  0  0
 28 27  1  0  0  0  0
 29 30  1  0  0  0  0
 31 32  1  0  0  0  0
 33 32  1  0  0  0  0
 34 33  1  0  0  0  0
 35 34  1  0  0  0  0
 35 36  2  0  0  0  0
 36 39  1  0  0  0  0
 38 40  1  0  0  0  0
 39 37  2  0  0  0  0
 39 38  1  0  0  0  0
 40 41  1  0  0  0  0
 41 42  1  0  0  0  0
 42 44  1  0  0  0  0
 42 43  1  6  0  0  0
 45 44  1  0  0  0  0
 45 46  1  0  0  0  0
 47 46  1  0  0  0  0
 48 49  1  6  0  0  0
 48 47  1  0  0  0  0
 50 48  1  0  0  0  0
 51 50  1  0  0  0  0
 52 51  1  0  0  0  0
 53 36  1  0  0  0  0
 53 54  2  0  0  0  0
 55 53  1  0  0  0  0
 56 55  1  0  0  0  0
 57 59  1  0  0  0  0
 57 58  1  0  0  0  0
 59 58  1  0  0  0  0
 59 56  1  0  0  0  0
M  END
>  <MODEL>
2

>  <REMARK>
 VINA RESULT:      -5.2      2.824      8.335
  Name = 
  31 active torsions:
  status: ('A' for Active; 'I' for Inactive)
    1  A    between atoms: O_2  and  C_19
    2  A    between atoms: O_2  and  C_21
    3  A    between atoms: C_3  and  C_10
    4  A    between atoms: C_3  and  C_41
    5  A    between atoms: C_5  and  C_30
    6  A    between atoms: C_5  and  O_37
    7  A    between atoms: C_9  and  C_12
    8  A    between atoms: C_9  and  C_52
    9  A    between atoms: C_10  and  N_27
   10  A    between atoms: C_13  and  C_53
   11  A    between atoms: C_13  and  O_55
   12  A    between atoms: C_14  and  C_16
   13  A    between atoms: C_14  and  N_59
   14  A    between atoms: C_15  and  C_18
   15  A    between atoms: C_16  and  C_29
   16  A    between atoms: C_17  and  N_32
   17  A    between atoms: C_17  and  N_49
   18  A    between atoms: C_19  and  C_54
   19  A    between atoms: C_20  and  C_30
   20  A    between atoms: C_20  and  C_53
   21  A    between atoms: C_24  and  O_34
   22  A    between atoms: C_26  and  C_48
   23  A    between atoms: C_28  and  O_50
   24  A    between atoms: C_28  and  C_56
   25  A    between atoms: C_31  and  C_33
   26  A    between atoms: C_31  and  O_50
   27  A    between atoms: C_33  and  C_51
   28  A    between atoms: O_34  and  C_58
   29  A    between atoms: C_41  and  O_55
   30  A    between atoms: N_46  and  N_49
   31  A    between atoms: N_46  and  C_52
                            x       y       z     vdW  Elec       q    Type
                         _______ _______ _______ _____ _____    ______ ____

>  <TORSDO>
F 31

$$$$
=
 OpenBabel11032421043D

 59 62  0  0  1  0  0  0  0  0999 V2000
  186.0740  177.4160  144.8700 C   0  0  0  0  0  2  0  0  0  0  0  0
  188.6040  177.4800  145.0640 C   0  0  0  0  0  0  0  0  0  0  0  0
  187.5340  177.9120  142.9240 C   0  0  0  0  0  3  0  0  0  0  0  0
  187.4350  177.6140  144.2840 C   0  0  0  0  0  0  0  0  0  0  0  0
  189.8660  177.6370  144.4620 C   0  0  0  0  0  0  0  0  0  0  0  0
  188.5170  177.1630  146.5250 C   0  0  0  0  0  1  0  0  0  0  0  0
  188.7860  178.0570  142.3190 C   0  0  0  0  0  0  0  0  0  0  0  0
  189.9460  177.9200  143.0880 C   0  0  0  0  0  3  0  0  0  0  0  0
  188.9030  178.3500  140.8590 C   0  0  0  0  0  2  0  0  0  0  0  0
  189.4260  177.1310  140.1160 C   0  0  0  0  0  2  0  0  0  0  0  0
  191.4720  176.4020  138.8530 C   0  0  0  0  0  0  0  0  0  0  0  0
  191.0230  175.2250  138.7790 O   0  0  0  0  0  0  0  0  0  0  0  0
  190.7170  177.4230  139.5190 N   0  0  0  0  0  2  0  0  0  0  0  0
  192.6970  176.7000  138.2510 O   0  0  0  0  0  0  0  0  0  0  0  0
  195.0470  174.5050  136.3150 C   0  0  2  0  0  0  0  0  0  0  0  0
  196.0650  175.0930  135.4300 C   0  0  0  0  0  2  0  0  0  0  0  0
  192.7520  173.4900  136.4010 C   0  0  0  0  0  2  0  0  0  0  0  0
  192.1760  174.8840  136.7110 C   0  0  1  0  0  3  0  0  0  0  0  0
  196.3800  174.0660  136.3470 O   0  0  0  0  0  0  0  0  0  0  0  0
  194.0770  173.5460  135.6360 C   0  0  0  0  0  2  0  0  0  0  0  0
  194.6090  175.3750  137.4890 C   0  0  1  0  0  3  0  0  0  0  0  0
  193.2150  175.9330  137.1700 C   0  0  2  0  0  3  0  0  0  0  0  0
  195.7310  174.9070  139.5470 O   0  0  0  0  0  1  0  0  0  0  0  0
  194.6100  174.5750  138.7870 C   0  0  0  0  0  2  0  0  0  0  0  0
  191.3370  175.4140  135.5550 C   0  0  0  0  0  2  0  0  0  0  0  0
  192.1390  176.0870  134.6280 O   0  0  0  0  0  1  0  0  0  0  0  0
  191.0260  177.5060  145.2400 O   0  0  0  0  0  0  0  0  0  0  0  0
  191.8790  176.3670  145.1840 C   0  0  0  0  0  2  0  0  0  0  0  0
  192.0180  176.7660  147.6240 C   0  0  0  0  0  1  0  0  0  0  0  0
  191.9530  175.7020  146.5480 C   0  0  0  0  0  2  0  0  0  0  0  0
  185.6550  178.6270  145.6820 C   0  0  0  0  0  2  0  0  0  0  0  0
  184.4890  179.2380  145.0690 N   0  0  0  0  0  2  0  0  0  0  0  0
  184.0680  178.3790  144.0470 N   0  0  0  0  0  2  0  0  0  0  0  0
  183.9430  179.1880  142.8440 C   0  0  0  0  0  2  0  0  0  0  0  0
  183.0670  178.5220  141.8870 N   0  0  0  0  0  0  0  0  0  0  0  0
  183.3500  178.3410  140.6310 C   0  0  0  0  0  0  0  0  0  0  0  0
  185.4680  179.4450  140.7930 N   0  0  0  0  0  2  0  0  0  0  0  0
  184.9810  178.3800  138.7380 N   0  0  0  0  0  2  0  0  0  0  0  0
  184.6130  178.8290  140.0440 C   0  0  0  0  0  0  0  0  0  0  0  0
  186.3000  178.6070  138.1670 C   0  0  0  0  0  2  0  0  0  0  0  0
  186.4400  177.7760  136.9020 C   0  0  0  0  0  2  0  0  0  0  0  0
  187.8830  177.3390  136.6780 C   0  0  2  0  0  3  0  0  0  0  0  0
  188.6990  178.4540  136.4650 O   0  0  0  0  0  1  0  0  0  0  0  0
  187.9750  176.4560  135.5970 O   0  0  0  0  0  0  0  0  0  0  0  0
  188.1350  175.1950  136.1780 C   0  0  0  0  0  2  0  0  0  0  0  0
  187.3920  174.1610  135.3550 C   0  0  0  0  0  2  0  0  0  0  0  0
  186.0400  174.7160  134.9420 C   0  0  0  0  0  2  0  0  0  0  0  0
  184.9180  173.8170  135.4480 C   0  0  1  0  0  3  0  0  0  0  0  0
  184.8840  173.8380  136.8430 O   0  0  0  0  0  1  0  0  0  0  0  0
  183.5820  174.2980  134.9100 C   0  0  0  0  0  2  0  0  0  0  0  0
  182.5360  173.6500  135.5670 O   0  0  0  0  0  0  0  0  0  0  0  0
  182.0620  172.7620  134.6600 N   0  0  0  0  0  1  0  0  0  0  0  0
  182.3480  177.7080  139.7590 C   0  0  0  0  0  0  0  0  0  0  0  0
  182.1470  176.4650  139.8320 O   0  0  0  0  0  0  0  0  0  0  0  0
  181.6320  178.4880  138.8460 O   0  0  0  0  0  0  0  0  0  0  0  0
  180.2470  178.2800  138.6200 C   0  0  0  0  0  2  0  0  0  0  0  0
  181.3950  177.2530  136.6910 C   0  0  0  0  0  2  0  0  0  0  0  0
  180.7340  178.5310  136.2180 C   0  0  0  0  0  2  0  0  0  0  0  0
  180.0490  177.6610  137.2500 C   0  0  0  0  0  3  0  0  0  0  0  0
  1 31  1  0  0  0  0
  2  6  1  0  0  0  0
  3  4  1  0  0  0  0
  4  1  1  0  0  0  0
  4  2  2  0  0  0  0
  5  2  1  0  0  0  0
  5 27  1  0  0  0  0
  7  3  2  0  0  0  0
  7  8  1  0  0  0  0
  8  5  2  0  0  0  0
  9  7  1  0  0  0  0
 10  9  1  0  0  0  0
 11 13  1  0  0  0  0
 12 11  2  0  0  0  0
 13 10  1  0  0  0  0
 14 11  1  0  0  0  0
 15 16  1  6  0  0  0
 15 19  1  0  0  0  0
 15 21  1  0  0  0  0
 16 19  1  0  0  0  0
 17 18  1  0  0  0  0
 18 25  1  6  0  0  0
 18 22  1  0  0  0  0
 20 15  1  0  0  0  0
 20 17  1  0  0  0  0
 21 24  1  1  0  0  0
 22 21  1  0  0  0  0
 22 14  1  1  0  0  0
 24 23  1  0  0  0  0
 26 25  1  0  0  0  0
 28 27  1  0  0  0  0
 28 30  1  0  0  0  0
 30 29  1  0  0  0  0
 32 31  1  0  0  0  0
 33 32  1  0  0  0  0
 34 33  1  0  0  0  0
 35 34  1  0  0  0  0
 36 35  2  0  0  0  0
 38 39  1  0  0  0  0
 39 36  1  0  0  0  0
 39 37  2  0  0  0  0
 40 38  1  0  0  0  0
 41 40  1  0  0  0  0
 42 43  1  6  0  0  0
 42 41  1  0  0  0  0
 44 45  1  0  0  0  0
 44 42  1  0  0  0  0
 46 45  1  0  0  0  0
 47 46  1  0  0  0  0
 47 48  1  0  0  0  0
 48 49  1  1  0  0  0
 50 48  1  0  0  0  0
 50 51  1  0  0  0  0
 52 51  1  0  0  0  0
 53 54  2  0  0  0  0
 53 36  1  0  0  0  0
 55 53  1  0  0  0  0
 56 55  1  0  0  0  0
 57 59  1  0  0  0  0
 58 57  1  0  0  0  0
 58 59  1  0  0  0  0
 59 56  1  0  0  0  0
M  END
>  <MODEL>
3

>  <REMARK>
 VINA RESULT:      -5.0      2.318      8.830
  Name = 
  31 active torsions:
  status: ('A' for Active; 'I' for Inactive)
    1  A    between atoms: O_2  and  C_19
    2  A    between atoms: O_2  and  C_21
    3  A    between atoms: C_3  and  C_10
    4  A    between atoms: C_3  and  C_41
    5  A    between atoms: C_5  and  C_30
    6  A    between atoms: C_5  and  O_37
    7  A    between atoms: C_9  and  C_12
    8  A    between atoms: C_9  and  C_52
    9  A    between atoms: C_10  and  N_27
   10  A    between atoms: C_13  and  C_53
   11  A    between atoms: C_13  and  O_55
   12  A    between atoms: C_14  and  C_16
   13  A    between atoms: C_14  and  N_59
   14  A    between atoms: C_15  and  C_18
   15  A    between atoms: C_16  and  C_29
   16  A    between atoms: C_17  and  N_32
   17  A    between atoms: C_17  and  N_49
   18  A    between atoms: C_19  and  C_54
   19  A    between atoms: C_20  and  C_30
   20  A    between atoms: C_20  and  C_53
   21  A    between atoms: C_24  and  O_34
   22  A    between atoms: C_26  and  C_48
   23  A    between atoms: C_28  and  O_50
   24  A    between atoms: C_28  and  C_56
   25  A    between atoms: C_31  and  C_33
   26  A    between atoms: C_31  and  O_50
   27  A    between atoms: C_33  and  C_51
   28  A    between atoms: O_34  and  C_58
   29  A    between atoms: C_41  and  O_55
   30  A    between atoms: N_46  and  N_49
   31  A    between atoms: N_46  and  C_52
                            x       y       z     vdW  Elec       q    Type
                         _______ _______ _______ _____ _____    ______ ____

>  <TORSDO>
F 31

$$$$
=
 OpenBabel11032421043D

 59 62  0  0  1  0  0  0  0  0999 V2000
  181.5850  177.7290  140.3840 C   0  0  0  0  0  2  0  0  0  0  0  0
  184.0110  178.3020  139.9050 C   0  0  0  0  0  0  0  0  0  0  0  0
  183.0680  178.7300  142.1050 C   0  0  0  0  0  3  0  0  0  0  0  0
  182.9210  178.2550  140.8010 C   0  0  0  0  0  0  0  0  0  0  0  0
  185.2400  178.8410  140.3300 C   0  0  0  0  0  0  0  0  0  0  0  0
  183.8720  177.7950  138.5030 C   0  0  0  0  0  1  0  0  0  0  0  0
  184.2840  179.2770  142.5280 C   0  0  0  0  0  0  0  0  0  0  0  0
  185.3640  179.3300  141.6410 C   0  0  0  0  0  3  0  0  0  0  0  0
  184.4430  179.8120  143.9130 C   0  0  0  0  0  2  0  0  0  0  0  0
  184.5750  178.6690  144.9080 C   0  0  0  0  0  2  0  0  0  0  0  0
  186.6630  177.7970  145.9990 C   0  0  0  0  0  0  0  0  0  0  0  0
  186.1960  178.0690  147.1390 O   0  0  0  0  0  0  0  0  0  0  0  0
  185.8970  178.0770  144.8200 N   0  0  0  0  0  2  0  0  0  0  0  0
  187.9200  177.1940  145.9060 O   0  0  0  0  0  0  0  0  0  0  0  0
  191.1560  178.1820  144.2810 C   0  0  2  0  0  0  0  0  0  0  0  0
  191.4560  179.5970  144.0060 C   0  0  0  0  0  2  0  0  0  0  0  0
  190.2800  176.0480  143.2890 C   0  0  0  0  0  2  0  0  0  0  0  0
  188.8760  176.4170  143.8030 C   0  0  1  0  0  3  0  0  0  0  0  0
  192.4000  178.7400  144.6150 O   0  0  0  0  0  0  0  0  0  0  0  0
  191.1740  177.2700  143.0600 C   0  0  0  0  0  2  0  0  0  0  0  0
  190.2130  177.9210  145.4510 C   0  0  1  0  0  3  0  0  0  0  0  0
  188.8440  177.5290  144.8770 C   0  0  2  0  0  3  0  0  0  0  0  0
  190.6730  177.2420  147.6960 O   0  0  0  0  0  1  0  0  0  0  0  0
  190.7700  176.8360  146.3650 C   0  0  0  0  0  2  0  0  0  0  0  0
  187.9250  176.7370  142.6560 C   0  0  0  0  0  2  0  0  0  0  0  0
  188.6050  177.3660  141.6100 O   0  0  0  0  0  1  0  0  0  0  0  0
  186.3220  178.8850  139.4380 O   0  0  0  0  0  0  0  0  0  0  0  0
  186.4340  178.0300  138.3040 C   0  0  0  0  0  2  0  0  0  0  0  0
  188.8710  178.3650  138.5930 C   0  0  0  0  0  1  0  0  0  0  0  0
  187.7900  177.3460  138.2990 C   0  0  0  0  0  2  0  0  0  0  0  0
  180.6870  177.5240  141.5890 C   0  0  0  0  0  2  0  0  0  0  0  0
  179.4200  178.1960  141.3650 N   0  0  0  0  0  2  0  0  0  0  0  0
  179.6830  179.3030  140.5500 N   0  0  0  0  0  2  0  0  0  0  0  0
  178.9980  179.0660  139.2870 C   0  0  0  0  0  2  0  0  0  0  0  0
  179.2040  180.1980  138.3910 N   0  0  0  0  0  0  0  0  0  0  0  0
  179.4360  180.0950  137.1160 C   0  0  0  0  0  0  0  0  0  0  0  0
  178.9360  178.5930  135.3210 N   0  0  0  0  0  2  0  0  0  0  0  0
  180.5040  177.8440  136.9260 N   0  0  0  0  0  2  0  0  0  0  0  0
  179.5360  178.7820  136.4500 C   0  0  0  0  0  0  0  0  0  0  0  0
  180.8460  176.6280  136.2040 C   0  0  0  0  0  2  0  0  0  0  0  0
  181.9520  176.9390  135.2080 C   0  0  0  0  0  2  0  0  0  0  0  0
  183.2430  176.2110  135.5620 C   0  0  2  0  0  3  0  0  0  0  0  0
  184.3320  176.8260  134.9400 O   0  0  0  0  0  1  0  0  0  0  0  0
  183.1720  174.8620  135.1960 O   0  0  0  0  0  0  0  0  0  0  0  0
  184.5030  174.4470  135.1010 C   0  0  0  0  0  2  0  0  0  0  0  0
  184.9340  173.8240  136.4150 C   0  0  0  0  0  2  0  0  0  0  0  0
  183.9020  172.8000  136.8540 C   0  0  0  0  0  2  0  0  0  0  0  0
  183.7670  171.6980  135.8110 C   0  0  1  0  0  3  0  0  0  0  0  0
  184.8900  170.8700  135.8460 O   0  0  0  0  0  1  0  0  0  0  0  0
  182.5270  170.8670  136.0870 C   0  0  0  0  0  2  0  0  0  0  0  0
  181.5170  171.1940  135.1820 O   0  0  0  0  0  0  0  0  0  0  0  0
  180.3960  170.6450  135.7090 N   0  0  0  0  0  1  0  0  0  0  0  0
  179.6880  181.3190  136.3370 C   0  0  0  0  0  0  0  0  0  0  0  0
  179.7660  181.2570  135.0800 O   0  0  0  0  0  0  0  0  0  0  0  0
  179.8490  182.5400  136.9970 O   0  0  0  0  0  0  0  0  0  0  0  0
  181.1360  183.0600  137.2910 C   0  0  0  0  0  2  0  0  0  0  0  0
  179.7610  184.9950  136.6120 C   0  0  0  0  0  2  0  0  0  0  0  0
  180.8170  184.7720  135.5500 C   0  0  0  0  0  2  0  0  0  0  0  0
  181.1530  184.5490  137.0090 C   0  0  0  0  0  3  0  0  0  0  0  0
  1  4  1  0  0  0  0
  1 31  1  0  0  0  0
  2  5  2  0  0  0  0
  2  4  1  0  0  0  0
  3  7  1  0  0  0  0
  4  3  2  0  0  0  0
  5  8  1  0  0  0  0
  6  2  1  0  0  0  0
  7  9  1  0  0  0  0
  8  7  2  0  0  0  0
  9 10  1  0  0  0  0
 11 12  2  0  0  0  0
 13 10  1  0  0  0  0
 13 11  1  0  0  0  0
 14 11  1  0  0  0  0
 15 20  1  6  0  0  0
 15 19  1  0  0  0  0
 15 21  1  0  0  0  0
 16 15  1  0  0  0  0
 16 19  1  0  0  0  0
 17 18  1  0  0  0  0
 18 25  1  6  0  0  0
 18 22  1  0  0  0  0
 20 17  1  0  0  0  0
 21 24  1  1  0  0  0
 22 21  1  0  0  0  0
 22 14  1  1  0  0  0
 24 23  1  0  0  0  0
 26 25  1  0  0  0  0
 27  5  1  0  0  0  0
 28 27  1  0  0  0  0
 30 28  1  0  0  0  0
 30 29  1  0  0  0  0
 32 31  1  0  0  0  0
 33 32  1  0  0  0  0
 34 33  1  0  0  0  0
 35 34  1  0  0  0  0
 36 35  2  0  0  0  0
 37 39  2  0  0  0  0
 39 38  1  0  0  0  0
 39 36  1  0  0  0  0
 40 38  1  0  0  0  0
 41 42  1  0  0  0  0
 41 40  1  0  0  0  0
 42 43  1  6  0  0  0
 44 42  1  0  0  0  0
 45 44  1  0  0  0  0
 45 46  1  0  0  0  0
 46 47  1  0  0  0  0
 48 49  1  1  0  0  0
 48 50  1  0  0  0  0
 48 47  1  0  0  0  0
 51 52  1  0  0  0  0
 51 50  1  0  0  0  0
 53 55  1  0  0  0  0
 53 36  1  0  0  0  0
 54 53  2  0  0  0  0
 55 56  1  0  0  0  0
 57 59  1  0  0  0  0
 58 57  1  0  0  0  0
 58 59  1  0  0  0  0
 59 56  1  0  0  0  0
M  END
>  <MODEL>
4

>  <REMARK>
 VINA RESULT:      -4.9      4.938      9.934
  Name = 
  31 active torsions:
  status: ('A' for Active; 'I' for Inactive)
    1  A    between atoms: O_2  and  C_19
    2  A    between atoms: O_2  and  C_21
    3  A    between atoms: C_3  and  C_10
    4  A    between atoms: C_3  and  C_41
    5  A    between atoms: C_5  and  C_30
    6  A    between atoms: C_5  and  O_37
    7  A    between atoms: C_9  and  C_12
    8  A    between atoms: C_9  and  C_52
    9  A    between atoms: C_10  and  N_27
   10  A    between atoms: C_13  and  C_53
   11  A    between atoms: C_13  and  O_55
   12  A    between atoms: C_14  and  C_16
   13  A    between atoms: C_14  and  N_59
   14  A    between atoms: C_15  and  C_18
   15  A    between atoms: C_16  and  C_29
   16  A    between atoms: C_17  and  N_32
   17  A    between atoms: C_17  and  N_49
   18  A    between atoms: C_19  and  C_54
   19  A    between atoms: C_20  and  C_30
   20  A    between atoms: C_20  and  C_53
   21  A    between atoms: C_24  and  O_34
   22  A    between atoms: C_26  and  C_48
   23  A    between atoms: C_28  and  O_50
   24  A    between atoms: C_28  and  C_56
   25  A    between atoms: C_31  and  C_33
   26  A    between atoms: C_31  and  O_50
   27  A    between atoms: C_33  and  C_51
   28  A    between atoms: O_34  and  C_58
   29  A    between atoms: C_41  and  O_55
   30  A    between atoms: N_46  and  N_49
   31  A    between atoms: N_46  and  C_52
                            x       y       z     vdW  Elec       q    Type
                         _______ _______ _______ _____ _____    ______ ____

>  <TORSDO>
F 31

$$$$
=
 OpenBabel11032421043D

 59 62  0  0  1  0  0  0  0  0999 V2000
  188.7770  178.2410  141.1990 C   0  0  0  0  0  2  0  0  0  0  0  0
  190.5290  177.4380  139.5460 C   0  0  0  0  0  0  0  0  0  0  0  0
  188.2800  177.9590  138.7830 C   0  0  0  0  0  3  0  0  0  0  0  0
  189.2160  177.8790  139.8160 C   0  0  0  0  0  0  0  0  0  0  0  0
  190.8860  177.0700  138.2360 C   0  0  0  0  0  0  0  0  0  0  0  0
  191.5460  177.3470  140.6420 C   0  0  0  0  0  1  0  0  0  0  0  0
  188.6280  177.5830  137.4820 C   0  0  0  0  0  0  0  0  0  0  0  0
  189.9270  177.1410  137.2130 C   0  0  0  0  0  3  0  0  0  0  0  0
  187.6270  177.6410  136.3750 C   0  0  0  0  0  2  0  0  0  0  0  0
  188.1510  176.9050  135.1500 C   0  0  0  0  0  2  0  0  0  0  0  0
  186.8160  174.7780  135.1890 C   0  0  0  0  0  0  0  0  0  0  0  0
  187.4550  174.3790  136.2010 O   0  0  0  0  0  0  0  0  0  0  0  0
  187.1160  176.0490  134.5990 N   0  0  0  0  0  2  0  0  0  0  0  0
  185.7940  173.9760  134.6730 O   0  0  0  0  0  0  0  0  0  0  0  0
  182.5120  172.8170  136.0790 C   0  0  2  0  0  0  0  0  0  0  0  0
  181.3920  172.4790  135.1860 C   0  0  0  0  0  2  0  0  0  0  0  0
  183.5090  174.6170  137.5190 C   0  0  0  0  0  2  0  0  0  0  0  0
  184.3650  175.0650  136.3200 C   0  0  1  0  0  3  0  0  0  0  0  0
  181.7750  171.6350  136.2530 O   0  0  0  0  0  0  0  0  0  0  0  0
  182.2170  173.9090  137.1010 C   0  0  0  0  0  2  0  0  0  0  0  0
  183.9070  172.6450  135.4840 C   0  0  1  0  0  3  0  0  0  0  0  0
  184.4610  174.0410  135.1660 C   0  0  2  0  0  3  0  0  0  0  0  0
  185.4880  170.8740  135.7600 O   0  0  0  0  0  1  0  0  0  0  0  0
  184.8160  171.8860  136.4440 C   0  0  0  0  0  2  0  0  0  0  0  0
  183.9340  176.4320  135.8030 C   0  0  0  0  0  2  0  0  0  0  0  0
  183.0440  176.3000  134.7330 O   0  0  0  0  0  1  0  0  0  0  0  0
  192.1930  176.6350  137.9710 O   0  0  0  0  0  0  0  0  0  0  0  0
  192.5080  175.6710  136.9700 C   0  0  0  0  0  2  0  0  0  0  0  0
  192.2150  173.3120  136.2780 C   0  0  0  0  0  1  0  0  0  0  0  0
  192.0980  174.2840  137.4330 C   0  0  0  0  0  2  0  0  0  0  0  0
  187.3300  178.6960  141.2040 C   0  0  0  0  0  2  0  0  0  0  0  0
  186.6840  178.2320  142.4180 N   0  0  0  0  0  2  0  0  0  0  0  0
  185.4110  177.7780  142.0550 N   0  0  0  0  0  2  0  0  0  0  0  0
  184.7570  178.8760  141.3580 C   0  0  0  0  0  2  0  0  0  0  0  0
  183.3100  178.7060  141.4120 N   0  0  0  0  0  0  0  0  0  0  0  0
  182.5790  178.9410  142.4620 C   0  0  0  0  0  0  0  0  0  0  0  0
  182.9650  180.6010  144.1430 N   0  0  0  0  0  2  0  0  0  0  0  0
  183.7390  178.4160  144.6120 N   0  0  0  0  0  2  0  0  0  0  0  0
  183.1740  179.3930  143.7340 C   0  0  0  0  0  0  0  0  0  0  0  0
  184.1350  178.7180  145.9790 C   0  0  0  0  0  2  0  0  0  0  0  0
  185.5930  179.1470  145.9890 C   0  0  0  0  0  2  0  0  0  0  0  0
  186.5080  178.0070  146.4210 C   0  0  2  0  0  3  0  0  0  0  0  0
  186.5540  177.9260  147.8150 O   0  0  0  0  0  1  0  0  0  0  0  0
  187.7960  178.1770  145.9010 O   0  0  0  0  0  0  0  0  0  0  0  0
  188.6180  177.4020  146.7230 C   0  0  0  0  0  2  0  0  0  0  0  0
  189.9740  178.0680  146.8560 C   0  0  0  0  0  2  0  0  0  0  0  0
  191.0250  177.2250  146.1540 C   0  0  0  0  0  2  0  0  0  0  0  0
  191.0030  177.4860  144.6530 C   0  0  1  0  0  3  0  0  0  0  0  0
  191.8300  178.5660  144.3460 O   0  0  0  0  0  1  0  0  0  0  0  0
  191.4870  176.2570  143.9030 C   0  0  0  0  0  2  0  0  0  0  0  0
  190.4420  175.7000  143.1660 O   0  0  0  0  0  0  0  0  0  0  0  0
  190.6510  174.3630  143.2370 N   0  0  0  0  0  1  0  0  0  0  0  0
  181.1340  178.6690  142.4000 C   0  0  0  0  0  0  0  0  0  0  0  0
  180.5000  178.3990  143.4570 O   0  0  0  0  0  0  0  0  0  0  0  0
  180.4750  178.7000  141.1680 O   0  0  0  0  0  0  0  0  0  0  0  0
  180.6140  177.6500  140.2250 C   0  0  0  0  0  2  0  0  0  0  0  0
  180.2200  175.2390  139.8700 C   0  0  0  0  0  2  0  0  0  0  0  0
  178.9320  175.9750  139.5670 C   0  0  0  0  0  2  0  0  0  0  0  0
  179.8240  176.4440  140.6960 C   0  0  0  0  0  3  0  0  0  0  0  0
  1 31  1  0  0  0  0
  2  4  1  0  0  0  0
  2  6  1  0  0  0  0
  3  4  2  0  0  0  0
  4  1  1  0  0  0  0
  5  2  2  0  0  0  0
  7  3  1  0  0  0  0
  8  7  2  0  0  0  0
  8  5  1  0  0  0  0
  9  7  1  0  0  0  0
 10  9  1  0  0  0  0
 11 12  2  0  0  0  0
 13 10  1  0  0  0  0
 13 11  1  0  0  0  0
 14 11  1  0  0  0  0
 15 16  1  6  0  0  0
 15 19  1  0  0  0  0
 15 20  1  0  0  0  0
 16 19  1  0  0  0  0
 18 25  1  6  0  0  0
 18 17  1  0  0  0  0
 20 17  1  0  0  0  0
 21 15  1  0  0  0  0
 21 24  1  1  0  0  0
 22 14  1  1  0  0  0
 22 21  1  0  0  0  0
 22 18  1  0  0  0  0
 23 24  1  0  0  0  0
 26 25  1  0  0  0  0
 27  5  1  0  0  0  0
 28 30  1  0  0  0  0
 28 27  1  0  0  0  0
 29 30  1  0  0  0  0
 31 32  1  0  0  0  0
 33 32  1  0  0  0  0
 34 35  1  0  0  0  0
 34 33  1  0  0  0  0
 35 36  2  0  0  0  0
 36 39  1  0  0  0  0
 38 40  1  0  0  0  0
 39 37  2  0  0  0  0
 39 38  1  0  0  0  0
 40 41  1  0  0  0  0
 41 42  1  0  0  0  0
 42 43  1  1  0  0  0
 44 42  1  0  0  0  0
 44 45  1  0  0  0  0
 45 46  1  0  0  0  0
 47 46  1  0  0  0  0
 48 49  1  1  0  0  0
 48 47  1  0  0  0  0
 50 48  1  0  0  0  0
 51 52  1  0  0  0  0
 51 50  1  0  0  0  0
 53 36  1  0  0  0  0
 53 54  2  0  0  0  0
 55 53  1  0  0  0  0
 56 59  1  0  0  0  0
 56 55  1  0  0  0  0
 57 59  1  0  0  0  0
 58 57  1  0  0  0  0
 58 59  1  0  0  0  0
M  END
>  <MODEL>
5

>  <REMARK>
 VINA RESULT:      -4.8      3.093      8.099
  Name = 
  31 active torsions:
  status: ('A' for Active; 'I' for Inactive)
    1  A    between atoms: O_2  and  C_19
    2  A    between atoms: O_2  and  C_21
    3  A    between atoms: C_3  and  C_10
    4  A    between atoms: C_3  and  C_41
    5  A    between atoms: C_5  and  C_30
    6  A    between atoms: C_5  and  O_37
    7  A    between atoms: C_9  and  C_12
    8  A    between atoms: C_9  and  C_52
    9  A    between atoms: C_10  and  N_27
   10  A    between atoms: C_13  and  C_53
   11  A    between atoms: C_13  and  O_55
   12  A    between atoms: C_14  and  C_16
   13  A    between atoms: C_14  and  N_59
   14  A    between atoms: C_15  and  C_18
   15  A    between atoms: C_16  and  C_29
   16  A    between atoms: C_17  and  N_32
   17  A    between atoms: C_17  and  N_49
   18  A    between atoms: C_19  and  C_54
   19  A    between atoms: C_20  and  C_30
   20  A    between atoms: C_20  and  C_53
   21  A    between atoms: C_24  and  O_34
   22  A    between atoms: C_26  and  C_48
   23  A    between atoms: C_28  and  O_50
   24  A    between atoms: C_28  and  C_56
   25  A    between atoms: C_31  and  C_33
   26  A    between atoms: C_31  and  O_50
   27  A    between atoms: C_33  and  C_51
   28  A    between atoms: O_34  and  C_58
   29  A    between atoms: C_41  and  O_55
   30  A    between atoms: N_46  and  N_49
   31  A    between atoms: N_46  and  C_52
                            x       y       z     vdW  Elec       q    Type
                         _______ _______ _______ _____ _____    ______ ____

>  <TORSDO>
F 31

$$$$
=
 OpenBabel11032421043D

 59 62  0  0  1  0  0  0  0  0999 V2000
  183.8770  175.9810  135.9480 C   0  0  0  0  0  2  0  0  0  0  0  0
  182.8410  173.6880  136.2880 C   0  0  0  0  0  0  0  0  0  0  0  0
  185.1960  173.8900  135.7150 C   0  0  0  0  0  3  0  0  0  0  0  0
  183.9660  174.4890  135.9950 C   0  0  0  0  0  0  0  0  0  0  0  0
  182.9630  172.2860  136.2830 C   0  0  0  0  0  0  0  0  0  0  0  0
  181.5150  174.3130  136.5930 C   0  0  0  0  0  1  0  0  0  0  0  0
  185.3180  172.4970  135.6980 C   0  0  0  0  0  0  0  0  0  0  0  0
  184.2040  171.7010  135.9820 C   0  0  0  0  0  3  0  0  0  0  0  0
  186.6220  171.8460  135.3730 C   0  0  0  0  0  2  0  0  0  0  0  0
  187.6510  172.1610  136.4490 C   0  0  0  0  0  2  0  0  0  0  0  0
  189.2650  174.0850  136.4030 C   0  0  0  0  0  0  0  0  0  0  0  0
  190.2370  173.2850  136.3120 O   0  0  0  0  0  0  0  0  0  0  0  0
  187.9230  173.5860  136.4800 N   0  0  0  0  0  2  0  0  0  0  0  0
  189.5160  175.4590  136.3990 O   0  0  0  0  0  0  0  0  0  0  0  0
  189.7880  177.3790  139.6130 C   0  0  2  0  0  0  0  0  0  0  0  0
  189.3620  176.7750  140.8850 C   0  0  0  0  0  2  0  0  0  0  0  0
  189.0930  178.8910  137.7320 C   0  0  0  0  0  2  0  0  0  0  0  0
  188.6110  177.6540  136.9520 C   0  0  1  0  0  3  0  0  0  0  0  0
  190.5970  177.4490  140.7580 O   0  0  0  0  0  0  0  0  0  0  0  0
  189.0850  178.6820  139.2490 C   0  0  0  0  0  2  0  0  0  0  0  0
  190.2480  176.4000  138.5370 C   0  0  1  0  0  3  0  0  0  0  0  0
  189.1370  176.3000  137.4820 C   0  0  2  0  0  3  0  0  0  0  0  0
  192.5750  175.9440  138.2460 O   0  0  0  0  0  1  0  0  0  0  0  0
  191.5680  176.8510  137.9210 C   0  0  0  0  0  2  0  0  0  0  0  0
  187.0930  177.6340  136.8130 C   0  0  0  0  0  2  0  0  0  0  0  0
  186.4980  177.0910  137.9550 O   0  0  0  0  0  1  0  0  0  0  0  0
  181.8430  171.4930  136.5770 O   0  0  0  0  0  0  0  0  0  0  0  0
  181.3640  170.4680  135.7120 C   0  0  0  0  0  2  0  0  0  0  0  0
  179.0860  171.0510  136.4890 C   0  0  0  0  0  1  0  0  0  0  0  0
  179.9440  170.7780  135.2710 C   0  0  0  0  0  2  0  0  0  0  0  0
  182.9340  176.4290  134.8480 C   0  0  0  0  0  2  0  0  0  0  0  0
  182.0330  177.4410  135.3690 N   0  0  0  0  0  2  0  0  0  0  0  0
  182.4190  177.6890  136.6920 N   0  0  0  0  0  2  0  0  0  0  0  0
  181.1960  177.7970  137.4720 C   0  0  0  0  0  2  0  0  0  0  0  0
  180.9110  179.1990  137.7570 N   0  0  0  0  0  0  0  0  0  0  0  0
  181.2170  179.8020  138.8670 C   0  0  0  0  0  0  0  0  0  0  0  0
  181.1690  178.4040  140.8090 N   0  0  0  0  0  2  0  0  0  0  0  0
  183.3030  178.9570  139.9530 N   0  0  0  0  0  2  0  0  0  0  0  0
  181.8810  179.0910  139.9770 C   0  0  0  0  0  0  0  0  0  0  0  0
  184.0300  178.0840  140.8620 C   0  0  0  0  0  2  0  0  0  0  0  0
  184.9630  178.9250  141.7170 C   0  0  0  0  0  2  0  0  0  0  0  0
  184.3980  179.1380  143.1170 C   0  0  2  0  0  3  0  0  0  0  0  0
  185.0040  180.2430  143.7200 O   0  0  0  0  0  1  0  0  0  0  0  0
  184.5740  177.9960  143.9050 O   0  0  0  0  0  0  0  0  0  0  0  0
  185.8730  177.5640  143.6230 C   0  0  0  0  0  2  0  0  0  0  0  0
  186.8090  178.0220  144.7260 C   0  0  0  0  0  2  0  0  0  0  0  0
  188.2380  178.0220  144.2120 C   0  0  0  0  0  2  0  0  0  0  0  0
  189.2160  177.7900  145.3560 C   0  0  1  0  0  3  0  0  0  0  0  0
  188.6150  177.0120  146.3460 O   0  0  0  0  0  1  0  0  0  0  0  0
  190.4560  177.0780  144.8460 C   0  0  0  0  0  2  0  0  0  0  0  0
  191.5910  177.5580  145.4990 O   0  0  0  0  0  0  0  0  0  0  0  0
  191.9740  176.5410  146.3090 N   0  0  0  0  0  1  0  0  0  0  0  0
  180.8160  181.2060  139.0490 C   0  0  0  0  0  0  0  0  0  0  0  0
  179.6680  181.4780  139.4980 O   0  0  0  0  0  0  0  0  0  0  0  0
  181.7050  182.2310  138.7150 O   0  0  0  0  0  0  0  0  0  0  0  0
  181.5740  182.9620  137.5060 C   0  0  0  0  0  2  0  0  0  0  0  0
  180.0470  181.9240  135.8670 C   0  0  0  0  0  2  0  0  0  0  0  0
  180.0670  183.4170  135.6110 C   0  0  0  0  0  2  0  0  0  0  0  0
  180.1370  182.8910  137.0290 C   0  0  0  0  0  3  0  0  0  0  0  0
  1  4  1  0  0  0  0
  2  6  1  0  0  0  0
  3  4  1  0  0  0  0
  4  2  2  0  0  0  0
  5  2  1  0  0  0  0
  5 27  1  0  0  0  0
  7  3  2  0  0  0  0
  7  8  1  0  0  0  0
  8  5  2  0  0  0  0
  9  7  1  0  0  0  0
  9 10  1  0  0  0  0
 10 13  1  0  0  0  0
 11 13  1  0  0  0  0
 12 11  2  0  0  0  0
 14 11  1  0  0  0  0
 15 20  1  6  0  0  0
 15 19  1  0  0  0  0
 15 16  1  0  0  0  0
 17 20  1  0  0  0  0
 18 25  1  1  0  0  0
 18 22  1  0  0  0  0
 18 17  1  0  0  0  0
 19 16  1  0  0  0  0
 21 24  1  6  0  0  0
 21 15  1  0  0  0  0
 22 14  1  6  0  0  0
 22 21  1  0  0  0  0
 24 23  1  0  0  0  0
 25 26  1  0  0  0  0
 28 27  1  0  0  0  0
 30 28  1  0  0  0  0
 30 29  1  0  0  0  0
 31 32  1  0  0  0  0
 31  1  1  0  0  0  0
 32 33  1  0  0  0  0
 33 34  1  0  0  0  0
 34 35  1  0  0  0  0
 35 36  2  0  0  0  0
 36 53  1  0  0  0  0
 36 39  1  0  0  0  0
 38 39  1  0  0  0  0
 38 40  1  0  0  0  0
 39 37  2  0  0  0  0
 40 41  1  0  0  0  0
 41 42  1  0  0  0  0
 42 43  1  1  0  0  0
 42 44  1  0  0  0  0
 45 44  1  0  0  0  0
 45 46  1  0  0  0  0
 47 46  1  0  0  0  0
 47 48  1  0  0  0  0
 48 49  1  1  0  0  0
 50 48  1  0  0  0  0
 50 51  1  0  0  0  0
 51 52  1  0  0  0  0
 53 54  2  0  0  0  0
 55 53  1  0  0  0  0
 56 55  1  0  0  0  0
 57 59  1  0  0  0  0
 58 57  1  0  0  0  0
 58 59  1  0  0  0  0
 59 56  1  0  0  0  0
M  END
>  <MODEL>
6

>  <REMARK>
 VINA RESULT:      -4.7      3.128     10.041
  Name = 
  31 active torsions:
  status: ('A' for Active; 'I' for Inactive)
    1  A    between atoms: O_2  and  C_19
    2  A    between atoms: O_2  and  C_21
    3  A    between atoms: C_3  and  C_10
    4  A    between atoms: C_3  and  C_41
    5  A    between atoms: C_5  and  C_30
    6  A    between atoms: C_5  and  O_37
    7  A    between atoms: C_9  and  C_12
    8  A    between atoms: C_9  and  C_52
    9  A    between atoms: C_10  and  N_27
   10  A    between atoms: C_13  and  C_53
   11  A    between atoms: C_13  and  O_55
   12  A    between atoms: C_14  and  C_16
   13  A    between atoms: C_14  and  N_59
   14  A    between atoms: C_15  and  C_18
   15  A    between atoms: C_16  and  C_29
   16  A    between atoms: C_17  and  N_32
   17  A    between atoms: C_17  and  N_49
   18  A    between atoms: C_19  and  C_54
   19  A    between atoms: C_20  and  C_30
   20  A    between atoms: C_20  and  C_53
   21  A    between atoms: C_24  and  O_34
   22  A    between atoms: C_26  and  C_48
   23  A    between atoms: C_28  and  O_50
   24  A    between atoms: C_28  and  C_56
   25  A    between atoms: C_31  and  C_33
   26  A    between atoms: C_31  and  O_50
   27  A    between atoms: C_33  and  C_51
   28  A    between atoms: O_34  and  C_58
   29  A    between atoms: C_41  and  O_55
   30  A    between atoms: N_46  and  N_49
   31  A    between atoms: N_46  and  C_52
                            x       y       z     vdW  Elec       q    Type
                         _______ _______ _______ _____ _____    ______ ____

>  <TORSDO>
F 31

$$$$
=
 OpenBabel11032421043D

 59 62  0  0  1  0  0  0  0  0999 V2000
  184.8260  177.6560  138.7740 C   0  0  0  0  0  2  0  0  0  0  0  0
  182.8780  178.6690  140.0490 C   0  0  0  0  0  0  0  0  0  0  0  0
  182.8280  178.5730  137.6200 C   0  0  0  0  0  3  0  0  0  0  0  0
  183.4800  178.3050  138.8250 C   0  0  0  0  0  0  0  0  0  0  0  0
  181.6270  179.3140  140.0470 C   0  0  0  0  0  0  0  0  0  0  0  0
  183.5620  178.3870  141.3510 C   0  0  0  0  0  1  0  0  0  0  0  0
  181.5910  179.2240  137.6130 C   0  0  0  0  0  0  0  0  0  0  0  0
  180.9950  179.5910  138.8240 C   0  0  0  0  0  3  0  0  0  0  0  0
  180.8980  179.5390  136.3280 C   0  0  0  0  0  2  0  0  0  0  0  0
  181.0950  178.4080  135.3300 C   0  0  0  0  0  2  0  0  0  0  0  0
  182.1530  176.1610  135.7070 C   0  0  0  0  0  0  0  0  0  0  0  0
  183.0110  176.4000  134.8150 O   0  0  0  0  0  0  0  0  0  0  0  0
  181.1470  177.1330  136.0220 N   0  0  0  0  0  2  0  0  0  0  0  0
  182.2160  174.9510  136.4030 O   0  0  0  0  0  0  0  0  0  0  0  0
  180.4580  171.6750  135.8850 C   0  0  2  0  0  0  0  0  0  0  0  0
  179.8030  171.3700  134.6030 C   0  0  0  0  0  2  0  0  0  0  0  0
  180.0870  172.5220  138.2200 C   0  0  0  0  0  2  0  0  0  0  0  0
  180.4420  173.9390  137.7330 C   0  0  1  0  0  3  0  0  0  0  0  0
  180.6520  170.4410  135.2450 O   0  0  0  0  0  0  0  0  0  0  0  0
  179.5450  171.6240  137.1040 C   0  0  0  0  0  2  0  0  0  0  0  0
  181.6310  172.6480  135.8140 C   0  0  1  0  0  3  0  0  0  0  0  0
  181.1570  174.0010  136.3640 C   0  0  2  0  0  3  0  0  0  0  0  0
  184.0100  172.4570  135.9390 O   0  0  0  0  0  1  0  0  0  0  0  0
  182.8270  172.1130  136.5930 C   0  0  0  0  0  2  0  0  0  0  0  0
  179.2280  174.8610  137.7570 C   0  0  0  0  0  2  0  0  0  0  0  0
  179.2850  175.7260  138.8530 O   0  0  0  0  0  1  0  0  0  0  0  0
  181.0320  179.6720  141.2650 O   0  0  0  0  0  0  0  0  0  0  0  0
  179.6510  179.9990  141.3930 C   0  0  0  0  0  2  0  0  0  0  0  0
  179.5830  177.5910  141.9660 C   0  0  0  0  0  1  0  0  0  0  0  0
  178.9370  178.9390  142.2120 C   0  0  0  0  0  2  0  0  0  0  0  0
  185.5700  178.0570  137.5150 C   0  0  0  0  0  2  0  0  0  0  0  0
  186.8150  178.7100  137.8790 N   0  0  0  0  0  2  0  0  0  0  0  0
  187.6450  178.6650  136.7540 N   0  0  0  0  0  2  0  0  0  0  0  0
  188.9860  179.0000  137.2080 C   0  0  0  0  0  2  0  0  0  0  0  0
  189.8840  177.8730  136.9810 N   0  0  0  0  0  0  0  0  0  0  0  0
  190.5020  177.2220  137.9210 C   0  0  0  0  0  0  0  0  0  0  0  0
  189.3100  178.2380  139.7300 N   0  0  0  0  0  2  0  0  0  0  0  0
  191.2470  177.0060  140.2960 N   0  0  0  0  0  2  0  0  0  0  0  0
  190.3600  177.5940  139.3420 C   0  0  0  0  0  0  0  0  0  0  0  0
  191.0490  177.1170  141.7330 C   0  0  0  0  0  2  0  0  0  0  0  0
  190.1260  176.0000  142.1920 C   0  0  0  0  0  2  0  0  0  0  0  0
  189.4570  176.3390  143.5190 C   0  0  2  0  0  3  0  0  0  0  0  0
  188.2240  175.6880  143.6190 O   0  0  0  0  0  1  0  0  0  0  0  0
  189.2900  177.7210  143.6560 O   0  0  0  0  0  0  0  0  0  0  0  0
  188.0030  177.8760  144.1780 C   0  0  0  0  0  2  0  0  0  0  0  0
  187.9700  177.3600  145.6040 C   0  0  0  0  0  2  0  0  0  0  0  0
  188.2670  178.4990  146.5630 C   0  0  0  0  0  2  0  0  0  0  0  0
  189.1070  178.0050  147.7350 C   0  0  1  0  0  3  0  0  0  0  0  0
  188.3000  177.8350  148.8600 O   0  0  0  0  0  1  0  0  0  0  0  0
  189.7610  176.6800  147.3850 C   0  0  0  0  0  2  0  0  0  0  0  0
  191.1450  176.7720  147.5320 O   0  0  0  0  0  0  0  0  0  0  0  0
  191.5960  177.1210  146.3030 N   0  0  0  0  0  1  0  0  0  0  0  0
  191.4300  176.1420  137.5480 C   0  0  0  0  0  0  0  0  0  0  0  0
  192.5390  176.4230  137.0170 O   0  0  0  0  0  0  0  0  0  0  0  0
  191.0720  174.8110  137.7760 O   0  0  0  0  0  0  0  0  0  0  0  0
  189.8880  174.2550  137.2260 C   0  0  0  0  0  2  0  0  0  0  0  0
  188.7970  173.5570  135.1250 C   0  0  0  0  0  2  0  0  0  0  0  0
  190.1870  172.9570  135.1550 C   0  0  0  0  0  2  0  0  0  0  0  0
  189.9480  174.3430  135.7140 C   0  0  0  0  0  3  0  0  0  0  0  0
  1  4  1  0  0  0  0
  2  6  1  0  0  0  0
  3  4  1  0  0  0  0
  4  2  2  0  0  0  0
  5  2  1  0  0  0  0
  5 27  1  0  0  0  0
  7  3  2  0  0  0  0
  7  8  1  0  0  0  0
  8  5  2  0  0  0  0
  9  7  1  0  0  0  0
 10 13  1  0  0  0  0
 10  9  1  0  0  0  0
 11 13  1  0  0  0  0
 11 14  1  0  0  0  0
 12 11  2  0  0  0  0
 15 16  1  6  0  0  0
 15 20  1  0  0  0  0
 16 19  1  0  0  0  0
 18 25  1  6  0  0  0
 18 17  1  0  0  0  0
 19 15  1  0  0  0  0
 20 17  1  0  0  0  0
 21 15  1  0  0  0  0
 21 22  1  0  0  0  0
 21 24  1  1  0  0  0
 22 14  1  1  0  0  0
 22 18  1  0  0  0  0
 23 24  1  0  0  0  0
 25 26  1  0  0  0  0
 27 28  1  0  0  0  0
 28 30  1  0  0  0  0
 29 30  1  0  0  0  0
 31 32  1  0  0  0  0
 31  1  1  0  0  0  0
 33 34  1  0  0  0  0
 33 32  1  0  0  0  0
 35 34  1  0  0  0  0
 35 36  2  0  0  0  0
 36 39  1  0  0  0  0
 38 40  1  0  0  0  0
 39 37  2  0  0  0  0
 39 38  1  0  0  0  0
 40 41  1  0  0  0  0
 41 42  1  0  0  0  0
 42 43  1  6  0  0  0
 42 44  1  0  0  0  0
 44 45  1  0  0  0  0
 45 46  1  0  0  0  0
 46 47  1  0  0  0  0
 47 48  1  0  0  0  0
 48 49  1  1  0  0  0
 50 51  1  0  0  0  0
 50 48  1  0  0  0  0
 52 51  1  0  0  0  0
 53 55  1  0  0  0  0
 53 36  1  0  0  0  0
 54 53  2  0  0  0  0
 56 55  1  0  0  0  0
 57 58  1  0  0  0  0
 57 59  1  0  0  0  0
 58 59  1  0  0  0  0
 59 56  1  0  0  0  0
M  END
>  <MODEL>
7

>  <REMARK>
 VINA RESULT:      -4.3      2.755      8.302
  Name = 
  31 active torsions:
  status: ('A' for Active; 'I' for Inactive)
    1  A    between atoms: O_2  and  C_19
    2  A    between atoms: O_2  and  C_21
    3  A    between atoms: C_3  and  C_10
    4  A    between atoms: C_3  and  C_41
    5  A    between atoms: C_5  and  C_30
    6  A    between atoms: C_5  and  O_37
    7  A    between atoms: C_9  and  C_12
    8  A    between atoms: C_9  and  C_52
    9  A    between atoms: C_10  and  N_27
   10  A    between atoms: C_13  and  C_53
   11  A    between atoms: C_13  and  O_55
   12  A    between atoms: C_14  and  C_16
   13  A    between atoms: C_14  and  N_59
   14  A    between atoms: C_15  and  C_18
   15  A    between atoms: C_16  and  C_29
   16  A    between atoms: C_17  and  N_32
   17  A    between atoms: C_17  and  N_49
   18  A    between atoms: C_19  and  C_54
   19  A    between atoms: C_20  and  C_30
   20  A    between atoms: C_20  and  C_53
   21  A    between atoms: C_24  and  O_34
   22  A    between atoms: C_26  and  C_48
   23  A    between atoms: C_28  and  O_50
   24  A    between atoms: C_28  and  C_56
   25  A    between atoms: C_31  and  C_33
   26  A    between atoms: C_31  and  O_50
   27  A    between atoms: C_33  and  C_51
   28  A    between atoms: O_34  and  C_58
   29  A    between atoms: C_41  and  O_55
   30  A    between atoms: N_46  and  N_49
   31  A    between atoms: N_46  and  C_52
                            x       y       z     vdW  Elec       q    Type
                         _______ _______ _______ _____ _____    ______ ____

>  <TORSDO>
F 31

$$$$
=
 OpenBabel11032421043D

 59 62  0  0  1  0  0  0  0  0999 V2000
  190.8180  177.3780  140.2870 C   0  0  0  0  0  2  0  0  0  0  0  0
  190.4500  176.9070  142.7550 C   0  0  0  0  0  0  0  0  0  0  0  0
  188.5850  177.5900  141.3520 C   0  0  0  0  0  3  0  0  0  0  0  0
  189.9390  177.2780  141.4930 C   0  0  0  0  0  0  0  0  0  0  0  0
  189.5930  176.8650  143.8700 C   0  0  0  0  0  0  0  0  0  0  0  0
  191.8990  176.5680  142.9240 C   0  0  0  0  0  1  0  0  0  0  0  0
  187.7320  177.5610  142.4600 C   0  0  0  0  0  0  0  0  0  0  0  0
  188.2370  177.1980  143.7130 C   0  0  0  0  0  3  0  0  0  0  0  0
  186.2880  177.9170  142.3250 C   0  0  0  0  0  2  0  0  0  0  0  0
  186.0840  178.8510  141.1420 C   0  0  0  0  0  2  0  0  0  0  0  0
  184.0090  179.4290  139.8480 C   0  0  0  0  0  0  0  0  0  0  0  0
  184.5900  179.1450  138.7650 O   0  0  0  0  0  0  0  0  0  0  0  0
  184.7060  179.3060  141.0950 N   0  0  0  0  0  2  0  0  0  0  0  0
  182.6730  179.8340  139.8160 O   0  0  0  0  0  0  0  0  0  0  0  0
  179.7830  177.5220  139.1880 C   0  0  2  0  0  0  0  0  0  0  0  0
  180.0130  176.1060  138.8600 C   0  0  0  0  0  2  0  0  0  0  0  0
  179.3260  179.7960  138.2250 C   0  0  0  0  0  2  0  0  0  0  0  0
  180.8410  180.0710  138.2250 C   0  0  1  0  0  3  0  0  0  0  0  0
  179.0640  176.5010  139.8290 O   0  0  0  0  0  0  0  0  0  0  0  0
  178.9880  178.3040  138.1490 C   0  0  0  0  0  2  0  0  0  0  0  0
  180.8680  178.1920  140.0240 C   0  0  1  0  0  3  0  0  0  0  0  0
  181.6800  179.1100  139.0980 C   0  0  2  0  0  3  0  0  0  0  0  0
  180.6460  178.3910  142.3950 O   0  0  0  0  0  1  0  0  0  0  0  0
  180.2570  178.9670  141.1860 C   0  0  0  0  0  2  0  0  0  0  0  0
  181.3970  180.1490  136.8090 C   0  0  0  0  0  2  0  0  0  0  0  0
  181.0800  178.9950  136.0870 O   0  0  0  0  0  1  0  0  0  0  0  0
  190.1040  176.4930  145.1220 O   0  0  0  0  0  0  0  0  0  0  0  0
  191.1580  177.1940  145.7750 C   0  0  0  0  0  2  0  0  0  0  0  0
  189.5990  177.4620  147.6800 C   0  0  0  0  0  1  0  0  0  0  0  0
  191.0090  177.0780  147.2820 C   0  0  0  0  0  2  0  0  0  0  0  0
  190.0430  177.0450  139.0260 C   0  0  0  0  0  2  0  0  0  0  0  0
  189.2430  178.1920  138.6370 N   0  0  0  0  0  2  0  0  0  0  0  0
  189.3860  178.3380  137.2520 N   0  0  0  0  0  2  0  0  0  0  0  0
  188.0460  178.5010  136.7070 C   0  0  0  0  0  2  0  0  0  0  0  0
  187.2650  177.2910  136.9390 N   0  0  0  0  0  0  0  0  0  0  0  0
  187.6260  176.0990  136.5670 C   0  0  0  0  0  0  0  0  0  0  0  0
  188.9770  176.2140  134.5940 N   0  0  0  0  0  2  0  0  0  0  0  0
  190.0540  175.5070  136.5780 N   0  0  0  0  0  2  0  0  0  0  0  0
  188.8860  175.8640  135.8350 C   0  0  0  0  0  0  0  0  0  0  0  0
  191.3860  175.4840  135.9930 C   0  0  0  0  0  2  0  0  0  0  0  0
  192.4030  175.2230  137.0910 C   0  0  0  0  0  2  0  0  0  0  0  0
  193.8060  175.6420  136.6650 C   0  0  2  0  0  3  0  0  0  0  0  0
  193.7610  176.8620  135.9830 O   0  0  0  0  0  1  0  0  0  0  0  0
  194.3980  174.6600  135.8650 O   0  0  0  0  0  0  0  0  0  0  0  0
  195.2430  175.3630  135.0010 C   0  0  0  0  0  2  0  0  0  0  0  0
  196.6880  175.1030  135.3840 C   0  0  0  0  0  2  0  0  0  0  0  0
  196.9060  173.6100  135.5560 C   0  0  0  0  0  2  0  0  0  0  0  0
  197.0400  173.2580  137.0320 C   0  0  1  0  0  3  0  0  0  0  0  0
  197.7300  172.0530  137.1730 O   0  0  0  0  0  1  0  0  0  0  0  0
  197.7940  174.3530  137.7640 C   0  0  0  0  0  2  0  0  0  0  0  0
  197.2990  174.4960  139.0600 O   0  0  0  0  0  0  0  0  0  0  0  0
  195.9550  174.5780  138.9040 N   0  0  0  0  0  1  0  0  0  0  0  0
  186.7130  174.9710  136.8080 C   0  0  0  0  0  0  0  0  0  0  0  0
  187.0550  174.0430  137.5910 O   0  0  0  0  0  0  0  0  0  0  0  0
  185.4760  174.9280  136.1590 O   0  0  0  0  0  0  0  0  0  0  0  0
  184.6200  176.0600  136.1180 C   0  0  0  0  0  2  0  0  0  0  0  0
  183.3670  174.3540  137.3880 C   0  0  0  0  0  2  0  0  0  0  0  0
  182.7970  174.4090  135.9870 C   0  0  0  0  0  2  0  0  0  0  0  0
  183.2590  175.6800  136.6670 C   0  0  0  0  0  3  0  0  0  0  0  0
  1  4  1  0  0  0  0
  2  6  1  0  0  0  0
  2  5  1  0  0  0  0
  3  4  1  0  0  0  0
  3  7  2  0  0  0  0
  4  2  2  0  0  0  0
  5 27  1  0  0  0  0
  7  8  1  0  0  0  0
  8  5  2  0  0  0  0
  9  7  1  0  0  0  0
 10  9  1  0  0  0  0
 11 13  1  0  0  0  0
 12 11  2  0  0  0  0
 13 10  1  0  0  0  0
 14 11  1  0  0  0  0
 15 20  1  6  0  0  0
 15 19  1  0  0  0  0
 15 21  1  0  0  0  0
 16 15  1  0  0  0  0
 16 19  1  0  0  0  0
 18 25  1  6  0  0  0
 18 17  1  0  0  0  0
 18 22  1  0  0  0  0
 20 17  1  0  0  0  0
 21 24  1  1  0  0  0
 22 14  1  1  0  0  0
 22 21  1  0  0  0  0
 24 23  1  0  0  0  0
 26 25  1  0  0  0  0
 27 28  1  0  0  0  0
 28 30  1  0  0  0  0
 30 29  1  0  0  0  0
 31  1  1  0  0  0  0
 32 31  1  0  0  0  0
 33 32  1  0  0  0  0
 34 35  1  0  0  0  0
 34 33  1  0  0  0  0
 36 53  1  0  0  0  0
 36 35  2  0  0  0  0
 37 39  2  0  0  0  0
 39 36  1  0  0  0  0
 39 38  1  0  0  0  0
 40 38  1  0  0  0  0
 40 41  1  0  0  0  0
 42 43  1  6  0  0  0
 42 41  1  0  0  0  0
 44 42  1  0  0  0  0
 45 46  1  0  0  0  0
 45 44  1  0  0  0  0
 46 47  1  0  0  0  0
 47 48  1  0  0  0  0
 48 49  1  6  0  0  0
 48 50  1  0  0  0  0
 50 51  1  0  0  0  0
 52 51  1  0  0  0  0
 53 54  2  0  0  0  0
 55 53  1  0  0  0  0
 56 55  1  0  0  0  0
 56 59  1  0  0  0  0
 58 59  1  0  0  0  0
 58 57  1  0  0  0  0
 59 57  1  0  0  0  0
M  END
>  <MODEL>
8

>  <REMARK>
 VINA RESULT:      -4.1      1.529      2.105
  Name = 
  31 active torsions:
  status: ('A' for Active; 'I' for Inactive)
    1  A    between atoms: O_2  and  C_19
    2  A    between atoms: O_2  and  C_21
    3  A    between atoms: C_3  and  C_10
    4  A    between atoms: C_3  and  C_41
    5  A    between atoms: C_5  and  C_30
    6  A    between atoms: C_5  and  O_37
    7  A    between atoms: C_9  and  C_12
    8  A    between atoms: C_9  and  C_52
    9  A    between atoms: C_10  and  N_27
   10  A    between atoms: C_13  and  C_53
   11  A    between atoms: C_13  and  O_55
   12  A    between atoms: C_14  and  C_16
   13  A    between atoms: C_14  and  N_59
   14  A    between atoms: C_15  and  C_18
   15  A    between atoms: C_16  and  C_29
   16  A    between atoms: C_17  and  N_32
   17  A    between atoms: C_17  and  N_49
   18  A    between atoms: C_19  and  C_54
   19  A    between atoms: C_20  and  C_30
   20  A    between atoms: C_20  and  C_53
   21  A    between atoms: C_24  and  O_34
   22  A    between atoms: C_26  and  C_48
   23  A    between atoms: C_28  and  O_50
   24  A    between atoms: C_28  and  C_56
   25  A    between atoms: C_31  and  C_33
   26  A    between atoms: C_31  and  O_50
   27  A    between atoms: C_33  and  C_51
   28  A    between atoms: O_34  and  C_58
   29  A    between atoms: C_41  and  O_55
   30  A    between atoms: N_46  and  N_49
   31  A    between atoms: N_46  and  C_52
                            x       y       z     vdW  Elec       q    Type
                         _______ _______ _______ _____ _____    ______ ____

>  <TORSDO>
F 31

$$$$
=
 OpenBabel11032421043D

 59 62  0  0  1  0  0  0  0  0999 V2000
  191.5420  176.8400  138.9640 C   0  0  0  0  0  2  0  0  0  0  0  0
  192.6860  175.7940  136.9530 C   0  0  0  0  0  0  0  0  0  0  0  0
  190.5870  174.8810  137.7740 C   0  0  0  0  0  3  0  0  0  0  0  0
  191.6100  175.8270  137.8660 C   0  0  0  0  0  0  0  0  0  0  0  0
  192.7280  174.7980  135.9600 C   0  0  0  0  0  0  0  0  0  0  0  0
  193.7910  176.8010  137.0360 C   0  0  0  0  0  1  0  0  0  0  0  0
  190.6310  173.8820  136.7960 C   0  0  0  0  0  0  0  0  0  0  0  0
  191.6990  173.8440  135.8930 C   0  0  0  0  0  3  0  0  0  0  0  0
  189.5560  172.8510  136.7050 C   0  0  0  0  0  2  0  0  0  0  0  0
  188.2740  173.3670  137.3410 C   0  0  0  0  0  2  0  0  0  0  0  0
  185.9680  173.9320  136.5190 C   0  0  0  0  0  0  0  0  0  0  0  0
  185.4650  173.4880  137.5870 O   0  0  0  0  0  0  0  0  0  0  0  0
  187.3880  173.9000  136.3230 N   0  0  0  0  0  2  0  0  0  0  0  0
  185.1270  174.4800  135.5480 O   0  0  0  0  0  0  0  0  0  0  0  0
  181.5050  175.4030  135.9040 C   0  0  2  0  0  0  0  0  0  0  0  0
  180.8290  176.1990  134.8670 C   0  0  0  0  0  2  0  0  0  0  0  0
  182.6710  175.5070  138.1260 C   0  0  0  0  0  2  0  0  0  0  0  0
  184.0140  175.6330  137.3850 C   0  0  1  0  0  3  0  0  0  0  0  0
  180.2470  175.0290  135.4060 O   0  0  0  0  0  0  0  0  0  0  0  0
  181.4830  176.0110  137.3010 C   0  0  0  0  0  2  0  0  0  0  0  0
  182.6830  174.5580  135.4270 C   0  0  1  0  0  3  0  0  0  0  0  0
  183.9760  175.2440  135.8900 C   0  0  2  0  0  3  0  0  0  0  0  0
  182.8770  172.2250  134.9470 O   0  0  0  0  0  1  0  0  0  0  0  0
  182.5800  173.1340  135.9620 C   0  0  0  0  0  2  0  0  0  0  0  0
  184.6330  177.0120  137.5760 C   0  0  0  0  0  2  0  0  0  0  0  0
  185.8060  177.1370  136.8270 O   0  0  0  0  0  1  0  0  0  0  0  0
  193.7980  174.7690  135.0530 O   0  0  0  0  0  0  0  0  0  0  0  0
  194.8270  173.7850  135.0890 C   0  0  0  0  0  2  0  0  0  0  0  0
  197.0730  173.6800  136.1260 C   0  0  0  0  0  1  0  0  0  0  0  0
  195.5950  173.8790  136.3950 C   0  0  0  0  0  2  0  0  0  0  0  0
  190.1040  177.0990  139.3690 C   0  0  0  0  0  2  0  0  0  0  0  0
  189.6450  178.3320  138.7530 N   0  0  0  0  0  2  0  0  0  0  0  0
  188.7690  178.9400  139.6600 N   0  0  0  0  0  2  0  0  0  0  0  0
  187.7260  177.9670  139.9510 C   0  0  0  0  0  2  0  0  0  0  0  0
  187.4750  177.9240  141.3870 N   0  0  0  0  0  0  0  0  0  0  0  0
  186.3660  178.2990  141.9520 C   0  0  0  0  0  0  0  0  0  0  0  0
  185.4730  179.4260  140.0390 N   0  0  0  0  0  2  0  0  0  0  0  0
  183.9090  178.4650  141.5300 N   0  0  0  0  0  2  0  0  0  0  0  0
  185.2390  178.8380  141.1660 C   0  0  0  0  0  0  0  0  0  0  0  0
  182.7530  178.7440  140.6920 C   0  0  0  0  0  2  0  0  0  0  0  0
  181.4880  178.4070  141.4650 C   0  0  0  0  0  2  0  0  0  0  0  0
  180.6230  179.6420  141.6870 C   0  0  2  0  0  3  0  0  0  0  0  0
  180.8120  180.1410  142.9790 O   0  0  0  0  0  1  0  0  0  0  0  0
  179.2720  179.3500  141.4720 O   0  0  0  0  0  0  0  0  0  0  0  0
  179.0210  179.7660  140.1610 C   0  0  0  0  0  2  0  0  0  0  0  0
  179.7690  181.0560  139.8880 C   0  0  0  0  0  2  0  0  0  0  0  0
  178.9670  181.9130  138.9230 C   0  0  0  0  0  2  0  0  0  0  0  0
  179.7760  182.1970  137.6630 C   0  0  1  0  0  3  0  0  0  0  0  0
  178.9470  182.1370  136.5430 O   0  0  0  0  0  1  0  0  0  0  0  0
  180.4040  183.5770  137.7470 C   0  0  0  0  0  2  0  0  0  0  0  0
  179.6060  184.5100  137.0870 O   0  0  0  0  0  0  0  0  0  0  0  0
  179.8740  185.6860  137.7050 N   0  0  0  0  0  1  0  0  0  0  0  0
  186.2670  178.2630  143.4200 C   0  0  0  0  0  0  0  0  0  0  0  0
  185.3920  178.9570  144.0080 O   0  0  0  0  0  0  0  0  0  0  0  0
  187.1490  177.4670  144.1560 O   0  0  0  0  0  0  0  0  0  0  0  0
  187.3080  177.6340  145.5560 C   0  0  0  0  0  2  0  0  0  0  0  0
  189.7290  177.5330  145.0790 C   0  0  0  0  0  2  0  0  0  0  0  0
  189.5300  177.2860  146.5600 C   0  0  0  0  0  2  0  0  0  0  0  0
  188.6510  178.2810  145.8340 C   0  0  0  0  0  3  0  0  0  0  0  0
  1 31  1  0  0  0  0
  2  6  1  0  0  0  0
  2  4  1  0  0  0  0
  3  4  2  0  0  0  0
  4  1  1  0  0  0  0
  5  2  2  0  0  0  0
  7  3  1  0  0  0  0
  8  5  1  0  0  0  0
  8  7  2  0  0  0  0
  9  7  1  0  0  0  0
  9 10  1  0  0  0  0
 11 12  2  0  0  0  0
 13 11  1  0  0  0  0
 13 10  1  0  0  0  0
 14 11  1  0  0  0  0
 15 16  1  6  0  0  0
 15 20  1  0  0  0  0
 16 19  1  0  0  0  0
 18 25  1  6  0  0  0
 18 17  1  0  0  0  0
 19 15  1  0  0  0  0
 20 17  1  0  0  0  0
 21 22  1  0  0  0  0
 21 15  1  0  0  0  0
 21 24  1  1  0  0  0
 22 14  1  1  0  0  0
 22 18  1  0  0  0  0
 23 24  1  0  0  0  0
 26 25  1  0  0  0  0
 27 28  1  0  0  0  0
 27  5  1  0  0  0  0
 28 30  1  0  0  0  0
 29 30  1  0  0  0  0
 32 31  1  0  0  0  0
 32 33  1  0  0  0  0
 33 34  1  0  0  0  0
 34 35  1  0  0  0  0
 35 36  2  0  0  0  0
 36 53  1  0  0  0  0
 37 39  2  0  0  0  0
 39 38  1  0  0  0  0
 39 36  1  0  0  0  0
 40 41  1  0  0  0  0
 40 38  1  0  0  0  0
 41 42  1  0  0  0  0
 42 43  1  1  0  0  0
 44 42  1  0  0  0  0
 45 44  1  0  0  0  0
 46 45  1  0  0  0  0
 47 46  1  0  0  0  0
 48 49  1  6  0  0  0
 48 50  1  0  0  0  0
 48 47  1  0  0  0  0
 51 52  1  0  0  0  0
 51 50  1  0  0  0  0
 53 54  2  0  0  0  0
 53 55  1  0  0  0  0
 55 56  1  0  0  0  0
 56 59  1  0  0  0  0
 57 59  1  0  0  0  0
 57 58  1  0  0  0  0
 59 58  1  0  0  0  0
M  END
>  <MODEL>
9

>  <REMARK>
 VINA RESULT:      -4.1      2.468     10.253
  Name = 
  31 active torsions:
  status: ('A' for Active; 'I' for Inactive)
    1  A    between atoms: O_2  and  C_19
    2  A    between atoms: O_2  and  C_21
    3  A    between atoms: C_3  and  C_10
    4  A    between atoms: C_3  and  C_41
    5  A    between atoms: C_5  and  C_30
    6  A    between atoms: C_5  and  O_37
    7  A    between atoms: C_9  and  C_12
    8  A    between atoms: C_9  and  C_52
    9  A    between atoms: C_10  and  N_27
   10  A    between atoms: C_13  and  C_53
   11  A    between atoms: C_13  and  O_55
   12  A    between atoms: C_14  and  C_16
   13  A    between atoms: C_14  and  N_59
   14  A    between atoms: C_15  and  C_18
   15  A    between atoms: C_16  and  C_29
   16  A    between atoms: C_17  and  N_32
   17  A    between atoms: C_17  and  N_49
   18  A    between atoms: C_19  and  C_54
   19  A    between atoms: C_20  and  C_30
   20  A    between atoms: C_20  and  C_53
   21  A    between atoms: C_24  and  O_34
   22  A    between atoms: C_26  and  C_48
   23  A    between atoms: C_28  and  O_50
   24  A    between atoms: C_28  and  C_56
   25  A    between atoms: C_31  and  C_33
   26  A    between atoms: C_31  and  O_50
   27  A    between atoms: C_33  and  C_51
   28  A    between atoms: O_34  and  C_58
   29  A    between atoms: C_41  and  O_55
   30  A    between atoms: N_46  and  N_49
   31  A    between atoms: N_46  and  C_52
                            x       y       z     vdW  Elec       q    Type
                         _______ _______ _______ _____ _____    ______ ____

>  <TORSDO>
F 31

$$$$
