=
 OpenBabel11032420433D

 45 49  0  0  1  0  0  0  0  0999 V2000
  185.6980  177.9600  143.7070 O   0  0  0  0  0  0  0  0  0  0  0  0
  186.3530  179.2040  136.8780 O   0  0  0  0  0  1  0  0  0  0  0  0
  183.8100  179.4560  138.3780 C   0  0  0  0  0  2  0  0  0  0  0  0
  189.6800  176.1910  142.6600 C   0  0  0  0  0  0  0  0  0  0  0  0
  185.0100  177.6360  138.0450 N   0  0  1  0  0  0  0  0  0  0  0  0
  183.6140  178.9700  141.3380 C   0  0  0  0  0  0  0  0  0  0  0  0
  187.4400  177.4610  138.1150 C   0  0  0  0  0  3  0  0  0  0  0  0
  186.4410  178.1690  142.7110 C   0  0  0  0  0  0  0  0  0  0  0  0
  188.4720  178.2840  138.3480 C   0  0  0  0  0  3  0  0  0  0  0  0
  186.1090  178.9050  141.4780 C   0  0  0  0  0  0  0  0  0  0  0  0
  186.2480  177.8630  137.2780 C   0  0  2  0  0  3  0  0  0  0  0  0
  187.1410  178.9240  140.6980 N   0  0  0  0  0  0  0  0  0  0  0  0
  187.7930  177.7420  142.6380 N   0  0  0  0  0  0  0  0  0  0  0  0
  190.5470  175.1940  143.3450 C   0  0  0  0  0  1  0  0  0  0  0  0
  184.8230  179.2050  140.9190 N   0  0  0  0  0  0  0  0  0  0  0  0
  190.0370  176.6460  141.4480 C   0  0  0  0  0  3  0  0  0  0  0  0
  188.3660  176.5720  143.2990 C   0  0  0  0  0  2  0  0  0  0  0  0
  182.5300  179.3420  139.1550 C   0  0  0  0  0  0  0  0  0  0  0  0
  183.9850  178.3650  137.5140 O   0  0  0  0  0  0  0  0  0  0  0  0
  189.2130  177.6130  140.6960 C   0  0  0  0  0  0  0  0  0  0  0  0
  183.3610  178.4120  142.6280 N   0  0  0  0  0  1  0  0  0  0  0  0
  182.5000  179.1500  140.4480 N   0  0  0  0  0  0  0  0  0  0  0  0
  188.1690  178.1710  141.3340 C   0  0  0  0  0  0  0  0  0  0  0  0
  189.6080  177.9120  139.2640 C   0  0  0  0  0  2  0  0  0  0  0  0
  184.9790  175.6330  136.5450 C   0  0  0  0  0  2  0  0  0  0  0  0
  183.2460  175.9570  138.4270 C   0  0  0  0  0  0  0  0  0  0  0  0
  182.7120  174.7630  136.2430 C   0  0  1  0  0  3  0  0  0  0  0  0
  184.6620  176.2080  137.9420 C   0  0  2  0  0  3  0  0  0  0  0  0
  182.2510  175.1270  137.6510 C   0  0  0  0  0  2  0  0  0  0  0  0
  184.1800  174.3780  136.2510 C   0  0  0  0  0  2  0  0  0  0  0  0
  182.9530  176.2340  139.6940 C   0  0  0  0  0  2  0  0  0  0  0  0
  181.7030  173.3890  135.6080 S   0  0  0  0  0  0  0  0  0  0  0  0
  180.7060  173.2610  137.1280 C   0  0  0  0  0  2  0  0  0  0  0  0
  179.2120  171.4070  137.0680 O   0  0  0  0  0  1  0  0  0  0  0  0
  180.4860  171.8030  137.4770 C   0  0  0  0  0  2  0  0  0  0  0  0
  181.2400  179.4860  138.4160 C   0  0  0  0  0  2  0  0  0  0  0  0
  180.9260  184.2930  137.7820 F   0  0  0  0  0  0  0  0  0  0  0  0
  179.0780  183.0350  137.5400 F   0  0  0  0  0  0  0  0  0  0  0  0
  180.7540  182.9180  135.8440 C   0  0  1  0  0  3  0  0  0  0  0  0
  181.1090  181.9580  138.1630 C   0  0  0  0  0  2  0  0  0  0  0  0
  180.1790  183.9420  135.1150 F   0  0  0  0  0  0  0  0  0  0  0  0
  180.1940  180.4660  136.3460 C   0  0  0  0  0  2  0  0  0  0  0  0
  180.4480  183.0750  137.3390 C   0  0  0  0  0  0  0  0  0  0  0  0
  181.2790  180.6300  137.4100 C   0  0  2  0  0  3  0  0  0  0  0  0
  180.2990  181.5630  135.2820 C   0  0  0  0  0  2  0  0  0  0  0  0
  3 18  1  0  0  0  0
  4 17  1  0  0  0  0
  4 14  1  0  0  0  0
  5 19  1  6  0  0  0
  6 21  1  0  0  0  0
  7  9  2  0  0  0  0
  8  1  2  0  0  0  0
  9 24  1  0  0  0  0
 10  8  1  0  0  0  0
 11  2  1  1  0  0  0
 11  5  1  0  0  0  0
 11  7  1  0  0  0  0
 12 23  1  0  0  0  0
 12 10  2  0  0  0  0
 13  8  1  0  0  0  0
 13 17  1  0  0  0  0
 15  6  2  0  0  0  0
 15 10  1  0  0  0  0
 16  4  2  0  0  0  0
 18 22  2  0  0  0  0
 19  3  1  0  0  0  0
 20 23  2  0  0  0  0
 20 16  1  0  0  0  0
 22  6  1  0  0  0  0
 23 13  1  0  0  0  0
 24 20  1  0  0  0  0
 26 31  2  0  0  0  0
 27 32  1  1  0  0  0
 27 30  1  0  0  0  0
 27 29  1  0  0  0  0
 28 25  1  6  0  0  0
 28  5  1  0  0  0  0
 28 26  1  0  0  0  0
 29 26  1  0  0  0  0
 30 25  1  0  0  0  0
 32 33  1  0  0  0  0
 33 35  1  0  0  0  0
 34 35  1  0  0  0  0
 36 18  1  0  0  0  0
 39 41  1  6  0  0  0
 39 43  1  0  0  0  0
 42 44  1  0  0  0  0
 43 38  1  0  0  0  0
 43 37  1  0  0  0  0
 43 40  1  0  0  0  0
 44 40  1  0  0  0  0
 44 36  1  1  0  0  0
 45 39  1  0  0  0  0
 45 42  1  0  0  0  0
M  END
>  <MODEL>
1

>  <REMARK>
 VINA RESULT:      -8.2      0.000      0.000
  Name = 
  6 active torsions:
  status: ('A' for Active; 'I' for Inactive)
    1  A    between atoms: C_1  and  C_34
    2  A    between atoms: C_1  and  C_36
    3  A    between atoms: N_8  and  C_16
    4  A    between atoms: C_14  and  S_23
    5  A    between atoms: S_23  and  C_39
    6  A    between atoms: C_39  and  C_40
                            x       y       z     vdW  Elec       q    Type
                         _______ _______ _______ _____ _____    ______ ____

>  <TORSDO>
F 6

$$$$
=
 OpenBabel11032420433D

 45 49  0  0  1  0  0  0  0  0999 V2000
  185.2580  178.3200  143.3220 O   0  0  0  0  0  0  0  0  0  0  0  0
  185.8180  178.6380  136.3790 O   0  0  0  0  0  1  0  0  0  0  0  0
  183.2790  179.0060  137.8610 C   0  0  0  0  0  2  0  0  0  0  0  0
  189.2920  176.5630  142.4790 C   0  0  0  0  0  0  0  0  0  0  0  0
  184.5410  177.1990  137.7660 N   0  0  1  0  0  0  0  0  0  0  0  0
  183.1210  178.9230  140.8620 C   0  0  0  0  0  0  0  0  0  0  0  0
  186.9750  177.1190  137.8300 C   0  0  0  0  0  3  0  0  0  0  0  0
  185.9850  178.4170  142.2970 C   0  0  0  0  0  0  0  0  0  0  0  0
  187.9790  178.0020  137.9360 C   0  0  0  0  0  3  0  0  0  0  0  0
  185.6180  178.9650  140.9790 C   0  0  0  0  0  0  0  0  0  0  0  0
  185.7640  177.3610  136.9600 C   0  0  2  0  0  3  0  0  0  0  0  0
  186.6430  178.9120  140.1920 N   0  0  0  0  0  0  0  0  0  0  0  0
  187.3510  178.0300  142.2670 N   0  0  0  0  0  0  0  0  0  0  0  0
  190.1990  175.7000  143.2830 C   0  0  0  0  0  1  0  0  0  0  0  0
  184.3180  179.1400  140.4000 N   0  0  0  0  0  0  0  0  0  0  0  0
  189.6240  176.8600  141.2110 C   0  0  0  0  0  3  0  0  0  0  0  0
  187.9700  176.9830  143.0750 C   0  0  0  0  0  2  0  0  0  0  0  0
  182.0090  178.9550  138.6620 C   0  0  0  0  0  0  0  0  0  0  0  0
  183.4860  177.8130  137.1520 O   0  0  0  0  0  0  0  0  0  0  0  0
  188.7600  177.6850  140.3440 C   0  0  0  0  0  0  0  0  0  0  0  0
  182.8970  178.5400  142.2190 N   0  0  0  0  0  1  0  0  0  0  0  0
  181.9950  178.9410  139.9690 N   0  0  0  0  0  0  0  0  0  0  0  0
  187.7020  178.2890  140.9120 C   0  0  0  0  0  0  0  0  0  0  0  0
  189.1340  177.7980  138.8790 C   0  0  0  0  0  2  0  0  0  0  0  0
  184.5010  175.0220  136.5320 C   0  0  0  0  0  2  0  0  0  0  0  0
  182.8680  175.5270  138.4620 C   0  0  0  0  0  0  0  0  0  0  0  0
  182.2570  174.0500  136.4820 C   0  0  1  0  0  3  0  0  0  0  0  0
  184.2420  175.7600  137.8640 C   0  0  2  0  0  3  0  0  0  0  0  0
  181.8630  174.5750  137.8590 C   0  0  0  0  0  2  0  0  0  0  0  0
  183.7370  173.7160  136.4470 C   0  0  0  0  0  2  0  0  0  0  0  0
  182.6370  175.9540  139.7010 C   0  0  0  0  0  2  0  0  0  0  0  0
  181.2670  172.5750  136.0870 S   0  0  0  0  0  0  0  0  0  0  0  0
  182.5430  171.4150  136.6740 C   0  0  0  0  0  2  0  0  0  0  0  0
  183.9140  169.6280  135.8980 O   0  0  0  0  0  1  0  0  0  0  0  0
  182.6960  170.2760  135.6870 C   0  0  0  0  0  2  0  0  0  0  0  0
  180.7090  178.9510  137.9260 C   0  0  0  0  0  2  0  0  0  0  0  0
  181.0210  183.4210  136.0430 F   0  0  0  0  0  0  0  0  0  0  0  0
  181.9390  183.0140  138.0560 F   0  0  0  0  0  0  0  0  0  0  0  0
  179.5590  183.1120  137.8990 C   0  0  1  0  0  3  0  0  0  0  0  0
  180.9020  181.2100  136.8980 C   0  0  0  0  0  2  0  0  0  0  0  0
  179.5320  184.4690  138.1600 F   0  0  0  0  0  0  0  0  0  0  0  0
  180.0130  180.9790  139.2480 C   0  0  0  0  0  2  0  0  0  0  0  0
  180.8750  182.7130  137.2210 C   0  0  0  0  0  0  0  0  0  0  0  0
  180.0810  180.3400  137.8610 C   0  0  2  0  0  3  0  0  0  0  0  0
  179.2950  182.3300  139.1940 C   0  0  0  0  0  2  0  0  0  0  0  0
  3 18  1  0  0  0  0
  4 17  1  0  0  0  0
  4 14  1  0  0  0  0
  5 19  1  6  0  0  0
  5 28  1  0  0  0  0
  6 21  1  0  0  0  0
  7  9  2  0  0  0  0
  8  1  2  0  0  0  0
  9 24  1  0  0  0  0
 10  8  1  0  0  0  0
 11  2  1  1  0  0  0
 11  5  1  0  0  0  0
 11  7  1  0  0  0  0
 12 23  1  0  0  0  0
 12 10  2  0  0  0  0
 13  8  1  0  0  0  0
 13 17  1  0  0  0  0
 15  6  2  0  0  0  0
 15 10  1  0  0  0  0
 16  4  2  0  0  0  0
 18 22  2  0  0  0  0
 19  3  1  0  0  0  0
 20 23  2  0  0  0  0
 20 16  1  0  0  0  0
 22  6  1  0  0  0  0
 23 13  1  0  0  0  0
 24 20  1  0  0  0  0
 26 31  2  0  0  0  0
 27 32  1  1  0  0  0
 27 29  1  0  0  0  0
 28 25  1  6  0  0  0
 28 26  1  0  0  0  0
 29 26  1  0  0  0  0
 30 27  1  0  0  0  0
 30 25  1  0  0  0  0
 32 33  1  0  0  0  0
 35 34  1  0  0  0  0
 35 33  1  0  0  0  0
 36 18  1  0  0  0  0
 37 43  1  0  0  0  0
 39 41  1  1  0  0  0
 39 45  1  0  0  0  0
 40 43  1  0  0  0  0
 40 44  1  0  0  0  0
 43 39  1  0  0  0  0
 43 38  1  0  0  0  0
 44 36  1  1  0  0  0
 44 42  1  0  0  0  0
 45 42  1  0  0  0  0
M  END
>  <MODEL>
2

>  <REMARK>
 VINA RESULT:      -7.3      1.312      1.625
  Name = 
  6 active torsions:
  status: ('A' for Active; 'I' for Inactive)
    1  A    between atoms: C_1  and  C_34
    2  A    between atoms: C_1  and  C_36
    3  A    between atoms: N_8  and  C_16
    4  A    between atoms: C_14  and  S_23
    5  A    between atoms: S_23  and  C_39
    6  A    between atoms: C_39  and  C_40
                            x       y       z     vdW  Elec       q    Type
                         _______ _______ _______ _____ _____    ______ ____

>  <TORSDO>
F 6

$$$$
=
 OpenBabel11032420433D

 45 49  0  0  1  0  0  0  0  0999 V2000
  190.4690  176.9650  140.4950 O   0  0  0  0  0  0  0  0  0  0  0  0
  186.4370  178.3070  134.9670 O   0  0  0  0  0  1  0  0  0  0  0  0
  185.6420  178.8340  137.7720 C   0  0  0  0  0  2  0  0  0  0  0  0
  192.4480  174.7410  137.1450 C   0  0  0  0  0  0  0  0  0  0  0  0
  186.0840  176.8870  136.8330 N   0  0  1  0  0  0  0  0  0  0  0  0
  187.4590  178.2940  140.1060 C   0  0  0  0  0  0  0  0  0  0  0  0
  187.8730  176.4070  135.2500 C   0  0  0  0  0  3  0  0  0  0  0  0
  190.3530  177.1070  139.2480 C   0  0  0  0  0  0  0  0  0  0  0  0
  188.8710  177.0880  134.6680 C   0  0  0  0  0  3  0  0  0  0  0  0
  189.3560  177.9130  138.5220 C   0  0  0  0  0  0  0  0  0  0  0  0
  186.4840  176.9790  135.4180 C   0  0  2  0  0  3  0  0  0  0  0  0
  189.5750  177.8240  137.2500 N   0  0  0  0  0  0  0  0  0  0  0  0
  191.2360  176.5160  138.3060 N   0  0  0  0  0  0  0  0  0  0  0  0
  193.4310  173.6250  137.1250 C   0  0  0  0  0  1  0  0  0  0  0  0
  188.0760  178.3870  138.9640 N   0  0  0  0  0  0  0  0  0  0  0  0
  191.9320  175.1810  135.9850 C   0  0  0  0  0  3  0  0  0  0  0  0
  191.9720  175.2660  138.4790 C   0  0  0  0  0  2  0  0  0  0  0  0
  185.2300  178.8590  139.2160 C   0  0  0  0  0  0  0  0  0  0  0  0
  185.0610  177.7540  137.0910 O   0  0  0  0  0  0  0  0  0  0  0  0
  190.9300  176.2640  135.9300 C   0  0  0  0  0  0  0  0  0  0  0  0
  188.0910  177.7370  141.2590 N   0  0  0  0  0  1  0  0  0  0  0  0
  186.0670  178.6370  140.1960 N   0  0  0  0  0  0  0  0  0  0  0  0
  190.6690  176.9310  137.0680 C   0  0  0  0  0  0  0  0  0  0  0  0
  190.2760  176.5510  134.5940 C   0  0  0  0  0  2  0  0  0  0  0  0
  186.7670  174.5210  137.2770 C   0  0  0  0  0  2  0  0  0  0  0  0
  184.5720  175.1020  136.0570 C   0  0  0  0  0  0  0  0  0  0  0  0
  185.9130  172.9960  135.5650 C   0  0  1  0  0  3  0  0  0  0  0  0
  185.6030  175.5180  137.0870 C   0  0  2  0  0  3  0  0  0  0  0  0
  184.6210  173.7750  135.3390 C   0  0  0  0  0  2  0  0  0  0  0  0
  186.3390  173.0900  137.0190 C   0  0  0  0  0  2  0  0  0  0  0  0
  183.4390  175.7950  135.9800 C   0  0  0  0  0  2  0  0  0  0  0  0
  185.6670  171.2570  135.0910 S   0  0  0  0  0  0  0  0  0  0  0  0
  183.8550  171.3410  135.2630 C   0  0  0  0  0  2  0  0  0  0  0  0
  182.5790  171.4800  137.2700 O   0  0  0  0  0  1  0  0  0  0  0  0
  183.4270  170.6460  136.5400 C   0  0  0  0  0  2  0  0  0  0  0  0
  183.8080  179.1840  139.5400 C   0  0  0  0  0  2  0  0  0  0  0  0
  179.1610  177.8760  138.9860 F   0  0  0  0  0  0  0  0  0  0  0  0
  180.2300  177.3380  140.8900 F   0  0  0  0  0  0  0  0  0  0  0  0
  180.8040  176.1520  138.8990 C   0  0  1  0  0  3  0  0  0  0  0  0
  181.4100  178.5880  139.2420 C   0  0  0  0  0  2  0  0  0  0  0  0
  179.8540  175.1740  139.1300 F   0  0  0  0  0  0  0  0  0  0  0  0
  183.0650  176.8070  139.9150 C   0  0  0  0  0  2  0  0  0  0  0  0
  180.3750  177.4870  139.5200 C   0  0  0  0  0  0  0  0  0  0  0  0
  182.8530  178.0810  139.0980 C   0  0  2  0  0  3  0  0  0  0  0  0
  182.1730  175.6730  139.4040 C   0  0  0  0  0  2  0  0  0  0  0  0
  3 18  1  0  0  0  0
  4 17  1  0  0  0  0
  5 28  1  0  0  0  0
  5 19  1  6  0  0  0
  6 22  1  0  0  0  0
  6 21  1  0  0  0  0
  7 11  1  0  0  0  0
  8  1  2  0  0  0  0
  9  7  2  0  0  0  0
 10 15  1  0  0  0  0
 10  8  1  0  0  0  0
 11  2  1  1  0  0  0
 11  5  1  0  0  0  0
 12 10  2  0  0  0  0
 13 17  1  0  0  0  0
 13  8  1  0  0  0  0
 14  4  1  0  0  0  0
 15  6  2  0  0  0  0
 16  4  2  0  0  0  0
 18 36  1  0  0  0  0
 18 22  2  0  0  0  0
 19  3  1  0  0  0  0
 20 16  1  0  0  0  0
 20 23  2  0  0  0  0
 23 12  1  0  0  0  0
 23 13  1  0  0  0  0
 24  9  1  0  0  0  0
 24 20  1  0  0  0  0
 26 28  1  0  0  0  0
 27 32  1  1  0  0  0
 27 30  1  0  0  0  0
 28 25  1  6  0  0  0
 29 27  1  0  0  0  0
 29 26  1  0  0  0  0
 30 25  1  0  0  0  0
 31 26  2  0  0  0  0
 32 33  1  0  0  0  0
 33 35  1  0  0  0  0
 35 34  1  0  0  0  0
 37 43  1  0  0  0  0
 39 41  1  1  0  0  0
 39 45  1  0  0  0  0
 39 43  1  0  0  0  0
 40 43  1  0  0  0  0
 43 38  1  0  0  0  0
 44 40  1  0  0  0  0
 44 36  1  1  0  0  0
 44 42  1  0  0  0  0
 45 42  1  0  0  0  0
M  END
>  <MODEL>
3

>  <REMARK>
 VINA RESULT:      -6.8      3.347      4.747
  Name = 
  6 active torsions:
  status: ('A' for Active; 'I' for Inactive)
    1  A    between atoms: C_1  and  C_34
    2  A    between atoms: C_1  and  C_36
    3  A    between atoms: N_8  and  C_16
    4  A    between atoms: C_14  and  S_23
    5  A    between atoms: S_23  and  C_39
    6  A    between atoms: C_39  and  C_40
                            x       y       z     vdW  Elec       q    Type
                         _______ _______ _______ _____ _____    ______ ____

>  <TORSDO>
F 6

$$$$
=
 OpenBabel11032420433D

 45 49  0  0  1  0  0  0  0  0999 V2000
  186.0160  177.7770  143.9190 O   0  0  0  0  0  0  0  0  0  0  0  0
  186.7570  179.3690  137.1710 O   0  0  0  0  0  1  0  0  0  0  0  0
  184.1910  179.5260  138.6450 C   0  0  0  0  0  2  0  0  0  0  0  0
  190.0280  176.0940  142.8420 C   0  0  0  0  0  0  0  0  0  0  0  0
  185.4110  177.7340  138.2380 N   0  0  1  0  0  0  0  0  0  0  0  0
  183.9570  178.8890  141.5740 C   0  0  0  0  0  0  0  0  0  0  0  0
  187.8410  177.5740  138.3340 C   0  0  0  0  0  3  0  0  0  0  0  0
  186.7720  178.0420  142.9450 C   0  0  0  0  0  0  0  0  0  0  0  0
  188.8620  178.3930  138.6240 C   0  0  0  0  0  3  0  0  0  0  0  0
  186.4510  178.8370  141.7460 C   0  0  0  0  0  0  0  0  0  0  0  0
  186.6580  178.0090  137.5010 C   0  0  2  0  0  3  0  0  0  0  0  0
  187.4930  178.9030  140.9830 N   0  0  0  0  0  0  0  0  0  0  0  0
  188.1280  177.6300  142.8700 N   0  0  0  0  0  0  0  0  0  0  0  0
  190.8920  175.0710  143.4880 C   0  0  0  0  0  1  0  0  0  0  0  0
  185.1700  179.1550  141.1840 N   0  0  0  0  0  0  0  0  0  0  0  0
  190.3980  176.6130  141.6600 C   0  0  0  0  0  3  0  0  0  0  0  0
  188.7010  176.4330  143.4800 C   0  0  0  0  0  2  0  0  0  0  0  0
  182.9010  179.3630  139.3970 C   0  0  0  0  0  0  0  0  0  0  0  0
  184.3880  178.4810  137.7290 O   0  0  0  0  0  0  0  0  0  0  0  0
  189.5760  177.6100  140.9450 C   0  0  0  0  0  0  0  0  0  0  0  0
  183.6900  178.2660  142.8300 N   0  0  0  0  0  1  0  0  0  0  0  0
  182.8540  179.1050  140.6780 N   0  0  0  0  0  0  0  0  0  0  0  0
  188.5190  178.1270  141.5950 C   0  0  0  0  0  0  0  0  0  0  0  0
  189.9880  177.9840  139.5360 C   0  0  0  0  0  2  0  0  0  0  0  0
  185.5170  175.7810  136.6770 C   0  0  0  0  0  2  0  0  0  0  0  0
  183.6240  176.0440  138.4080 C   0  0  0  0  0  0  0  0  0  0  0  0
  183.2880  174.9220  136.1480 C   0  0  1  0  0  3  0  0  0  0  0  0
  185.0760  176.3110  138.0590 C   0  0  2  0  0  3  0  0  0  0  0  0
  182.7030  175.2410  137.5210 C   0  0  0  0  0  2  0  0  0  0  0  0
  184.7500  174.5370  136.2730 C   0  0  0  0  0  2  0  0  0  0  0  0
  183.2190  176.2810  139.6530 C   0  0  0  0  0  2  0  0  0  0  0  0
  182.3420  173.5710  135.3820 S   0  0  0  0  0  0  0  0  0  0  0  0
  182.3650  172.5420  136.8860 C   0  0  0  0  0  2  0  0  0  0  0  0
  180.2000  172.6380  137.8750 O   0  0  0  0  0  1  0  0  0  0  0  0
  181.0240  171.8580  137.0610 C   0  0  0  0  0  2  0  0  0  0  0  0
  181.6200  179.5330  138.6470 C   0  0  0  0  0  2  0  0  0  0  0  0
  180.9480  176.9360  134.5950 F   0  0  0  0  0  0  0  0  0  0  0  0
  179.2590  178.1960  135.3800 F   0  0  0  0  0  0  0  0  0  0  0  0
  179.8280  176.2040  136.5660 C   0  0  1  0  0  3  0  0  0  0  0  0
  181.3380  178.2380  136.5410 C   0  0  0  0  0  2  0  0  0  0  0  0
  178.9430  175.4360  135.8310 F   0  0  0  0  0  0  0  0  0  0  0  0
  179.6440  177.9930  138.3940 C   0  0  0  0  0  2  0  0  0  0  0  0
  180.3300  177.3960  135.7420 C   0  0  0  0  0  0  0  0  0  0  0  0
  181.1180  178.2190  138.0600 C   0  0  2  0  0  3  0  0  0  0  0  0
  179.1700  176.6280  137.8880 C   0  0  0  0  0  2  0  0  0  0  0  0
  3 18  1  0  0  0  0
  4 17  1  0  0  0  0
  4 14  1  0  0  0  0
  5 19  1  6  0  0  0
  6 21  1  0  0  0  0
  7  9  2  0  0  0  0
  8  1  2  0  0  0  0
  9 24  1  0  0  0  0
 10  8  1  0  0  0  0
 11  2  1  1  0  0  0
 11  5  1  0  0  0  0
 11  7  1  0  0  0  0
 12 23  1  0  0  0  0
 12 10  2  0  0  0  0
 13  8  1  0  0  0  0
 13 17  1  0  0  0  0
 15  6  2  0  0  0  0
 15 10  1  0  0  0  0
 16  4  2  0  0  0  0
 18 22  2  0  0  0  0
 19  3  1  0  0  0  0
 20 23  2  0  0  0  0
 20 16  1  0  0  0  0
 22  6  1  0  0  0  0
 23 13  1  0  0  0  0
 24 20  1  0  0  0  0
 26 31  2  0  0  0  0
 27 32  1  1  0  0  0
 27 30  1  0  0  0  0
 27 29  1  0  0  0  0
 28 25  1  6  0  0  0
 28  5  1  0  0  0  0
 28 26  1  0  0  0  0
 29 26  1  0  0  0  0
 30 25  1  0  0  0  0
 32 33  1  0  0  0  0
 33 35  1  0  0  0  0
 35 34  1  0  0  0  0
 36 18  1  0  0  0  0
 37 43  1  0  0  0  0
 38 43  1  0  0  0  0
 39 41  1  6  0  0  0
 39 45  1  0  0  0  0
 40 44  1  0  0  0  0
 43 40  1  0  0  0  0
 43 39  1  0  0  0  0
 44 42  1  0  0  0  0
 44 36  1  6  0  0  0
 45 42  1  0  0  0  0
M  END
>  <MODEL>
4

>  <REMARK>
 VINA RESULT:      -6.5      2.075      2.700
  Name = 
  6 active torsions:
  status: ('A' for Active; 'I' for Inactive)
    1  A    between atoms: C_1  and  C_34
    2  A    between atoms: C_1  and  C_36
    3  A    between atoms: N_8  and  C_16
    4  A    between atoms: C_14  and  S_23
    5  A    between atoms: S_23  and  C_39
    6  A    between atoms: C_39  and  C_40
                            x       y       z     vdW  Elec       q    Type
                         _______ _______ _______ _____ _____    ______ ____

>  <TORSDO>
F 6

$$$$
=
 OpenBabel11032420433D

 45 49  0  0  1  0  0  0  0  0999 V2000
  186.6750  173.1470  136.8060 O   0  0  0  0  0  0  0  0  0  0  0  0
  189.0560  179.4360  138.6470 O   0  0  0  0  0  1  0  0  0  0  0  0
  190.7910  177.1050  138.0710 C   0  0  0  0  0  2  0  0  0  0  0  0
  183.0440  175.2690  138.3510 C   0  0  0  0  0  0  0  0  0  0  0  0
  189.3060  177.3200  139.6870 N   0  0  1  0  0  0  0  0  0  0  0  0
  189.6990  174.4380  137.2150 C   0  0  0  0  0  0  0  0  0  0  0  0
  187.1030  178.3470  139.5130 C   0  0  0  0  0  3  0  0  0  0  0  0
  186.4660  174.3790  136.9700 C   0  0  0  0  0  0  0  0  0  0  0  0
  186.3680  178.9240  138.5520 C   0  0  0  0  0  3  0  0  0  0  0  0
  187.4460  175.4760  136.9030 C   0  0  0  0  0  0  0  0  0  0  0  0
  188.5830  178.6050  139.6730 C   0  0  2  0  0  3  0  0  0  0  0  0
  186.8440  176.6030  137.1060 N   0  0  0  0  0  0  0  0  0  0  0  0
  185.1800  174.9290  137.2160 N   0  0  0  0  0  0  0  0  0  0  0  0
  181.7230  174.7810  138.8260 C   0  0  0  0  0  1  0  0  0  0  0  0
  188.8730  175.4290  137.0430 N   0  0  0  0  0  0  0  0  0  0  0  0
  183.3290  176.5790  138.4400 C   0  0  0  0  0  3  0  0  0  0  0  0
  184.0700  174.2610  137.8910 C   0  0  0  0  0  2  0  0  0  0  0  0
  191.5820  175.8310  137.9850 C   0  0  0  0  0  0  0  0  0  0  0  0
  190.6260  177.5190  139.4010 O   0  0  0  0  0  0  0  0  0  0  0  0
  184.6300  177.1330  138.0160 C   0  0  0  0  0  0  0  0  0  0  0  0
  189.2630  173.0790  137.1690 N   0  0  0  0  0  1  0  0  0  0  0  0
  191.0630  174.6990  137.5860 N   0  0  0  0  0  0  0  0  0  0  0  0
  185.4740  176.3130  137.3660 C   0  0  0  0  0  0  0  0  0  0  0  0
  184.9160  178.5870  138.3370 C   0  0  0  0  0  2  0  0  0  0  0  0
  187.8530  177.0730  141.7100 C   0  0  0  0  0  2  0  0  0  0  0  0
  190.4260  177.1130  141.8730 C   0  0  0  0  0  0  0  0  0  0  0  0
  188.9080  178.0200  143.7040 C   0  0  1  0  0  3  0  0  0  0  0  0
  189.2090  176.7530  141.0430 C   0  0  2  0  0  3  0  0  0  0  0  0
  190.3270  177.6520  143.2800 C   0  0  0  0  0  2  0  0  0  0  0  0
  187.9240  176.9710  143.2210 C   0  0  0  0  0  2  0  0  0  0  0  0
  191.6180  176.6850  141.4670 C   0  0  0  0  0  2  0  0  0  0  0  0
  188.8320  178.1690  145.5150 S   0  0  0  0  0  0  0  0  0  0  0  0
  187.0340  177.8830  145.5830 C   0  0  0  0  0  2  0  0  0  0  0  0
  185.6800  179.3740  146.8540 O   0  0  0  0  0  1  0  0  0  0  0  0
  186.5060  178.2540  146.9540 C   0  0  0  0  0  2  0  0  0  0  0  0
  193.0320  175.8740  138.3430 C   0  0  0  0  0  2  0  0  0  0  0  0
  196.7570  172.7550  138.2980 F   0  0  0  0  0  0  0  0  0  0  0  0
  197.1160  174.8960  137.7120 F   0  0  0  0  0  0  0  0  0  0  0  0
  195.9200  173.4940  136.1930 C   0  0  1  0  0  3  0  0  0  0  0  0
  194.9250  174.2590  138.3950 C   0  0  0  0  0  2  0  0  0  0  0  0
  197.0770  173.1010  135.5450 F   0  0  0  0  0  0  0  0  0  0  0  0
  194.5100  175.6330  136.3190 C   0  0  0  0  0  2  0  0  0  0  0  0
  196.2100  173.8500  137.6570 C   0  0  0  0  0  0  0  0  0  0  0  0
  193.8610  174.9120  137.5000 C   0  0  2  0  0  3  0  0  0  0  0  0
  195.2610  174.6460  135.4200 C   0  0  0  0  0  2  0  0  0  0  0  0
  1  8  2  0  0  0  0
  3 19  1  0  0  0  0
  4 16  2  0  0  0  0
  4 14  1  0  0  0  0
  5 19  1  1  0  0  0
  5 28  1  0  0  0  0
  6 22  1  0  0  0  0
  7 11  1  0  0  0  0
  8 13  1  0  0  0  0
  9  7  2  0  0  0  0
 10  8  1  0  0  0  0
 10 15  1  0  0  0  0
 10 12  2  0  0  0  0
 11  2  1  6  0  0  0
 11  5  1  0  0  0  0
 12 23  1  0  0  0  0
 13 23  1  0  0  0  0
 13 17  1  0  0  0  0
 15  6  2  0  0  0  0
 17  4  1  0  0  0  0
 18  3  1  0  0  0  0
 18 36  1  0  0  0  0
 20 24  1  0  0  0  0
 20 16  1  0  0  0  0
 21  6  1  0  0  0  0
 22 18  2  0  0  0  0
 23 20  2  0  0  0  0
 24  9  1  0  0  0  0
 25 30  1  0  0  0  0
 26 29  1  0  0  0  0
 27 32  1  1  0  0  0
 28 25  1  1  0  0  0
 28 26  1  0  0  0  0
 29 27  1  0  0  0  0
 30 27  1  0  0  0  0
 31 26  2  0  0  0  0
 32 33  1  0  0  0  0
 33 35  1  0  0  0  0
 34 35  1  0  0  0  0
 39 41  1  6  0  0  0
 39 43  1  0  0  0  0
 42 44  1  0  0  0  0
 43 38  1  0  0  0  0
 43 37  1  0  0  0  0
 43 40  1  0  0  0  0
 44 36  1  1  0  0  0
 44 40  1  0  0  0  0
 45 39  1  0  0  0  0
 45 42  1  0  0  0  0
M  END
>  <MODEL>
5

>  <REMARK>
 VINA RESULT:      -6.2      6.514     10.764
  Name = 
  6 active torsions:
  status: ('A' for Active; 'I' for Inactive)
    1  A    between atoms: C_1  and  C_34
    2  A    between atoms: C_1  and  C_36
    3  A    between atoms: N_8  and  C_16
    4  A    between atoms: C_14  and  S_23
    5  A    between atoms: S_23  and  C_39
    6  A    between atoms: C_39  and  C_40
                            x       y       z     vdW  Elec       q    Type
                         _______ _______ _______ _____ _____    ______ ____

>  <TORSDO>
F 6

$$$$
=
 OpenBabel11032420433D

 45 49  0  0  1  0  0  0  0  0999 V2000
  186.2390  173.1820  136.3980 O   0  0  0  0  0  0  0  0  0  0  0  0
  189.0550  179.4430  137.6140 O   0  0  0  0  0  1  0  0  0  0  0  0
  190.5960  177.0690  136.7390 C   0  0  0  0  0  2  0  0  0  0  0  0
  183.0350  175.4000  138.6090 C   0  0  0  0  0  0  0  0  0  0  0  0
  189.4730  177.3360  138.6180 N   0  0  1  0  0  0  0  0  0  0  0  0
  189.3060  174.4140  136.1660 C   0  0  0  0  0  0  0  0  0  0  0  0
  187.2990  178.4060  138.8750 C   0  0  0  0  0  3  0  0  0  0  0  0
  186.0890  174.4200  136.5810 C   0  0  0  0  0  0  0  0  0  0  0  0
  186.3950  178.9860  138.0730 C   0  0  0  0  0  3  0  0  0  0  0  0
  187.0560  175.4960  136.2990 C   0  0  0  0  0  0  0  0  0  0  0  0
  188.7860  178.6350  138.7290 C   0  0  2  0  0  3  0  0  0  0  0  0
  186.5270  176.6370  136.6000 N   0  0  0  0  0  0  0  0  0  0  0  0
  184.8900  175.0000  137.0720 N   0  0  0  0  0  0  0  0  0  0  0  0
  181.8280  174.9450  139.3500 C   0  0  0  0  0  1  0  0  0  0  0  0
  188.4800  175.4200  136.1490 N   0  0  0  0  0  0  0  0  0  0  0  0
  183.3550  176.7050  138.6170 C   0  0  0  0  0  3  0  0  0  0  0  0
  183.9280  174.3640  137.9680 C   0  0  0  0  0  2  0  0  0  0  0  0
  191.3300  175.7770  136.5170 C   0  0  0  0  0  0  0  0  0  0  0  0
  190.7120  177.5030  138.0680 O   0  0  0  0  0  0  0  0  0  0  0  0
  184.5530  177.2260  137.9300 C   0  0  0  0  0  0  0  0  0  0  0  0
  188.8460  173.0640  136.2330 N   0  0  0  0  0  1  0  0  0  0  0  0
  190.7210  174.6510  136.2500 N   0  0  0  0  0  0  0  0  0  0  0  0
  185.2340  176.3800  137.1360 C   0  0  0  0  0  0  0  0  0  0  0  0
  184.9240  178.6770  138.1610 C   0  0  0  0  0  2  0  0  0  0  0  0
  188.3870  177.0040  140.8480 C   0  0  0  0  0  2  0  0  0  0  0  0
  190.9400  177.2660  140.5980 C   0  0  0  0  0  0  0  0  0  0  0  0
  189.6580  178.0750  142.6430 C   0  0  1  0  0  3  0  0  0  0  0  0
  189.6420  176.7880  139.9750 C   0  0  2  0  0  3  0  0  0  0  0  0
  191.0180  177.8210  142.0000 C   0  0  0  0  0  2  0  0  0  0  0  0
  188.7050  176.9370  142.3290 C   0  0  0  0  0  2  0  0  0  0  0  0
  192.0850  176.9330  140.0090 C   0  0  0  0  0  2  0  0  0  0  0  0
  189.8580  178.2530  144.4430 S   0  0  0  0  0  0  0  0  0  0  0  0
  191.5640  177.6110  144.4360 C   0  0  0  0  0  2  0  0  0  0  0  0
  192.0560  176.7520  146.6030 O   0  0  0  0  0  1  0  0  0  0  0  0
  191.6530  176.3830  145.3190 C   0  0  0  0  0  2  0  0  0  0  0  0
  192.8230  175.7940  136.5740 C   0  0  0  0  0  2  0  0  0  0  0  0
  196.1500  173.7530  139.4680 F   0  0  0  0  0  0  0  0  0  0  0  0
  196.6160  174.0210  137.2850 F   0  0  0  0  0  0  0  0  0  0  0  0
  195.0410  172.3380  137.9050 C   0  0  1  0  0  3  0  0  0  0  0  0
  194.5240  174.8110  138.1030 C   0  0  0  0  0  2  0  0  0  0  0  0
  196.0210  171.3700  138.0180 F   0  0  0  0  0  0  0  0  0  0  0  0
  193.8970  173.5940  135.9840 C   0  0  0  0  0  2  0  0  0  0  0  0
  195.6130  173.7310  138.1950 C   0  0  0  0  0  0  0  0  0  0  0  0
  193.3920  174.4880  137.1160 C   0  0  2  0  0  3  0  0  0  0  0  0
  194.3770  172.2440  136.5230 C   0  0  0  0  0  2  0  0  0  0  0  0
  1  8  2  0  0  0  0
  3 19  1  0  0  0  0
  4 16  2  0  0  0  0
  4 14  1  0  0  0  0
  5 19  1  1  0  0  0
  5 11  1  0  0  0  0
  5 28  1  0  0  0  0
  6 21  1  0  0  0  0
  6 22  1  0  0  0  0
  8 13  1  0  0  0  0
  9 24  1  0  0  0  0
  9  7  2  0  0  0  0
 10  8  1  0  0  0  0
 10 12  2  0  0  0  0
 11  2  1  6  0  0  0
 11  7  1  0  0  0  0
 12 23  1  0  0  0  0
 13 23  1  0  0  0  0
 13 17  1  0  0  0  0
 15  6  2  0  0  0  0
 15 10  1  0  0  0  0
 17  4  1  0  0  0  0
 18 36  1  0  0  0  0
 18  3  1  0  0  0  0
 20 24  1  0  0  0  0
 20 16  1  0  0  0  0
 22 18  2  0  0  0  0
 23 20  2  0  0  0  0
 25 30  1  0  0  0  0
 26 29  1  0  0  0  0
 27 32  1  1  0  0  0
 28 26  1  0  0  0  0
 28 25  1  1  0  0  0
 29 27  1  0  0  0  0
 30 27  1  0  0  0  0
 31 26  2  0  0  0  0
 33 32  1  0  0  0  0
 33 35  1  0  0  0  0
 35 34  1  0  0  0  0
 38 43  1  0  0  0  0
 39 41  1  6  0  0  0
 39 43  1  0  0  0  0
 40 43  1  0  0  0  0
 42 45  1  0  0  0  0
 42 44  1  0  0  0  0
 43 37  1  0  0  0  0
 44 36  1  6  0  0  0
 44 40  1  0  0  0  0
 45 39  1  0  0  0  0
M  END
>  <MODEL>
6

>  <REMARK>
 VINA RESULT:      -6.2      6.504     10.916
  Name = 
  6 active torsions:
  status: ('A' for Active; 'I' for Inactive)
    1  A    between atoms: C_1  and  C_34
    2  A    between atoms: C_1  and  C_36
    3  A    between atoms: N_8  and  C_16
    4  A    between atoms: C_14  and  S_23
    5  A    between atoms: S_23  and  C_39
    6  A    between atoms: C_39  and  C_40
                            x       y       z     vdW  Elec       q    Type
                         _______ _______ _______ _____ _____    ______ ____

>  <TORSDO>
F 6

$$$$
=
 OpenBabel11032420433D

 45 49  0  0  1  0  0  0  0  0999 V2000
  187.5040  178.3370  141.1800 O   0  0  0  0  0  0  0  0  0  0  0  0
  183.6310  177.5900  135.4310 O   0  0  0  0  0  1  0  0  0  0  0  0
  182.5170  178.0440  138.1380 C   0  0  0  0  0  2  0  0  0  0  0  0
  190.3690  176.6970  138.1500 C   0  0  0  0  0  0  0  0  0  0  0  0
  183.6950  176.3180  137.4310 N   0  0  1  0  0  0  0  0  0  0  0  0
  184.2500  178.4260  140.5660 C   0  0  0  0  0  0  0  0  0  0  0  0
  185.6360  176.3850  135.9600 C   0  0  0  0  0  3  0  0  0  0  0  0
  187.4270  178.3110  139.9230 C   0  0  0  0  0  0  0  0  0  0  0  0
  186.3550  177.3280  135.3340 C   0  0  0  0  0  3  0  0  0  0  0  0
  186.2550  178.6240  139.0860 C   0  0  0  0  0  0  0  0  0  0  0  0
  184.1270  176.4190  136.0260 C   0  0  2  0  0  3  0  0  0  0  0  0
  186.5740  178.5050  137.8380 N   0  0  0  0  0  0  0  0  0  0  0  0
  188.5230  178.0020  139.0760 N   0  0  0  0  0  0  0  0  0  0  0  0
  191.6880  176.0230  138.2780 C   0  0  0  0  0  1  0  0  0  0  0  0
  184.8650  178.6330  139.4380 N   0  0  0  0  0  0  0  0  0  0  0  0
  189.8060  176.8080  136.9350 C   0  0  0  0  0  3  0  0  0  0  0  0
  189.6490  177.1300  139.4040 C   0  0  0  0  0  2  0  0  0  0  0  0
  182.0310  178.0490  139.5600 C   0  0  0  0  0  0  0  0  0  0  0  0
  182.4130  176.7680  137.5650 O   0  0  0  0  0  0  0  0  0  0  0  0
  188.4850  177.4380  136.7340 C   0  0  0  0  0  0  0  0  0  0  0  0
  184.9640  178.2480  141.7900 N   0  0  0  0  0  1  0  0  0  0  0  0
  182.8250  178.2400  140.5810 N   0  0  0  0  0  0  0  0  0  0  0  0
  187.9270  178.0640  137.7840 C   0  0  0  0  0  0  0  0  0  0  0  0
  187.8600  177.3400  135.3570 C   0  0  0  0  0  2  0  0  0  0  0  0
  185.1180  174.2660  137.5930 C   0  0  0  0  0  2  0  0  0  0  0  0
  182.5740  174.1350  137.1990 C   0  0  0  0  0  0  0  0  0  0  0  0
  184.2100  172.4260  136.2600 C   0  0  1  0  0  3  0  0  0  0  0  0
  183.7280  174.8970  137.8210 C   0  0  2  0  0  3  0  0  0  0  0  0
  182.7520  172.8110  136.4950 C   0  0  0  0  0  2  0  0  0  0  0  0
  185.0460  172.7560  137.4830 C   0  0  0  0  0  2  0  0  0  0  0  0
  181.3330  174.4930  137.5190 C   0  0  0  0  0  2  0  0  0  0  0  0
  184.3170  170.6500  135.8810 S   0  0  0  0  0  0  0  0  0  0  0  0
  185.6240  170.8750  134.6300 C   0  0  0  0  0  2  0  0  0  0  0  0
  187.7390  171.2770  135.6500 O   0  0  0  0  0  1  0  0  0  0  0  0
  186.9220  170.2720  135.1290 C   0  0  0  0  0  2  0  0  0  0  0  0
  180.5700  177.8570  139.8070 C   0  0  0  0  0  2  0  0  0  0  0  0
  179.8120  182.0310  137.4360 F   0  0  0  0  0  0  0  0  0  0  0  0
  181.3350  181.9730  139.0900 F   0  0  0  0  0  0  0  0  0  0  0  0
  179.0230  181.8850  139.6800 C   0  0  1  0  0  3  0  0  0  0  0  0
  180.1970  179.9580  138.5260 C   0  0  0  0  0  2  0  0  0  0  0  0
  178.9310  183.2600  139.7840 F   0  0  0  0  0  0  0  0  0  0  0  0
  180.0930  179.9970  141.0460 C   0  0  0  0  0  2  0  0  0  0  0  0
  180.1070  181.4860  138.6710 C   0  0  0  0  0  0  0  0  0  0  0  0
  179.8060  179.1770  139.7890 C   0  0  2  0  0  3  0  0  0  0  0  0
  179.2500  181.2750  141.0710 C   0  0  0  0  0  2  0  0  0  0  0  0
  3 18  1  0  0  0  0
  4 14  1  0  0  0  0
  4 17  1  0  0  0  0
  5 19  1  6  0  0  0
  5 28  1  0  0  0  0
  6 22  1  0  0  0  0
  6 21  1  0  0  0  0
  7 11  1  0  0  0  0
  8  1  2  0  0  0  0
  9 24  1  0  0  0  0
  9  7  2  0  0  0  0
 10 15  1  0  0  0  0
 10  8  1  0  0  0  0
 11  2  1  1  0  0  0
 11  5  1  0  0  0  0
 12 10  2  0  0  0  0
 13 17  1  0  0  0  0
 13  8  1  0  0  0  0
 15  6  2  0  0  0  0
 16  4  2  0  0  0  0
 18 36  1  0  0  0  0
 18 22  2  0  0  0  0
 19  3  1  0  0  0  0
 20 16  1  0  0  0  0
 20 23  2  0  0  0  0
 23 12  1  0  0  0  0
 23 13  1  0  0  0  0
 24 20  1  0  0  0  0
 26 31  2  0  0  0  0
 26 28  1  0  0  0  0
 27 32  1  1  0  0  0
 27 29  1  0  0  0  0
 27 30  1  0  0  0  0
 28 25  1  6  0  0  0
 29 26  1  0  0  0  0
 30 25  1  0  0  0  0
 33 35  1  0  0  0  0
 33 32  1  0  0  0  0
 35 34  1  0  0  0  0
 37 43  1  0  0  0  0
 39 41  1  1  0  0  0
 39 45  1  0  0  0  0
 40 43  1  0  0  0  0
 40 44  1  0  0  0  0
 42 45  1  0  0  0  0
 43 38  1  0  0  0  0
 43 39  1  0  0  0  0
 44 36  1  1  0  0  0
 44 42  1  0  0  0  0
M  END
>  <MODEL>
7

>  <REMARK>
 VINA RESULT:      -6.1      2.504      3.655
  Name = 
  6 active torsions:
  status: ('A' for Active; 'I' for Inactive)
    1  A    between atoms: C_1  and  C_34
    2  A    between atoms: C_1  and  C_36
    3  A    between atoms: N_8  and  C_16
    4  A    between atoms: C_14  and  S_23
    5  A    between atoms: S_23  and  C_39
    6  A    between atoms: C_39  and  C_40
                            x       y       z     vdW  Elec       q    Type
                         _______ _______ _______ _____ _____    ______ ____

>  <TORSDO>
F 6

$$$$
=
 OpenBabel11032420433D

 45 49  0  0  1  0  0  0  0  0999 V2000
  185.7300  178.0430  143.1370 O   0  0  0  0  0  0  0  0  0  0  0  0
  186.5110  178.5540  136.2280 O   0  0  0  0  0  1  0  0  0  0  0  0
  183.9100  178.7810  137.6280 C   0  0  0  0  0  2  0  0  0  0  0  0
  189.8610  176.4740  142.3950 C   0  0  0  0  0  0  0  0  0  0  0  0
  185.2490  177.0300  137.5350 N   0  0  1  0  0  0  0  0  0  0  0  0
  183.6550  178.6180  140.6190 C   0  0  0  0  0  0  0  0  0  0  0  0
  187.6820  177.0490  137.6820 C   0  0  0  0  0  3  0  0  0  0  0  0
  186.4870  178.1940  142.1410 C   0  0  0  0  0  0  0  0  0  0  0  0
  188.6430  177.9690  137.8430 C   0  0  0  0  0  3  0  0  0  0  0  0
  186.1420  178.7590  140.8250 C   0  0  0  0  0  0  0  0  0  0  0  0
  186.4910  177.2630  136.7760 C   0  0  2  0  0  3  0  0  0  0  0  0
  187.1950  178.7680  140.0720 N   0  0  0  0  0  0  0  0  0  0  0  0
  187.8680  177.8650  142.1490 N   0  0  0  0  0  0  0  0  0  0  0  0
  190.7750  175.6290  143.2100 C   0  0  0  0  0  1  0  0  0  0  0  0
  184.8570  178.8950  140.2040 N   0  0  0  0  0  0  0  0  0  0  0  0
  190.2230  176.8150  141.1470 C   0  0  0  0  0  3  0  0  0  0  0  0
  188.5030  176.8240  142.9550 C   0  0  0  0  0  2  0  0  0  0  0  0
  182.6170  178.6580  138.3830 C   0  0  0  0  0  0  0  0  0  0  0  0
  184.1910  177.6150  136.8990 O   0  0  0  0  0  0  0  0  0  0  0  0
  189.3550  177.6250  140.2690 C   0  0  0  0  0  0  0  0  0  0  0  0
  183.4010  178.1930  141.9590 N   0  0  0  0  0  1  0  0  0  0  0  0
  182.5600  178.6120  139.6890 N   0  0  0  0  0  0  0  0  0  0  0  0
  188.2540  178.1710  140.8140 C   0  0  0  0  0  0  0  0  0  0  0  0
  189.7730  177.7900  138.8220 C   0  0  0  0  0  2  0  0  0  0  0  0
  186.3220  174.7770  137.7230 C   0  0  0  0  0  2  0  0  0  0  0  0
  184.1050  175.1330  136.4550 C   0  0  0  0  0  0  0  0  0  0  0  0
  185.8140  173.3680  135.7880 C   0  0  1  0  0  3  0  0  0  0  0  0
  185.0080  175.5780  137.5890 C   0  0  2  0  0  3  0  0  0  0  0  0
  184.4140  173.9390  135.5830 C   0  0  0  0  0  2  0  0  0  0  0  0
  186.1620  173.3410  137.2650 C   0  0  0  0  0  2  0  0  0  0  0  0
  182.8710  175.6270  136.3970 C   0  0  0  0  0  2  0  0  0  0  0  0
  185.8960  171.6910  135.0890 S   0  0  0  0  0  0  0  0  0  0  0  0
  187.5930  171.3970  135.6860 C   0  0  0  0  0  2  0  0  0  0  0  0
  189.3580  172.9590  135.3430 O   0  0  0  0  0  1  0  0  0  0  0  0
  188.5900  171.9820  134.7070 C   0  0  0  0  0  2  0  0  0  0  0  0
  181.3440  178.6200  137.6020 C   0  0  0  0  0  2  0  0  0  0  0  0
  178.9310  181.8850  134.9330 F   0  0  0  0  0  0  0  0  0  0  0  0
  181.1510  182.1190  135.2040 F   0  0  0  0  0  0  0  0  0  0  0  0
  179.7300  182.5870  137.0640 C   0  0  1  0  0  3  0  0  0  0  0  0
  180.0810  180.2340  136.1910 C   0  0  0  0  0  2  0  0  0  0  0  0
  179.6100  183.9200  136.7200 F   0  0  0  0  0  0  0  0  0  0  0  0
  181.5710  181.0890  138.0380 C   0  0  0  0  0  2  0  0  0  0  0  0
  179.9760  181.7230  135.8220 C   0  0  0  0  0  0  0  0  0  0  0  0
  180.6310  179.9670  137.6000 C   0  0  2  0  0  3  0  0  0  0  0  0
  180.8260  182.4250  138.1290 C   0  0  0  0  0  2  0  0  0  0  0  0
  3 18  1  0  0  0  0
  4 17  1  0  0  0  0
  4 14  1  0  0  0  0
  5 19  1  6  0  0  0
  5 28  1  0  0  0  0
  6 21  1  0  0  0  0
  7  9  2  0  0  0  0
  8 13  1  0  0  0  0
  8  1  2  0  0  0  0
  9 24  1  0  0  0  0
 10  8  1  0  0  0  0
 11  2  1  1  0  0  0
 11  5  1  0  0  0  0
 11  7  1  0  0  0  0
 12 23  1  0  0  0  0
 12 10  2  0  0  0  0
 13 17  1  0  0  0  0
 15  6  2  0  0  0  0
 15 10  1  0  0  0  0
 16  4  2  0  0  0  0
 18 22  2  0  0  0  0
 19  3  1  0  0  0  0
 20 23  2  0  0  0  0
 20 16  1  0  0  0  0
 22  6  1  0  0  0  0
 23 13  1  0  0  0  0
 24 20  1  0  0  0  0
 26 28  1  0  0  0  0
 27 32  1  1  0  0  0
 27 30  1  0  0  0  0
 28 25  1  6  0  0  0
 29 27  1  0  0  0  0
 29 26  1  0  0  0  0
 30 25  1  0  0  0  0
 31 26  2  0  0  0  0
 32 33  1  0  0  0  0
 35 34  1  0  0  0  0
 35 33  1  0  0  0  0
 36 18  1  0  0  0  0
 37 43  1  0  0  0  0
 38 43  1  0  0  0  0
 39 41  1  6  0  0  0
 39 45  1  0  0  0  0
 40 44  1  0  0  0  0
 42 45  1  0  0  0  0
 43 40  1  0  0  0  0
 43 39  1  0  0  0  0
 44 36  1  6  0  0  0
 44 42  1  0  0  0  0
M  END
>  <MODEL>
8

>  <REMARK>
 VINA RESULT:      -5.7      1.913      2.905
  Name = 
  6 active torsions:
  status: ('A' for Active; 'I' for Inactive)
    1  A    between atoms: C_1  and  C_34
    2  A    between atoms: C_1  and  C_36
    3  A    between atoms: N_8  and  C_16
    4  A    between atoms: C_14  and  S_23
    5  A    between atoms: S_23  and  C_39
    6  A    between atoms: C_39  and  C_40
                            x       y       z     vdW  Elec       q    Type
                         _______ _______ _______ _____ _____    ______ ____

>  <TORSDO>
F 6

$$$$
=
 OpenBabel11032420433D

 45 49  0  0  1  0  0  0  0  0999 V2000
  186.6180  171.7280  134.9560 O   0  0  0  0  0  0  0  0  0  0  0  0
  187.8040  178.5720  135.5540 O   0  0  0  0  0  1  0  0  0  0  0  0
  189.9260  176.5480  135.1320 C   0  0  0  0  0  2  0  0  0  0  0  0
  182.7730  173.3550  136.5820 C   0  0  0  0  0  0  0  0  0  0  0  0
  188.5710  176.7480  136.8610 N   0  0  1  0  0  0  0  0  0  0  0  0
  189.3370  173.6170  134.8150 C   0  0  0  0  0  0  0  0  0  0  0  0
  186.1970  177.2950  136.7940 C   0  0  0  0  0  3  0  0  0  0  0  0
  186.1750  172.9070  134.9590 C   0  0  0  0  0  0  0  0  0  0  0  0
  185.2800  177.5520  135.8500 C   0  0  0  0  0  3  0  0  0  0  0  0
  186.9000  174.1430  134.6170 C   0  0  0  0  0  0  0  0  0  0  0  0
  187.6010  177.8510  136.7410 C   0  0  2  0  0  3  0  0  0  0  0  0
  186.0990  175.1540  134.7180 N   0  0  0  0  0  0  0  0  0  0  0  0
  184.8290  173.2380  135.2690 N   0  0  0  0  0  0  0  0  0  0  0  0
  181.6250  172.7130  137.2740 C   0  0  0  0  0  1  0  0  0  0  0  0
  188.3130  174.3900  134.5950 N   0  0  0  0  0  0  0  0  0  0  0  0
  182.7890  174.6910  136.4410 C   0  0  0  0  0  3  0  0  0  0  0  0
  183.9410  172.4960  136.1600 C   0  0  0  0  0  2  0  0  0  0  0  0
  190.9510  175.4500  135.1450 C   0  0  0  0  0  0  0  0  0  0  0  0
  189.7930  177.1410  136.3970 O   0  0  0  0  0  0  0  0  0  0  0  0
  183.9090  175.4020  135.7920 C   0  0  0  0  0  0  0  0  0  0  0  0
  189.1860  172.2120  135.0220 N   0  0  0  0  0  1  0  0  0  0  0  0
  190.6440  174.1900  134.9820 N   0  0  0  0  0  0  0  0  0  0  0  0
  184.8450  174.6590  135.1770 C   0  0  0  0  0  0  0  0  0  0  0  0
  183.9160  176.9160  135.8570 C   0  0  0  0  0  2  0  0  0  0  0  0
  188.3050  177.5850  139.2040 C   0  0  0  0  0  2  0  0  0  0  0  0
  190.0710  175.8140  138.5790 C   0  0  0  0  0  0  0  0  0  0  0  0
  190.4190  177.5220  140.4330 C   0  0  1  0  0  3  0  0  0  0  0  0
  188.7070  176.4090  138.2880 C   0  0  2  0  0  3  0  0  0  0  0  0
  190.9320  176.2670  139.7340 C   0  0  0  0  0  2  0  0  0  0  0  0
  188.9110  177.4610  140.5880 C   0  0  0  0  0  2  0  0  0  0  0  0
  190.4060  174.6750  137.9800 C   0  0  0  0  0  2  0  0  0  0  0  0
  191.2150  177.6810  142.0620 S   0  0  0  0  0  0  0  0  0  0  0  0
  189.8440  176.8670  142.9440 C   0  0  0  0  0  2  0  0  0  0  0  0
  188.3910  177.2100  144.8000 O   0  0  0  0  0  1  0  0  0  0  0  0
  189.6660  177.4970  144.3100 C   0  0  0  0  0  2  0  0  0  0  0  0
  192.3860  175.8260  135.3220 C   0  0  0  0  0  2  0  0  0  0  0  0
  195.5610  174.8010  138.8560 F   0  0  0  0  0  0  0  0  0  0  0  0
  196.3250  175.1890  136.7760 F   0  0  0  0  0  0  0  0  0  0  0  0
  195.1890  173.1320  137.1970 C   0  0  1  0  0  3  0  0  0  0  0  0
  193.9830  175.3600  137.1730 C   0  0  0  0  0  2  0  0  0  0  0  0
  196.3610  172.4780  137.5290 F   0  0  0  0  0  0  0  0  0  0  0  0
  194.1140  174.0160  135.0430 C   0  0  0  0  0  2  0  0  0  0  0  0
  195.2930  174.6290  137.5110 C   0  0  0  0  0  0  0  0  0  0  0  0
  193.1850  174.7320  136.0220 C   0  0  2  0  0  3  0  0  0  0  0  0
  194.8410  172.8540  135.7270 C   0  0  0  0  0  2  0  0  0  0  0  0
  1  8  2  0  0  0  0
  3 18  1  0  0  0  0
  3 19  1  0  0  0  0
  4 14  1  0  0  0  0
  5 19  1  1  0  0  0
  5 28  1  0  0  0  0
  6 22  1  0  0  0  0
  6 21  1  0  0  0  0
  8 13  1  0  0  0  0
  9 24  1  0  0  0  0
  9  7  2  0  0  0  0
 10 12  2  0  0  0  0
 10  8  1  0  0  0  0
 11  2  1  6  0  0  0
 11  7  1  0  0  0  0
 11  5  1  0  0  0  0
 12 23  1  0  0  0  0
 13 17  1  0  0  0  0
 15 10  1  0  0  0  0
 15  6  2  0  0  0  0
 16  4  2  0  0  0  0
 17  4  1  0  0  0  0
 18 36  1  0  0  0  0
 20 24  1  0  0  0  0
 20 16  1  0  0  0  0
 22 18  2  0  0  0  0
 23 13  1  0  0  0  0
 23 20  2  0  0  0  0
 25 30  1  0  0  0  0
 26 29  1  0  0  0  0
 27 30  1  0  0  0  0
 27 32  1  1  0  0  0
 28 26  1  0  0  0  0
 28 25  1  1  0  0  0
 29 27  1  0  0  0  0
 31 26  2  0  0  0  0
 32 33  1  0  0  0  0
 33 35  1  0  0  0  0
 35 34  1  0  0  0  0
 38 43  1  0  0  0  0
 39 43  1  0  0  0  0
 39 41  1  6  0  0  0
 40 43  1  0  0  0  0
 42 45  1  0  0  0  0
 42 44  1  0  0  0  0
 43 37  1  0  0  0  0
 44 36  1  6  0  0  0
 44 40  1  0  0  0  0
 45 39  1  0  0  0  0
M  END
>  <MODEL>
9

>  <REMARK>
 VINA RESULT:      -5.3      6.483     10.883
  Name = 
  6 active torsions:
  status: ('A' for Active; 'I' for Inactive)
    1  A    between atoms: C_1  and  C_34
    2  A    between atoms: C_1  and  C_36
    3  A    between atoms: N_8  and  C_16
    4  A    between atoms: C_14  and  S_23
    5  A    between atoms: S_23  and  C_39
    6  A    between atoms: C_39  and  C_40
                            x       y       z     vdW  Elec       q    Type
                         _______ _______ _______ _____ _____    ______ ____

>  <TORSDO>
F 6

$$$$
