=
 OpenBabel11042410433D

 38 41  0  0  1  0  0  0  0  0999 V2000
  186.1520  178.0070  138.6130 C   0  0  0  0  0  0  0  0  0  0  0  0
  181.7430  177.7320  137.3690 C   0  0  0  0  0  0  0  0  0  0  0  0
  185.4790  177.4070  137.4930 N   0  0  0  0  0  0  0  0  0  0  0  0
  182.6910  178.7750  139.3670 C   0  0  0  0  0  3  0  0  0  0  0  0
  185.2200  178.5960  139.5490 N   0  0  0  0  0  0  0  0  0  0  0  0
  189.8680  175.8450  138.6360 S   0  0  0  0  0  0  0  0  0  0  0  0
  188.2660  177.7900  137.4120 C   0  0  0  0  0  0  0  0  0  0  0  0
  189.8200  176.9840  135.9900 C   0  0  0  0  0  0  0  0  0  0  0  0
  183.9540  178.3590  138.9350 C   0  0  0  0  0  0  0  0  0  0  0  0
  188.9260  177.1530  141.2750 C   0  0  0  0  0  2  0  0  0  0  0  0
  190.4270  177.1570  140.9830 C   0  0  0  0  0  2  0  0  0  0  0  0
  188.2860  178.5180  141.0560 C   0  0  0  0  0  2  0  0  0  0  0  0
  188.0530  178.4600  136.0910 C   0  0  0  0  0  3  0  0  0  0  0  0
  189.1140  177.8210  135.2480 C   0  0  0  0  0  3  0  0  0  0  0  0
  184.1120  177.6710  137.7600 C   0  0  0  0  0  0  0  0  0  0  0  0
  191.1430  175.9970  135.3840 Cl  0  0  0  0  0  0  0  0  0  0  0  0
  183.0280  177.3440  136.9460 C   0  0  0  0  0  3  0  0  0  0  0  0
  189.2900  176.9440  137.3370 C   0  0  2  0  0  3  0  0  0  0  0  0
  188.2090  178.8670  139.6410 N   0  0  0  0  0  2  0  0  0  0  0  0
  190.7330  177.1930  139.4920 C   0  0  0  0  0  2  0  0  0  0  0  0
  187.5010  178.1280  138.6310 C   0  0  1  0  0  3  0  0  0  0  0  0
  181.5830  178.4480  138.5750 C   0  0  0  0  0  3  0  0  0  0  0  0
  185.0580  178.1730  141.9390 C   0  0  0  0  0  2  0  0  0  0  0  0
  185.4700  178.9410  140.9190 C   0  0  0  0  0  2  0  0  0  0  0  0
  184.3660  178.9330  141.9550 C   0  0  0  0  0  2  0  0  0  0  0  0
  184.9560  179.2860  143.3820 C   0  0  0  0  0  2  0  0  0  0  0  0
  184.3930  178.3690  144.4510 C   0  0  0  0  0  2  0  0  0  0  0  0
  184.4870  179.0090  145.7550 N   0  0  0  0  0  2  0  0  0  0  0  0
  186.6600  177.9200  146.2760 N   0  0  0  0  0  2  0  0  0  0  0  0
  185.6590  178.9100  146.5640 C   0  0  0  0  0  0  0  0  0  0  0  0
  185.7850  179.6750  147.5570 O   0  0  0  0  0  0  0  0  0  0  0  0
  187.8740  177.7580  147.0700 C   0  0  0  0  0  2  0  0  0  0  0  0
  188.9800  177.1080  146.2470 C   0  0  2  0  0  3  0  0  0  0  0  0
  190.3760  176.7760  147.3090 Cl  0  0  0  0  0  0  0  0  0  0  0  0
  189.4040  178.0260  145.1060 C   0  0  0  0  0  2  0  0  0  0  0  0
  190.8240  177.7040  144.6830 C   0  0  0  0  0  1  0  0  0  0  0  0
  180.5860  177.4170  136.5880 N   0  0  0  0  0  2  0  0  0  0  0  0
  180.2330  176.0580  136.2060 C   0  0  0  0  0  1  0  0  0  0  0  0
  1  5  1  0  0  0  0
  2 22  1  0  0  0  0
  3 15  1  0  0  0  0
  3  1  2  0  0  0  0
  5 24  1  0  0  0  0
  6 20  1  0  0  0  0
  7 21  1  0  0  0  0
  9  4  1  0  0  0  0
  9  5  1  0  0  0  0
 11 10  1  0  0  0  0
 12 10  1  0  0  0  0
 13  7  2  0  0  0  0
 14  8  2  0  0  0  0
 14 13  1  0  0  0  0
 15  9  2  0  0  0  0
 16  8  1  0  0  0  0
 17  2  2  0  0  0  0
 17 15  1  0  0  0  0
 18  8  1  6  0  0  0
 18  7  1  0  0  0  0
 18  6  1  0  0  0  0
 19 12  1  0  0  0  0
 20 11  1  0  0  0  0
 21  1  1  6  0  0  0
 21 19  1  0  0  0  0
 22  4  2  0  0  0  0
 23 25  1  0  0  0  0
 24 23  1  0  0  0  0
 25 26  1  0  0  0  0
 26 27  1  0  0  0  0
 27 28  1  0  0  0  0
 28 30  1  0  0  0  0
 29 30  1  0  0  0  0
 29 32  1  0  0  0  0
 30 31  2  0  0  0  0
 33 32  1  0  0  0  0
 33 34  1  1  0  0  0
 35 33  1  0  0  0  0
 36 35  1  0  0  0  0
 37  2  1  0  0  0  0
 38 37  1  0  0  0  0
M  END
>  <MODEL>
1

>  <REMARK>
 VINA RESULT:      -8.3      0.000      0.000
  Name = 
  9 active torsions:
  status: ('A' for Active; 'I' for Inactive)
    1  A    between atoms: C_2  and  N_17
    2  A    between atoms: C_6  and  C_15
    3  A    between atoms: C_7  and  N_8
    4  A    between atoms: C_7  and  C_23
    5  A    between atoms: C_15  and  C_25
    6  A    between atoms: N_19  and  C_38
    7  A    between atoms: C_23  and  C_29
    8  A    between atoms: C_25  and  N_28
    9  A    between atoms: C_29  and  C_38
                            x       y       z     vdW  Elec       q    Type
                         _______ _______ _______ _____ _____    ______ ____

>  <TORSDO>
F 9

$$$$
=
 OpenBabel11042410433D

 38 41  0  0  1  0  0  0  0  0999 V2000
  186.9470  178.2260  141.9190 C   0  0  0  0  0  0  0  0  0  0  0  0
  190.5540  176.8770  144.4150 C   0  0  0  0  0  0  0  0  0  0  0  0
  187.0830  177.6990  143.2500 N   0  0  0  0  0  0  0  0  0  0  0  0
  190.5290  177.7150  142.1180 C   0  0  0  0  0  3  0  0  0  0  0  0
  188.2170  178.2880  141.2310 N   0  0  0  0  0  0  0  0  0  0  0  0
  182.8210  177.3590  141.0730 S   0  0  0  0  0  0  0  0  0  0  0  0
  184.6750  178.9280  142.4690 C   0  0  0  0  0  0  0  0  0  0  0  0
  182.6500  178.9590  143.4630 C   0  0  0  0  0  0  0  0  0  0  0  0
  189.1370  177.8090  142.2100 C   0  0  0  0  0  0  0  0  0  0  0  0
  184.7530  177.7260  138.6860 C   0  0  0  0  0  2  0  0  0  0  0  0
  183.3270  178.2520  138.5260 C   0  0  0  0  0  2  0  0  0  0  0  0
  185.7640  178.8420  138.9170 C   0  0  0  0  0  2  0  0  0  0  0  0
  184.7960  179.7630  143.7050 C   0  0  0  0  0  2  0  0  0  0  0  0
  183.4130  179.6750  144.2730 C   0  0  0  0  0  3  0  0  0  0  0  0
  188.4780  177.4670  143.3620 C   0  0  0  0  0  0  0  0  0  0  0  0
  180.9620  178.5780  143.7710 Cl  0  0  0  0  0  0  0  0  0  0  0  0
  189.1540  177.0020  144.4880 C   0  0  0  0  0  3  0  0  0  0  0  0
  183.4300  178.4750  142.3430 C   0  0  0  0  0  0  0  0  0  0  0  0
  185.6270  179.4400  140.2410 N   0  0  0  0  0  2  0  0  0  0  0  0
  182.7140  178.6950  139.8480 C   0  0  0  0  0  2  0  0  0  0  0  0
  185.7720  178.7500  141.4950 C   0  0  1  0  0  3  0  0  0  0  0  0
  191.2330  177.2380  143.2310 C   0  0  0  0  0  3  0  0  0  0  0  0
  188.7310  177.3350  139.0530 C   0  0  2  0  0  3  0  0  0  0  0  0
  188.4320  178.3970  139.8160 C   0  0  0  0  0  2  0  0  0  0  0  0
  189.6480  177.7890  139.1480 C   0  0  0  0  0  1  0  0  0  0  0  0
  189.2170  176.5500  138.2590 C   0  0  0  0  0  2  0  0  0  0  0  0
  190.4290  175.8100  137.7250 C   0  0  0  0  0  2  0  0  0  0  0  0
  191.6240  176.6200  137.9060 N   0  0  0  0  0  2  0  0  0  0  0  0
  193.1450  174.7130  137.4290 N   0  0  0  0  0  2  0  0  0  0  0  0
  192.9280  176.1210  137.6100 C   0  0  0  0  0  0  0  0  0  0  0  0
  193.8940  176.9280  137.5470 O   0  0  0  0  0  0  0  0  0  0  0  0
  194.4530  174.1370  137.1360 C   0  0  0  0  0  2  0  0  0  0  0  0
  195.0010  173.3850  138.3430 C   0  0  2  0  0  3  0  0  0  0  0  0
  195.8010  174.5470  139.4370 Cl  0  0  0  0  0  0  0  0  0  0  0  0
  195.9970  172.3190  137.9000 C   0  0  0  0  0  2  0  0  0  0  0  0
  195.3410  170.9520  137.9310 C   0  0  0  0  0  1  0  0  0  0  0  0
  191.3080  176.3940  145.5300 N   0  0  0  0  0  2  0  0  0  0  0  0
  190.9590  176.6860  146.9120 C   0  0  0  0  0  1  0  0  0  0  0  0
  1  3  2  0  0  0  0
  2 17  1  0  0  0  0
  2 37  1  0  0  0  0
  3 15  1  0  0  0  0
  4  9  2  0  0  0  0
  4 22  1  0  0  0  0
  5  1  1  0  0  0  0
  5  9  1  0  0  0  0
  6 18  1  0  0  0  0
  7 13  1  0  0  0  0
  8 16  1  0  0  0  0
  8 14  2  0  0  0  0
  9 15  1  0  0  0  0
 10 12  1  0  0  0  0
 11 10  1  0  0  0  0
 11 20  1  0  0  0  0
 12 19  1  0  0  0  0
 13 14  1  0  0  0  0
 15 17  2  0  0  0  0
 18  7  2  0  0  0  0
 18  8  1  0  0  0  0
 19 21  1  0  0  0  0
 20  6  1  0  0  0  0
 21  1  1  1  0  0  0
 21  7  1  0  0  0  0
 22  2  2  0  0  0  0
 23 25  1  1  0  0  0
 23 24  1  0  0  0  0
 24  5  1  0  0  0  0
 26 23  1  0  0  0  0
 27 28  1  0  0  0  0
 27 26  1  0  0  0  0
 29 30  1  0  0  0  0
 30 28  1  0  0  0  0
 31 30  2  0  0  0  0
 32 29  1  0  0  0  0
 32 33  1  0  0  0  0
 33 34  1  1  0  0  0
 35 36  1  0  0  0  0
 35 33  1  0  0  0  0
 37 38  1  0  0  0  0
M  END
>  <MODEL>
2

>  <REMARK>
 VINA RESULT:      -8.2      4.323      9.144
  Name = 
  9 active torsions:
  status: ('A' for Active; 'I' for Inactive)
    1  A    between atoms: C_2  and  N_17
    2  A    between atoms: C_6  and  C_15
    3  A    between atoms: C_7  and  N_8
    4  A    between atoms: C_7  and  C_23
    5  A    between atoms: C_15  and  C_25
    6  A    between atoms: N_19  and  C_38
    7  A    between atoms: C_23  and  C_29
    8  A    between atoms: C_25  and  N_28
    9  A    between atoms: C_29  and  C_38
                            x       y       z     vdW  Elec       q    Type
                         _______ _______ _______ _____ _____    ______ ____

>  <TORSDO>
F 9

$$$$
=
 OpenBabel11042410433D

 38 41  0  0  1  0  0  0  0  0999 V2000
  184.1120  177.9670  138.6460 C   0  0  0  0  0  0  0  0  0  0  0  0
  188.6080  177.9390  137.7300 C   0  0  0  0  0  0  0  0  0  0  0  0
  184.8730  177.7260  137.4500 N   0  0  0  0  0  0  0  0  0  0  0  0
  187.4980  178.4240  139.8540 C   0  0  0  0  0  3  0  0  0  0  0  0
  184.9600  178.3180  139.7640 N   0  0  0  0  0  0  0  0  0  0  0  0
  180.2680  179.0040  137.0210 S   0  0  0  0  0  0  0  0  0  0  0  0
  182.1550  177.0020  137.5520 C   0  0  0  0  0  0  0  0  0  0  0  0
  180.7350  176.3860  135.9110 C   0  0  0  0  0  0  0  0  0  0  0  0
  186.2710  178.2470  139.2070 C   0  0  0  0  0  0  0  0  0  0  0  0
  180.9680  180.0050  139.8630 C   0  0  0  0  0  2  0  0  0  0  0  0
  179.5200  179.5900  139.5970 C   0  0  0  0  0  2  0  0  0  0  0  0
  181.7320  178.9690  140.6770 C   0  0  0  0  0  2  0  0  0  0  0  0
  182.5820  175.6500  137.0750 C   0  0  0  0  0  2  0  0  0  0  0  0
  181.5900  175.3800  135.9860 C   0  0  0  0  0  3  0  0  0  0  0  0
  186.2110  177.9140  137.8780 C   0  0  0  0  0  0  0  0  0  0  0  0
  179.4280  176.4900  134.7400 Cl  0  0  0  0  0  0  0  0  0  0  0  0
  187.3600  177.7450  137.1080 C   0  0  0  0  0  3  0  0  0  0  0  0
  181.0870  177.4110  136.8720 C   0  0  0  0  0  0  0  0  0  0  0  0
  182.0130  177.7630  139.9040 N   0  0  0  0  0  2  0  0  0  0  0  0
  179.4080  178.5010  138.5390 C   0  0  0  0  0  2  0  0  0  0  0  0
  182.7840  177.7010  138.6920 C   0  0  1  0  0  3  0  0  0  0  0  0
  188.6690  178.2730  139.1000 C   0  0  0  0  0  3  0  0  0  0  0  0
  185.3650  179.0250  142.0550 C   0  0  0  0  0  2  0  0  0  0  0  0
  184.5660  178.9710  140.9790 C   0  0  0  0  0  2  0  0  0  0  0  0
  184.6980  178.2920  142.3260 C   0  0  0  0  0  2  0  0  0  0  0  0
  184.1860  179.2570  143.4740 C   0  0  0  0  0  2  0  0  0  0  0  0
  183.6340  178.4680  144.6470 C   0  0  0  0  0  2  0  0  0  0  0  0
  184.0630  179.0750  145.8980 N   0  0  0  0  0  2  0  0  0  0  0  0
  186.2600  177.9140  145.8570 N   0  0  0  0  0  2  0  0  0  0  0  0
  185.3920  178.9230  146.3960 C   0  0  0  0  0  0  0  0  0  0  0  0
  185.7810  179.6610  147.3410 O   0  0  0  0  0  0  0  0  0  0  0  0
  187.6250  177.6980  146.3290 C   0  0  0  0  0  2  0  0  0  0  0  0
  188.4880  177.0830  145.2350 C   0  0  2  0  0  3  0  0  0  0  0  0
  189.7700  178.2410  144.7850 Cl  0  0  0  0  0  0  0  0  0  0  0  0
  187.6410  176.7470  144.0130 C   0  0  0  0  0  2  0  0  0  0  0  0
  188.5260  176.6220  142.7880 C   0  0  0  0  0  1  0  0  0  0  0  0
  189.8270  177.7950  136.9940 N   0  0  0  0  0  2  0  0  0  0  0  0
  190.5190  176.5240  136.8460 C   0  0  0  0  0  1  0  0  0  0  0  0
  1  5  1  0  0  0  0
  2 22  1  0  0  0  0
  3 15  1  0  0  0  0
  3  1  2  0  0  0  0
  5 24  1  0  0  0  0
  6 20  1  0  0  0  0
  7 21  1  0  0  0  0
  8 14  2  0  0  0  0
  8 18  1  0  0  0  0
  9  5  1  0  0  0  0
  9  4  1  0  0  0  0
 10 12  1  0  0  0  0
 11 10  1  0  0  0  0
 13  7  1  0  0  0  0
 14 13  1  0  0  0  0
 15  9  2  0  0  0  0
 16  8  1  0  0  0  0
 17  2  2  0  0  0  0
 17 15  1  0  0  0  0
 18  6  1  0  0  0  0
 18  7  2  0  0  0  0
 19 12  1  0  0  0  0
 20 11  1  0  0  0  0
 21  1  1  1  0  0  0
 21 19  1  0  0  0  0
 22  4  2  0  0  0  0
 23 25  1  0  0  0  0
 24 23  1  0  0  0  0
 25 26  1  0  0  0  0
 26 27  1  0  0  0  0
 27 28  1  0  0  0  0
 28 30  1  0  0  0  0
 29 32  1  0  0  0  0
 29 30  1  0  0  0  0
 30 31  2  0  0  0  0
 33 34  1  6  0  0  0
 33 32  1  0  0  0  0
 35 33  1  0  0  0  0
 36 35  1  0  0  0  0
 37  2  1  0  0  0  0
 38 37  1  0  0  0  0
M  END
>  <MODEL>
3

>  <REMARK>
 VINA RESULT:      -8.2      2.916      5.956
  Name = 
  9 active torsions:
  status: ('A' for Active; 'I' for Inactive)
    1  A    between atoms: C_2  and  N_17
    2  A    between atoms: C_6  and  C_15
    3  A    between atoms: C_7  and  N_8
    4  A    between atoms: C_7  and  C_23
    5  A    between atoms: C_15  and  C_25
    6  A    between atoms: N_19  and  C_38
    7  A    between atoms: C_23  and  C_29
    8  A    between atoms: C_25  and  N_28
    9  A    between atoms: C_29  and  C_38
                            x       y       z     vdW  Elec       q    Type
                         _______ _______ _______ _____ _____    ______ ____

>  <TORSDO>
F 9

$$$$
=
 OpenBabel11042410433D

 38 41  0  0  1  0  0  0  0  0999 V2000
  183.6830  178.2730  140.1600 C   0  0  0  0  0  0  0  0  0  0  0  0
  188.2320  178.3730  139.5610 C   0  0  0  0  0  0  0  0  0  0  0  0
  184.5300  178.1150  139.0080 N   0  0  0  0  0  0  0  0  0  0  0  0
  186.9680  178.7150  141.6260 C   0  0  0  0  0  3  0  0  0  0  0  0
  184.4440  178.5720  141.3520 N   0  0  0  0  0  0  0  0  0  0  0  0
  179.9400  179.3380  138.3310 S   0  0  0  0  0  0  0  0  0  0  0  0
  181.8270  177.3410  138.8780 C   0  0  0  0  0  0  0  0  0  0  0  0
  180.5370  176.7980  137.1090 C   0  0  0  0  0  0  0  0  0  0  0  0
  185.7930  178.5550  140.8850 C   0  0  0  0  0  0  0  0  0  0  0  0
  180.4210  180.1830  141.2670 C   0  0  0  0  0  2  0  0  0  0  0  0
  179.0040  179.7600  140.8780 C   0  0  0  0  0  2  0  0  0  0  0  0
  181.1490  179.1140  142.0720 C   0  0  0  0  0  2  0  0  0  0  0  0
  182.3140  176.0250  138.3560 C   0  0  0  0  0  2  0  0  0  0  0  0
  181.4050  175.8030  137.1860 C   0  0  0  0  0  3  0  0  0  0  0  0
  185.8310  178.2990  139.5390 C   0  0  0  0  0  0  0  0  0  0  0  0
  179.3120  176.9480  135.8570 Cl  0  0  0  0  0  0  0  0  0  0  0  0
  187.0340  178.1950  138.8430 C   0  0  0  0  0  3  0  0  0  0  0  0
  180.8000  177.7700  138.1490 C   0  0  0  0  0  0  0  0  0  0  0  0
  181.5070  177.9600  141.2540 N   0  0  0  0  0  2  0  0  0  0  0  0
  178.9880  178.7330  139.7540 C   0  0  0  0  0  2  0  0  0  0  0  0
  182.3610  177.9820  140.0970 C   0  0  1  0  0  3  0  0  0  0  0  0
  188.1910  178.6280  140.9480 C   0  0  0  0  0  3  0  0  0  0  0  0
  184.6630  179.1230  143.7110 C   0  0  2  0  0  3  0  0  0  0  0  0
  183.9550  179.1470  142.5720 C   0  0  0  0  0  2  0  0  0  0  0  0
  183.9740  178.3790  143.8770 C   0  0  0  0  0  1  0  0  0  0  0  0
  185.1240  178.9320  144.8160 C   0  0  0  0  0  2  0  0  0  0  0  0
  186.1770  177.8710  145.0770 C   0  0  0  0  0  2  0  0  0  0  0  0
  186.6610  177.9770  146.4450 N   0  0  0  0  0  2  0  0  0  0  0  0
  188.9490  177.2240  145.8320 N   0  0  0  0  0  2  0  0  0  0  0  0
  188.0400  177.8120  146.7760 C   0  0  0  0  0  0  0  0  0  0  0  0
  188.4410  178.1550  147.9200 O   0  0  0  0  0  0  0  0  0  0  0  0
  190.3670  177.0170  146.1100 C   0  0  0  0  0  2  0  0  0  0  0  0
  191.2160  177.3630  144.8940 C   0  0  2  0  0  3  0  0  0  0  0  0
  190.4020  178.6510  143.9630 Cl  0  0  0  0  0  0  0  0  0  0  0  0
  191.4140  176.1340  144.0150 C   0  0  0  0  0  2  0  0  0  0  0  0
  190.4150  176.1470  142.8740 C   0  0  0  0  0  1  0  0  0  0  0  0
  189.5010  178.2920  138.9050 N   0  0  0  0  0  2  0  0  0  0  0  0
  190.3740  177.1320  139.0040 C   0  0  0  0  0  1  0  0  0  0  0  0
  1  5  1  0  0  0  0
  2 22  1  0  0  0  0
  3 15  1  0  0  0  0
  3  1  2  0  0  0  0
  5 24  1  0  0  0  0
  6 20  1  0  0  0  0
  7 21  1  0  0  0  0
  8 14  2  0  0  0  0
  8 18  1  0  0  0  0
  9  5  1  0  0  0  0
  9  4  1  0  0  0  0
 10 12  1  0  0  0  0
 11 10  1  0  0  0  0
 13  7  1  0  0  0  0
 14 13  1  0  0  0  0
 15  9  2  0  0  0  0
 16  8  1  0  0  0  0
 17 15  1  0  0  0  0
 17  2  2  0  0  0  0
 18  6  1  0  0  0  0
 18  7  2  0  0  0  0
 19 12  1  0  0  0  0
 20 11  1  0  0  0  0
 21  1  1  1  0  0  0
 21 19  1  0  0  0  0
 22  4  2  0  0  0  0
 23 25  1  6  0  0  0
 23 26  1  0  0  0  0
 24 23  1  0  0  0  0
 26 27  1  0  0  0  0
 27 28  1  0  0  0  0
 28 30  1  0  0  0  0
 29 32  1  0  0  0  0
 29 30  1  0  0  0  0
 30 31  2  0  0  0  0
 33 34  1  6  0  0  0
 33 32  1  0  0  0  0
 35 33  1  0  0  0  0
 36 35  1  0  0  0  0
 37 38  1  0  0  0  0
 37  2  1  0  0  0  0
M  END
>  <MODEL>
4

>  <REMARK>
 VINA RESULT:      -8.0      3.180      6.316
  Name = 
  9 active torsions:
  status: ('A' for Active; 'I' for Inactive)
    1  A    between atoms: C_2  and  N_17
    2  A    between atoms: C_6  and  C_15
    3  A    between atoms: C_7  and  N_8
    4  A    between atoms: C_7  and  C_23
    5  A    between atoms: C_15  and  C_25
    6  A    between atoms: N_19  and  C_38
    7  A    between atoms: C_23  and  C_29
    8  A    between atoms: C_25  and  N_28
    9  A    between atoms: C_29  and  C_38
                            x       y       z     vdW  Elec       q    Type
                         _______ _______ _______ _____ _____    ______ ____

>  <TORSDO>
F 9

$$$$
=
 OpenBabel11042410433D

 38 41  0  0  1  0  0  0  0  0999 V2000
  186.8200  178.2030  141.6410 C   0  0  0  0  0  0  0  0  0  0  0  0
  190.5810  176.6680  143.7780 C   0  0  0  0  0  0  0  0  0  0  0  0
  187.0490  177.6130  142.9320 N   0  0  0  0  0  0  0  0  0  0  0  0
  190.3940  177.6100  141.5290 C   0  0  0  0  0  3  0  0  0  0  0  0
  188.0330  178.2700  140.8560 N   0  0  0  0  0  0  0  0  0  0  0  0
  182.6210  177.4600  141.0930 S   0  0  0  0  0  0  0  0  0  0  0  0
  184.6170  178.9260  142.4020 C   0  0  0  0  0  0  0  0  0  0  0  0
  182.6790  178.9530  143.5560 C   0  0  0  0  0  0  0  0  0  0  0  0
  189.0160  177.7280  141.7360 C   0  0  0  0  0  0  0  0  0  0  0  0
  184.3650  177.8960  138.5760 C   0  0  0  0  0  2  0  0  0  0  0  0
  182.9440  178.4580  138.5550 C   0  0  0  0  0  2  0  0  0  0  0  0
  185.4180  178.9790  138.7740 C   0  0  0  0  0  2  0  0  0  0  0  0
  184.8560  179.7010  143.6600 C   0  0  0  0  0  2  0  0  0  0  0  0
  183.5200  179.6150  144.3330 C   0  0  0  0  0  3  0  0  0  0  0  0
  188.4420  177.3480  142.9220 C   0  0  0  0  0  0  0  0  0  0  0  0
  181.0120  178.5940  143.9830 Cl  0  0  0  0  0  0  0  0  0  0  0  0
  189.1940  176.8180  143.9690 C   0  0  0  0  0  3  0  0  0  0  0  0
  183.3560  178.5040  142.3570 C   0  0  0  0  0  0  0  0  0  0  0  0
  185.4020  179.5190  140.1300 N   0  0  0  0  0  2  0  0  0  0  0  0
  182.4490  178.8530  139.9400 C   0  0  0  0  0  2  0  0  0  0  0  0
  185.6280  178.7700  141.3360 C   0  0  1  0  0  3  0  0  0  0  0  0
  191.1720  177.0680  142.5600 C   0  0  0  0  0  3  0  0  0  0  0  0
  188.3190  177.4030  138.6020 C   0  0  0  0  0  2  0  0  0  0  0  0
  188.1380  178.4390  139.4350 C   0  0  0  0  0  2  0  0  0  0  0  0
  189.2630  177.8080  138.6410 C   0  0  0  0  0  2  0  0  0  0  0  0
  189.2650  178.3720  137.1600 C   0  0  0  0  0  2  0  0  0  0  0  0
  188.8530  177.3030  136.1660 C   0  0  0  0  0  2  0  0  0  0  0  0
  187.6330  177.7060  135.4810 N   0  0  0  0  0  2  0  0  0  0  0  0
  186.5480  175.4990  135.8430 N   0  0  0  0  0  2  0  0  0  0  0  0
  186.4670  176.8820  135.4650 C   0  0  0  0  0  0  0  0  0  0  0  0
  185.3740  177.3750  135.0780 O   0  0  0  0  0  0  0  0  0  0  0  0
  185.3970  174.6010  135.8380 C   0  0  0  0  0  2  0  0  0  0  0  0
  184.7920  174.4840  137.2310 C   0  0  2  0  0  3  0  0  0  0  0  0
  185.1660  172.8680  137.8940 Cl  0  0  0  0  0  0  0  0  0  0  0  0
  183.2820  174.6830  137.1750 C   0  0  0  0  0  2  0  0  0  0  0  0
  182.8480  174.9500  135.7470 C   0  0  0  0  0  1  0  0  0  0  0  0
  191.4090  176.1190  144.8060 N   0  0  0  0  0  2  0  0  0  0  0  0
  191.3940  176.6000  146.1790 C   0  0  0  0  0  1  0  0  0  0  0  0
  1  3  2  0  0  0  0
  2 17  1  0  0  0  0
  2 37  1  0  0  0  0
  4  9  2  0  0  0  0
  4 22  1  0  0  0  0
  5  1  1  0  0  0  0
  5  9  1  0  0  0  0
  6 18  1  0  0  0  0
  7 13  1  0  0  0  0
  8 16  1  0  0  0  0
  8 14  2  0  0  0  0
  9 15  1  0  0  0  0
 10 12  1  0  0  0  0
 11 10  1  0  0  0  0
 11 20  1  0  0  0  0
 12 19  1  0  0  0  0
 13 14  1  0  0  0  0
 15  3  1  0  0  0  0
 15 17  2  0  0  0  0
 18  7  2  0  0  0  0
 18  8  1  0  0  0  0
 19 21  1  0  0  0  0
 20  6  1  0  0  0  0
 21  1  1  1  0  0  0
 21  7  1  0  0  0  0
 22  2  2  0  0  0  0
 23 25  1  0  0  0  0
 23 24  1  0  0  0  0
 24  5  1  0  0  0  0
 26 25  1  0  0  0  0
 27 26  1  0  0  0  0
 28 27  1  0  0  0  0
 30 28  1  0  0  0  0
 30 29  1  0  0  0  0
 31 30  2  0  0  0  0
 32 29  1  0  0  0  0
 32 33  1  0  0  0  0
 33 34  1  6  0  0  0
 35 33  1  0  0  0  0
 36 35  1  0  0  0  0
 37 38  1  0  0  0  0
M  END
>  <MODEL>
5

>  <REMARK>
 VINA RESULT:      -8.0      3.719      9.098
  Name = 
  9 active torsions:
  status: ('A' for Active; 'I' for Inactive)
    1  A    between atoms: C_2  and  N_17
    2  A    between atoms: C_6  and  C_15
    3  A    between atoms: C_7  and  N_8
    4  A    between atoms: C_7  and  C_23
    5  A    between atoms: C_15  and  C_25
    6  A    between atoms: N_19  and  C_38
    7  A    between atoms: C_23  and  C_29
    8  A    between atoms: C_25  and  N_28
    9  A    between atoms: C_29  and  C_38
                            x       y       z     vdW  Elec       q    Type
                         _______ _______ _______ _____ _____    ______ ____

>  <TORSDO>
F 9

$$$$
=
 OpenBabel11042410433D

 38 41  0  0  1  0  0  0  0  0999 V2000
  185.0080  178.4680  140.2400 C   0  0  0  0  0  0  0  0  0  0  0  0
  184.6820  178.6610  144.8130 C   0  0  0  0  0  0  0  0  0  0  0  0
  183.8960  178.4530  141.1500 N   0  0  0  0  0  0  0  0  0  0  0  0
  186.7040  178.6540  143.4370 C   0  0  0  0  0  3  0  0  0  0  0  0
  186.2750  178.5030  140.9360 N   0  0  0  0  0  0  0  0  0  0  0  0
  183.2670  176.6970  136.7300 S   0  0  0  0  0  0  0  0  0  0  0  0
  183.4580  178.9290  138.4110 C   0  0  0  0  0  0  0  0  0  0  0  0
  181.5490  178.9600  137.2110 C   0  0  0  0  0  0  0  0  0  0  0  0
  185.8860  178.5430  142.3090 C   0  0  0  0  0  0  0  0  0  0  0  0
  186.3370  176.5480  137.0680 C   0  0  0  0  0  2  0  0  0  0  0  0
  185.7920  176.7450  135.6530 C   0  0  0  0  0  2  0  0  0  0  0  0
  186.9250  177.8270  137.6510 C   0  0  0  0  0  2  0  0  0  0  0  0
  182.6870  180.1410  138.8290 C   0  0  0  0  0  2  0  0  0  0  0  0
  181.4510  180.0230  137.9910 C   0  0  0  0  0  3  0  0  0  0  0  0
  184.5210  178.5070  142.4220 C   0  0  0  0  0  0  0  0  0  0  0  0
  180.2990  178.4330  136.0920 Cl  0  0  0  0  0  0  0  0  0  0  0  0
  183.8820  178.5700  143.6590 C   0  0  0  0  0  3  0  0  0  0  0  0
  182.7890  178.2610  137.4750 C   0  0  0  0  0  0  0  0  0  0  0  0
  185.8930  178.8070  137.9740 N   0  0  0  0  0  2  0  0  0  0  0  0
  184.4710  177.5020  135.6350 C   0  0  0  0  0  2  0  0  0  0  0  0
  184.8150  178.6160  138.9070 C   0  0  1  0  0  3  0  0  0  0  0  0
  186.0880  178.7060  144.6950 C   0  0  0  0  0  3  0  0  0  0  0  0
  188.5380  177.6460  141.1740 C   0  0  2  0  0  3  0  0  0  0  0  0
  187.5640  178.1600  140.4080 C   0  0  0  0  0  2  0  0  0  0  0  0
  188.8440  178.6220  141.0730 C   0  0  0  0  0  1  0  0  0  0  0  0
  189.7970  177.3830  141.3380 C   0  0  0  0  0  2  0  0  0  0  0  0
  190.9480  177.7620  142.2510 C   0  0  0  0  0  2  0  0  0  0  0  0
  191.6420  176.5640  142.6980 N   0  0  0  0  0  2  0  0  0  0  0  0
  191.3010  177.1080  145.1000 N   0  0  0  0  0  2  0  0  0  0  0  0
  191.6720  176.1750  144.0720 C   0  0  0  0  0  0  0  0  0  0  0  0
  192.0660  175.0170  144.3730 O   0  0  0  0  0  0  0  0  0  0  0  0
  191.3210  176.7790  146.5220 C   0  0  0  0  0  2  0  0  0  0  0  0
  189.9140  176.8010  147.1060 C   0  0  2  0  0  3  0  0  0  0  0  0
  188.7450  177.1150  145.7930 Cl  0  0  0  0  0  0  0  0  0  0  0  0
  189.7970  177.8830  148.1730 C   0  0  0  0  0  2  0  0  0  0  0  0
  188.3370  178.1840  148.4470 C   0  0  0  0  0  1  0  0  0  0  0  0
  184.0920  178.7150  146.1150 N   0  0  0  0  0  2  0  0  0  0  0  0
  184.8000  178.3270  147.3250 C   0  0  0  0  0  1  0  0  0  0  0  0
  1  5  1  0  0  0  0
  1  3  2  0  0  0  0
  2 37  1  0  0  0  0
  3 15  1  0  0  0  0
  4 22  2  0  0  0  0
  5  9  1  0  0  0  0
  6 18  1  0  0  0  0
  7 13  1  0  0  0  0
  7 21  1  0  0  0  0
  8 18  1  0  0  0  0
  8 14  2  0  0  0  0
  9 15  2  0  0  0  0
  9  4  1  0  0  0  0
 10 12  1  0  0  0  0
 11 10  1  0  0  0  0
 12 19  1  0  0  0  0
 14 13  1  0  0  0  0
 15 17  1  0  0  0  0
 16  8  1  0  0  0  0
 17  2  2  0  0  0  0
 18  7  2  0  0  0  0
 19 21  1  0  0  0  0
 20 11  1  0  0  0  0
 20  6  1  0  0  0  0
 21  1  1  1  0  0  0
 22  2  1  0  0  0  0
 23 25  1  1  0  0  0
 23 26  1  0  0  0  0
 24  5  1  0  0  0  0
 24 23  1  0  0  0  0
 26 27  1  0  0  0  0
 27 28  1  0  0  0  0
 28 30  1  0  0  0  0
 29 32  1  0  0  0  0
 30 31  2  0  0  0  0
 30 29  1  0  0  0  0
 32 33  1  0  0  0  0
 33 34  1  6  0  0  0
 33 35  1  0  0  0  0
 35 36  1  0  0  0  0
 37 38  1  0  0  0  0
M  END
>  <MODEL>
6

>  <REMARK>
 VINA RESULT:      -8.0      3.132      6.247
  Name = 
  9 active torsions:
  status: ('A' for Active; 'I' for Inactive)
    1  A    between atoms: C_2  and  N_17
    2  A    between atoms: C_6  and  C_15
    3  A    between atoms: C_7  and  N_8
    4  A    between atoms: C_7  and  C_23
    5  A    between atoms: C_15  and  C_25
    6  A    between atoms: N_19  and  C_38
    7  A    between atoms: C_23  and  C_29
    8  A    between atoms: C_25  and  N_28
    9  A    between atoms: C_29  and  C_38
                            x       y       z     vdW  Elec       q    Type
                         _______ _______ _______ _____ _____    ______ ____

>  <TORSDO>
F 9

$$$$
=
 OpenBabel11042410433D

 38 41  0  0  1  0  0  0  0  0999 V2000
  186.1240  178.2520  142.0720 C   0  0  0  0  0  0  0  0  0  0  0  0
  188.9590  177.1900  145.5200 C   0  0  0  0  0  0  0  0  0  0  0  0
  185.9170  177.7070  143.3860 N   0  0  0  0  0  0  0  0  0  0  0  0
  189.5240  178.0790  143.3130 C   0  0  0  0  0  3  0  0  0  0  0  0
  187.5270  178.4530  141.7860 N   0  0  0  0  0  0  0  0  0  0  0  0
  182.5310  177.0190  140.0580 S   0  0  0  0  0  0  0  0  0  0  0  0
  183.7320  178.7220  141.9290 C   0  0  0  0  0  0  0  0  0  0  0  0
  181.5130  178.5350  142.2870 C   0  0  0  0  0  0  0  0  0  0  0  0
  188.1640  178.0380  142.9930 C   0  0  0  0  0  0  0  0  0  0  0  0
  185.0290  177.6280  138.3400 C   0  0  0  0  0  2  0  0  0  0  0  0
  183.6670  178.0200  137.7670 C   0  0  0  0  0  2  0  0  0  0  0  0
  185.8140  178.8290  138.8530 C   0  0  0  0  0  2  0  0  0  0  0  0
  183.4050  179.5330  143.1440 C   0  0  0  0  0  2  0  0  0  0  0  0
  181.9320  179.3000  143.2810 C   0  0  0  0  0  3  0  0  0  0  0  0
  187.2330  177.6060  143.9030 C   0  0  0  0  0  0  0  0  0  0  0  0
  179.8540  177.9880  142.0880 Cl  0  0  0  0  0  0  0  0  0  0  0  0
  187.5930  177.1800  145.1800 C   0  0  0  0  0  3  0  0  0  0  0  0
  182.6300  178.1550  141.4460 C   0  0  0  0  0  0  0  0  0  0  0  0
  185.2390  179.3780  140.0770 N   0  0  0  0  0  2  0  0  0  0  0  0
  182.6550  178.3700  138.8500 C   0  0  0  0  0  2  0  0  0  0  0  0
  185.0780  178.6730  141.3200 C   0  0  1  0  0  3  0  0  0  0  0  0
  189.9160  177.6430  144.5860 C   0  0  0  0  0  3  0  0  0  0  0  0
  188.4960  177.5720  139.7360 C   0  0  0  0  0  2  0  0  0  0  0  0
  188.1340  178.6170  140.4960 C   0  0  0  0  0  2  0  0  0  0  0  0
  189.4000  177.8790  140.1140 C   0  0  0  0  0  2  0  0  0  0  0  0
  189.6180  177.9490  138.5460 C   0  0  0  0  0  2  0  0  0  0  0  0
  190.2150  176.6580  138.0170 C   0  0  0  0  0  2  0  0  0  0  0  0
  189.8810  176.4970  136.6100 N   0  0  0  0  0  2  0  0  0  0  0  0
  187.7830  175.2640  137.1150 N   0  0  0  0  0  2  0  0  0  0  0  0
  188.6280  175.9600  136.1860 C   0  0  0  0  0  0  0  0  0  0  0  0
  188.2920  176.0710  134.9760 O   0  0  0  0  0  0  0  0  0  0  0  0
  186.4970  174.6820  136.7440 C   0  0  0  0  0  2  0  0  0  0  0  0
  186.3950  173.2380  137.2190 C   0  0  2  0  0  3  0  0  0  0  0  0
  186.5320  172.1520  135.8080 Cl  0  0  0  0  0  0  0  0  0  0  0  0
  185.0660  173.0020  137.9270 C   0  0  0  0  0  2  0  0  0  0  0  0
  184.0950  174.1170  137.5920 C   0  0  0  0  0  1  0  0  0  0  0  0
  189.3990  176.7520  146.8090 N   0  0  0  0  0  2  0  0  0  0  0  0
  189.3910  177.6110  147.9840 C   0  0  0  0  0  1  0  0  0  0  0  0
  1  3  2  0  0  0  0
  2 37  1  0  0  0  0
  3 15  1  0  0  0  0
  4 22  1  0  0  0  0
  5  1  1  0  0  0  0
  5  9  1  0  0  0  0
  6 18  1  0  0  0  0
  7 13  1  0  0  0  0
  8 14  2  0  0  0  0
  9  4  2  0  0  0  0
  9 15  1  0  0  0  0
 10 12  1  0  0  0  0
 11 10  1  0  0  0  0
 11 20  1  0  0  0  0
 12 19  1  0  0  0  0
 13 14  1  0  0  0  0
 15 17  2  0  0  0  0
 16  8  1  0  0  0  0
 17  2  1  0  0  0  0
 18  7  2  0  0  0  0
 18  8  1  0  0  0  0
 19 21  1  0  0  0  0
 20  6  1  0  0  0  0
 21  7  1  0  0  0  0
 21  1  1  1  0  0  0
 22  2  2  0  0  0  0
 23 25  1  0  0  0  0
 23 24  1  0  0  0  0
 24  5  1  0  0  0  0
 26 25  1  0  0  0  0
 27 26  1  0  0  0  0
 28 27  1  0  0  0  0
 30 28  1  0  0  0  0
 30 29  1  0  0  0  0
 31 30  2  0  0  0  0
 32 29  1  0  0  0  0
 32 33  1  0  0  0  0
 33 34  1  6  0  0  0
 33 35  1  0  0  0  0
 36 35  1  0  0  0  0
 37 38  1  0  0  0  0
M  END
>  <MODEL>
7

>  <REMARK>
 VINA RESULT:      -8.0      3.948      8.932
  Name = 
  9 active torsions:
  status: ('A' for Active; 'I' for Inactive)
    1  A    between atoms: C_2  and  N_17
    2  A    between atoms: C_6  and  C_15
    3  A    between atoms: C_7  and  N_8
    4  A    between atoms: C_7  and  C_23
    5  A    between atoms: C_15  and  C_25
    6  A    between atoms: N_19  and  C_38
    7  A    between atoms: C_23  and  C_29
    8  A    between atoms: C_25  and  N_28
    9  A    between atoms: C_29  and  C_38
                            x       y       z     vdW  Elec       q    Type
                         _______ _______ _______ _____ _____    ______ ____

>  <TORSDO>
F 9

$$$$
=
 OpenBabel11042410433D

 38 41  0  0  1  0  0  0  0  0999 V2000
  186.7190  178.1930  141.6180 C   0  0  0  0  0  0  0  0  0  0  0  0
  190.4740  176.6000  143.7210 C   0  0  0  0  0  0  0  0  0  0  0  0
  186.9480  177.5900  142.9030 N   0  0  0  0  0  0  0  0  0  0  0  0
  190.2850  177.5610  141.4810 C   0  0  0  0  0  3  0  0  0  0  0  0
  187.9280  178.2530  140.8270 N   0  0  0  0  0  0  0  0  0  0  0  0
  182.5080  177.5010  141.0880 S   0  0  0  0  0  0  0  0  0  0  0  0
  184.5280  178.9340  142.3980 C   0  0  0  0  0  0  0  0  0  0  0  0
  182.5970  178.9730  143.5630 C   0  0  0  0  0  0  0  0  0  0  0  0
  188.9100  177.6930  141.6970 C   0  0  0  0  0  0  0  0  0  0  0  0
  184.2430  177.9370  138.5650 C   0  0  0  0  0  2  0  0  0  0  0  0
  182.8280  178.5150  138.5570 C   0  0  0  0  0  2  0  0  0  0  0  0
  185.3090  179.0070  138.7650 C   0  0  0  0  0  2  0  0  0  0  0  0
  184.7830  179.6960  143.6600 C   0  0  0  0  0  2  0  0  0  0  0  0
  183.4500  179.6200  144.3400 C   0  0  0  0  0  3  0  0  0  0  0  0
  188.3380  177.3100  142.8830 C   0  0  0  0  0  0  0  0  0  0  0  0
  180.9280  178.6290  143.9960 Cl  0  0  0  0  0  0  0  0  0  0  0  0
  189.0900  176.7640  143.9210 C   0  0  0  0  0  3  0  0  0  0  0  0
  183.2620  178.5260  142.3570 C   0  0  0  0  0  0  0  0  0  0  0  0
  185.3060  179.5360  140.1250 N   0  0  0  0  0  2  0  0  0  0  0  0
  182.3460  178.9040  139.9470 C   0  0  0  0  0  2  0  0  0  0  0  0
  185.5310  178.7750  141.3250 C   0  0  1  0  0  3  0  0  0  0  0  0
  191.0630  177.0030  142.5030 C   0  0  0  0  0  3  0  0  0  0  0  0
  188.2890  177.4140  138.5730 C   0  0  0  0  0  2  0  0  0  0  0  0
  188.0260  178.4310  139.4070 C   0  0  0  0  0  2  0  0  0  0  0  0
  189.1990  177.8890  138.6170 C   0  0  0  0  0  2  0  0  0  0  0  0
  189.0560  178.2850  137.0900 C   0  0  0  0  0  2  0  0  0  0  0  0
  188.8060  177.0620  136.2270 C   0  0  0  0  0  2  0  0  0  0  0  0
  189.9180  176.8660  135.3090 N   0  0  0  0  0  2  0  0  0  0  0  0
  191.1210  175.3650  136.8830 N   0  0  0  0  0  2  0  0  0  0  0  0
  190.9570  175.9230  135.5690 C   0  0  0  0  0  0  0  0  0  0  0  0
  191.7530  175.6150  134.6420 O   0  0  0  0  0  0  0  0  0  0  0  0
  192.1680  174.4050  137.2190 C   0  0  0  0  0  2  0  0  0  0  0  0
  193.3640  175.1040  137.8520 C   0  0  2  0  0  3  0  0  0  0  0  0
  192.8540  176.7110  138.4400 Cl  0  0  0  0  0  0  0  0  0  0  0  0
  194.4910  175.2580  136.8370 C   0  0  0  0  0  2  0  0  0  0  0  0
  195.3420  174.0030  136.8140 C   0  0  0  0  0  1  0  0  0  0  0  0
  191.3020  176.0330  144.7410 N   0  0  0  0  0  2  0  0  0  0  0  0
  191.6800  176.7530  145.9470 C   0  0  0  0  0  1  0  0  0  0  0  0
  1  3  2  0  0  0  0
  2 17  1  0  0  0  0
  2 37  1  0  0  0  0
  4  9  2  0  0  0  0
  4 22  1  0  0  0  0
  5  1  1  0  0  0  0
  5  9  1  0  0  0  0
  6 18  1  0  0  0  0
  7 13  1  0  0  0  0
  8 16  1  0  0  0  0
  8 14  2  0  0  0  0
  9 15  1  0  0  0  0
 10 12  1  0  0  0  0
 11 10  1  0  0  0  0
 11 20  1  0  0  0  0
 12 19  1  0  0  0  0
 13 14  1  0  0  0  0
 15  3  1  0  0  0  0
 15 17  2  0  0  0  0
 18  7  2  0  0  0  0
 18  8  1  0  0  0  0
 19 21  1  0  0  0  0
 20  6  1  0  0  0  0
 21  1  1  1  0  0  0
 21  7  1  0  0  0  0
 22  2  2  0  0  0  0
 23 25  1  0  0  0  0
 23 24  1  0  0  0  0
 24  5  1  0  0  0  0
 26 25  1  0  0  0  0
 27 26  1  0  0  0  0
 28 30  1  0  0  0  0
 28 27  1  0  0  0  0
 29 32  1  0  0  0  0
 30 29  1  0  0  0  0
 31 30  2  0  0  0  0
 32 33  1  0  0  0  0
 33 34  1  6  0  0  0
 35 33  1  0  0  0  0
 36 35  1  0  0  0  0
 37 38  1  0  0  0  0
M  END
>  <MODEL>
8

>  <REMARK>
 VINA RESULT:      -7.9      4.052      9.061
  Name = 
  9 active torsions:
  status: ('A' for Active; 'I' for Inactive)
    1  A    between atoms: C_2  and  N_17
    2  A    between atoms: C_6  and  C_15
    3  A    between atoms: C_7  and  N_8
    4  A    between atoms: C_7  and  C_23
    5  A    between atoms: C_15  and  C_25
    6  A    between atoms: N_19  and  C_38
    7  A    between atoms: C_23  and  C_29
    8  A    between atoms: C_25  and  N_28
    9  A    between atoms: C_29  and  C_38
                            x       y       z     vdW  Elec       q    Type
                         _______ _______ _______ _____ _____    ______ ____

>  <TORSDO>
F 9

$$$$
=
 OpenBabel11042410433D

 38 41  0  0  1  0  0  0  0  0999 V2000
  188.6630  177.7150  140.5480 C   0  0  0  0  0  0  0  0  0  0  0  0
  191.4800  176.0330  137.3390 C   0  0  0  0  0  0  0  0  0  0  0  0
  189.8390  176.8890  140.6030 N   0  0  0  0  0  0  0  0  0  0  0  0
  189.4770  177.4020  137.0300 C   0  0  0  0  0  3  0  0  0  0  0  0
  188.2850  178.0250  139.1870 N   0  0  0  0  0  0  0  0  0  0  0  0
  186.8100  176.8170  144.3230 S   0  0  0  0  0  0  0  0  0  0  0  0
  188.8770  178.1150  142.9470 C   0  0  0  0  0  0  0  0  0  0  0  0
  189.4120  177.7720  145.1110 C   0  0  0  0  0  0  0  0  0  0  0  0
  189.2990  177.3810  138.4170 C   0  0  0  0  0  0  0  0  0  0  0  0
  185.0200  177.8780  142.0350 C   0  0  0  0  0  2  0  0  0  0  0  0
  184.6920  178.3350  143.4570 C   0  0  0  0  0  2  0  0  0  0  0  0
  185.7010  178.9660  141.2150 C   0  0  0  0  0  2  0  0  0  0  0  0
  190.2670  178.6290  143.1500 C   0  0  0  0  0  3  0  0  0  0  0  0
  190.5020  178.3170  144.5960 C   0  0  0  0  0  3  0  0  0  0  0  0
  190.1820  176.7270  139.2360 C   0  0  0  0  0  0  0  0  0  0  0  0
  189.2710  177.2200  146.7740 Cl  0  0  0  0  0  0  0  0  0  0  0  0
  191.2890  176.0460  138.7330 C   0  0  0  0  0  3  0  0  0  0  0  0
  188.3980  177.6260  144.0880 C   0  0  2  0  0  3  0  0  0  0  0  0
  187.0680  179.2140  141.6610 N   0  0  0  0  0  2  0  0  0  0  0  0
  185.9240  178.4020  144.3490 C   0  0  0  0  0  2  0  0  0  0  0  0
  188.1350  178.2500  141.6750 C   0  0  1  0  0  3  0  0  0  0  0  0
  190.5750  176.7140  136.4960 C   0  0  0  0  0  3  0  0  0  0  0  0
  186.1490  177.6910  138.0730 C   0  0  1  0  0  3  0  0  0  0  0  0
  187.0070  178.4880  138.7270 C   0  0  0  0  0  2  0  0  0  0  0  0
  186.5400  178.2510  137.3060 C   0  0  0  0  0  1  0  0  0  0  0  0
  185.7150  176.9010  137.2230 C   0  0  0  0  0  2  0  0  0  0  0  0
  184.3760  177.1180  136.5420 C   0  0  0  0  0  2  0  0  0  0  0  0
  183.4760  176.0180  136.8550 N   0  0  0  0  0  2  0  0  0  0  0  0
  182.6570  177.1090  138.9330 N   0  0  0  0  0  2  0  0  0  0  0  0
  182.5360  176.0900  137.9270 C   0  0  0  0  0  0  0  0  0  0  0  0
  181.6230  175.2250  138.0010 O   0  0  0  0  0  0  0  0  0  0  0  0
  181.7380  177.2310  140.0600 C   0  0  0  0  0  2  0  0  0  0  0  0
  181.3690  178.6890  140.3060 C   0  0  2  0  0  3  0  0  0  0  0  0
  182.5300  179.7350  139.4430 Cl  0  0  0  0  0  0  0  0  0  0  0  0
  181.4000  179.0020  141.7980 C   0  0  0  0  0  2  0  0  0  0  0  0
  180.2710  178.2750  142.5030 C   0  0  0  0  0  1  0  0  0  0  0  0
  192.5880  175.3420  136.7550 N   0  0  0  0  0  2  0  0  0  0  0  0
  193.7690  176.0220  136.2460 C   0  0  0  0  0  1  0  0  0  0  0  0
  1  3  2  0  0  0  0
  2 17  1  0  0  0  0
  4  9  2  0  0  0  0
  5  1  1  0  0  0  0
  6 20  1  0  0  0  0
  7 13  2  0  0  0  0
  8 16  1  0  0  0  0
  9  5  1  0  0  0  0
  9 15  1  0  0  0  0
 10 11  1  0  0  0  0
 11 20  1  0  0  0  0
 12 19  1  0  0  0  0
 12 10  1  0  0  0  0
 13 14  1  0  0  0  0
 14  8  2  0  0  0  0
 15  3  1  0  0  0  0
 17 15  2  0  0  0  0
 18  7  1  6  0  0  0
 18  6  1  0  0  0  0
 18  8  1  0  0  0  0
 19 21  1  0  0  0  0
 21  1  1  6  0  0  0
 21  7  1  0  0  0  0
 22  4  1  0  0  0  0
 22  2  2  0  0  0  0
 23 25  1  6  0  0  0
 23 24  1  0  0  0  0
 24  5  1  0  0  0  0
 26 23  1  0  0  0  0
 27 28  1  0  0  0  0
 27 26  1  0  0  0  0
 28 30  1  0  0  0  0
 29 32  1  0  0  0  0
 30 31  2  0  0  0  0
 30 29  1  0  0  0  0
 32 33  1  0  0  0  0
 33 34  1  6  0  0  0
 33 35  1  0  0  0  0
 35 36  1  0  0  0  0
 37  2  1  0  0  0  0
 38 37  1  0  0  0  0
M  END
>  <MODEL>
9

>  <REMARK>
 VINA RESULT:      -7.4      3.363      7.980
  Name = 
  9 active torsions:
  status: ('A' for Active; 'I' for Inactive)
    1  A    between atoms: C_2  and  N_17
    2  A    between atoms: C_6  and  C_15
    3  A    between atoms: C_7  and  N_8
    4  A    between atoms: C_7  and  C_23
    5  A    between atoms: C_15  and  C_25
    6  A    between atoms: N_19  and  C_38
    7  A    between atoms: C_23  and  C_29
    8  A    between atoms: C_25  and  N_28
    9  A    between atoms: C_29  and  C_38
                            x       y       z     vdW  Elec       q    Type
                         _______ _______ _______ _____ _____    ______ ____

>  <TORSDO>
F 9

$$$$
