=
 OpenBabel11042412313D

 31 31  0  0  1  0  0  0  0  0999 V2000
  188.7790  177.4890  145.5580 C   0  0  0  0  0  0  0  0  0  0  0  0
  190.0090  177.6780  145.0300 C   0  0  0  0  0  0  0  0  0  0  0  0
  188.5880  176.5940  146.6070 O   0  0  0  0  0  1  0  0  0  0  0  0
  191.2070  176.8960  145.5850 C   0  0  2  0  0  0  0  0  0  0  0  0
  192.3510  177.6890  145.4890 O   0  0  0  0  0  1  0  0  0  0  0  0
  191.4920  175.6050  144.8310 C   0  0  0  0  0  1  0  0  0  0  0  0
  192.0570  176.9780  147.8460 O   0  0  0  0  0  1  0  0  0  0  0  0
  190.9850  176.5480  147.0580 C   0  0  0  0  0  2  0  0  0  0  0  0
  191.1170  179.8010  144.1580 C   0  0  0  0  0  1  0  0  0  0  0  0
  190.1480  178.6590  143.8820 C   0  0  1  0  0  3  0  0  0  0  0  0
  191.5650  177.8780  141.9280 C   0  0  0  0  0  3  0  0  0  0  0  0
  190.6580  176.0690  138.7960 N   0  0  0  0  0  1  0  0  0  0  0  0
  192.9380  177.1240  140.0970 O   0  0  0  0  0  1  0  0  0  0  0  0
  190.3080  178.0070  142.5390 C   0  0  0  0  0  0  0  0  0  0  0  0
  191.6860  177.2400  140.6900 C   0  0  0  0  0  0  0  0  0  0  0  0
  189.1780  177.4810  141.9040 C   0  0  0  0  0  3  0  0  0  0  0  0
  189.2970  176.8430  140.6660 C   0  0  0  0  0  3  0  0  0  0  0  0
  190.5480  176.7220  140.0570 C   0  0  0  0  0  0  0  0  0  0  0  0
  187.5770  178.2350  145.0580 C   0  0  0  0  0  2  0  0  0  0  0  0
  186.3120  177.4030  145.2170 C   0  0  0  0  0  2  0  0  0  0  0  0
  185.1420  177.9970  144.4410 C   0  0  1  0  0  3  0  0  0  0  0  0
  184.2950  178.8160  145.3520 C   0  0  0  0  0  0  0  0  0  0  0  0
  184.5690  178.8710  146.7140 O   0  0  0  0  0  1  0  0  0  0  0  0
  183.3240  179.4650  144.8840 O   0  0  0  0  0  0  0  0  0  0  0  0
  185.6350  178.8560  143.2830 C   0  0  0  0  0  2  0  0  0  0  0  0
  185.4210  178.1960  142.0410 O   0  0  0  0  0  0  0  0  0  0  0  0
  184.4300  178.5890  141.1370 C   0  0  0  0  0  0  0  0  0  0  0  0
  183.2450  178.7180  141.5460 O   0  0  0  0  0  0  0  0  0  0  0  0
  184.3870  180.1550  139.3580 O   0  0  0  0  0  1  0  0  0  0  0  0
  184.7490  178.8510  139.6970 C   0  0  1  0  0  3  0  0  0  0  0  0
  186.1700  178.6620  139.4590 N   0  0  0  0  0  1  0  0  0  0  0  0
  1  3  1  0  0  0  0
  2  1  2  0  0  0  0
  2  4  1  0  0  0  0
  4  6  1  6  0  0  0
  4  8  1  0  0  0  0
  5  4  1  0  0  0  0
  8  7  1  0  0  0  0
 10  9  1  1  0  0  0
 10  2  1  0  0  0  0
 11 14  1  0  0  0  0
 12 18  1  0  0  0  0
 13 15  1  0  0  0  0
 14 10  1  0  0  0  0
 15 11  2  0  0  0  0
 16 14  2  0  0  0  0
 17 16  1  0  0  0  0
 18 17  2  0  0  0  0
 18 15  1  0  0  0  0
 19 20  1  0  0  0  0
 19  1  1  0  0  0  0
 21 25  1  6  0  0  0
 21 20  1  0  0  0  0
 21 22  1  0  0  0  0
 22 23  1  0  0  0  0
 24 22  2  0  0  0  0
 26 25  1  0  0  0  0
 27 28  2  0  0  0  0
 27 26  1  0  0  0  0
 30 29  1  1  0  0  0
 30 27  1  0  0  0  0
 31 30  1  0  0  0  0
M  END
>  <MODEL>
1

>  <REMARK>
 VINA RESULT:      -7.0      0.000      0.000
  Name = 
  12 active torsions:
  status: ('A' for Active; 'I' for Inactive)
    1  A    between atoms: O_1  and  C_2
    2  A    between atoms: O_1  and  C_26
    3  A    between atoms: C_2  and  C_19
    4  A    between atoms: C_3  and  C_23
    5  A    between atoms: C_5  and  C_9
    6  A    between atoms: C_5  and  C_18
    7  A    between atoms: C_6  and  C_31
    8  A    between atoms: C_9  and  C_16
    9  A    between atoms: C_13  and  C_18
   10  A    between atoms: C_20  and  C_23
   11  A    between atoms: C_20  and  C_31
   12  A    between atoms: C_26  and  C_31
                            x       y       z     vdW  Elec       q    Type
                         _______ _______ _______ _____ _____    ______ ____

>  <TORSDO>
F 12

$$$$
=
 OpenBabel11042412313D

 31 31  0  0  1  0  0  0  0  0999 V2000
  188.8040  177.5930  145.2500 C   0  0  0  0  0  0  0  0  0  0  0  0
  189.6650  177.1720  144.2960 C   0  0  0  0  0  0  0  0  0  0  0  0
  189.2600  178.3270  146.3410 O   0  0  0  0  0  1  0  0  0  0  0  0
  191.1590  177.4990  144.4180 C   0  0  2  0  0  0  0  0  0  0  0  0
  191.5410  177.3830  145.7550 O   0  0  0  0  0  1  0  0  0  0  0  0
  191.5100  178.9110  143.9720 C   0  0  0  0  0  1  0  0  0  0  0  0
  192.0910  175.2780  144.2290 O   0  0  0  0  0  1  0  0  0  0  0  0
  191.9930  176.5180  143.5920 C   0  0  0  0  0  2  0  0  0  0  0  0
  187.8140  175.6310  143.4630 C   0  0  0  0  0  1  0  0  0  0  0  0
  189.1070  176.3670  143.1380 C   0  0  1  0  0  3  0  0  0  0  0  0
  190.0110  176.7960  140.8060 C   0  0  0  0  0  3  0  0  0  0  0  0
  188.9360  179.1790  138.1480 N   0  0  0  0  0  1  0  0  0  0  0  0
  190.8730  177.1650  138.5870 O   0  0  0  0  0  1  0  0  0  0  0  0
  189.1010  177.1040  141.8300 C   0  0  0  0  0  0  0  0  0  0  0  0
  189.9620  177.4800  139.5880 C   0  0  0  0  0  0  0  0  0  0  0  0
  188.1360  178.0950  141.6170 C   0  0  0  0  0  3  0  0  0  0  0  0
  188.0860  178.7800  140.4000 C   0  0  0  0  0  3  0  0  0  0  0  0
  188.9970  178.4760  139.3850 C   0  0  0  0  0  0  0  0  0  0  0  0
  187.3330  177.3080  145.1740 C   0  0  0  0  0  2  0  0  0  0  0  0
  186.5350  178.5950  145.0130 C   0  0  0  0  0  2  0  0  0  0  0  0
  185.1870  178.3450  144.3470 C   0  0  1  0  0  3  0  0  0  0  0  0
  184.0870  178.7510  145.2660 C   0  0  0  0  0  0  0  0  0  0  0  0
  182.8060  178.9850  144.7770 O   0  0  0  0  0  0  0  0  0  0  0  0
  184.3190  178.8820  146.4960 O   0  0  0  0  0  1  0  0  0  0  0  0
  185.0740  179.1130  143.0360 C   0  0  0  0  0  2  0  0  0  0  0  0
  184.7900  178.2290  141.9590 O   0  0  0  0  0  0  0  0  0  0  0  0
  183.9030  178.5540  140.9270 C   0  0  0  0  0  0  0  0  0  0  0  0
  182.6840  178.7200  141.1990 O   0  0  0  0  0  0  0  0  0  0  0  0
  183.5200  178.0080  138.6530 O   0  0  0  0  0  1  0  0  0  0  0  0
  184.3740  178.6990  139.5130 C   0  0  1  0  0  3  0  0  0  0  0  0
  184.4090  180.1030  139.1410 N   0  0  0  0  0  1  0  0  0  0  0  0
  1  3  1  0  0  0  0
  2  4  1  0  0  0  0
  2  1  2  0  0  0  0
  4  6  1  6  0  0  0
  4  5  1  0  0  0  0
  8  7  1  0  0  0  0
  8  4  1  0  0  0  0
 10  9  1  1  0  0  0
 10  2  1  0  0  0  0
 11 14  1  0  0  0  0
 12 18  1  0  0  0  0
 13 15  1  0  0  0  0
 14 10  1  0  0  0  0
 15 11  2  0  0  0  0
 16 14  2  0  0  0  0
 17 16  1  0  0  0  0
 18 15  1  0  0  0  0
 18 17  2  0  0  0  0
 19  1  1  0  0  0  0
 20 19  1  0  0  0  0
 21 25  1  6  0  0  0
 21 20  1  0  0  0  0
 21 22  1  0  0  0  0
 22 24  1  0  0  0  0
 23 22  2  0  0  0  0
 26 25  1  0  0  0  0
 27 28  2  0  0  0  0
 27 26  1  0  0  0  0
 30 29  1  6  0  0  0
 30 27  1  0  0  0  0
 31 30  1  0  0  0  0
M  END
>  <MODEL>
2

>  <REMARK>
 VINA RESULT:      -6.9      1.541      2.229
  Name = 
  12 active torsions:
  status: ('A' for Active; 'I' for Inactive)
    1  A    between atoms: O_1  and  C_2
    2  A    between atoms: O_1  and  C_26
    3  A    between atoms: C_2  and  C_19
    4  A    between atoms: C_3  and  C_23
    5  A    between atoms: C_5  and  C_9
    6  A    between atoms: C_5  and  C_18
    7  A    between atoms: C_6  and  C_31
    8  A    between atoms: C_9  and  C_16
    9  A    between atoms: C_13  and  C_18
   10  A    between atoms: C_20  and  C_23
   11  A    between atoms: C_20  and  C_31
   12  A    between atoms: C_26  and  C_31
                            x       y       z     vdW  Elec       q    Type
                         _______ _______ _______ _____ _____    ______ ____

>  <TORSDO>
F 12

$$$$
=
 OpenBabel11042412313D

 31 31  0  0  1  0  0  0  0  0999 V2000
  188.7180  177.4310  145.3570 C   0  0  0  0  0  0  0  0  0  0  0  0
  189.5960  176.9530  144.4460 C   0  0  0  0  0  0  0  0  0  0  0  0
  189.1670  178.1280  146.4750 O   0  0  0  0  0  1  0  0  0  0  0  0
  191.1000  177.1730  144.6470 C   0  0  2  0  0  0  0  0  0  0  0  0
  191.8020  176.3260  143.7870 O   0  0  0  0  0  1  0  0  0  0  0  0
  191.5750  176.8680  146.0600 C   0  0  0  0  0  1  0  0  0  0  0  0
  191.7830  178.7630  142.9600 O   0  0  0  0  0  1  0  0  0  0  0  0
  191.4810  178.6170  144.3170 C   0  0  0  0  0  2  0  0  0  0  0  0
  187.7230  175.4860  143.5320 C   0  0  0  0  0  1  0  0  0  0  0  0
  189.0430  176.1930  143.2550 C   0  0  1  0  0  3  0  0  0  0  0  0
  190.0250  176.6640  140.9640 C   0  0  0  0  0  3  0  0  0  0  0  0
  189.0700  179.1300  138.3350 N   0  0  0  0  0  1  0  0  0  0  0  0
  190.9600  177.0730  138.7810 O   0  0  0  0  0  1  0  0  0  0  0  0
  189.0890  176.9620  141.9670 C   0  0  0  0  0  0  0  0  0  0  0  0
  190.0240  177.3780  139.7620 C   0  0  0  0  0  0  0  0  0  0  0  0
  188.1470  177.9740  141.7490 C   0  0  0  0  0  3  0  0  0  0  0  0
  188.1450  178.6890  140.5490 C   0  0  0  0  0  3  0  0  0  0  0  0
  189.0820  178.3950  139.5550 C   0  0  0  0  0  0  0  0  0  0  0  0
  187.2370  177.2520  145.2020 C   0  0  0  0  0  2  0  0  0  0  0  0
  186.5530  178.5800  144.9120 C   0  0  0  0  0  2  0  0  0  0  0  0
  185.1790  178.3840  144.2810 C   0  0  1  0  0  3  0  0  0  0  0  0
  184.1170  178.7710  145.2520 C   0  0  0  0  0  0  0  0  0  0  0  0
  184.3880  178.8180  146.6150 O   0  0  0  0  0  1  0  0  0  0  0  0
  182.9660  179.0600  144.8350 O   0  0  0  0  0  0  0  0  0  0  0  0
  185.0380  179.2090  143.0080 C   0  0  0  0  0  2  0  0  0  0  0  0
  184.6490  178.3840  141.9160 O   0  0  0  0  0  0  0  0  0  0  0  0
  184.1470  178.9030  140.7180 C   0  0  0  0  0  0  0  0  0  0  0  0
  184.8640  179.6880  140.0430 O   0  0  0  0  0  0  0  0  0  0  0  0
  182.8000  177.3050  139.5990 O   0  0  0  0  0  1  0  0  0  0  0  0
  182.7750  178.5480  140.2320 C   0  0  1  0  0  3  0  0  0  0  0  0
  181.8450  178.5090  141.3470 N   0  0  0  0  0  1  0  0  0  0  0  0
  1  3  1  0  0  0  0
  2  4  1  0  0  0  0
  2  1  2  0  0  0  0
  4  6  1  1  0  0  0
  5  4  1  0  0  0  0
  7  8  1  0  0  0  0
  8  4  1  0  0  0  0
 10  9  1  1  0  0  0
 10  2  1  0  0  0  0
 11 14  1  0  0  0  0
 12 18  1  0  0  0  0
 13 15  1  0  0  0  0
 14 10  1  0  0  0  0
 15 11  2  0  0  0  0
 16 14  2  0  0  0  0
 17 16  1  0  0  0  0
 18 15  1  0  0  0  0
 18 17  2  0  0  0  0
 19  1  1  0  0  0  0
 20 19  1  0  0  0  0
 21 25  1  6  0  0  0
 21 20  1  0  0  0  0
 21 22  1  0  0  0  0
 22 23  1  0  0  0  0
 24 22  2  0  0  0  0
 26 25  1  0  0  0  0
 27 26  1  0  0  0  0
 28 27  2  0  0  0  0
 30 29  1  1  0  0  0
 30 27  1  0  0  0  0
 30 31  1  0  0  0  0
M  END
>  <MODEL>
3

>  <REMARK>
 VINA RESULT:      -6.6      1.752      2.400
  Name = 
  12 active torsions:
  status: ('A' for Active; 'I' for Inactive)
    1  A    between atoms: O_1  and  C_2
    2  A    between atoms: O_1  and  C_26
    3  A    between atoms: C_2  and  C_19
    4  A    between atoms: C_3  and  C_23
    5  A    between atoms: C_5  and  C_9
    6  A    between atoms: C_5  and  C_18
    7  A    between atoms: C_6  and  C_31
    8  A    between atoms: C_9  and  C_16
    9  A    between atoms: C_13  and  C_18
   10  A    between atoms: C_20  and  C_23
   11  A    between atoms: C_20  and  C_31
   12  A    between atoms: C_26  and  C_31
                            x       y       z     vdW  Elec       q    Type
                         _______ _______ _______ _____ _____    ______ ____

>  <TORSDO>
F 12

$$$$
=
 OpenBabel11042412313D

 31 31  0  0  1  0  0  0  0  0999 V2000
  188.5110  177.8210  139.5470 C   0  0  0  0  0  0  0  0  0  0  0  0
  188.7370  177.3790  138.2890 C   0  0  0  0  0  0  0  0  0  0  0  0
  188.0840  179.1260  139.7740 O   0  0  0  0  0  1  0  0  0  0  0  0
  188.5270  178.3250  137.0990 C   0  0  2  0  0  0  0  0  0  0  0  0
  189.0520  179.5790  137.4180 O   0  0  0  0  0  1  0  0  0  0  0  0
  187.0640  178.5310  136.7370 C   0  0  0  0  0  1  0  0  0  0  0  0
  188.3910  177.7130  134.7650 O   0  0  0  0  0  1  0  0  0  0  0  0
  189.2560  177.8000  135.8610 C   0  0  0  0  0  2  0  0  0  0  0  0
  188.4030  175.1530  137.0940 C   0  0  0  0  0  1  0  0  0  0  0  0
  189.2110  175.9500  138.1100 C   0  0  1  0  0  3  0  0  0  0  0  0
  191.5820  176.6200  138.7150 C   0  0  0  0  0  3  0  0  0  0  0  0
  194.8790  175.2820  137.6020 N   0  0  0  0  0  1  0  0  0  0  0  0
  193.8230  177.2600  139.3260 O   0  0  0  0  0  1  0  0  0  0  0  0
  190.7000  175.8140  137.9790 C   0  0  0  0  0  0  0  0  0  0  0  0
  192.9640  176.4500  138.5930 C   0  0  0  0  0  0  0  0  0  0  0  0
  191.2160  174.8290  137.1290 C   0  0  0  0  0  3  0  0  0  0  0  0
  192.5980  174.6580  137.0050 C   0  0  0  0  0  3  0  0  0  0  0  0
  193.4730  175.4670  137.7350 C   0  0  0  0  0  0  0  0  0  0  0  0
  188.6910  176.9340  140.7440 C   0  0  0  0  0  2  0  0  0  0  0  0
  189.0470  177.7500  141.9790 C   0  0  0  0  0  2  0  0  0  0  0  0
  188.9450  176.9200  143.2540 C   0  0  1  0  0  3  0  0  0  0  0  0
  190.2530  176.2670  143.5390 C   0  0  0  0  0  0  0  0  0  0  0  0
  191.1820  176.8790  144.3740 O   0  0  0  0  0  1  0  0  0  0  0  0
  190.5200  175.1530  143.0190 O   0  0  0  0  0  0  0  0  0  0  0  0
  188.5310  177.7850  144.4380 C   0  0  0  0  0  2  0  0  0  0  0  0
  187.4240  177.2080  145.1200 O   0  0  0  0  0  0  0  0  0  0  0  0
  186.9260  177.7210  146.3220 C   0  0  0  0  0  0  0  0  0  0  0  0
  187.6300  177.6330  147.3630 O   0  0  0  0  0  0  0  0  0  0  0  0
  185.6320  179.5070  147.1890 O   0  0  0  0  0  1  0  0  0  0  0  0
  185.5750  178.3630  146.3930 C   0  0  1  0  0  3  0  0  0  0  0  0
  185.1210  178.7180  145.0600 N   0  0  0  0  0  1  0  0  0  0  0  0
  1  3  1  0  0  0  0
  1 19  1  0  0  0  0
  2  1  2  0  0  0  0
  4  6  1  6  0  0  0
  4  5  1  0  0  0  0
  4  2  1  0  0  0  0
  7  8  1  0  0  0  0
  8  4  1  0  0  0  0
 10  9  1  6  0  0  0
 10  2  1  0  0  0  0
 12 18  1  0  0  0  0
 14 10  1  0  0  0  0
 14 11  2  0  0  0  0
 15 11  1  0  0  0  0
 15 13  1  0  0  0  0
 16 14  1  0  0  0  0
 17 16  2  0  0  0  0
 17 18  1  0  0  0  0
 18 15  2  0  0  0  0
 19 20  1  0  0  0  0
 21 20  1  6  0  0  0
 21 22  1  0  0  0  0
 21 25  1  0  0  0  0
 22 23  1  0  0  0  0
 24 22  2  0  0  0  0
 25 26  1  0  0  0  0
 26 27  1  0  0  0  0
 27 30  1  0  0  0  0
 27 28  2  0  0  0  0
 30 31  1  6  0  0  0
 30 29  1  0  0  0  0
M  END
>  <MODEL>
4

>  <REMARK>
 VINA RESULT:      -6.1      3.197      6.851
  Name = 
  12 active torsions:
  status: ('A' for Active; 'I' for Inactive)
    1  A    between atoms: O_1  and  C_2
    2  A    between atoms: O_1  and  C_26
    3  A    between atoms: C_2  and  C_19
    4  A    between atoms: C_3  and  C_23
    5  A    between atoms: C_5  and  C_9
    6  A    between atoms: C_5  and  C_18
    7  A    between atoms: C_6  and  C_31
    8  A    between atoms: C_9  and  C_16
    9  A    between atoms: C_13  and  C_18
   10  A    between atoms: C_20  and  C_23
   11  A    between atoms: C_20  and  C_31
   12  A    between atoms: C_26  and  C_31
                            x       y       z     vdW  Elec       q    Type
                         _______ _______ _______ _____ _____    ______ ____

>  <TORSDO>
F 12

$$$$
=
 OpenBabel11042412313D

 31 31  0  0  1  0  0  0  0  0999 V2000
  184.7170  178.6790  141.3110 C   0  0  0  0  0  0  0  0  0  0  0  0
  183.6960  178.5850  140.4290 C   0  0  0  0  0  0  0  0  0  0  0  0
  185.8960  179.3310  140.9620 O   0  0  0  0  0  1  0  0  0  0  0  0
  183.8380  179.1940  139.0290 C   0  0  2  0  0  0  0  0  0  0  0  0
  184.4430  180.4480  139.1380 O   0  0  0  0  0  1  0  0  0  0  0  0
  182.5090  179.3990  138.3170 C   0  0  0  0  0  1  0  0  0  0  0  0
  185.9470  178.9260  137.8790 O   0  0  0  0  0  1  0  0  0  0  0  0
  184.7200  178.3100  138.1450 C   0  0  0  0  0  2  0  0  0  0  0  0
  181.3520  178.7660  141.4130 C   0  0  0  0  0  1  0  0  0  0  0  0
  182.4420  177.8530  140.8680 C   0  0  1  0  0  3  0  0  0  0  0  0
  182.8610  175.9440  139.2490 C   0  0  0  0  0  3  0  0  0  0  0  0
  180.5130  173.8750  137.2220 N   0  0  0  0  0  1  0  0  0  0  0  0
  183.2840  174.1180  137.7370 O   0  0  0  0  0  1  0  0  0  0  0  0
  181.9680  176.8180  139.8890 C   0  0  0  0  0  0  0  0  0  0  0  0
  182.3860  174.9710  138.3650 C   0  0  0  0  0  0  0  0  0  0  0  0
  180.5950  176.6990  139.6440 C   0  0  0  0  0  3  0  0  0  0  0  0
  180.1180  175.7270  138.7600 C   0  0  0  0  0  3  0  0  0  0  0  0
  181.0100  174.8630  138.1190 C   0  0  0  0  0  0  0  0  0  0  0  0
  184.6260  178.1100  142.6960 C   0  0  0  0  0  2  0  0  0  0  0  0
  185.7860  178.5840  143.5600 C   0  0  0  0  0  2  0  0  0  0  0  0
  186.5710  177.4160  144.1460 C   0  0  1  0  0  3  0  0  0  0  0  0
  187.7330  177.0990  143.2690 C   0  0  0  0  0  0  0  0  0  0  0  0
  188.1220  175.7800  143.0610 O   0  0  0  0  0  1  0  0  0  0  0  0
  188.3660  178.0320  142.7120 O   0  0  0  0  0  0  0  0  0  0  0  0
  187.0580  177.7360  145.5530 C   0  0  0  0  0  2  0  0  0  0  0  0
  188.1380  176.8840  145.9170 O   0  0  0  0  0  0  0  0  0  0  0  0
  189.3480  177.3700  146.4220 C   0  0  0  0  0  0  0  0  0  0  0  0
  189.3330  178.1030  147.4460 O   0  0  0  0  0  0  0  0  0  0  0  0
  191.0220  178.0660  144.8950 O   0  0  0  0  0  1  0  0  0  0  0  0
  190.6530  177.0400  145.7660 C   0  0  1  0  0  3  0  0  0  0  0  0
  191.6860  176.8600  146.7720 N   0  0  0  0  0  1  0  0  0  0  0  0
  1 19  1  0  0  0  0
  2 10  1  0  0  0  0
  2  1  2  0  0  0  0
  3  1  1  0  0  0  0
  4  6  1  6  0  0  0
  4  5  1  0  0  0  0
  4  2  1  0  0  0  0
  7  8  1  0  0  0  0
  8  4  1  0  0  0  0
 10  9  1  6  0  0  0
 11 14  1  0  0  0  0
 12 18  1  0  0  0  0
 13 15  1  0  0  0  0
 14 10  1  0  0  0  0
 15 11  2  0  0  0  0
 16 14  2  0  0  0  0
 17 16  1  0  0  0  0
 18 15  1  0  0  0  0
 18 17  2  0  0  0  0
 19 20  1  0  0  0  0
 21 20  1  6  0  0  0
 21 25  1  0  0  0  0
 22 21  1  0  0  0  0
 23 22  1  0  0  0  0
 24 22  2  0  0  0  0
 25 26  1  0  0  0  0
 26 27  1  0  0  0  0
 27 28  2  0  0  0  0
 30 29  1  6  0  0  0
 30 27  1  0  0  0  0
 30 31  1  0  0  0  0
M  END
>  <MODEL>
5

>  <REMARK>
 VINA RESULT:      -6.1      3.434      8.394
  Name = 
  12 active torsions:
  status: ('A' for Active; 'I' for Inactive)
    1  A    between atoms: O_1  and  C_2
    2  A    between atoms: O_1  and  C_26
    3  A    between atoms: C_2  and  C_19
    4  A    between atoms: C_3  and  C_23
    5  A    between atoms: C_5  and  C_9
    6  A    between atoms: C_5  and  C_18
    7  A    between atoms: C_6  and  C_31
    8  A    between atoms: C_9  and  C_16
    9  A    between atoms: C_13  and  C_18
   10  A    between atoms: C_20  and  C_23
   11  A    between atoms: C_20  and  C_31
   12  A    between atoms: C_26  and  C_31
                            x       y       z     vdW  Elec       q    Type
                         _______ _______ _______ _____ _____    ______ ____

>  <TORSDO>
F 12

$$$$
=
 OpenBabel11042412313D

 31 31  0  0  1  0  0  0  0  0999 V2000
  184.6830  178.8470  141.3530 C   0  0  0  0  0  0  0  0  0  0  0  0
  183.6590  178.7400  140.4770 C   0  0  0  0  0  0  0  0  0  0  0  0
  185.8610  179.4940  140.9910 O   0  0  0  0  0  1  0  0  0  0  0  0
  183.7960  179.3310  139.0680 C   0  0  2  0  0  0  0  0  0  0  0  0
  184.5540  180.5010  139.1370 O   0  0  0  0  0  1  0  0  0  0  0  0
  182.4630  179.6980  138.4300 C   0  0  0  0  0  1  0  0  0  0  0  0
  185.8590  178.6880  137.9870 O   0  0  0  0  0  1  0  0  0  0  0  0
  184.5120  178.3480  138.1400 C   0  0  0  0  0  2  0  0  0  0  0  0
  181.3540  178.9230  141.5490 C   0  0  0  0  0  1  0  0  0  0  0  0
  182.4070  178.0140  140.9290 C   0  0  1  0  0  3  0  0  0  0  0  0
  180.6330  177.2050  139.3050 C   0  0  0  0  0  3  0  0  0  0  0  0
  180.5290  174.2370  137.0500 N   0  0  0  0  0  1  0  0  0  0  0  0
  178.9440  176.4730  137.7520 O   0  0  0  0  0  1  0  0  0  0  0  0
  181.8790  177.0280  139.9280 C   0  0  0  0  0  0  0  0  0  0  0  0
  180.1810  176.2850  138.3550 C   0  0  0  0  0  0  0  0  0  0  0  0
  182.6710  175.9270  139.5810 C   0  0  0  0  0  3  0  0  0  0  0  0
  182.2200  175.0060  138.6310 C   0  0  0  0  0  3  0  0  0  0  0  0
  180.9770  175.1820  138.0180 C   0  0  0  0  0  0  0  0  0  0  0  0
  184.5970  178.2960  142.7460 C   0  0  0  0  0  2  0  0  0  0  0  0
  184.7300  179.4040  143.7810 C   0  0  0  0  0  2  0  0  0  0  0  0
  185.7660  179.0630  144.8460 C   0  0  1  0  0  3  0  0  0  0  0  0
  185.1200  179.0260  146.1870 C   0  0  0  0  0  0  0  0  0  0  0  0
  185.6800  179.7070  147.2620 O   0  0  0  0  0  1  0  0  0  0  0  0
  184.0560  178.3740  146.3480 O   0  0  0  0  0  0  0  0  0  0  0  0
  186.4280  177.7220  144.5550 C   0  0  0  0  0  2  0  0  0  0  0  0
  187.0340  177.1960  145.7300 O   0  0  0  0  0  0  0  0  0  0  0  0
  188.4210  177.1130  145.8930 C   0  0  0  0  0  0  0  0  0  0  0  0
  189.1630  177.2060  144.8800 O   0  0  0  0  0  0  0  0  0  0  0  0
  190.3560  177.3550  147.2400 O   0  0  0  0  0  1  0  0  0  0  0  0
  189.0340  176.9110  147.2450 C   0  0  1  0  0  3  0  0  0  0  0  0
  188.2780  177.6400  148.2490 N   0  0  0  0  0  1  0  0  0  0  0  0
  1 19  1  0  0  0  0
  2 10  1  0  0  0  0
  2  1  2  0  0  0  0
  3  1  1  0  0  0  0
  4  6  1  6  0  0  0
  4  5  1  0  0  0  0
  4  2  1  0  0  0  0
  7  8  1  0  0  0  0
  8  4  1  0  0  0  0
 10  9  1  6  0  0  0
 11 14  1  0  0  0  0
 12 18  1  0  0  0  0
 13 15  1  0  0  0  0
 14 10  1  0  0  0  0
 15 11  2  0  0  0  0
 16 14  2  0  0  0  0
 17 16  1  0  0  0  0
 18 15  1  0  0  0  0
 18 17  2  0  0  0  0
 19 20  1  0  0  0  0
 21 20  1  6  0  0  0
 21 22  1  0  0  0  0
 22 24  2  0  0  0  0
 22 23  1  0  0  0  0
 25 21  1  0  0  0  0
 25 26  1  0  0  0  0
 26 27  1  0  0  0  0
 27 30  1  0  0  0  0
 28 27  2  0  0  0  0
 30 29  1  6  0  0  0
 30 31  1  0  0  0  0
M  END
>  <MODEL>
6

>  <REMARK>
 VINA RESULT:      -6.0      3.775      8.430
  Name = 
  12 active torsions:
  status: ('A' for Active; 'I' for Inactive)
    1  A    between atoms: O_1  and  C_2
    2  A    between atoms: O_1  and  C_26
    3  A    between atoms: C_2  and  C_19
    4  A    between atoms: C_3  and  C_23
    5  A    between atoms: C_5  and  C_9
    6  A    between atoms: C_5  and  C_18
    7  A    between atoms: C_6  and  C_31
    8  A    between atoms: C_9  and  C_16
    9  A    between atoms: C_13  and  C_18
   10  A    between atoms: C_20  and  C_23
   11  A    between atoms: C_20  and  C_31
   12  A    between atoms: C_26  and  C_31
                            x       y       z     vdW  Elec       q    Type
                         _______ _______ _______ _____ _____    ______ ____

>  <TORSDO>
F 12

$$$$
=
 OpenBabel11042412313D

 31 31  0  0  1  0  0  0  0  0999 V2000
  184.7800  178.6050  141.1720 C   0  0  0  0  0  0  0  0  0  0  0  0
  183.6530  178.6950  140.4300 C   0  0  0  0  0  0  0  0  0  0  0  0
  186.0040  179.0140  140.6520 O   0  0  0  0  0  1  0  0  0  0  0  0
  183.7220  179.2450  139.0000 C   0  0  2  0  0  0  0  0  0  0  0  0
  184.2600  180.5330  139.0340 O   0  0  0  0  0  1  0  0  0  0  0  0
  182.3640  179.3450  138.3210 C   0  0  0  0  0  1  0  0  0  0  0  0
  183.9260  177.8490  137.0370 O   0  0  0  0  0  1  0  0  0  0  0  0
  184.6260  178.3690  138.1300 C   0  0  0  0  0  2  0  0  0  0  0  0
  181.4580  179.3520  141.5470 C   0  0  0  0  0  1  0  0  0  0  0  0
  182.3520  178.2230  141.0510 C   0  0  1  0  0  3  0  0  0  0  0  0
  182.3520  176.2350  139.4760 C   0  0  0  0  0  3  0  0  0  0  0  0
  179.5630  174.1570  138.1310 N   0  0  0  0  0  1  0  0  0  0  0  0
  182.3840  174.3320  137.9980 O   0  0  0  0  0  1  0  0  0  0  0  0
  181.6460  177.1630  140.2560 C   0  0  0  0  0  0  0  0  0  0  0  0
  181.6690  175.2400  138.7690 C   0  0  0  0  0  0  0  0  0  0  0  0
  180.2520  177.0780  140.3320 C   0  0  0  0  0  3  0  0  0  0  0  0
  179.5660  176.0850  139.6260 C   0  0  0  0  0  3  0  0  0  0  0  0
  180.2720  175.1660  138.8440 C   0  0  0  0  0  0  0  0  0  0  0  0
  184.7650  178.0840  142.5780 C   0  0  0  0  0  2  0  0  0  0  0  0
  184.6810  179.2250  143.5830 C   0  0  0  0  0  2  0  0  0  0  0  0
  185.5510  178.9670  144.8080 C   0  0  1  0  0  3  0  0  0  0  0  0
  184.6930  178.8350  146.0190 C   0  0  0  0  0  0  0  0  0  0  0  0
  185.2550  178.5350  147.2550 O   0  0  0  0  0  1  0  0  0  0  0  0
  183.4500  178.9990  145.9210 O   0  0  0  0  0  0  0  0  0  0  0  0
  186.3870  177.7050  144.6280 C   0  0  0  0  0  2  0  0  0  0  0  0
  187.6860  177.8810  145.1810 O   0  0  0  0  0  0  0  0  0  0  0  0
  188.8560  177.6040  144.4660 C   0  0  0  0  0  0  0  0  0  0  0  0
  189.9700  177.8850  144.9830 O   0  0  0  0  0  0  0  0  0  0  0  0
  189.1070  177.9480  142.1350 O   0  0  0  0  0  1  0  0  0  0  0  0
  188.8060  176.9880  143.1020 C   0  0  1  0  0  3  0  0  0  0  0  0
  189.7570  175.8930  143.0140 N   0  0  0  0  0  1  0  0  0  0  0  0
  1 19  1  0  0  0  0
  2 10  1  0  0  0  0
  2  1  2  0  0  0  0
  3  1  1  0  0  0  0
  4  6  1  6  0  0  0
  4  5  1  0  0  0  0
  4  2  1  0  0  0  0
  7  8  1  0  0  0  0
  8  4  1  0  0  0  0
 10  9  1  6  0  0  0
 11 14  1  0  0  0  0
 12 18  1  0  0  0  0
 13 15  1  0  0  0  0
 14 16  2  0  0  0  0
 14 10  1  0  0  0  0
 15 18  1  0  0  0  0
 15 11  2  0  0  0  0
 17 16  1  0  0  0  0
 18 17  2  0  0  0  0
 19 20  1  0  0  0  0
 21 20  1  6  0  0  0
 21 22  1  0  0  0  0
 22 23  1  0  0  0  0
 24 22  2  0  0  0  0
 25 21  1  0  0  0  0
 25 26  1  0  0  0  0
 27 28  2  0  0  0  0
 27 26  1  0  0  0  0
 30 29  1  6  0  0  0
 30 27  1  0  0  0  0
 31 30  1  0  0  0  0
M  END
>  <MODEL>
7

>  <REMARK>
 VINA RESULT:      -6.0      3.245      8.111
  Name = 
  12 active torsions:
  status: ('A' for Active; 'I' for Inactive)
    1  A    between atoms: O_1  and  C_2
    2  A    between atoms: O_1  and  C_26
    3  A    between atoms: C_2  and  C_19
    4  A    between atoms: C_3  and  C_23
    5  A    between atoms: C_5  and  C_9
    6  A    between atoms: C_5  and  C_18
    7  A    between atoms: C_6  and  C_31
    8  A    between atoms: C_9  and  C_16
    9  A    between atoms: C_13  and  C_18
   10  A    between atoms: C_20  and  C_23
   11  A    between atoms: C_20  and  C_31
   12  A    between atoms: C_26  and  C_31
                            x       y       z     vdW  Elec       q    Type
                         _______ _______ _______ _____ _____    ______ ____

>  <TORSDO>
F 12

$$$$
=
 OpenBabel11042412313D

 31 31  0  0  1  0  0  0  0  0999 V2000
  187.8740  178.2430  141.7240 C   0  0  0  0  0  0  0  0  0  0  0  0
  188.7440  177.4630  142.4060 C   0  0  0  0  0  0  0  0  0  0  0  0
  188.3340  179.1760  140.7990 O   0  0  0  0  0  1  0  0  0  0  0  0
  190.2520  177.6120  142.1650 C   0  0  2  0  0  0  0  0  0  0  0  0
  190.9080  176.5010  142.6990 O   0  0  0  0  0  1  0  0  0  0  0  0
  190.8530  178.8450  142.8220 C   0  0  0  0  0  1  0  0  0  0  0  0
  190.4700  176.4080  140.0810 O   0  0  0  0  0  1  0  0  0  0  0  0
  190.5530  177.6750  140.6670 C   0  0  0  0  0  2  0  0  0  0  0  0
  188.6930  175.0510  143.2260 C   0  0  0  0  0  1  0  0  0  0  0  0
  188.1790  176.4740  143.4060 C   0  0  1  0  0  3  0  0  0  0  0  0
  187.0330  177.5160  145.4160 C   0  0  0  0  0  3  0  0  0  0  0  0
  188.2770  178.2530  148.8530 N   0  0  0  0  0  1  0  0  0  0  0  0
  185.9130  178.4850  147.3160 O   0  0  0  0  0  1  0  0  0  0  0  0
  188.1830  176.9700  144.8230 C   0  0  0  0  0  0  0  0  0  0  0  0
  187.0590  177.9440  146.7460 C   0  0  0  0  0  0  0  0  0  0  0  0
  189.3530  176.8470  145.5800 C   0  0  0  0  0  3  0  0  0  0  0  0
  189.3820  177.2740  146.9110 C   0  0  0  0  0  3  0  0  0  0  0  0
  188.2370  177.8230  147.4950 C   0  0  0  0  0  0  0  0  0  0  0  0
  186.3900  178.1310  141.9140 C   0  0  0  0  0  2  0  0  0  0  0  0
  185.6790  179.3780  141.4070 C   0  0  0  0  0  2  0  0  0  0  0  0
  184.3710  179.0360  140.7020 C   0  0  1  0  0  3  0  0  0  0  0  0
  184.6570  178.4830  139.3480 C   0  0  0  0  0  0  0  0  0  0  0  0
  185.6900  179.0010  138.5750 O   0  0  0  0  0  0  0  0  0  0  0  0
  183.9570  177.5370  138.9010 O   0  0  0  0  0  1  0  0  0  0  0  0
  183.5610  178.0290  141.5090 C   0  0  0  0  0  2  0  0  0  0  0  0
  182.4060  178.6450  142.0660 O   0  0  0  0  0  0  0  0  0  0  0  0
  181.1370  178.5320  141.4890 C   0  0  0  0  0  0  0  0  0  0  0  0
  181.0110  177.9020  140.4060 O   0  0  0  0  0  0  0  0  0  0  0  0
  179.3480  178.2450  143.0170 O   0  0  0  0  0  1  0  0  0  0  0  0
  179.9330  179.1500  142.1310 C   0  0  1  0  0  3  0  0  0  0  0  0
  180.3130  180.3560  142.8460 N   0  0  0  0  0  1  0  0  0  0  0  0
  1 19  1  0  0  0  0
  1  2  2  0  0  0  0
  2 10  1  0  0  0  0
  3  1  1  0  0  0  0
  4  2  1  0  0  0  0
  4  5  1  0  0  0  0
  4  6  1  1  0  0  0
  7  8  1  0  0  0  0
  8  4  1  0  0  0  0
 10  9  1  1  0  0  0
 10 14  1  0  0  0  0
 11 15  1  0  0  0  0
 14 11  2  0  0  0  0
 14 16  1  0  0  0  0
 15 13  1  0  0  0  0
 15 18  2  0  0  0  0
 16 17  2  0  0  0  0
 17 18  1  0  0  0  0
 18 12  1  0  0  0  0
 20 19  1  0  0  0  0
 21 20  1  1  0  0  0
 21 25  1  0  0  0  0
 22 21  1  0  0  0  0
 23 22  2  0  0  0  0
 24 22  1  0  0  0  0
 25 26  1  0  0  0  0
 27 26  1  0  0  0  0
 27 30  1  0  0  0  0
 28 27  2  0  0  0  0
 30 31  1  1  0  0  0
 30 29  1  0  0  0  0
M  END
>  <MODEL>
8

>  <REMARK>
 VINA RESULT:      -5.9      3.056      5.751
  Name = 
  12 active torsions:
  status: ('A' for Active; 'I' for Inactive)
    1  A    between atoms: O_1  and  C_2
    2  A    between atoms: O_1  and  C_26
    3  A    between atoms: C_2  and  C_19
    4  A    between atoms: C_3  and  C_23
    5  A    between atoms: C_5  and  C_9
    6  A    between atoms: C_5  and  C_18
    7  A    between atoms: C_6  and  C_31
    8  A    between atoms: C_9  and  C_16
    9  A    between atoms: C_13  and  C_18
   10  A    between atoms: C_20  and  C_23
   11  A    between atoms: C_20  and  C_31
   12  A    between atoms: C_26  and  C_31
                            x       y       z     vdW  Elec       q    Type
                         _______ _______ _______ _____ _____    ______ ____

>  <TORSDO>
F 12

$$$$
=
 OpenBabel11042412313D

 31 31  0  0  1  0  0  0  0  0999 V2000
  190.6290  177.4650  141.6940 C   0  0  0  0  0  0  0  0  0  0  0  0
  189.9400  177.3420  142.8510 C   0  0  0  0  0  0  0  0  0  0  0  0
  191.8370  178.1560  141.6590 O   0  0  0  0  0  1  0  0  0  0  0  0
  190.4860  177.9760  144.1360 C   0  0  2  0  0  0  0  0  0  0  0  0
  189.4860  177.9630  145.1100 O   0  0  0  0  0  1  0  0  0  0  0  0
  190.9230  179.4230  143.9620 C   0  0  0  0  0  1  0  0  0  0  0  0
  191.3000  176.3300  145.7080 O   0  0  0  0  0  1  0  0  0  0  0  0
  191.6810  177.1780  144.6630 C   0  0  0  0  0  2  0  0  0  0  0  0
  188.6430  175.2820  143.6070 C   0  0  0  0  0  1  0  0  0  0  0  0
  188.6260  176.5860  142.8200 C   0  0  1  0  0  3  0  0  0  0  0  0
  186.8560  178.2230  142.0300 C   0  0  0  0  0  3  0  0  0  0  0  0
  183.9650  179.7720  143.8050 N   0  0  0  0  0  1  0  0  0  0  0  0
  185.1730  179.7580  141.2460 O   0  0  0  0  0  1  0  0  0  0  0  0
  187.4200  177.4490  143.0550 C   0  0  0  0  0  0  0  0  0  0  0  0
  185.7150  178.9940  142.2720 C   0  0  0  0  0  0  0  0  0  0  0  0
  186.8240  177.4460  144.3210 C   0  0  0  0  0  3  0  0  0  0  0  0
  185.6840  178.2160  144.5660 C   0  0  0  0  0  3  0  0  0  0  0  0
  185.1280  178.9910  143.5440 C   0  0  0  0  0  0  0  0  0  0  0  0
  190.1440  176.8560  140.4120 C   0  0  0  0  0  2  0  0  0  0  0  0
  189.8790  177.9280  139.3640 C   0  0  0  0  0  2  0  0  0  0  0  0
  189.0160  177.4030  138.2220 C   0  0  1  0  0  3  0  0  0  0  0  0
  188.4680  178.5450  137.4370 C   0  0  0  0  0  0  0  0  0  0  0  0
  187.3120  178.3920  136.6790 O   0  0  0  0  0  0  0  0  0  0  0  0
  189.0560  179.6570  137.4620 O   0  0  0  0  0  1  0  0  0  0  0  0
  189.8180  176.4860  137.3080 C   0  0  0  0  0  2  0  0  0  0  0  0
  191.2110  176.6070  137.5690 O   0  0  0  0  0  0  0  0  0  0  0  0
  192.0660  175.5030  137.6410 C   0  0  0  0  0  0  0  0  0  0  0  0
  191.5700  174.3460  137.6650 O   0  0  0  0  0  0  0  0  0  0  0  0
  194.1830  174.4950  137.2900 O   0  0  0  0  0  1  0  0  0  0  0  0
  193.5530  175.6730  137.6940 C   0  0  1  0  0  3  0  0  0  0  0  0
  193.9620  176.7660  136.8290 N   0  0  0  0  0  1  0  0  0  0  0  0
  1  2  2  0  0  0  0
  2  4  1  0  0  0  0
  3  1  1  0  0  0  0
  4  6  1  6  0  0  0
  4  8  1  0  0  0  0
  4  5  1  0  0  0  0
  8  7  1  0  0  0  0
 10  2  1  0  0  0  0
 10 14  1  0  0  0  0
 10  9  1  1  0  0  0
 11 15  2  0  0  0  0
 11 14  1  0  0  0  0
 13 15  1  0  0  0  0
 14 16  2  0  0  0  0
 15 18  1  0  0  0  0
 16 17  1  0  0  0  0
 18 12  1  0  0  0  0
 18 17  2  0  0  0  0
 19  1  1  0  0  0  0
 20 19  1  0  0  0  0
 21 25  1  6  0  0  0
 21 20  1  0  0  0  0
 22 24  1  0  0  0  0
 22 21  1  0  0  0  0
 23 22  2  0  0  0  0
 25 26  1  0  0  0  0
 26 27  1  0  0  0  0
 27 28  2  0  0  0  0
 27 30  1  0  0  0  0
 29 30  1  0  0  0  0
 30 31  1  6  0  0  0
M  END
>  <MODEL>
9

>  <REMARK>
 VINA RESULT:      -5.9      2.676      6.838
  Name = 
  12 active torsions:
  status: ('A' for Active; 'I' for Inactive)
    1  A    between atoms: O_1  and  C_2
    2  A    between atoms: O_1  and  C_26
    3  A    between atoms: C_2  and  C_19
    4  A    between atoms: C_3  and  C_23
    5  A    between atoms: C_5  and  C_9
    6  A    between atoms: C_5  and  C_18
    7  A    between atoms: C_6  and  C_31
    8  A    between atoms: C_9  and  C_16
    9  A    between atoms: C_13  and  C_18
   10  A    between atoms: C_20  and  C_23
   11  A    between atoms: C_20  and  C_31
   12  A    between atoms: C_26  and  C_31
                            x       y       z     vdW  Elec       q    Type
                         _______ _______ _______ _____ _____    ______ ____

>  <TORSDO>
F 12

$$$$
