=
 OpenBabel11042411423D

 40 42  0  0  1  0  0  0  0  0999 V2000
  183.0180  178.1570  140.4040 C   0  0  0  0  0  2  0  0  0  0  0  0
  183.9660  178.0490  141.5940 C   0  0  0  0  0  2  0  0  0  0  0  0
  185.2760  178.7030  141.3020 C   0  0  0  0  0  0  0  0  0  0  0  0
  185.3060  179.7300  140.6440 O   0  0  0  0  0  0  0  0  0  0  0  0
  186.5420  178.0580  141.7920 C   0  0  1  0  0  3  0  0  0  0  0  0
  187.7820  178.7900  141.3070 C   0  0  0  0  0  1  0  0  0  0  0  0
  184.4780  179.0250  146.2110 C   0  0  0  0  0  1  0  0  0  0  0  0
  186.4430  177.4930  146.0600 C   0  0  0  0  0  3  0  0  0  0  0  0
  186.5430  177.8170  143.2770 C   0  0  0  0  0  0  0  0  0  0  0  0
  187.4260  176.8370  145.3160 C   0  0  0  0  0  3  0  0  0  0  0  0
  185.5140  178.3130  145.4190 C   0  0  0  0  0  0  0  0  0  0  0  0
  187.4980  176.9990  143.9260 C   0  0  0  0  0  0  0  0  0  0  0  0
  185.5680  178.4760  144.0350 C   0  0  0  0  0  3  0  0  0  0  0  0
  188.4730  176.2840  143.1500 N   0  0  0  0  0  2  0  0  0  0  0  0
  189.8870  176.1920  143.3560 C   0  0  0  0  0  0  0  0  0  0  0  0
  190.5370  175.2620  142.7350 N   0  0  0  0  0  2  0  0  0  0  0  0
  189.8750  178.9110  144.1880 O   0  0  0  0  0  1  0  0  0  0  0  0
  190.8220  177.5070  144.1440 P   0  0  1  0  0  0  0  0  0  0  0  0
  191.2520  177.0390  145.8470 C   0  0  0  0  0  1  0  0  0  0  0  0
  192.0820  177.7920  143.3630 O   0  0  0  0  0  0  0  0  0  0  0  0
  182.6100  176.7830  139.8830 C   0  0  2  0  0  3  0  0  0  0  0  0
  183.9370  177.7090  137.8990 C   0  0  1  0  0  3  0  0  0  0  0  0
  182.2570  176.3180  137.4010 C   0  0  2  0  0  3  0  0  0  0  0  0
  182.8770  177.7180  136.4090 S   0  0  0  0  0  0  0  0  0  0  0  0
  183.2680  176.4930  138.5200 C   0  0  2  0  0  3  0  0  0  0  0  0
  182.1100  174.6990  135.1060 S   0  0  0  0  0  0  0  0  0  0  0  0
  183.7060  171.4350  136.7510 S   0  0  0  0  0  0  0  0  0  0  0  0
  183.0230  173.9140  137.2360 N   0  0  0  0  0  0  0  0  0  0  0  0
  182.4840  175.0240  136.6880 C   0  0  0  0  0  0  0  0  0  0  0  0
  183.0940  172.8890  136.3320 C   0  0  0  0  0  0  0  0  0  0  0  0
  182.6330  173.1210  135.0720 N   0  0  0  0  0  2  0  0  0  0  0  0
  185.3720  177.3930  137.5920 C   0  0  0  0  0  0  0  0  0  0  0  0
  186.3800  178.4050  137.6560 N   0  0  0  0  0  2  0  0  0  0  0  0
  185.6730  176.2270  137.2230 O   0  0  0  0  0  0  0  0  0  0  0  0
  188.5710  179.2100  137.7160 O   0  0  0  0  0  1  0  0  0  0  0  0
  187.7560  178.1770  137.2440 C   0  0  2  0  0  3  0  0  0  0  0  0
  187.8210  178.1470  135.7290 C   0  0  0  0  0  1  0  0  0  0  0  0
  181.0860  176.6820  139.8650 C   0  0  0  0  0  2  0  0  0  0  0  0
  179.6600  177.5880  141.6900 C   0  0  0  0  0  1  0  0  0  0  0  0
  180.4530  177.9380  140.4480 C   0  0  0  0  0  2  0  0  0  0  0  0
  1  2  1  0  0  0  0
  3  2  1  0  0  0  0
  3  5  1  0  0  0  0
  4  3  2  0  0  0  0
  5  6  1  1  0  0  0
  5  9  1  0  0  0  0
  9 12  2  0  0  0  0
  9 13  1  0  0  0  0
 10  8  2  0  0  0  0
 11  8  1  0  0  0  0
 11  7  1  0  0  0  0
 12 10  1  0  0  0  0
 13 11  2  0  0  0  0
 14 15  1  0  0  0  0
 14 12  1  0  0  0  0
 15 18  1  0  0  0  0
 16 15  2  0  0  0  0
 18 17  1  0  0  0  0
 18 19  1  1  0  0  0
 20 18  2  0  0  0  0
 21 38  1  6  0  0  0
 21  1  1  0  0  0  0
 22 32  1  6  0  0  0
 22 25  1  0  0  0  0
 23 29  1  6  0  0  0
 23 25  1  0  0  0  0
 24 23  1  0  0  0  0
 24 22  1  0  0  0  0
 25 21  1  1  0  0  0
 26 29  1  0  0  0  0
 29 28  2  0  0  0  0
 30 27  2  0  0  0  0
 30 28  1  0  0  0  0
 31 26  1  0  0  0  0
 31 30  1  0  0  0  0
 32 33  1  0  0  0  0
 34 32  2  0  0  0  0
 36 37  1  6  0  0  0
 36 33  1  0  0  0  0
 36 35  1  0  0  0  0
 38 40  1  0  0  0  0
 40 39  1  0  0  0  0
M  END
>  <MODEL>
1

>  <REMARK>
 VINA RESULT:      -7.3      0.000      0.000
  Name = 
  13 active torsions:
  status: ('A' for Active; 'I' for Inactive)
    1  A    between atoms: C_2  and  C_12
    2  A    between atoms: C_2  and  C_23
    3  A    between atoms: C_3  and  C_8
    4  A    between atoms: C_6  and  C_30
    5  A    between atoms: C_7  and  C_11
    6  A    between atoms: C_11  and  C_12
    7  A    between atoms: N_18  and  C_25
    8  A    between atoms: C_19  and  P_20
    9  A    between atoms: C_22  and  N_27
   10  A    between atoms: C_23  and  C_29
   11  A    between atoms: C_28  and  C_29
   12  A    between atoms: C_29  and  C_36
   13  A    between atoms: C_33  and  C_36
                            x       y       z     vdW  Elec       q    Type
                         _______ _______ _______ _____ _____    ______ ____

>  <TORSDO>
F 13

$$$$
=
 OpenBabel11042411423D

 40 42  0  0  1  0  0  0  0  0999 V2000
  182.8970  178.8010  141.8580 C   0  0  0  0  0  2  0  0  0  0  0  0
  184.0010  177.9110  141.2980 C   0  0  0  0  0  2  0  0  0  0  0  0
  185.2760  178.6710  141.1360 C   0  0  0  0  0  0  0  0  0  0  0  0
  185.2750  179.7340  140.5350 O   0  0  0  0  0  0  0  0  0  0  0  0
  186.5490  178.0910  141.6830 C   0  0  1  0  0  3  0  0  0  0  0  0
  187.7720  178.8840  141.2520 C   0  0  0  0  0  1  0  0  0  0  0  0
  184.3400  179.0700  146.0270 C   0  0  0  0  0  1  0  0  0  0  0  0
  186.2960  177.5230  145.9440 C   0  0  0  0  0  3  0  0  0  0  0  0
  186.4960  177.8480  143.1660 C   0  0  0  0  0  0  0  0  0  0  0  0
  187.2990  176.8590  145.2350 C   0  0  0  0  0  3  0  0  0  0  0  0
  185.3970  178.3510  145.2720 C   0  0  0  0  0  0  0  0  0  0  0  0
  187.4210  177.0220  143.8480 C   0  0  0  0  0  0  0  0  0  0  0  0
  185.5010  178.5140  143.8910 C   0  0  0  0  0  3  0  0  0  0  0  0
  188.4170  176.2990  143.1060 N   0  0  0  0  0  2  0  0  0  0  0  0
  189.8210  176.1880  143.3660 C   0  0  0  0  0  0  0  0  0  0  0  0
  190.4820  175.2540  142.7650 N   0  0  0  0  0  2  0  0  0  0  0  0
  189.8630  178.9330  144.1070 O   0  0  0  0  0  1  0  0  0  0  0  0
  190.7400  177.4870  144.1990 P   0  0  1  0  0  0  0  0  0  0  0  0
  190.9840  177.0610  145.9490 C   0  0  0  0  0  1  0  0  0  0  0  0
  192.0800  177.6850  143.5330 O   0  0  0  0  0  0  0  0  0  0  0  0
  181.5780  178.5930  141.1200 C   0  0  2  0  0  3  0  0  0  0  0  0
  180.5930  179.8420  139.1140 C   0  0  1  0  0  3  0  0  0  0  0  0
  181.4000  177.7960  138.7050 C   0  0  2  0  0  3  0  0  0  0  0  0
  180.0100  178.6340  137.8710 S   0  0  0  0  0  0  0  0  0  0  0  0
  181.7170  178.9580  139.6300 C   0  0  2  0  0  3  0  0  0  0  0  0
  182.4010  177.4310  136.1020 S   0  0  0  0  0  0  0  0  0  0  0  0
  186.2280  177.0090  137.1430 S   0  0  0  0  0  0  0  0  0  0  0  0
  183.8250  177.4210  138.0920 N   0  0  0  0  0  0  0  0  0  0  0  0
  182.5270  177.5660  137.7500 C   0  0  0  0  0  0  0  0  0  0  0  0
  184.6170  177.2160  136.9940 C   0  0  0  0  0  0  0  0  0  0  0  0
  184.0130  177.1870  135.7740 N   0  0  0  0  0  2  0  0  0  0  0  0
  181.1690  181.0830  138.4960 C   0  0  0  0  0  0  0  0  0  0  0  0
  180.3860  181.9090  137.6310 N   0  0  0  0  0  2  0  0  0  0  0  0
  182.3780  181.3620  138.7090 O   0  0  0  0  0  0  0  0  0  0  0  0
  180.6980  184.2220  137.6240 O   0  0  0  0  0  1  0  0  0  0  0  0
  180.9380  183.0450  136.9100 C   0  0  2  0  0  3  0  0  0  0  0  0
  180.2680  183.1430  135.5530 C   0  0  0  0  0  1  0  0  0  0  0  0
  180.4700  179.3590  141.8410 C   0  0  0  0  0  2  0  0  0  0  0  0
  180.0120  178.1940  143.9900 C   0  0  0  0  0  1  0  0  0  0  0  0
  179.5350  178.4020  142.5670 C   0  0  0  0  0  2  0  0  0  0  0  0
  2  1  1  0  0  0  0
  3  2  1  0  0  0  0
  3  5  1  0  0  0  0
  4  3  2  0  0  0  0
  5  6  1  1  0  0  0
  5  9  1  0  0  0  0
  9 12  2  0  0  0  0
  9 13  1  0  0  0  0
 10  8  2  0  0  0  0
 11  8  1  0  0  0  0
 11  7  1  0  0  0  0
 12 10  1  0  0  0  0
 13 11  2  0  0  0  0
 14 15  1  0  0  0  0
 14 12  1  0  0  0  0
 15 18  1  0  0  0  0
 16 15  2  0  0  0  0
 17 18  1  0  0  0  0
 18 19  1  1  0  0  0
 20 18  2  0  0  0  0
 21 38  1  1  0  0  0
 21  1  1  0  0  0  0
 22 32  1  6  0  0  0
 22 25  1  0  0  0  0
 23 29  1  6  0  0  0
 23 25  1  0  0  0  0
 24 23  1  0  0  0  0
 24 22  1  0  0  0  0
 25 21  1  1  0  0  0
 26 29  1  0  0  0  0
 29 28  2  0  0  0  0
 30 27  2  0  0  0  0
 30 28  1  0  0  0  0
 31 26  1  0  0  0  0
 31 30  1  0  0  0  0
 32 34  2  0  0  0  0
 33 32  1  0  0  0  0
 36 37  1  6  0  0  0
 36 35  1  0  0  0  0
 36 33  1  0  0  0  0
 38 40  1  0  0  0  0
 40 39  1  0  0  0  0
M  END
>  <MODEL>
2

>  <REMARK>
 VINA RESULT:      -7.2      2.675      3.679
  Name = 
  13 active torsions:
  status: ('A' for Active; 'I' for Inactive)
    1  A    between atoms: C_2  and  C_12
    2  A    between atoms: C_2  and  C_23
    3  A    between atoms: C_3  and  C_8
    4  A    between atoms: C_6  and  C_30
    5  A    between atoms: C_7  and  C_11
    6  A    between atoms: C_11  and  C_12
    7  A    between atoms: N_18  and  C_25
    8  A    between atoms: C_19  and  P_20
    9  A    between atoms: C_22  and  N_27
   10  A    between atoms: C_23  and  C_29
   11  A    between atoms: C_28  and  C_29
   12  A    between atoms: C_29  and  C_36
   13  A    between atoms: C_33  and  C_36
                            x       y       z     vdW  Elec       q    Type
                         _______ _______ _______ _____ _____    ______ ____

>  <TORSDO>
F 13

$$$$
=
 OpenBabel11042411423D

 40 42  0  0  1  0  0  0  0  0999 V2000
  183.8990  178.0030  140.3140 C   0  0  0  0  0  2  0  0  0  0  0  0
  184.2670  179.0050  141.4020 C   0  0  0  0  0  2  0  0  0  0  0  0
  184.7260  178.3120  142.6420 C   0  0  0  0  0  0  0  0  0  0  0  0
  183.9500  178.1580  143.5710 O   0  0  0  0  0  0  0  0  0  0  0  0
  186.1520  177.8510  142.7380 C   0  0  1  0  0  3  0  0  0  0  0  0
  187.0630  178.6040  141.7830 C   0  0  0  0  0  1  0  0  0  0  0  0
  185.7360  179.5330  147.3980 C   0  0  0  0  0  1  0  0  0  0  0  0
  187.5430  177.9140  146.8140 C   0  0  0  0  0  3  0  0  0  0  0  0
  186.6700  177.8270  144.1500 C   0  0  0  0  0  0  0  0  0  0  0  0
  188.2150  177.1170  145.8850 C   0  0  0  0  0  3  0  0  0  0  0  0
  186.4410  178.6710  146.4160 C   0  0  0  0  0  0  0  0  0  0  0  0
  187.7990  177.0720  144.5470 C   0  0  0  0  0  0  0  0  0  0  0  0
  186.0110  178.6300  145.0890 C   0  0  0  0  0  3  0  0  0  0  0  0
  188.4530  176.2120  143.6000 N   0  0  0  0  0  2  0  0  0  0  0  0
  189.8440  176.1400  143.2680 C   0  0  0  0  0  0  0  0  0  0  0  0
  190.2670  175.1030  142.6240 N   0  0  0  0  0  2  0  0  0  0  0  0
  191.7600  177.5000  144.8700 O   0  0  0  0  0  1  0  0  0  0  0  0
  190.9270  177.5670  143.3970 P   0  0  1  0  0  0  0  0  0  0  0  0
  192.1380  177.5630  142.0410 C   0  0  0  0  0  1  0  0  0  0  0  0
  190.1190  178.8410  143.3510 O   0  0  0  0  0  0  0  0  0  0  0  0
  183.6600  178.6890  138.9730 C   0  0  2  0  0  3  0  0  0  0  0  0
  181.2170  178.0480  139.3930 C   0  0  1  0  0  3  0  0  0  0  0  0
  181.6810  178.9030  137.3790 C   0  0  2  0  0  3  0  0  0  0  0  0
  180.4040  177.6700  137.8000 S   0  0  0  0  0  0  0  0  0  0  0  0
  182.1760  179.0700  138.8050 C   0  0  2  0  0  3  0  0  0  0  0  0
  180.5300  180.4720  135.3490 S   0  0  0  0  0  0  0  0  0  0  0  0
  179.8680  183.7030  137.5910 S   0  0  0  0  0  0  0  0  0  0  0  0
  180.8240  181.2680  137.6430 N   0  0  0  0  0  0  0  0  0  0  0  0
  181.0530  180.1700  136.8930 C   0  0  0  0  0  0  0  0  0  0  0  0
  180.2420  182.2680  136.9110 C   0  0  0  0  0  0  0  0  0  0  0  0
  179.9890  182.0250  135.5950 N   0  0  0  0  0  2  0  0  0  0  0  0
  180.2990  178.7210  140.3720 C   0  0  0  0  0  0  0  0  0  0  0  0
  180.6870  178.9130  141.7350 N   0  0  0  0  0  2  0  0  0  0  0  0
  179.1530  179.0720  139.9880 O   0  0  0  0  0  0  0  0  0  0  0  0
  180.0470  180.8000  142.9530 O   0  0  0  0  0  1  0  0  0  0  0  0
  179.7850  179.4430  142.7460 C   0  0  2  0  0  3  0  0  0  0  0  0
  180.0020  178.6920  144.0450 C   0  0  0  0  0  1  0  0  0  0  0  0
  184.2000  177.8060  137.8500 C   0  0  0  0  0  2  0  0  0  0  0  0
  186.3080  176.6810  137.1610 C   0  0  0  0  0  1  0  0  0  0  0  0
  185.7100  177.9540  137.7230 C   0  0  0  0  0  2  0  0  0  0  0  0
  1  2  1  0  0  0  0
  2  3  1  0  0  0  0
  3  5  1  0  0  0  0
  3  4  2  0  0  0  0
  5  6  1  6  0  0  0
  5  9  1  0  0  0  0
  9 12  2  0  0  0  0
  9 13  1  0  0  0  0
 10  8  2  0  0  0  0
 11  8  1  0  0  0  0
 11  7  1  0  0  0  0
 12 10  1  0  0  0  0
 13 11  2  0  0  0  0
 14 12  1  0  0  0  0
 15 18  1  0  0  0  0
 15 14  1  0  0  0  0
 16 15  2  0  0  0  0
 18 19  1  6  0  0  0
 18 17  1  0  0  0  0
 20 18  2  0  0  0  0
 21 38  1  6  0  0  0
 21  1  1  0  0  0  0
 22 32  1  1  0  0  0
 23 29  1  1  0  0  0
 23 24  1  0  0  0  0
 23 25  1  0  0  0  0
 24 22  1  0  0  0  0
 25 21  1  6  0  0  0
 25 22  1  0  0  0  0
 26 31  1  0  0  0  0
 26 29  1  0  0  0  0
 29 28  2  0  0  0  0
 30 27  2  0  0  0  0
 30 28  1  0  0  0  0
 31 30  1  0  0  0  0
 32 33  1  0  0  0  0
 33 36  1  0  0  0  0
 34 32  2  0  0  0  0
 36 35  1  0  0  0  0
 36 37  1  1  0  0  0
 39 40  1  0  0  0  0
 40 38  1  0  0  0  0
M  END
>  <MODEL>
3

>  <REMARK>
 VINA RESULT:      -7.2      3.285      5.373
  Name = 
  13 active torsions:
  status: ('A' for Active; 'I' for Inactive)
    1  A    between atoms: C_2  and  C_12
    2  A    between atoms: C_2  and  C_23
    3  A    between atoms: C_3  and  C_8
    4  A    between atoms: C_6  and  C_30
    5  A    between atoms: C_7  and  C_11
    6  A    between atoms: C_11  and  C_12
    7  A    between atoms: N_18  and  C_25
    8  A    between atoms: C_19  and  P_20
    9  A    between atoms: C_22  and  N_27
   10  A    between atoms: C_23  and  C_29
   11  A    between atoms: C_28  and  C_29
   12  A    between atoms: C_29  and  C_36
   13  A    between atoms: C_33  and  C_36
                            x       y       z     vdW  Elec       q    Type
                         _______ _______ _______ _____ _____    ______ ____

>  <TORSDO>
F 13

$$$$
=
 OpenBabel11042411423D

 40 42  0  0  1  0  0  0  0  0999 V2000
  182.7890  178.7210  141.0890 C   0  0  0  0  0  2  0  0  0  0  0  0
  184.0130  177.8470  141.3380 C   0  0  0  0  0  2  0  0  0  0  0  0
  185.2770  178.6150  141.1280 C   0  0  0  0  0  0  0  0  0  0  0  0
  185.2540  179.6540  140.4880 O   0  0  0  0  0  0  0  0  0  0  0  0
  186.5650  178.0700  141.6770 C   0  0  1  0  0  3  0  0  0  0  0  0
  187.7660  178.8920  141.2410 C   0  0  0  0  0  1  0  0  0  0  0  0
  184.3480  179.0330  146.0220 C   0  0  0  0  0  1  0  0  0  0  0  0
  186.3300  177.5190  145.9420 C   0  0  0  0  0  3  0  0  0  0  0  0
  186.5190  177.8340  143.1620 C   0  0  0  0  0  0  0  0  0  0  0  0
  187.3430  176.8690  145.2330 C   0  0  0  0  0  3  0  0  0  0  0  0
  185.4160  178.3280  145.2680 C   0  0  0  0  0  0  0  0  0  0  0  0
  187.4590  177.0260  143.8450 C   0  0  0  0  0  0  0  0  0  0  0  0
  185.5140  178.4870  143.8850 C   0  0  0  0  0  3  0  0  0  0  0  0
  188.4650  176.3170  143.1050 N   0  0  0  0  0  2  0  0  0  0  0  0
  189.8670  176.2090  143.3780 C   0  0  0  0  0  0  0  0  0  0  0  0
  190.5390  175.2850  142.7730 N   0  0  0  0  0  2  0  0  0  0  0  0
  189.7210  178.7850  144.5720 O   0  0  0  0  0  1  0  0  0  0  0  0
  190.7720  177.5010  144.2360 P   0  0  1  0  0  0  0  0  0  0  0  0
  191.4390  176.8670  145.8030 C   0  0  0  0  0  1  0  0  0  0  0  0
  191.9020  178.0070  143.3720 O   0  0  0  0  0  0  0  0  0  0  0  0
  181.5170  177.8880  140.9700 C   0  0  2  0  0  3  0  0  0  0  0  0
  181.4680  178.4120  138.4640 C   0  0  1  0  0  3  0  0  0  0  0  0
  179.9080  176.9920  139.2070 C   0  0  2  0  0  3  0  0  0  0  0  0
  179.7710  178.1760  137.8260 S   0  0  0  0  0  0  0  0  0  0  0  0
  181.3470  177.3430  139.5390 C   0  0  2  0  0  3  0  0  0  0  0  0
  179.5160  174.2390  139.6290 S   0  0  0  0  0  0  0  0  0  0  0  0
  179.9800  173.1280  135.8270 S   0  0  0  0  0  0  0  0  0  0  0  0
  179.9690  175.1990  137.4250 N   0  0  0  0  0  0  0  0  0  0  0  0
  179.8140  175.5860  138.7090 C   0  0  0  0  0  0  0  0  0  0  0  0
  179.8320  173.8440  137.2850 C   0  0  0  0  0  0  0  0  0  0  0  0
  179.5730  173.1150  138.4050 N   0  0  0  0  0  2  0  0  0  0  0  0
  182.5240  178.0140  137.4740 C   0  0  0  0  0  0  0  0  0  0  0  0
  183.7260  177.3650  137.8980 N   0  0  0  0  0  2  0  0  0  0  0  0
  182.3620  178.3100  136.2610 O   0  0  0  0  0  0  0  0  0  0  0  0
  185.1330  175.7140  137.0330 O   0  0  0  0  0  1  0  0  0  0  0  0
  184.8300  177.0780  136.9950 C   0  0  2  0  0  3  0  0  0  0  0  0
  186.0460  177.8690  137.4340 C   0  0  0  0  0  1  0  0  0  0  0  0
  180.3270  178.7090  141.4620 C   0  0  0  0  0  2  0  0  0  0  0  0
  180.5320  178.5760  143.9370 C   0  0  0  0  0  1  0  0  0  0  0  0
  180.6850  179.4760  142.7280 C   0  0  0  0  0  2  0  0  0  0  0  0
  1  2  1  0  0  0  0
  3  2  1  0  0  0  0
  3  5  1  0  0  0  0
  4  3  2  0  0  0  0
  5  6  1  1  0  0  0
  5  9  1  0  0  0  0
  9 12  2  0  0  0  0
  9 13  1  0  0  0  0
 10  8  2  0  0  0  0
 11  8  1  0  0  0  0
 11  7  1  0  0  0  0
 12 10  1  0  0  0  0
 13 11  2  0  0  0  0
 14 15  1  0  0  0  0
 14 12  1  0  0  0  0
 15 18  1  0  0  0  0
 16 15  2  0  0  0  0
 18 17  1  0  0  0  0
 18 19  1  1  0  0  0
 20 18  2  0  0  0  0
 21  1  1  6  0  0  0
 21 38  1  0  0  0  0
 22 32  1  6  0  0  0
 22 25  1  0  0  0  0
 23 29  1  6  0  0  0
 23 25  1  0  0  0  0
 24 22  1  0  0  0  0
 24 23  1  0  0  0  0
 25 21  1  1  0  0  0
 27 30  2  0  0  0  0
 28 29  2  0  0  0  0
 29 26  1  0  0  0  0
 30 28  1  0  0  0  0
 30 31  1  0  0  0  0
 31 26  1  0  0  0  0
 32 33  1  0  0  0  0
 34 32  2  0  0  0  0
 36 35  1  0  0  0  0
 36 37  1  1  0  0  0
 36 33  1  0  0  0  0
 38 40  1  0  0  0  0
 40 39  1  0  0  0  0
M  END
>  <MODEL>
4

>  <REMARK>
 VINA RESULT:      -7.1      1.871      2.419
  Name = 
  13 active torsions:
  status: ('A' for Active; 'I' for Inactive)
    1  A    between atoms: C_2  and  C_12
    2  A    between atoms: C_2  and  C_23
    3  A    between atoms: C_3  and  C_8
    4  A    between atoms: C_6  and  C_30
    5  A    between atoms: C_7  and  C_11
    6  A    between atoms: C_11  and  C_12
    7  A    between atoms: N_18  and  C_25
    8  A    between atoms: C_19  and  P_20
    9  A    between atoms: C_22  and  N_27
   10  A    between atoms: C_23  and  C_29
   11  A    between atoms: C_28  and  C_29
   12  A    between atoms: C_29  and  C_36
   13  A    between atoms: C_33  and  C_36
                            x       y       z     vdW  Elec       q    Type
                         _______ _______ _______ _____ _____    ______ ____

>  <TORSDO>
F 13

$$$$
=
 OpenBabel11042411423D

 40 42  0  0  1  0  0  0  0  0999 V2000
  184.9370  178.3590  142.0540 C   0  0  0  0  0  2  0  0  0  0  0  0
  185.3050  179.3770  140.9810 C   0  0  0  0  0  2  0  0  0  0  0  0
  184.5330  179.1410  139.7240 C   0  0  0  0  0  0  0  0  0  0  0  0
  184.0710  180.0900  139.1110 O   0  0  0  0  0  0  0  0  0  0  0  0
  184.3050  177.7310  139.2590 C   0  0  1  0  0  3  0  0  0  0  0  0
  182.9620  177.1870  139.7180 C   0  0  0  0  0  1  0  0  0  0  0  0
  182.5180  176.2340  134.8680 C   0  0  0  0  0  1  0  0  0  0  0  0
  184.8430  177.1280  135.0290 C   0  0  0  0  0  3  0  0  0  0  0  0
  184.5400  177.5520  137.7840 C   0  0  0  0  0  0  0  0  0  0  0  0
  185.9010  177.6530  135.7740 C   0  0  0  0  0  3  0  0  0  0  0  0
  183.6380  176.8090  135.6550 C   0  0  0  0  0  0  0  0  0  0  0  0
  185.7690  177.8590  137.1550 C   0  0  0  0  0  0  0  0  0  0  0  0
  183.4910  177.0170  137.0270 C   0  0  0  0  0  3  0  0  0  0  0  0
  186.8350  178.4510  137.9160 N   0  0  0  0  0  2  0  0  0  0  0  0
  188.2370  178.1580  137.8700 C   0  0  0  0  0  0  0  0  0  0  0  0
  189.0560  179.0030  138.4050 N   0  0  0  0  0  2  0  0  0  0  0  0
  187.6080  175.3990  137.5940 O   0  0  0  0  0  0  0  0  0  0  0  0
  188.8550  176.5320  137.4250 P   0  0  1  0  0  0  0  0  0  0  0  0
  189.4210  176.5260  135.6980 C   0  0  0  0  0  1  0  0  0  0  0  0
  189.9960  176.1420  138.3330 O   0  0  0  0  0  1  0  0  0  0  0  0
  185.3620  178.8250  143.4420 C   0  0  2  0  0  3  0  0  0  0  0  0
  187.4180  177.5080  142.6700 C   0  0  1  0  0  3  0  0  0  0  0  0
  186.7380  177.1370  144.7680 C   0  0  2  0  0  3  0  0  0  0  0  0
  187.5450  175.9590  143.6330 S   0  0  0  0  0  0  0  0  0  0  0  0
  186.7680  178.3010  143.7930 C   0  0  2  0  0  3  0  0  0  0  0  0
  187.1780  178.2530  147.3120 S   0  0  0  0  0  0  0  0  0  0  0  0
  190.9900  177.1280  147.6470 S   0  0  0  0  0  0  0  0  0  0  0  0
  188.9050  177.0440  146.0700 N   0  0  0  0  0  0  0  0  0  0  0  0
  187.6140  177.4200  145.9460 C   0  0  0  0  0  0  0  0  0  0  0  0
  189.4390  177.4560  147.2600 C   0  0  0  0  0  0  0  0  0  0  0  0
  188.6340  178.1540  148.1090 N   0  0  0  0  0  2  0  0  0  0  0  0
  188.7570  178.1040  142.3410 C   0  0  0  0  0  0  0  0  0  0  0  0
  189.9510  177.6220  142.9630 N   0  0  0  0  0  2  0  0  0  0  0  0
  188.8100  179.0760  141.5440 O   0  0  0  0  0  0  0  0  0  0  0  0
  192.2160  177.2740  142.5180 O   0  0  0  0  0  1  0  0  0  0  0  0
  191.2490  178.2500  142.7740 C   0  0  2  0  0  3  0  0  0  0  0  0
  191.6240  179.0010  144.0370 C   0  0  0  0  0  1  0  0  0  0  0  0
  184.2890  178.4370  144.4560 C   0  0  0  0  0  2  0  0  0  0  0  0
  181.8580  178.6280  143.9690 C   0  0  0  0  0  1  0  0  0  0  0  0
  183.1020  179.3880  144.3800 C   0  0  0  0  0  2  0  0  0  0  0  0
  2  1  1  0  0  0  0
  3  2  1  0  0  0  0
  4  3  2  0  0  0  0
  5  6  1  6  0  0  0
  5  3  1  0  0  0  0
  7 11  1  0  0  0  0
  8 11  2  0  0  0  0
  8 10  1  0  0  0  0
  9  5  1  0  0  0  0
 10 12  2  0  0  0  0
 11 13  1  0  0  0  0
 12  9  1  0  0  0  0
 12 14  1  0  0  0  0
 13  9  2  0  0  0  0
 15 14  1  0  0  0  0
 15 16  2  0  0  0  0
 18 19  1  6  0  0  0
 18 17  2  0  0  0  0
 18 15  1  0  0  0  0
 18 20  1  0  0  0  0
 21  1  1  6  0  0  0
 21 38  1  0  0  0  0
 22 32  1  1  0  0  0
 22 24  1  0  0  0  0
 22 25  1  0  0  0  0
 23 29  1  1  0  0  0
 24 23  1  0  0  0  0
 25 21  1  6  0  0  0
 25 23  1  0  0  0  0
 26 31  1  0  0  0  0
 28 30  1  0  0  0  0
 29 28  2  0  0  0  0
 29 26  1  0  0  0  0
 30 27  2  0  0  0  0
 30 31  1  0  0  0  0
 32 33  1  0  0  0  0
 34 32  2  0  0  0  0
 35 36  1  0  0  0  0
 36 33  1  0  0  0  0
 36 37  1  1  0  0  0
 39 40  1  0  0  0  0
 40 38  1  0  0  0  0
M  END
>  <MODEL>
5

>  <REMARK>
 VINA RESULT:      -7.0      3.922      8.157
  Name = 
  13 active torsions:
  status: ('A' for Active; 'I' for Inactive)
    1  A    between atoms: C_2  and  C_12
    2  A    between atoms: C_2  and  C_23
    3  A    between atoms: C_3  and  C_8
    4  A    between atoms: C_6  and  C_30
    5  A    between atoms: C_7  and  C_11
    6  A    between atoms: C_11  and  C_12
    7  A    between atoms: N_18  and  C_25
    8  A    between atoms: C_19  and  P_20
    9  A    between atoms: C_22  and  N_27
   10  A    between atoms: C_23  and  C_29
   11  A    between atoms: C_28  and  C_29
   12  A    between atoms: C_29  and  C_36
   13  A    between atoms: C_33  and  C_36
                            x       y       z     vdW  Elec       q    Type
                         _______ _______ _______ _____ _____    ______ ____

>  <TORSDO>
F 13

$$$$
=
 OpenBabel11042411423D

 40 42  0  0  1  0  0  0  0  0999 V2000
  188.8610  177.6110  139.2990 C   0  0  0  0  0  2  0  0  0  0  0  0
  187.9000  178.4350  140.1480 C   0  0  0  0  0  2  0  0  0  0  0  0
  188.1650  178.2420  141.6050 C   0  0  0  0  0  0  0  0  0  0  0  0
  189.1360  178.7750  142.1180 O   0  0  0  0  0  0  0  0  0  0  0  0
  187.2500  177.3610  142.4050 C   0  0  1  0  0  3  0  0  0  0  0  0
  188.0150  176.3250  143.2140 C   0  0  0  0  0  1  0  0  0  0  0  0
  185.3010  178.2640  146.8890 C   0  0  0  0  0  1  0  0  0  0  0  0
  184.4360  179.4760  144.8860 C   0  0  0  0  0  3  0  0  0  0  0  0
  186.2570  178.1350  143.2290 C   0  0  0  0  0  0  0  0  0  0  0  0
  184.4490  179.7310  143.5130 C   0  0  0  0  0  3  0  0  0  0  0  0
  185.3250  178.5500  145.4320 C   0  0  0  0  0  0  0  0  0  0  0  0
  185.3440  179.0600  142.6690 C   0  0  0  0  0  0  0  0  0  0  0  0
  186.2270  177.8810  144.6050 C   0  0  0  0  0  3  0  0  0  0  0  0
  185.3990  179.3600  141.2650 N   0  0  0  0  0  2  0  0  0  0  0  0
  184.3300  179.3790  140.3120 C   0  0  0  0  0  0  0  0  0  0  0  0
  184.5320  179.9650  139.1780 N   0  0  0  0  0  2  0  0  0  0  0  0
  181.9270  178.9250  141.7640 O   0  0  0  0  0  1  0  0  0  0  0  0
  182.8770  178.3380  140.4900 P   0  0  1  0  0  0  0  0  0  0  0  0
  181.8910  178.3680  138.9640 C   0  0  0  0  0  1  0  0  0  0  0  0
  183.2880  176.9200  140.8020 O   0  0  0  0  0  0  0  0  0  0  0  0
  188.1750  177.0440  138.0600 C   0  0  2  0  0  3  0  0  0  0  0  0
  190.4300  176.6070  136.9300 C   0  0  1  0  0  3  0  0  0  0  0  0
  188.6340  175.7350  135.9210 C   0  0  2  0  0  3  0  0  0  0  0  0
  190.1720  176.3320  135.1410 S   0  0  0  0  0  0  0  0  0  0  0  0
  189.0850  176.0300  137.3410 C   0  0  2  0  0  3  0  0  0  0  0  0
  189.7020  173.1670  135.5040 S   0  0  0  0  0  0  0  0  0  0  0  0
  186.2130  171.2420  135.3610 S   0  0  0  0  0  0  0  0  0  0  0  0
  187.3000  173.6010  135.6680 N   0  0  0  0  0  0  0  0  0  0  0  0
  188.4760  174.2620  135.7180 C   0  0  0  0  0  0  0  0  0  0  0  0
  187.4830  172.2600  135.4640 C   0  0  0  0  0  0  0  0  0  0  0  0
  188.7620  171.8060  135.3440 N   0  0  0  0  0  2  0  0  0  0  0  0
  191.5350  175.7630  137.4960 C   0  0  0  0  0  0  0  0  0  0  0  0
  192.8820  175.9060  137.0380 N   0  0  0  0  0  2  0  0  0  0  0  0
  191.2510  174.8820  138.3500 O   0  0  0  0  0  0  0  0  0  0  0  0
  195.1940  175.6260  137.2010 O   0  0  0  0  0  1  0  0  0  0  0  0
  193.9590  175.0260  137.4630 C   0  0  2  0  0  3  0  0  0  0  0  0
  193.8670  173.7230  136.6920 C   0  0  0  0  0  1  0  0  0  0  0  0
  187.7100  178.1950  137.1700 C   0  0  0  0  0  2  0  0  0  0  0  0
  185.4080  177.2670  137.3210 C   0  0  0  0  0  1  0  0  0  0  0  0
  186.4690  177.8020  136.3810 C   0  0  0  0  0  2  0  0  0  0  0  0
  1  2  1  0  0  0  0
  2  3  1  0  0  0  0
  3  4  2  0  0  0  0
  3  5  1  0  0  0  0
  5  6  1  1  0  0  0
  5  9  1  0  0  0  0
  8 11  1  0  0  0  0
  9 13  1  0  0  0  0
 10  8  2  0  0  0  0
 11  7  1  0  0  0  0
 12  9  2  0  0  0  0
 12 10  1  0  0  0  0
 13 11  2  0  0  0  0
 14 12  1  0  0  0  0
 15 18  1  0  0  0  0
 15 14  1  0  0  0  0
 16 15  2  0  0  0  0
 18 19  1  6  0  0  0
 18 20  2  0  0  0  0
 18 17  1  0  0  0  0
 21 38  1  6  0  0  0
 21  1  1  0  0  0  0
 22 25  1  0  0  0  0
 22 32  1  1  0  0  0
 23 29  1  1  0  0  0
 23 25  1  0  0  0  0
 24 23  1  0  0  0  0
 24 22  1  0  0  0  0
 25 21  1  6  0  0  0
 26 29  1  0  0  0  0
 27 30  2  0  0  0  0
 28 29  2  0  0  0  0
 30 28  1  0  0  0  0
 31 30  1  0  0  0  0
 31 26  1  0  0  0  0
 32 34  2  0  0  0  0
 33 36  1  0  0  0  0
 33 32  1  0  0  0  0
 35 36  1  0  0  0  0
 36 37  1  6  0  0  0
 40 38  1  0  0  0  0
 40 39  1  0  0  0  0
M  END
>  <MODEL>
6

>  <REMARK>
 VINA RESULT:      -6.9      3.963      6.105
  Name = 
  13 active torsions:
  status: ('A' for Active; 'I' for Inactive)
    1  A    between atoms: C_2  and  C_12
    2  A    between atoms: C_2  and  C_23
    3  A    between atoms: C_3  and  C_8
    4  A    between atoms: C_6  and  C_30
    5  A    between atoms: C_7  and  C_11
    6  A    between atoms: C_11  and  C_12
    7  A    between atoms: N_18  and  C_25
    8  A    between atoms: C_19  and  P_20
    9  A    between atoms: C_22  and  N_27
   10  A    between atoms: C_23  and  C_29
   11  A    between atoms: C_28  and  C_29
   12  A    between atoms: C_29  and  C_36
   13  A    between atoms: C_33  and  C_36
                            x       y       z     vdW  Elec       q    Type
                         _______ _______ _______ _____ _____    ______ ____

>  <TORSDO>
F 13

$$$$
=
 OpenBabel11042411423D

 40 42  0  0  1  0  0  0  0  0999 V2000
  188.6530  178.4920  139.7900 C   0  0  0  0  0  2  0  0  0  0  0  0
  189.0230  177.8800  141.1360 C   0  0  0  0  0  2  0  0  0  0  0  0
  187.8750  177.9410  142.0910 C   0  0  0  0  0  0  0  0  0  0  0  0
  187.0820  178.8660  142.0230 O   0  0  0  0  0  0  0  0  0  0  0  0
  187.7430  176.8810  143.1460 C   0  0  1  0  0  3  0  0  0  0  0  0
  188.8640  175.8570  143.0720 C   0  0  0  0  0  1  0  0  0  0  0  0
  184.5760  178.2630  146.7200 C   0  0  0  0  0  1  0  0  0  0  0  0
  187.0340  178.5140  147.0670 C   0  0  0  0  0  3  0  0  0  0  0  0
  187.5510  177.4450  144.5270 C   0  0  0  0  0  0  0  0  0  0  0  0
  188.3510  178.3870  146.6180 C   0  0  0  0  0  3  0  0  0  0  0  0
  185.9770  178.1130  146.2510 C   0  0  0  0  0  0  0  0  0  0  0  0
  188.6250  177.8670  145.3460 C   0  0  0  0  0  0  0  0  0  0  0  0
  186.2360  177.5860  144.9860 C   0  0  0  0  0  3  0  0  0  0  0  0
  189.9790  177.6830  144.9010 N   0  0  0  0  0  2  0  0  0  0  0  0
  191.0050  176.8640  145.4720 C   0  0  0  0  0  0  0  0  0  0  0  0
  192.0490  176.6010  144.7560 N   0  0  0  0  0  2  0  0  0  0  0  0
  189.5860  175.7940  147.6920 O   0  0  0  0  0  0  0  0  0  0  0  0
  191.0580  176.4910  147.2290 P   0  0  1  0  0  0  0  0  0  0  0  0
  192.3980  175.3150  147.5820 C   0  0  0  0  0  1  0  0  0  0  0  0
  191.2710  177.7570  148.0230 O   0  0  0  0  0  1  0  0  0  0  0  0
  189.1090  177.6150  138.6280 C   0  0  2  0  0  3  0  0  0  0  0  0
  188.2840  176.7100  136.3800 C   0  0  1  0  0  3  0  0  0  0  0  0
  187.0210  178.2930  137.3310 C   0  0  2  0  0  3  0  0  0  0  0  0
  187.2630  177.9800  135.5500 S   0  0  0  0  0  0  0  0  0  0  0  0
  187.9060  177.1470  137.7870 C   0  0  2  0  0  3  0  0  0  0  0  0
  184.9110  178.4050  139.1860 S   0  0  0  0  0  0  0  0  0  0  0  0
  182.1580  176.7180  136.8450 S   0  0  0  0  0  0  0  0  0  0  0  0
  184.6610  177.4740  136.9380 N   0  0  0  0  0  0  0  0  0  0  0  0
  185.6000  178.0440  137.7220 C   0  0  0  0  0  0  0  0  0  0  0  0
  183.4570  177.3770  137.5810 C   0  0  0  0  0  0  0  0  0  0  0  0
  183.3810  177.8440  138.8580 N   0  0  0  0  0  2  0  0  0  0  0  0
  187.7900  175.3130  136.1360 C   0  0  0  0  0  0  0  0  0  0  0  0
  187.1090  174.5820  137.1590 N   0  0  0  0  0  2  0  0  0  0  0  0
  188.0310  174.7690  135.0270 O   0  0  0  0  0  0  0  0  0  0  0  0
  185.7650  172.8530  137.9690 O   0  0  0  0  0  1  0  0  0  0  0  0
  186.7280  173.1860  137.0120 C   0  0  2  0  0  3  0  0  0  0  0  0
  187.9520  172.3140  137.2160 C   0  0  0  0  0  1  0  0  0  0  0  0
  189.9680  176.4730  139.1650 C   0  0  0  0  0  2  0  0  0  0  0  0
  191.4330  175.2000  137.6100 C   0  0  0  0  0  1  0  0  0  0  0  0
  191.3230  176.4410  138.4710 C   0  0  0  0  0  2  0  0  0  0  0  0
  1  2  1  0  0  0  0
  2  3  1  0  0  0  0
  3  5  1  0  0  0  0
  4  3  2  0  0  0  0
  5  6  1  1  0  0  0
  5  9  1  0  0  0  0
  9 13  2  0  0  0  0
  9 12  1  0  0  0  0
 10  8  1  0  0  0  0
 11  7  1  0  0  0  0
 11  8  2  0  0  0  0
 12 10  2  0  0  0  0
 13 11  1  0  0  0  0
 14 12  1  0  0  0  0
 14 15  1  0  0  0  0
 15 18  1  0  0  0  0
 16 15  2  0  0  0  0
 18 19  1  1  0  0  0
 18 17  2  0  0  0  0
 18 20  1  0  0  0  0
 21 38  1  1  0  0  0
 21  1  1  0  0  0  0
 22 32  1  6  0  0  0
 22 25  1  0  0  0  0
 23 29  1  6  0  0  0
 23 25  1  0  0  0  0
 24 22  1  0  0  0  0
 24 23  1  0  0  0  0
 25 21  1  1  0  0  0
 27 30  2  0  0  0  0
 28 30  1  0  0  0  0
 28 29  2  0  0  0  0
 29 26  1  0  0  0  0
 30 31  1  0  0  0  0
 31 26  1  0  0  0  0
 32 33  1  0  0  0  0
 34 32  2  0  0  0  0
 36 33  1  0  0  0  0
 36 37  1  1  0  0  0
 36 35  1  0  0  0  0
 39 40  1  0  0  0  0
 40 38  1  0  0  0  0
M  END
>  <MODEL>
7

>  <REMARK>
 VINA RESULT:      -6.9      2.857      5.014
  Name = 
  13 active torsions:
  status: ('A' for Active; 'I' for Inactive)
    1  A    between atoms: C_2  and  C_12
    2  A    between atoms: C_2  and  C_23
    3  A    between atoms: C_3  and  C_8
    4  A    between atoms: C_6  and  C_30
    5  A    between atoms: C_7  and  C_11
    6  A    between atoms: C_11  and  C_12
    7  A    between atoms: N_18  and  C_25
    8  A    between atoms: C_19  and  P_20
    9  A    between atoms: C_22  and  N_27
   10  A    between atoms: C_23  and  C_29
   11  A    between atoms: C_28  and  C_29
   12  A    between atoms: C_29  and  C_36
   13  A    between atoms: C_33  and  C_36
                            x       y       z     vdW  Elec       q    Type
                         _______ _______ _______ _____ _____    ______ ____

>  <TORSDO>
F 13

$$$$
=
 OpenBabel11042411423D

 40 42  0  0  1  0  0  0  0  0999 V2000
  188.9670  178.5600  139.1360 C   0  0  0  0  0  2  0  0  0  0  0  0
  187.8640  177.8740  139.9340 C   0  0  0  0  0  2  0  0  0  0  0  0
  187.9940  178.1640  141.3940 C   0  0  0  0  0  0  0  0  0  0  0  0
  188.7430  179.0510  141.7700 O   0  0  0  0  0  0  0  0  0  0  0  0
  187.2270  177.3270  142.3770 C   0  0  1  0  0  3  0  0  0  0  0  0
  188.1410  176.4500  143.2180 C   0  0  0  0  0  1  0  0  0  0  0  0
  185.3410  178.3130  146.8710 C   0  0  0  0  0  1  0  0  0  0  0  0
  184.4780  179.5190  144.8640 C   0  0  0  0  0  3  0  0  0  0  0  0
  186.2570  178.1280  143.2020 C   0  0  0  0  0  0  0  0  0  0  0  0
  184.4810  179.7600  143.4880 C   0  0  0  0  0  3  0  0  0  0  0  0
  185.3560  178.5830  145.4100 C   0  0  0  0  0  0  0  0  0  0  0  0
  185.3560  179.0640  142.6420 C   0  0  0  0  0  0  0  0  0  0  0  0
  186.2370  177.8890  144.5810 C   0  0  0  0  0  3  0  0  0  0  0  0
  185.4010  179.3470  141.2350 N   0  0  0  0  0  2  0  0  0  0  0  0
  184.3180  179.4160  140.3000 C   0  0  0  0  0  0  0  0  0  0  0  0
  184.5310  179.9800  139.1570 N   0  0  0  0  0  2  0  0  0  0  0  0
  183.2200  176.8190  140.6680 O   0  0  0  0  0  1  0  0  0  0  0  0
  182.8150  178.4560  140.5140 P   0  0  1  0  0  0  0  0  0  0  0  0
  181.9380  178.9860  142.0150 C   0  0  0  0  0  1  0  0  0  0  0  0
  181.9140  178.6250  139.3140 O   0  0  0  0  0  0  0  0  0  0  0  0
  190.0270  177.5660  138.6710 C   0  0  2  0  0  3  0  0  0  0  0  0
  190.5940  175.9790  136.7430 C   0  0  1  0  0  3  0  0  0  0  0  0
  189.0270  177.5190  136.3260 C   0  0  2  0  0  3  0  0  0  0  0  0
  190.2220  176.7970  135.1510 S   0  0  0  0  0  0  0  0  0  0  0  0
  189.4980  176.6980  137.5130 C   0  0  2  0  0  3  0  0  0  0  0  0
  187.1680  176.2990  134.6030 S   0  0  0  0  0  0  0  0  0  0  0  0
  183.9160  177.2220  136.7190 S   0  0  0  0  0  0  0  0  0  0  0  0
  186.5210  177.4530  136.6620 N   0  0  0  0  0  0  0  0  0  0  0  0
  187.6280  177.1450  135.9530 C   0  0  0  0  0  0  0  0  0  0  0  0
  185.3870  176.9770  136.0590 C   0  0  0  0  0  0  0  0  0  0  0  0
  185.5300  176.2960  134.8880 N   0  0  0  0  0  2  0  0  0  0  0  0
  190.3130  174.5050  136.7220 C   0  0  0  0  0  0  0  0  0  0  0  0
  188.9740  174.0110  136.6210 N   0  0  0  0  0  2  0  0  0  0  0  0
  191.2730  173.7010  136.8480 O   0  0  0  0  0  0  0  0  0  0  0  0
  188.6810  172.0060  135.4600 O   0  0  0  0  0  1  0  0  0  0  0  0
  188.6440  172.5980  136.7260 C   0  0  2  0  0  3  0  0  0  0  0  0
  187.2460  172.4580  137.2990 C   0  0  0  0  0  1  0  0  0  0  0  0
  190.5230  176.7600  139.8680 C   0  0  0  0  0  2  0  0  0  0  0  0
  191.6470  177.1600  142.0510 C   0  0  0  0  0  1  0  0  0  0  0  0
  191.6660  177.4800  140.5700 C   0  0  0  0  0  2  0  0  0  0  0  0
  1  2  1  0  0  0  0
  2  3  1  0  0  0  0
  3  4  2  0  0  0  0
  3  5  1  0  0  0  0
  5  9  1  0  0  0  0
  5  6  1  1  0  0  0
  8 11  1  0  0  0  0
  9 13  1  0  0  0  0
 10  8  2  0  0  0  0
 11  7  1  0  0  0  0
 12  9  2  0  0  0  0
 12 10  1  0  0  0  0
 13 11  2  0  0  0  0
 14 12  1  0  0  0  0
 15 18  1  0  0  0  0
 15 14  1  0  0  0  0
 16 15  2  0  0  0  0
 18 17  1  0  0  0  0
 18 19  1  1  0  0  0
 20 18  2  0  0  0  0
 21  1  1  1  0  0  0
 21 38  1  0  0  0  0
 22 32  1  6  0  0  0
 22 25  1  0  0  0  0
 23 29  1  6  0  0  0
 23 25  1  0  0  0  0
 24 23  1  0  0  0  0
 24 22  1  0  0  0  0
 25 21  1  1  0  0  0
 26 31  1  0  0  0  0
 26 29  1  0  0  0  0
 29 28  2  0  0  0  0
 30 28  1  0  0  0  0
 30 27  2  0  0  0  0
 31 30  1  0  0  0  0
 32 34  2  0  0  0  0
 33 32  1  0  0  0  0
 33 36  1  0  0  0  0
 35 36  1  0  0  0  0
 36 37  1  6  0  0  0
 38 40  1  0  0  0  0
 40 39  1  0  0  0  0
M  END
>  <MODEL>
8

>  <REMARK>
 VINA RESULT:      -6.9      3.491      6.386
  Name = 
  13 active torsions:
  status: ('A' for Active; 'I' for Inactive)
    1  A    between atoms: C_2  and  C_12
    2  A    between atoms: C_2  and  C_23
    3  A    between atoms: C_3  and  C_8
    4  A    between atoms: C_6  and  C_30
    5  A    between atoms: C_7  and  C_11
    6  A    between atoms: C_11  and  C_12
    7  A    between atoms: N_18  and  C_25
    8  A    between atoms: C_19  and  P_20
    9  A    between atoms: C_22  and  N_27
   10  A    between atoms: C_23  and  C_29
   11  A    between atoms: C_28  and  C_29
   12  A    between atoms: C_29  and  C_36
   13  A    between atoms: C_33  and  C_36
                            x       y       z     vdW  Elec       q    Type
                         _______ _______ _______ _____ _____    ______ ____

>  <TORSDO>
F 13

$$$$
=
 OpenBabel11042411423D

 40 42  0  0  1  0  0  0  0  0999 V2000
  183.4960  177.9890  140.9050 C   0  0  0  0  0  2  0  0  0  0  0  0
  183.5000  178.3630  142.3830 C   0  0  0  0  0  2  0  0  0  0  0  0
  184.8190  178.9300  142.7930 C   0  0  0  0  0  0  0  0  0  0  0  0
  184.9160  180.1230  143.0340 O   0  0  0  0  0  0  0  0  0  0  0  0
  186.0150  178.0250  142.8630 C   0  0  1  0  0  3  0  0  0  0  0  0
  187.0690  178.3890  141.8290 C   0  0  0  0  0  1  0  0  0  0  0  0
  185.7100  179.3060  147.6570 C   0  0  0  0  0  1  0  0  0  0  0  0
  187.5240  177.7740  146.8890 C   0  0  0  0  0  3  0  0  0  0  0  0
  186.5750  177.8940  144.2530 C   0  0  0  0  0  0  0  0  0  0  0  0
  188.1810  177.0680  145.8770 C   0  0  0  0  0  3  0  0  0  0  0  0
  186.3990  178.5410  146.5860 C   0  0  0  0  0  0  0  0  0  0  0  0
  187.7260  177.1280  144.5530 C   0  0  0  0  0  0  0  0  0  0  0  0
  185.9320  178.6030  145.2740 C   0  0  0  0  0  3  0  0  0  0  0  0
  188.3650  176.3610  143.5190 N   0  0  0  0  0  2  0  0  0  0  0  0
  189.7640  176.2290  143.2380 C   0  0  0  0  0  0  0  0  0  0  0  0
  190.1440  175.2630  142.4690 N   0  0  0  0  0  2  0  0  0  0  0  0
  190.1450  179.0280  143.5570 O   0  0  0  0  0  1  0  0  0  0  0  0
  190.9390  177.5330  143.6170 P   0  0  1  0  0  0  0  0  0  0  0  0
  191.6210  177.3000  145.2860 C   0  0  0  0  0  1  0  0  0  0  0  0
  192.0600  177.5350  142.6060 O   0  0  0  0  0  0  0  0  0  0  0  0
  183.2900  179.2110  140.0150 C   0  0  2  0  0  3  0  0  0  0  0  0
  180.8570  179.9920  139.8430 C   0  0  1  0  0  3  0  0  0  0  0  0
  181.2210  177.8120  139.5010 C   0  0  2  0  0  3  0  0  0  0  0  0
  179.7410  178.5950  140.2250 S   0  0  0  0  0  0  0  0  0  0  0  0
  181.9530  179.1180  139.2540 C   0  0  2  0  0  3  0  0  0  0  0  0
  179.4650  177.3000  137.3650 S   0  0  0  0  0  0  0  0  0  0  0  0
  181.8770  174.8200  135.3800 S   0  0  0  0  0  0  0  0  0  0  0  0
  181.6950  176.3050  137.5260 N   0  0  0  0  0  0  0  0  0  0  0  0
  180.8860  177.1460  138.2050 C   0  0  0  0  0  0  0  0  0  0  0  0
  181.1030  175.8540  136.3770 C   0  0  0  0  0  0  0  0  0  0  0  0
  179.8450  176.2930  136.0970 N   0  0  0  0  0  2  0  0  0  0  0  0
  180.3120  180.9020  138.7810 C   0  0  0  0  0  0  0  0  0  0  0  0
  181.1020  181.9660  138.2430 N   0  0  0  0  0  2  0  0  0  0  0  0
  179.1200  180.7500  138.4030 O   0  0  0  0  0  0  0  0  0  0  0  0
  180.4240  182.3700  136.0460 O   0  0  0  0  0  1  0  0  0  0  0  0
  180.5740  182.9480  137.3100 C   0  0  2  0  0  3  0  0  0  0  0  0
  181.5450  184.1090  137.2120 C   0  0  0  0  0  1  0  0  0  0  0  0
  184.5050  179.3860  139.1080 C   0  0  0  0  0  2  0  0  0  0  0  0
  186.2220  178.2030  137.7530 C   0  0  0  0  0  1  0  0  0  0  0  0
  184.8830  178.0670  138.4470 C   0  0  0  0  0  2  0  0  0  0  0  0
  1  2  1  0  0  0  0
  2  3  1  0  0  0  0
  3  5  1  0  0  0  0
  3  4  2  0  0  0  0
  5  6  1  6  0  0  0
  5  9  1  0  0  0  0
  9 12  2  0  0  0  0
  9 13  1  0  0  0  0
 10  8  2  0  0  0  0
 11  8  1  0  0  0  0
 11  7  1  0  0  0  0
 12 10  1  0  0  0  0
 13 11  2  0  0  0  0
 14 12  1  0  0  0  0
 15 14  1  0  0  0  0
 15 18  1  0  0  0  0
 16 15  2  0  0  0  0
 17 18  1  0  0  0  0
 18 19  1  1  0  0  0
 20 18  2  0  0  0  0
 21 38  1  6  0  0  0
 21  1  1  0  0  0  0
 22 32  1  6  0  0  0
 22 24  1  0  0  0  0
 23 29  1  6  0  0  0
 23 24  1  0  0  0  0
 25 23  1  0  0  0  0
 25 22  1  0  0  0  0
 25 21  1  1  0  0  0
 26 29  1  0  0  0  0
 27 30  2  0  0  0  0
 28 29  2  0  0  0  0
 30 28  1  0  0  0  0
 31 30  1  0  0  0  0
 31 26  1  0  0  0  0
 33 32  1  0  0  0  0
 34 32  2  0  0  0  0
 35 36  1  0  0  0  0
 36 37  1  6  0  0  0
 36 33  1  0  0  0  0
 39 40  1  0  0  0  0
 40 38  1  0  0  0  0
M  END
>  <MODEL>
9

>  <REMARK>
 VINA RESULT:      -6.8      2.915      4.048
  Name = 
  13 active torsions:
  status: ('A' for Active; 'I' for Inactive)
    1  A    between atoms: C_2  and  C_12
    2  A    between atoms: C_2  and  C_23
    3  A    between atoms: C_3  and  C_8
    4  A    between atoms: C_6  and  C_30
    5  A    between atoms: C_7  and  C_11
    6  A    between atoms: C_11  and  C_12
    7  A    between atoms: N_18  and  C_25
    8  A    between atoms: C_19  and  P_20
    9  A    between atoms: C_22  and  N_27
   10  A    between atoms: C_23  and  C_29
   11  A    between atoms: C_28  and  C_29
   12  A    between atoms: C_29  and  C_36
   13  A    between atoms: C_33  and  C_36
                            x       y       z     vdW  Elec       q    Type
                         _______ _______ _______ _____ _____    ______ ____

>  <TORSDO>
F 13

$$$$
