=
 OpenBabel11042413123D

 32 37  0  0  1  0  0  0  0  0999 V2000
  188.0660  177.9090  137.0670 C   0  0  1  0  0  3  0  0  0  0  0  0
  187.6960  178.0070  142.1280 C   0  0  0  0  0  0  0  0  0  0  0  0
  183.0420  179.0190  142.8960 C   0  0  0  0  0  3  0  0  0  0  0  0
  183.2040  178.9080  144.2750 C   0  0  0  0  0  3  0  0  0  0  0  0
  189.2250  177.5550  144.0540 C   0  0  0  0  0  0  0  0  0  0  0  0
  189.3580  177.4500  145.4400 C   0  0  0  0  0  0  0  0  0  0  0  0
  188.4970  177.9490  139.9310 C   0  0  0  0  0  0  0  0  0  0  0  0
  186.2060  178.4440  140.3120 N   0  0  0  0  0  0  0  0  0  0  0  0
  188.7760  177.4670  147.5550 C   0  0  0  0  0  0  0  0  0  0  0  0
  186.9660  178.4740  137.9660 C   0  0  0  0  0  2  0  0  0  0  0  0
  184.1020  178.8240  142.0670 N   0  0  0  0  0  0  0  0  0  0  0  0
  186.4040  178.3240  141.6510 C   0  0  0  0  0  0  0  0  0  0  0  0
  185.3430  178.5170  142.5400 C   0  0  0  0  0  0  0  0  0  0  0  0
  186.8350  178.0760  144.4270 C   0  0  0  0  0  0  0  0  0  0  0  0
  190.1260  177.1670  147.4340 C   0  0  0  0  0  3  0  0  0  0  0  0
  189.4470  178.2730  137.6210 C   0  0  0  0  0  2  0  0  0  0  0  0
  187.2190  178.2540  139.4320 C   0  0  0  0  0  0  0  0  0  0  0  0
  190.4820  177.1580  146.1260 N   0  0  0  0  0  0  0  0  0  0  0  0
  189.6600  177.6880  139.0170 C   0  0  0  0  0  2  0  0  0  0  0  0
  184.4610  178.5950  144.7890 C   0  0  0  0  0  3  0  0  0  0  0  0
  185.5540  178.3940  143.9300 C   0  0  0  0  0  0  0  0  0  0  0  0
  187.0350  177.9560  145.8190 C   0  0  0  0  0  3  0  0  0  0  0  0
  188.6770  177.8340  141.2430 O   0  0  0  0  0  0  0  0  0  0  0  0
  190.4370  177.3260  143.2080 C   0  0  0  0  0  1  0  0  0  0  0  0
  188.0050  177.5720  148.8240 C   0  0  0  0  0  1  0  0  0  0  0  0
  187.9340  177.8780  143.5210 C   0  0  0  0  0  0  0  0  0  0  0  0
  188.3030  177.6430  146.2800 C   0  0  0  0  0  0  0  0  0  0  0  0
  187.8970  176.4060  136.8850 C   0  0  0  0  0  2  0  0  0  0  0  0
  189.8290  174.9330  136.2460 C   0  0  0  0  0  0  0  0  0  0  0  0
  188.8510  175.9120  135.9050 N   0  0  0  0  0  2  0  0  0  0  0  0
  190.6380  174.5280  135.3710 O   0  0  0  0  0  0  0  0  0  0  0  0
  189.8990  174.4220  137.5370 O   0  0  0  0  0  1  0  0  0  0  0  0
  1 28  1  1  0  0  0
  1 16  1  0  0  0  0
  1 10  1  0  0  0  0
  2 26  2  0  0  0  0
  3  4  1  0  0  0  0
  4 20  2  0  0  0  0
  5  6  2  0  0  0  0
  6 18  1  0  0  0  0
  6 27  1  0  0  0  0
  7 23  1  0  0  0  0
  8 12  2  0  0  0  0
  9 25  1  0  0  0  0
 10 17  1  0  0  0  0
 11 13  1  0  0  0  0
 11  3  2  0  0  0  0
 12  2  1  0  0  0  0
 12 13  1  0  0  0  0
 13 21  2  0  0  0  0
 14 22  2  0  0  0  0
 15  9  1  0  0  0  0
 16 19  1  0  0  0  0
 17  7  2  0  0  0  0
 17  8  1  0  0  0  0
 18 15  2  0  0  0  0
 19  7  1  0  0  0  0
 21 14  1  0  0  0  0
 21 20  1  0  0  0  0
 22 27  1  0  0  0  0
 23  2  1  0  0  0  0
 24  5  1  0  0  0  0
 26  5  1  0  0  0  0
 26 14  1  0  0  0  0
 27  9  2  0  0  0  0
 29 32  1  0  0  0  0
 30 29  1  0  0  0  0
 30 28  1  0  0  0  0
 31 29  2  0  0  0  0
M  END
>  <MODEL>
1

>  <REMARK>
 VINA RESULT:     -11.2      0.000      0.000
  Name = 
  2 active torsions:
  status: ('A' for Active; 'I' for Inactive)
    1  A    between atoms: C_2  and  C_24
    2  A    between atoms: N_10  and  C_24
                            x       y       z     vdW  Elec       q    Type
                         _______ _______ _______ _____ _____    ______ ____

>  <TORSDO>
F 2

$$$$
=
 OpenBabel11042413123D

 32 37  0  0  1  0  0  0  0  0999 V2000
  188.0190  177.9210  137.0380 C   0  0  1  0  0  3  0  0  0  0  0  0
  187.6920  177.9950  142.1020 C   0  0  0  0  0  0  0  0  0  0  0  0
  183.0620  179.0810  142.9150 C   0  0  0  0  0  3  0  0  0  0  0  0
  183.2340  178.9590  144.2920 C   0  0  0  0  0  3  0  0  0  0  0  0
  189.2280  177.5040  144.0120 C   0  0  0  0  0  0  0  0  0  0  0  0
  189.3710  177.3890  145.3970 C   0  0  0  0  0  0  0  0  0  0  0  0
  188.4740  177.9370  139.8980 C   0  0  0  0  0  0  0  0  0  0  0  0
  186.1950  178.4690  140.3010 N   0  0  0  0  0  0  0  0  0  0  0  0
  188.8070  177.4020  147.5170 C   0  0  0  0  0  0  0  0  0  0  0  0
  186.9360  178.5000  137.9490 C   0  0  0  0  0  2  0  0  0  0  0  0
  184.1120  178.8740  142.0760 N   0  0  0  0  0  0  0  0  0  0  0  0
  186.4020  178.3370  141.6380 C   0  0  0  0  0  0  0  0  0  0  0  0
  185.3520  178.5420  142.5370 C   0  0  0  0  0  0  0  0  0  0  0  0
  186.8510  178.0640  144.4090 C   0  0  0  0  0  0  0  0  0  0  0  0
  190.1500  177.0800  147.3830 C   0  0  0  0  0  3  0  0  0  0  0  0
  189.4100  178.2580  137.5820 C   0  0  0  0  0  2  0  0  0  0  0  0
  187.1980  178.2660  139.4110 C   0  0  0  0  0  0  0  0  0  0  0  0
  190.4950  177.0730  146.0720 N   0  0  0  0  0  0  0  0  0  0  0  0
  189.6250  177.6610  138.9730 C   0  0  0  0  0  2  0  0  0  0  0  0
  184.4900  178.6210  144.7940 C   0  0  0  0  0  3  0  0  0  0  0  0
  185.5720  178.4070  143.9250 C   0  0  0  0  0  0  0  0  0  0  0  0
  187.0600  177.9320  145.7990 C   0  0  0  0  0  3  0  0  0  0  0  0
  188.6620  177.8110  141.2080 O   0  0  0  0  0  0  0  0  0  0  0  0
  190.4300  177.2590  143.1550 C   0  0  0  0  0  1  0  0  0  0  0  0
  188.0490  177.5130  148.7920 C   0  0  0  0  0  1  0  0  0  0  0  0
  187.9390  177.8520  143.4920 C   0  0  0  0  0  0  0  0  0  0  0  0
  188.3270  177.5950  146.2470 C   0  0  0  0  0  0  0  0  0  0  0  0
  187.8220  176.4230  136.8480 C   0  0  0  0  0  2  0  0  0  0  0  0
  185.8960  174.8110  136.8920 C   0  0  0  0  0  0  0  0  0  0  0  0
  186.4110  176.1230  136.6770 N   0  0  0  0  0  2  0  0  0  0  0  0
  184.6670  174.5890  136.7360 O   0  0  0  0  0  0  0  0  0  0  0  0
  186.7400  173.7740  137.2730 O   0  0  0  0  0  1  0  0  0  0  0  0
  1 28  1  1  0  0  0
  1 16  1  0  0  0  0
  1 10  1  0  0  0  0
  2 26  2  0  0  0  0
  3  4  1  0  0  0  0
  4 20  2  0  0  0  0
  5  6  2  0  0  0  0
  6 18  1  0  0  0  0
  6 27  1  0  0  0  0
  7 23  1  0  0  0  0
  8 12  2  0  0  0  0
  9 25  1  0  0  0  0
 10 17  1  0  0  0  0
 11 13  1  0  0  0  0
 11  3  2  0  0  0  0
 12  2  1  0  0  0  0
 12 13  1  0  0  0  0
 13 21  2  0  0  0  0
 14 22  2  0  0  0  0
 15  9  1  0  0  0  0
 16 19  1  0  0  0  0
 17  7  2  0  0  0  0
 17  8  1  0  0  0  0
 18 15  2  0  0  0  0
 19  7  1  0  0  0  0
 21 14  1  0  0  0  0
 21 20  1  0  0  0  0
 22 27  1  0  0  0  0
 23  2  1  0  0  0  0
 24  5  1  0  0  0  0
 26  5  1  0  0  0  0
 26 14  1  0  0  0  0
 27  9  2  0  0  0  0
 29 32  1  0  0  0  0
 30 28  1  0  0  0  0
 30 29  1  0  0  0  0
 31 29  2  0  0  0  0
M  END
>  <MODEL>
2

>  <REMARK>
 VINA RESULT:     -11.1      1.272      1.485
  Name = 
  2 active torsions:
  status: ('A' for Active; 'I' for Inactive)
    1  A    between atoms: C_2  and  C_24
    2  A    between atoms: N_10  and  C_24
                            x       y       z     vdW  Elec       q    Type
                         _______ _______ _______ _____ _____    ______ ____

>  <TORSDO>
F 2

$$$$
=
 OpenBabel11042413123D

 32 37  0  0  1  0  0  0  0  0999 V2000
  189.3830  176.7640  137.1830 C   0  0  1  0  0  3  0  0  0  0  0  0
  188.6050  177.4970  142.1440 C   0  0  0  0  0  0  0  0  0  0  0  0
  184.0270  179.0050  142.3530 C   0  0  0  0  0  3  0  0  0  0  0  0
  184.0620  179.0450  143.7450 C   0  0  0  0  0  3  0  0  0  0  0  0
  189.9150  177.1420  144.2440 C   0  0  0  0  0  0  0  0  0  0  0  0
  189.9210  177.1920  145.6390 C   0  0  0  0  0  0  0  0  0  0  0  0
  189.5760  177.1060  140.0520 C   0  0  0  0  0  0  0  0  0  0  0  0
  187.3220  177.8460  140.1590 N   0  0  0  0  0  0  0  0  0  0  0  0
  189.1690  177.5120  147.6750 C   0  0  0  0  0  0  0  0  0  0  0  0
  188.2740  177.5290  137.9060 C   0  0  0  0  0  2  0  0  0  0  0  0
  185.1270  178.6190  141.6550 N   0  0  0  0  0  0  0  0  0  0  0  0
  187.3950  177.8690  141.5160 C   0  0  0  0  0  0  0  0  0  0  0  0
  186.2880  178.2600  142.2740 C   0  0  0  0  0  0  0  0  0  0  0  0
  187.5660  177.9160  144.3310 C   0  0  0  0  0  0  0  0  0  0  0  0
  190.4880  177.0800  147.7160 C   0  0  0  0  0  3  0  0  0  0  0  0
  190.7430  177.0660  137.8200 C   0  0  0  0  0  2  0  0  0  0  0  0
  188.3810  177.4630  139.4040 C   0  0  0  0  0  0  0  0  0  0  0  0
  190.9490  176.8830  146.4560 N   0  0  0  0  0  0  0  0  0  0  0  0
  190.7790  176.6350  139.2860 C   0  0  0  0  0  2  0  0  0  0  0  0
  185.2340  178.6850  144.4070 C   0  0  0  0  0  3  0  0  0  0  0  0
  186.3690  178.2860  143.6830 C   0  0  0  0  0  0  0  0  0  0  0  0
  187.6360  177.9450  145.7400 C   0  0  0  0  0  3  0  0  0  0  0  0
  189.6330  177.1330  141.3800 O   0  0  0  0  0  0  0  0  0  0  0  0
  191.1650  176.7060  143.5460 C   0  0  0  0  0  1  0  0  0  0  0  0
  188.3100  177.8360  148.8460 C   0  0  0  0  0  1  0  0  0  0  0  0
  188.7120  177.5130  143.5590 C   0  0  0  0  0  0  0  0  0  0  0  0
  188.8250  177.5770  146.3500 C   0  0  0  0  0  0  0  0  0  0  0  0
  189.0810  175.2710  137.1530 C   0  0  0  0  0  2  0  0  0  0  0  0
  187.2110  173.7290  136.4930 C   0  0  0  0  0  0  0  0  0  0  0  0
  187.7420  175.0450  136.6350 N   0  0  0  0  0  2  0  0  0  0  0  0
  186.0470  173.5710  136.0430 O   0  0  0  0  0  0  0  0  0  0  0  0
  187.9680  172.6190  136.8470 O   0  0  0  0  0  1  0  0  0  0  0  0
  1 28  1  1  0  0  0
  1 16  1  0  0  0  0
  1 10  1  0  0  0  0
  2 26  2  0  0  0  0
  3  4  1  0  0  0  0
  4 20  2  0  0  0  0
  5  6  2  0  0  0  0
  6 27  1  0  0  0  0
  6 18  1  0  0  0  0
  7 23  1  0  0  0  0
  8 12  2  0  0  0  0
  9 15  1  0  0  0  0
  9 25  1  0  0  0  0
 10 17  1  0  0  0  0
 11 13  1  0  0  0  0
 11  3  2  0  0  0  0
 12  2  1  0  0  0  0
 12 13  1  0  0  0  0
 13 21  2  0  0  0  0
 14 22  2  0  0  0  0
 16 19  1  0  0  0  0
 17  7  2  0  0  0  0
 17  8  1  0  0  0  0
 18 15  2  0  0  0  0
 19  7  1  0  0  0  0
 21 14  1  0  0  0  0
 21 20  1  0  0  0  0
 22 27  1  0  0  0  0
 23  2  1  0  0  0  0
 24  5  1  0  0  0  0
 26  5  1  0  0  0  0
 26 14  1  0  0  0  0
 27  9  2  0  0  0  0
 29 30  1  0  0  0  0
 29 32  1  0  0  0  0
 30 28  1  0  0  0  0
 31 29  2  0  0  0  0
M  END
>  <MODEL>
3

>  <REMARK>
 VINA RESULT:     -10.4      1.395      1.533
  Name = 
  2 active torsions:
  status: ('A' for Active; 'I' for Inactive)
    1  A    between atoms: C_2  and  C_24
    2  A    between atoms: N_10  and  C_24
                            x       y       z     vdW  Elec       q    Type
                         _______ _______ _______ _____ _____    ______ ____

>  <TORSDO>
F 2

$$$$
=
 OpenBabel11042413123D

 32 37  0  0  1  0  0  0  0  0999 V2000
  181.4390  180.0420  138.3300 C   0  0  1  0  0  3  0  0  0  0  0  0
  185.1100  178.6310  141.5380 C   0  0  0  0  0  0  0  0  0  0  0  0
  188.9530  178.0730  138.6760 C   0  0  0  0  0  3  0  0  0  0  0  0
  189.7720  177.7860  139.7650 C   0  0  0  0  0  3  0  0  0  0  0  0
  185.3250  178.3410  144.0120 C   0  0  0  0  0  0  0  0  0  0  0  0
  186.1700  178.0490  145.0850 C   0  0  0  0  0  0  0  0  0  0  0  0
  183.0470  179.1730  140.5760 C   0  0  0  0  0  0  0  0  0  0  0  0
  184.9420  178.9010  139.1700 N   0  0  0  0  0  0  0  0  0  0  0  0
  188.0200  177.5390  146.1480 C   0  0  0  0  0  0  0  0  0  0  0  0
  182.8020  179.4050  138.0530 C   0  0  0  0  0  2  0  0  0  0  0  0
  187.6340  178.3430  138.8670 N   0  0  0  0  0  0  0  0  0  0  0  0
  185.7090  178.6280  140.2580 C   0  0  0  0  0  0  0  0  0  0  0  0
  187.0690  178.3450  140.1080 C   0  0  0  0  0  0  0  0  0  0  0  0
  187.2840  178.0580  142.5280 C   0  0  0  0  0  0  0  0  0  0  0  0
  186.9750  177.6800  147.0510 C   0  0  0  0  0  3  0  0  0  0  0  0
  180.7660  179.3630  139.5270 C   0  0  0  0  0  2  0  0  0  0  0  0
  183.6220  179.1860  139.2940 C   0  0  0  0  0  0  0  0  0  0  0  0
  185.8330  177.9950  146.3900 N   0  0  0  0  0  0  0  0  0  0  0  0
  181.6020  179.5160  140.7970 C   0  0  0  0  0  2  0  0  0  0  0  0
  189.2240  177.7790  141.0460 C   0  0  0  0  0  3  0  0  0  0  0  0
  187.8610  178.0580  141.2410 C   0  0  0  0  0  0  0  0  0  0  0  0
  188.0860  177.7710  143.6540 C   0  0  0  0  0  3  0  0  0  0  0  0
  183.8100  178.9050  141.6320 O   0  0  0  0  0  0  0  0  0  0  0  0
  183.8860  178.6280  144.3040 C   0  0  0  0  0  1  0  0  0  0  0  0
  189.4300  177.1980  146.4780 C   0  0  0  0  0  1  0  0  0  0  0  0
  185.8850  178.3470  142.6930 C   0  0  0  0  0  0  0  0  0  0  0  0
  187.4920  177.7770  144.9050 C   0  0  0  0  0  0  0  0  0  0  0  0
  181.5750  181.5470  138.5230 C   0  0  0  0  0  2  0  0  0  0  0  0
  181.1810  183.5520  137.0630 C   0  0  0  0  0  0  0  0  0  0  0  0
  180.8080  182.2500  137.5080 N   0  0  0  0  0  2  0  0  0  0  0  0
  180.4940  184.1300  136.1810 O   0  0  0  0  0  0  0  0  0  0  0  0
  182.2960  184.1890  137.5930 O   0  0  0  0  0  1  0  0  0  0  0  0
  1 28  1  1  0  0  0
  1 16  1  0  0  0  0
  2 23  1  0  0  0  0
  2 26  2  0  0  0  0
  3 11  2  0  0  0  0
  3  4  1  0  0  0  0
  4 20  2  0  0  0  0
  5 24  1  0  0  0  0
  5  6  2  0  0  0  0
  6 18  1  0  0  0  0
  7 19  1  0  0  0  0
  7 23  1  0  0  0  0
  8 17  1  0  0  0  0
  8 12  2  0  0  0  0
  9 25  1  0  0  0  0
  9 15  1  0  0  0  0
 10  1  1  0  0  0  0
 10 17  1  0  0  0  0
 11 13  1  0  0  0  0
 12  2  1  0  0  0  0
 13 12  1  0  0  0  0
 13 21  2  0  0  0  0
 14 26  1  0  0  0  0
 14 22  2  0  0  0  0
 16 19  1  0  0  0  0
 17  7  2  0  0  0  0
 18 15  2  0  0  0  0
 20 21  1  0  0  0  0
 21 14  1  0  0  0  0
 22 27  1  0  0  0  0
 26  5  1  0  0  0  0
 27  6  1  0  0  0  0
 27  9  2  0  0  0  0
 29 30  1  0  0  0  0
 29 32  1  0  0  0  0
 30 28  1  0  0  0  0
 31 29  2  0  0  0  0
M  END
>  <MODEL>
4

>  <REMARK>
 VINA RESULT:     -10.2      3.988      6.402
  Name = 
  2 active torsions:
  status: ('A' for Active; 'I' for Inactive)
    1  A    between atoms: C_2  and  C_24
    2  A    between atoms: N_10  and  C_24
                            x       y       z     vdW  Elec       q    Type
                         _______ _______ _______ _____ _____    ______ ____

>  <TORSDO>
F 2

$$$$
=
 OpenBabel11042413123D

 32 37  0  0  1  0  0  0  0  0999 V2000
  182.6120  179.3670  138.8790 C   0  0  1  0  0  3  0  0  0  0  0  0
  186.2390  178.2150  142.2370 C   0  0  0  0  0  0  0  0  0  0  0  0
  190.1850  177.7200  139.5050 C   0  0  0  0  0  3  0  0  0  0  0  0
  190.9820  177.5030  140.6260 C   0  0  0  0  0  3  0  0  0  0  0  0
  186.3930  178.0170  144.7240 C   0  0  0  0  0  0  0  0  0  0  0  0
  187.2160  177.7960  145.8300 C   0  0  0  0  0  0  0  0  0  0  0  0
  184.1870  178.6400  141.1990 C   0  0  0  0  0  0  0  0  0  0  0  0
  186.1310  178.3990  139.8570 N   0  0  0  0  0  0  0  0  0  0  0  0
  189.0530  177.3980  146.9620 C   0  0  0  0  0  0  0  0  0  0  0  0
  184.0070  178.7770  138.6630 C   0  0  0  0  0  2  0  0  0  0  0  0
  188.8510  177.9420  139.6490 N   0  0  0  0  0  0  0  0  0  0  0  0
  186.8760  178.1940  140.9750 C   0  0  0  0  0  0  0  0  0  0  0  0
  188.2500  177.9620  140.8730 C   0  0  0  0  0  0  0  0  0  0  0  0
  188.4050  177.7650  143.3060 C   0  0  0  0  0  0  0  0  0  0  0  0
  187.9770  177.5260  147.8290 C   0  0  0  0  0  3  0  0  0  0  0  0
  181.9320  178.7020  140.0790 C   0  0  0  0  0  2  0  0  0  0  0  0
  184.7980  178.6340  139.9340 C   0  0  0  0  0  0  0  0  0  0  0  0
  186.8430  177.7720  147.1260 N   0  0  0  0  0  0  0  0  0  0  0  0
  182.7230  178.9310  141.3660 C   0  0  0  0  0  2  0  0  0  0  0  0
  190.3970  177.5170  141.8910 C   0  0  0  0  0  3  0  0  0  0  0  0
  189.0190  177.7460  142.0370 C   0  0  0  0  0  0  0  0  0  0  0  0
  189.1830  177.5490  144.4640 C   0  0  0  0  0  3  0  0  0  0  0  0
  184.9270  178.4390  142.2840 O   0  0  0  0  0  0  0  0  0  0  0  0
  184.9350  178.2540  144.9650 C   0  0  0  0  0  1  0  0  0  0  0  0
  190.4650  177.1260  147.3430 C   0  0  0  0  0  1  0  0  0  0  0  0
  186.9910  178.0020  143.4220 C   0  0  0  0  0  0  0  0  0  0  0  0
  188.5530  177.5730  145.6970 C   0  0  0  0  0  0  0  0  0  0  0  0
  182.6810  180.8820  139.0240 C   0  0  0  0  0  2  0  0  0  0  0  0
  180.4020  181.8710  138.6570 C   0  0  0  0  0  0  0  0  0  0  0  0
  181.6900  181.5100  138.1660 N   0  0  0  0  0  2  0  0  0  0  0  0
  179.5700  182.4150  137.8860 O   0  0  0  0  0  0  0  0  0  0  0  0
  180.0560  181.6280  139.9820 O   0  0  0  0  0  1  0  0  0  0  0  0
  1 28  1  1  0  0  0
  1 16  1  0  0  0  0
  2 23  1  0  0  0  0
  2 26  2  0  0  0  0
  3 11  2  0  0  0  0
  3  4  1  0  0  0  0
  4 20  2  0  0  0  0
  5 24  1  0  0  0  0
  5  6  2  0  0  0  0
  6 18  1  0  0  0  0
  7 19  1  0  0  0  0
  7 23  1  0  0  0  0
  8 17  1  0  0  0  0
  8 12  2  0  0  0  0
  9 25  1  0  0  0  0
  9 15  1  0  0  0  0
 10  1  1  0  0  0  0
 10 17  1  0  0  0  0
 11 13  1  0  0  0  0
 12  2  1  0  0  0  0
 13 12  1  0  0  0  0
 13 21  2  0  0  0  0
 14 26  1  0  0  0  0
 14 22  2  0  0  0  0
 16 19  1  0  0  0  0
 17  7  2  0  0  0  0
 18 15  2  0  0  0  0
 20 21  1  0  0  0  0
 21 14  1  0  0  0  0
 22 27  1  0  0  0  0
 26  5  1  0  0  0  0
 27  6  1  0  0  0  0
 27  9  2  0  0  0  0
 29 32  1  0  0  0  0
 30 29  1  0  0  0  0
 30 28  1  0  0  0  0
 31 29  2  0  0  0  0
M  END
>  <MODEL>
5

>  <REMARK>
 VINA RESULT:     -10.0      3.464      6.035
  Name = 
  2 active torsions:
  status: ('A' for Active; 'I' for Inactive)
    1  A    between atoms: C_2  and  C_24
    2  A    between atoms: N_10  and  C_24
                            x       y       z     vdW  Elec       q    Type
                         _______ _______ _______ _____ _____    ______ ____

>  <TORSDO>
F 2

$$$$
=
 OpenBabel11042413123D

 32 37  0  0  1  0  0  0  0  0999 V2000
  191.3670  176.3170  136.8070 C   0  0  1  0  0  3  0  0  0  0  0  0
  189.5250  177.2540  141.4420 C   0  0  0  0  0  0  0  0  0  0  0  0
  185.0980  178.9610  140.5690 C   0  0  0  0  0  3  0  0  0  0  0  0
  184.8200  179.0480  141.9310 C   0  0  0  0  0  3  0  0  0  0  0  0
  190.3080  176.9180  143.7920 C   0  0  0  0  0  0  0  0  0  0  0  0
  190.0010  177.0150  145.1510 C   0  0  0  0  0  0  0  0  0  0  0  0
  190.9240  176.7500  139.6360 C   0  0  0  0  0  0  0  0  0  0  0  0
  188.7430  177.5880  139.2090 N   0  0  0  0  0  0  0  0  0  0  0  0
  188.8260  177.4370  146.9550 C   0  0  0  0  0  0  0  0  0  0  0  0
  190.1620  177.1530  137.2400 C   0  0  0  0  0  2  0  0  0  0  0  0
  186.3070  178.5050  140.1480 N   0  0  0  0  0  0  0  0  0  0  0  0
  188.5080  177.6550  140.5460 C   0  0  0  0  0  0  0  0  0  0  0  0
  187.2790  178.1190  141.0230 C   0  0  0  0  0  0  0  0  0  0  0  0
  188.0410  177.7930  143.3240 C   0  0  0  0  0  0  0  0  0  0  0  0
  190.0780  176.9520  147.3050 C   0  0  0  0  0  3  0  0  0  0  0  0
  192.5610  176.5830  137.7290 C   0  0  0  0  0  2  0  0  0  0  0  0
  189.9250  177.1340  138.7250 C   0  0  0  0  0  0  0  0  0  0  0  0
  190.8020  176.6920  146.1880 N   0  0  0  0  0  0  0  0  0  0  0  0
  192.2440  176.2020  139.1750 C   0  0  0  0  0  2  0  0  0  0  0  0
  185.7930  178.6610  142.8510 C   0  0  0  0  0  3  0  0  0  0  0  0
  187.0410  178.1900  142.4130 C   0  0  0  0  0  0  0  0  0  0  0  0
  187.7930  177.8670  144.7120 C   0  0  0  0  0  3  0  0  0  0  0  0
  190.6810  176.8210  140.9410 O   0  0  0  0  0  0  0  0  0  0  0  0
  191.6600  176.4050  143.4080 C   0  0  0  0  0  1  0  0  0  0  0  0
  187.7410  177.8380  147.8920 C   0  0  0  0  0  1  0  0  0  0  0  0
  189.3100  177.3150  142.8440 C   0  0  0  0  0  0  0  0  0  0  0  0
  188.7930  177.4710  145.5840 C   0  0  0  0  0  0  0  0  0  0  0  0
  191.0060  174.8380  136.7450 C   0  0  0  0  0  2  0  0  0  0  0  0
  188.7970  173.7710  136.2090 C   0  0  0  0  0  0  0  0  0  0  0  0
  189.8720  174.6390  135.8590 N   0  0  0  0  0  2  0  0  0  0  0  0
  187.8300  173.6240  135.4170 O   0  0  0  0  0  0  0  0  0  0  0  0
  188.8060  173.0850  137.4180 O   0  0  0  0  0  1  0  0  0  0  0  0
  1 28  1  1  0  0  0
  1 10  1  0  0  0  0
  1 16  1  0  0  0  0
  2 26  2  0  0  0  0
  3  4  1  0  0  0  0
  4 20  2  0  0  0  0
  5  6  2  0  0  0  0
  6 27  1  0  0  0  0
  6 18  1  0  0  0  0
  7 23  1  0  0  0  0
  8 12  2  0  0  0  0
  9 15  1  0  0  0  0
  9 25  1  0  0  0  0
 10 17  1  0  0  0  0
 11  3  2  0  0  0  0
 11 13  1  0  0  0  0
 12 13  1  0  0  0  0
 12  2  1  0  0  0  0
 13 21  2  0  0  0  0
 14 22  2  0  0  0  0
 16 19  1  0  0  0  0
 17  8  1  0  0  0  0
 17  7  2  0  0  0  0
 18 15  2  0  0  0  0
 19  7  1  0  0  0  0
 21 20  1  0  0  0  0
 21 14  1  0  0  0  0
 22 27  1  0  0  0  0
 23  2  1  0  0  0  0
 24  5  1  0  0  0  0
 26 14  1  0  0  0  0
 26  5  1  0  0  0  0
 27  9  2  0  0  0  0
 29 32  1  0  0  0  0
 30 29  1  0  0  0  0
 30 28  1  0  0  0  0
 31 29  2  0  0  0  0
M  END
>  <MODEL>
6

>  <REMARK>
 VINA RESULT:     -10.0      1.623      2.332
  Name = 
  2 active torsions:
  status: ('A' for Active; 'I' for Inactive)
    1  A    between atoms: C_2  and  C_24
    2  A    between atoms: N_10  and  C_24
                            x       y       z     vdW  Elec       q    Type
                         _______ _______ _______ _____ _____    ______ ____

>  <TORSDO>
F 2

$$$$
=
 OpenBabel11042413123D

 32 37  0  0  1  0  0  0  0  0999 V2000
  185.4500  178.3790  137.4810 C   0  0  1  0  0  3  0  0  0  0  0  0
  187.4540  177.9290  142.1220 C   0  0  0  0  0  0  0  0  0  0  0  0
  183.7680  178.9950  145.0470 C   0  0  0  0  0  3  0  0  0  0  0  0
  184.5360  178.7270  146.1780 C   0  0  0  0  0  3  0  0  0  0  0  0
  189.6550  177.2190  143.0720 C   0  0  0  0  0  0  0  0  0  0  0  0
  190.4010  176.9580  144.2230 C   0  0  0  0  0  0  0  0  0  0  0  0
  187.1500  178.0890  139.8080 C   0  0  0  0  0  0  0  0  0  0  0  0
  185.3360  178.6110  141.2510 N   0  0  0  0  0  0  0  0  0  0  0  0
  190.8590  176.7590  146.3600 C   0  0  0  0  0  0  0  0  0  0  0  0
  184.9340  178.8760  138.8320 C   0  0  0  0  0  2  0  0  0  0  0  0
  184.3100  178.8600  143.8070 N   0  0  0  0  0  0  0  0  0  0  0  0
  186.1170  178.3370  142.3290 C   0  0  0  0  0  0  0  0  0  0  0  0
  185.6010  178.4630  143.6220 C   0  0  0  0  0  0  0  0  0  0  0  0
  187.7530  177.7710  144.5560 C   0  0  0  0  0  0  0  0  0  0  0  0
  191.9740  176.4320  145.6010 C   0  0  0  0  0  3  0  0  0  0  0  0
  186.9550  178.6360  137.3580 C   0  0  0  0  0  2  0  0  0  0  0  0
  185.8140  178.4870  139.9880 C   0  0  0  0  0  0  0  0  0  0  0  0
  191.6880  176.5560  144.2810 N   0  0  0  0  0  0  0  0  0  0  0  0
  187.7390  177.8940  138.4410 C   0  0  0  0  0  2  0  0  0  0  0  0
  185.8600  178.3200  146.0210 C   0  0  0  0  0  3  0  0  0  0  0  0
  186.4170  178.1820  144.7390 C   0  0  0  0  0  0  0  0  0  0  0  0
  188.5600  177.4910  145.6800 C   0  0  0  0  0  3  0  0  0  0  0  0
  187.9020  177.8250  140.8720 O   0  0  0  0  0  0  0  0  0  0  0  0
  190.3220  177.0470  141.7440 C   0  0  0  0  0  1  0  0  0  0  0  0
  190.7680  176.7480  147.8450 C   0  0  0  0  0  1  0  0  0  0  0  0
  188.2940  177.6390  143.2290 C   0  0  0  0  0  0  0  0  0  0  0  0
  189.8690  177.0900  145.4700 C   0  0  0  0  0  0  0  0  0  0  0  0
  185.0990  176.9110  137.2740 C   0  0  0  0  0  2  0  0  0  0  0  0
  182.7210  176.1860  137.6350 C   0  0  0  0  0  0  0  0  0  0  0  0
  183.7230  176.7880  136.8200 N   0  0  0  0  0  2  0  0  0  0  0  0
  181.5400  176.0980  137.2100 O   0  0  0  0  0  0  0  0  0  0  0  0
  183.0360  175.6950  138.8970 O   0  0  0  0  0  1  0  0  0  0  0  0
  1 28  1  1  0  0  0
  1 10  1  0  0  0  0
  2 12  1  0  0  0  0
  2 26  2  0  0  0  0
  3  4  1  0  0  0  0
  5 26  1  0  0  0  0
  5  6  2  0  0  0  0
  6 18  1  0  0  0  0
  6 27  1  0  0  0  0
  7 17  2  0  0  0  0
  7 23  1  0  0  0  0
  8 12  2  0  0  0  0
  9 25  1  0  0  0  0
 10 17  1  0  0  0  0
 11  3  2  0  0  0  0
 12 13  1  0  0  0  0
 13 11  1  0  0  0  0
 13 21  2  0  0  0  0
 14 21  1  0  0  0  0
 14 22  2  0  0  0  0
 15  9  1  0  0  0  0
 16  1  1  0  0  0  0
 16 19  1  0  0  0  0
 17  8  1  0  0  0  0
 18 15  2  0  0  0  0
 19  7  1  0  0  0  0
 20  4  2  0  0  0  0
 21 20  1  0  0  0  0
 23  2  1  0  0  0  0
 24  5  1  0  0  0  0
 26 14  1  0  0  0  0
 27 22  1  0  0  0  0
 27  9  2  0  0  0  0
 29 32  1  0  0  0  0
 30 28  1  0  0  0  0
 30 29  1  0  0  0  0
 31 29  2  0  0  0  0
M  END
>  <MODEL>
7

>  <REMARK>
 VINA RESULT:      -9.9      2.541      3.166
  Name = 
  2 active torsions:
  status: ('A' for Active; 'I' for Inactive)
    1  A    between atoms: C_2  and  C_24
    2  A    between atoms: N_10  and  C_24
                            x       y       z     vdW  Elec       q    Type
                         _______ _______ _______ _____ _____    ______ ____

>  <TORSDO>
F 2

$$$$
=
 OpenBabel11042413123D

 32 37  0  0  1  0  0  0  0  0999 V2000
  192.4890  176.6490  137.9780 C   0  0  1  0  0  3  0  0  0  0  0  0
  189.0700  177.6170  141.6010 C   0  0  0  0  0  0  0  0  0  0  0  0
  185.1220  178.8540  139.1200 C   0  0  0  0  0  3  0  0  0  0  0  0
  184.3760  178.9760  140.2900 C   0  0  0  0  0  3  0  0  0  0  0  0
  188.9980  177.4640  144.0950 C   0  0  0  0  0  0  0  0  0  0  0  0
  188.2260  177.5940  145.2520 C   0  0  0  0  0  0  0  0  0  0  0  0
  191.0480  177.1670  140.4360 C   0  0  0  0  0  0  0  0  0  0  0  0
  189.1020  177.7730  139.2170 N   0  0  0  0  0  0  0  0  0  0  0  0
  186.4630  177.9850  146.4990 C   0  0  0  0  0  0  0  0  0  0  0  0
  191.1510  177.3850  137.9010 C   0  0  0  0  0  2  0  0  0  0  0  0
  186.4320  178.4960  139.1810 N   0  0  0  0  0  0  0  0  0  0  0  0
  188.4070  177.8790  140.3810 C   0  0  0  0  0  0  0  0  0  0  0  0
  187.0590  178.2450  140.3650 C   0  0  0  0  0  0  0  0  0  0  0  0
  186.9840  178.0980  142.8060 C   0  0  0  0  0  0  0  0  0  0  0  0
  187.5440  177.6370  147.2970 C   0  0  0  0  0  3  0  0  0  0  0  0
  193.2590  177.0690  139.2340 C   0  0  0  0  0  2  0  0  0  0  0  0
  190.4080  177.4120  139.2090 C   0  0  0  0  0  0  0  0  0  0  0  0
  188.6320  177.3970  146.5230 N   0  0  0  0  0  0  0  0  0  0  0  0
  192.4820  176.7260  140.5050 C   0  0  0  0  0  2  0  0  0  0  0  0
  184.9890  178.7260  141.5170 C   0  0  0  0  0  3  0  0  0  0  0  0
  186.3420  178.3560  141.5760 C   0  0  0  0  0  0  0  0  0  0  0  0
  186.2580  178.2120  144.0110 C   0  0  0  0  0  3  0  0  0  0  0  0
  190.3570  177.2730  141.5660 O   0  0  0  0  0  0  0  0  0  0  0  0
  190.4320  177.0660  144.2440 C   0  0  0  0  0  1  0  0  0  0  0  0
  185.0920  178.3230  146.9680 C   0  0  0  0  0  1  0  0  0  0  0  0
  188.3720  177.7220  142.8320 C   0  0  0  0  0  0  0  0  0  0  0  0
  186.9130  177.9530  145.2030 C   0  0  0  0  0  0  0  0  0  0  0  0
  192.2820  175.1410  137.9080 C   0  0  0  0  0  2  0  0  0  0  0  0
  194.2150  173.7980  137.0300 C   0  0  0  0  0  0  0  0  0  0  0  0
  193.0470  174.5840  136.8040 N   0  0  0  0  0  2  0  0  0  0  0  0
  194.8510  173.3310  136.0500 O   0  0  0  0  0  0  0  0  0  0  0  0
  194.6580  173.5430  138.3220 O   0  0  0  0  0  1  0  0  0  0  0  0
  1 28  1  1  0  0  0
  1 16  1  0  0  0  0
  2 26  2  0  0  0  0
  3 11  2  0  0  0  0
  3  4  1  0  0  0  0
  4 20  2  0  0  0  0
  5 24  1  0  0  0  0
  5  6  2  0  0  0  0
  6 18  1  0  0  0  0
  7 19  1  0  0  0  0
  7 23  1  0  0  0  0
  8 12  2  0  0  0  0
  9 25  1  0  0  0  0
  9 15  1  0  0  0  0
 10  1  1  0  0  0  0
 10 17  1  0  0  0  0
 11 13  1  0  0  0  0
 12  2  1  0  0  0  0
 13 12  1  0  0  0  0
 13 21  2  0  0  0  0
 14 26  1  0  0  0  0
 14 22  2  0  0  0  0
 16 19  1  0  0  0  0
 17  8  1  0  0  0  0
 17  7  2  0  0  0  0
 18 15  2  0  0  0  0
 20 21  1  0  0  0  0
 21 14  1  0  0  0  0
 22 27  1  0  0  0  0
 23  2  1  0  0  0  0
 26  5  1  0  0  0  0
 27  6  1  0  0  0  0
 27  9  2  0  0  0  0
 29 32  1  0  0  0  0
 30 29  1  0  0  0  0
 30 28  1  0  0  0  0
 31 29  2  0  0  0  0
M  END
>  <MODEL>
8

>  <REMARK>
 VINA RESULT:      -9.3      2.394      3.233
  Name = 
  2 active torsions:
  status: ('A' for Active; 'I' for Inactive)
    1  A    between atoms: C_2  and  C_24
    2  A    between atoms: N_10  and  C_24
                            x       y       z     vdW  Elec       q    Type
                         _______ _______ _______ _____ _____    ______ ____

>  <TORSDO>
F 2

$$$$
=
 OpenBabel11042413123D

 32 37  0  0  1  0  0  0  0  0999 V2000
  181.7730  179.0730  139.2050 C   0  0  1  0  0  3  0  0  0  0  0  0
  185.8930  178.3280  142.0750 C   0  0  0  0  0  0  0  0  0  0  0  0
  184.1810  178.5560  146.5800 C   0  0  0  0  0  3  0  0  0  0  0  0
  185.4330  178.2550  147.1130 C   0  0  0  0  0  3  0  0  0  0  0  0
  188.3010  177.7960  141.6640 C   0  0  0  0  0  0  0  0  0  0  0  0
  189.5430  177.4960  142.2260 C   0  0  0  0  0  0  0  0  0  0  0  0
  184.4370  178.7250  140.2870 C   0  0  0  0  0  0  0  0  0  0  0  0
  183.5970  178.8340  142.5060 N   0  0  0  0  0  0  0  0  0  0  0  0
  191.0410  177.1010  143.7810 C   0  0  0  0  0  0  0  0  0  0  0  0
  181.9990  179.3340  140.6950 C   0  0  0  0  0  2  0  0  0  0  0  0
  184.0170  178.6410  145.2330 N   0  0  0  0  0  0  0  0  0  0  0  0
  184.8330  178.5350  142.9870 C   0  0  0  0  0  0  0  0  0  0  0  0
  185.0480  178.4380  144.3640 C   0  0  0  0  0  0  0  0  0  0  0  0
  187.4050  177.9180  143.9670 C   0  0  0  0  0  0  0  0  0  0  0  0
  191.6230  177.0130  142.5240 C   0  0  0  0  0  3  0  0  0  0  0  0
  182.9870  179.5330  138.3930 C   0  0  0  0  0  2  0  0  0  0  0  0
  183.3650  178.9250  141.1730 C   0  0  0  0  0  0  0  0  0  0  0  0
  190.6950  177.2570  141.5660 N   0  0  0  0  0  0  0  0  0  0  0  0
  184.2500  178.7720  138.7970 C   0  0  0  0  0  2  0  0  0  0  0  0
  186.5070  178.0420  146.2500 C   0  0  0  0  0  3  0  0  0  0  0  0
  186.3330  178.1300  144.8590 C   0  0  0  0  0  0  0  0  0  0  0  0
  188.6860  177.6100  144.4730 C   0  0  0  0  0  3  0  0  0  0  0  0
  185.6400  178.4330  140.7710 O   0  0  0  0  0  0  0  0  0  0  0  0
  188.1990  177.8710  140.1730 C   0  0  0  0  0  1  0  0  0  0  0  0
  191.7250  176.9010  145.0870 C   0  0  0  0  0  1  0  0  0  0  0  0
  187.1940  178.0170  142.5480 C   0  0  0  0  0  0  0  0  0  0  0  0
  189.7200  177.4080  143.5740 C   0  0  0  0  0  0  0  0  0  0  0  0
  181.4360  177.6080  138.9580 C   0  0  0  0  0  2  0  0  0  0  0  0
  179.9900  175.8080  139.9460 C   0  0  0  0  0  0  0  0  0  0  0  0
  180.5510  177.1180  140.0000 N   0  0  0  0  0  2  0  0  0  0  0  0
  179.2280  175.4170  140.8680 O   0  0  0  0  0  1  0  0  0  0  0  0
  180.2770  174.9590  138.8840 O   0  0  0  0  0  0  0  0  0  0  0  0
  1 28  1  1  0  0  0
  1 10  1  0  0  0  0
  2 26  2  0  0  0  0
  2 12  1  0  0  0  0
  3  4  1  0  0  0  0
  5  6  2  0  0  0  0
  5 26  1  0  0  0  0
  6 27  1  0  0  0  0
  7 23  1  0  0  0  0
  7 17  2  0  0  0  0
  8 12  2  0  0  0  0
  9 25  1  0  0  0  0
 10 17  1  0  0  0  0
 11  3  2  0  0  0  0
 12 13  1  0  0  0  0
 13 21  2  0  0  0  0
 13 11  1  0  0  0  0
 14 22  2  0  0  0  0
 14 21  1  0  0  0  0
 15  9  1  0  0  0  0
 16 19  1  0  0  0  0
 16  1  1  0  0  0  0
 17  8  1  0  0  0  0
 18  6  1  0  0  0  0
 18 15  2  0  0  0  0
 19  7  1  0  0  0  0
 20  4  2  0  0  0  0
 21 20  1  0  0  0  0
 23  2  1  0  0  0  0
 24  5  1  0  0  0  0
 26 14  1  0  0  0  0
 27  9  2  0  0  0  0
 27 22  1  0  0  0  0
 28 30  1  0  0  0  0
 29 30  1  0  0  0  0
 29 31  1  0  0  0  0
 32 29  2  0  0  0  0
M  END
>  <MODEL>
9

>  <REMARK>
 VINA RESULT:      -9.2      3.386      5.339
  Name = 
  2 active torsions:
  status: ('A' for Active; 'I' for Inactive)
    1  A    between atoms: C_2  and  C_24
    2  A    between atoms: N_10  and  C_24
                            x       y       z     vdW  Elec       q    Type
                         _______ _______ _______ _____ _____    ______ ____

>  <TORSDO>
F 2

$$$$
