=
 OpenBabel11042413203D

 40 41  0  0  1  0  0  0  0  0999 V2000
  189.5730  177.9780  143.2440 C   0  0  0  0  0  0  0  0  0  0  0  0
  190.9770  177.6750  139.8230 O   0  0  0  0  0  0  0  0  0  0  0  0
  188.6750  178.1820  140.2050 C   0  0  0  0  0  0  0  0  0  0  0  0
  188.3160  178.1910  138.7530 C   0  0  0  0  0  2  0  0  0  0  0  0
  187.2160  178.2080  142.2770 C   0  0  0  0  0  0  0  0  0  0  0  0
  190.3390  177.9390  142.1130 C   0  0  0  0  0  3  0  0  0  0  0  0
  187.9520  176.0630  143.3110 C   0  0  0  0  0  1  0  0  0  0  0  0
  189.1170  176.0610  137.8240 N   0  0  0  0  0  0  0  0  0  0  0  0
  188.1370  176.7920  138.2370 C   0  0  0  0  0  3  0  0  0  0  0  0
  189.9180  177.4890  140.7150 C   0  0  2  0  0  3  0  0  0  0  0  0
  191.1310  176.4470  139.1730 C   0  0  0  0  0  2  0  0  0  0  0  0
  190.4960  176.5040  137.7870 C   0  0  1  0  0  3  0  0  0  0  0  0
  188.0970  177.5760  143.3300 C   0  0  1  0  0  3  0  0  0  0  0  0
  187.7570  178.2750  141.1040 C   0  0  0  0  0  0  0  0  0  0  0  0
  182.9360  178.9860  142.6700 O   0  0  0  0  0  0  0  0  0  0  0  0
  185.4540  179.0560  143.6160 O   0  0  0  0  0  0  0  0  0  0  0  0
  183.4260  178.5110  141.6100 C   0  0  0  0  0  0  0  0  0  0  0  0
  184.8310  178.2600  141.5040 N   0  0  0  0  0  2  0  0  0  0  0  0
  182.5840  178.2140  140.4920 N   0  0  0  0  0  2  0  0  0  0  0  0
  185.8020  178.5370  142.5210 C   0  0  0  0  0  0  0  0  0  0  0  0
  180.6070  178.0440  141.7090 O   0  0  0  0  0  1  0  0  0  0  0  0
  180.5410  177.5080  139.4040 C   0  0  0  0  0  1  0  0  0  0  0  0
  181.1360  178.4160  140.4710 C   0  0  2  0  0  0  0  0  0  0  0  0
  179.3060  180.1610  140.1640 C   0  0  0  0  0  1  0  0  0  0  0  0
  180.8050  179.8950  140.1900 C   0  0  0  0  0  3  0  0  0  0  0  0
  181.4320  180.3950  138.8960 C   0  0  0  0  0  1  0  0  0  0  0  0
  190.1920  178.4700  144.5180 C   0  0  2  0  0  3  0  0  0  0  0  0
  191.0380  179.5520  144.2610 O   0  0  0  0  0  1  0  0  0  0  0  0
  190.9520  177.3510  145.2200 C   0  0  0  0  0  2  0  0  0  0  0  0
  190.5220  177.2250  146.6710 C   0  0  0  0  0  2  0  0  0  0  0  0
  189.0150  177.0790  146.7680 C   0  0  0  0  0  2  0  0  0  0  0  0
  189.2450  178.2750  148.8100 O   0  0  0  0  0  0  0  0  0  0  0  0
  188.4890  177.9620  147.8530 C   0  0  0  0  0  0  0  0  0  0  0  0
  187.1920  178.4770  147.8140 O   0  0  0  0  0  0  0  0  0  0  0  0
  186.2590  178.1120  146.8080 C   0  0  0  0  0  1  0  0  0  0  0  0
  191.2920  175.6660  136.7900 C   0  0  0  0  0  2  0  0  0  0  0  0
  192.4640  174.9440  137.4440 C   0  0  0  0  0  2  0  0  0  0  0  0
  193.7420  175.4270  136.8560 C   0  0  0  0  0  0  0  0  0  0  0  0
  194.0680  176.7750  136.9190 O   0  0  0  0  0  1  0  0  0  0  0  0
  194.5450  174.6110  136.3330 O   0  0  0  0  0  0  0  0  0  0  0  0
  1 13  1  0  0  0  0
  1 27  1  0  0  0  0
  2 10  1  0  0  0  0
  3 10  1  0  0  0  0
  3 14  2  0  0  0  0
  4  3  1  0  0  0  0
  5 20  1  0  0  0  0
  5 13  1  0  0  0  0
  6  1  2  0  0  0  0
  8  9  2  0  0  0  0
  9  4  1  0  0  0  0
 10  6  1  1  0  0  0
 11  2  1  0  0  0  0
 12 36  1  6  0  0  0
 12  8  1  0  0  0  0
 12 11  1  0  0  0  0
 13  7  1  6  0  0  0
 14  5  2  0  0  0  0
 17 15  2  0  0  0  0
 18 17  1  0  0  0  0
 18 20  1  0  0  0  0
 19 17  1  0  0  0  0
 20 16  2  0  0  0  0
 23 22  1  6  0  0  0
 23 19  1  0  0  0  0
 23 21  1  0  0  0  0
 24 25  1  0  0  0  0
 25 23  1  0  0  0  0
 26 25  1  0  0  0  0
 27 28  1  6  0  0  0
 27 29  1  0  0  0  0
 29 30  1  0  0  0  0
 30 31  1  0  0  0  0
 31 33  1  0  0  0  0
 33 32  2  0  0  0  0
 34 33  1  0  0  0  0
 35 34  1  0  0  0  0
 36 37  1  0  0  0  0
 38 39  1  0  0  0  0
 38 37  1  0  0  0  0
 40 38  2  0  0  0  0
M  END
>  <MODEL>
1

>  <REMARK>
 VINA RESULT:      -8.0      0.000      0.000
  Name = 
  12 active torsions:
  status: ('A' for Active; 'I' for Inactive)
    1  A    between atoms: C_1  and  C_25
    2  A    between atoms: C_2  and  C_12
    3  A    between atoms: C_2  and  C_38
    4  A    between atoms: C_4  and  C_12
    5  A    between atoms: C_8  and  C_37
    6  A    between atoms: O_11  and  C_33
    7  A    between atoms: C_15  and  C_23
    8  A    between atoms: C_15  and  C_33
    9  A    between atoms: C_20  and  C_29
   10  A    between atoms: C_22  and  C_23
   11  A    between atoms: C_22  and  C_25
   12  A    between atoms: C_29  and  N_35
                            x       y       z     vdW  Elec       q    Type
                         _______ _______ _______ _____ _____    ______ ____

>  <TORSDO>
F 12

$$$$
=
 OpenBabel11042413203D

 40 41  0  0  1  0  0  0  0  0999 V2000
  188.8540  177.8860  137.8490 C   0  0  0  0  0  0  0  0  0  0  0  0
  188.4350  178.6570  141.4540 O   0  0  0  0  0  0  0  0  0  0  0  0
  190.1360  177.1780  140.6660 C   0  0  0  0  0  0  0  0  0  0  0  0
  190.6370  176.8390  142.0330 C   0  0  0  0  0  2  0  0  0  0  0  0
  190.6330  176.1360  138.4090 C   0  0  0  0  0  0  0  0  0  0  0  0
  188.5820  178.4160  139.0780 C   0  0  0  0  0  3  0  0  0  0  0  0
  188.3270  175.4340  137.7760 C   0  0  0  0  0  1  0  0  0  0  0  0
  188.6810  176.1140  143.3330 N   0  0  0  0  0  0  0  0  0  0  0  0
  189.7580  175.8130  142.6880 C   0  0  0  0  0  3  0  0  0  0  0  0
  188.7540  177.7490  140.4420 C   0  0  2  0  0  3  0  0  0  0  0  0
  187.5130  177.9920  142.2680 C   0  0  0  0  0  2  0  0  0  0  0  0
  188.2050  177.4680  143.5240 C   0  0  1  0  0  3  0  0  0  0  0  0
  189.4110  176.4830  137.5900 C   0  0  1  0  0  3  0  0  0  0  0  0
  190.5860  176.5530  139.6330 C   0  0  0  0  0  0  0  0  0  0  0  0
  194.0200  173.7740  136.9850 O   0  0  0  0  0  0  0  0  0  0  0  0
  191.4560  174.0090  137.7660 O   0  0  0  0  0  0  0  0  0  0  0  0
  194.1020  175.0230  137.1350 C   0  0  0  0  0  0  0  0  0  0  0  0
  192.9820  175.7780  137.6060 N   0  0  0  0  0  2  0  0  0  0  0  0
  195.3210  175.7100  136.8340 N   0  0  0  0  0  2  0  0  0  0  0  0
  191.6900  175.2390  137.9150 C   0  0  0  0  0  0  0  0  0  0  0  0
  197.5440  176.0200  136.2140 O   0  0  0  0  0  1  0  0  0  0  0  0
  196.2540  174.4650  134.9810 C   0  0  0  0  0  1  0  0  0  0  0  0
  196.5390  175.0600  136.3530 C   0  0  2  0  0  0  0  0  0  0  0  0
  197.4490  174.5530  138.6780 C   0  0  0  0  0  1  0  0  0  0  0  0
  196.9950  173.9720  137.3460 C   0  0  0  0  0  3  0  0  0  0  0  0
  198.0940  173.0890  136.7750 C   0  0  0  0  0  1  0  0  0  0  0  0
  188.6200  178.7310  136.6310 C   0  0  2  0  0  3  0  0  0  0  0  0
  187.6240  179.6790  136.8830 O   0  0  0  0  0  1  0  0  0  0  0  0
  188.2440  177.8660  135.4340 C   0  0  0  0  0  2  0  0  0  0  0  0
  186.8100  178.1220  135.0050 C   0  0  0  0  0  2  0  0  0  0  0  0
  185.9610  176.8820  135.2200 C   0  0  0  0  0  2  0  0  0  0  0  0
  183.7490  177.1020  136.0620 O   0  0  0  0  0  0  0  0  0  0  0  0
  184.9810  177.1250  136.3210 C   0  0  0  0  0  0  0  0  0  0  0  0
  185.3950  177.3430  137.6370 O   0  0  0  0  0  0  0  0  0  0  0  0
  184.8010  178.3280  138.4680 C   0  0  0  0  0  1  0  0  0  0  0  0
  187.2690  177.5340  144.7270 C   0  0  0  0  0  2  0  0  0  0  0  0
  185.9620  178.2500  144.4070 C   0  0  0  0  0  2  0  0  0  0  0  0
  185.3170  178.7050  145.6690 C   0  0  0  0  0  0  0  0  0  0  0  0
  186.0730  178.8330  146.8260 O   0  0  0  0  0  1  0  0  0  0  0  0
  184.0950  179.0060  145.6800 O   0  0  0  0  0  0  0  0  0  0  0  0
  1  6  2  0  0  0  0
  2 11  1  0  0  0  0
  3  4  1  0  0  0  0
  4  9  1  0  0  0  0
  5 14  2  0  0  0  0
  8 12  1  0  0  0  0
  9  8  2  0  0  0  0
 10  6  1  6  0  0  0
 10  3  1  0  0  0  0
 10  2  1  0  0  0  0
 11 12  1  0  0  0  0
 12 36  1  1  0  0  0
 13  7  1  1  0  0  0
 13  1  1  0  0  0  0
 13  5  1  0  0  0  0
 14  3  2  0  0  0  0
 15 17  2  0  0  0  0
 16 20  2  0  0  0  0
 17 18  1  0  0  0  0
 18 20  1  0  0  0  0
 19 17  1  0  0  0  0
 20  5  1  0  0  0  0
 21 23  1  0  0  0  0
 23 22  1  6  0  0  0
 23 19  1  0  0  0  0
 23 25  1  0  0  0  0
 25 24  1  0  0  0  0
 26 25  1  0  0  0  0
 27 28  1  1  0  0  0
 27  1  1  0  0  0  0
 29 27  1  0  0  0  0
 30 31  1  0  0  0  0
 30 29  1  0  0  0  0
 31 33  1  0  0  0  0
 32 33  2  0  0  0  0
 33 34  1  0  0  0  0
 34 35  1  0  0  0  0
 37 36  1  0  0  0  0
 37 38  1  0  0  0  0
 38 40  2  0  0  0  0
 38 39  1  0  0  0  0
M  END
>  <MODEL>
2

>  <REMARK>
 VINA RESULT:      -7.8      3.098     10.845
  Name = 
  12 active torsions:
  status: ('A' for Active; 'I' for Inactive)
    1  A    between atoms: C_1  and  C_25
    2  A    between atoms: C_2  and  C_12
    3  A    between atoms: C_2  and  C_38
    4  A    between atoms: C_4  and  C_12
    5  A    between atoms: C_8  and  C_37
    6  A    between atoms: O_11  and  C_33
    7  A    between atoms: C_15  and  C_23
    8  A    between atoms: C_15  and  C_33
    9  A    between atoms: C_20  and  C_29
   10  A    between atoms: C_22  and  C_23
   11  A    between atoms: C_22  and  C_25
   12  A    between atoms: C_29  and  N_35
                            x       y       z     vdW  Elec       q    Type
                         _______ _______ _______ _____ _____    ______ ____

>  <TORSDO>
F 12

$$$$
=
 OpenBabel11042413203D

 40 41  0  0  1  0  0  0  0  0999 V2000
  189.3760  177.9790  138.0220 C   0  0  0  0  0  0  0  0  0  0  0  0
  188.2760  178.5270  141.5230 O   0  0  0  0  0  0  0  0  0  0  0  0
  190.4070  177.5850  140.9990 C   0  0  0  0  0  0  0  0  0  0  0  0
  190.7910  177.3660  142.4280 C   0  0  0  0  0  2  0  0  0  0  0  0
  191.4720  176.7680  138.8490 C   0  0  0  0  0  0  0  0  0  0  0  0
  188.8040  178.3870  139.1940 C   0  0  0  0  0  3  0  0  0  0  0  0
  189.5530  175.4780  137.9180 C   0  0  0  0  0  1  0  0  0  0  0  0
  188.9500  176.1070  143.4600 N   0  0  0  0  0  0  0  0  0  0  0  0
  190.1450  176.1250  142.9730 C   0  0  0  0  0  3  0  0  0  0  0  0
  188.9650  177.7620  140.5790 C   0  0  2  0  0  3  0  0  0  0  0  0
  187.4690  177.6170  142.2150 C   0  0  0  0  0  2  0  0  0  0  0  0
  188.1010  177.2750  143.5610 C   0  0  1  0  0  3  0  0  0  0  0  0
  190.3250  176.7870  137.8650 C   0  0  1  0  0  3  0  0  0  0  0  0
  191.1470  177.1290  140.0480 C   0  0  0  0  0  0  0  0  0  0  0  0
  195.1970  174.8310  137.6440 O   0  0  0  0  0  0  0  0  0  0  0  0
  193.8410  176.8170  138.8530 O   0  0  0  0  0  0  0  0  0  0  0  0
  194.0740  174.3060  137.4130 C   0  0  0  0  0  0  0  0  0  0  0  0
  192.8650  174.9590  137.8130 N   0  0  0  0  0  2  0  0  0  0  0  0
  193.9890  173.0430  136.7450 N   0  0  0  0  0  2  0  0  0  0  0  0
  192.7900  176.2050  138.5180 C   0  0  0  0  0  0  0  0  0  0  0  0
  195.9210  173.0830  135.4470 O   0  0  0  0  0  1  0  0  0  0  0  0
  194.6350  171.0960  135.4620 C   0  0  0  0  0  1  0  0  0  0  0  0
  195.1420  172.2750  136.2790 C   0  0  2  0  0  0  0  0  0  0  0  0
  197.4780  172.0430  137.2720 C   0  0  0  0  0  1  0  0  0  0  0  0
  195.9890  171.7980  137.4760 C   0  0  0  0  0  3  0  0  0  0  0  0
  195.7550  170.3310  137.8040 C   0  0  0  0  0  1  0  0  0  0  0  0
  189.0870  178.7540  136.7710 C   0  0  2  0  0  3  0  0  0  0  0  0
  188.3570  179.9070  137.0710 O   0  0  0  0  0  1  0  0  0  0  0  0
  188.3370  177.8940  135.7610 C   0  0  0  0  0  2  0  0  0  0  0  0
  186.8400  178.1420  135.8380 C   0  0  0  0  0  2  0  0  0  0  0  0
  186.1400  176.9690  136.4990 C   0  0  0  0  0  2  0  0  0  0  0  0
  184.2110  176.7960  137.8770 O   0  0  0  0  0  0  0  0  0  0  0  0
  185.2380  177.4620  137.5830 C   0  0  0  0  0  0  0  0  0  0  0  0
  185.5220  178.6260  138.3000 O   0  0  0  0  0  0  0  0  0  0  0  0
  184.9790  178.8770  139.5870 C   0  0  0  0  0  1  0  0  0  0  0  0
  187.0280  177.0570  144.6240 C   0  0  0  0  0  2  0  0  0  0  0  0
  187.1330  178.0560  145.7700 C   0  0  0  0  0  2  0  0  0  0  0  0
  185.8540  178.8050  145.9020 C   0  0  0  0  0  0  0  0  0  0  0  0
  185.4850  179.3340  147.1320 O   0  0  0  0  0  1  0  0  0  0  0  0
  185.1230  178.9880  144.8950 O   0  0  0  0  0  0  0  0  0  0  0  0
  1  6  2  0  0  0  0
  2 11  1  0  0  0  0
  3  4  1  0  0  0  0
  4  9  1  0  0  0  0
  5 14  2  0  0  0  0
  8 12  1  0  0  0  0
  9  8  2  0  0  0  0
 10  6  1  6  0  0  0
 10  3  1  0  0  0  0
 10  2  1  0  0  0  0
 11 12  1  0  0  0  0
 12 36  1  1  0  0  0
 13  7  1  1  0  0  0
 13  1  1  0  0  0  0
 13  5  1  0  0  0  0
 14  3  2  0  0  0  0
 17 15  2  0  0  0  0
 17 18  1  0  0  0  0
 18 20  1  0  0  0  0
 19 17  1  0  0  0  0
 20  5  1  0  0  0  0
 20 16  2  0  0  0  0
 21 23  1  0  0  0  0
 23 22  1  6  0  0  0
 23 19  1  0  0  0  0
 23 25  1  0  0  0  0
 24 25  1  0  0  0  0
 25 26  1  0  0  0  0
 27 28  1  1  0  0  0
 27  1  1  0  0  0  0
 29 30  1  0  0  0  0
 29 27  1  0  0  0  0
 30 31  1  0  0  0  0
 31 33  1  0  0  0  0
 33 32  2  0  0  0  0
 33 34  1  0  0  0  0
 34 35  1  0  0  0  0
 36 37  1  0  0  0  0
 37 38  1  0  0  0  0
 38 39  1  0  0  0  0
 40 38  2  0  0  0  0
M  END
>  <MODEL>
3

>  <REMARK>
 VINA RESULT:      -7.7      3.018     10.588
  Name = 
  12 active torsions:
  status: ('A' for Active; 'I' for Inactive)
    1  A    between atoms: C_1  and  C_25
    2  A    between atoms: C_2  and  C_12
    3  A    between atoms: C_2  and  C_38
    4  A    between atoms: C_4  and  C_12
    5  A    between atoms: C_8  and  C_37
    6  A    between atoms: O_11  and  C_33
    7  A    between atoms: C_15  and  C_23
    8  A    between atoms: C_15  and  C_33
    9  A    between atoms: C_20  and  C_29
   10  A    between atoms: C_22  and  C_23
   11  A    between atoms: C_22  and  C_25
   12  A    between atoms: C_29  and  N_35
                            x       y       z     vdW  Elec       q    Type
                         _______ _______ _______ _____ _____    ______ ____

>  <TORSDO>
F 12

$$$$
=
 OpenBabel11042413203D

 40 41  0  0  1  0  0  0  0  0999 V2000
  186.7960  178.2900  145.4660 C   0  0  0  0  0  0  0  0  0  0  0  0
  190.1190  177.7750  147.0370 O   0  0  0  0  0  0  0  0  0  0  0  0
  189.8660  178.0810  144.6820 C   0  0  0  0  0  0  0  0  0  0  0  0
  191.3200  177.9010  144.3850 C   0  0  0  0  0  2  0  0  0  0  0  0
  187.8550  178.1750  143.1410 C   0  0  0  0  0  0  0  0  0  0  0  0
  187.8910  178.2110  146.2800 C   0  0  0  0  0  3  0  0  0  0  0  0
  186.5720  176.2370  144.0410 C   0  0  0  0  0  1  0  0  0  0  0  0
  191.9870  175.7780  145.4300 N   0  0  0  0  0  0  0  0  0  0  0  0
  191.6870  176.4440  144.3660 C   0  0  0  0  0  3  0  0  0  0  0  0
  189.2450  177.5770  145.9650 C   0  0  2  0  0  3  0  0  0  0  0  0
  190.6250  176.5070  147.3380 C   0  0  0  0  0  2  0  0  0  0  0  0
  192.0290  176.3530  146.7580 C   0  0  1  0  0  3  0  0  0  0  0  0
  186.7130  177.7510  144.0350 C   0  0  1  0  0  3  0  0  0  0  0  0
  189.0110  178.1740  143.7220 C   0  0  0  0  0  0  0  0  0  0  0  0
  187.6260  178.4900  138.7910 O   0  0  0  0  0  0  0  0  0  0  0  0
  186.8030  179.1640  141.2620 O   0  0  0  0  0  0  0  0  0  0  0  0
  188.4990  177.7780  139.3560 C   0  0  0  0  0  0  0  0  0  0  0  0
  188.5540  177.6860  140.7830 N   0  0  0  0  0  2  0  0  0  0  0  0
  189.4540  177.0480  138.5790 N   0  0  0  0  0  2  0  0  0  0  0  0
  187.6930  178.3820  141.6930 C   0  0  0  0  0  0  0  0  0  0  0  0
  189.3920  178.3640  136.6590 O   0  0  0  0  0  1  0  0  0  0  0  0
  188.3110  176.2590  136.5970 C   0  0  0  0  0  1  0  0  0  0  0  0
  189.5040  177.0500  137.1180 C   0  0  2  0  0  0  0  0  0  0  0  0
  190.6320  175.1110  135.9100 C   0  0  0  0  0  1  0  0  0  0  0  0
  190.8310  176.4400  136.6250 C   0  0  0  0  0  3  0  0  0  0  0  0
  191.8430  176.2660  137.7480 C   0  0  0  0  0  1  0  0  0  0  0  0
  185.5640  178.9740  145.9800 C   0  0  2  0  0  3  0  0  0  0  0  0
  184.7860  178.0800  146.7210 O   0  0  0  0  0  1  0  0  0  0  0  0
  184.7530  179.5660  144.8340 C   0  0  0  0  0  2  0  0  0  0  0  0
  183.3380  179.0140  144.8250 C   0  0  0  0  0  2  0  0  0  0  0  0
  182.8430  178.8440  143.4000 C   0  0  0  0  0  2  0  0  0  0  0  0
  180.6250  178.3490  144.0950 O   0  0  0  0  0  0  0  0  0  0  0  0
  181.3640  179.0440  143.3510 C   0  0  0  0  0  0  0  0  0  0  0  0
  180.7820  180.0080  142.5240 O   0  0  0  0  0  0  0  0  0  0  0  0
  179.4840  180.5310  142.7620 C   0  0  0  0  0  1  0  0  0  0  0  0
  192.9040  175.5010  147.6740 C   0  0  0  0  0  2  0  0  0  0  0  0
  192.6440  175.7810  149.1500 C   0  0  0  0  0  2  0  0  0  0  0  0
  193.4120  176.9820  149.5760 C   0  0  0  0  0  0  0  0  0  0  0  0
  192.7800  178.2160  149.6560 O   0  0  0  0  0  0  0  0  0  0  0  0
  194.6240  176.8750  149.8950 O   0  0  0  0  0  1  0  0  0  0  0  0
  1 27  1  0  0  0  0
  1  6  2  0  0  0  0
  2 11  1  0  0  0  0
  3 10  1  0  0  0  0
  4  3  1  0  0  0  0
  5 14  2  0  0  0  0
  5 13  1  0  0  0  0
  8 12  1  0  0  0  0
  9  4  1  0  0  0  0
  9  8  2  0  0  0  0
 10  6  1  1  0  0  0
 10  2  1  0  0  0  0
 12 11  1  0  0  0  0
 12 36  1  1  0  0  0
 13  7  1  1  0  0  0
 13  1  1  0  0  0  0
 14  3  2  0  0  0  0
 15 17  2  0  0  0  0
 16 20  2  0  0  0  0
 17 18  1  0  0  0  0
 18 20  1  0  0  0  0
 19 17  1  0  0  0  0
 20  5  1  0  0  0  0
 21 23  1  0  0  0  0
 23 22  1  6  0  0  0
 23 19  1  0  0  0  0
 24 25  1  0  0  0  0
 25 23  1  0  0  0  0
 25 26  1  0  0  0  0
 27 28  1  6  0  0  0
 29 27  1  0  0  0  0
 30 29  1  0  0  0  0
 31 30  1  0  0  0  0
 33 31  1  0  0  0  0
 33 32  2  0  0  0  0
 34 35  1  0  0  0  0
 34 33  1  0  0  0  0
 36 37  1  0  0  0  0
 37 38  1  0  0  0  0
 38 39  2  0  0  0  0
 38 40  1  0  0  0  0
M  END
>  <MODEL>
4

>  <REMARK>
 VINA RESULT:      -7.6      2.674      8.060
  Name = 
  12 active torsions:
  status: ('A' for Active; 'I' for Inactive)
    1  A    between atoms: C_1  and  C_25
    2  A    between atoms: C_2  and  C_12
    3  A    between atoms: C_2  and  C_38
    4  A    between atoms: C_4  and  C_12
    5  A    between atoms: C_8  and  C_37
    6  A    between atoms: O_11  and  C_33
    7  A    between atoms: C_15  and  C_23
    8  A    between atoms: C_15  and  C_33
    9  A    between atoms: C_20  and  C_29
   10  A    between atoms: C_22  and  C_23
   11  A    between atoms: C_22  and  C_25
   12  A    between atoms: C_29  and  N_35
                            x       y       z     vdW  Elec       q    Type
                         _______ _______ _______ _____ _____    ______ ____

>  <TORSDO>
F 12

$$$$
=
 OpenBabel11042413203D

 40 41  0  0  1  0  0  0  0  0999 V2000
  189.6800  178.0500  143.0730 C   0  0  0  0  0  0  0  0  0  0  0  0
  190.8600  177.7930  139.5640 O   0  0  0  0  0  0  0  0  0  0  0  0
  188.5620  178.1580  140.1030 C   0  0  0  0  0  0  0  0  0  0  0  0
  188.1030  178.1260  138.6800 C   0  0  0  0  0  2  0  0  0  0  0  0
  187.2520  178.1190  142.2720 C   0  0  0  0  0  0  0  0  0  0  0  0
  190.3670  178.0460  141.8910 C   0  0  0  0  0  3  0  0  0  0  0  0
  188.1940  176.0380  143.2700 C   0  0  0  0  0  1  0  0  0  0  0  0
  188.9720  176.0390  137.7150 N   0  0  0  0  0  0  0  0  0  0  0  0
  187.9780  176.7120  138.1890 C   0  0  0  0  0  3  0  0  0  0  0  0
  189.8800  177.5520  140.5300 C   0  0  2  0  0  3  0  0  0  0  0  0
  191.0470  176.5690  138.9150 C   0  0  0  0  0  2  0  0  0  0  0  0
  190.3130  176.5680  137.5770 C   0  0  1  0  0  3  0  0  0  0  0  0
  188.2430  177.5570  143.2660 C   0  0  1  0  0  3  0  0  0  0  0  0
  187.7050  178.2050  141.0630 C   0  0  0  0  0  0  0  0  0  0  0  0
  182.9800  178.7800  142.9000 O   0  0  0  0  0  0  0  0  0  0  0  0
  185.4850  178.4350  143.8200 O   0  0  0  0  0  0  0  0  0  0  0  0
  183.4780  178.7310  141.7420 C   0  0  0  0  0  0  0  0  0  0  0  0
  184.8800  178.5090  141.5590 N   0  0  0  0  0  2  0  0  0  0  0  0
  182.6470  178.8960  140.5880 N   0  0  0  0  0  2  0  0  0  0  0  0
  185.8410  178.3610  142.6120 C   0  0  0  0  0  0  0  0  0  0  0  0
  180.9190  180.0450  141.6430 O   0  0  0  0  0  1  0  0  0  0  0  0
  180.5250  177.8050  140.9880 C   0  0  0  0  0  1  0  0  0  0  0  0
  181.2040  179.1210  140.6350 C   0  0  2  0  0  0  0  0  0  0  0  0
  180.4050  178.5460  138.2850 C   0  0  0  0  0  1  0  0  0  0  0  0
  180.7000  179.6590  139.2810 C   0  0  0  0  0  3  0  0  0  0  0  0
  181.6650  180.6570  138.6570 C   0  0  0  0  0  1  0  0  0  0  0  0
  190.3540  178.5970  144.2960 C   0  0  2  0  0  3  0  0  0  0  0  0
  191.7430  178.5670  144.1400 O   0  0  0  0  0  1  0  0  0  0  0  0
  189.9390  177.8180  145.5380 C   0  0  0  0  0  2  0  0  0  0  0  0
  190.9640  176.7510  145.8820 C   0  0  0  0  0  2  0  0  0  0  0  0
  190.8780  176.3850  147.3520 C   0  0  0  0  0  2  0  0  0  0  0  0
  193.0250  175.3760  147.5060 O   0  0  0  0  0  0  0  0  0  0  0  0
  192.2530  176.2770  147.9270 C   0  0  0  0  0  0  0  0  0  0  0  0
  192.7140  177.1710  148.8950 O   0  0  0  0  0  0  0  0  0  0  0  0
  193.6580  176.7970  149.8880 C   0  0  0  0  0  1  0  0  0  0  0  0
  191.0900  175.7690  136.5330 C   0  0  0  0  0  2  0  0  0  0  0  0
  190.2770  174.6150  135.9600 C   0  0  0  0  0  2  0  0  0  0  0  0
  191.1750  173.4680  135.6600 C   0  0  0  0  0  0  0  0  0  0  0  0
  192.5510  173.6200  135.7640 O   0  0  0  0  0  1  0  0  0  0  0  0
  190.6880  172.3500  135.3470 O   0  0  0  0  0  0  0  0  0  0  0  0
  1 13  1  0  0  0  0
  1 27  1  0  0  0  0
  2 10  1  0  0  0  0
  3 10  1  0  0  0  0
  3 14  2  0  0  0  0
  4  3  1  0  0  0  0
  5 20  1  0  0  0  0
  5 13  1  0  0  0  0
  6  1  2  0  0  0  0
  8  9  2  0  0  0  0
  9  4  1  0  0  0  0
 10  6  1  1  0  0  0
 11  2  1  0  0  0  0
 12 36  1  6  0  0  0
 12  8  1  0  0  0  0
 12 11  1  0  0  0  0
 13  7  1  6  0  0  0
 14  5  2  0  0  0  0
 17 15  2  0  0  0  0
 18 17  1  0  0  0  0
 18 20  1  0  0  0  0
 19 23  1  0  0  0  0
 19 17  1  0  0  0  0
 20 16  2  0  0  0  0
 23 22  1  1  0  0  0
 23 21  1  0  0  0  0
 24 25  1  0  0  0  0
 25 23  1  0  0  0  0
 26 25  1  0  0  0  0
 27 28  1  6  0  0  0
 27 29  1  0  0  0  0
 29 30  1  0  0  0  0
 30 31  1  0  0  0  0
 31 33  1  0  0  0  0
 32 33  2  0  0  0  0
 33 34  1  0  0  0  0
 34 35  1  0  0  0  0
 37 36  1  0  0  0  0
 38 39  1  0  0  0  0
 38 37  1  0  0  0  0
 40 38  2  0  0  0  0
M  END
>  <MODEL>
5

>  <REMARK>
 VINA RESULT:      -7.0      1.693      2.346
  Name = 
  12 active torsions:
  status: ('A' for Active; 'I' for Inactive)
    1  A    between atoms: C_1  and  C_25
    2  A    between atoms: C_2  and  C_12
    3  A    between atoms: C_2  and  C_38
    4  A    between atoms: C_4  and  C_12
    5  A    between atoms: C_8  and  C_37
    6  A    between atoms: O_11  and  C_33
    7  A    between atoms: C_15  and  C_23
    8  A    between atoms: C_15  and  C_33
    9  A    between atoms: C_20  and  C_29
   10  A    between atoms: C_22  and  C_23
   11  A    between atoms: C_22  and  C_25
   12  A    between atoms: C_29  and  N_35
                            x       y       z     vdW  Elec       q    Type
                         _______ _______ _______ _____ _____    ______ ____

>  <TORSDO>
F 12

$$$$
=
 OpenBabel11042413203D

 40 41  0  0  1  0  0  0  0  0999 V2000
  189.1070  177.9870  138.1900 C   0  0  0  0  0  0  0  0  0  0  0  0
  188.4080  178.5500  141.7900 O   0  0  0  0  0  0  0  0  0  0  0  0
  190.4980  177.6820  141.0270 C   0  0  0  0  0  0  0  0  0  0  0  0
  191.0580  177.5010  142.4020 C   0  0  0  0  0  2  0  0  0  0  0  0
  191.3330  176.8720  138.7750 C   0  0  0  0  0  0  0  0  0  0  0  0
  188.6620  178.3930  139.4160 C   0  0  0  0  0  3  0  0  0  0  0  0
  189.3710  175.4940  138.0940 C   0  0  0  0  0  1  0  0  0  0  0  0
  189.4040  176.1890  143.6600 N   0  0  0  0  0  0  0  0  0  0  0  0
  190.5310  176.2450  143.0350 C   0  0  0  0  0  3  0  0  0  0  0  0
  189.0110  177.7970  140.7790 C   0  0  2  0  0  3  0  0  0  0  0  0
  187.7260  177.6210  142.5830 C   0  0  0  0  0  2  0  0  0  0  0  0
  188.5260  177.3260  143.8490 C   0  0  1  0  0  3  0  0  0  0  0  0
  190.0780  176.8300  137.9350 C   0  0  1  0  0  3  0  0  0  0  0  0
  191.1380  177.2400  140.0000 C   0  0  0  0  0  0  0  0  0  0  0  0
  194.9660  175.0430  137.1830 O   0  0  0  0  0  0  0  0  0  0  0  0
  193.6690  177.0490  138.4230 O   0  0  0  0  0  0  0  0  0  0  0  0
  193.8590  174.4390  137.1630 C   0  0  0  0  0  0  0  0  0  0  0  0
  192.6800  175.0580  137.6860 N   0  0  0  0  0  2  0  0  0  0  0  0
  193.7620  173.1200  136.6150 N   0  0  0  0  0  2  0  0  0  0  0  0
  192.6240  176.3540  138.2960 C   0  0  0  0  0  0  0  0  0  0  0  0
  195.5800  173.2120  135.1640 O   0  0  0  0  0  1  0  0  0  0  0  0
  194.3290  171.2050  135.2510 C   0  0  0  0  0  1  0  0  0  0  0  0
  194.8850  172.3790  136.0430 C   0  0  2  0  0  0  0  0  0  0  0  0
  197.2080  172.5460  137.0760 C   0  0  0  0  0  1  0  0  0  0  0  0
  195.8330  171.8970  137.1590 C   0  0  0  0  0  3  0  0  0  0  0  0
  195.9860  170.3830  137.1770 C   0  0  0  0  0  1  0  0  0  0  0  0
  188.6410  178.7300  136.9720 C   0  0  2  0  0  3  0  0  0  0  0  0
  188.7760  180.1080  137.1640 O   0  0  0  0  0  1  0  0  0  0  0  0
  187.1980  178.3750  136.6390 C   0  0  0  0  0  2  0  0  0  0  0  0
  187.1320  177.1870  135.6940 C   0  0  0  0  0  2  0  0  0  0  0  0
  185.7370  176.5910  135.6850 C   0  0  0  0  0  2  0  0  0  0  0  0
  185.9340  174.7090  137.1240 O   0  0  0  0  0  0  0  0  0  0  0  0
  185.8130  175.1210  135.9410 C   0  0  0  0  0  0  0  0  0  0  0  0
  185.7180  174.1910  134.9030 O   0  0  0  0  0  0  0  0  0  0  0  0
  184.5080  173.5170  134.5950 C   0  0  0  0  0  1  0  0  0  0  0  0
  187.5960  177.0830  145.0340 C   0  0  0  0  0  2  0  0  0  0  0  0
  186.4030  178.0320  145.0400 C   0  0  0  0  0  2  0  0  0  0  0  0
  185.9950  178.3170  146.4420 C   0  0  0  0  0  0  0  0  0  0  0  0
  184.6850  178.6820  146.7220 O   0  0  0  0  0  0  0  0  0  0  0  0
  186.8260  178.1950  147.3790 O   0  0  0  0  0  1  0  0  0  0  0  0
  1  6  2  0  0  0  0
  2 11  1  0  0  0  0
  3  4  1  0  0  0  0
  4  9  1  0  0  0  0
  5 14  2  0  0  0  0
  8 12  1  0  0  0  0
  9  8  2  0  0  0  0
 10  6  1  6  0  0  0
 10  3  1  0  0  0  0
 10  2  1  0  0  0  0
 11 12  1  0  0  0  0
 12 36  1  1  0  0  0
 13  7  1  1  0  0  0
 13  1  1  0  0  0  0
 13  5  1  0  0  0  0
 14  3  2  0  0  0  0
 17 15  2  0  0  0  0
 17 18  1  0  0  0  0
 18 20  1  0  0  0  0
 19 17  1  0  0  0  0
 20 16  2  0  0  0  0
 20  5  1  0  0  0  0
 21 23  1  0  0  0  0
 23 22  1  6  0  0  0
 23 19  1  0  0  0  0
 23 25  1  0  0  0  0
 24 25  1  0  0  0  0
 25 26  1  0  0  0  0
 27 28  1  1  0  0  0
 27  1  1  0  0  0  0
 29 27  1  0  0  0  0
 30 29  1  0  0  0  0
 31 30  1  0  0  0  0
 31 33  1  0  0  0  0
 33 32  2  0  0  0  0
 34 33  1  0  0  0  0
 35 34  1  0  0  0  0
 36 37  1  0  0  0  0
 37 38  1  0  0  0  0
 38 39  2  0  0  0  0
 38 40  1  0  0  0  0
M  END
>  <MODEL>
6

>  <REMARK>
 VINA RESULT:      -6.8      3.720     10.873
  Name = 
  12 active torsions:
  status: ('A' for Active; 'I' for Inactive)
    1  A    between atoms: C_1  and  C_25
    2  A    between atoms: C_2  and  C_12
    3  A    between atoms: C_2  and  C_38
    4  A    between atoms: C_4  and  C_12
    5  A    between atoms: C_8  and  C_37
    6  A    between atoms: O_11  and  C_33
    7  A    between atoms: C_15  and  C_23
    8  A    between atoms: C_15  and  C_33
    9  A    between atoms: C_20  and  C_29
   10  A    between atoms: C_22  and  C_23
   11  A    between atoms: C_22  and  C_25
   12  A    between atoms: C_29  and  N_35
                            x       y       z     vdW  Elec       q    Type
                         _______ _______ _______ _____ _____    ______ ____

>  <TORSDO>
F 12

$$$$
=
 OpenBabel11042413203D

 40 41  0  0  1  0  0  0  0  0999 V2000
  188.4070  175.7440  135.8690 C   0  0  0  0  0  0  0  0  0  0  0  0
  191.8270  174.3830  135.3970 O   0  0  0  0  0  0  0  0  0  0  0  0
  191.1640  175.4680  137.4190 C   0  0  0  0  0  0  0  0  0  0  0  0
  192.5140  175.3620  138.0550 C   0  0  0  0  0  2  0  0  0  0  0  0
  189.1060  176.7800  138.1010 C   0  0  0  0  0  0  0  0  0  0  0  0
  189.5360  175.0650  135.5070 C   0  0  0  0  0  3  0  0  0  0  0  0
  188.8510  178.2060  136.0720 C   0  0  0  0  0  1  0  0  0  0  0  0
  194.1170  176.3090  136.4490 N   0  0  0  0  0  0  0  0  0  0  0  0
  193.4350  176.4300  137.5390 C   0  0  0  0  0  3  0  0  0  0  0  0
  190.9760  175.3590  135.9230 C   0  0  2  0  0  3  0  0  0  0  0  0
  192.8400  175.0910  134.7430 C   0  0  0  0  0  2  0  0  0  0  0  0
  194.0960  175.1290  135.6100 C   0  0  1  0  0  3  0  0  0  0  0  0
  188.3630  176.9620  136.7980 C   0  0  1  0  0  3  0  0  0  0  0  0
  190.2280  176.1460  137.9870 C   0  0  0  0  0  0  0  0  0  0  0  0
  188.1880  178.5820  141.9730 O   0  0  0  0  0  0  0  0  0  0  0  0
  187.7050  178.2270  139.3490 O   0  0  0  0  0  0  0  0  0  0  0  0
  189.1140  177.7370  141.8400 C   0  0  0  0  0  0  0  0  0  0  0  0
  189.4010  177.1620  140.5620 N   0  0  0  0  0  2  0  0  0  0  0  0
  189.8980  177.3380  142.9700 N   0  0  0  0  0  2  0  0  0  0  0  0
  188.6860  177.4340  139.3500 C   0  0  0  0  0  0  0  0  0  0  0  0
  188.3710  178.1900  144.5070 O   0  0  0  0  0  1  0  0  0  0  0  0
  190.5500  179.1150  144.4760 C   0  0  0  0  0  1  0  0  0  0  0  0
  189.7140  177.8520  144.3260 C   0  0  2  0  0  0  0  0  0  0  0  0
  189.5320  177.0590  146.7400 C   0  0  0  0  0  1  0  0  0  0  0  0
  190.1240  176.7880  145.3640 C   0  0  0  0  0  3  0  0  0  0  0  0
  191.6340  176.6420  145.4790 C   0  0  0  0  0  1  0  0  0  0  0  0
  187.0820  175.2710  135.3490 C   0  0  2  0  0  3  0  0  0  0  0  0
  186.0570  176.1050  135.8020 O   0  0  0  0  0  1  0  0  0  0  0  0
  186.8200  173.8280  135.7630 C   0  0  0  0  0  2  0  0  0  0  0  0
  186.5220  173.7330  137.2500 C   0  0  0  0  0  2  0  0  0  0  0  0
  185.3640  172.7850  137.5000 C   0  0  0  0  0  2  0  0  0  0  0  0
  183.9580  174.6490  137.9470 O   0  0  0  0  0  0  0  0  0  0  0  0
  184.0710  173.5260  137.3900 C   0  0  0  0  0  0  0  0  0  0  0  0
  182.9970  173.0190  136.6550 O   0  0  0  0  0  0  0  0  0  0  0  0
  182.2400  171.8990  137.0890 C   0  0  0  0  0  1  0  0  0  0  0  0
  195.3530  175.0730  134.7460 C   0  0  0  0  0  2  0  0  0  0  0  0
  196.4990  174.3440  135.4350 C   0  0  0  0  0  2  0  0  0  0  0  0
  197.4810  175.3330  135.9580 C   0  0  0  0  0  0  0  0  0  0  0  0
  197.3120  176.6850  135.6910 O   0  0  0  0  0  0  0  0  0  0  0  0
  198.4440  174.9490  136.6710 O   0  0  0  0  0  1  0  0  0  0  0  0
  1 13  1  0  0  0  0
  2 10  1  0  0  0  0
  3 14  2  0  0  0  0
  3  4  1  0  0  0  0
  5 20  1  0  0  0  0
  6  1  2  0  0  0  0
  8  9  2  0  0  0  0
  9  4  1  0  0  0  0
 10  6  1  1  0  0  0
 10  3  1  0  0  0  0
 11  2  1  0  0  0  0
 11 12  1  0  0  0  0
 12 36  1  6  0  0  0
 12  8  1  0  0  0  0
 13  7  1  6  0  0  0
 13  5  1  0  0  0  0
 14  5  2  0  0  0  0
 16 20  2  0  0  0  0
 17 15  2  0  0  0  0
 17 19  1  0  0  0  0
 18 17  1  0  0  0  0
 19 23  1  0  0  0  0
 20 18  1  0  0  0  0
 23 22  1  1  0  0  0
 23 21  1  0  0  0  0
 23 25  1  0  0  0  0
 25 26  1  0  0  0  0
 25 24  1  0  0  0  0
 27 29  1  0  0  0  0
 27 28  1  1  0  0  0
 27  1  1  0  0  0  0
 29 30  1  0  0  0  0
 30 31  1  0  0  0  0
 33 31  1  0  0  0  0
 33 32  2  0  0  0  0
 34 35  1  0  0  0  0
 34 33  1  0  0  0  0
 36 37  1  0  0  0  0
 37 38  1  0  0  0  0
 38 40  1  0  0  0  0
 39 38  2  0  0  0  0
M  END
>  <MODEL>
7

>  <REMARK>
 VINA RESULT:      -6.6      3.820      8.153
  Name = 
  12 active torsions:
  status: ('A' for Active; 'I' for Inactive)
    1  A    between atoms: C_1  and  C_25
    2  A    between atoms: C_2  and  C_12
    3  A    between atoms: C_2  and  C_38
    4  A    between atoms: C_4  and  C_12
    5  A    between atoms: C_8  and  C_37
    6  A    between atoms: O_11  and  C_33
    7  A    between atoms: C_15  and  C_23
    8  A    between atoms: C_15  and  C_33
    9  A    between atoms: C_20  and  C_29
   10  A    between atoms: C_22  and  C_23
   11  A    between atoms: C_22  and  C_25
   12  A    between atoms: C_29  and  N_35
                            x       y       z     vdW  Elec       q    Type
                         _______ _______ _______ _____ _____    ______ ____

>  <TORSDO>
F 12

$$$$
=
 OpenBabel11042413203D

 40 41  0  0  1  0  0  0  0  0999 V2000
  188.1800  176.7640  136.3200 C   0  0  0  0  0  0  0  0  0  0  0  0
  191.3880  175.0860  135.5030 O   0  0  0  0  0  0  0  0  0  0  0  0
  190.8760  175.8320  137.7140 C   0  0  0  0  0  0  0  0  0  0  0  0
  192.2000  175.4280  138.2810 C   0  0  0  0  0  2  0  0  0  0  0  0
  189.0120  177.2430  138.6910 C   0  0  0  0  0  0  0  0  0  0  0  0
  189.2090  176.0270  135.8030 C   0  0  0  0  0  3  0  0  0  0  0  0
  188.9490  179.0590  136.9840 C   0  0  0  0  0  1  0  0  0  0  0  0
  193.9140  176.4530  136.8480 N   0  0  0  0  0  0  0  0  0  0  0  0
  193.2550  176.4470  137.9580 C   0  0  0  0  0  3  0  0  0  0  0  0
  190.6760  176.0430  136.2300 C   0  0  2  0  0  3  0  0  0  0  0  0
  192.4860  175.7700  134.9720 C   0  0  0  0  0  2  0  0  0  0  0  0
  193.7360  175.4730  135.7970 C   0  0  1  0  0  3  0  0  0  0  0  0
  188.2990  177.7720  137.4670 C   0  0  1  0  0  3  0  0  0  0  0  0
  190.0390  176.5020  138.4270 C   0  0  0  0  0  0  0  0  0  0  0  0
  188.3570  178.3770  142.8580 O   0  0  0  0  0  0  0  0  0  0  0  0
  187.7680  178.5380  140.2370 O   0  0  0  0  0  0  0  0  0  0  0  0
  189.2090  177.5060  142.5360 C   0  0  0  0  0  0  0  0  0  0  0  0
  189.4110  177.1510  141.1650 N   0  0  0  0  0  2  0  0  0  0  0  0
  189.9920  176.8530  143.5410 N   0  0  0  0  0  2  0  0  0  0  0  0
  188.6830  177.6890  140.0530 C   0  0  0  0  0  0  0  0  0  0  0  0
  188.5650  176.9520  145.3780 O   0  0  0  0  0  1  0  0  0  0  0  0
  190.2770  178.5780  145.2130 C   0  0  0  0  0  1  0  0  0  0  0  0
  189.8910  177.1260  144.9740 C   0  0  2  0  0  0  0  0  0  0  0  0
  191.2160  176.7460  147.1170 C   0  0  0  0  0  1  0  0  0  0  0  0
  190.8040  176.1710  145.7680 C   0  0  0  0  0  3  0  0  0  0  0  0
  192.0460  175.7700  144.9860 C   0  0  0  0  0  1  0  0  0  0  0  0
  186.8040  176.5790  135.7520 C   0  0  2  0  0  3  0  0  0  0  0  0
  186.4540  177.6760  134.9600 O   0  0  0  0  0  1  0  0  0  0  0  0
  185.7820  176.3730  136.8630 C   0  0  0  0  0  2  0  0  0  0  0  0
  185.0440  177.6640  137.1720 C   0  0  0  0  0  2  0  0  0  0  0  0
  184.8190  177.8030  138.6660 C   0  0  0  0  0  2  0  0  0  0  0  0
  184.5380  180.1250  139.0890 O   0  0  0  0  0  0  0  0  0  0  0  0
  183.9790  179.0070  138.9420 C   0  0  0  0  0  0  0  0  0  0  0  0
  182.5860  178.9290  139.0070 O   0  0  0  0  0  0  0  0  0  0  0  0
  181.9120  177.7900  139.5210 C   0  0  0  0  0  1  0  0  0  0  0  0
  194.9740  175.4240  134.9060 C   0  0  0  0  0  2  0  0  0  0  0  0
  195.9450  174.3250  135.3200 C   0  0  0  0  0  2  0  0  0  0  0  0
  196.9580  174.8780  136.2590 C   0  0  0  0  0  0  0  0  0  0  0  0
  197.4170  176.1790  136.0960 O   0  0  0  0  0  0  0  0  0  0  0  0
  197.3750  174.1810  137.2200 O   0  0  0  0  0  1  0  0  0  0  0  0
  1 13  1  0  0  0  0
  2 10  1  0  0  0  0
  3  4  1  0  0  0  0
  3 14  2  0  0  0  0
  5 20  1  0  0  0  0
  6  1  2  0  0  0  0
  8  9  2  0  0  0  0
  9  4  1  0  0  0  0
 10  6  1  1  0  0  0
 10  3  1  0  0  0  0
 11  2  1  0  0  0  0
 11 12  1  0  0  0  0
 12 36  1  6  0  0  0
 12  8  1  0  0  0  0
 13  7  1  6  0  0  0
 13  5  1  0  0  0  0
 14  5  2  0  0  0  0
 17 15  2  0  0  0  0
 17 19  1  0  0  0  0
 18 17  1  0  0  0  0
 19 23  1  0  0  0  0
 20 16  2  0  0  0  0
 20 18  1  0  0  0  0
 23 22  1  1  0  0  0
 23 21  1  0  0  0  0
 23 25  1  0  0  0  0
 25 24  1  0  0  0  0
 26 25  1  0  0  0  0
 27 28  1  1  0  0  0
 27  1  1  0  0  0  0
 27 29  1  0  0  0  0
 29 30  1  0  0  0  0
 30 31  1  0  0  0  0
 31 33  1  0  0  0  0
 33 34  1  0  0  0  0
 33 32  2  0  0  0  0
 34 35  1  0  0  0  0
 36 37  1  0  0  0  0
 37 38  1  0  0  0  0
 38 40  1  0  0  0  0
 39 38  2  0  0  0  0
M  END
>  <MODEL>
8

>  <REMARK>
 VINA RESULT:      -6.5      2.797      7.681
  Name = 
  12 active torsions:
  status: ('A' for Active; 'I' for Inactive)
    1  A    between atoms: C_1  and  C_25
    2  A    between atoms: C_2  and  C_12
    3  A    between atoms: C_2  and  C_38
    4  A    between atoms: C_4  and  C_12
    5  A    between atoms: C_8  and  C_37
    6  A    between atoms: O_11  and  C_33
    7  A    between atoms: C_15  and  C_23
    8  A    between atoms: C_15  and  C_33
    9  A    between atoms: C_20  and  C_29
   10  A    between atoms: C_22  and  C_23
   11  A    between atoms: C_22  and  C_25
   12  A    between atoms: C_29  and  N_35
                            x       y       z     vdW  Elec       q    Type
                         _______ _______ _______ _____ _____    ______ ____

>  <TORSDO>
F 12

$$$$
=
 OpenBabel11042413203D

 40 41  0  0  1  0  0  0  0  0999 V2000
  191.4290  175.9100  135.8270 C   0  0  0  0  0  0  0  0  0  0  0  0
  188.2190  177.3050  134.5940 O   0  0  0  0  0  0  0  0  0  0  0  0
  189.0020  177.7040  136.8150 C   0  0  0  0  0  0  0  0  0  0  0  0
  187.7920  178.4800  137.2260 C   0  0  0  0  0  2  0  0  0  0  0  0
  190.9190  176.7670  138.1830 C   0  0  0  0  0  0  0  0  0  0  0  0
  190.3730  176.4020  135.1130 C   0  0  0  0  0  3  0  0  0  0  0  0
  190.6570  174.3500  137.6350 C   0  0  0  0  0  1  0  0  0  0  0  0
  185.8470  177.0770  136.6870 N   0  0  0  0  0  0  0  0  0  0  0  0
  186.6560  177.5600  137.5700 C   0  0  0  0  0  3  0  0  0  0  0  0
  188.9820  176.7630  135.6310 C   0  0  2  0  0  3  0  0  0  0  0  0
  187.0270  176.5750  134.5940 C   0  0  0  0  0  2  0  0  0  0  0  0
  185.9210  177.3790  135.2730 C   0  0  1  0  0  3  0  0  0  0  0  0
  191.4270  175.6260  137.3320 C   0  0  1  0  0  3  0  0  0  0  0  0
  189.9000  177.3880  137.6830 C   0  0  0  0  0  0  0  0  0  0  0  0
  192.0370  177.4290  142.3530 O   0  0  0  0  0  0  0  0  0  0  0  0
  192.6470  177.2200  139.7410 O   0  0  0  0  0  0  0  0  0  0  0  0
  190.8350  177.2640  142.0090 C   0  0  0  0  0  0  0  0  0  0  0  0
  190.4910  177.0450  140.6380 N   0  0  0  0  0  2  0  0  0  0  0  0
  189.7900  177.2940  142.9880 N   0  0  0  0  0  2  0  0  0  0  0  0
  191.4160  177.0230  139.5440 C   0  0  0  0  0  0  0  0  0  0  0  0
  190.3210  178.8430  144.6420 O   0  0  0  0  0  1  0  0  0  0  0  0
  191.1920  176.6520  144.8530 C   0  0  0  0  0  1  0  0  0  0  0  0
  190.0050  177.5010  144.4190 C   0  0  2  0  0  0  0  0  0  0  0  0
  187.4920  177.8300  144.6830 C   0  0  0  0  0  1  0  0  0  0  0  0
  188.7370  177.1290  145.2120 C   0  0  0  0  0  3  0  0  0  0  0  0
  188.8810  177.4040  146.7010 C   0  0  0  0  0  1  0  0  0  0  0  0
  192.7180  175.6350  135.1120 C   0  0  2  0  0  3  0  0  0  0  0  0
  192.8220  174.2760  134.8040 O   0  0  0  0  0  1  0  0  0  0  0  0
  193.9100  176.0870  135.9470 C   0  0  0  0  0  2  0  0  0  0  0  0
  194.8240  174.9180  136.2720 C   0  0  0  0  0  2  0  0  0  0  0  0
  194.9750  174.7630  137.7740 C   0  0  0  0  0  2  0  0  0  0  0  0
  195.0570  172.7270  138.9970 O   0  0  0  0  0  0  0  0  0  0  0  0
  195.5700  173.4290  138.0870 C   0  0  0  0  0  0  0  0  0  0  0  0
  196.6600  172.9260  137.3740 O   0  0  0  0  0  0  0  0  0  0  0  0
  197.9850  173.3920  137.5810 C   0  0  0  0  0  1  0  0  0  0  0  0
  184.5730  177.1160  134.6070 C   0  0  0  0  0  2  0  0  0  0  0  0
  184.0350  175.7240  134.9120 C   0  0  0  0  0  2  0  0  0  0  0  0
  182.7650  175.8330  135.6810 C   0  0  0  0  0  0  0  0  0  0  0  0
  182.5570  176.9180  136.5230 O   0  0  0  0  0  1  0  0  0  0  0  0
  181.8670  174.9640  135.5430 O   0  0  0  0  0  0  0  0  0  0  0  0
  1 13  1  0  0  0  0
  2 11  1  0  0  0  0
  2 10  1  0  0  0  0
  3  4  1  0  0  0  0
  3 14  2  0  0  0  0
  4  9  1  0  0  0  0
  5 20  1  0  0  0  0
  6  1  2  0  0  0  0
  8  9  2  0  0  0  0
 10  6  1  6  0  0  0
 10  3  1  0  0  0  0
 11 12  1  0  0  0  0
 12 36  1  6  0  0  0
 12  8  1  0  0  0  0
 13  7  1  6  0  0  0
 13  5  1  0  0  0  0
 14  5  2  0  0  0  0
 17 15  2  0  0  0  0
 17 19  1  0  0  0  0
 18 17  1  0  0  0  0
 19 23  1  0  0  0  0
 20 16  2  0  0  0  0
 20 18  1  0  0  0  0
 23 21  1  0  0  0  0
 23 22  1  1  0  0  0
 23 25  1  0  0  0  0
 24 25  1  0  0  0  0
 25 26  1  0  0  0  0
 27 28  1  1  0  0  0
 27  1  1  0  0  0  0
 27 29  1  0  0  0  0
 29 30  1  0  0  0  0
 30 31  1  0  0  0  0
 31 33  1  0  0  0  0
 33 32  2  0  0  0  0
 34 35  1  0  0  0  0
 34 33  1  0  0  0  0
 36 37  1  0  0  0  0
 37 38  1  0  0  0  0
 38 39  1  0  0  0  0
 40 38  2  0  0  0  0
M  END
>  <MODEL>
9

>  <REMARK>
 VINA RESULT:      -6.4      3.514      9.140
  Name = 
  12 active torsions:
  status: ('A' for Active; 'I' for Inactive)
    1  A    between atoms: C_1  and  C_25
    2  A    between atoms: C_2  and  C_12
    3  A    between atoms: C_2  and  C_38
    4  A    between atoms: C_4  and  C_12
    5  A    between atoms: C_8  and  C_37
    6  A    between atoms: O_11  and  C_33
    7  A    between atoms: C_15  and  C_23
    8  A    between atoms: C_15  and  C_33
    9  A    between atoms: C_20  and  C_29
   10  A    between atoms: C_22  and  C_23
   11  A    between atoms: C_22  and  C_25
   12  A    between atoms: C_29  and  N_35
                            x       y       z     vdW  Elec       q    Type
                         _______ _______ _______ _____ _____    ______ ____

>  <TORSDO>
F 12

$$$$
