=
 OpenBabel11032420503D

 63 64  0  0  1  0  0  0  0  0999 V2000
  184.9670  178.4400  139.8680 C   0  0  2  0  0  3  0  0  0  0  0  0
  185.9690  178.5620  138.8140 N   0  0  0  0  0  2  0  0  0  0  0  0
  185.8640  177.8490  137.5810 C   0  0  0  0  0  0  0  0  0  0  0  0
  184.8720  176.8310  137.4190 N   0  0  0  0  0  2  0  0  0  0  0  0
  186.6590  178.1200  136.6450 O   0  0  0  0  0  0  0  0  0  0  0  0
  184.7390  176.0510  136.1990 C   0  0  2  0  0  3  0  0  0  0  0  0
  182.9090  174.5970  137.1910 N   0  0  0  0  0  1  0  0  0  0  0  0
  183.3750  175.4380  136.1380 C   0  0  0  0  0  0  0  0  0  0  0  0
  182.6310  175.6360  135.1030 N   0  0  0  0  0  2  0  0  0  0  0  0
  185.7750  175.0280  136.1710 N   0  0  0  0  0  2  0  0  0  0  0  0
  188.0660  174.6710  136.3910 C   0  0  0  0  0  3  0  0  0  0  0  0
  186.9800  175.1820  136.8650 N   0  0  0  0  0  0  0  0  0  0  0  0
  190.5120  174.1660  136.6240 N   0  0  0  0  0  2  0  0  0  0  0  0
  189.3500  174.8830  137.0570 C   0  0  0  0  0  0  0  0  0  0  0  0
  189.4080  175.6480  138.0540 O   0  0  0  0  0  0  0  0  0  0  0  0
  194.1290  173.5710  137.2600 N   0  0  0  0  0  0  0  0  0  0  0  0
  192.1940  175.7320  137.4550 C   0  0  0  0  0  2  0  0  0  0  0  0
  191.7830  174.2670  137.3210 C   0  0  2  0  0  3  0  0  0  0  0  0
  193.6010  175.8390  138.0440 C   0  0  0  0  0  2  0  0  0  0  0  0
  192.8540  173.5150  136.5360 C   0  0  0  0  0  2  0  0  0  0  0  0
  194.5680  174.9730  137.2330 C   0  0  0  0  0  2  0  0  0  0  0  0
  195.1200  172.7470  136.5460 C   0  0  1  0  0  3  0  0  0  0  0  0
  195.4770  173.3750  135.1960 C   0  0  0  0  0  1  0  0  0  0  0  0
  196.7600  171.0640  137.4540 C   0  0  0  0  0  1  0  0  0  0  0  0
  196.3950  172.5370  137.3850 C   0  0  1  0  0  3  0  0  0  0  0  0
  197.4710  173.2750  136.8760 O   0  0  0  0  0  0  0  0  0  0  0  0
  197.9060  174.0670  137.9410 C   0  0  0  0  0  2  0  0  0  0  0  0
  198.1740  175.3600  137.4870 O   0  0  0  0  0  1  0  0  0  0  0  0
  183.9470  180.5630  139.0650 O   0  0  0  0  0  1  0  0  0  0  0  0
  182.5300  178.7570  139.6910 C   0  0  0  0  0  3  0  0  0  0  0  0
  183.7570  179.2620  139.5250 C   0  0  0  0  0  0  0  0  0  0  0  0
  180.4920  179.8290  140.5340 C   0  0  0  0  0  0  0  0  0  0  0  0
  181.2640  179.4900  139.4790 C   0  0  0  0  0  0  0  0  0  0  0  0
  179.0260  182.9020  139.2690 C   0  0  0  0  0  3  0  0  0  0  0  0
  179.1150  181.7120  139.7930 C   0  0  0  0  0  0  0  0  0  0  0  0
  178.9390  183.0570  137.7920 C   0  0  0  0  0  1  0  0  0  0  0  0
  179.2010  180.5160  140.3140 C   0  0  0  0  0  3  0  0  0  0  0  0
  180.8970  179.8800  138.1460 N   0  0  0  0  0  2  0  0  0  0  0  0
  179.8650  179.2240  137.4020 C   0  0  0  0  0  0  0  0  0  0  0  0
  179.1650  178.3230  137.9380 O   0  0  0  0  0  0  0  0  0  0  0  0
  179.5780  179.6690  136.0050 C   0  0  1  0  0  3  0  0  0  0  0  0
  180.6300  180.6640  135.5440 C   0  0  0  0  0  1  0  0  0  0  0  0
  179.5160  178.4630  135.0780 C   0  0  0  0  0  2  0  0  0  0  0  0
  179.7670  177.1800  135.8510 C   0  0  0  0  0  1  0  0  0  0  0  0
  180.8960  179.4550  141.9350 C   0  0  0  0  0  2  0  0  0  0  0  0
  179.6660  179.2750  142.8070 C   0  0  0  0  0  2  0  0  0  0  0  0
  179.2830  177.8760  142.8150 N   0  0  0  0  0  1  0  0  0  0  0  0
  185.5410  178.8630  141.1400 N   0  0  0  0  0  2  0  0  0  0  0  0
  186.5610  178.1040  144.2950 N   0  0  0  0  0  0  0  0  0  0  0  0
  183.4420  179.8320  144.6890 F   0  0  0  0  0  0  0  0  0  0  0  0
  185.7610  179.2630  144.7050 C   0  0  0  0  0  2  0  0  0  0  0  0
  184.0990  178.2600  143.0310 C   0  0  0  0  0  2  0  0  0  0  0  0
  184.4920  179.4800  143.8600 C   0  0  1  0  0  3  0  0  0  0  0  0
  186.4720  177.5720  142.9570 C   0  0  0  0  0  0  0  0  0  0  0  0
  185.2540  177.8280  142.1290 C   0  0  2  0  0  3  0  0  0  0  0  0
  187.4480  176.9660  142.4470 O   0  0  0  0  0  0  0  0  0  0  0  0
  188.8860  178.0530  145.2050 C   0  0  0  0  0  0  0  0  0  0  0  0
  189.3440  178.7320  144.2460 O   0  0  0  0  0  0  0  0  0  0  0  0
  187.5190  177.6250  145.2040 N   0  0  0  0  0  2  0  0  0  0  0  0
  189.8120  177.6260  146.2960 C   0  0  1  0  0  3  0  0  0  0  0  0
  189.0900  176.8170  147.3650 C   0  0  0  0  0  1  0  0  0  0  0  0
  191.0500  176.9070  145.7580 C   0  0  0  0  0  2  0  0  0  0  0  0
  191.7960  176.1290  146.8300 C   0  0  0  0  0  1  0  0  0  0  0  0
  1  2  1  6  0  0  0
  1 48  1  0  0  0  0
  3  2  1  0  0  0  0
  4  3  1  0  0  0  0
  5  3  2  0  0  0  0
  6  8  1  1  0  0  0
  6  4  1  0  0  0  0
  8  7  1  0  0  0  0
  9  8  2  0  0  0  0
 10  6  1  0  0  0  0
 10 12  1  0  0  0  0
 11 12  2  0  0  0  0
 11 14  1  0  0  0  0
 13 14  1  0  0  0  0
 14 15  2  0  0  0  0
 17 19  1  0  0  0  0
 18 13  1  6  0  0  0
 18 17  1  0  0  0  0
 20 16  1  0  0  0  0
 20 18  1  0  0  0  0
 21 16  1  0  0  0  0
 21 19  1  0  0  0  0
 22 23  1  6  0  0  0
 22 16  1  0  0  0  0
 22 25  1  0  0  0  0
 25 24  1  6  0  0  0
 26 25  1  0  0  0  0
 26 27  1  0  0  0  0
 28 27  1  0  0  0  0
 29 31  1  0  0  0  0
 31 30  2  0  0  0  0
 31  1  1  0  0  0  0
 32 45  1  0  0  0  0
 33 30  1  0  0  0  0
 33 32  2  0  0  0  0
 34 35  2  0  0  0  0
 35 37  2  0  0  0  0
 36 34  1  0  0  0  0
 37 32  1  0  0  0  0
 38 33  1  0  0  0  0
 39 40  2  0  0  0  0
 39 38  1  0  0  0  0
 41 42  1  6  0  0  0
 41 39  1  0  0  0  0
 43 44  1  0  0  0  0
 43 41  1  0  0  0  0
 45 46  1  0  0  0  0
 46 47  1  0  0  0  0
 49 51  1  0  0  0  0
 49 59  1  0  0  0  0
 52 53  1  0  0  0  0
 53 50  1  1  0  0  0
 53 51  1  0  0  0  0
 54 49  1  0  0  0  0
 55 48  1  6  0  0  0
 55 54  1  0  0  0  0
 55 52  1  0  0  0  0
 56 54  2  0  0  0  0
 57 60  1  0  0  0  0
 58 57  2  0  0  0  0
 59 57  1  0  0  0  0
 60 61  1  1  0  0  0
 62 60  1  0  0  0  0
 62 63  1  0  0  0  0
M  END
>  <MODEL>
1

>  <REMARK>
 VINA RESULT:      -6.5      0.000      0.000
  Name = 
  24 active torsions:
  status: ('A' for Active; 'I' for Inactive)
    1  A    between atoms: N_2  and  C_57
    2  A    between atoms: C_4  and  O_42
    3  A    between atoms: C_5  and  C_32
    4  A    between atoms: C_6  and  N_20
    5  A    between atoms: C_6  and  C_30
    6  A    between atoms: N_7  and  N_58
    7  A    between atoms: N_8  and  C_38
    8  A    between atoms: C_9  and  C_32
    9  A    between atoms: C_9  and  C_63
   10  A    between atoms: C_10  and  C_34
   11  A    between atoms: C_10  and  C_47
   12  A    between atoms: C_11  and  C_18
   13  A    between atoms: C_13  and  C_16
   14  A    between atoms: C_15  and  C_23
   15  A    between atoms: C_18  and  N_31
   16  A    between atoms: C_18  and  N_40
   17  A    between atoms: C_23  and  C_43
   18  A    between atoms: N_25  and  C_60
   19  A    between atoms: C_30  and  O_42
   20  A    between atoms: C_36  and  N_37
   21  A    between atoms: N_37  and  C_57
   22  A    between atoms: N_40  and  N_46
   23  A    between atoms: C_44  and  C_60
   24  A    between atoms: C_57  and  C_61
                            x       y       z     vdW  Elec       q    Type
                         _______ _______ _______ _____ _____    ______ ____

>  <TORSDO>
F 24

$$$$
=
 OpenBabel11032420503D

 63 64  0  0  1  0  0  0  0  0999 V2000
  187.1290  178.8480  139.7830 C   0  0  2  0  0  3  0  0  0  0  0  0
  188.2170  178.7920  138.8120 N   0  0  0  0  0  2  0  0  0  0  0  0
  188.1270  178.0170  137.6150 C   0  0  0  0  0  0  0  0  0  0  0  0
  187.0410  177.1040  137.4270 N   0  0  0  0  0  2  0  0  0  0  0  0
  189.0170  178.1390  136.7350 O   0  0  0  0  0  0  0  0  0  0  0  0
  186.9140  176.2670  136.2460 C   0  0  2  0  0  3  0  0  0  0  0  0
  184.6080  177.1370  135.6340 N   0  0  0  0  0  2  0  0  0  0  0  0
  185.4660  176.0410  135.9400 C   0  0  0  0  0  0  0  0  0  0  0  0
  184.9800  174.8460  135.9970 N   0  0  0  0  0  1  0  0  0  0  0  0
  187.6030  175.0050  136.4780 N   0  0  0  0  0  2  0  0  0  0  0  0
  189.7430  174.0860  136.4930 C   0  0  0  0  0  3  0  0  0  0  0  0
  188.8110  174.7000  135.8430 N   0  0  0  0  0  0  0  0  0  0  0  0
  192.0720  173.1620  136.5990 N   0  0  0  0  0  2  0  0  0  0  0  0
  190.9840  173.6870  135.8310 C   0  0  0  0  0  0  0  0  0  0  0  0
  191.1100  173.8750  134.5940 O   0  0  0  0  0  0  0  0  0  0  0  0
  195.7530  172.6380  136.4610 N   0  0  0  0  0  0  0  0  0  0  0  0
  193.3270  171.4520  135.3860 C   0  0  0  0  0  2  0  0  0  0  0  0
  193.3590  172.8500  136.0000 C   0  0  2  0  0  3  0  0  0  0  0  0
  194.7190  171.0540  134.8930 C   0  0  0  0  0  2  0  0  0  0  0  0
  194.4450  172.9030  137.0710 C   0  0  0  0  0  2  0  0  0  0  0  0
  195.7370  171.2360  136.0220 C   0  0  0  0  0  2  0  0  0  0  0  0
  196.7980  172.8050  137.4860 C   0  0  1  0  0  3  0  0  0  0  0  0
  198.0830  172.0790  137.0770 C   0  0  0  0  0  1  0  0  0  0  0  0
  197.2810  175.0530  136.4560 C   0  0  0  0  0  1  0  0  0  0  0  0
  197.0950  174.2930  137.7580 C   0  0  1  0  0  3  0  0  0  0  0  0
  196.0810  174.8850  138.5210 O   0  0  0  0  0  0  0  0  0  0  0  0
  196.6090  174.9900  139.8100 C   0  0  0  0  0  2  0  0  0  0  0  0
  197.9660  175.3130  139.7380 O   0  0  0  0  0  1  0  0  0  0  0  0
  187.8230  176.7210  140.8730 O   0  0  0  0  0  1  0  0  0  0  0  0
  187.4800  178.6560  142.2140 C   0  0  0  0  0  3  0  0  0  0  0  0
  187.4980  178.0680  141.0130 C   0  0  0  0  0  0  0  0  0  0  0  0
  188.9860  177.6150  143.8460 C   0  0  0  0  0  0  0  0  0  0  0  0
  187.7310  177.9800  143.5050 C   0  0  0  0  0  0  0  0  0  0  0  0
  189.3440  178.0940  147.4270 C   0  0  0  0  0  3  0  0  0  0  0  0
  189.2880  177.4960  146.2710 C   0  0  0  0  0  0  0  0  0  0  0  0
  188.1000  178.3080  148.2140 C   0  0  0  0  0  1  0  0  0  0  0  0
  189.2270  176.8930  145.1130 C   0  0  0  0  0  3  0  0  0  0  0  0
  186.6350  177.7690  144.4080 N   0  0  0  0  0  2  0  0  0  0  0  0
  185.3940  178.4740  144.3010 C   0  0  0  0  0  0  0  0  0  0  0  0
  185.1840  179.2540  143.3330 O   0  0  0  0  0  0  0  0  0  0  0  0
  184.3230  178.2220  145.3110 C   0  0  1  0  0  3  0  0  0  0  0  0
  184.8870  178.3350  146.7170 C   0  0  0  0  0  1  0  0  0  0  0  0
  183.1700  179.1940  145.1000 C   0  0  0  0  0  2  0  0  0  0  0  0
  182.0990  178.5720  144.2220 C   0  0  0  0  0  1  0  0  0  0  0  0
  190.1420  177.8720  142.9150 C   0  0  0  0  0  2  0  0  0  0  0  0
  191.4560  177.7780  143.6710 C   0  0  0  0  0  2  0  0  0  0  0  0
  191.8180  179.0920  144.1690 N   0  0  0  0  0  1  0  0  0  0  0  0
  185.9090  178.3260  139.1810 N   0  0  0  0  0  2  0  0  0  0  0  0
  182.6830  179.2060  138.5510 N   0  0  0  0  0  0  0  0  0  0  0  0
  182.5260  175.8680  139.8550 F   0  0  0  0  0  0  0  0  0  0  0  0
  182.4430  177.7660  138.4090 C   0  0  0  0  0  2  0  0  0  0  0  0
  183.9380  177.6730  140.4890 C   0  0  0  0  0  2  0  0  0  0  0  0
  183.3010  176.8920  139.3410 C   0  0  1  0  0  3  0  0  0  0  0  0
  183.9280  179.7060  139.0840 C   0  0  0  0  0  0  0  0  0  0  0  0
  184.7760  178.8320  139.9500 C   0  0  2  0  0  3  0  0  0  0  0  0
  184.3500  180.8430  138.7540 O   0  0  0  0  0  0  0  0  0  0  0  0
  181.0930  179.8730  136.7450 C   0  0  0  0  0  0  0  0  0  0  0  0
  181.5320  179.0010  135.9480 O   0  0  0  0  0  0  0  0  0  0  0  0
  181.7210  180.0780  138.0160 N   0  0  0  0  0  2  0  0  0  0  0  0
  179.9660  180.7500  136.3080 C   0  0  1  0  0  3  0  0  0  0  0  0
  179.1870  181.3030  137.4940 C   0  0  0  0  0  1  0  0  0  0  0  0
  180.4240  181.8500  135.3490 C   0  0  0  0  0  2  0  0  0  0  0  0
  180.7670  183.1510  136.0580 C   0  0  0  0  0  1  0  0  0  0  0  0
  1  2  1  6  0  0  0
  1 31  1  0  0  0  0
  3  2  1  0  0  0  0
  4  3  1  0  0  0  0
  5  3  2  0  0  0  0
  6  8  1  1  0  0  0
  6 10  1  0  0  0  0
  6  4  1  0  0  0  0
  7  8  2  0  0  0  0
  8  9  1  0  0  0  0
 12 10  1  0  0  0  0
 12 11  2  0  0  0  0
 14 11  1  0  0  0  0
 14 13  1  0  0  0  0
 15 14  2  0  0  0  0
 16 20  1  0  0  0  0
 16 22  1  0  0  0  0
 17 18  1  0  0  0  0
 18 13  1  1  0  0  0
 18 20  1  0  0  0  0
 19 17  1  0  0  0  0
 19 21  1  0  0  0  0
 21 16  1  0  0  0  0
 22 23  1  6  0  0  0
 22 25  1  0  0  0  0
 25 24  1  6  0  0  0
 25 26  1  0  0  0  0
 26 27  1  0  0  0  0
 28 27  1  0  0  0  0
 29 31  1  0  0  0  0
 30 33  1  0  0  0  0
 31 30  2  0  0  0  0
 32 37  1  0  0  0  0
 33 32  2  0  0  0  0
 33 38  1  0  0  0  0
 34 36  1  0  0  0  0
 35 34  2  0  0  0  0
 37 35  2  0  0  0  0
 39 38  1  0  0  0  0
 39 41  1  0  0  0  0
 40 39  2  0  0  0  0
 41 42  1  1  0  0  0
 43 41  1  0  0  0  0
 44 43  1  0  0  0  0
 45 46  1  0  0  0  0
 45 32  1  0  0  0  0
 46 47  1  0  0  0  0
 48  1  1  0  0  0  0
 49 54  1  0  0  0  0
 51 49  1  0  0  0  0
 51 53  1  0  0  0  0
 53 50  1  1  0  0  0
 53 52  1  0  0  0  0
 54 55  1  0  0  0  0
 55 48  1  6  0  0  0
 55 52  1  0  0  0  0
 56 54  2  0  0  0  0
 57 59  1  0  0  0  0
 58 57  2  0  0  0  0
 59 49  1  0  0  0  0
 60 57  1  0  0  0  0
 60 61  1  1  0  0  0
 62 63  1  0  0  0  0
 62 60  1  0  0  0  0
M  END
>  <MODEL>
2

>  <REMARK>
 VINA RESULT:      -6.3      2.257      7.771
  Name = 
  24 active torsions:
  status: ('A' for Active; 'I' for Inactive)
    1  A    between atoms: N_2  and  C_57
    2  A    between atoms: C_4  and  O_42
    3  A    between atoms: C_5  and  C_32
    4  A    between atoms: C_6  and  N_20
    5  A    between atoms: C_6  and  C_30
    6  A    between atoms: N_7  and  N_58
    7  A    between atoms: N_8  and  C_38
    8  A    between atoms: C_9  and  C_32
    9  A    between atoms: C_9  and  C_63
   10  A    between atoms: C_10  and  C_34
   11  A    between atoms: C_10  and  C_47
   12  A    between atoms: C_11  and  C_18
   13  A    between atoms: C_13  and  C_16
   14  A    between atoms: C_15  and  C_23
   15  A    between atoms: C_18  and  N_31
   16  A    between atoms: C_18  and  N_40
   17  A    between atoms: C_23  and  C_43
   18  A    between atoms: N_25  and  C_60
   19  A    between atoms: C_30  and  O_42
   20  A    between atoms: C_36  and  N_37
   21  A    between atoms: N_37  and  C_57
   22  A    between atoms: N_40  and  N_46
   23  A    between atoms: C_44  and  C_60
   24  A    between atoms: C_57  and  C_61
                            x       y       z     vdW  Elec       q    Type
                         _______ _______ _______ _____ _____    ______ ____

>  <TORSDO>
F 24

$$$$
=
 OpenBabel11032420503D

 63 64  0  0  1  0  0  0  0  0999 V2000
  188.3120  178.0100  140.6440 C   0  0  2  0  0  3  0  0  0  0  0  0
  189.1630  176.8950  140.2420 N   0  0  0  0  0  2  0  0  0  0  0  0
  189.4120  176.5860  138.8690 C   0  0  0  0  0  0  0  0  0  0  0  0
  188.6700  177.2410  137.8360 N   0  0  0  0  0  2  0  0  0  0  0  0
  190.2850  175.7270  138.5810 O   0  0  0  0  0  0  0  0  0  0  0  0
  188.8570  176.9450  136.4260 C   0  0  2  0  0  3  0  0  0  0  0  0
  187.1000  177.0110  134.5940 N   0  0  0  0  0  2  0  0  0  0  0  0
  187.8360  177.6800  135.6150 C   0  0  0  0  0  0  0  0  0  0  0  0
  187.6500  178.9420  135.8140 N   0  0  0  0  0  1  0  0  0  0  0  0
  188.7510  175.5070  136.2210 N   0  0  0  0  0  2  0  0  0  0  0  0
  187.0910  173.9460  136.6980 C   0  0  0  0  0  3  0  0  0  0  0  0
  187.5270  174.8930  135.9380 N   0  0  0  0  0  0  0  0  0  0  0  0
  185.0560  172.7580  137.5580 N   0  0  0  0  0  2  0  0  0  0  0  0
  185.7790  173.3410  136.4690 C   0  0  0  0  0  0  0  0  0  0  0  0
  185.3260  173.2780  135.2970 O   0  0  0  0  0  0  0  0  0  0  0  0
  181.4220  172.3610  136.8640 N   0  0  0  0  0  0  0  0  0  0  0  0
  183.9340  171.0480  136.2200 C   0  0  0  0  0  2  0  0  0  0  0  0
  183.7990  172.0550  137.3600 C   0  0  2  0  0  3  0  0  0  0  0  0
  182.5770  170.4190  135.9010 C   0  0  0  0  0  2  0  0  0  0  0  0
  182.7030  173.0600  137.0160 C   0  0  0  0  0  2  0  0  0  0  0  0
  181.5400  171.5190  135.6650 C   0  0  0  0  0  2  0  0  0  0  0  0
  180.3590  173.3570  136.6440 C   0  0  1  0  0  3  0  0  0  0  0  0
  178.9890  172.6810  136.5490 C   0  0  0  0  0  1  0  0  0  0  0  0
  179.8230  175.7510  137.2220 C   0  0  0  0  0  1  0  0  0  0  0  0
  180.3450  174.4270  137.7540 C   0  0  1  0  0  3  0  0  0  0  0  0
  179.5800  174.0150  138.8520 O   0  0  0  0  0  0  0  0  0  0  0  0
  180.1610  174.6440  139.9560 C   0  0  0  0  0  2  0  0  0  0  0  0
  179.1720  175.2830  140.7060 O   0  0  0  0  0  1  0  0  0  0  0  0
  189.0190  179.6860  142.3400 O   0  0  0  0  0  1  0  0  0  0  0  0
  188.4810  177.4780  143.0430 C   0  0  0  0  0  3  0  0  0  0  0  0
  188.5990  178.3870  142.0690 C   0  0  0  0  0  0  0  0  0  0  0  0
  189.9860  177.2300  144.9630 C   0  0  0  0  0  0  0  0  0  0  0  0
  188.8200  177.6950  144.4650 C   0  0  0  0  0  0  0  0  0  0  0  0
  191.5630  175.6000  147.8000 C   0  0  0  0  0  3  0  0  0  0  0  0
  190.9300  176.4990  147.0990 C   0  0  0  0  0  0  0  0  0  0  0  0
  193.0500  175.6120  147.8520 C   0  0  0  0  0  1  0  0  0  0  0  0
  190.3000  177.4030  146.3970 C   0  0  0  0  0  3  0  0  0  0  0  0
  187.9210  178.4520  145.2910 N   0  0  0  0  0  2  0  0  0  0  0  0
  186.6220  177.9770  145.6610 C   0  0  0  0  0  0  0  0  0  0  0  0
  186.2520  176.8140  145.3430 O   0  0  0  0  0  0  0  0  0  0  0  0
  185.7360  178.8500  146.4880 C   0  0  1  0  0  3  0  0  0  0  0  0
  184.4510  178.1160  146.8370 C   0  0  0  0  0  1  0  0  0  0  0  0
  186.4730  179.2970  147.7430 C   0  0  0  0  0  2  0  0  0  0  0  0
  187.3340  178.1710  148.2890 C   0  0  0  0  0  1  0  0  0  0  0  0
  190.9480  176.4700  144.0870 C   0  0  0  0  0  2  0  0  0  0  0  0
  191.9120  177.4290  143.4110 C   0  0  0  0  0  2  0  0  0  0  0  0
  191.9800  177.1220  141.9940 N   0  0  0  0  0  1  0  0  0  0  0  0
  186.9120  177.6430  140.4720 N   0  0  0  0  0  2  0  0  0  0  0  0
  183.7650  178.5050  139.5090 N   0  0  0  0  0  0  0  0  0  0  0  0
  183.6570  178.3430  143.0920 F   0  0  0  0  0  0  0  0  0  0  0  0
  183.3380  177.8870  140.7690 C   0  0  0  0  0  2  0  0  0  0  0  0
  185.3830  179.1450  141.6660 C   0  0  0  0  0  2  0  0  0  0  0  0
  184.3420  178.0580  141.9240 C   0  0  1  0  0  3  0  0  0  0  0  0
  185.1600  178.7550  139.2360 C   0  0  0  0  0  0  0  0  0  0  0  0
  186.1340  178.8730  140.3630 C   0  0  2  0  0  3  0  0  0  0  0  0
  185.5800  178.7880  138.0520 O   0  0  0  0  0  0  0  0  0  0  0  0
  182.1140  179.9590  138.3260 C   0  0  0  0  0  0  0  0  0  0  0  0
  182.2280  180.8850  139.1720 O   0  0  0  0  0  0  0  0  0  0  0  0
  182.7850  178.7080  138.5240 N   0  0  0  0  0  2  0  0  0  0  0  0
  181.2010  180.1500  137.1610 C   0  0  1  0  0  3  0  0  0  0  0  0
  181.1790  178.9290  136.2520 C   0  0  0  0  0  1  0  0  0  0  0  0
  179.7970  180.5830  137.5880 C   0  0  0  0  0  2  0  0  0  0  0  0
  179.5630  180.4430  139.0840 C   0  0  0  0  0  1  0  0  0  0  0  0
  1  2  1  1  0  0  0
  1 31  1  0  0  0  0
  3  2  1  0  0  0  0
  4  3  1  0  0  0  0
  5  3  2  0  0  0  0
  6  8  1  6  0  0  0
  6  4  1  0  0  0  0
  7  8  2  0  0  0  0
  8  9  1  0  0  0  0
 10  6  1  0  0  0  0
 12 10  1  0  0  0  0
 12 11  2  0  0  0  0
 14 11  1  0  0  0  0
 14 13  1  0  0  0  0
 15 14  2  0  0  0  0
 16 20  1  0  0  0  0
 17 18  1  0  0  0  0
 18 13  1  6  0  0  0
 19 17  1  0  0  0  0
 20 18  1  0  0  0  0
 21 19  1  0  0  0  0
 21 16  1  0  0  0  0
 22 23  1  1  0  0  0
 22 16  1  0  0  0  0
 22 25  1  0  0  0  0
 25 24  1  6  0  0  0
 25 26  1  0  0  0  0
 26 27  1  0  0  0  0
 27 28  1  0  0  0  0
 30 33  1  0  0  0  0
 31 29  1  0  0  0  0
 31 30  2  0  0  0  0
 32 37  1  0  0  0  0
 33 32  2  0  0  0  0
 33 38  1  0  0  0  0
 34 36  1  0  0  0  0
 35 34  2  0  0  0  0
 37 35  2  0  0  0  0
 38 39  1  0  0  0  0
 39 41  1  0  0  0  0
 40 39  2  0  0  0  0
 41 42  1  1  0  0  0
 41 43  1  0  0  0  0
 43 44  1  0  0  0  0
 45 32  1  0  0  0  0
 46 45  1  0  0  0  0
 47 46  1  0  0  0  0
 48  1  1  0  0  0  0
 49 51  1  0  0  0  0
 51 53  1  0  0  0  0
 52 53  1  0  0  0  0
 53 50  1  1  0  0  0
 54 49  1  0  0  0  0
 54 55  1  0  0  0  0
 55 48  1  1  0  0  0
 55 52  1  0  0  0  0
 56 54  2  0  0  0  0
 57 59  1  0  0  0  0
 57 58  2  0  0  0  0
 59 49  1  0  0  0  0
 60 61  1  1  0  0  0
 60 62  1  0  0  0  0
 60 57  1  0  0  0  0
 62 63  1  0  0  0  0
M  END
>  <MODEL>
3

>  <REMARK>
 VINA RESULT:      -6.1      3.675     10.618
  Name = 
  24 active torsions:
  status: ('A' for Active; 'I' for Inactive)
    1  A    between atoms: N_2  and  C_57
    2  A    between atoms: C_4  and  O_42
    3  A    between atoms: C_5  and  C_32
    4  A    between atoms: C_6  and  N_20
    5  A    between atoms: C_6  and  C_30
    6  A    between atoms: N_7  and  N_58
    7  A    between atoms: N_8  and  C_38
    8  A    between atoms: C_9  and  C_32
    9  A    between atoms: C_9  and  C_63
   10  A    between atoms: C_10  and  C_34
   11  A    between atoms: C_10  and  C_47
   12  A    between atoms: C_11  and  C_18
   13  A    between atoms: C_13  and  C_16
   14  A    between atoms: C_15  and  C_23
   15  A    between atoms: C_18  and  N_31
   16  A    between atoms: C_18  and  N_40
   17  A    between atoms: C_23  and  C_43
   18  A    between atoms: N_25  and  C_60
   19  A    between atoms: C_30  and  O_42
   20  A    between atoms: C_36  and  N_37
   21  A    between atoms: N_37  and  C_57
   22  A    between atoms: N_40  and  N_46
   23  A    between atoms: C_44  and  C_60
   24  A    between atoms: C_57  and  C_61
                            x       y       z     vdW  Elec       q    Type
                         _______ _______ _______ _____ _____    ______ ____

>  <TORSDO>
F 24

$$$$
=
 OpenBabel11032420503D

 63 64  0  0  1  0  0  0  0  0999 V2000
  188.1580  177.8260  139.7450 C   0  0  2  0  0  3  0  0  0  0  0  0
  187.1640  178.5240  138.9350 N   0  0  0  0  0  2  0  0  0  0  0  0
  186.3600  177.8450  137.9700 C   0  0  0  0  0  0  0  0  0  0  0  0
  186.6450  176.4870  137.6200 N   0  0  0  0  0  2  0  0  0  0  0  0
  185.4050  178.4570  137.4250 O   0  0  0  0  0  0  0  0  0  0  0  0
  185.8820  175.7560  136.6210 C   0  0  2  0  0  3  0  0  0  0  0  0
  184.2520  176.9480  135.0810 N   0  0  0  0  0  1  0  0  0  0  0  0
  185.5950  176.6470  135.4530 C   0  0  0  0  0  0  0  0  0  0  0  0
  186.5720  177.1130  134.7500 N   0  0  0  0  0  2  0  0  0  0  0  0
  184.6480  175.2710  137.2250 N   0  0  0  0  0  2  0  0  0  0  0  0
  182.8210  176.5610  137.8740 C   0  0  0  0  0  3  0  0  0  0  0  0
  183.4140  175.8720  136.9570 N   0  0  0  0  0  0  0  0  0  0  0  0
  181.4960  178.2070  136.5240 N   0  0  0  0  0  2  0  0  0  0  0  0
  181.5690  177.2620  137.5960 C   0  0  0  0  0  0  0  0  0  0  0  0
  180.5790  177.0770  138.3510 O   0  0  0  0  0  0  0  0  0  0  0  0
  179.0830  181.0020  136.9840 N   0  0  0  0  0  0  0  0  0  0  0  0
  180.2760  179.4680  134.8220 C   0  0  0  0  0  2  0  0  0  0  0  0
  180.3040  179.0030  136.2760 C   0  0  2  0  0  3  0  0  0  0  0  0
  179.1120  180.4330  134.5940 C   0  0  0  0  0  2  0  0  0  0  0  0
  180.3080  180.2220  137.1940 C   0  0  0  0  0  2  0  0  0  0  0  0
  179.1660  181.5610  135.6270 C   0  0  0  0  0  2  0  0  0  0  0  0
  179.0510  182.1100  137.9540 C   0  0  1  0  0  3  0  0  0  0  0  0
  179.7130  181.6980  139.2720 C   0  0  0  0  0  1  0  0  0  0  0  0
  179.0910  184.6290  137.9650 C   0  0  0  0  0  1  0  0  0  0  0  0
  179.7300  183.3750  137.3940 C   0  0  1  0  0  3  0  0  0  0  0  0
  181.1060  183.3760  137.6550 O   0  0  0  0  0  0  0  0  0  0  0  0
  181.5730  184.5900  137.1460 C   0  0  0  0  0  2  0  0  0  0  0  0
  182.5720  185.0960  137.9790 O   0  0  0  0  0  1  0  0  0  0  0  0
  188.7600  179.5550  141.4300 O   0  0  0  0  0  1  0  0  0  0  0  0
  187.5340  177.6370  142.1210 C   0  0  0  0  0  3  0  0  0  0  0  0
  188.1280  178.3450  141.1540 C   0  0  0  0  0  0  0  0  0  0  0  0
  186.3420  178.2310  144.1800 C   0  0  0  0  0  0  0  0  0  0  0  0
  187.5150  177.9900  143.5560 C   0  0  0  0  0  0  0  0  0  0  0  0
  187.5360  177.2700  147.4720 C   0  0  0  0  0  3  0  0  0  0  0  0
  186.9320  177.9490  146.5380 C   0  0  0  0  0  0  0  0  0  0  0  0
  188.9630  177.5480  147.7870 C   0  0  0  0  0  1  0  0  0  0  0  0
  186.3300  178.6340  145.6020 C   0  0  0  0  0  3  0  0  0  0  0  0
  188.7520  178.0200  144.2850 N   0  0  0  0  0  2  0  0  0  0  0  0
  189.7770  177.0350  144.1140 C   0  0  0  0  0  0  0  0  0  0  0  0
  189.6640  176.1420  143.2320 O   0  0  0  0  0  0  0  0  0  0  0  0
  191.0150  177.1200  144.9460 C   0  0  1  0  0  3  0  0  0  0  0  0
  191.4080  178.5730  145.1590 C   0  0  0  0  0  1  0  0  0  0  0  0
  190.7990  176.4070  146.2740 C   0  0  0  0  0  2  0  0  0  0  0  0
  192.0660  175.6940  146.7110 C   0  0  0  0  0  1  0  0  0  0  0  0
  185.0400  178.1610  143.4250 C   0  0  0  0  0  2  0  0  0  0  0  0
  183.9260  178.7960  144.2380 C   0  0  0  0  0  2  0  0  0  0  0  0
  182.6450  178.4510  143.6490 N   0  0  0  0  0  1  0  0  0  0  0  0
  189.4780  177.9990  139.1530 N   0  0  0  0  0  2  0  0  0  0  0  0
  192.5340  176.7740  138.2920 N   0  0  0  0  0  0  0  0  0  0  0  0
  192.5790  177.0280  141.8710 F   0  0  0  0  0  0  0  0  0  0  0  0
  192.9970  177.3790  139.5460 C   0  0  0  0  0  2  0  0  0  0  0  0
  190.8090  176.3750  140.4250 C   0  0  0  0  0  2  0  0  0  0  0  0
  191.9550  177.3510  140.6790 C   0  0  1  0  0  3  0  0  0  0  0  0
  191.1260  176.6680  137.9910 C   0  0  0  0  0  0  0  0  0  0  0  0
  190.1200  176.6890  139.0970 C   0  0  2  0  0  3  0  0  0  0  0  0
  190.7310  176.6460  136.7980 O   0  0  0  0  0  0  0  0  0  0  0  0
  193.9200  175.0910  137.0740 C   0  0  0  0  0  0  0  0  0  0  0  0
  193.5710  174.1540  137.8410 O   0  0  0  0  0  0  0  0  0  0  0  0
  193.5070  176.4380  137.3380 N   0  0  0  0  0  2  0  0  0  0  0  0
  194.8410  174.7920  135.9380 C   0  0  1  0  0  3  0  0  0  0  0  0
  196.2970  175.0250  136.3140 C   0  0  0  0  0  1  0  0  0  0  0  0
  194.6070  173.3980  135.3530 C   0  0  0  0  0  2  0  0  0  0  0  0
  195.8560  172.8020  134.7210 C   0  0  0  0  0  1  0  0  0  0  0  0
  1  2  1  6  0  0  0
  1 31  1  0  0  0  0
  3  2  1  0  0  0  0
  4  3  1  0  0  0  0
  5  3  2  0  0  0  0
  6  8  1  6  0  0  0
  6 10  1  0  0  0  0
  6  4  1  0  0  0  0
  7  8  1  0  0  0  0
  9  8  2  0  0  0  0
 12 10  1  0  0  0  0
 12 11  2  0  0  0  0
 13 14  1  0  0  0  0
 14 11  1  0  0  0  0
 14 15  2  0  0  0  0
 16 20  1  0  0  0  0
 16 22  1  0  0  0  0
 17 18  1  0  0  0  0
 18 13  1  6  0  0  0
 18 20  1  0  0  0  0
 19 17  1  0  0  0  0
 19 21  1  0  0  0  0
 21 16  1  0  0  0  0
 22 23  1  1  0  0  0
 25 26  1  0  0  0  0
 25 22  1  0  0  0  0
 25 24  1  1  0  0  0
 27 26  1  0  0  0  0
 27 28  1  0  0  0  0
 30 33  1  0  0  0  0
 31 29  1  0  0  0  0
 31 30  2  0  0  0  0
 32 37  1  0  0  0  0
 33 32  2  0  0  0  0
 33 38  1  0  0  0  0
 34 36  1  0  0  0  0
 35 34  2  0  0  0  0
 37 35  2  0  0  0  0
 39 38  1  0  0  0  0
 39 41  1  0  0  0  0
 40 39  2  0  0  0  0
 41 42  1  1  0  0  0
 41 43  1  0  0  0  0
 43 44  1  0  0  0  0
 45 32  1  0  0  0  0
 45 46  1  0  0  0  0
 47 46  1  0  0  0  0
 48  1  1  0  0  0  0
 49 51  1  0  0  0  0
 51 53  1  0  0  0  0
 52 53  1  0  0  0  0
 53 50  1  1  0  0  0
 54 49  1  0  0  0  0
 54 55  1  0  0  0  0
 55 48  1  1  0  0  0
 55 52  1  0  0  0  0
 56 54  2  0  0  0  0
 57 59  1  0  0  0  0
 57 58  2  0  0  0  0
 59 49  1  0  0  0  0
 60 61  1  1  0  0  0
 60 57  1  0  0  0  0
 62 60  1  0  0  0  0
 63 62  1  0  0  0  0
M  END
>  <MODEL>
4

>  <REMARK>
 VINA RESULT:      -6.0      2.527     11.250
  Name = 
  24 active torsions:
  status: ('A' for Active; 'I' for Inactive)
    1  A    between atoms: N_2  and  C_57
    2  A    between atoms: C_4  and  O_42
    3  A    between atoms: C_5  and  C_32
    4  A    between atoms: C_6  and  N_20
    5  A    between atoms: C_6  and  C_30
    6  A    between atoms: N_7  and  N_58
    7  A    between atoms: N_8  and  C_38
    8  A    between atoms: C_9  and  C_32
    9  A    between atoms: C_9  and  C_63
   10  A    between atoms: C_10  and  C_34
   11  A    between atoms: C_10  and  C_47
   12  A    between atoms: C_11  and  C_18
   13  A    between atoms: C_13  and  C_16
   14  A    between atoms: C_15  and  C_23
   15  A    between atoms: C_18  and  N_31
   16  A    between atoms: C_18  and  N_40
   17  A    between atoms: C_23  and  C_43
   18  A    between atoms: N_25  and  C_60
   19  A    between atoms: C_30  and  O_42
   20  A    between atoms: C_36  and  N_37
   21  A    between atoms: N_37  and  C_57
   22  A    between atoms: N_40  and  N_46
   23  A    between atoms: C_44  and  C_60
   24  A    between atoms: C_57  and  C_61
                            x       y       z     vdW  Elec       q    Type
                         _______ _______ _______ _____ _____    ______ ____

>  <TORSDO>
F 24

$$$$
=
 OpenBabel11032420503D

 63 64  0  0  1  0  0  0  0  0999 V2000
  186.9340  178.2760  140.5320 C   0  0  2  0  0  3  0  0  0  0  0  0
  187.7870  179.0710  139.6530 N   0  0  0  0  0  2  0  0  0  0  0  0
  188.2200  178.5920  138.3790 C   0  0  0  0  0  0  0  0  0  0  0  0
  187.9980  177.2290  138.0070 N   0  0  0  0  0  2  0  0  0  0  0  0
  188.8080  179.3800  137.5940 O   0  0  0  0  0  0  0  0  0  0  0  0
  188.4450  176.6770  136.7390 C   0  0  2  0  0  3  0  0  0  0  0  0
  187.8480  174.4630  135.6480 N   0  0  0  0  0  2  0  0  0  0  0  0
  188.3430  175.1840  136.7730 C   0  0  0  0  0  0  0  0  0  0  0  0
  188.6660  174.5460  137.8480 N   0  0  0  0  0  1  0  0  0  0  0  0
  189.8150  177.1030  136.4900 N   0  0  0  0  0  2  0  0  0  0  0  0
  191.7500  175.8080  136.5240 C   0  0  0  0  0  3  0  0  0  0  0  0
  190.7420  176.2650  135.8610 N   0  0  0  0  0  0  0  0  0  0  0  0
  193.2120  173.7750  136.6730 N   0  0  0  0  0  2  0  0  0  0  0  0
  192.6900  174.8700  135.9120 C   0  0  0  0  0  0  0  0  0  0  0  0
  193.0870  175.0750  134.7360 O   0  0  0  0  0  0  0  0  0  0  0  0
  196.5750  172.2190  136.3310 N   0  0  0  0  0  0  0  0  0  0  0  0
  193.7780  171.4280  136.2940 C   0  0  0  0  0  2  0  0  0  0  0  0
  194.2260  172.8800  136.1400 C   0  0  2  0  0  3  0  0  0  0  0  0
  194.9020  170.4770  135.8830 C   0  0  0  0  0  2  0  0  0  0  0  0
  195.5340  173.0850  136.8980 C   0  0  0  0  0  2  0  0  0  0  0  0
  196.1840  170.8360  136.6370 C   0  0  0  0  0  2  0  0  0  0  0  0
  197.8540  172.5120  137.0000 C   0  0  1  0  0  3  0  0  0  0  0  0
  198.6670  171.2320  137.2050 C   0  0  0  0  0  1  0  0  0  0  0  0
  198.1080  173.7510  134.8200 C   0  0  0  0  0  1  0  0  0  0  0  0
  198.6840  173.5450  136.2110 C   0  0  1  0  0  3  0  0  0  0  0  0
  198.7560  174.7680  136.8880 O   0  0  0  0  0  0  0  0  0  0  0  0
  198.7200  174.4370  138.2450 C   0  0  0  0  0  2  0  0  0  0  0  0
  198.1390  175.4800  138.9680 O   0  0  0  0  0  1  0  0  0  0  0  0
  185.1960  179.7130  139.4800 O   0  0  0  0  0  1  0  0  0  0  0  0
  184.5250  177.9460  140.9250 C   0  0  0  0  0  3  0  0  0  0  0  0
  185.4920  178.6340  140.3090 C   0  0  0  0  0  0  0  0  0  0  0  0
  182.3810  178.4570  142.0010 C   0  0  0  0  0  0  0  0  0  0  0  0
  183.0800  178.2540  140.8630 C   0  0  0  0  0  0  0  0  0  0  0  0
  179.8990  180.7460  140.6620 C   0  0  0  0  0  3  0  0  0  0  0  0
  180.4130  179.7330  141.3010 C   0  0  0  0  0  0  0  0  0  0  0  0
  179.5660  180.6200  139.2180 C   0  0  0  0  0  1  0  0  0  0  0  0
  180.9260  178.7140  141.9390 C   0  0  0  0  0  3  0  0  0  0  0  0
  182.4470  178.3870  139.5810 N   0  0  0  0  0  2  0  0  0  0  0  0
  182.5080  177.3680  138.5770 C   0  0  0  0  0  0  0  0  0  0  0  0
  183.0530  176.2580  138.8250 O   0  0  0  0  0  0  0  0  0  0  0  0
  181.8570  177.6080  137.2540 C   0  0  1  0  0  3  0  0  0  0  0  0
  182.4370  176.6750  136.2040 C   0  0  0  0  0  1  0  0  0  0  0  0
  180.3490  177.4280  137.3780 C   0  0  0  0  0  2  0  0  0  0  0  0
  179.9590  175.9850  137.1090 C   0  0  0  0  0  1  0  0  0  0  0  0
  183.0530  178.3580  143.3450 C   0  0  0  0  0  2  0  0  0  0  0  0
  183.1840  179.7360  143.9710 C   0  0  0  0  0  2  0  0  0  0  0  0
  184.5730  180.1520  143.9280 N   0  0  0  0  0  1  0  0  0  0  0  0
  187.3190  178.4990  141.9190 N   0  0  0  0  0  2  0  0  0  0  0  0
  189.3250  177.3620  144.4210 N   0  0  0  0  0  0  0  0  0  0  0  0
  186.0340  177.5390  145.8400 F   0  0  0  0  0  0  0  0  0  0  0  0
  188.3300  177.9500  145.3250 C   0  0  0  0  0  2  0  0  0  0  0  0
  186.7050  176.8790  143.6570 C   0  0  0  0  0  2  0  0  0  0  0  0
  186.8840  177.8740  144.8010 C   0  0  1  0  0  3  0  0  0  0  0  0
  189.0640  177.2320  143.0080 C   0  0  0  0  0  0  0  0  0  0  0  0
  187.6560  177.2060  142.5060 C   0  0  2  0  0  3  0  0  0  0  0  0
  190.0130  177.2260  142.1840 O   0  0  0  0  0  0  0  0  0  0  0  0
  190.7870  176.5610  146.2810 C   0  0  0  0  0  0  0  0  0  0  0  0
  189.8360  176.5490  147.1080 O   0  0  0  0  0  0  0  0  0  0  0  0
  190.5900  177.0690  144.9560 N   0  0  0  0  0  2  0  0  0  0  0  0
  192.1410  176.1220  146.7290 C   0  0  1  0  0  3  0  0  0  0  0  0
  192.2660  176.1310  148.2460 C   0  0  0  0  0  1  0  0  0  0  0  0
  192.5480  174.7790  146.1190 C   0  0  0  0  0  2  0  0  0  0  0  0
  192.1880  174.6620  144.6470 C   0  0  0  0  0  1  0  0  0  0  0  0
  1  2  1  6  0  0  0
  1 48  1  0  0  0  0
  3  2  1  0  0  0  0
  4  3  1  0  0  0  0
  5  3  2  0  0  0  0
  6 10  1  1  0  0  0
  6  8  1  0  0  0  0
  6  4  1  0  0  0  0
  7  8  2  0  0  0  0
  8  9  1  0  0  0  0
 12 10  1  0  0  0  0
 12 11  2  0  0  0  0
 14 11  1  0  0  0  0
 14 13  1  0  0  0  0
 15 14  2  0  0  0  0
 16 21  1  0  0  0  0
 16 20  1  0  0  0  0
 16 22  1  0  0  0  0
 18 17  1  0  0  0  0
 18 13  1  1  0  0  0
 18 20  1  0  0  0  0
 19 17  1  0  0  0  0
 19 21  1  0  0  0  0
 22 23  1  6  0  0  0
 25 24  1  6  0  0  0
 25 26  1  0  0  0  0
 25 22  1  0  0  0  0
 26 27  1  0  0  0  0
 27 28  1  0  0  0  0
 29 31  1  0  0  0  0
 31  1  1  0  0  0  0
 31 30  2  0  0  0  0
 32 45  1  0  0  0  0
 33 30  1  0  0  0  0
 33 32  2  0  0  0  0
 34 35  2  0  0  0  0
 35 37  2  0  0  0  0
 36 34  1  0  0  0  0
 37 32  1  0  0  0  0
 38 33  1  0  0  0  0
 39 40  2  0  0  0  0
 39 38  1  0  0  0  0
 41 42  1  6  0  0  0
 41 43  1  0  0  0  0
 41 39  1  0  0  0  0
 44 43  1  0  0  0  0
 45 46  1  0  0  0  0
 47 46  1  0  0  0  0
 49 59  1  0  0  0  0
 49 51  1  0  0  0  0
 52 53  1  0  0  0  0
 53 51  1  0  0  0  0
 53 50  1  1  0  0  0
 54 49  1  0  0  0  0
 55 48  1  1  0  0  0
 55 54  1  0  0  0  0
 55 52  1  0  0  0  0
 56 54  2  0  0  0  0
 57 60  1  0  0  0  0
 57 58  2  0  0  0  0
 59 57  1  0  0  0  0
 60 61  1  1  0  0  0
 62 60  1  0  0  0  0
 63 62  1  0  0  0  0
M  END
>  <MODEL>
5

>  <REMARK>
 VINA RESULT:      -5.9      2.234      3.408
  Name = 
  24 active torsions:
  status: ('A' for Active; 'I' for Inactive)
    1  A    between atoms: N_2  and  C_57
    2  A    between atoms: C_4  and  O_42
    3  A    between atoms: C_5  and  C_32
    4  A    between atoms: C_6  and  N_20
    5  A    between atoms: C_6  and  C_30
    6  A    between atoms: N_7  and  N_58
    7  A    between atoms: N_8  and  C_38
    8  A    between atoms: C_9  and  C_32
    9  A    between atoms: C_9  and  C_63
   10  A    between atoms: C_10  and  C_34
   11  A    between atoms: C_10  and  C_47
   12  A    between atoms: C_11  and  C_18
   13  A    between atoms: C_13  and  C_16
   14  A    between atoms: C_15  and  C_23
   15  A    between atoms: C_18  and  N_31
   16  A    between atoms: C_18  and  N_40
   17  A    between atoms: C_23  and  C_43
   18  A    between atoms: N_25  and  C_60
   19  A    between atoms: C_30  and  O_42
   20  A    between atoms: C_36  and  N_37
   21  A    between atoms: N_37  and  C_57
   22  A    between atoms: N_40  and  N_46
   23  A    between atoms: C_44  and  C_60
   24  A    between atoms: C_57  and  C_61
                            x       y       z     vdW  Elec       q    Type
                         _______ _______ _______ _____ _____    ______ ____

>  <TORSDO>
F 24

$$$$
=
 OpenBabel11032420503D

 63 64  0  0  1  0  0  0  0  0999 V2000
  186.9310  178.9210  140.5880 C   0  0  2  0  0  3  0  0  0  0  0  0
  188.1500  179.0020  139.7890 N   0  0  0  0  0  2  0  0  0  0  0  0
  188.3140  178.2620  138.5780 C   0  0  0  0  0  0  0  0  0  0  0  0
  187.3640  177.2560  138.2130 N   0  0  0  0  0  2  0  0  0  0  0  0
  189.3080  178.4970  137.8440 O   0  0  0  0  0  0  0  0  0  0  0  0
  187.4960  176.4500  137.0110 C   0  0  2  0  0  3  0  0  0  0  0  0
  185.1920  177.3490  136.4350 N   0  0  0  0  0  1  0  0  0  0  0  0
  186.1610  176.3060  136.3500 C   0  0  0  0  0  0  0  0  0  0  0  0
  185.8670  175.2100  135.7350 N   0  0  0  0  0  2  0  0  0  0  0  0
  188.0480  175.1500  137.3660 N   0  0  0  0  0  2  0  0  0  0  0  0
  189.5130  173.4770  136.6760 C   0  0  0  0  0  3  0  0  0  0  0  0
  189.2980  174.7290  136.9000 N   0  0  0  0  0  0  0  0  0  0  0  0
  192.0210  173.5130  136.6450 N   0  0  0  0  0  2  0  0  0  0  0  0
  190.7850  173.0200  136.1160 C   0  0  0  0  0  0  0  0  0  0  0  0
  190.7790  172.2470  135.1250 O   0  0  0  0  0  0  0  0  0  0  0  0
  195.7040  173.6380  136.1340 N   0  0  0  0  0  0  0  0  0  0  0  0
  193.5650  171.6710  136.2040 C   0  0  0  0  0  2  0  0  0  0  0  0
  193.3040  173.1680  136.0550 C   0  0  2  0  0  3  0  0  0  0  0  0
  194.9770  171.3270  135.7280 C   0  0  0  0  0  2  0  0  0  0  0  0
  194.4130  173.9440  136.7600 C   0  0  0  0  0  2  0  0  0  0  0  0
  195.9930  172.2280  136.4330 C   0  0  0  0  0  2  0  0  0  0  0  0
  196.7440  174.4790  136.7520 C   0  0  1  0  0  3  0  0  0  0  0  0
  197.8420  173.6160  137.3780 C   0  0  0  0  0  1  0  0  0  0  0  0
  198.6830  174.9360  135.2090 C   0  0  0  0  0  1  0  0  0  0  0  0
  197.3580  175.4610  135.7360 C   0  0  1  0  0  3  0  0  0  0  0  0
  196.4830  175.7110  134.6710 O   0  0  0  0  0  0  0  0  0  0  0  0
  196.3900  177.1030  134.5950 C   0  0  0  0  0  2  0  0  0  0  0  0
  195.4590  177.5630  135.5270 O   0  0  0  0  0  1  0  0  0  0  0  0
  186.7940  176.7090  141.7190 O   0  0  0  0  0  1  0  0  0  0  0  0
  187.6790  178.5690  142.9090 C   0  0  0  0  0  3  0  0  0  0  0  0
  187.1620  178.0500  141.7900 C   0  0  0  0  0  0  0  0  0  0  0  0
  186.8040  177.5380  144.9540 C   0  0  0  0  0  0  0  0  0  0  0  0
  187.8690  177.8450  144.1830 C   0  0  0  0  0  0  0  0  0  0  0  0
  188.9080  177.5070  147.9140 C   0  0  0  0  0  3  0  0  0  0  0  0
  187.9580  177.1830  147.0830 C   0  0  0  0  0  0  0  0  0  0  0  0
  188.6780  178.5740  148.9250 C   0  0  0  0  0  1  0  0  0  0  0  0
  187.0020  176.8590  146.2530 C   0  0  0  0  0  3  0  0  0  0  0  0
  189.1910  177.4260  144.5600 N   0  0  0  0  0  2  0  0  0  0  0  0
  190.1020  176.8140  143.6410 C   0  0  0  0  0  0  0  0  0  0  0  0
  189.8020  176.7040  142.4210 O   0  0  0  0  0  0  0  0  0  0  0  0
  191.4420  176.3720  144.1290 C   0  0  1  0  0  3  0  0  0  0  0  0
  191.6660  176.8480  145.5550 C   0  0  0  0  0  1  0  0  0  0  0  0
  191.5570  174.8560  144.0300 C   0  0  0  0  0  2  0  0  0  0  0  0
  192.4610  174.3150  145.1230 C   0  0  0  0  0  1  0  0  0  0  0  0
  185.4130  177.9410  144.5410 C   0  0  0  0  0  2  0  0  0  0  0  0
  185.0760  179.3150  145.0950 C   0  0  0  0  0  2  0  0  0  0  0  0
  185.2360  179.3030  146.5370 N   0  0  0  0  0  1  0  0  0  0  0  0
  185.8430  178.4030  139.7690 N   0  0  0  0  0  2  0  0  0  0  0  0
  182.7730  179.1060  138.4830 N   0  0  0  0  0  0  0  0  0  0  0  0
  182.3910  175.9900  140.2190 F   0  0  0  0  0  0  0  0  0  0  0  0
  182.5580  177.6550  138.5160 C   0  0  0  0  0  2  0  0  0  0  0  0
  183.6780  177.9000  140.8080 C   0  0  0  0  0  2  0  0  0  0  0  0
  183.2440  176.9460  139.6980 C   0  0  1  0  0  3  0  0  0  0  0  0
  183.9100  179.7060  139.1380 C   0  0  0  0  0  0  0  0  0  0  0  0
  184.5970  178.9880  140.2540 C   0  0  2  0  0  3  0  0  0  0  0  0
  184.3840  180.7940  138.7190 O   0  0  0  0  0  0  0  0  0  0  0  0
  180.9650  180.8030  138.1910 C   0  0  0  0  0  0  0  0  0  0  0  0
  180.7060  180.8330  139.4240 O   0  0  0  0  0  0  0  0  0  0  0  0
  181.9170  179.8680  137.6710 N   0  0  0  0  0  2  0  0  0  0  0  0
  180.1990  181.6940  137.2690 C   0  0  1  0  0  3  0  0  0  0  0  0
  180.4110  183.1650  137.5990 C   0  0  0  0  0  1  0  0  0  0  0  0
  180.4740  181.3820  135.7980 C   0  0  0  0  0  2  0  0  0  0  0  0
  179.3530  180.5940  135.1390 C   0  0  0  0  0  1  0  0  0  0  0  0
  1 48  1  6  0  0  0
  1 31  1  0  0  0  0
  2  1  1  0  0  0  0
  3  2  1  0  0  0  0
  4  3  1  0  0  0  0
  5  3  2  0  0  0  0
  6  8  1  1  0  0  0
  6 10  1  0  0  0  0
  6  4  1  0  0  0  0
  8  7  1  0  0  0  0
  9  8  2  0  0  0  0
 11 12  2  0  0  0  0
 12 10  1  0  0  0  0
 14 13  1  0  0  0  0
 14 11  1  0  0  0  0
 15 14  2  0  0  0  0
 16 21  1  0  0  0  0
 16 22  1  0  0  0  0
 16 20  1  0  0  0  0
 18 17  1  0  0  0  0
 18 13  1  1  0  0  0
 18 20  1  0  0  0  0
 19 17  1  0  0  0  0
 19 21  1  0  0  0  0
 22 23  1  6  0  0  0
 25 24  1  6  0  0  0
 25 22  1  0  0  0  0
 26 25  1  0  0  0  0
 27 26  1  0  0  0  0
 27 28  1  0  0  0  0
 29 31  1  0  0  0  0
 30 33  1  0  0  0  0
 31 30  2  0  0  0  0
 32 37  1  0  0  0  0
 33 38  1  0  0  0  0
 33 32  2  0  0  0  0
 34 36  1  0  0  0  0
 35 34  2  0  0  0  0
 37 35  2  0  0  0  0
 39 41  1  0  0  0  0
 39 38  1  0  0  0  0
 40 39  2  0  0  0  0
 41 42  1  1  0  0  0
 43 41  1  0  0  0  0
 43 44  1  0  0  0  0
 45 32  1  0  0  0  0
 45 46  1  0  0  0  0
 46 47  1  0  0  0  0
 49 51  1  0  0  0  0
 49 54  1  0  0  0  0
 51 53  1  0  0  0  0
 53 50  1  1  0  0  0
 53 52  1  0  0  0  0
 54 55  1  0  0  0  0
 55 48  1  6  0  0  0
 55 52  1  0  0  0  0
 56 54  2  0  0  0  0
 57 58  2  0  0  0  0
 59 57  1  0  0  0  0
 59 49  1  0  0  0  0
 60 61  1  1  0  0  0
 60 57  1  0  0  0  0
 62 60  1  0  0  0  0
 63 62  1  0  0  0  0
M  END
>  <MODEL>
6

>  <REMARK>
 VINA RESULT:      -5.6      2.312      8.140
  Name = 
  24 active torsions:
  status: ('A' for Active; 'I' for Inactive)
    1  A    between atoms: N_2  and  C_57
    2  A    between atoms: C_4  and  O_42
    3  A    between atoms: C_5  and  C_32
    4  A    between atoms: C_6  and  N_20
    5  A    between atoms: C_6  and  C_30
    6  A    between atoms: N_7  and  N_58
    7  A    between atoms: N_8  and  C_38
    8  A    between atoms: C_9  and  C_32
    9  A    between atoms: C_9  and  C_63
   10  A    between atoms: C_10  and  C_34
   11  A    between atoms: C_10  and  C_47
   12  A    between atoms: C_11  and  C_18
   13  A    between atoms: C_13  and  C_16
   14  A    between atoms: C_15  and  C_23
   15  A    between atoms: C_18  and  N_31
   16  A    between atoms: C_18  and  N_40
   17  A    between atoms: C_23  and  C_43
   18  A    between atoms: N_25  and  C_60
   19  A    between atoms: C_30  and  O_42
   20  A    between atoms: C_36  and  N_37
   21  A    between atoms: N_37  and  C_57
   22  A    between atoms: N_40  and  N_46
   23  A    between atoms: C_44  and  C_60
   24  A    between atoms: C_57  and  C_61
                            x       y       z     vdW  Elec       q    Type
                         _______ _______ _______ _____ _____    ______ ____

>  <TORSDO>
F 24

$$$$
=
 OpenBabel11032420503D

 63 64  0  0  1  0  0  0  0  0999 V2000
  187.9900  178.0680  140.5030 C   0  0  2  0  0  3  0  0  0  0  0  0
  188.7270  176.9070  140.0120 N   0  0  0  0  0  2  0  0  0  0  0  0
  188.9060  176.6560  138.6180 C   0  0  0  0  0  0  0  0  0  0  0  0
  188.1930  177.4290  137.6480 N   0  0  0  0  0  2  0  0  0  0  0  0
  189.6900  175.7410  138.2540 O   0  0  0  0  0  0  0  0  0  0  0  0
  188.3110  177.1970  136.2180 C   0  0  2  0  0  3  0  0  0  0  0  0
  188.3960  175.1380  134.7330 N   0  0  0  0  0  2  0  0  0  0  0  0
  187.9000  175.7930  135.8980 C   0  0  0  0  0  0  0  0  0  0  0  0
  187.0550  175.1850  136.6620 N   0  0  0  0  0  1  0  0  0  0  0  0
  189.6860  177.4460  135.8050 N   0  0  0  0  0  2  0  0  0  0  0  0
  191.7380  176.3450  135.8030 C   0  0  0  0  0  3  0  0  0  0  0  0
  190.5230  176.4110  135.3740 N   0  0  0  0  0  0  0  0  0  0  0  0
  192.3260  173.9080  135.8950 N   0  0  0  0  0  2  0  0  0  0  0  0
  192.6090  175.2320  135.4280 C   0  0  0  0  0  0  0  0  0  0  0  0
  193.6430  175.4610  134.7490 O   0  0  0  0  0  0  0  0  0  0  0  0
  195.1150  171.5280  136.5280 N   0  0  0  0  0  0  0  0  0  0  0  0
  192.4140  171.5060  135.4550 C   0  0  0  0  0  2  0  0  0  0  0  0
  193.2190  172.7910  135.6340 C   0  0  2  0  0  3  0  0  0  0  0  0
  193.3500  170.3030  135.3380 C   0  0  0  0  0  2  0  0  0  0  0  0
  194.1790  172.6230  136.8090 C   0  0  0  0  0  2  0  0  0  0  0  0
  194.3240  170.2900  136.5180 C   0  0  0  0  0  2  0  0  0  0  0  0
  196.1020  171.4550  137.6200 C   0  0  1  0  0  3  0  0  0  0  0  0
  196.7050  170.0510  137.7150 C   0  0  0  0  0  1  0  0  0  0  0  0
  197.7830  172.4600  136.0340 C   0  0  0  0  0  1  0  0  0  0  0  0
  197.2210  172.5000  137.4450 C   0  0  1  0  0  3  0  0  0  0  0  0
  196.7660  173.7910  137.7450 O   0  0  0  0  0  0  0  0  0  0  0  0
  197.7970  174.6430  137.3400 C   0  0  0  0  0  2  0  0  0  0  0  0
  198.0760  175.5580  138.3570 O   0  0  0  0  0  1  0  0  0  0  0  0
  188.9060  179.8260  142.0060 O   0  0  0  0  0  1  0  0  0  0  0  0
  188.6820  177.6030  142.8200 C   0  0  0  0  0  3  0  0  0  0  0  0
  188.5330  178.4960  141.8360 C   0  0  0  0  0  0  0  0  0  0  0  0
  190.6290  177.8390  144.2930 C   0  0  0  0  0  0  0  0  0  0  0  0
  189.2880  177.8740  144.1410 C   0  0  0  0  0  0  0  0  0  0  0  0
  191.2440  176.2360  147.4930 C   0  0  0  0  0  3  0  0  0  0  0  0
  191.2340  177.1470  146.5610 C   0  0  0  0  0  0  0  0  0  0  0  0
  192.3600  175.2550  147.5600 C   0  0  0  0  0  1  0  0  0  0  0  0
  191.2290  178.0600  145.6260 C   0  0  0  0  0  3  0  0  0  0  0  0
  188.4350  178.2270  145.2420 N   0  0  0  0  0  2  0  0  0  0  0  0
  187.1650  177.6070  145.4700 C   0  0  0  0  0  0  0  0  0  0  0  0
  186.7860  176.6440  144.7490 O   0  0  0  0  0  0  0  0  0  0  0  0
  186.3250  178.0660  146.6160 C   0  0  1  0  0  3  0  0  0  0  0  0
  187.1520  178.1140  147.8900 C   0  0  0  0  0  1  0  0  0  0  0  0
  185.7170  179.4270  146.3020 C   0  0  0  0  0  2  0  0  0  0  0  0
  184.6810  179.3080  145.1980 C   0  0  0  0  0  1  0  0  0  0  0  0
  191.5260  177.5080  143.1290 C   0  0  0  0  0  2  0  0  0  0  0  0
  191.4300  176.0300  142.7940 C   0  0  0  0  0  2  0  0  0  0  0  0
  192.0720  175.2580  143.8410 N   0  0  0  0  0  1  0  0  0  0  0  0
  186.5730  177.7430  140.5960 N   0  0  0  0  0  2  0  0  0  0  0  0
  183.6070  178.6060  139.1680 N   0  0  0  0  0  0  0  0  0  0  0  0
  182.9490  178.4000  142.6890 F   0  0  0  0  0  0  0  0  0  0  0  0
  182.9940  177.9710  140.3400 C   0  0  0  0  0  2  0  0  0  0  0  0
  184.8700  179.2260  141.5570 C   0  0  0  0  0  2  0  0  0  0  0  0
  183.8070  178.1320  141.6380 C   0  0  1  0  0  3  0  0  0  0  0  0
  185.0260  178.8640  139.1170 C   0  0  0  0  0  0  0  0  0  0  0  0
  185.8140  178.9720  140.3820 C   0  0  2  0  0  3  0  0  0  0  0  0
  185.6240  178.9130  138.0120 O   0  0  0  0  0  0  0  0  0  0  0  0
  182.6180  177.8490  137.0040 C   0  0  0  0  0  0  0  0  0  0  0  0
  183.3630  176.8340  136.9450 O   0  0  0  0  0  0  0  0  0  0  0  0
  182.7900  178.8170  138.0460 N   0  0  0  0  0  2  0  0  0  0  0  0
  181.6130  178.0730  135.9220 C   0  0  1  0  0  3  0  0  0  0  0  0
  181.2090  176.7700  135.2470 C   0  0  0  0  0  1  0  0  0  0  0  0
  180.4060  178.8760  136.4080 C   0  0  0  0  0  2  0  0  0  0  0  0
  180.4580  180.3370  135.9900 C   0  0  0  0  0  1  0  0  0  0  0  0
  1  2  1  1  0  0  0
  1 48  1  0  0  0  0
  1 31  1  0  0  0  0
  3  2  1  0  0  0  0
  4  3  1  0  0  0  0
  5  3  2  0  0  0  0
  6 10  1  1  0  0  0
  6  4  1  0  0  0  0
  7  8  2  0  0  0  0
  8  6  1  0  0  0  0
  8  9  1  0  0  0  0
 12 11  2  0  0  0  0
 12 10  1  0  0  0  0
 14 11  1  0  0  0  0
 14 13  1  0  0  0  0
 15 14  2  0  0  0  0
 16 20  1  0  0  0  0
 16 22  1  0  0  0  0
 17 18  1  0  0  0  0
 18 13  1  1  0  0  0
 18 20  1  0  0  0  0
 19 17  1  0  0  0  0
 19 21  1  0  0  0  0
 21 16  1  0  0  0  0
 22 23  1  6  0  0  0
 25 24  1  6  0  0  0
 25 22  1  0  0  0  0
 25 26  1  0  0  0  0
 27 26  1  0  0  0  0
 27 28  1  0  0  0  0
 30 33  1  0  0  0  0
 31 29  1  0  0  0  0
 31 30  2  0  0  0  0
 32 37  1  0  0  0  0
 33 32  2  0  0  0  0
 33 38  1  0  0  0  0
 34 36  1  0  0  0  0
 35 34  2  0  0  0  0
 37 35  2  0  0  0  0
 38 39  1  0  0  0  0
 39 41  1  0  0  0  0
 40 39  2  0  0  0  0
 41 42  1  1  0  0  0
 43 41  1  0  0  0  0
 44 43  1  0  0  0  0
 45 32  1  0  0  0  0
 46 45  1  0  0  0  0
 46 47  1  0  0  0  0
 49 51  1  0  0  0  0
 51 53  1  0  0  0  0
 52 53  1  0  0  0  0
 53 50  1  1  0  0  0
 54 49  1  0  0  0  0
 54 55  1  0  0  0  0
 55 48  1  1  0  0  0
 55 52  1  0  0  0  0
 56 54  2  0  0  0  0
 57 59  1  0  0  0  0
 58 57  2  0  0  0  0
 59 49  1  0  0  0  0
 60 61  1  1  0  0  0
 60 62  1  0  0  0  0
 60 57  1  0  0  0  0
 63 62  1  0  0  0  0
M  END
>  <MODEL>
7

>  <REMARK>
 VINA RESULT:      -5.5      2.401      8.335
  Name = 
  24 active torsions:
  status: ('A' for Active; 'I' for Inactive)
    1  A    between atoms: N_2  and  C_57
    2  A    between atoms: C_4  and  O_42
    3  A    between atoms: C_5  and  C_32
    4  A    between atoms: C_6  and  N_20
    5  A    between atoms: C_6  and  C_30
    6  A    between atoms: N_7  and  N_58
    7  A    between atoms: N_8  and  C_38
    8  A    between atoms: C_9  and  C_32
    9  A    between atoms: C_9  and  C_63
   10  A    between atoms: C_10  and  C_34
   11  A    between atoms: C_10  and  C_47
   12  A    between atoms: C_11  and  C_18
   13  A    between atoms: C_13  and  C_16
   14  A    between atoms: C_15  and  C_23
   15  A    between atoms: C_18  and  N_31
   16  A    between atoms: C_18  and  N_40
   17  A    between atoms: C_23  and  C_43
   18  A    between atoms: N_25  and  C_60
   19  A    between atoms: C_30  and  O_42
   20  A    between atoms: C_36  and  N_37
   21  A    between atoms: N_37  and  C_57
   22  A    between atoms: N_40  and  N_46
   23  A    between atoms: C_44  and  C_60
   24  A    between atoms: C_57  and  C_61
                            x       y       z     vdW  Elec       q    Type
                         _______ _______ _______ _____ _____    ______ ____

>  <TORSDO>
F 24

$$$$
=
 OpenBabel11032420503D

 63 64  0  0  1  0  0  0  0  0999 V2000
  186.8830  178.7000  141.3900 C   0  0  2  0  0  3  0  0  0  0  0  0
  187.1890  177.3980  141.9750 N   0  0  0  0  0  2  0  0  0  0  0  0
  188.4800  177.0870  142.5010 C   0  0  0  0  0  0  0  0  0  0  0  0
  189.5790  177.9770  142.2880 N   0  0  0  0  0  2  0  0  0  0  0  0
  188.6400  176.0180  143.1450 O   0  0  0  0  0  0  0  0  0  0  0  0
  190.9210  177.6970  142.7710 C   0  0  2  0  0  3  0  0  0  0  0  0
  191.0360  177.5210  145.3020 N   0  0  0  0  0  1  0  0  0  0  0  0
  191.1100  178.3160  144.1210 C   0  0  0  0  0  0  0  0  0  0  0  0
  191.3000  179.5900  144.2200 N   0  0  0  0  0  2  0  0  0  0  0  0
  191.8910  178.2180  141.8170 N   0  0  0  0  0  2  0  0  0  0  0  0
  192.6610  176.8580  140.0910 C   0  0  0  0  0  3  0  0  0  0  0  0
  191.8900  177.8180  140.4770 N   0  0  0  0  0  0  0  0  0  0  0  0
  191.6730  175.3700  138.3290 N   0  0  0  0  0  2  0  0  0  0  0  0
  192.6230  176.3700  138.7130 C   0  0  0  0  0  0  0  0  0  0  0  0
  193.4760  176.7880  137.8880 O   0  0  0  0  0  0  0  0  0  0  0  0
  193.0190  173.5340  135.3860 N   0  0  0  0  0  0  0  0  0  0  0  0
  190.5380  173.7600  136.8830 C   0  0  0  0  0  2  0  0  0  0  0  0
  191.6670  174.7820  137.0000 C   0  0  2  0  0  3  0  0  0  0  0  0
  190.6210  173.0240  135.5460 C   0  0  0  0  0  2  0  0  0  0  0  0
  193.0010  174.0860  136.7460 C   0  0  0  0  0  2  0  0  0  0  0  0
  192.0280  172.4490  135.3590 C   0  0  0  0  0  2  0  0  0  0  0  0
  194.3530  172.9670  135.1210 C   0  0  1  0  0  3  0  0  0  0  0  0
  195.4250  174.0590  135.1560 C   0  0  0  0  0  1  0  0  0  0  0  0
  194.8620  170.5160  135.4080 C   0  0  0  0  0  1  0  0  0  0  0  0
  194.7040  171.8480  136.1210 C   0  0  1  0  0  3  0  0  0  0  0  0
  195.8680  172.1500  136.8380 O   0  0  0  0  0  0  0  0  0  0  0  0
  195.5450  171.9080  138.1760 C   0  0  0  0  0  2  0  0  0  0  0  0
  195.6910  173.0830  138.9150 O   0  0  0  0  0  1  0  0  0  0  0  0
  184.9290  179.8490  140.3650 O   0  0  0  0  0  1  0  0  0  0  0  0
  184.5570  178.0430  141.8690 C   0  0  0  0  0  3  0  0  0  0  0  0
  185.3990  178.8450  141.2070 C   0  0  0  0  0  0  0  0  0  0  0  0
  182.4180  178.6090  142.9260 C   0  0  0  0  0  0  0  0  0  0  0  0
  183.0820  178.1420  141.8470 C   0  0  0  0  0  0  0  0  0  0  0  0
  179.5980  180.8520  142.4760 C   0  0  0  0  0  3  0  0  0  0  0  0
  180.2690  179.7580  142.7010 C   0  0  0  0  0  0  0  0  0  0  0  0
  179.2480  181.2350  141.0820 C   0  0  0  0  0  1  0  0  0  0  0  0
  180.9410  178.6590  142.9210 C   0  0  0  0  0  3  0  0  0  0  0  0
  182.3750  177.7860  140.6490 N   0  0  0  0  0  2  0  0  0  0  0  0
  181.8620  178.7600  139.7330 C   0  0  0  0  0  0  0  0  0  0  0  0
  182.1010  179.9860  139.9040 O   0  0  0  0  0  0  0  0  0  0  0  0
  181.1010  178.3010  138.5320 C   0  0  1  0  0  3  0  0  0  0  0  0
  181.1590  179.3550  137.4380 C   0  0  0  0  0  1  0  0  0  0  0  0
  181.6550  176.9690  138.0440 C   0  0  0  0  0  2  0  0  0  0  0  0
  180.5660  175.9100  138.0300 C   0  0  0  0  0  1  0  0  0  0  0  0
  183.1630  179.0200  144.1700 C   0  0  0  0  0  2  0  0  0  0  0  0
  184.5910  179.4040  143.8250 C   0  0  0  0  0  2  0  0  0  0  0  0
  185.4710  178.9990  144.9050 N   0  0  0  0  0  1  0  0  0  0  0  0
  187.5820  178.8410  140.1190 N   0  0  0  0  0  2  0  0  0  0  0  0
  186.9190  177.8300  136.9390 N   0  0  0  0  0  0  0  0  0  0  0  0
  190.4940  177.7860  137.2300 F   0  0  0  0  0  0  0  0  0  0  0  0
  188.2540  178.3480  136.6230 C   0  0  0  0  0  2  0  0  0  0  0  0
  188.8400  177.1780  138.8270 C   0  0  0  0  0  2  0  0  0  0  0  0
  189.2780  178.1800  137.7600 C   0  0  1  0  0  3  0  0  0  0  0  0
  186.4790  177.6870  138.3060 C   0  0  0  0  0  0  0  0  0  0  0  0
  187.4820  177.5710  139.4070 C   0  0  2  0  0  3  0  0  0  0  0  0
  185.2550  177.7470  138.5900 O   0  0  0  0  0  0  0  0  0  0  0  0
  185.3280  176.3910  135.6610 C   0  0  0  0  0  0  0  0  0  0  0  0
  185.6260  175.3620  136.3240 O   0  0  0  0  0  0  0  0  0  0  0  0
  186.0370  177.6190  135.8670 N   0  0  0  0  0  2  0  0  0  0  0  0
  184.2880  176.2880  134.5950 C   0  0  1  0  0  3  0  0  0  0  0  0
  183.6120  174.9240  134.5940 C   0  0  0  0  0  1  0  0  0  0  0  0
  183.2800  177.4370  134.6540 C   0  0  0  0  0  2  0  0  0  0  0  0
  181.8370  176.9590  134.7100 C   0  0  0  0  0  1  0  0  0  0  0  0
  1 48  1  6  0  0  0
  1  2  1  0  0  0  0
  2  3  1  0  0  0  0
  3  5  2  0  0  0  0
  4  3  1  0  0  0  0
  4  6  1  0  0  0  0
  6 10  1  6  0  0  0
  6  8  1  0  0  0  0
  8  9  2  0  0  0  0
  8  7  1  0  0  0  0
 11 12  2  0  0  0  0
 12 10  1  0  0  0  0
 13 14  1  0  0  0  0
 14 11  1  0  0  0  0
 15 14  2  0  0  0  0
 16 20  1  0  0  0  0
 17 18  1  0  0  0  0
 18 13  1  1  0  0  0
 19 17  1  0  0  0  0
 20 18  1  0  0  0  0
 21 16  1  0  0  0  0
 21 19  1  0  0  0  0
 22 23  1  1  0  0  0
 22 16  1  0  0  0  0
 22 25  1  0  0  0  0
 25 24  1  6  0  0  0
 25 26  1  0  0  0  0
 26 27  1  0  0  0  0
 27 28  1  0  0  0  0
 29 31  1  0  0  0  0
 31  1  1  0  0  0  0
 31 30  2  0  0  0  0
 32 45  1  0  0  0  0
 33 30  1  0  0  0  0
 33 32  2  0  0  0  0
 34 35  2  0  0  0  0
 35 37  2  0  0  0  0
 36 34  1  0  0  0  0
 37 32  1  0  0  0  0
 38 33  1  0  0  0  0
 39 40  2  0  0  0  0
 39 38  1  0  0  0  0
 41 42  1  6  0  0  0
 41 39  1  0  0  0  0
 43 41  1  0  0  0  0
 44 43  1  0  0  0  0
 46 45  1  0  0  0  0
 46 47  1  0  0  0  0
 49 54  1  0  0  0  0
 51 49  1  0  0  0  0
 51 53  1  0  0  0  0
 52 55  1  0  0  0  0
 53 50  1  6  0  0  0
 53 52  1  0  0  0  0
 54 56  2  0  0  0  0
 54 55  1  0  0  0  0
 55 48  1  6  0  0  0
 57 59  1  0  0  0  0
 57 58  2  0  0  0  0
 59 49  1  0  0  0  0
 60 61  1  1  0  0  0
 60 62  1  0  0  0  0
 60 57  1  0  0  0  0
 62 63  1  0  0  0  0
M  END
>  <MODEL>
8

>  <REMARK>
 VINA RESULT:      -5.5      2.679      6.556
  Name = 
  24 active torsions:
  status: ('A' for Active; 'I' for Inactive)
    1  A    between atoms: N_2  and  C_57
    2  A    between atoms: C_4  and  O_42
    3  A    between atoms: C_5  and  C_32
    4  A    between atoms: C_6  and  N_20
    5  A    between atoms: C_6  and  C_30
    6  A    between atoms: N_7  and  N_58
    7  A    between atoms: N_8  and  C_38
    8  A    between atoms: C_9  and  C_32
    9  A    between atoms: C_9  and  C_63
   10  A    between atoms: C_10  and  C_34
   11  A    between atoms: C_10  and  C_47
   12  A    between atoms: C_11  and  C_18
   13  A    between atoms: C_13  and  C_16
   14  A    between atoms: C_15  and  C_23
   15  A    between atoms: C_18  and  N_31
   16  A    between atoms: C_18  and  N_40
   17  A    between atoms: C_23  and  C_43
   18  A    between atoms: N_25  and  C_60
   19  A    between atoms: C_30  and  O_42
   20  A    between atoms: C_36  and  N_37
   21  A    between atoms: N_37  and  C_57
   22  A    between atoms: N_40  and  N_46
   23  A    between atoms: C_44  and  C_60
   24  A    between atoms: C_57  and  C_61
                            x       y       z     vdW  Elec       q    Type
                         _______ _______ _______ _____ _____    ______ ____

>  <TORSDO>
F 24

$$$$
=
 OpenBabel11032420503D

 63 64  0  0  1  0  0  0  0  0999 V2000
  187.0590  177.0430  136.5820 C   0  0  2  0  0  3  0  0  0  0  0  0
  187.0010  177.9270  137.7420 N   0  0  0  0  0  2  0  0  0  0  0  0
  188.1350  178.1570  138.5790 C   0  0  0  0  0  0  0  0  0  0  0  0
  189.3170  177.3650  138.4250 N   0  0  0  0  0  2  0  0  0  0  0  0
  188.0790  179.0550  139.4580 O   0  0  0  0  0  0  0  0  0  0  0  0
  190.4890  177.5310  139.2690 C   0  0  2  0  0  3  0  0  0  0  0  0
  192.9780  177.0910  139.0260 N   0  0  0  0  0  1  0  0  0  0  0  0
  191.6320  176.7470  138.7050 C   0  0  0  0  0  0  0  0  0  0  0  0
  191.3990  175.7770  137.8850 N   0  0  0  0  0  2  0  0  0  0  0  0
  190.1710  177.0930  140.6210 N   0  0  0  0  0  2  0  0  0  0  0  0
  188.3770  176.9050  142.0940 C   0  0  0  0  0  3  0  0  0  0  0  0
  189.1150  177.6550  141.3460 N   0  0  0  0  0  0  0  0  0  0  0  0
  186.2470  178.2120  142.3120 N   0  0  0  0  0  2  0  0  0  0  0  0
  187.3160  177.4790  142.9200 C   0  0  0  0  0  0  0  0  0  0  0  0
  187.3900  177.3800  144.1720 O   0  0  0  0  0  0  0  0  0  0  0  0
  182.8300  178.9600  143.5830 N   0  0  0  0  0  0  0  0  0  0  0  0
  185.5510  178.7650  144.5890 C   0  0  0  0  0  2  0  0  0  0  0  0
  185.2290  178.8870  143.1010 C   0  0  2  0  0  3  0  0  0  0  0  0
  184.4070  179.3330  145.4290 C   0  0  0  0  0  2  0  0  0  0  0  0
  183.8690  178.2500  142.8270 C   0  0  0  0  0  2  0  0  0  0  0  0
  183.0850  178.6900  145.0050 C   0  0  0  0  0  2  0  0  0  0  0  0
  181.5150  178.4050  143.2200 C   0  0  1  0  0  3  0  0  0  0  0  0
  180.4470  178.8320  144.2300 C   0  0  0  0  0  1  0  0  0  0  0  0
  179.9280  177.9830  141.3090 C   0  0  0  0  0  1  0  0  0  0  0  0
  181.0950  178.8240  141.7970 C   0  0  1  0  0  3  0  0  0  0  0  0
  180.7640  180.1840  141.7410 O   0  0  0  0  0  0  0  0  0  0  0  0
  180.0650  180.3400  140.5410 C   0  0  0  0  0  2  0  0  0  0  0  0
  179.9260  181.6980  140.2520 O   0  0  0  0  0  1  0  0  0  0  0  0
  185.2210  177.1740  134.9100 O   0  0  0  0  0  1  0  0  0  0  0  0
  184.8770  175.9500  136.9220 C   0  0  0  0  0  3  0  0  0  0  0  0
  185.6690  176.6880  136.1360 C   0  0  0  0  0  0  0  0  0  0  0  0
  183.1030  174.3260  136.4460 C   0  0  0  0  0  0  0  0  0  0  0  0
  183.4660  175.6120  136.6420 C   0  0  0  0  0  0  0  0  0  0  0  0
  180.2670  172.3310  137.5270 C   0  0  0  0  0  3  0  0  0  0  0  0
  180.9840  173.1600  136.8220 C   0  0  0  0  0  0  0  0  0  0  0  0
  179.4880  172.8290  138.6920 C   0  0  0  0  0  1  0  0  0  0  0  0
  181.7000  173.9950  136.1160 C   0  0  0  0  0  3  0  0  0  0  0  0
  182.4830  176.6590  136.6350 N   0  0  0  0  0  2  0  0  0  0  0  0
  181.8900  177.1750  137.8320 C   0  0  0  0  0  0  0  0  0  0  0  0
  182.2880  176.7810  138.9630 O   0  0  0  0  0  0  0  0  0  0  0  0
  180.8450  178.2360  137.7290 C   0  0  1  0  0  3  0  0  0  0  0  0
  181.3440  179.3850  136.8690 C   0  0  0  0  0  1  0  0  0  0  0  0
  179.5590  177.6450  137.1670 C   0  0  0  0  0  2  0  0  0  0  0  0
  179.2000  176.3580  137.8900 C   0  0  0  0  0  1  0  0  0  0  0  0
  184.1270  173.2220  136.4930 C   0  0  0  0  0  2  0  0  0  0  0  0
  184.4000  172.6990  135.0940 C   0  0  0  0  0  2  0  0  0  0  0  0
  183.7860  171.3930  134.9410 N   0  0  0  0  0  1  0  0  0  0  0  0
  187.8210  175.8460  136.9180 N   0  0  0  0  0  2  0  0  0  0  0  0
  190.2840  173.9550  135.5280 N   0  0  0  0  0  0  0  0  0  0  0  0
  188.0530  171.6200  137.0910 F   0  0  0  0  0  0  0  0  0  0  0  0
  189.9510  172.9720  136.5640 C   0  0  0  0  0  2  0  0  0  0  0  0
  187.5590  173.6240  135.9110 C   0  0  0  0  0  2  0  0  0  0  0  0
  188.4560  172.9350  136.9360 C   0  0  1  0  0  3  0  0  0  0  0  0
  189.4400  175.1010  135.2880 C   0  0  0  0  0  0  0  0  0  0  0  0
  188.0030  175.0710  135.6950 C   0  0  2  0  0  3  0  0  0  0  0  0
  189.9260  176.1610  134.8160 O   0  0  0  0  0  0  0  0  0  0  0  0
  192.6560  173.1760  135.4820 C   0  0  0  0  0  0  0  0  0  0  0  0
  192.6510  172.8820  136.7070 O   0  0  0  0  0  0  0  0  0  0  0  0
  191.5250  173.8200  134.8840 N   0  0  0  0  0  2  0  0  0  0  0  0
  193.8930  172.9260  134.6840 C   0  0  1  0  0  3  0  0  0  0  0  0
  194.7690  174.1670  134.5940 C   0  0  0  0  0  1  0  0  0  0  0  0
  194.6660  171.7020  135.1790 C   0  0  0  0  0  2  0  0  0  0  0  0
  196.1600  171.9550  135.3050 C   0  0  0  0  0  1  0  0  0  0  0  0
  1 31  1  1  0  0  0
  1 48  1  0  0  0  0
  1  2  1  0  0  0  0
  2  3  1  0  0  0  0
  3  5  2  0  0  0  0
  4  3  1  0  0  0  0
  6  4  1  6  0  0  0
  6 10  1  0  0  0  0
  8  7  1  0  0  0  0
  8  6  1  0  0  0  0
  9  8  2  0  0  0  0
 10 12  1  0  0  0  0
 11 14  1  0  0  0  0
 12 11  2  0  0  0  0
 13 14  1  0  0  0  0
 14 15  2  0  0  0  0
 16 21  1  0  0  0  0
 17 19  1  0  0  0  0
 18 13  1  6  0  0  0
 18 17  1  0  0  0  0
 20 18  1  0  0  0  0
 20 16  1  0  0  0  0
 21 19  1  0  0  0  0
 22 16  1  0  0  0  0
 22 23  1  1  0  0  0
 25 24  1  1  0  0  0
 25 22  1  0  0  0  0
 26 25  1  0  0  0  0
 27 26  1  0  0  0  0
 28 27  1  0  0  0  0
 29 31  1  0  0  0  0
 31 30  2  0  0  0  0
 32 45  1  0  0  0  0
 32 33  2  0  0  0  0
 33 30  1  0  0  0  0
 34 36  1  0  0  0  0
 35 34  2  0  0  0  0
 37 32  1  0  0  0  0
 37 35  2  0  0  0  0
 38 33  1  0  0  0  0
 38 39  1  0  0  0  0
 39 40  2  0  0  0  0
 41 42  1  6  0  0  0
 41 39  1  0  0  0  0
 43 41  1  0  0  0  0
 43 44  1  0  0  0  0
 46 45  1  0  0  0  0
 47 46  1  0  0  0  0
 49 51  1  0  0  0  0
 51 53  1  0  0  0  0
 52 53  1  0  0  0  0
 53 50  1  6  0  0  0
 54 49  1  0  0  0  0
 54 55  1  0  0  0  0
 55 52  1  0  0  0  0
 55 48  1  1  0  0  0
 56 54  2  0  0  0  0
 57 58  2  0  0  0  0
 59 57  1  0  0  0  0
 59 49  1  0  0  0  0
 60 61  1  1  0  0  0
 60 62  1  0  0  0  0
 60 57  1  0  0  0  0
 62 63  1  0  0  0  0
M  END
>  <MODEL>
9

>  <REMARK>
 VINA RESULT:      -5.0      3.075     10.278
  Name = 
  24 active torsions:
  status: ('A' for Active; 'I' for Inactive)
    1  A    between atoms: N_2  and  C_57
    2  A    between atoms: C_4  and  O_42
    3  A    between atoms: C_5  and  C_32
    4  A    between atoms: C_6  and  N_20
    5  A    between atoms: C_6  and  C_30
    6  A    between atoms: N_7  and  N_58
    7  A    between atoms: N_8  and  C_38
    8  A    between atoms: C_9  and  C_32
    9  A    between atoms: C_9  and  C_63
   10  A    between atoms: C_10  and  C_34
   11  A    between atoms: C_10  and  C_47
   12  A    between atoms: C_11  and  C_18
   13  A    between atoms: C_13  and  C_16
   14  A    between atoms: C_15  and  C_23
   15  A    between atoms: C_18  and  N_31
   16  A    between atoms: C_18  and  N_40
   17  A    between atoms: C_23  and  C_43
   18  A    between atoms: N_25  and  C_60
   19  A    between atoms: C_30  and  O_42
   20  A    between atoms: C_36  and  N_37
   21  A    between atoms: N_37  and  C_57
   22  A    between atoms: N_40  and  N_46
   23  A    between atoms: C_44  and  C_60
   24  A    between atoms: C_57  and  C_61
                            x       y       z     vdW  Elec       q    Type
                         _______ _______ _______ _____ _____    ______ ____

>  <TORSDO>
F 24

$$$$
