=
 OpenBabel11032421183D

 52 57  0  0  1  0  0  0  0  0999 V2000
  184.5630  178.5540  139.2380 C   0  0  2  0  0  3  0  0  0  0  0  0
  182.5930  178.6380  141.2490 S   0  0  0  0  0  0  0  0  0  0  0  0
  185.0230  178.9220  141.7490 C   0  0  0  0  0  3  0  0  0  0  0  0
  184.1680  178.7110  140.6780 C   0  0  0  0  0  0  0  0  0  0  0  0
  182.9470  178.8720  142.8780 C   0  0  0  0  0  3  0  0  0  0  0  0
  184.3320  179.0050  142.9650 C   0  0  0  0  0  0  0  0  0  0  0  0
  185.0270  179.2540  144.2560 C   0  0  0  0  0  2  0  0  0  0  0  0
  184.0700  179.1940  145.3490 N   0  0  0  0  0  2  0  0  0  0  0  0
  184.7220  178.5790  146.4260 N   0  0  0  0  0  2  0  0  0  0  0  0
  188.3960  178.4000  148.4610 N   0  0  0  0  0  1  0  0  0  0  0  0
  187.0660  177.8330  146.5910 C   0  0  0  0  0  0  0  0  0  0  0  0
  185.8190  177.8880  145.8970 N   0  0  0  0  0  2  0  0  0  0  0  0
  187.1910  178.4130  147.7470 N   0  0  0  0  0  0  0  0  0  0  0  0
  188.2200  177.1310  145.9460 C   0  0  0  0  0  2  0  0  0  0  0  0
  188.5090  176.4670  143.5800 C   0  0  0  0  0  2  0  0  0  0  0  0
  188.4250  177.6330  144.5250 C   0  0  2  0  0  3  0  0  0  0  0  0
  189.6490  176.8650  142.7010 C   0  0  0  0  0  2  0  0  0  0  0  0
  189.6320  178.3400  144.4270 O   0  0  0  0  0  0  0  0  0  0  0  0
  190.0370  178.2000  143.1320 N   0  0  0  0  0  2  0  0  0  0  0  0
  183.0720  176.8390  136.1030 C   0  0  0  0  0  2  0  0  0  0  0  0
  182.6890  178.2160  137.2190 S   0  0  0  0  0  0  0  0  0  0  0  0
  183.7470  177.4770  138.5070 C   0  0  1  0  0  3  0  0  0  0  0  0
  183.8190  175.8000  136.9140 C   0  0  2  0  0  3  0  0  0  0  0  0
  184.6370  176.5090  137.8830 N   0  0  0  0  0  2  0  0  0  0  0  0
  182.5280  171.9170  135.3810 O   0  0  0  0  0  1  0  0  0  0  0  0
  185.7750  174.1750  136.8150 C   0  0  0  0  0  2  0  0  0  0  0  0
  184.3700  172.1030  136.8830 C   0  0  0  0  0  2  0  0  0  0  0  0
  183.8450  173.9020  135.2240 C   0  0  0  0  0  2  0  0  0  0  0  0
  184.6880  174.9100  136.0160 C   0  0  1  0  0  3  0  0  0  0  0  0
  183.2550  172.8300  136.1430 C   0  0  1  0  0  3  0  0  0  0  0  0
  185.1760  173.0940  137.7160 C   0  0  0  0  0  2  0  0  0  0  0  0
  185.9560  178.3900  139.0900 O   0  0  0  0  0  0  0  0  0  0  0  0
  186.3040  179.0030  137.9710 O   0  0  0  0  0  0  0  0  0  0  0  0
  189.3560  176.1980  137.5440 C   0  0  2  0  0  3  0  0  0  0  0  0
  187.6220  178.6000  137.7370 C   0  0  1  0  0  3  0  0  0  0  0  0
  188.1420  177.8480  138.9650 C   0  0  0  0  0  2  0  0  0  0  0  0
  188.9310  176.9090  136.2620 C   0  0  0  0  0  2  0  0  0  0  0  0
  187.7000  177.7280  136.5060 C   0  0  0  0  0  0  0  0  0  0  0  0
  186.8220  177.7660  135.6550 O   0  0  0  0  0  0  0  0  0  0  0  0
  189.4990  177.2020  138.6850 C   0  0  0  0  0  2  0  0  0  0  0  0
  190.5720  175.5440  137.3330 O   0  0  0  0  0  0  0  0  0  0  0  0
  191.3110  176.4040  136.6610 O   0  0  0  0  0  0  0  0  0  0  0  0
  192.7210  175.5550  136.2400 P   0  0  1  0  0  0  0  0  0  0  0  0
  193.3280  174.6610  137.6240 N   0  0  0  0  0  2  0  0  0  0  0  0
  191.9950  173.0240  135.6560 C   0  0  0  0  0  2  0  0  0  0  0  0
  192.3400  174.3320  134.9570 C   0  0  0  0  0  2  0  0  0  0  0  0
  194.0850  173.5240  137.1010 C   0  0  2  0  0  3  0  0  0  0  0  0
  193.1740  172.4550  136.4640 C   0  0  0  0  0  2  0  0  0  0  0  0
  193.7720  176.5160  135.7350 O   0  0  0  0  0  0  0  0  0  0  0  0
  196.0300  172.0140  137.5350 C   0  0  0  0  0  1  0  0  0  0  0  0
  194.9810  172.9040  138.1720 C   0  0  0  0  0  3  0  0  0  0  0  0
  195.6550  173.9570  139.0360 C   0  0  0  0  0  1  0  0  0  0  0  0
  1 32  1  1  0  0  0
  1  4  1  0  0  0  0
  2  5  1  0  0  0  0
  3  6  1  0  0  0  0
  4  2  1  0  0  0  0
  4  3  2  0  0  0  0
  5  6  2  0  0  0  0
  6  7  1  0  0  0  0
  7  8  1  0  0  0  0
  8  9  1  0  0  0  0
 11 13  2  0  0  0  0
 12  9  1  0  0  0  0
 12 11  1  0  0  0  0
 13 10  1  0  0  0  0
 14 11  1  0  0  0  0
 15 16  1  0  0  0  0
 16 14  1  1  0  0  0
 17 19  1  0  0  0  0
 17 15  1  0  0  0  0
 18 16  1  0  0  0  0
 19 18  1  0  0  0  0
 20 21  1  0  0  0  0
 21 22  1  0  0  0  0
 22  1  1  6  0  0  0
 23 20  1  6  0  0  0
 23 24  1  0  0  0  0
 24 22  1  0  0  0  0
 26 31  1  0  0  0  0
 27 31  1  0  0  0  0
 28 30  1  0  0  0  0
 29 28  1  1  0  0  0
 29 26  1  0  0  0  0
 29 23  1  0  0  0  0
 30 25  1  6  0  0  0
 30 27  1  0  0  0  0
 33 32  1  0  0  0  0
 34 41  1  6  0  0  0
 34 40  1  0  0  0  0
 35 33  1  1  0  0  0
 35 36  1  0  0  0  0
 37 38  1  0  0  0  0
 37 34  1  0  0  0  0
 38 35  1  0  0  0  0
 39 38  2  0  0  0  0
 40 36  1  0  0  0  0
 42 41  1  0  0  0  0
 43 49  2  6  0  0  0
 43 42  1  0  0  0  0
 43 44  1  0  0  0  0
 45 48  1  0  0  0  0
 46 45  1  0  0  0  0
 46 43  1  0  0  0  0
 47 44  1  0  0  0  0
 47 51  1  1  0  0  0
 48 47  1  0  0  0  0
 50 51  1  0  0  0  0
 51 52  1  0  0  0  0
M  END
>  <MODEL>
1

>  <REMARK>
 VINA RESULT:      -7.9      0.000      0.000
  Name = 
  16 active torsions:
  status: ('A' for Active; 'I' for Inactive)
    1  A    between atoms: O_1  and  O_26
    2  A    between atoms: O_1  and  C_41
    3  A    between atoms: C_3  and  N_8
    4  A    between atoms: C_3  and  C_49
    5  A    between atoms: C_4  and  O_37
    6  A    between atoms: C_6  and  C_22
    7  A    between atoms: C_6  and  C_28
    8  A    between atoms: N_8  and  N_14
    9  A    between atoms: P_13  and  O_21
   10  A    between atoms: N_14  and  N_36
   11  A    between atoms: C_16  and  O_26
   12  A    between atoms: C_18  and  C_41
   13  A    between atoms: O_21  and  O_37
   14  A    between atoms: C_24  and  C_41
   15  A    between atoms: C_25  and  C_40
   16  A    between atoms: C_29  and  C_45
                            x       y       z     vdW  Elec       q    Type
                         _______ _______ _______ _____ _____    ______ ____

>  <TORSDO>
F 16

$$$$
=
 OpenBabel11032421183D

 52 57  0  0  1  0  0  0  0  0999 V2000
  188.9040  178.3960  140.0900 C   0  0  2  0  0  3  0  0  0  0  0  0
  188.4680  178.3120  137.3090 S   0  0  0  0  0  0  0  0  0  0  0  0
  188.9930  176.2660  138.6390 C   0  0  0  0  0  3  0  0  0  0  0  0
  188.8070  177.6300  138.8030 C   0  0  0  0  0  0  0  0  0  0  0  0
  188.5480  176.8940  136.4050 C   0  0  0  0  0  3  0  0  0  0  0  0
  188.8510  175.8710  137.3030 C   0  0  0  0  0  0  0  0  0  0  0  0
  188.9780  174.4520  136.8770 C   0  0  0  0  0  2  0  0  0  0  0  0
  190.2130  173.8910  137.4000 N   0  0  0  0  0  2  0  0  0  0  0  0
  191.1330  173.8780  136.3440 N   0  0  0  0  0  2  0  0  0  0  0  0
  193.4460  176.9070  138.1190 N   0  0  0  0  0  1  0  0  0  0  0  0
  193.1730  174.6430  137.4990 C   0  0  0  0  0  0  0  0  0  0  0  0
  192.3900  173.6090  136.9010 N   0  0  0  0  0  2  0  0  0  0  0  0
  192.7120  175.8560  137.5550 N   0  0  0  0  0  0  0  0  0  0  0  0
  194.5340  174.3040  138.0230 C   0  0  0  0  0  2  0  0  0  0  0  0
  196.6980  173.4160  137.2170 C   0  0  0  0  0  2  0  0  0  0  0  0
  195.5640  174.3510  136.9040 C   0  0  2  0  0  3  0  0  0  0  0  0
  197.8870  174.2380  136.8410 C   0  0  0  0  0  2  0  0  0  0  0  0
  196.1030  175.6410  136.7910 O   0  0  0  0  0  0  0  0  0  0  0  0
  197.3570  175.4730  136.2820 N   0  0  0  0  0  2  0  0  0  0  0  0
  191.4640  177.3620  142.8050 C   0  0  0  0  0  2  0  0  0  0  0  0
  191.1600  177.0860  141.0390 S   0  0  0  0  0  0  0  0  0  0  0  0
  189.4070  177.5390  141.2610 C   0  0  1  0  0  3  0  0  0  0  0  0
  190.1140  177.5680  143.4640 C   0  0  2  0  0  3  0  0  0  0  0  0
  189.2670  178.2670  142.5130 N   0  0  0  0  0  2  0  0  0  0  0  0
  192.3360  176.1580  146.9540 O   0  0  0  0  0  1  0  0  0  0  0  0
  188.9690  178.2980  145.6160 C   0  0  0  0  0  2  0  0  0  0  0  0
  189.9790  176.5060  147.0460 C   0  0  0  0  0  2  0  0  0  0  0  0
  191.4550  177.9140  145.5960 C   0  0  0  0  0  2  0  0  0  0  0  0
  190.2470  178.3680  144.7660 C   0  0  1  0  0  3  0  0  0  0  0  0
  191.2330  176.5180  146.1810 C   0  0  1  0  0  3  0  0  0  0  0  0
  188.7660  176.9020  146.2110 C   0  0  0  0  0  2  0  0  0  0  0  0
  187.7090  179.0870  140.3810 O   0  0  0  0  0  0  0  0  0  0  0  0
  186.7570  178.1800  140.5210 O   0  0  0  0  0  0  0  0  0  0  0  0
  182.6960  178.5090  139.6490 C   0  0  2  0  0  3  0  0  0  0  0  0
  185.5630  178.8800  140.3250 C   0  0  1  0  0  3  0  0  0  0  0  0
  185.0700  178.6370  138.8960 C   0  0  0  0  0  2  0  0  0  0  0  0
  183.0850  178.7980  141.0970 C   0  0  0  0  0  2  0  0  0  0  0  0
  184.5220  178.4450  141.3300 C   0  0  0  0  0  0  0  0  0  0  0  0
  184.8490  177.9080  142.3780 O   0  0  0  0  0  0  0  0  0  0  0  0
  183.6640  179.2010  138.6930 C   0  0  0  0  0  2  0  0  0  0  0  0
  181.3950  178.9600  139.4160 O   0  0  0  0  0  0  0  0  0  0  0  0
  181.2420  178.9020  138.1080 O   0  0  0  0  0  0  0  0  0  0  0  0
  180.1680  180.1610  137.7240 P   0  0  1  0  0  0  0  0  0  0  0  0
  181.0300  181.6880  137.6290 N   0  0  0  0  0  2  0  0  0  0  0  0
  180.3230  180.5720  135.0630 C   0  0  0  0  0  2  0  0  0  0  0  0
  179.4420  179.8710  136.0880 C   0  0  0  0  0  2  0  0  0  0  0  0
  180.2690  182.5550  136.7290 C   0  0  2  0  0  3  0  0  0  0  0  0
  180.3600  182.0970  135.2590 C   0  0  0  0  0  2  0  0  0  0  0  0
  179.0740  180.2420  138.7630 O   0  0  0  0  0  0  0  0  0  0  0  0
  181.9560  184.1290  137.6910 C   0  0  0  0  0  1  0  0  0  0  0  0
  180.6880  184.0170  136.8690 C   0  0  0  0  0  3  0  0  0  0  0  0
  180.8870  184.6880  135.5200 C   0  0  0  0  0  1  0  0  0  0  0  0
  1 32  1  1  0  0  0
  2  4  1  0  0  0  0
  3  4  2  0  0  0  0
  4  1  1  0  0  0  0
  5  6  2  0  0  0  0
  5  2  1  0  0  0  0
  6  3  1  0  0  0  0
  7  6  1  0  0  0  0
  7  8  1  0  0  0  0
  9 12  1  0  0  0  0
  9  8  1  0  0  0  0
 11 13  2  0  0  0  0
 11 14  1  0  0  0  0
 12 11  1  0  0  0  0
 13 10  1  0  0  0  0
 16 15  1  0  0  0  0
 16 14  1  1  0  0  0
 17 15  1  0  0  0  0
 18 16  1  0  0  0  0
 19 18  1  0  0  0  0
 19 17  1  0  0  0  0
 21 22  1  0  0  0  0
 21 20  1  0  0  0  0
 22  1  1  6  0  0  0
 22 24  1  0  0  0  0
 23 20  1  6  0  0  0
 23 29  1  0  0  0  0
 24 23  1  0  0  0  0
 26 31  1  0  0  0  0
 28 30  1  0  0  0  0
 29 28  1  1  0  0  0
 29 26  1  0  0  0  0
 30 25  1  1  0  0  0
 30 27  1  0  0  0  0
 31 27  1  0  0  0  0
 32 33  1  0  0  0  0
 34 41  1  6  0  0  0
 34 37  1  0  0  0  0
 35 33  1  1  0  0  0
 35 38  1  0  0  0  0
 36 35  1  0  0  0  0
 37 38  1  0  0  0  0
 38 39  2  0  0  0  0
 40 36  1  0  0  0  0
 40 34  1  0  0  0  0
 42 41  1  0  0  0  0
 43 42  1  0  0  0  0
 43 49  2  1  0  0  0
 44 43  1  0  0  0  0
 45 48  1  0  0  0  0
 45 46  1  0  0  0  0
 46 43  1  0  0  0  0
 47 51  1  6  0  0  0
 47 44  1  0  0  0  0
 48 47  1  0  0  0  0
 51 50  1  0  0  0  0
 52 51  1  0  0  0  0
M  END
>  <MODEL>
2

>  <REMARK>
 VINA RESULT:      -7.4      4.096     11.075
  Name = 
  16 active torsions:
  status: ('A' for Active; 'I' for Inactive)
    1  A    between atoms: O_1  and  O_26
    2  A    between atoms: O_1  and  C_41
    3  A    between atoms: C_3  and  N_8
    4  A    between atoms: C_3  and  C_49
    5  A    between atoms: C_4  and  O_37
    6  A    between atoms: C_6  and  C_22
    7  A    between atoms: C_6  and  C_28
    8  A    between atoms: N_8  and  N_14
    9  A    between atoms: P_13  and  O_21
   10  A    between atoms: N_14  and  N_36
   11  A    between atoms: C_16  and  O_26
   12  A    between atoms: C_18  and  C_41
   13  A    between atoms: O_21  and  O_37
   14  A    between atoms: C_24  and  C_41
   15  A    between atoms: C_25  and  C_40
   16  A    between atoms: C_29  and  C_45
                            x       y       z     vdW  Elec       q    Type
                         _______ _______ _______ _____ _____    ______ ____

>  <TORSDO>
F 16

$$$$
=
 OpenBabel11032421183D

 52 57  0  0  1  0  0  0  0  0999 V2000
  189.8150  176.7010  137.6770 C   0  0  2  0  0  3  0  0  0  0  0  0
  191.0190  175.9290  135.2520 S   0  0  0  0  0  0  0  0  0  0  0  0
  192.3410  176.3150  137.3340 C   0  0  0  0  0  3  0  0  0  0  0  0
  191.0330  176.3440  136.8760 C   0  0  0  0  0  0  0  0  0  0  0  0
  192.6780  175.6990  135.0770 C   0  0  0  0  0  3  0  0  0  0  0  0
  193.2450  175.9600  136.3240 C   0  0  0  0  0  0  0  0  0  0  0  0
  194.7050  175.8340  136.5740 C   0  0  0  0  0  2  0  0  0  0  0  0
  195.4450  176.4690  135.4960 N   0  0  0  0  0  2  0  0  0  0  0  0
  196.8010  176.4090  135.8430 N   0  0  0  0  0  2  0  0  0  0  0  0
  199.1000  174.9170  139.0320 N   0  0  0  0  0  1  0  0  0  0  0  0
  197.9230  174.5520  137.0150 C   0  0  0  0  0  0  0  0  0  0  0  0
  197.1390  175.0520  135.9310 N   0  0  0  0  0  2  0  0  0  0  0  0
  198.3190  175.3560  137.9550 N   0  0  0  0  0  0  0  0  0  0  0  0
  198.3030  173.1040  137.0200 C   0  0  0  0  0  2  0  0  0  0  0  0
  196.2030  171.9280  136.4490 C   0  0  0  0  0  2  0  0  0  0  0  0
  197.1630  172.2540  137.5590 C   0  0  2  0  0  3  0  0  0  0  0  0
  194.8820  172.1420  137.1110 C   0  0  0  0  0  2  0  0  0  0  0  0
  196.4480  172.9610  138.5360 O   0  0  0  0  0  0  0  0  0  0  0  0
  195.1800  172.4600  138.5000 N   0  0  0  0  0  2  0  0  0  0  0  0
  188.9880  177.9420  141.2510 C   0  0  0  0  0  2  0  0  0  0  0  0
  188.8750  178.5320  139.5410 S   0  0  0  0  0  0  0  0  0  0  0  0
  190.1550  177.3360  139.0340 C   0  0  1  0  0  3  0  0  0  0  0  0
  190.1830  177.0110  141.3250 C   0  0  2  0  0  3  0  0  0  0  0  0
  190.2650  176.3070  140.0570 N   0  0  0  0  0  2  0  0  0  0  0  0
  187.6930  177.7410  144.8420 O   0  0  0  0  0  1  0  0  0  0  0  0
  191.2730  176.0530  143.4150 C   0  0  0  0  0  2  0  0  0  0  0  0
  190.0620  177.5430  145.0230 C   0  0  0  0  0  2  0  0  0  0  0  0
  188.7690  176.2670  143.3020 C   0  0  0  0  0  2  0  0  0  0  0  0
  190.0470  176.0220  142.4900 C   0  0  1  0  0  3  0  0  0  0  0  0
  188.8560  177.5740  144.0920 C   0  0  1  0  0  3  0  0  0  0  0  0
  191.3410  177.3560  144.2140 C   0  0  0  0  0  2  0  0  0  0  0  0
  188.9170  175.6180  137.7810 O   0  0  0  0  0  0  0  0  0  0  0  0
  188.0240  175.7580  136.8160 O   0  0  0  0  0  0  0  0  0  0  0  0
  184.0200  176.8960  136.9800 C   0  0  2  0  0  3  0  0  0  0  0  0
  186.8450  176.1280  137.4690 C   0  0  1  0  0  3  0  0  0  0  0  0
  186.4320  177.5260  137.0020 C   0  0  0  0  0  2  0  0  0  0  0  0
  184.3270  175.4930  137.4950 C   0  0  0  0  0  2  0  0  0  0  0  0
  185.7480  175.1270  137.1920 C   0  0  0  0  0  0  0  0  0  0  0  0
  186.0140  173.9910  136.8270 O   0  0  0  0  0  0  0  0  0  0  0  0
  185.0420  177.8940  137.5200 C   0  0  0  0  0  2  0  0  0  0  0  0
  182.7350  177.2690  137.3820 O   0  0  0  0  0  0  0  0  0  0  0  0
  182.9200  178.1650  138.3320 O   0  0  0  0  0  0  0  0  0  0  0  0
  181.6950  177.8720  139.4720 P   0  0  1  0  0  0  0  0  0  0  0  0
  182.0950  178.6320  141.0040 N   0  0  0  0  0  2  0  0  0  0  0  0
  180.0750  180.0270  139.4880 C   0  0  0  0  0  2  0  0  0  0  0  0
  180.1420  178.6200  138.9100 C   0  0  0  0  0  2  0  0  0  0  0  0
  180.8330  178.8990  141.6920 C   0  0  2  0  0  3  0  0  0  0  0  0
  180.0290  180.0340  141.0250 C   0  0  0  0  0  2  0  0  0  0  0  0
  181.5080  176.3840  139.6590 O   0  0  0  0  0  0  0  0  0  0  0  0
  180.1360  178.3280  144.0240 C   0  0  0  0  0  1  0  0  0  0  0  0
  181.0510  179.1880  143.1760 C   0  0  0  0  0  3  0  0  0  0  0  0
  182.4960  178.9730  143.5960 C   0  0  0  0  0  1  0  0  0  0  0  0
  1 32  1  1  0  0  0
  2  4  1  0  0  0  0
  4  3  2  0  0  0  0
  4  1  1  0  0  0  0
  5  2  1  0  0  0  0
  5  6  2  0  0  0  0
  6  7  1  0  0  0  0
  6  3  1  0  0  0  0
  8  9  1  0  0  0  0
  8  7  1  0  0  0  0
  9 12  1  0  0  0  0
 11 14  1  0  0  0  0
 11 13  2  0  0  0  0
 12 11  1  0  0  0  0
 13 10  1  0  0  0  0
 15 17  1  0  0  0  0
 15 16  1  0  0  0  0
 16 14  1  6  0  0  0
 16 18  1  0  0  0  0
 17 19  1  0  0  0  0
 19 18  1  0  0  0  0
 21 20  1  0  0  0  0
 22  1  1  6  0  0  0
 22 21  1  0  0  0  0
 22 24  1  0  0  0  0
 23 20  1  6  0  0  0
 23 29  1  0  0  0  0
 24 23  1  0  0  0  0
 26 31  1  0  0  0  0
 28 30  1  0  0  0  0
 29 28  1  1  0  0  0
 29 26  1  0  0  0  0
 30 25  1  1  0  0  0
 30 27  1  0  0  0  0
 31 27  1  0  0  0  0
 33 32  1  0  0  0  0
 34 41  1  1  0  0  0
 34 37  1  0  0  0  0
 34 40  1  0  0  0  0
 35 33  1  6  0  0  0
 36 35  1  0  0  0  0
 36 40  1  0  0  0  0
 38 35  1  0  0  0  0
 38 37  1  0  0  0  0
 39 38  2  0  0  0  0
 41 42  1  0  0  0  0
 42 43  1  0  0  0  0
 43 49  2  1  0  0  0
 43 44  1  0  0  0  0
 44 47  1  0  0  0  0
 45 48  1  0  0  0  0
 46 43  1  0  0  0  0
 46 45  1  0  0  0  0
 47 51  1  1  0  0  0
 48 47  1  0  0  0  0
 51 52  1  0  0  0  0
 51 50  1  0  0  0  0
M  END
>  <MODEL>
3

>  <REMARK>
 VINA RESULT:      -7.2      3.766     11.022
  Name = 
  16 active torsions:
  status: ('A' for Active; 'I' for Inactive)
    1  A    between atoms: O_1  and  O_26
    2  A    between atoms: O_1  and  C_41
    3  A    between atoms: C_3  and  N_8
    4  A    between atoms: C_3  and  C_49
    5  A    between atoms: C_4  and  O_37
    6  A    between atoms: C_6  and  C_22
    7  A    between atoms: C_6  and  C_28
    8  A    between atoms: N_8  and  N_14
    9  A    between atoms: P_13  and  O_21
   10  A    between atoms: N_14  and  N_36
   11  A    between atoms: C_16  and  O_26
   12  A    between atoms: C_18  and  C_41
   13  A    between atoms: O_21  and  O_37
   14  A    between atoms: C_24  and  C_41
   15  A    between atoms: C_25  and  C_40
   16  A    between atoms: C_29  and  C_45
                            x       y       z     vdW  Elec       q    Type
                         _______ _______ _______ _____ _____    ______ ____

>  <TORSDO>
F 16

$$$$
=
 OpenBabel11032421183D

 52 57  0  0  1  0  0  0  0  0999 V2000
  190.8430  176.0210  136.5770 C   0  0  2  0  0  3  0  0  0  0  0  0
  189.3140  174.3690  134.8840 S   0  0  0  0  0  0  0  0  0  0  0  0
  188.2710  175.8420  136.6090 C   0  0  0  0  0  3  0  0  0  0  0  0
  189.5170  175.4980  136.1080 C   0  0  0  0  0  0  0  0  0  0  0  0
  187.6340  174.2820  134.9520 C   0  0  0  0  0  3  0  0  0  0  0  0
  187.2350  175.1570  135.9610 C   0  0  0  0  0  0  0  0  0  0  0  0
  185.8040  175.3760  136.3030 C   0  0  0  0  0  2  0  0  0  0  0  0
  185.2640  174.1870  136.9420 N   0  0  0  0  0  2  0  0  0  0  0  0
  183.8860  174.3940  137.0880 N   0  0  0  0  0  2  0  0  0  0  0  0
  180.2840  175.2610  139.0750 N   0  0  0  0  0  1  0  0  0  0  0  0
  182.5000  175.8570  138.5090 C   0  0  0  0  0  0  0  0  0  0  0  0
  183.7270  175.5660  137.8380 N   0  0  0  0  0  2  0  0  0  0  0  0
  181.5120  175.0160  138.4470 N   0  0  0  0  0  0  0  0  0  0  0  0
  182.3710  177.1540  139.2450 C   0  0  0  0  0  2  0  0  0  0  0  0
  183.8960  177.8100  141.0790 C   0  0  0  0  0  2  0  0  0  0  0  0
  183.7440  177.7130  139.5870 C   0  0  2  0  0  3  0  0  0  0  0  0
  184.5370  179.1500  141.2370 C   0  0  0  0  0  2  0  0  0  0  0  0
  183.8860  179.0080  139.0670 O   0  0  0  0  0  0  0  0  0  0  0  0
  184.7740  179.6390  139.8870 N   0  0  0  0  0  2  0  0  0  0  0  0
  194.4530  175.5710  135.2490 C   0  0  0  0  0  2  0  0  0  0  0  0
  192.8130  176.0200  134.6210 S   0  0  0  0  0  0  0  0  0  0  0  0
  192.0300  175.2010  136.0500 C   0  0  1  0  0  3  0  0  0  0  0  0
  194.2420  174.6200  136.4110 C   0  0  2  0  0  3  0  0  0  0  0  0
  193.0290  175.0330  137.0960 N   0  0  0  0  0  2  0  0  0  0  0  0
  198.0410  172.6340  135.5630 O   0  0  0  0  0  1  0  0  0  0  0  0
  195.2510  173.6610  138.5410 C   0  0  0  0  0  2  0  0  0  0  0  0
  196.6660  171.9470  137.3860 C   0  0  0  0  0  2  0  0  0  0  0  0
  196.7570  174.3350  136.6410 C   0  0  0  0  0  2  0  0  0  0  0  0
  195.4400  174.6360  137.3680 C   0  0  1  0  0  3  0  0  0  0  0  0
  196.8180  172.8750  136.1870 C   0  0  1  0  0  3  0  0  0  0  0  0
  195.3320  172.2050  138.0790 C   0  0  0  0  0  2  0  0  0  0  0  0
  190.8720  176.2030  137.9750 O   0  0  0  0  0  0  0  0  0  0  0  0
  190.8630  177.5060  138.1990 O   0  0  0  0  0  0  0  0  0  0  0  0
  190.4180  176.1090  142.0990 C   0  0  2  0  0  3  0  0  0  0  0  0
  190.5570  177.6360  139.5560 C   0  0  1  0  0  3  0  0  0  0  0  0
  189.3990  176.6960  139.9010 C   0  0  0  0  0  2  0  0  0  0  0  0
  191.5900  177.0600  141.8700 C   0  0  0  0  0  2  0  0  0  0  0  0
  191.7670  177.3230  140.4050 C   0  0  0  0  0  0  0  0  0  0  0  0
  192.8950  177.3880  139.9360 O   0  0  0  0  0  0  0  0  0  0  0  0
  189.1630  176.6380  141.4100 C   0  0  0  0  0  2  0  0  0  0  0  0
  190.1870  175.9760  143.4700 O   0  0  0  0  0  0  0  0  0  0  0  0
  191.0720  176.7660  144.0440 O   0  0  0  0  0  0  0  0  0  0  0  0
  190.1680  177.8210  145.0220 P   0  0  1  0  0  0  0  0  0  0  0  0
  188.4600  177.4230  144.9280 N   0  0  0  0  0  2  0  0  0  0  0  0
  189.7360  176.5720  147.3730 C   0  0  0  0  0  2  0  0  0  0  0  0
  190.6540  177.6180  146.7570 C   0  0  0  0  0  2  0  0  0  0  0  0
  187.8450  177.8750  146.1750 C   0  0  2  0  0  3  0  0  0  0  0  0
  188.2620  177.0100  147.3820 C   0  0  0  0  0  2  0  0  0  0  0  0
  190.3970  179.2500  144.5890 O   0  0  0  0  0  0  0  0  0  0  0  0
  185.7710  179.0100  146.9880 C   0  0  0  0  0  1  0  0  0  0  0  0
  186.3230  177.9470  146.0580 C   0  0  0  0  0  3  0  0  0  0  0  0
  185.8700  178.2210  144.6340 C   0  0  0  0  0  1  0  0  0  0  0  0
  1 32  1  1  0  0  0
  2  5  1  0  0  0  0
  2  4  1  0  0  0  0
  4  1  1  0  0  0  0
  4  3  2  0  0  0  0
  5  6  2  0  0  0  0
  6  7  1  0  0  0  0
  6  3  1  0  0  0  0
  7  8  1  0  0  0  0
  8  9  1  0  0  0  0
  9 12  1  0  0  0  0
 11 14  1  0  0  0  0
 12 11  1  0  0  0  0
 13 11  2  0  0  0  0
 13 10  1  0  0  0  0
 15 17  1  0  0  0  0
 16 14  1  1  0  0  0
 16 15  1  0  0  0  0
 18 16  1  0  0  0  0
 18 19  1  0  0  0  0
 19 17  1  0  0  0  0
 21 20  1  0  0  0  0
 21 22  1  0  0  0  0
 22  1  1  1  0  0  0
 22 24  1  0  0  0  0
 23 20  1  6  0  0  0
 23 24  1  0  0  0  0
 23 29  1  0  0  0  0
 27 31  1  0  0  0  0
 29 28  1  6  0  0  0
 29 26  1  0  0  0  0
 30 25  1  1  0  0  0
 30 28  1  0  0  0  0
 30 27  1  0  0  0  0
 31 26  1  0  0  0  0
 32 33  1  0  0  0  0
 34 41  1  1  0  0  0
 35 33  1  6  0  0  0
 35 36  1  0  0  0  0
 35 38  1  0  0  0  0
 36 40  1  0  0  0  0
 37 34  1  0  0  0  0
 38 37  1  0  0  0  0
 39 38  2  0  0  0  0
 40 34  1  0  0  0  0
 41 42  1  0  0  0  0
 42 43  1  0  0  0  0
 43 49  2  6  0  0  0
 43 46  1  0  0  0  0
 44 43  1  0  0  0  0
 44 47  1  0  0  0  0
 45 48  1  0  0  0  0
 46 45  1  0  0  0  0
 47 51  1  6  0  0  0
 47 48  1  0  0  0  0
 51 50  1  0  0  0  0
 52 51  1  0  0  0  0
M  END
>  <MODEL>
4

>  <REMARK>
 VINA RESULT:      -7.1      3.323      9.602
  Name = 
  16 active torsions:
  status: ('A' for Active; 'I' for Inactive)
    1  A    between atoms: O_1  and  O_26
    2  A    between atoms: O_1  and  C_41
    3  A    between atoms: C_3  and  N_8
    4  A    between atoms: C_3  and  C_49
    5  A    between atoms: C_4  and  O_37
    6  A    between atoms: C_6  and  C_22
    7  A    between atoms: C_6  and  C_28
    8  A    between atoms: N_8  and  N_14
    9  A    between atoms: P_13  and  O_21
   10  A    between atoms: N_14  and  N_36
   11  A    between atoms: C_16  and  O_26
   12  A    between atoms: C_18  and  C_41
   13  A    between atoms: O_21  and  O_37
   14  A    between atoms: C_24  and  C_41
   15  A    between atoms: C_25  and  C_40
   16  A    between atoms: C_29  and  C_45
                            x       y       z     vdW  Elec       q    Type
                         _______ _______ _______ _____ _____    ______ ____

>  <TORSDO>
F 16

$$$$
=
 OpenBabel11032421183D

 52 57  0  0  1  0  0  0  0  0999 V2000
  184.8880  178.8950  139.2510 C   0  0  2  0  0  3  0  0  0  0  0  0
  183.0550  178.9540  141.3880 S   0  0  0  0  0  0  0  0  0  0  0  0
  185.4970  178.5720  141.7360 C   0  0  0  0  0  3  0  0  0  0  0  0
  184.5850  178.8050  140.7180 C   0  0  0  0  0  0  0  0  0  0  0  0
  183.5030  178.7270  142.9950 C   0  0  0  0  0  3  0  0  0  0  0  0
  184.8830  178.5270  142.9940 C   0  0  0  0  0  0  0  0  0  0  0  0
  185.6560  178.3170  144.2470 C   0  0  0  0  0  2  0  0  0  0  0  0
  184.8680  178.7520  145.3890 N   0  0  0  0  0  2  0  0  0  0  0  0
  185.3880  178.0980  146.5140 N   0  0  0  0  0  2  0  0  0  0  0  0
  188.8940  178.4480  148.8080 N   0  0  0  0  0  1  0  0  0  0  0  0
  187.7760  177.6190  146.8970 C   0  0  0  0  0  0  0  0  0  0  0  0
  186.5880  177.4940  146.1160 N   0  0  0  0  0  2  0  0  0  0  0  0
  187.7520  178.2850  148.0130 N   0  0  0  0  0  0  0  0  0  0  0  0
  189.0420  177.0020  146.3880 C   0  0  0  0  0  2  0  0  0  0  0  0
  189.1940  176.9810  143.9190 C   0  0  0  0  0  2  0  0  0  0  0  0
  189.5450  177.7490  145.1630 C   0  0  2  0  0  3  0  0  0  0  0  0
  190.4560  177.0840  143.1270 C   0  0  0  0  0  2  0  0  0  0  0  0
  190.9420  177.8650  145.2020 O   0  0  0  0  0  0  0  0  0  0  0  0
  191.3430  177.9400  143.9010 N   0  0  0  0  0  2  0  0  0  0  0  0
  181.4370  177.2520  138.6340 C   0  0  0  0  0  2  0  0  0  0  0  0
  183.1360  176.7540  139.0230 S   0  0  0  0  0  0  0  0  0  0  0  0
  183.7590  178.3390  138.3700 C   0  0  1  0  0  3  0  0  0  0  0  0
  181.5200  178.5260  137.8170 C   0  0  2  0  0  3  0  0  0  0  0  0
  182.6560  179.2860  138.3100 N   0  0  0  0  0  2  0  0  0  0  0  0
  179.9570  181.0290  134.5940 O   0  0  0  0  0  1  0  0  0  0  0  0
  180.4270  180.6240  138.7550 C   0  0  0  0  0  2  0  0  0  0  0  0
  180.6700  181.9780  136.6620 C   0  0  0  0  0  2  0  0  0  0  0  0
  179.6510  179.6950  136.5500 C   0  0  0  0  0  2  0  0  0  0  0  0
  180.2270  179.3450  137.9290 C   0  0  1  0  0  3  0  0  0  0  0  0
  180.5320  180.7130  135.8240 C   0  0  1  0  0  3  0  0  0  0  0  0
  181.2940  181.6440  138.0120 C   0  0  0  0  0  2  0  0  0  0  0  0
  186.1530  178.3530  138.9410 O   0  0  0  0  0  0  0  0  0  0  0  0
  186.5510  178.9110  137.8110 O   0  0  0  0  0  0  0  0  0  0  0  0
  189.7190  176.3070  138.5430 C   0  0  2  0  0  3  0  0  0  0  0  0
  187.8000  178.3410  137.5490 C   0  0  1  0  0  3  0  0  0  0  0  0
  188.7220  178.5820  138.7470 C   0  0  0  0  0  2  0  0  0  0  0  0
  188.8790  175.9910  137.3090 C   0  0  0  0  0  2  0  0  0  0  0  0
  187.6610  176.8630  137.2720 C   0  0  0  0  0  0  0  0  0  0  0  0
  186.5910  176.3900  136.9140 O   0  0  0  0  0  0  0  0  0  0  0  0
  190.0270  177.8000  138.6070 C   0  0  0  0  0  2  0  0  0  0  0  0
  190.9100  175.5780  138.4960 O   0  0  0  0  0  0  0  0  0  0  0  0
  191.8170  176.4340  138.0680 O   0  0  0  0  0  0  0  0  0  0  0  0
  192.5510  175.6830  136.7330 P   0  0  1  0  0  0  0  0  0  0  0  0
  194.0750  176.4700  136.3540 N   0  0  0  0  0  2  0  0  0  0  0  0
  194.3620  173.9270  137.6880 C   0  0  0  0  0  2  0  0  0  0  0  0
  192.9430  173.9590  137.1370 C   0  0  0  0  0  2  0  0  0  0  0  0
  194.9160  175.4770  135.6880 C   0  0  2  0  0  3  0  0  0  0  0  0
  195.4080  174.3810  136.6560 C   0  0  0  0  0  2  0  0  0  0  0  0
  191.6250  175.7320  135.5400 O   0  0  0  0  0  0  0  0  0  0  0  0
  195.9330  177.6370  134.9480 C   0  0  0  0  0  1  0  0  0  0  0  0
  196.0930  176.1300  134.9650 C   0  0  0  0  0  3  0  0  0  0  0  0
  197.4270  175.7600  135.5910 C   0  0  0  0  0  1  0  0  0  0  0  0
  1 32  1  1  0  0  0
  1  4  1  0  0  0  0
  2  5  1  0  0  0  0
  3  6  1  0  0  0  0
  4  2  1  0  0  0  0
  4  3  2  0  0  0  0
  6  5  2  0  0  0  0
  6  7  1  0  0  0  0
  7  8  1  0  0  0  0
  8  9  1  0  0  0  0
 11 13  2  0  0  0  0
 12  9  1  0  0  0  0
 12 11  1  0  0  0  0
 13 10  1  0  0  0  0
 14 11  1  0  0  0  0
 15 16  1  0  0  0  0
 16 18  1  0  0  0  0
 16 14  1  1  0  0  0
 17 19  1  0  0  0  0
 17 15  1  0  0  0  0
 19 18  1  0  0  0  0
 20 21  1  0  0  0  0
 22 21  1  0  0  0  0
 22  1  1  1  0  0  0
 23 29  1  0  0  0  0
 23 24  1  0  0  0  0
 23 20  1  1  0  0  0
 24 22  1  0  0  0  0
 27 31  1  0  0  0  0
 29 28  1  6  0  0  0
 29 26  1  0  0  0  0
 30 25  1  6  0  0  0
 30 28  1  0  0  0  0
 30 27  1  0  0  0  0
 31 26  1  0  0  0  0
 33 32  1  0  0  0  0
 34 41  1  6  0  0  0
 34 40  1  0  0  0  0
 35 33  1  1  0  0  0
 35 36  1  0  0  0  0
 37 34  1  0  0  0  0
 38 37  1  0  0  0  0
 38 35  1  0  0  0  0
 39 38  2  0  0  0  0
 40 36  1  0  0  0  0
 42 41  1  0  0  0  0
 43 49  2  6  0  0  0
 43 46  1  0  0  0  0
 43 42  1  0  0  0  0
 44 43  1  0  0  0  0
 46 45  1  0  0  0  0
 47 51  1  1  0  0  0
 47 44  1  0  0  0  0
 47 48  1  0  0  0  0
 48 45  1  0  0  0  0
 50 51  1  0  0  0  0
 51 52  1  0  0  0  0
M  END
>  <MODEL>
5

>  <REMARK>
 VINA RESULT:      -7.0      2.492      3.723
  Name = 
  16 active torsions:
  status: ('A' for Active; 'I' for Inactive)
    1  A    between atoms: O_1  and  O_26
    2  A    between atoms: O_1  and  C_41
    3  A    between atoms: C_3  and  N_8
    4  A    between atoms: C_3  and  C_49
    5  A    between atoms: C_4  and  O_37
    6  A    between atoms: C_6  and  C_22
    7  A    between atoms: C_6  and  C_28
    8  A    between atoms: N_8  and  N_14
    9  A    between atoms: P_13  and  O_21
   10  A    between atoms: N_14  and  N_36
   11  A    between atoms: C_16  and  O_26
   12  A    between atoms: C_18  and  C_41
   13  A    between atoms: O_21  and  O_37
   14  A    between atoms: C_24  and  C_41
   15  A    between atoms: C_25  and  C_40
   16  A    between atoms: C_29  and  C_45
                            x       y       z     vdW  Elec       q    Type
                         _______ _______ _______ _____ _____    ______ ____

>  <TORSDO>
F 16

$$$$
=
 OpenBabel11032421183D

 52 57  0  0  1  0  0  0  0  0999 V2000
  188.8480  176.4020  136.4220 C   0  0  2  0  0  3  0  0  0  0  0  0
  186.8400  175.6020  134.6150 S   0  0  0  0  0  0  0  0  0  0  0  0
  186.5180  175.5200  137.0900 C   0  0  0  0  0  3  0  0  0  0  0  0
  187.4700  175.8750  136.1460 C   0  0  0  0  0  0  0  0  0  0  0  0
  185.3370  175.0230  135.1040 C   0  0  0  0  0  3  0  0  0  0  0  0
  185.3410  175.0450  136.4980 C   0  0  0  0  0  0  0  0  0  0  0  0
  184.1620  174.6270  137.3020 C   0  0  0  0  0  2  0  0  0  0  0  0
  182.9380  174.9820  136.6020 N   0  0  0  0  0  2  0  0  0  0  0  0
  182.0760  175.5460  137.5510 N   0  0  0  0  0  2  0  0  0  0  0  0
  180.0030  178.3600  139.8880 N   0  0  0  0  0  1  0  0  0  0  0  0
  181.9950  177.6510  138.8330 C   0  0  0  0  0  0  0  0  0  0  0  0
  182.7050  176.6960  138.0430 N   0  0  0  0  0  2  0  0  0  0  0  0
  180.7470  177.4480  139.1270 N   0  0  0  0  0  0  0  0  0  0  0  0
  182.7080  178.8910  139.2770 C   0  0  0  0  0  2  0  0  0  0  0  0
  183.8190  178.0870  141.3350 C   0  0  0  0  0  2  0  0  0  0  0  0
  184.0410  178.5410  139.9200 C   0  0  2  0  0  3  0  0  0  0  0  0
  184.9170  178.7930  142.0600 C   0  0  0  0  0  2  0  0  0  0  0  0
  184.8700  179.6700  139.9670 O   0  0  0  0  0  0  0  0  0  0  0  0
  185.6930  179.4780  141.0370 N   0  0  0  0  0  2  0  0  0  0  0  0
  190.7580  173.0750  135.8940 C   0  0  0  0  0  2  0  0  0  0  0  0
  189.1480  173.6430  136.5040 S   0  0  0  0  0  0  0  0  0  0  0  0
  189.8420  175.3000  136.8180 C   0  0  1  0  0  3  0  0  0  0  0  0
  191.7630  174.1670  136.1990 C   0  0  2  0  0  3  0  0  0  0  0  0
  191.0770  175.4410  136.0610 N   0  0  0  0  0  2  0  0  0  0  0  0
  195.2750  171.6790  136.9510 O   0  0  0  0  0  1  0  0  0  0  0  0
  193.8780  175.3260  135.3860 C   0  0  0  0  0  2  0  0  0  0  0  0
  195.4370  174.0570  136.8810 C   0  0  0  0  0  2  0  0  0  0  0  0
  193.7860  172.8130  135.4690 C   0  0  0  0  0  2  0  0  0  0  0  0
  192.9700  174.0940  135.2540 C   0  0  1  0  0  3  0  0  0  0  0  0
  194.5200  172.8420  136.8110 C   0  0  1  0  0  3  0  0  0  0  0  0
  194.6210  175.3350  136.7240 C   0  0  0  0  0  2  0  0  0  0  0  0
  188.8260  177.4830  137.3280 O   0  0  0  0  0  0  0  0  0  0  0  0
  190.0800  177.7410  137.6580 O   0  0  0  0  0  0  0  0  0  0  0  0
  189.8080  176.3670  141.5820 C   0  0  2  0  0  3  0  0  0  0  0  0
  190.0620  177.8910  139.0470 C   0  0  1  0  0  3  0  0  0  0  0  0
  188.7190  177.3930  139.5870 C   0  0  0  0  0  2  0  0  0  0  0  0
  191.1850  176.8660  141.1520 C   0  0  0  0  0  2  0  0  0  0  0  0
  191.2050  177.1320  139.6780 C   0  0  0  0  0  0  0  0  0  0  0  0
  192.1930  176.8300  139.0240 O   0  0  0  0  0  0  0  0  0  0  0  0
  188.7240  177.3350  141.1150 C   0  0  0  0  0  2  0  0  0  0  0  0
  189.7690  176.2450  142.9730 O   0  0  0  0  0  0  0  0  0  0  0  0
  190.8410  176.8820  143.4020 O   0  0  0  0  0  0  0  0  0  0  0  0
  190.3050  177.8460  144.6940 P   0  0  1  0  0  0  0  0  0  0  0  0
  188.6280  177.4840  145.0680 N   0  0  0  0  0  2  0  0  0  0  0  0
  190.5200  176.3730  146.9430 C   0  0  0  0  0  2  0  0  0  0  0  0
  191.2650  177.4630  146.1840 C   0  0  0  0  0  2  0  0  0  0  0  0
  188.4210  177.8170  146.4770 C   0  0  2  0  0  3  0  0  0  0  0  0
  189.1320  176.8290  147.4240 C   0  0  0  0  0  2  0  0  0  0  0  0
  190.4600  179.3080  144.3470 O   0  0  0  0  0  0  0  0  0  0  0  0
  186.6780  179.1330  147.6940 C   0  0  0  0  0  1  0  0  0  0  0  0
  186.9360  177.9230  146.8180 C   0  0  0  0  0  3  0  0  0  0  0  0
  186.0650  177.9920  145.5750 C   0  0  0  0  0  1  0  0  0  0  0  0
  1 32  1  1  0  0  0
  2  5  1  0  0  0  0
  2  4  1  0  0  0  0
  4  1  1  0  0  0  0
  4  3  2  0  0  0  0
  5  6  2  0  0  0  0
  6  3  1  0  0  0  0
  6  7  1  0  0  0  0
  8  7  1  0  0  0  0
  8  9  1  0  0  0  0
  9 12  1  0  0  0  0
 11 13  2  0  0  0  0
 11 14  1  0  0  0  0
 12 11  1  0  0  0  0
 13 10  1  0  0  0  0
 15 17  1  0  0  0  0
 16 14  1  1  0  0  0
 16 18  1  0  0  0  0
 16 15  1  0  0  0  0
 18 19  1  0  0  0  0
 19 17  1  0  0  0  0
 20 21  1  0  0  0  0
 21 22  1  0  0  0  0
 22  1  1  6  0  0  0
 23 20  1  6  0  0  0
 24 23  1  0  0  0  0
 24 22  1  0  0  0  0
 26 31  1  0  0  0  0
 28 30  1  0  0  0  0
 29 26  1  1  0  0  0
 29 28  1  0  0  0  0
 29 23  1  0  0  0  0
 30 27  1  0  0  0  0
 30 25  1  6  0  0  0
 31 27  1  0  0  0  0
 32 33  1  0  0  0  0
 34 41  1  1  0  0  0
 35 33  1  6  0  0  0
 35 36  1  0  0  0  0
 35 38  1  0  0  0  0
 36 40  1  0  0  0  0
 37 34  1  0  0  0  0
 38 37  1  0  0  0  0
 39 38  2  0  0  0  0
 40 34  1  0  0  0  0
 41 42  1  0  0  0  0
 42 43  1  0  0  0  0
 43 49  2  6  0  0  0
 43 44  1  0  0  0  0
 43 46  1  0  0  0  0
 44 47  1  0  0  0  0
 45 48  1  0  0  0  0
 46 45  1  0  0  0  0
 47 51  1  1  0  0  0
 47 48  1  0  0  0  0
 51 50  1  0  0  0  0
 52 51  1  0  0  0  0
M  END
>  <MODEL>
6

>  <REMARK>
 VINA RESULT:      -7.0      3.016      8.671
  Name = 
  16 active torsions:
  status: ('A' for Active; 'I' for Inactive)
    1  A    between atoms: O_1  and  O_26
    2  A    between atoms: O_1  and  C_41
    3  A    between atoms: C_3  and  N_8
    4  A    between atoms: C_3  and  C_49
    5  A    between atoms: C_4  and  O_37
    6  A    between atoms: C_6  and  C_22
    7  A    between atoms: C_6  and  C_28
    8  A    between atoms: N_8  and  N_14
    9  A    between atoms: P_13  and  O_21
   10  A    between atoms: N_14  and  N_36
   11  A    between atoms: C_16  and  O_26
   12  A    between atoms: C_18  and  C_41
   13  A    between atoms: O_21  and  O_37
   14  A    between atoms: C_24  and  C_41
   15  A    between atoms: C_25  and  C_40
   16  A    between atoms: C_29  and  C_45
                            x       y       z     vdW  Elec       q    Type
                         _______ _______ _______ _____ _____    ______ ____

>  <TORSDO>
F 16

$$$$
=
 OpenBabel11032421183D

 52 57  0  0  1  0  0  0  0  0999 V2000
  188.6430  175.3620  136.8660 C   0  0  2  0  0  3  0  0  0  0  0  0
  189.0470  178.1220  137.2510 S   0  0  0  0  0  0  0  0  0  0  0  0
  188.7020  176.5460  139.1560 C   0  0  0  0  0  3  0  0  0  0  0  0
  188.7820  176.5500  137.7720 C   0  0  0  0  0  0  0  0  0  0  0  0
  189.0670  178.8490  138.7700 C   0  0  0  0  0  3  0  0  0  0  0  0
  188.8570  177.8290  139.6970 C   0  0  0  0  0  0  0  0  0  0  0  0
  188.8360  178.0800  141.1620 C   0  0  0  0  0  2  0  0  0  0  0  0
  187.5030  178.4960  141.5700 N   0  0  0  0  0  2  0  0  0  0  0  0
  187.0560  177.5600  142.5120 N   0  0  0  0  0  2  0  0  0  0  0  0
  185.6160  178.2690  146.3980 N   0  0  0  0  0  1  0  0  0  0  0  0
  187.4270  177.8870  144.9280 C   0  0  0  0  0  0  0  0  0  0  0  0
  187.9210  177.6430  143.6110 N   0  0  0  0  0  2  0  0  0  0  0  0
  186.1500  178.0150  145.1280 N   0  0  0  0  0  0  0  0  0  0  0  0
  188.4070  178.0250  146.0520 C   0  0  0  0  0  2  0  0  0  0  0  0
  189.9940  176.6080  147.3130 C   0  0  0  0  0  2  0  0  0  0  0  0
  189.4980  176.9710  145.9420 C   0  0  2  0  0  3  0  0  0  0  0  0
  191.4720  176.5630  147.1040 C   0  0  0  0  0  2  0  0  0  0  0  0
  190.5910  177.4740  145.2210 O   0  0  0  0  0  0  0  0  0  0  0  0
  191.6800  176.7970  145.6820 N   0  0  0  0  0  2  0  0  0  0  0  0
  191.9320  175.4520  134.8240 C   0  0  0  0  0  2  0  0  0  0  0  0
  190.1940  174.9900  134.5940 S   0  0  0  0  0  0  0  0  0  0  0  0
  189.9950  174.8040  136.3980 C   0  0  1  0  0  3  0  0  0  0  0  0
  192.2720  175.2030  136.2800 C   0  0  2  0  0  3  0  0  0  0  0  0
  191.0850  175.5040  137.0620 N   0  0  0  0  0  2  0  0  0  0  0  0
  196.3100  174.8160  134.6560 O   0  0  0  0  0  1  0  0  0  0  0  0
  194.0130  175.6150  138.0900 C   0  0  0  0  0  2  0  0  0  0  0  0
  195.8500  174.3500  136.9490 C   0  0  0  0  0  2  0  0  0  0  0  0
  194.5760  176.0950  135.6850 C   0  0  0  0  0  2  0  0  0  0  0  0
  193.4550  176.0690  136.7320 C   0  0  1  0  0  3  0  0  0  0  0  0
  195.2790  174.7400  135.5910 C   0  0  1  0  0  3  0  0  0  0  0  0
  194.7300  174.2670  137.9800 C   0  0  0  0  0  2  0  0  0  0  0  0
  187.7470  175.6110  135.8060 O   0  0  0  0  0  0  0  0  0  0  0  0
  186.6690  174.8770  136.0240 O   0  0  0  0  0  0  0  0  0  0  0  0
  182.9220  176.5400  136.7670 C   0  0  2  0  0  3  0  0  0  0  0  0
  185.7780  175.7340  136.6760 C   0  0  1  0  0  3  0  0  0  0  0  0
  185.1450  176.6750  135.6470 C   0  0  0  0  0  2  0  0  0  0  0  0
  183.4720  175.6380  137.8690 C   0  0  0  0  0  2  0  0  0  0  0  0
  184.7140  174.9430  137.3990 C   0  0  0  0  0  0  0  0  0  0  0  0
  184.9000  173.7720  137.7000 O   0  0  0  0  0  0  0  0  0  0  0  0
  184.0090  177.4880  136.2660 C   0  0  0  0  0  2  0  0  0  0  0  0
  181.8430  177.2760  137.2630 O   0  0  0  0  0  0  0  0  0  0  0  0
  181.7020  176.8770  138.5120 O   0  0  0  0  0  0  0  0  0  0  0  0
  181.6620  178.3010  139.4370 P   0  0  1  0  0  0  0  0  0  0  0  0
  181.3490  177.9230  141.1230 N   0  0  0  0  0  2  0  0  0  0  0  0
  184.0960  178.6040  140.5590 C   0  0  0  0  0  2  0  0  0  0  0  0
  183.2810  179.1160  139.3790 C   0  0  0  0  0  2  0  0  0  0  0  0
  181.9290  179.0030  141.9200 C   0  0  2  0  0  3  0  0  0  0  0  0
  183.4710  178.9730  141.9150 C   0  0  0  0  0  2  0  0  0  0  0  0
  180.6000  179.2340  138.9040 O   0  0  0  0  0  0  0  0  0  0  0  0
  180.2340  178.0270  143.4770 C   0  0  0  0  0  1  0  0  0  0  0  0
  181.3910  178.9980  143.3500 C   0  0  0  0  0  3  0  0  0  0  0  0
  182.4670  178.6550  144.3660 C   0  0  0  0  0  1  0  0  0  0  0  0
  1 32  1  6  0  0  0
  1  4  1  0  0  0  0
  2  4  1  0  0  0  0
  2  5  1  0  0  0  0
  3  6  1  0  0  0  0
  4  3  2  0  0  0  0
  5  6  2  0  0  0  0
  6  7  1  0  0  0  0
  7  8  1  0  0  0  0
  8  9  1  0  0  0  0
  9 12  1  0  0  0  0
 11 13  2  0  0  0  0
 11 14  1  0  0  0  0
 12 11  1  0  0  0  0
 13 10  1  0  0  0  0
 16 14  1  1  0  0  0
 16 15  1  0  0  0  0
 17 15  1  0  0  0  0
 18 19  1  0  0  0  0
 18 16  1  0  0  0  0
 19 17  1  0  0  0  0
 21 20  1  0  0  0  0
 21 22  1  0  0  0  0
 22  1  1  1  0  0  0
 22 24  1  0  0  0  0
 23 20  1  6  0  0  0
 23 29  1  0  0  0  0
 23 24  1  0  0  0  0
 27 31  1  0  0  0  0
 29 28  1  6  0  0  0
 29 26  1  0  0  0  0
 30 25  1  6  0  0  0
 30 28  1  0  0  0  0
 30 27  1  0  0  0  0
 31 26  1  0  0  0  0
 32 33  1  0  0  0  0
 34 41  1  1  0  0  0
 34 37  1  0  0  0  0
 35 33  1  6  0  0  0
 35 38  1  0  0  0  0
 36 40  1  0  0  0  0
 36 35  1  0  0  0  0
 38 39  2  0  0  0  0
 38 37  1  0  0  0  0
 40 34  1  0  0  0  0
 41 42  1  0  0  0  0
 42 43  1  0  0  0  0
 43 49  2  6  0  0  0
 43 44  1  0  0  0  0
 44 47  1  0  0  0  0
 45 48  1  0  0  0  0
 46 43  1  0  0  0  0
 46 45  1  0  0  0  0
 47 51  1  1  0  0  0
 48 47  1  0  0  0  0
 51 50  1  0  0  0  0
 51 52  1  0  0  0  0
M  END
>  <MODEL>
7

>  <REMARK>
 VINA RESULT:      -6.7      3.202      8.634
  Name = 
  16 active torsions:
  status: ('A' for Active; 'I' for Inactive)
    1  A    between atoms: O_1  and  O_26
    2  A    between atoms: O_1  and  C_41
    3  A    between atoms: C_3  and  N_8
    4  A    between atoms: C_3  and  C_49
    5  A    between atoms: C_4  and  O_37
    6  A    between atoms: C_6  and  C_22
    7  A    between atoms: C_6  and  C_28
    8  A    between atoms: N_8  and  N_14
    9  A    between atoms: P_13  and  O_21
   10  A    between atoms: N_14  and  N_36
   11  A    between atoms: C_16  and  O_26
   12  A    between atoms: C_18  and  C_41
   13  A    between atoms: O_21  and  O_37
   14  A    between atoms: C_24  and  C_41
   15  A    between atoms: C_25  and  C_40
   16  A    between atoms: C_29  and  C_45
                            x       y       z     vdW  Elec       q    Type
                         _______ _______ _______ _____ _____    ______ ____

>  <TORSDO>
F 16

$$$$
=
 OpenBabel11032421183D

 52 57  0  0  1  0  0  0  0  0999 V2000
  188.8930  178.2300  140.2670 C   0  0  2  0  0  3  0  0  0  0  0  0
  190.5550  177.1590  138.2620 S   0  0  0  0  0  0  0  0  0  0  0  0
  188.0790  176.8380  138.2550 C   0  0  0  0  0  3  0  0  0  0  0  0
  189.0770  177.4490  138.9990 C   0  0  0  0  0  0  0  0  0  0  0  0
  189.9740  176.2470  136.9720 C   0  0  0  0  0  3  0  0  0  0  0  0
  188.5910  176.1710  137.1350 C   0  0  0  0  0  0  0  0  0  0  0  0
  187.7150  175.4610  136.1660 C   0  0  0  0  0  2  0  0  0  0  0  0
  186.5830  174.8750  136.8650 N   0  0  0  0  0  2  0  0  0  0  0  0
  185.4270  175.3170  136.2080 N   0  0  0  0  0  2  0  0  0  0  0  0
  182.4560  172.4470  136.9880 N   0  0  0  0  0  1  0  0  0  0  0  0
  183.4420  174.5440  137.4500 C   0  0  0  0  0  0  0  0  0  0  0  0
  184.4510  175.5210  137.1920 N   0  0  0  0  0  2  0  0  0  0  0  0
  183.4310  173.4300  136.7820 N   0  0  0  0  0  0  0  0  0  0  0  0
  182.3910  174.8470  138.4720 C   0  0  0  0  0  2  0  0  0  0  0  0
  180.3400  176.1440  138.9540 C   0  0  0  0  0  2  0  0  0  0  0  0
  181.4660  175.9480  137.9780 C   0  0  2  0  0  3  0  0  0  0  0  0
  179.1630  176.2740  138.0450 C   0  0  0  0  0  2  0  0  0  0  0  0
  180.8950  175.5890  136.7480 O   0  0  0  0  0  0  0  0  0  0  0  0
  179.6990  176.2420  136.6920 N   0  0  0  0  0  2  0  0  0  0  0  0
  190.9520  176.7050  143.1700 C   0  0  0  0  0  2  0  0  0  0  0  0
  190.5970  176.3700  141.4250 S   0  0  0  0  0  0  0  0  0  0  0  0
  189.0800  177.3760  141.5300 C   0  0  1  0  0  3  0  0  0  0  0  0
  189.7330  177.3940  143.7510 C   0  0  2  0  0  3  0  0  0  0  0  0
  189.1670  178.2300  142.7060 N   0  0  0  0  0  2  0  0  0  0  0  0
  192.3940  175.9990  146.9240 O   0  0  0  0  0  1  0  0  0  0  0  0
  188.9650  178.2620  146.0160 C   0  0  0  0  0  2  0  0  0  0  0  0
  190.0980  176.4730  147.3550 C   0  0  0  0  0  2  0  0  0  0  0  0
  191.3990  177.7480  145.6380 C   0  0  0  0  0  2  0  0  0  0  0  0
  190.0990  178.2330  144.9810 C   0  0  1  0  0  3  0  0  0  0  0  0
  191.2040  176.3880  146.3110 C   0  0  1  0  0  3  0  0  0  0  0  0
  188.7910  176.9020  146.6960 C   0  0  0  0  0  2  0  0  0  0  0  0
  187.6860  178.9600  140.2650 O   0  0  0  0  0  0  0  0  0  0  0  0
  186.8210  178.2870  141.0030 O   0  0  0  0  0  0  0  0  0  0  0  0
  182.7340  178.7000  140.3040 C   0  0  2  0  0  3  0  0  0  0  0  0
  185.6260  179.0050  140.9020 C   0  0  1  0  0  3  0  0  0  0  0  0
  185.0800  178.8700  139.4780 C   0  0  0  0  0  2  0  0  0  0  0  0
  183.1760  178.8790  141.7540 C   0  0  0  0  0  2  0  0  0  0  0  0
  184.6180  178.5030  141.9090 C   0  0  0  0  0  0  0  0  0  0  0  0
  184.9780  177.8880  142.9030 O   0  0  0  0  0  0  0  0  0  0  0  0
  183.6730  179.4560  139.3670 C   0  0  0  0  0  2  0  0  0  0  0  0
  181.4290  179.1740  140.1520 O   0  0  0  0  0  0  0  0  0  0  0  0
  181.2830  179.3630  138.8550 O   0  0  0  0  0  0  0  0  0  0  0  0
  180.2940  180.7360  138.7090 P   0  0  1  0  0  0  0  0  0  0  0  0
  181.2170  182.0850  138.0670 N   0  0  0  0  0  2  0  0  0  0  0  0
  179.4470  180.8520  136.1510 C   0  0  0  0  0  2  0  0  0  0  0  0
  178.9610  180.4090  137.5240 C   0  0  0  0  0  2  0  0  0  0  0  0
  180.2700  182.9710  137.3920 C   0  0  2  0  0  3  0  0  0  0  0  0
  179.7290  182.3620  136.0820 C   0  0  0  0  0  2  0  0  0  0  0  0
  179.7070  181.0960  140.0540 O   0  0  0  0  0  0  0  0  0  0  0  0
  180.8110  184.6960  135.6660 C   0  0  0  0  0  1  0  0  0  0  0  0
  180.8730  184.3520  137.1410 C   0  0  0  0  0  3  0  0  0  0  0  0
  180.1820  185.4360  137.9530 C   0  0  0  0  0  1  0  0  0  0  0  0
  1 32  1  6  0  0  0
  2  4  1  0  0  0  0
  3  4  2  0  0  0  0
  4  1  1  0  0  0  0
  5  6  2  0  0  0  0
  5  2  1  0  0  0  0
  6  3  1  0  0  0  0
  7  8  1  0  0  0  0
  7  6  1  0  0  0  0
  9  8  1  0  0  0  0
  9 12  1  0  0  0  0
 11 14  1  0  0  0  0
 12 11  1  0  0  0  0
 13 10  1  0  0  0  0
 13 11  2  0  0  0  0
 16 14  1  1  0  0  0
 16 15  1  0  0  0  0
 17 15  1  0  0  0  0
 18 16  1  0  0  0  0
 19 18  1  0  0  0  0
 19 17  1  0  0  0  0
 21 22  1  0  0  0  0
 21 20  1  0  0  0  0
 22  1  1  6  0  0  0
 22 24  1  0  0  0  0
 23 20  1  6  0  0  0
 23 29  1  0  0  0  0
 24 23  1  0  0  0  0
 26 31  1  0  0  0  0
 28 30  1  0  0  0  0
 29 28  1  1  0  0  0
 29 26  1  0  0  0  0
 30 25  1  1  0  0  0
 30 27  1  0  0  0  0
 31 27  1  0  0  0  0
 32 33  1  0  0  0  0
 34 41  1  1  0  0  0
 34 37  1  0  0  0  0
 35 33  1  6  0  0  0
 35 38  1  0  0  0  0
 36 35  1  0  0  0  0
 37 38  1  0  0  0  0
 38 39  2  0  0  0  0
 40 36  1  0  0  0  0
 40 34  1  0  0  0  0
 42 41  1  0  0  0  0
 43 42  1  0  0  0  0
 43 49  2  1  0  0  0
 44 43  1  0  0  0  0
 45 46  1  0  0  0  0
 46 43  1  0  0  0  0
 47 51  1  6  0  0  0
 47 44  1  0  0  0  0
 48 45  1  0  0  0  0
 48 47  1  0  0  0  0
 50 51  1  0  0  0  0
 51 52  1  0  0  0  0
M  END
>  <MODEL>
8

>  <REMARK>
 VINA RESULT:      -6.7      4.433     11.244
  Name = 
  16 active torsions:
  status: ('A' for Active; 'I' for Inactive)
    1  A    between atoms: O_1  and  O_26
    2  A    between atoms: O_1  and  C_41
    3  A    between atoms: C_3  and  N_8
    4  A    between atoms: C_3  and  C_49
    5  A    between atoms: C_4  and  O_37
    6  A    between atoms: C_6  and  C_22
    7  A    between atoms: C_6  and  C_28
    8  A    between atoms: N_8  and  N_14
    9  A    between atoms: P_13  and  O_21
   10  A    between atoms: N_14  and  N_36
   11  A    between atoms: C_16  and  O_26
   12  A    between atoms: C_18  and  C_41
   13  A    between atoms: O_21  and  O_37
   14  A    between atoms: C_24  and  C_41
   15  A    between atoms: C_25  and  C_40
   16  A    between atoms: C_29  and  C_45
                            x       y       z     vdW  Elec       q    Type
                         _______ _______ _______ _____ _____    ______ ____

>  <TORSDO>
F 16

$$$$
=
 OpenBabel11032421183D

 52 57  0  0  1  0  0  0  0  0999 V2000
  190.7180  174.5290  135.6690 C   0  0  2  0  0  3  0  0  0  0  0  0
  189.6750  172.0270  134.9070 S   0  0  0  0  0  0  0  0  0  0  0  0
  188.2240  173.8760  135.7500 C   0  0  0  0  0  3  0  0  0  0  0  0
  189.5560  173.5990  135.4770 C   0  0  0  0  0  0  0  0  0  0  0  0
  188.0370  171.6460  134.9890 C   0  0  0  0  0  3  0  0  0  0  0  0
  187.3930  172.7820  135.4780 C   0  0  0  0  0  0  0  0  0  0  0  0
  185.9190  172.8400  135.6650 C   0  0  0  0  0  2  0  0  0  0  0  0
  185.4830  174.2270  135.7030 N   0  0  0  0  0  2  0  0  0  0  0  0
  184.3080  174.2630  136.4650 N   0  0  0  0  0  2  0  0  0  0  0  0
  181.0310  175.4090  138.8370 N   0  0  0  0  0  1  0  0  0  0  0  0
  182.9920  175.9800  137.6470 C   0  0  0  0  0  0  0  0  0  0  0  0
  184.1090  175.5960  136.8440 N   0  0  0  0  0  2  0  0  0  0  0  0
  182.1490  175.0820  138.0580 N   0  0  0  0  0  0  0  0  0  0  0  0
  182.8000  177.4300  137.9680 C   0  0  0  0  0  2  0  0  0  0  0  0
  183.6540  177.6060  140.2830 C   0  0  0  0  0  2  0  0  0  0  0  0
  183.9350  177.9380  138.8450 C   0  0  2  0  0  3  0  0  0  0  0  0
  184.0370  178.8740  140.9720 C   0  0  0  0  0  2  0  0  0  0  0  0
  184.0370  179.3340  138.7490 O   0  0  0  0  0  0  0  0  0  0  0  0
  184.5690  179.7460  139.9350 N   0  0  0  0  0  2  0  0  0  0  0  0
  194.5860  174.3720  135.7130 C   0  0  0  0  0  2  0  0  0  0  0  0
  193.2550  174.9400  134.6210 S   0  0  0  0  0  0  0  0  0  0  0  0
  192.0760  173.8400  135.4710 C   0  0  1  0  0  3  0  0  0  0  0  0
  194.0440  173.1990  136.5060 C   0  0  2  0  0  3  0  0  0  0  0  0
  192.6370  173.4580  136.7590 N   0  0  0  0  0  2  0  0  0  0  0  0
  197.7670  175.2830  137.4510 O   0  0  0  0  0  1  0  0  0  0  0  0
  195.6000  171.6990  137.8490 C   0  0  0  0  0  2  0  0  0  0  0  0
  197.7010  172.9100  137.2250 C   0  0  0  0  0  2  0  0  0  0  0  0
  195.7460  174.1970  138.1100 C   0  0  0  0  0  2  0  0  0  0  0  0
  194.8090  173.0150  137.8230 C   0  0  1  0  0  3  0  0  0  0  0  0
  196.9250  174.2180  137.1350 C   0  0  1  0  0  3  0  0  0  0  0  0
  196.7880  171.7370  136.8850 C   0  0  0  0  0  2  0  0  0  0  0  0
  190.6270  175.2410  136.8840 O   0  0  0  0  0  0  0  0  0  0  0  0
  190.9070  176.5050  136.6170 O   0  0  0  0  0  0  0  0  0  0  0  0
  189.7780  176.8110  140.6160 C   0  0  2  0  0  3  0  0  0  0  0  0
  190.5670  177.2010  137.7800 C   0  0  1  0  0  3  0  0  0  0  0  0
  189.1490  176.8070  138.2030 C   0  0  0  0  0  2  0  0  0  0  0  0
  191.2030  177.2540  140.2980 C   0  0  0  0  0  2  0  0  0  0  0  0
  191.5540  176.9030  138.8840 C   0  0  0  0  0  0  0  0  0  0  0  0
  192.6730  176.4820  138.6270 O   0  0  0  0  0  0  0  0  0  0  0  0
  188.8060  177.3720  139.5810 C   0  0  0  0  0  2  0  0  0  0  0  0
  189.4240  177.2580  141.8910 O   0  0  0  0  0  0  0  0  0  0  0  0
  190.3680  176.8000  142.6890 O   0  0  0  0  0  0  0  0  0  0  0  0
  190.3340  177.8100  144.0540 P   0  0  1  0  0  0  0  0  0  0  0  0
  188.8550  177.5530  144.9640 N   0  0  0  0  0  2  0  0  0  0  0  0
  191.1940  176.3560  146.1560 C   0  0  0  0  0  2  0  0  0  0  0  0
  191.7060  177.3900  145.1630 C   0  0  0  0  0  2  0  0  0  0  0  0
  189.1360  177.9170  146.3520 C   0  0  2  0  0  3  0  0  0  0  0  0
  190.0650  176.9000  147.0470 C   0  0  0  0  0  2  0  0  0  0  0  0
  190.4440  179.2560  143.6290 O   0  0  0  0  0  0  0  0  0  0  0  0
  186.6620  177.5580  146.3950 C   0  0  0  0  0  1  0  0  0  0  0  0
  187.8500  178.1150  147.1540 C   0  0  0  0  0  3  0  0  0  0  0  0
  187.9290  177.4760  148.5300 C   0  0  0  0  0  1  0  0  0  0  0  0
  1 32  1  1  0  0  0
  2  5  1  0  0  0  0
  2  4  1  0  0  0  0
  4  1  1  0  0  0  0
  4  3  2  0  0  0  0
  5  6  2  0  0  0  0
  6  7  1  0  0  0  0
  6  3  1  0  0  0  0
  7  8  1  0  0  0  0
  8  9  1  0  0  0  0
  9 12  1  0  0  0  0
 11 14  1  0  0  0  0
 11 13  2  0  0  0  0
 12 11  1  0  0  0  0
 13 10  1  0  0  0  0
 15 17  1  0  0  0  0
 16 14  1  6  0  0  0
 16 15  1  0  0  0  0
 18 16  1  0  0  0  0
 18 19  1  0  0  0  0
 19 17  1  0  0  0  0
 21 22  1  0  0  0  0
 21 20  1  0  0  0  0
 22  1  1  1  0  0  0
 22 24  1  0  0  0  0
 23 20  1  1  0  0  0
 23 24  1  0  0  0  0
 23 29  1  0  0  0  0
 29 26  1  6  0  0  0
 29 28  1  0  0  0  0
 30 27  1  0  0  0  0
 30 25  1  1  0  0  0
 30 28  1  0  0  0  0
 31 27  1  0  0  0  0
 31 26  1  0  0  0  0
 33 32  1  0  0  0  0
 34 41  1  1  0  0  0
 35 33  1  6  0  0  0
 35 36  1  0  0  0  0
 35 38  1  0  0  0  0
 36 40  1  0  0  0  0
 37 34  1  0  0  0  0
 38 37  1  0  0  0  0
 39 38  2  0  0  0  0
 40 34  1  0  0  0  0
 41 42  1  0  0  0  0
 42 43  1  0  0  0  0
 43 49  2  6  0  0  0
 43 44  1  0  0  0  0
 43 46  1  0  0  0  0
 44 47  1  0  0  0  0
 45 48  1  0  0  0  0
 46 45  1  0  0  0  0
 47 48  1  0  0  0  0
 47 51  1  1  0  0  0
 50 51  1  0  0  0  0
 51 52  1  0  0  0  0
M  END
>  <MODEL>
9

>  <REMARK>
 VINA RESULT:      -6.7      3.395      9.725
  Name = 
  16 active torsions:
  status: ('A' for Active; 'I' for Inactive)
    1  A    between atoms: O_1  and  O_26
    2  A    between atoms: O_1  and  C_41
    3  A    between atoms: C_3  and  N_8
    4  A    between atoms: C_3  and  C_49
    5  A    between atoms: C_4  and  O_37
    6  A    between atoms: C_6  and  C_22
    7  A    between atoms: C_6  and  C_28
    8  A    between atoms: N_8  and  N_14
    9  A    between atoms: P_13  and  O_21
   10  A    between atoms: N_14  and  N_36
   11  A    between atoms: C_16  and  O_26
   12  A    between atoms: C_18  and  C_41
   13  A    between atoms: O_21  and  O_37
   14  A    between atoms: C_24  and  C_41
   15  A    between atoms: C_25  and  C_40
   16  A    between atoms: C_29  and  C_45
                            x       y       z     vdW  Elec       q    Type
                         _______ _______ _______ _____ _____    ______ ____

>  <TORSDO>
F 16

$$$$
