=
 OpenBabel11042410533D

 26 28  0  0  1  0  0  0  0  0999 V2000
  185.4350  178.2100  145.0290 C   0  0  0  0  0  3  0  0  0  0  0  0
  191.5750  175.9590  144.1010 C   0  0  0  0  0  3  0  0  0  0  0  0
  184.9330  178.5180  143.7700 C   0  0  0  0  0  3  0  0  0  0  0  0
  188.3450  177.6730  147.0580 C   0  0  0  0  0  3  0  0  0  0  0  0
  186.7520  177.7700  145.1990 C   0  0  0  0  0  0  0  0  0  0  0  0
  189.3750  176.1000  143.1230 C   0  0  0  0  0  3  0  0  0  0  0  0
  187.1600  177.5360  146.5520 N   0  0  0  0  0  0  0  0  0  0  0  0
  190.6780  175.6020  143.0970 C   0  0  0  0  0  3  0  0  0  0  0  0
  189.4650  178.0040  146.3030 O   0  0  0  0  0  0  0  0  0  0  0  0
  191.1560  176.7860  145.1420 C   0  0  0  0  0  3  0  0  0  0  0  0
  187.0680  177.9350  142.7830 C   0  0  0  0  0  0  0  0  0  0  0  0
  188.9390  176.9570  144.1510 C   0  0  0  0  0  0  0  0  0  0  0  0
  189.8410  177.2620  145.1910 C   0  0  0  0  0  0  0  0  0  0  0  0
  185.7500  178.3930  142.6550 C   0  0  0  0  0  3  0  0  0  0  0  0
  187.5820  177.5740  144.0590 C   0  0  0  0  0  0  0  0  0  0  0  0
  187.8760  177.8510  141.6450 O   0  0  0  0  0  0  0  0  0  0  0  0
  187.6210  178.5930  140.5120 N   0  0  0  0  0  2  0  0  0  0  0  0
  188.0880  177.8090  139.3800 C   0  0  1  0  0  3  0  0  0  0  0  0
  186.6280  177.5980  135.7900 C   0  0  0  0  0  1  0  0  0  0  0  0
  187.1690  178.0000  138.2180 C   0  0  0  0  0  0  0  0  0  0  0  0
  186.1040  178.6550  138.3740 O   0  0  0  0  0  0  0  0  0  0  0  0
  187.4960  177.4410  136.9440 N   0  0  0  0  0  2  0  0  0  0  0  0
  189.5120  178.2130  139.0190 C   0  0  0  0  0  2  0  0  0  0  0  0
  191.5080  177.6160  140.3880 O   0  0  0  0  0  1  0  0  0  0  0  0
  190.4880  177.2130  139.5360 C   0  0  0  0  0  0  0  0  0  0  0  0
  190.3720  176.0010  139.2230 O   0  0  0  0  0  0  0  0  0  0  0  0
  1  5  1  0  0  0  0
  2 10  1  0  0  0  0
  3  1  2  0  0  0  0
  5  7  1  0  0  0  0
  6 12  2  0  0  0  0
  7  4  2  0  0  0  0
  8  6  1  0  0  0  0
  8  2  2  0  0  0  0
  9  4  1  0  0  0  0
 10 13  2  0  0  0  0
 11 15  1  0  0  0  0
 12 13  1  0  0  0  0
 13  9  1  0  0  0  0
 14 11  2  0  0  0  0
 14  3  1  0  0  0  0
 15 12  1  0  0  0  0
 15  5  2  0  0  0  0
 16 11  1  0  0  0  0
 17 16  1  0  0  0  0
 18 23  1  6  0  0  0
 18 17  1  0  0  0  0
 19 22  1  0  0  0  0
 20 21  2  0  0  0  0
 20 18  1  0  0  0  0
 22 20  1  0  0  0  0
 23 25  1  0  0  0  0
 25 24  1  0  0  0  0
 26 25  2  0  0  0  0
M  END
>  <MODEL>
1

>  <REMARK>
 VINA RESULT:      -8.6      0.000      0.000
  Name = 
  6 active torsions:
  status: ('A' for Active; 'I' for Inactive)
    1  A    between atoms: C_8  and  C_20
    2  A    between atoms: C_14  and  O_16
    3  A    between atoms: C_15  and  C_24
    4  A    between atoms: O_16  and  N_18
    5  A    between atoms: N_18  and  C_24
    6  A    between atoms: C_20  and  C_24
                            x       y       z     vdW  Elec       q    Type
                         _______ _______ _______ _____ _____    ______ ____

>  <TORSDO>
F 6

$$$$
=
 OpenBabel11042410533D

 26 28  0  0  1  0  0  0  0  0999 V2000
  185.2410  178.4250  146.8800 C   0  0  0  0  0  3  0  0  0  0  0  0
  190.2850  176.2740  143.1970 C   0  0  0  0  0  3  0  0  0  0  0  0
  184.2430  178.8120  145.9940 C   0  0  0  0  0  3  0  0  0  0  0  0
  188.7330  177.7710  147.3770 C   0  0  0  0  0  3  0  0  0  0  0  0
  186.4870  177.9820  146.4230 C   0  0  0  0  0  0  0  0  0  0  0  0
  187.8830  176.4670  143.3030 C   0  0  0  0  0  3  0  0  0  0  0  0
  187.4440  177.6610  147.4390 N   0  0  0  0  0  0  0  0  0  0  0  0
  189.0280  175.9790  142.6740 C   0  0  0  0  0  3  0  0  0  0  0  0
  189.4130  178.1580  146.2260 O   0  0  0  0  0  0  0  0  0  0  0  0
  190.3880  177.0290  144.3650 C   0  0  0  0  0  3  0  0  0  0  0  0
  185.7070  178.3080  144.1310 C   0  0  0  0  0  0  0  0  0  0  0  0
  187.9660  177.2520  144.4680 C   0  0  0  0  0  0  0  0  0  0  0  0
  189.2410  177.4930  145.0190 C   0  0  0  0  0  0  0  0  0  0  0  0
  184.4800  178.7660  144.6280 C   0  0  0  0  0  3  0  0  0  0  0  0
  186.7230  177.8660  145.0240 C   0  0  0  0  0  0  0  0  0  0  0  0
  185.9280  178.3040  142.7500 O   0  0  0  0  0  0  0  0  0  0  0  0
  185.7570  179.4340  141.9810 N   0  0  0  0  0  2  0  0  0  0  0  0
  184.9820  179.0380  140.8160 C   0  0  1  0  0  3  0  0  0  0  0  0
  188.2350  178.1110  138.9130 C   0  0  0  0  0  1  0  0  0  0  0  0
  185.8990  178.6010  139.7210 C   0  0  0  0  0  0  0  0  0  0  0  0
  185.4170  178.2890  138.6000 O   0  0  0  0  0  0  0  0  0  0  0  0
  187.3080  178.5360  139.9480 N   0  0  0  0  0  2  0  0  0  0  0  0
  184.0130  177.9230  141.1900 C   0  0  0  0  0  2  0  0  0  0  0  0
  181.8690  178.1980  139.9470 O   0  0  0  0  0  0  0  0  0  0  0  0
  182.6040  178.4020  141.1080 C   0  0  0  0  0  0  0  0  0  0  0  0
  182.0730  178.9660  142.0980 O   0  0  0  0  0  1  0  0  0  0  0  0
  2 10  1  0  0  0  0
  3  1  2  0  0  0  0
  4  7  2  0  0  0  0
  5  1  1  0  0  0  0
  5  7  1  0  0  0  0
  6 12  2  0  0  0  0
  8  2  2  0  0  0  0
  8  6  1  0  0  0  0
  9  4  1  0  0  0  0
 10 13  2  0  0  0  0
 11 14  2  0  0  0  0
 11 15  1  0  0  0  0
 12 13  1  0  0  0  0
 12 15  1  0  0  0  0
 13  9  1  0  0  0  0
 14  3  1  0  0  0  0
 15  5  2  0  0  0  0
 16 11  1  0  0  0  0
 17 16  1  0  0  0  0
 18 23  1  1  0  0  0
 18 17  1  0  0  0  0
 19 22  1  0  0  0  0
 20 22  1  0  0  0  0
 20 18  1  0  0  0  0
 21 20  2  0  0  0  0
 24 25  2  0  0  0  0
 25 23  1  0  0  0  0
 25 26  1  0  0  0  0
M  END
>  <MODEL>
2

>  <REMARK>
 VINA RESULT:      -8.4      2.160      3.756
  Name = 
  6 active torsions:
  status: ('A' for Active; 'I' for Inactive)
    1  A    between atoms: C_8  and  C_20
    2  A    between atoms: C_14  and  O_16
    3  A    between atoms: C_15  and  C_24
    4  A    between atoms: O_16  and  N_18
    5  A    between atoms: N_18  and  C_24
    6  A    between atoms: C_20  and  C_24
                            x       y       z     vdW  Elec       q    Type
                         _______ _______ _______ _____ _____    ______ ____

>  <TORSDO>
F 6

$$$$
=
 OpenBabel11042410533D

 26 28  0  0  1  0  0  0  0  0999 V2000
  183.5900  178.6560  141.2930 C   0  0  0  0  0  3  0  0  0  0  0  0
  187.1870  177.8490  146.7740 C   0  0  0  0  0  3  0  0  0  0  0  0
  184.4920  178.7400  140.2380 C   0  0  0  0  0  3  0  0  0  0  0  0
  183.0570  178.9760  144.8260 C   0  0  0  0  0  3  0  0  0  0  0  0
  184.0280  178.5530  142.6170 C   0  0  0  0  0  0  0  0  0  0  0  0
  187.0990  177.3930  144.4070 C   0  0  0  0  0  3  0  0  0  0  0  0
  182.9990  178.5260  143.6130 N   0  0  0  0  0  0  0  0  0  0  0  0
  187.7090  177.2150  145.6490 C   0  0  0  0  0  3  0  0  0  0  0  0
  184.2140  179.5020  145.3910 O   0  0  0  0  0  0  0  0  0  0  0  0
  186.0390  178.6320  146.6560 C   0  0  0  0  0  3  0  0  0  0  0  0
  186.3330  178.6020  141.8080 C   0  0  0  0  0  0  0  0  0  0  0  0
  185.9550  178.2000  144.2620 C   0  0  0  0  0  0  0  0  0  0  0  0
  185.4040  178.7870  145.4190 C   0  0  0  0  0  0  0  0  0  0  0  0
  185.8550  178.7260  140.4970 C   0  0  0  0  0  3  0  0  0  0  0  0
  185.4230  178.4710  142.8940 C   0  0  0  0  0  0  0  0  0  0  0  0
  187.7120  178.6240  142.0390 O   0  0  0  0  0  0  0  0  0  0  0  0
  188.6240  178.6600  141.0070 N   0  0  0  0  0  2  0  0  0  0  0  0
  189.3500  177.4010  141.0420 C   0  0  1  0  0  3  0  0  0  0  0  0
  189.7500  177.4650  137.1820 C   0  0  0  0  0  1  0  0  0  0  0  0
  189.7940  177.0330  139.6640 C   0  0  0  0  0  0  0  0  0  0  0  0
  190.5740  176.0560  139.5070 O   0  0  0  0  0  0  0  0  0  0  0  0
  189.3390  177.7850  138.5380 N   0  0  0  0  0  2  0  0  0  0  0  0
  190.5420  177.5130  141.9850 C   0  0  0  0  0  2  0  0  0  0  0  0
  191.6740  176.1830  143.7640 O   0  0  0  0  0  1  0  0  0  0  0  0
  190.5890  176.3490  142.9130 C   0  0  0  0  0  0  0  0  0  0  0  0
  189.6330  175.5320  142.9470 O   0  0  0  0  0  0  0  0  0  0  0  0
  1  5  1  0  0  0  0
  3 14  1  0  0  0  0
  3  1  2  0  0  0  0
  4  9  1  0  0  0  0
  5 15  2  0  0  0  0
  5  7  1  0  0  0  0
  6  8  1  0  0  0  0
  7  4  2  0  0  0  0
  8  2  2  0  0  0  0
  9 13  1  0  0  0  0
 10  2  1  0  0  0  0
 11 16  1  0  0  0  0
 11 15  1  0  0  0  0
 12  6  2  0  0  0  0
 12 13  1  0  0  0  0
 13 10  2  0  0  0  0
 14 11  2  0  0  0  0
 15 12  1  0  0  0  0
 17 18  1  0  0  0  0
 17 16  1  0  0  0  0
 18 23  1  1  0  0  0
 19 22  1  0  0  0  0
 20 18  1  0  0  0  0
 21 20  2  0  0  0  0
 22 20  1  0  0  0  0
 23 25  1  0  0  0  0
 25 26  2  0  0  0  0
 25 24  1  0  0  0  0
M  END
>  <MODEL>
3

>  <REMARK>
 VINA RESULT:      -8.3      2.298      3.845
  Name = 
  6 active torsions:
  status: ('A' for Active; 'I' for Inactive)
    1  A    between atoms: C_8  and  C_20
    2  A    between atoms: C_14  and  O_16
    3  A    between atoms: C_15  and  C_24
    4  A    between atoms: O_16  and  N_18
    5  A    between atoms: N_18  and  C_24
    6  A    between atoms: C_20  and  C_24
                            x       y       z     vdW  Elec       q    Type
                         _______ _______ _______ _____ _____    ______ ____

>  <TORSDO>
F 6

$$$$
=
 OpenBabel11042410533D

 26 28  0  0  1  0  0  0  0  0999 V2000
  185.5910  178.2050  145.4880 C   0  0  0  0  0  3  0  0  0  0  0  0
  191.6060  175.9200  143.9920 C   0  0  0  0  0  3  0  0  0  0  0  0
  184.9530  178.4550  144.2790 C   0  0  0  0  0  3  0  0  0  0  0  0
  188.7080  177.7620  147.2060 C   0  0  0  0  0  3  0  0  0  0  0  0
  186.9210  177.7740  145.5310 C   0  0  0  0  0  0  0  0  0  0  0  0
  189.3110  176.0150  143.2560 C   0  0  0  0  0  3  0  0  0  0  0  0
  187.4770  177.6010  146.8410 N   0  0  0  0  0  0  0  0  0  0  0  0
  190.6060  175.5180  143.1100 C   0  0  0  0  0  3  0  0  0  0  0  0
  189.7370  178.0600  146.3190 O   0  0  0  0  0  0  0  0  0  0  0  0
  191.2980  176.7930  145.0350 C   0  0  0  0  0  3  0  0  0  0  0  0
  186.9690  177.8310  143.0890 C   0  0  0  0  0  0  0  0  0  0  0  0
  188.9850  176.9170  144.2860 C   0  0  0  0  0  0  0  0  0  0  0  0
  189.9930  177.2690  145.2060 C   0  0  0  0  0  0  0  0  0  0  0  0
  185.6430  178.2810  143.0870 C   0  0  0  0  0  3  0  0  0  0  0  0
  187.6230  177.5280  144.3170 C   0  0  0  0  0  0  0  0  0  0  0  0
  187.6490  177.6970  141.8750 O   0  0  0  0  0  0  0  0  0  0  0  0
  187.7540  178.7390  140.9790 N   0  0  0  0  0  2  0  0  0  0  0  0
  187.8060  178.1500  139.6510 C   0  0  1  0  0  3  0  0  0  0  0  0
  184.1780  179.2740  138.8520 C   0  0  0  0  0  1  0  0  0  0  0  0
  186.5860  178.5330  138.8780 C   0  0  0  0  0  0  0  0  0  0  0  0
  186.6310  178.5410  137.6190 O   0  0  0  0  0  0  0  0  0  0  0  0
  185.3850  178.8900  139.5640 N   0  0  0  0  0  2  0  0  0  0  0  0
  189.0700  178.6010  138.9300 C   0  0  0  0  0  2  0  0  0  0  0  0
  190.4600  176.6710  139.6770 O   0  0  0  0  0  1  0  0  0  0  0  0
  189.9510  177.4370  138.6360 C   0  0  0  0  0  0  0  0  0  0  0  0
  190.2120  177.1300  137.4450 O   0  0  0  0  0  0  0  0  0  0  0  0
  1  5  1  0  0  0  0
  2 10  1  0  0  0  0
  3  1  2  0  0  0  0
  5  7  1  0  0  0  0
  6 12  2  0  0  0  0
  7  4  2  0  0  0  0
  8  6  1  0  0  0  0
  8  2  2  0  0  0  0
  9  4  1  0  0  0  0
 10 13  2  0  0  0  0
 11 15  1  0  0  0  0
 12 15  1  0  0  0  0
 12 13  1  0  0  0  0
 13  9  1  0  0  0  0
 14 11  2  0  0  0  0
 14  3  1  0  0  0  0
 15  5  2  0  0  0  0
 16 11  1  0  0  0  0
 17 16  1  0  0  0  0
 18 23  1  6  0  0  0
 18 17  1  0  0  0  0
 19 22  1  0  0  0  0
 20 22  1  0  0  0  0
 20 18  1  0  0  0  0
 21 20  2  0  0  0  0
 25 23  1  0  0  0  0
 25 24  1  0  0  0  0
 26 25  2  0  0  0  0
M  END
>  <MODEL>
4

>  <REMARK>
 VINA RESULT:      -8.3      1.121      1.304
  Name = 
  6 active torsions:
  status: ('A' for Active; 'I' for Inactive)
    1  A    between atoms: C_8  and  C_20
    2  A    between atoms: C_14  and  O_16
    3  A    between atoms: C_15  and  C_24
    4  A    between atoms: O_16  and  N_18
    5  A    between atoms: N_18  and  C_24
    6  A    between atoms: C_20  and  C_24
                            x       y       z     vdW  Elec       q    Type
                         _______ _______ _______ _____ _____    ______ ____

>  <TORSDO>
F 6

$$$$
=
 OpenBabel11042410533D

 26 28  0  0  1  0  0  0  0  0999 V2000
  186.6330  178.2120  146.5210 C   0  0  0  0  0  3  0  0  0  0  0  0
  184.0640  178.8830  140.4730 C   0  0  0  0  0  3  0  0  0  0  0  0
  187.8100  177.4890  146.3710 C   0  0  0  0  0  3  0  0  0  0  0  0
  183.4440  179.0870  145.1300 C   0  0  0  0  0  3  0  0  0  0  0  0
  185.7960  178.4720  145.4310 C   0  0  0  0  0  0  0  0  0  0  0  0
  186.1230  178.6920  141.7130 C   0  0  0  0  0  3  0  0  0  0  0  0
  184.5880  179.1830  145.7290 N   0  0  0  0  0  0  0  0  0  0  0  0
  185.4550  178.9240  140.5100 C   0  0  0  0  0  3  0  0  0  0  0  0
  183.2340  178.3010  144.0020 O   0  0  0  0  0  0  0  0  0  0  0  0
  183.3470  178.6430  141.6440 C   0  0  0  0  0  3  0  0  0  0  0  0
  187.3660  177.2650  144.0000 C   0  0  0  0  0  0  0  0  0  0  0  0
  185.4190  178.4210  142.9010 C   0  0  0  0  0  0  0  0  0  0  0  0
  184.0100  178.4420  142.8600 C   0  0  0  0  0  0  0  0  0  0  0  0
  188.1670  177.0080  145.1200 C   0  0  0  0  0  3  0  0  0  0  0  0
  186.1800  178.0420  144.1290 C   0  0  0  0  0  0  0  0  0  0  0  0
  187.7350  176.7390  142.7580 O   0  0  0  0  0  0  0  0  0  0  0  0
  189.0280  176.3490  142.4860 N   0  0  0  0  0  2  0  0  0  0  0  0
  189.6730  177.4650  141.8140 C   0  0  1  0  0  3  0  0  0  0  0  0
  191.8720  179.3630  144.3890 C   0  0  0  0  0  1  0  0  0  0  0  0
  190.8680  177.9050  142.5950 C   0  0  0  0  0  0  0  0  0  0  0  0
  191.9880  177.3790  142.3580 O   0  0  0  0  0  0  0  0  0  0  0  0
  190.7370  178.9100  143.6020 N   0  0  0  0  0  2  0  0  0  0  0  0
  190.0670  177.0630  140.3980 C   0  0  0  0  0  2  0  0  0  0  0  0
  188.8960  178.9350  139.2400 O   0  0  0  0  0  1  0  0  0  0  0  0
  189.0710  177.5680  139.4120 C   0  0  0  0  0  0  0  0  0  0  0  0
  188.4080  176.7570  138.7160 O   0  0  0  0  0  0  0  0  0  0  0  0
  2  8  2  0  0  0  0
  2 10  1  0  0  0  0
  3  1  1  0  0  0  0
  4  7  2  0  0  0  0
  5  7  1  0  0  0  0
  5  1  2  0  0  0  0
  6 12  2  0  0  0  0
  8  6  1  0  0  0  0
  9  4  1  0  0  0  0
 10 13  2  0  0  0  0
 11 15  2  0  0  0  0
 11 14  1  0  0  0  0
 12 15  1  0  0  0  0
 13 12  1  0  0  0  0
 13  9  1  0  0  0  0
 14  3  2  0  0  0  0
 15  5  1  0  0  0  0
 16 11  1  0  0  0  0
 17 16  1  0  0  0  0
 18 23  1  6  0  0  0
 18 17  1  0  0  0  0
 18 20  1  0  0  0  0
 20 22  1  0  0  0  0
 21 20  2  0  0  0  0
 22 19  1  0  0  0  0
 24 25  1  0  0  0  0
 25 23  1  0  0  0  0
 26 25  2  0  0  0  0
M  END
>  <MODEL>
5

>  <REMARK>
 VINA RESULT:      -8.2      2.428      5.144
  Name = 
  6 active torsions:
  status: ('A' for Active; 'I' for Inactive)
    1  A    between atoms: C_8  and  C_20
    2  A    between atoms: C_14  and  O_16
    3  A    between atoms: C_15  and  C_24
    4  A    between atoms: O_16  and  N_18
    5  A    between atoms: N_18  and  C_24
    6  A    between atoms: C_20  and  C_24
                            x       y       z     vdW  Elec       q    Type
                         _______ _______ _______ _____ _____    ______ ____

>  <TORSDO>
F 6

$$$$
=
 OpenBabel11042410533D

 26 28  0  0  1  0  0  0  0  0999 V2000
  188.7390  177.4630  148.4540 C   0  0  0  0  0  3  0  0  0  0  0  0
  190.2070  176.3180  142.1170 C   0  0  0  0  0  3  0  0  0  0  0  0
  187.4590  178.0050  148.4710 C   0  0  0  0  0  3  0  0  0  0  0  0
  191.7080  176.8200  146.5460 C   0  0  0  0  0  3  0  0  0  0  0  0
  189.3880  177.1680  147.2510 C   0  0  0  0  0  0  0  0  0  0  0  0
  188.4100  176.4120  143.7220 C   0  0  0  0  0  3  0  0  0  0  0  0
  190.7220  176.6610  147.3710 N   0  0  0  0  0  0  0  0  0  0  0  0
  188.8690  176.1080  142.4400 C   0  0  0  0  0  3  0  0  0  0  0  0
  191.5830  177.4680  145.3210 O   0  0  0  0  0  0  0  0  0  0  0  0
  191.0860  176.8020  143.0860 C   0  0  0  0  0  3  0  0  0  0  0  0
  187.4150  177.9630  146.0490 C   0  0  0  0  0  0  0  0  0  0  0  0
  189.2740  176.9260  144.7070 C   0  0  0  0  0  0  0  0  0  0  0  0
  190.6370  177.0780  144.3820 C   0  0  0  0  0  0  0  0  0  0  0  0
  186.8070  178.2660  147.2740 C   0  0  0  0  0  3  0  0  0  0  0  0
  188.7070  177.3670  146.0160 C   0  0  0  0  0  0  0  0  0  0  0  0
  186.7470  178.2680  144.8590 O   0  0  0  0  0  0  0  0  0  0  0  0
  185.4620  178.7670  144.8510 N   0  0  0  0  0  2  0  0  0  0  0  0
  184.9650  178.6300  143.4920 C   0  0  1  0  0  3  0  0  0  0  0  0
  181.3040  178.7730  142.2100 C   0  0  0  0  0  1  0  0  0  0  0  0
  183.4720  178.6810  143.4910 C   0  0  0  0  0  0  0  0  0  0  0  0
  182.8540  178.6770  144.5890 O   0  0  0  0  0  0  0  0  0  0  0  0
  182.7550  178.7280  142.2560 N   0  0  0  0  0  2  0  0  0  0  0  0
  185.5460  179.7280  142.6110 C   0  0  0  0  0  2  0  0  0  0  0  0
  187.0450  178.3750  141.1490 O   0  0  0  0  0  1  0  0  0  0  0  0
  185.9250  179.1860  141.2760 C   0  0  0  0  0  0  0  0  0  0  0  0
  185.2150  179.4390  140.2700 O   0  0  0  0  0  0  0  0  0  0  0  0
  1  3  1  0  0  0  0
  2  8  2  0  0  0  0
  2 10  1  0  0  0  0
  4  7  2  0  0  0  0
  5  7  1  0  0  0  0
  5  1  2  0  0  0  0
  6 12  2  0  0  0  0
  8  6  1  0  0  0  0
  9  4  1  0  0  0  0
 10 13  2  0  0  0  0
 11 14  1  0  0  0  0
 12 15  1  0  0  0  0
 13 12  1  0  0  0  0
 13  9  1  0  0  0  0
 14  3  2  0  0  0  0
 15 11  2  0  0  0  0
 15  5  1  0  0  0  0
 16 11  1  0  0  0  0
 17 16  1  0  0  0  0
 18 23  1  6  0  0  0
 18 17  1  0  0  0  0
 19 22  1  0  0  0  0
 20 18  1  0  0  0  0
 20 21  2  0  0  0  0
 22 20  1  0  0  0  0
 24 25  1  0  0  0  0
 25 23  1  0  0  0  0
 26 25  2  0  0  0  0
M  END
>  <MODEL>
6

>  <REMARK>
 VINA RESULT:      -8.1      2.998      4.589
  Name = 
  6 active torsions:
  status: ('A' for Active; 'I' for Inactive)
    1  A    between atoms: C_8  and  C_20
    2  A    between atoms: C_14  and  O_16
    3  A    between atoms: C_15  and  C_24
    4  A    between atoms: O_16  and  N_18
    5  A    between atoms: N_18  and  C_24
    6  A    between atoms: C_20  and  C_24
                            x       y       z     vdW  Elec       q    Type
                         _______ _______ _______ _____ _____    ______ ____

>  <TORSDO>
F 6

$$$$
=
 OpenBabel11042410533D

 26 28  0  0  1  0  0  0  0  0999 V2000
  188.1470  177.2910  147.9840 C   0  0  0  0  0  3  0  0  0  0  0  0
  191.1090  176.4730  142.1370 C   0  0  0  0  0  3  0  0  0  0  0  0
  186.8940  177.8310  147.7190 C   0  0  0  0  0  3  0  0  0  0  0  0
  191.4950  176.7470  146.8160 C   0  0  0  0  0  3  0  0  0  0  0  0
  189.0690  177.0570  146.9580 C   0  0  0  0  0  0  0  0  0  0  0  0
  188.9770  176.4840  143.2650 C   0  0  0  0  0  3  0  0  0  0  0  0
  190.3420  176.5460  147.3710 N   0  0  0  0  0  0  0  0  0  0  0  0
  189.7350  176.2450  142.1180 C   0  0  0  0  0  3  0  0  0  0  0  0
  191.6600  177.4570  145.6310 O   0  0  0  0  0  0  0  0  0  0  0  0
  191.7220  176.9070  143.3110 C   0  0  0  0  0  3  0  0  0  0  0  0
  187.4330  177.9130  145.3580 C   0  0  0  0  0  0  0  0  0  0  0  0
  189.5730  176.9470  144.4530 C   0  0  0  0  0  0  0  0  0  0  0  0
  190.9720  177.1160  144.4740 C   0  0  0  0  0  0  0  0  0  0  0  0
  186.5450  178.1520  146.4140 C   0  0  0  0  0  3  0  0  0  0  0  0
  188.7030  177.3200  145.6080 C   0  0  0  0  0  0  0  0  0  0  0  0
  187.0660  178.2780  144.0590 O   0  0  0  0  0  0  0  0  0  0  0  0
  185.9650  177.7360  143.4330 N   0  0  0  0  0  2  0  0  0  0  0  0
  185.3350  178.8100  142.6830 C   0  0  1  0  0  3  0  0  0  0  0  0
  187.7070  178.2510  139.6620 C   0  0  0  0  0  1  0  0  0  0  0  0
  185.8790  178.8450  141.2920 C   0  0  0  0  0  0  0  0  0  0  0  0
  185.2120  179.4040  140.3820 O   0  0  0  0  0  0  0  0  0  0  0  0
  187.1430  178.2450  141.0010 N   0  0  0  0  0  2  0  0  0  0  0  0
  183.8230  178.6200  142.6700 C   0  0  0  0  0  2  0  0  0  0  0  0
  181.9390  178.6530  144.3020 O   0  0  0  0  0  0  0  0  0  0  0  0
  183.2300  179.0440  143.9690 C   0  0  0  0  0  0  0  0  0  0  0  0
  183.9060  179.7300  144.7760 O   0  0  0  0  0  1  0  0  0  0  0  0
  2 10  1  0  0  0  0
  3  1  1  0  0  0  0
  4  7  2  0  0  0  0
  5  7  1  0  0  0  0
  5  1  2  0  0  0  0
  6 12  2  0  0  0  0
  8  2  2  0  0  0  0
  8  6  1  0  0  0  0
  9  4  1  0  0  0  0
 10 13  2  0  0  0  0
 11 15  2  0  0  0  0
 11 14  1  0  0  0  0
 12 13  1  0  0  0  0
 12 15  1  0  0  0  0
 13  9  1  0  0  0  0
 14  3  2  0  0  0  0
 15  5  1  0  0  0  0
 16 11  1  0  0  0  0
 17 16  1  0  0  0  0
 18 23  1  6  0  0  0
 18 17  1  0  0  0  0
 19 22  1  0  0  0  0
 20 18  1  0  0  0  0
 21 20  2  0  0  0  0
 22 20  1  0  0  0  0
 23 25  1  0  0  0  0
 25 24  2  0  0  0  0
 25 26  1  0  0  0  0
M  END
>  <MODEL>
7

>  <REMARK>
 VINA RESULT:      -8.0      2.496      4.461
  Name = 
  6 active torsions:
  status: ('A' for Active; 'I' for Inactive)
    1  A    between atoms: C_8  and  C_20
    2  A    between atoms: C_14  and  O_16
    3  A    between atoms: C_15  and  C_24
    4  A    between atoms: O_16  and  N_18
    5  A    between atoms: N_18  and  C_24
    6  A    between atoms: C_20  and  C_24
                            x       y       z     vdW  Elec       q    Type
                         _______ _______ _______ _____ _____    ______ ____

>  <TORSDO>
F 6

$$$$
=
 OpenBabel11042410533D

 26 28  0  0  1  0  0  0  0  0999 V2000
  191.6850  177.2890  143.4720 C   0  0  0  0  0  3  0  0  0  0  0  0
  187.1650  177.8630  148.2540 C   0  0  0  0  0  3  0  0  0  0  0  0
  190.9930  177.3390  142.2670 C   0  0  0  0  0  3  0  0  0  0  0  0
  191.5360  176.6620  147.0000 C   0  0  0  0  0  3  0  0  0  0  0  0
  191.0120  177.3120  144.6980 C   0  0  0  0  0  0  0  0  0  0  0  0
  187.7110  178.4990  145.9930 C   0  0  0  0  0  3  0  0  0  0  0  0
  191.8380  177.2020  145.8630 N   0  0  0  0  0  0  0  0  0  0  0  0
  186.8880  178.6120  147.1130 C   0  0  0  0  0  3  0  0  0  0  0  0
  190.2730  176.1590  147.2970 O   0  0  0  0  0  0  0  0  0  0  0  0
  188.2810  177.0280  148.2790 C   0  0  0  0  0  3  0  0  0  0  0  0
  188.8990  177.4570  143.4800 C   0  0  0  0  0  0  0  0  0  0  0  0
  188.8280  177.6420  145.9880 C   0  0  0  0  0  0  0  0  0  0  0  0
  189.1300  176.9360  147.1700 C   0  0  0  0  0  0  0  0  0  0  0  0
  189.6070  177.4100  142.2720 C   0  0  0  0  0  3  0  0  0  0  0  0
  189.5950  177.4510  144.7210 C   0  0  0  0  0  0  0  0  0  0  0  0
  187.5010  177.4950  143.4530 O   0  0  0  0  0  0  0  0  0  0  0  0
  186.7970  177.6040  142.2740 N   0  0  0  0  0  2  0  0  0  0  0  0
  185.6710  178.4860  142.5350 C   0  0  1  0  0  3  0  0  0  0  0  0
  184.1230  179.4160  139.0990 C   0  0  0  0  0  1  0  0  0  0  0  0
  184.7500  178.4940  141.3590 C   0  0  0  0  0  0  0  0  0  0  0  0
  183.7640  177.7100  141.3430 O   0  0  0  0  0  0  0  0  0  0  0  0
  184.9900  179.3800  140.2640 N   0  0  0  0  0  2  0  0  0  0  0  0
  184.9400  178.0380  143.7950 C   0  0  0  0  0  2  0  0  0  0  0  0
  183.4220  178.9990  145.5240 O   0  0  0  0  0  1  0  0  0  0  0  0
  184.3200  179.2050  144.4840 C   0  0  0  0  0  0  0  0  0  0  0  0
  184.6290  180.3750  144.1430 O   0  0  0  0  0  0  0  0  0  0  0  0
  1  5  1  0  0  0  0
  2 10  1  0  0  0  0
  3 14  1  0  0  0  0
  3  1  2  0  0  0  0
  4  9  1  0  0  0  0
  5 15  2  0  0  0  0
  5  7  1  0  0  0  0
  6  8  1  0  0  0  0
  7  4  2  0  0  0  0
  8  2  2  0  0  0  0
 11 15  1  0  0  0  0
 12  6  2  0  0  0  0
 12 13  1  0  0  0  0
 13  9  1  0  0  0  0
 13 10  2  0  0  0  0
 14 11  2  0  0  0  0
 15 12  1  0  0  0  0
 16 11  1  0  0  0  0
 17 18  1  0  0  0  0
 17 16  1  0  0  0  0
 18 23  1  1  0  0  0
 19 22  1  0  0  0  0
 20 18  1  0  0  0  0
 21 20  2  0  0  0  0
 22 20  1  0  0  0  0
 23 25  1  0  0  0  0
 25 24  1  0  0  0  0
 26 25  2  0  0  0  0
M  END
>  <MODEL>
8

>  <REMARK>
 VINA RESULT:      -8.0      2.799      5.058
  Name = 
  6 active torsions:
  status: ('A' for Active; 'I' for Inactive)
    1  A    between atoms: C_8  and  C_20
    2  A    between atoms: C_14  and  O_16
    3  A    between atoms: C_15  and  C_24
    4  A    between atoms: O_16  and  N_18
    5  A    between atoms: N_18  and  C_24
    6  A    between atoms: C_20  and  C_24
                            x       y       z     vdW  Elec       q    Type
                         _______ _______ _______ _____ _____    ______ ____

>  <TORSDO>
F 6

$$$$
=
 OpenBabel11042410533D

 26 28  0  0  1  0  0  0  0  0999 V2000
  190.9200  177.1540  146.3580 C   0  0  0  0  0  3  0  0  0  0  0  0
  184.9620  178.4380  143.8110 C   0  0  0  0  0  3  0  0  0  0  0  0
  191.6800  176.6110  145.3280 C   0  0  0  0  0  3  0  0  0  0  0  0
  187.6370  177.8390  147.6320 C   0  0  0  0  0  3  0  0  0  0  0  0
  189.5710  177.4760  146.1730 C   0  0  0  0  0  0  0  0  0  0  0  0
  187.3170  178.3080  143.3090 C   0  0  0  0  0  3  0  0  0  0  0  0
  188.8880  177.9800  147.3280 N   0  0  0  0  0  0  0  0  0  0  0  0
  186.0170  178.6410  142.9260 C   0  0  0  0  0  3  0  0  0  0  0  0
  186.7120  177.2180  146.8000 O   0  0  0  0  0  0  0  0  0  0  0  0
  185.2150  177.9320  145.0860 C   0  0  0  0  0  3  0  0  0  0  0  0
  189.7530  176.7060  143.8620 C   0  0  0  0  0  0  0  0  0  0  0  0
  187.5910  177.7730  144.5810 C   0  0  0  0  0  0  0  0  0  0  0  0
  186.5210  177.6280  145.4870 C   0  0  0  0  0  0  0  0  0  0  0  0
  191.0950  176.3770  144.0910 C   0  0  0  0  0  3  0  0  0  0  0  0
  188.9740  177.3030  144.8920 C   0  0  0  0  0  0  0  0  0  0  0  0
  189.1840  176.4280  142.6150 O   0  0  0  0  0  0  0  0  0  0  0  0
  189.9410  176.0010  141.5460 N   0  0  0  0  0  2  0  0  0  0  0  0
  190.0670  177.1310  140.6400 C   0  0  1  0  0  3  0  0  0  0  0  0
  192.9700  176.7230  138.0960 C   0  0  0  0  0  1  0  0  0  0  0  0
  191.4390  177.1570  140.0500 C   0  0  0  0  0  0  0  0  0  0  0  0
  192.4010  177.5810  140.7440 O   0  0  0  0  0  0  0  0  0  0  0  0
  191.6530  176.7100  138.7100 N   0  0  0  0  0  2  0  0  0  0  0  0
  189.0070  177.0440  139.5490 C   0  0  0  0  0  2  0  0  0  0  0  0
  189.0530  179.3330  138.5610 O   0  0  0  0  0  0  0  0  0  0  0  0
  188.3840  178.3770  139.3150 C   0  0  0  0  0  0  0  0  0  0  0  0
  187.2410  178.6270  139.7760 O   0  0  0  0  0  1  0  0  0  0  0  0
  2 10  1  0  0  0  0
  3  1  2  0  0  0  0
  5  1  1  0  0  0  0
  5  7  1  0  0  0  0
  6 12  2  0  0  0  0
  7  4  2  0  0  0  0
  8  6  1  0  0  0  0
  8  2  2  0  0  0  0
  9  4  1  0  0  0  0
 10 13  2  0  0  0  0
 11 14  2  0  0  0  0
 11 15  1  0  0  0  0
 12 15  1  0  0  0  0
 12 13  1  0  0  0  0
 13  9  1  0  0  0  0
 14  3  1  0  0  0  0
 15  5  2  0  0  0  0
 16 11  1  0  0  0  0
 17 16  1  0  0  0  0
 18 23  1  6  0  0  0
 18 17  1  0  0  0  0
 19 22  1  0  0  0  0
 20 18  1  0  0  0  0
 20 21  2  0  0  0  0
 22 20  1  0  0  0  0
 24 25  2  0  0  0  0
 25 23  1  0  0  0  0
 25 26  1  0  0  0  0
M  END
>  <MODEL>
9

>  <REMARK>
 VINA RESULT:      -8.0      1.892      4.347
  Name = 
  6 active torsions:
  status: ('A' for Active; 'I' for Inactive)
    1  A    between atoms: C_8  and  C_20
    2  A    between atoms: C_14  and  O_16
    3  A    between atoms: C_15  and  C_24
    4  A    between atoms: O_16  and  N_18
    5  A    between atoms: N_18  and  C_24
    6  A    between atoms: C_20  and  C_24
                            x       y       z     vdW  Elec       q    Type
                         _______ _______ _______ _____ _____    ______ ____

>  <TORSDO>
F 6

$$$$
