=
 OpenBabel11032419333D

 31 36  0  0  1  0  0  0  0  0999 V2000
  189.9330  177.7690  136.9730 O   0  0  0  0  0  0  0  0  0  0  0  0
  187.4450  177.6700  136.9970 C   0  0  1  0  0  3  0  0  0  0  0  0
  188.7560  177.8570  137.7730 C   0  0  2  0  0  0  0  0  0  0  0  0
  188.8680  177.3820  139.2070 C   0  0  2  0  0  0  0  0  0  0  0  0
  187.4630  176.2130  137.3540 C   0  0  0  0  0  2  0  0  0  0  0  0
  188.8020  176.4000  138.0680 C   0  0  1  0  0  0  0  0  0  0  0  0
  190.7750  175.4230  136.7910 O   0  0  0  0  0  0  0  0  0  0  0  0
  187.7060  177.4820  139.9770 O   0  0  0  0  0  1  0  0  0  0  0  0
  190.0080  176.3410  137.1870 C   0  0  0  0  0  0  0  0  0  0  0  0
  190.2010  177.5970  139.9100 C   0  0  0  0  0  2  0  0  0  0  0  0
  190.3510  176.5050  142.1810 C   0  0  0  0  0  0  0  0  0  0  0  0
  190.5700  175.4340  142.8740 N   0  0  0  0  0  2  0  0  0  0  0  0
  190.5030  176.4560  140.7610 N   0  0  0  0  0  2  0  0  0  0  0  0
  188.6770  177.5410  143.6180 C   0  0  0  0  0  0  0  0  0  0  0  0
  189.4210  177.8980  144.7530 C   0  0  1  0  0  0  0  0  0  0  0  0
  187.3390  177.1970  143.6620 C   0  0  0  0  0  3  0  0  0  0  0  0
  189.8670  177.7670  142.8520 C   0  0  1  0  0  0  0  0  0  0  0  0
  188.8980  177.9390  146.0320 C   0  0  0  0  0  3  0  0  0  0  0  0
  186.7650  177.2270  144.9590 C   0  0  0  0  0  2  0  0  0  0  0  0
  190.6550  178.0900  143.9890 N   0  0  0  0  0  2  0  0  0  0  0  0
  187.5270  177.5880  146.1160 C   0  0  0  0  0  3  0  0  0  0  0  0
  186.2680  178.3860  137.6490 C   0  0  0  0  0  2  0  0  0  0  0  0
  185.1340  177.4830  137.7280 N   0  0  0  0  0  2  0  0  0  0  0  0
  183.9940  178.2710  138.1600 C   0  0  0  0  0  2  0  0  0  0  0  0
  184.4050  179.1730  139.3070 C   0  0  1  0  0  3  0  0  0  0  0  0
  184.0970  180.4940  138.9830 O   0  0  0  0  0  1  0  0  0  0  0  0
  183.6610  178.7640  140.5710 C   0  0  0  0  0  2  0  0  0  0  0  0
  184.6180  178.6170  141.7460 C   0  0  1  0  0  3  0  0  0  0  0  0
  185.5940  179.6140  141.6900 O   0  0  0  0  0  1  0  0  0  0  0  0
  182.4840  178.8510  142.7960 O   0  0  0  0  0  1  0  0  0  0  0  0
  183.8520  178.7460  143.0520 C   0  0  0  0  0  2  0  0  0  0  0  0
  1  9  1  0  0  0  0
  2  5  1  0  0  0  0
  2 22  1  1  0  0  0
  2  3  1  0  0  0  0
  3  1  1  6  0  0  0
  3  6  1  0  0  0  0
  3  4  1  0  0  0  0
  4 10  1  0  0  0  0
  4  8  1  1  0  0  0
  6  5  1  6  0  0  0
  6  4  1  0  0  0  0
  7  9  2  0  0  0  0
  9  6  1  0  0  0  0
 10 13  1  0  0  0  0
 11 12  2  0  0  0  0
 13 11  1  0  0  0  0
 14 16  2  0  0  0  0
 14 15  1  0  0  0  0
 15 18  1  6  0  0  0
 16 19  1  0  0  0  0
 17 11  1  1  0  0  0
 17 14  1  0  0  0  0
 17 20  1  0  0  0  0
 17 15  1  0  0  0  0
 18 21  2  0  0  0  0
 19 21  1  0  0  0  0
 20 15  1  0  0  0  0
 22 23  1  0  0  0  0
 23 24  1  0  0  0  0
 24 25  1  0  0  0  0
 25 26  1  6  0  0  0
 25 27  1  0  0  0  0
 27 28  1  0  0  0  0
 28 29  1  6  0  0  0
 28 31  1  0  0  0  0
 30 31  1  0  0  0  0
M  END
>  <MODEL>
1

>  <REMARK>
 VINA RESULT:      -7.4      0.000      0.000
  Name = 
  10 active torsions:
  status: ('A' for Active; 'I' for Inactive)
    1  A    between atoms: C_2  and  C_14
    2  A    between atoms: C_3  and  C_18
    3  A    between atoms: C_3  and  C_30
    4  A    between atoms: C_4  and  C_27
    5  A    between atoms: C_9  and  C_10
    6  A    between atoms: C_10  and  N_25
    7  A    between atoms: C_13  and  C_18
    8  A    between atoms: C_13  and  C_26
    9  A    between atoms: N_19  and  C_27
   10  A    between atoms: N_19  and  C_30
                            x       y       z     vdW  Elec       q    Type
                         _______ _______ _______ _____ _____    ______ ____

>  <TORSDO>
F 10

$$$$
=
 OpenBabel11032419333D

 31 36  0  0  1  0  0  0  0  0999 V2000
  191.9720  178.0760  145.0630 O   0  0  0  0  0  0  0  0  0  0  0  0
  191.7800  177.2140  142.7350 C   0  0  1  0  0  3  0  0  0  0  0  0
  191.1120  177.8880  143.9410 C   0  0  2  0  0  0  0  0  0  0  0  0
  189.6480  177.6420  144.2380 C   0  0  2  0  0  0  0  0  0  0  0  0
  191.2780  175.8870  143.2220 C   0  0  0  0  0  2  0  0  0  0  0  0
  190.6740  176.5620  144.4530 C   0  0  1  0  0  0  0  0  0  0  0  0
  191.9670  176.1030  146.5960 O   0  0  0  0  0  0  0  0  0  0  0  0
  188.8190  177.4670  143.1260 O   0  0  0  0  0  1  0  0  0  0  0  0
  191.6190  176.7770  145.5910 C   0  0  0  0  0  0  0  0  0  0  0  0
  189.0560  178.3400  145.4550 C   0  0  0  0  0  2  0  0  0  0  0  0
  186.7800  177.6800  146.3220 C   0  0  0  0  0  0  0  0  0  0  0  0
  186.0410  176.7950  146.9110 N   0  0  0  0  0  2  0  0  0  0  0  0
  188.1780  177.4290  146.1720 N   0  0  0  0  0  2  0  0  0  0  0  0
  185.5140  178.6550  144.4800 C   0  0  0  0  0  0  0  0  0  0  0  0
  184.3130  179.0370  145.0970 C   0  0  1  0  0  0  0  0  0  0  0  0
  185.6000  178.2640  143.1570 C   0  0  0  0  0  3  0  0  0  0  0  0
  186.1610  178.9230  145.7310 C   0  0  1  0  0  0  0  0  0  0  0  0
  183.0910  179.0570  144.4510 C   0  0  0  0  0  3  0  0  0  0  0  0
  184.3650  178.2730  142.4590 C   0  0  0  0  0  2  0  0  0  0  0  0
  184.9540  179.2720  146.3920 N   0  0  0  0  0  2  0  0  0  0  0  0
  183.1400  178.6590  143.0920 C   0  0  0  0  0  3  0  0  0  0  0  0
  191.1310  177.6010  141.4110 C   0  0  0  0  0  2  0  0  0  0  0  0
  190.7250  176.4010  140.7010 N   0  0  0  0  0  2  0  0  0  0  0  0
  189.7830  176.8140  139.6760 C   0  0  0  0  0  2  0  0  0  0  0  0
  190.3740  176.5480  138.3060 C   0  0  1  0  0  3  0  0  0  0  0  0
  190.3600  175.1760  138.0590 O   0  0  0  0  0  1  0  0  0  0  0  0
  189.5550  177.2730  137.2460 C   0  0  0  0  0  2  0  0  0  0  0  0
  188.6130  178.2870  137.8800 C   0  0  1  0  0  3  0  0  0  0  0  0
  189.0350  179.5820  137.5740 O   0  0  0  0  0  1  0  0  0  0  0  0
  186.2810  178.7140  138.1830 O   0  0  0  0  0  1  0  0  0  0  0  0
  187.2050  178.0840  137.3470 C   0  0  0  0  0  2  0  0  0  0  0  0
  1  9  1  0  0  0  0
  2 22  1  6  0  0  0
  2  5  1  0  0  0  0
  2  3  1  0  0  0  0
  3  4  1  0  0  0  0
  3  6  1  0  0  0  0
  3  1  1  1  0  0  0
  4  8  1  6  0  0  0
  4  6  1  0  0  0  0
  4 10  1  0  0  0  0
  6  5  1  6  0  0  0
  6  9  1  0  0  0  0
  9  7  2  0  0  0  0
 10 13  1  0  0  0  0
 11 12  2  0  0  0  0
 13 11  1  0  0  0  0
 14 15  1  0  0  0  0
 14 17  1  0  0  0  0
 15 18  1  6  0  0  0
 15 17  1  0  0  0  0
 15 20  1  0  0  0  0
 16 14  2  0  0  0  0
 17 11  1  1  0  0  0
 17 20  1  0  0  0  0
 19 21  1  0  0  0  0
 19 16  1  0  0  0  0
 21 18  2  0  0  0  0
 23 22  1  0  0  0  0
 24 23  1  0  0  0  0
 25 26  1  6  0  0  0
 25 24  1  0  0  0  0
 27 28  1  0  0  0  0
 27 25  1  0  0  0  0
 28 29  1  6  0  0  0
 31 28  1  0  0  0  0
 31 30  1  0  0  0  0
M  END
>  <MODEL>
2

>  <REMARK>
 VINA RESULT:      -7.2      2.896      6.247
  Name = 
  10 active torsions:
  status: ('A' for Active; 'I' for Inactive)
    1  A    between atoms: C_2  and  C_14
    2  A    between atoms: C_3  and  C_18
    3  A    between atoms: C_3  and  C_30
    4  A    between atoms: C_4  and  C_27
    5  A    between atoms: C_9  and  C_10
    6  A    between atoms: C_10  and  N_25
    7  A    between atoms: C_13  and  C_18
    8  A    between atoms: C_13  and  C_26
    9  A    between atoms: N_19  and  C_27
   10  A    between atoms: N_19  and  C_30
                            x       y       z     vdW  Elec       q    Type
                         _______ _______ _______ _____ _____    ______ ____

>  <TORSDO>
F 10

$$$$
=
 OpenBabel11032419333D

 31 36  0  0  1  0  0  0  0  0999 V2000
  187.6400  176.5230  138.2950 O   0  0  0  0  0  0  0  0  0  0  0  0
  189.5710  177.0070  136.8000 C   0  0  1  0  0  3  0  0  0  0  0  0
  189.0420  176.7690  138.2210 C   0  0  2  0  0  0  0  0  0  0  0  0
  189.6730  177.4820  139.3990 C   0  0  2  0  0  0  0  0  0  0  0  0
  189.4200  178.4840  137.0110 C   0  0  0  0  0  2  0  0  0  0  0  0
  188.8330  178.2310  138.3990 C   0  0  1  0  0  0  0  0  0  0  0  0
  186.3240  178.6360  138.5270 O   0  0  0  0  0  0  0  0  0  0  0  0
  191.0500  177.7080  139.3110 O   0  0  0  0  0  1  0  0  0  0  0  0
  187.3680  177.9380  138.4280 C   0  0  0  0  0  0  0  0  0  0  0  0
  189.0910  177.2000  140.7770 C   0  0  0  0  0  2  0  0  0  0  0  0
  190.3790  176.5780  142.8570 C   0  0  0  0  0  0  0  0  0  0  0  0
  191.1050  175.7070  143.4810 N   0  0  0  0  0  2  0  0  0  0  0  0
  189.9710  176.3070  141.5140 N   0  0  0  0  0  2  0  0  0  0  0  0
  188.6270  177.6280  144.1880 C   0  0  0  0  0  0  0  0  0  0  0  0
  189.2700  177.8660  145.4130 C   0  0  1  0  0  0  0  0  0  0  0  0
  187.2750  177.3690  144.0760 C   0  0  0  0  0  3  0  0  0  0  0  0
  189.9020  177.8240  143.5610 C   0  0  1  0  0  0  0  0  0  0  0  0
  188.6210  177.8610  146.6330 C   0  0  0  0  0  3  0  0  0  0  0  0
  186.5720  177.3560  145.3080 C   0  0  0  0  0  2  0  0  0  0  0  0
  190.5850  178.0240  144.7900 N   0  0  0  0  0  2  0  0  0  0  0  0
  187.2310  177.5950  146.5570 C   0  0  0  0  0  3  0  0  0  0  0  0
  191.0360  176.6150  136.6440 C   0  0  0  0  0  2  0  0  0  0  0  0
  191.1530  175.1680  136.6340 N   0  0  0  0  0  2  0  0  0  0  0  0
  192.0660  174.8090  137.7050 C   0  0  0  0  0  2  0  0  0  0  0  0
  193.4550  175.3220  137.3810 C   0  0  1  0  0  3  0  0  0  0  0  0
  193.8890  176.1520  138.4140 O   0  0  0  0  0  1  0  0  0  0  0  0
  194.4110  174.1470  137.2260 C   0  0  0  0  0  2  0  0  0  0  0  0
  195.6070  174.2860  138.1570 C   0  0  1  0  0  3  0  0  0  0  0  0
  195.6050  173.2450  139.0890 O   0  0  0  0  0  1  0  0  0  0  0  0
  197.5750  175.4450  137.4540 O   0  0  0  0  0  1  0  0  0  0  0  0
  196.8940  174.2300  137.3530 C   0  0  0  0  0  2  0  0  0  0  0  0
  1  9  1  0  0  0  0
  2 22  1  1  0  0  0
  2  5  1  0  0  0  0
  2  3  1  0  0  0  0
  3  1  1  1  0  0  0
  3  6  1  0  0  0  0
  3  4  1  0  0  0  0
  4  8  1  6  0  0  0
  4 10  1  0  0  0  0
  6  5  1  6  0  0  0
  6  9  1  0  0  0  0
  6  4  1  0  0  0  0
  9  7  2  0  0  0  0
 10 13  1  0  0  0  0
 11 12  2  0  0  0  0
 13 11  1  0  0  0  0
 14 15  1  0  0  0  0
 15 18  1  6  0  0  0
 16 14  2  0  0  0  0
 16 19  1  0  0  0  0
 17 11  1  1  0  0  0
 17 14  1  0  0  0  0
 17 20  1  0  0  0  0
 17 15  1  0  0  0  0
 19 21  1  0  0  0  0
 20 15  1  0  0  0  0
 21 18  2  0  0  0  0
 23 22  1  0  0  0  0
 23 24  1  0  0  0  0
 25 24  1  0  0  0  0
 25 26  1  1  0  0  0
 27 25  1  0  0  0  0
 27 28  1  0  0  0  0
 28 29  1  1  0  0  0
 31 30  1  0  0  0  0
 31 28  1  0  0  0  0
M  END
>  <MODEL>
3

>  <REMARK>
 VINA RESULT:      -7.1      2.976      6.703
  Name = 
  10 active torsions:
  status: ('A' for Active; 'I' for Inactive)
    1  A    between atoms: C_2  and  C_14
    2  A    between atoms: C_3  and  C_18
    3  A    between atoms: C_3  and  C_30
    4  A    between atoms: C_4  and  C_27
    5  A    between atoms: C_9  and  C_10
    6  A    between atoms: C_10  and  N_25
    7  A    between atoms: C_13  and  C_18
    8  A    between atoms: C_13  and  C_26
    9  A    between atoms: N_19  and  C_27
   10  A    between atoms: N_19  and  C_30
                            x       y       z     vdW  Elec       q    Type
                         _______ _______ _______ _____ _____    ______ ____

>  <TORSDO>
F 10

$$$$
=
 OpenBabel11032419333D

 31 36  0  0  1  0  0  0  0  0999 V2000
  187.9440  175.5960  137.4770 O   0  0  0  0  0  0  0  0  0  0  0  0
  190.0000  176.6890  138.3590 C   0  0  1  0  0  3  0  0  0  0  0  0
  188.4680  176.6060  138.3360 C   0  0  2  0  0  0  0  0  0  0  0  0
  187.6340  177.8590  138.5020 C   0  0  2  0  0  0  0  0  0  0  0  0
  189.9400  177.7520  137.3030 C   0  0  0  0  0  2  0  0  0  0  0  0
  188.4190  177.6130  137.2420 C   0  0  1  0  0  0  0  0  0  0  0  0
  187.5940  176.4290  135.1460 O   0  0  0  0  0  0  0  0  0  0  0  0
  188.1590  178.8350  139.3530 O   0  0  0  0  0  1  0  0  0  0  0  0
  187.9140  176.5170  136.3620 C   0  0  0  0  0  0  0  0  0  0  0  0
  186.1200  177.6990  138.4620 C   0  0  0  0  0  2  0  0  0  0  0  0
  184.3140  179.3190  139.1590 C   0  0  0  0  0  0  0  0  0  0  0  0
  183.8390  180.5220  139.1140 N   0  0  0  0  0  2  0  0  0  0  0  0
  185.4840  179.0060  138.4010 N   0  0  0  0  0  2  0  0  0  0  0  0
  184.1500  178.4020  141.4120 C   0  0  0  0  0  0  0  0  0  0  0  0
  182.8230  178.6870  141.7670 C   0  0  1  0  0  0  0  0  0  0  0  0
  185.1860  178.3390  142.3260 C   0  0  0  0  0  3  0  0  0  0  0  0
  183.6900  178.2820  140.0600 C   0  0  1  0  0  0  0  0  0  0  0  0
  182.4120  178.9390  143.0630 C   0  0  0  0  0  3  0  0  0  0  0  0
  184.8030  178.5910  143.6690 C   0  0  0  0  0  2  0  0  0  0  0  0
  182.3470  178.6100  140.3840 N   0  0  0  0  0  2  0  0  0  0  0  0
  183.4490  178.8850  144.0270 C   0  0  0  0  0  3  0  0  0  0  0  0
  190.5390  177.2420  139.6730 C   0  0  0  0  0  2  0  0  0  0  0  0
  190.1830  176.3470  140.7590 N   0  0  0  0  0  2  0  0  0  0  0  0
  190.1060  177.1520  141.9650 C   0  0  0  0  0  2  0  0  0  0  0  0
  188.7640  176.9370  142.6360 C   0  0  1  0  0  3  0  0  0  0  0  0
  188.6340  175.5910  142.9790 O   0  0  0  0  0  1  0  0  0  0  0  0
  188.6730  177.8010  143.8860 C   0  0  0  0  0  2  0  0  0  0  0  0
  189.1280  177.0320  145.1190 C   0  0  1  0  0  3  0  0  0  0  0  0
  190.4810  177.2810  145.3600 O   0  0  0  0  0  1  0  0  0  0  0  0
  186.9560  177.4430  146.0270 O   0  0  0  0  0  1  0  0  0  0  0  0
  188.3200  177.4710  146.3270 C   0  0  0  0  0  2  0  0  0  0  0  0
  2 22  1  1  0  0  0
  3  1  1  6  0  0  0
  3  2  1  0  0  0  0
  3  4  1  0  0  0  0
  4  8  1  1  0  0  0
  5  2  1  0  0  0  0
  6  5  1  6  0  0  0
  6  3  1  0  0  0  0
  6  4  1  0  0  0  0
  7  9  2  0  0  0  0
  9  6  1  0  0  0  0
  9  1  1  0  0  0  0
 10  4  1  0  0  0  0
 12 11  2  0  0  0  0
 13 10  1  0  0  0  0
 13 11  1  0  0  0  0
 14 15  1  0  0  0  0
 14 16  2  0  0  0  0
 15 18  1  1  0  0  0
 16 19  1  0  0  0  0
 17 11  1  6  0  0  0
 17 20  1  0  0  0  0
 17 14  1  0  0  0  0
 17 15  1  0  0  0  0
 18 21  2  0  0  0  0
 19 21  1  0  0  0  0
 20 15  1  0  0  0  0
 22 23  1  0  0  0  0
 23 24  1  0  0  0  0
 24 25  1  0  0  0  0
 25 26  1  1  0  0  0
 25 27  1  0  0  0  0
 27 28  1  0  0  0  0
 28 29  1  1  0  0  0
 28 31  1  0  0  0  0
 30 31  1  0  0  0  0
M  END
>  <MODEL>
4

>  <REMARK>
 VINA RESULT:      -7.0      2.195      5.489
  Name = 
  10 active torsions:
  status: ('A' for Active; 'I' for Inactive)
    1  A    between atoms: C_2  and  C_14
    2  A    between atoms: C_3  and  C_18
    3  A    between atoms: C_3  and  C_30
    4  A    between atoms: C_4  and  C_27
    5  A    between atoms: C_9  and  C_10
    6  A    between atoms: C_10  and  N_25
    7  A    between atoms: C_13  and  C_18
    8  A    between atoms: C_13  and  C_26
    9  A    between atoms: N_19  and  C_27
   10  A    between atoms: N_19  and  C_30
                            x       y       z     vdW  Elec       q    Type
                         _______ _______ _______ _____ _____    ______ ____

>  <TORSDO>
F 10

$$$$
=
 OpenBabel11032419333D

 31 36  0  0  1  0  0  0  0  0999 V2000
  183.1040  176.9940  140.2150 O   0  0  0  0  0  0  0  0  0  0  0  0
  184.2530  178.4990  138.5980 C   0  0  1  0  0  3  0  0  0  0  0  0
  184.1970  177.8840  140.0040 C   0  0  2  0  0  0  0  0  0  0  0  0
  184.6730  178.6780  141.2030 C   0  0  2  0  0  0  0  0  0  0  0  0
  183.5050  179.6940  139.1110 C   0  0  0  0  0  2  0  0  0  0  0  0
  183.3980  179.0410  140.4900 C   0  0  1  0  0  0  0  0  0  0  0  0
  181.0620  178.1860  141.0270 O   0  0  0  0  0  0  0  0  0  0  0  0
  185.7500  179.5390  140.9780 O   0  0  0  0  0  1  0  0  0  0  0  0
  182.2620  178.0850  140.6560 C   0  0  0  0  0  0  0  0  0  0  0  0
  184.5810  178.0040  142.5650 C   0  0  0  0  0  2  0  0  0  0  0  0
  185.2970  178.8300  144.8400 C   0  0  0  0  0  0  0  0  0  0  0  0
  185.3120  179.7920  145.7050 N   0  0  0  0  0  2  0  0  0  0  0  0
  184.5800  179.0090  143.6170 N   0  0  0  0  0  2  0  0  0  0  0  0
  187.4100  177.6530  144.5310 C   0  0  0  0  0  0  0  0  0  0  0  0
  187.8910  177.5320  145.8430 C   0  0  1  0  0  0  0  0  0  0  0  0
  188.2310  177.7650  143.4250 C   0  0  0  0  0  3  0  0  0  0  0  0
  186.0890  177.5690  145.0820 C   0  0  1  0  0  0  0  0  0  0  0  0
  189.2350  177.5160  146.1690 C   0  0  0  0  0  3  0  0  0  0  0  0
  189.6190  177.7510  143.7180 C   0  0  0  0  0  2  0  0  0  0  0  0
  186.5480  177.4890  146.4230 N   0  0  0  0  0  2  0  0  0  0  0  0
  190.1080  177.6310  145.0580 C   0  0  0  0  0  3  0  0  0  0  0  0
  185.6690  178.8720  138.1750 C   0  0  0  0  0  2  0  0  0  0  0  0
  186.5250  177.7010  138.2580 N   0  0  0  0  0  2  0  0  0  0  0  0
  187.5050  177.8170  137.1930 C   0  0  0  0  0  2  0  0  0  0  0  0
  188.8560  178.1720  137.7820 C   0  0  1  0  0  3  0  0  0  0  0  0
  189.0100  179.5580  137.7740 O   0  0  0  0  0  1  0  0  0  0  0  0
  188.9430  177.6500  139.2110 C   0  0  0  0  0  2  0  0  0  0  0  0
  190.3640  177.2270  139.5540 C   0  0  1  0  0  3  0  0  0  0  0  0
  190.3450  176.3060  140.6040 O   0  0  0  0  0  1  0  0  0  0  0  0
  190.8960  175.1950  138.4140 O   0  0  0  0  0  1  0  0  0  0  0  0
  191.0170  176.5840  138.3420 C   0  0  0  0  0  2  0  0  0  0  0  0
  1  9  1  0  0  0  0
  2 22  1  1  0  0  0
  2  5  1  0  0  0  0
  2  3  1  0  0  0  0
  3  1  1  1  0  0  0
  3  6  1  0  0  0  0
  3  4  1  0  0  0  0
  4  8  1  6  0  0  0
  4 10  1  0  0  0  0
  6  5  1  6  0  0  0
  6  9  1  0  0  0  0
  6  4  1  0  0  0  0
  9  7  2  0  0  0  0
 10 13  1  0  0  0  0
 11 12  2  0  0  0  0
 13 11  1  0  0  0  0
 14 17  1  0  0  0  0
 14 15  1  0  0  0  0
 15 18  1  6  0  0  0
 15 20  1  0  0  0  0
 16 19  1  0  0  0  0
 16 14  2  0  0  0  0
 17 11  1  1  0  0  0
 17 15  1  0  0  0  0
 17 20  1  0  0  0  0
 19 21  1  0  0  0  0
 21 18  2  0  0  0  0
 22 23  1  0  0  0  0
 24 25  1  0  0  0  0
 24 23  1  0  0  0  0
 25 26  1  1  0  0  0
 25 27  1  0  0  0  0
 27 28  1  0  0  0  0
 28 29  1  1  0  0  0
 31 30  1  0  0  0  0
 31 28  1  0  0  0  0
M  END
>  <MODEL>
5

>  <REMARK>
 VINA RESULT:      -7.0      2.191      5.678
  Name = 
  10 active torsions:
  status: ('A' for Active; 'I' for Inactive)
    1  A    between atoms: C_2  and  C_14
    2  A    between atoms: C_3  and  C_18
    3  A    between atoms: C_3  and  C_30
    4  A    between atoms: C_4  and  C_27
    5  A    between atoms: C_9  and  C_10
    6  A    between atoms: C_10  and  N_25
    7  A    between atoms: C_13  and  C_18
    8  A    between atoms: C_13  and  C_26
    9  A    between atoms: N_19  and  C_27
   10  A    between atoms: N_19  and  C_30
                            x       y       z     vdW  Elec       q    Type
                         _______ _______ _______ _____ _____    ______ ____

>  <TORSDO>
F 10

$$$$
=
 OpenBabel11032419333D

 31 36  0  0  1  0  0  0  0  0999 V2000
  191.4570  178.4710  144.2010 O   0  0  0  0  0  0  0  0  0  0  0  0
  191.4100  176.8630  142.3010 C   0  0  1  0  0  3  0  0  0  0  0  0
  190.6360  177.7480  143.2880 C   0  0  2  0  0  0  0  0  0  0  0  0
  189.2720  177.3200  143.7880 C   0  0  2  0  0  0  0  0  0  0  0  0
  191.2310  175.7000  143.2320 C   0  0  0  0  0  2  0  0  0  0  0  0
  190.5200  176.6080  144.2360 C   0  0  1  0  0  0  0  0  0  0  0  0
  191.9340  177.1630  146.2780 O   0  0  0  0  0  0  0  0  0  0  0  0
  188.4780  176.6190  142.8760 O   0  0  0  0  0  1  0  0  0  0  0  0
  191.4190  177.3780  145.1480 C   0  0  0  0  0  0  0  0  0  0  0  0
  188.5680  178.2470  144.7690 C   0  0  0  0  0  2  0  0  0  0  0  0
  186.4600  177.8080  146.0870 C   0  0  0  0  0  0  0  0  0  0  0  0
  185.8070  177.0320  146.8900 N   0  0  0  0  0  2  0  0  0  0  0  0
  187.7990  177.4650  145.7260 N   0  0  0  0  0  2  0  0  0  0  0  0
  185.2320  178.7230  144.1900 C   0  0  0  0  0  0  0  0  0  0  0  0
  183.9770  179.0150  144.7460 C   0  0  1  0  0  0  0  0  0  0  0  0
  185.4140  178.3580  142.8700 C   0  0  0  0  0  3  0  0  0  0  0  0
  185.7920  179.0160  145.4770 C   0  0  1  0  0  0  0  0  0  0  0  0
  182.7920  178.9640  144.0340 C   0  0  0  0  0  3  0  0  0  0  0  0
  184.2200  178.2950  142.1050 C   0  0  0  0  0  2  0  0  0  0  0  0
  184.5300  179.2740  146.0760 N   0  0  0  0  0  2  0  0  0  0  0  0
  182.9410  178.5900  142.6750 C   0  0  0  0  0  3  0  0  0  0  0  0
  190.6590  176.6450  140.9930 C   0  0  0  0  0  2  0  0  0  0  0  0
  191.2580  177.4570  139.9480 N   0  0  0  0  0  2  0  0  0  0  0  0
  191.5210  176.5770  138.8250 C   0  0  0  0  0  2  0  0  0  0  0  0
  192.9780  176.6900  138.4200 C   0  0  1  0  0  3  0  0  0  0  0  0
  193.7320  177.0800  139.5270 O   0  0  0  0  0  1  0  0  0  0  0  0
  193.4720  175.3440  137.9070 C   0  0  0  0  0  2  0  0  0  0  0  0
  194.1960  175.4970  136.5760 C   0  0  1  0  0  3  0  0  0  0  0  0
  194.4750  176.8450  136.3410 O   0  0  0  0  0  1  0  0  0  0  0  0
  196.5820  175.5910  136.4770 O   0  0  0  0  0  1  0  0  0  0  0  0
  195.4990  174.7180  136.6070 C   0  0  0  0  0  2  0  0  0  0  0  0
  1  9  1  0  0  0  0
  2 22  1  6  0  0  0
  2  5  1  0  0  0  0
  2  3  1  0  0  0  0
  3  4  1  0  0  0  0
  3  1  1  1  0  0  0
  3  6  1  0  0  0  0
  4  8  1  6  0  0  0
  4  6  1  0  0  0  0
  4 10  1  0  0  0  0
  6  5  1  6  0  0  0
  6  9  1  0  0  0  0
  9  7  2  0  0  0  0
 10 13  1  0  0  0  0
 11 12  2  0  0  0  0
 13 11  1  0  0  0  0
 14 15  1  0  0  0  0
 14 17  1  0  0  0  0
 15 18  1  6  0  0  0
 15 17  1  0  0  0  0
 15 20  1  0  0  0  0
 16 14  2  0  0  0  0
 17 20  1  0  0  0  0
 17 11  1  1  0  0  0
 19 21  1  0  0  0  0
 19 16  1  0  0  0  0
 21 18  2  0  0  0  0
 23 22  1  0  0  0  0
 24 23  1  0  0  0  0
 25 24  1  0  0  0  0
 25 26  1  1  0  0  0
 27 25  1  0  0  0  0
 28 29  1  1  0  0  0
 28 31  1  0  0  0  0
 28 27  1  0  0  0  0
 30 31  1  0  0  0  0
M  END
>  <MODEL>
6

>  <REMARK>
 VINA RESULT:      -6.9      3.459      7.790
  Name = 
  10 active torsions:
  status: ('A' for Active; 'I' for Inactive)
    1  A    between atoms: C_2  and  C_14
    2  A    between atoms: C_3  and  C_18
    3  A    between atoms: C_3  and  C_30
    4  A    between atoms: C_4  and  C_27
    5  A    between atoms: C_9  and  C_10
    6  A    between atoms: C_10  and  N_25
    7  A    between atoms: C_13  and  C_18
    8  A    between atoms: C_13  and  C_26
    9  A    between atoms: N_19  and  C_27
   10  A    between atoms: N_19  and  C_30
                            x       y       z     vdW  Elec       q    Type
                         _______ _______ _______ _____ _____    ______ ____

>  <TORSDO>
F 10

$$$$
=
 OpenBabel11032419333D

 31 36  0  0  1  0  0  0  0  0999 V2000
  184.6140  177.9770  146.3120 O   0  0  0  0  0  0  0  0  0  0  0  0
  183.4390  179.0040  144.3710 C   0  0  1  0  0  3  0  0  0  0  0  0
  184.5680  178.1030  144.8920 C   0  0  2  0  0  0  0  0  0  0  0  0
  185.8910  178.0360  144.1590 C   0  0  2  0  0  0  0  0  0  0  0  0
  184.3970  180.1580  144.3470 C   0  0  0  0  0  2  0  0  0  0  0  0
  185.4940  179.2670  144.9290 C   0  0  1  0  0  0  0  0  0  0  0  0
  186.0090  179.7590  147.3720 O   0  0  0  0  0  0  0  0  0  0  0  0
  185.8250  178.1550  142.7670 O   0  0  0  0  0  1  0  0  0  0  0  0
  185.4820  179.1300  146.4170 C   0  0  0  0  0  0  0  0  0  0  0  0
  186.9640  177.1260  144.7380 C   0  0  0  0  0  2  0  0  0  0  0  0
  189.3080  177.6650  143.9730 C   0  0  0  0  0  0  0  0  0  0  0  0
  190.3670  178.3960  144.1060 N   0  0  0  0  0  2  0  0  0  0  0  0
  188.2150  177.8560  144.8730 N   0  0  0  0  0  2  0  0  0  0  0  0
  189.0610  177.3370  141.5700 C   0  0  0  0  0  0  0  0  0  0  0  0
  190.2820  176.7480  141.2100 C   0  0  1  0  0  0  0  0  0  0  0  0
  188.3290  178.1500  140.7240 C   0  0  0  0  0  3  0  0  0  0  0  0
  189.1950  176.6790  142.8360 C   0  0  1  0  0  0  0  0  0  0  0  0
  190.8840  176.9200  139.9780 C   0  0  0  0  0  3  0  0  0  0  0  0
  188.9150  178.3510  139.4470 C   0  0  0  0  0  2  0  0  0  0  0  0
  190.4540  176.1050  142.5150 N   0  0  0  0  0  2  0  0  0  0  0  0
  190.1630  177.7510  139.0840 C   0  0  0  0  0  3  0  0  0  0  0  0
  182.9890  178.6280  142.9640 C   0  0  0  0  0  2  0  0  0  0  0  0
  181.5490  178.7810  142.8580 N   0  0  0  0  0  2  0  0  0  0  0  0
  181.2670  179.2070  141.4990 C   0  0  0  0  0  2  0  0  0  0  0  0
  182.1990  178.4930  140.5390 C   0  0  1  0  0  3  0  0  0  0  0  0
  181.6240  177.2800  140.1600 O   0  0  0  0  0  1  0  0  0  0  0  0
  182.4310  179.3620  139.3100 C   0  0  0  0  0  2  0  0  0  0  0  0
  183.9150  179.4770  138.9930 C   0  0  1  0  0  3  0  0  0  0  0  0
  184.6290  179.7580  140.1610 O   0  0  0  0  0  1  0  0  0  0  0  0
  185.7580  178.2990  138.0310 O   0  0  0  0  0  1  0  0  0  0  0  0
  184.4190  178.1710  138.4060 C   0  0  0  0  0  2  0  0  0  0  0  0
  1  9  1  0  0  0  0
  2 22  1  6  0  0  0
  2  3  1  0  0  0  0
  3  6  1  0  0  0  0
  3  1  1  1  0  0  0
  4  8  1  6  0  0  0
  4 10  1  0  0  0  0
  4  3  1  0  0  0  0
  4  6  1  0  0  0  0
  5  2  1  0  0  0  0
  6  5  1  6  0  0  0
  6  9  1  0  0  0  0
  9  7  2  0  0  0  0
 10 13  1  0  0  0  0
 11 12  2  0  0  0  0
 11 13  1  0  0  0  0
 14 17  1  0  0  0  0
 15 18  1  6  0  0  0
 15 14  1  0  0  0  0
 15 20  1  0  0  0  0
 15 17  1  0  0  0  0
 16 14  2  0  0  0  0
 17 11  1  1  0  0  0
 19 16  1  0  0  0  0
 20 17  1  0  0  0  0
 21 19  1  0  0  0  0
 21 18  2  0  0  0  0
 23 22  1  0  0  0  0
 24 23  1  0  0  0  0
 25 26  1  6  0  0  0
 25 24  1  0  0  0  0
 27 25  1  0  0  0  0
 28 27  1  0  0  0  0
 28 29  1  1  0  0  0
 30 31  1  0  0  0  0
 31 28  1  0  0  0  0
M  END
>  <MODEL>
7

>  <REMARK>
 VINA RESULT:      -6.8      2.418      6.091
  Name = 
  10 active torsions:
  status: ('A' for Active; 'I' for Inactive)
    1  A    between atoms: C_2  and  C_14
    2  A    between atoms: C_3  and  C_18
    3  A    between atoms: C_3  and  C_30
    4  A    between atoms: C_4  and  C_27
    5  A    between atoms: C_9  and  C_10
    6  A    between atoms: C_10  and  N_25
    7  A    between atoms: C_13  and  C_18
    8  A    between atoms: C_13  and  C_26
    9  A    between atoms: N_19  and  C_27
   10  A    between atoms: N_19  and  C_30
                            x       y       z     vdW  Elec       q    Type
                         _______ _______ _______ _____ _____    ______ ____

>  <TORSDO>
F 10

$$$$
=
 OpenBabel11032419333D

 31 36  0  0  1  0  0  0  0  0999 V2000
  190.0700  175.8480  142.3180 O   0  0  0  0  0  0  0  0  0  0  0  0
  188.2480  176.8670  143.6740 C   0  0  1  0  0  3  0  0  0  0  0  0
  188.8800  176.6320  142.2950 C   0  0  2  0  0  0  0  0  0  0  0  0
  188.7850  177.6960  141.2210 C   0  0  2  0  0  0  0  0  0  0  0  0
  188.9890  178.1680  143.7720 C   0  0  0  0  0  2  0  0  0  0  0  0
  189.6630  177.8900  142.4280 C   0  0  1  0  0  0  0  0  0  0  0  0
  192.1160  177.2470  142.6380 O   0  0  0  0  0  0  0  0  0  0  0  0
  187.6080  178.4500  141.2100 O   0  0  0  0  0  1  0  0  0  0  0  0
  190.8840  177.0310  142.4920 C   0  0  0  0  0  0  0  0  0  0  0  0
  189.4410  177.3940  139.8810 C   0  0  0  0  0  2  0  0  0  0  0  0
  188.3890  178.3520  137.7960 C   0  0  0  0  0  0  0  0  0  0  0  0
  188.1680  179.3880  137.0530 N   0  0  0  0  0  2  0  0  0  0  0  0
  189.2110  178.4940  138.9570 N   0  0  0  0  0  2  0  0  0  0  0  0
  186.3090  177.1720  137.3250 C   0  0  0  0  0  0  0  0  0  0  0  0
  186.4880  176.7460  136.0000 C   0  0  1  0  0  0  0  0  0  0  0  0
  185.0750  177.4820  137.8660 C   0  0  0  0  0  3  0  0  0  0  0  0
  187.7260  177.0320  137.4880 C   0  0  1  0  0  0  0  0  0  0  0  0
  185.4520  176.5960  135.0970 C   0  0  0  0  0  3  0  0  0  0  0  0
  183.9850  177.3390  136.9680 C   0  0  0  0  0  2  0  0  0  0  0  0
  187.9410  176.6410  136.1400 N   0  0  0  0  0  2  0  0  0  0  0  0
  184.1710  176.9080  135.6160 C   0  0  0  0  0  3  0  0  0  0  0  0
  186.7420  177.0920  143.6000 C   0  0  0  0  0  2  0  0  0  0  0  0
  186.3610  178.1370  144.5330 N   0  0  0  0  0  2  0  0  0  0  0  0
  186.3610  177.5430  145.8580 C   0  0  0  0  0  2  0  0  0  0  0  0
  186.6920  178.6030  146.8900 C   0  0  1  0  0  3  0  0  0  0  0  0
  185.5070  179.1240  147.4090 O   0  0  0  0  0  1  0  0  0  0  0  0
  187.5200  177.9860  148.0090 C   0  0  0  0  0  2  0  0  0  0  0  0
  189.0090  178.0770  147.7050 C   0  0  1  0  0  3  0  0  0  0  0  0
  189.7000  178.4970  148.8430 O   0  0  0  0  0  1  0  0  0  0  0  0
  190.9260  176.7320  147.2310 O   0  0  0  0  0  1  0  0  0  0  0  0
  189.5310  176.7150  147.2810 C   0  0  0  0  0  2  0  0  0  0  0  0
  1  9  1  0  0  0  0
  2 22  1  6  0  0  0
  2  5  1  0  0  0  0
  3  1  1  6  0  0  0
  3  6  1  0  0  0  0
  3  2  1  0  0  0  0
  4  8  1  6  0  0  0
  4  3  1  0  0  0  0
  4  6  1  0  0  0  0
  6  9  1  0  0  0  0
  6  5  1  1  0  0  0
  9  7  2  0  0  0  0
 10  4  1  0  0  0  0
 11 13  1  0  0  0  0
 12 11  2  0  0  0  0
 13 10  1  0  0  0  0
 14 17  1  0  0  0  0
 14 16  2  0  0  0  0
 15 18  1  1  0  0  0
 15 20  1  0  0  0  0
 15 14  1  0  0  0  0
 15 17  1  0  0  0  0
 17 11  1  6  0  0  0
 18 21  2  0  0  0  0
 19 16  1  0  0  0  0
 20 17  1  0  0  0  0
 21 19  1  0  0  0  0
 22 23  1  0  0  0  0
 23 24  1  0  0  0  0
 24 25  1  0  0  0  0
 25 26  1  1  0  0  0
 25 27  1  0  0  0  0
 28 27  1  0  0  0  0
 28 29  1  1  0  0  0
 30 31  1  0  0  0  0
 31 28  1  0  0  0  0
M  END
>  <MODEL>
8

>  <REMARK>
 VINA RESULT:      -6.7      3.149      7.122
  Name = 
  10 active torsions:
  status: ('A' for Active; 'I' for Inactive)
    1  A    between atoms: C_2  and  C_14
    2  A    between atoms: C_3  and  C_18
    3  A    between atoms: C_3  and  C_30
    4  A    between atoms: C_4  and  C_27
    5  A    between atoms: C_9  and  C_10
    6  A    between atoms: C_10  and  N_25
    7  A    between atoms: C_13  and  C_18
    8  A    between atoms: C_13  and  C_26
    9  A    between atoms: N_19  and  C_27
   10  A    between atoms: N_19  and  C_30
                            x       y       z     vdW  Elec       q    Type
                         _______ _______ _______ _____ _____    ______ ____

>  <TORSDO>
F 10

$$$$
=
 OpenBabel11032419333D

 31 36  0  0  1  0  0  0  0  0999 V2000
  190.4150  175.8510  142.1160 O   0  0  0  0  0  0  0  0  0  0  0  0
  188.8310  176.9090  143.7190 C   0  0  1  0  0  3  0  0  0  0  0  0
  189.2120  176.6010  142.2640 C   0  0  2  0  0  0  0  0  0  0  0  0
  188.8830  177.5890  141.1640 C   0  0  2  0  0  0  0  0  0  0  0  0
  189.5280  178.2320  143.6020 C   0  0  0  0  0  2  0  0  0  0  0  0
  189.9570  177.8850  142.1760 C   0  0  1  0  0  0  0  0  0  0  0  0
  192.4310  177.3220  141.9720 O   0  0  0  0  0  0  0  0  0  0  0  0
  187.6960  178.3100  141.3240 O   0  0  0  0  0  1  0  0  0  0  0  0
  191.2010  177.0650  142.0670 C   0  0  0  0  0  0  0  0  0  0  0  0
  189.2970  177.2170  139.7480 C   0  0  0  0  0  2  0  0  0  0  0  0
  188.0670  178.2860  137.8190 C   0  0  0  0  0  0  0  0  0  0  0  0
  187.8530  179.3400  137.1010 N   0  0  0  0  0  2  0  0  0  0  0  0
  189.0550  178.3370  138.8500 N   0  0  0  0  0  2  0  0  0  0  0  0
  185.8290  177.3440  137.5980 C   0  0  0  0  0  0  0  0  0  0  0  0
  185.8230  176.8660  136.2790 C   0  0  1  0  0  0  0  0  0  0  0  0
  184.7000  177.8090  138.2450 C   0  0  0  0  0  3  0  0  0  0  0  0
  187.2300  177.0440  137.6260 C   0  0  1  0  0  0  0  0  0  0  0  0
  184.6910  176.8150  135.4870 C   0  0  0  0  0  3  0  0  0  0  0  0
  183.5150  177.7710  137.4650 C   0  0  0  0  0  2  0  0  0  0  0  0
  187.2620  176.5970  136.2790 N   0  0  0  0  0  2  0  0  0  0  0  0
  183.5130  177.2870  136.1170 C   0  0  0  0  0  3  0  0  0  0  0  0
  187.3290  177.0880  143.9090 C   0  0  0  0  0  2  0  0  0  0  0  0
  187.0300  177.2120  145.3240 N   0  0  0  0  0  2  0  0  0  0  0  0
  186.4150  178.5140  145.5150 C   0  0  0  0  0  2  0  0  0  0  0  0
  184.9120  178.3530  145.6340 C   0  0  1  0  0  3  0  0  0  0  0  0
  184.5250  178.6260  146.9450 O   0  0  0  0  0  1  0  0  0  0  0  0
  184.2180  179.3150  144.6790 C   0  0  0  0  0  2  0  0  0  0  0  0
  183.2720  178.5730  143.7450 C   0  0  1  0  0  3  0  0  0  0  0  0
  181.9560  178.9740  143.9880 O   0  0  0  0  0  1  0  0  0  0  0  0
  184.3970  177.8480  141.7660 O   0  0  0  0  0  1  0  0  0  0  0  0
  183.6260  178.8820  142.3010 C   0  0  0  0  0  2  0  0  0  0  0  0
  2 22  1  6  0  0  0
  3  1  1  6  0  0  0
  3  2  1  0  0  0  0
  4  8  1  1  0  0  0
  4  6  1  0  0  0  0
  4  3  1  0  0  0  0
  5  2  1  0  0  0  0
  6  3  1  0  0  0  0
  6  5  1  1  0  0  0
  7  9  2  0  0  0  0
  9  1  1  0  0  0  0
  9  6  1  0  0  0  0
 10  4  1  0  0  0  0
 11 13  1  0  0  0  0
 12 11  2  0  0  0  0
 13 10  1  0  0  0  0
 14 17  1  0  0  0  0
 14 16  2  0  0  0  0
 15 18  1  1  0  0  0
 15 14  1  0  0  0  0
 15 17  1  0  0  0  0
 17 11  1  6  0  0  0
 18 21  2  0  0  0  0
 19 16  1  0  0  0  0
 20 15  1  0  0  0  0
 20 17  1  0  0  0  0
 21 19  1  0  0  0  0
 22 23  1  0  0  0  0
 23 24  1  0  0  0  0
 24 25  1  0  0  0  0
 25 26  1  1  0  0  0
 27 25  1  0  0  0  0
 28 29  1  1  0  0  0
 28 27  1  0  0  0  0
 30 31  1  0  0  0  0
 31 28  1  0  0  0  0
M  END
>  <MODEL>
9

>  <REMARK>
 VINA RESULT:      -6.5      2.336      6.312
  Name = 
  10 active torsions:
  status: ('A' for Active; 'I' for Inactive)
    1  A    between atoms: C_2  and  C_14
    2  A    between atoms: C_3  and  C_18
    3  A    between atoms: C_3  and  C_30
    4  A    between atoms: C_4  and  C_27
    5  A    between atoms: C_9  and  C_10
    6  A    between atoms: C_10  and  N_25
    7  A    between atoms: C_13  and  C_18
    8  A    between atoms: C_13  and  C_26
    9  A    between atoms: N_19  and  C_27
   10  A    between atoms: N_19  and  C_30
                            x       y       z     vdW  Elec       q    Type
                         _______ _______ _______ _____ _____    ______ ____

>  <TORSDO>
F 10

$$$$
