=
 OpenBabel11042412443D

 57 64  0  0  1  0  0  0  0  0999 V2000
  186.7840  174.6380  134.9430 O   0  0  0  0  0  0  0  0  0  0  0  0
  189.2010  178.4450  135.1990 C   0  0  0  0  0  1  0  0  0  0  0  0
  189.2720  177.1760  137.3460 C   0  0  1  0  0  3  0  0  0  0  0  0
  188.6690  175.8880  137.9010 C   0  0  0  0  0  2  0  0  0  0  0  0
  185.9660  177.3100  137.6940 O   0  0  0  0  0  0  0  0  0  0  0  0
  183.9250  175.6200  136.1700 C   0  0  2  0  0  0  0  0  0  0  0  0
  187.8050  173.7150  137.3280 O   0  0  0  0  0  0  0  0  0  0  0  0
  186.4270  173.9710  137.3230 C   0  0  0  0  0  2  0  0  0  0  0  0
  185.9510  173.9620  135.8740 C   0  0  1  0  0  3  0  0  0  0  0  0
  188.3590  177.8480  136.3110 C   0  0  2  0  0  3  0  0  0  0  0  0
  184.4620  174.2640  135.6750 C   0  0  0  0  0  2  0  0  0  0  0  0
  187.2770  176.9280  135.7170 C   0  0  1  0  0  3  0  0  0  0  0  0
  184.8000  176.6960  135.8010 O   0  0  0  0  0  0  0  0  0  0  0  0
  187.7490  175.4670  135.5660 C   0  0  1  0  0  3  0  0  0  0  0  0
  188.5030  174.8300  136.7970 C   0  0  1  0  0  0  0  0  0  0  0  0
  185.9840  177.0150  136.4690 C   0  0  0  0  0  0  0  0  0  0  0  0
  183.7240  175.5550  137.6780 C   0  0  0  0  0  1  0  0  0  0  0  0
  191.0910  175.2340  136.6890 C   0  0  2  0  0  3  0  0  0  0  0  0
  191.4060  172.6460  135.3940 C   0  0  0  0  0  3  0  0  0  0  0  0
  190.0730  173.1310  135.7810 C   0  0  0  0  0  0  0  0  0  0  0  0
  192.4480  174.7360  136.1970 C   0  0  1  0  0  0  0  0  0  0  0  0
  189.8980  174.3410  136.3780 C   0  0  0  0  0  0  0  0  0  0  0  0
  188.9340  172.2180  135.4710 C   0  0  0  0  0  1  0  0  0  0  0  0
  192.5030  173.3730  135.5780 C   0  0  0  0  0  3  0  0  0  0  0  0
  191.6900  175.7710  135.3880 C   0  0  0  0  0  2  0  0  0  0  0  0
  193.6630  175.2660  136.9170 C   0  0  0  0  0  0  0  0  0  0  0  0
  193.9700  176.4400  136.8020 O   0  0  0  0  0  0  0  0  0  0  0  0
  194.5230  174.3790  137.7570 C   0  0  0  0  0  1  0  0  0  0  0  0
  189.5350  178.0630  138.3960 O   0  0  0  0  0  0  0  0  0  0  0  0
  191.3270  177.1190  139.6640 C   0  0  0  0  0  1  0  0  0  0  0  0
  189.8190  177.2560  139.5040 C   0  0  1  0  0  3  0  0  0  0  0  0
  189.1640  177.8270  140.7650 C   0  0  1  0  0  3  0  0  0  0  0  0
  188.1700  178.7450  140.4220 O   0  0  0  0  0  1  0  0  0  0  0  0
  188.5980  176.7680  141.5970 N   0  0  0  0  0  2  0  0  0  0  0  0
  190.3130  177.6950  143.1110 C   0  0  2  0  0  3  0  0  0  0  0  0
  190.3960  178.7000  144.2790 C   0  0  0  0  0  2  0  0  0  0  0  0
  189.0570  177.5520  146.0640 C   0  0  0  0  0  3  0  0  0  0  0  0
  187.8320  177.6420  143.8750 C   0  0  0  0  0  2  0  0  0  0  0  0
  188.9400  177.0420  142.9890 C   0  0  1  0  0  0  0  0  0  0  0  0
  187.9630  177.3190  145.3340 C   0  0  0  0  0  3  0  0  0  0  0  0
  190.2450  178.1130  145.5720 O   0  0  0  0  0  0  0  0  0  0  0  0
  190.1070  176.2460  143.5520 C   0  0  0  0  0  2  0  0  0  0  0  0
  182.5990  175.8320  135.5760 N   0  0  0  0  0  2  0  0  0  0  0  0
  180.4670  175.6460  136.3830 C   0  0  0  0  0  1  0  0  0  0  0  0
  181.7180  176.3730  136.5300 N   0  0  0  0  0  0  0  0  0  0  0  0
  181.4580  177.7570  136.1440 C   0  0  0  0  0  2  0  0  0  0  0  0
  181.3280  178.6920  137.3690 C   0  0  2  0  0  0  0  0  0  0  0  0
  181.0830  180.1370  136.9200 C   0  0  0  0  0  1  0  0  0  0  0  0
  182.6340  178.6260  139.6390 C   0  0  2  0  0  0  0  0  0  0  0  0
  184.2810  180.2590  138.9870 O   0  0  0  0  0  1  0  0  0  0  0  0
  182.9180  179.9630  138.9660 C   0  0  1  0  0  3  0  0  0  0  0  0
  183.7420  178.0100  140.2260 O   0  0  0  0  0  1  0  0  0  0  0  0
  182.6850  178.7050  138.1170 C   0  0  2  0  0  3  0  0  0  0  0  0
  181.3370  178.5390  140.3770 C   0  0  0  0  0  3  0  0  0  0  0  0
  181.1400  179.2360  141.3560 O   0  0  0  0  0  0  0  0  0  0  0  0
  179.0500  178.8100  137.8150 C   0  0  0  0  0  1  0  0  0  0  0  0
  180.2800  178.2610  138.2290 O   0  0  0  0  0  0  0  0  0  0  0  0
  1  9  1  0  0  0  0
  3  4  1  0  0  0  0
  3 29  1  1  0  0  0
  6 17  1  1  0  0  0
  8  7  1  0  0  0  0
  9 11  1  1  0  0  0
  9  8  1  0  0  0  0
 10  2  1  6  0  0  0
 10  3  1  0  0  0  0
 11  6  1  0  0  0  0
 12 10  1  0  0  0  0
 12 16  1  1  0  0  0
 13  6  1  0  0  0  0
 13 16  1  0  0  0  0
 14  1  1  1  0  0  0
 14 12  1  0  0  0  0
 14 15  1  0  0  0  0
 15 22  1  6  0  0  0
 15  7  1  0  0  0  0
 15  4  1  0  0  0  0
 16  5  2  0  0  0  0
 18 25  1  6  0  0  0
 19 24  2  0  0  0  0
 19 20  1  0  0  0  0
 20 22  2  0  0  0  0
 21 18  1  0  0  0  0
 21 26  1  1  0  0  0
 22 18  1  0  0  0  0
 23 20  1  0  0  0  0
 24 21  1  0  0  0  0
 25 21  1  0  0  0  0
 26 28  1  0  0  0  0
 27 26  2  0  0  0  0
 29 31  1  0  0  0  0
 31 30  1  1  0  0  0
 31 32  1  0  0  0  0
 32 33  1  6  0  0  0
 32 34  1  0  0  0  0
 35 42  1  1  0  0  0
 35 36  1  0  0  0  0
 36 41  1  0  0  0  0
 38 40  1  0  0  0  0
 39 34  1  6  0  0  0
 39 35  1  0  0  0  0
 39 42  1  0  0  0  0
 39 38  1  0  0  0  0
 40 37  2  0  0  0  0
 41 37  1  0  0  0  0
 43  6  1  0  0  0  0
 43 45  1  0  0  0  0
 44 45  1  0  0  0  0
 46 45  1  0  0  0  0
 46 47  1  0  0  0  0
 47 48  1  6  0  0  0
 47 57  1  0  0  0  0
 49 52  1  1  0  0  0
 49 54  1  0  0  0  0
 51 50  1  1  0  0  0
 51 49  1  0  0  0  0
 53 47  1  6  0  0  0
 53 51  1  0  0  0  0
 53 49  1  0  0  0  0
 54 55  2  0  0  0  0
 56 57  1  0  0  0  0
M  END
>  <MODEL>
1

>  <REMARK>
 VINA RESULT:      -7.0      0.000      0.000
  Name = 
  14 active torsions:
  status: ('A' for Active; 'I' for Inactive)
    1  A    between atoms: C_1  and  C_10
    2  A    between atoms: C_8  and  O_46
    3  A    between atoms: N_9  and  C_16
    4  A    between atoms: N_9  and  C_33
    5  A    between atoms: C_16  and  C_43
    6  A    between atoms: C_18  and  N_35
    7  A    between atoms: C_18  and  C_54
    8  A    between atoms: C_19  and  N_49
    9  A    between atoms: C_25  and  C_42
   10  A    between atoms: O_28  and  C_54
   11  A    between atoms: C_29  and  C_54
   12  A    between atoms: N_35  and  N_49
   13  A    between atoms: C_37  and  C_45
   14  A    between atoms: C_43  and  O_46
                            x       y       z     vdW  Elec       q    Type
                         _______ _______ _______ _____ _____    ______ ____

>  <TORSDO>
F 14

$$$$
=
 OpenBabel11042412443D

 57 64  0  0  1  0  0  0  0  0999 V2000
  186.4370  175.0360  134.9910 O   0  0  0  0  0  0  0  0  0  0  0  0
  189.2620  178.5070  135.6010 C   0  0  0  0  0  1  0  0  0  0  0  0
  189.2240  177.0040  137.5920 C   0  0  1  0  0  3  0  0  0  0  0  0
  188.4920  175.7340  138.0180 C   0  0  0  0  0  2  0  0  0  0  0  0
  185.9590  177.4530  138.0420 O   0  0  0  0  0  0  0  0  0  0  0  0
  183.7220  176.1750  136.3950 C   0  0  2  0  0  0  0  0  0  0  0  0
  187.3850  173.7450  137.2310 O   0  0  0  0  0  0  0  0  0  0  0  0
  186.0440  174.1470  137.2910 C   0  0  0  0  0  2  0  0  0  0  0  0
  185.5490  174.3530  135.8640 C   0  0  1  0  0  3  0  0  0  0  0  0
  188.3760  177.8830  136.6630 C   0  0  2  0  0  3  0  0  0  0  0  0
  184.0990  174.8340  135.7390 C   0  0  0  0  0  2  0  0  0  0  0  0
  187.1900  177.1580  136.0000 C   0  0  1  0  0  3  0  0  0  0  0  0
  184.7050  177.1860  136.1240 O   0  0  0  0  0  0  0  0  0  0  0  0
  187.4970  175.6810  135.6760 C   0  0  1  0  0  3  0  0  0  0  0  0
  188.1940  174.8310  136.8080 C   0  0  1  0  0  0  0  0  0  0  0  0
  185.9260  177.2980  136.7910 C   0  0  0  0  0  0  0  0  0  0  0  0
  183.5370  175.9630  137.8920 C   0  0  0  0  0  1  0  0  0  0  0  0
  190.7820  175.0790  136.4740 C   0  0  2  0  0  3  0  0  0  0  0  0
  190.8470  172.4270  135.2750 C   0  0  0  0  0  3  0  0  0  0  0  0
  189.5790  173.0040  135.7460 C   0  0  0  0  0  0  0  0  0  0  0  0
  192.0640  174.4830  135.8970 C   0  0  1  0  0  0  0  0  0  0  0  0
  189.5200  174.2460  136.3000 C   0  0  0  0  0  0  0  0  0  0  0  0
  188.3690  172.1470  135.5700 C   0  0  0  0  0  1  0  0  0  0  0  0
  191.9930  173.0950  135.3370 C   0  0  0  0  0  3  0  0  0  0  0  0
  191.2990  175.5270  135.1060 C   0  0  0  0  0  2  0  0  0  0  0  0
  193.3620  174.9700  136.4920 C   0  0  0  0  0  0  0  0  0  0  0  0
  193.9530  175.9030  135.9760 O   0  0  0  0  0  0  0  0  0  0  0  0
  193.9630  174.3180  137.6950 C   0  0  0  0  0  1  0  0  0  0  0  0
  189.5990  177.7340  138.7260 O   0  0  0  0  0  0  0  0  0  0  0  0
  191.8550  177.0380  139.0950 C   0  0  0  0  0  1  0  0  0  0  0  0
  190.3940  176.8640  139.4840 C   0  0  1  0  0  3  0  0  0  0  0  0
  190.1710  177.1010  140.9800 C   0  0  1  0  0  3  0  0  0  0  0  0
  189.6230  175.9640  141.5760 O   0  0  0  0  0  1  0  0  0  0  0  0
  191.4160  177.4650  141.6520 N   0  0  0  0  0  2  0  0  0  0  0  0
  189.9090  178.2870  143.4260 C   0  0  2  0  0  3  0  0  0  0  0  0
  189.1620  177.7270  144.6530 C   0  0  0  0  0  2  0  0  0  0  0  0
  191.0500  177.0920  146.1810 C   0  0  0  0  0  3  0  0  0  0  0  0
  191.3620  176.1800  143.8630 C   0  0  0  0  0  2  0  0  0  0  0  0
  191.1720  177.4990  143.0910 C   0  0  1  0  0  0  0  0  0  0  0  0
  191.7380  176.3560  145.3040 C   0  0  0  0  0  3  0  0  0  0  0  0
  189.8900  177.8200  145.8790 O   0  0  0  0  0  0  0  0  0  0  0  0
  191.2870  178.8650  143.7480 C   0  0  0  0  0  2  0  0  0  0  0  0
  182.4190  176.5940  135.8640 N   0  0  0  0  0  2  0  0  0  0  0  0
  180.5150  175.8000  136.8510 C   0  0  0  0  0  1  0  0  0  0  0  0
  181.5210  176.8470  136.9180 N   0  0  0  0  0  0  0  0  0  0  0  0
  180.8490  178.1080  136.6210 C   0  0  0  0  0  2  0  0  0  0  0  0
  181.0320  179.1500  137.7500 C   0  0  2  0  0  0  0  0  0  0  0  0
  182.5190  179.3640  138.0500 C   0  0  0  0  0  1  0  0  0  0  0  0
  180.0000  179.5740  140.1200 C   0  0  2  0  0  0  0  0  0  0  0  0
  181.0990  177.7050  141.1700 O   0  0  0  0  0  1  0  0  0  0  0  0
  181.2850  178.7760  140.2970 C   0  0  1  0  0  3  0  0  0  0  0  0
  178.9310  179.1610  140.9190 O   0  0  0  0  0  1  0  0  0  0  0  0
  180.4160  178.5720  139.0490 C   0  0  2  0  0  3  0  0  0  0  0  0
  180.1760  181.0460  139.9270 C   0  0  0  0  0  3  0  0  0  0  0  0
  179.2640  181.8120  140.1850 O   0  0  0  0  0  0  0  0  0  0  0  0
  180.7970  180.7740  136.1040 C   0  0  0  0  0  1  0  0  0  0  0  0
  180.4180  180.3860  137.4050 O   0  0  0  0  0  0  0  0  0  0  0  0
  1  9  1  0  0  0  0
  3  4  1  0  0  0  0
  3 29  1  1  0  0  0
  6 17  1  1  0  0  0
  7  8  1  0  0  0  0
  9 11  1  1  0  0  0
  9  8  1  0  0  0  0
 10  2  1  6  0  0  0
 10  3  1  0  0  0  0
 11  6  1  0  0  0  0
 12 10  1  0  0  0  0
 12 16  1  1  0  0  0
 13  6  1  0  0  0  0
 13 16  1  0  0  0  0
 14  1  1  1  0  0  0
 14 12  1  0  0  0  0
 14 15  1  0  0  0  0
 15 22  1  6  0  0  0
 15  7  1  0  0  0  0
 15  4  1  0  0  0  0
 16  5  2  0  0  0  0
 18 25  1  6  0  0  0
 19 24  2  0  0  0  0
 19 20  1  0  0  0  0
 20 22  2  0  0  0  0
 21 18  1  0  0  0  0
 21 26  1  1  0  0  0
 22 18  1  0  0  0  0
 23 20  1  0  0  0  0
 24 21  1  0  0  0  0
 25 21  1  0  0  0  0
 26 28  1  0  0  0  0
 27 26  2  0  0  0  0
 29 31  1  0  0  0  0
 31 30  1  1  0  0  0
 31 32  1  0  0  0  0
 32 33  1  1  0  0  0
 32 34  1  0  0  0  0
 35 42  1  1  0  0  0
 35 36  1  0  0  0  0
 36 41  1  0  0  0  0
 38 40  1  0  0  0  0
 39 34  1  6  0  0  0
 39 35  1  0  0  0  0
 39 42  1  0  0  0  0
 39 38  1  0  0  0  0
 40 37  2  0  0  0  0
 41 37  1  0  0  0  0
 43  6  1  0  0  0  0
 43 45  1  0  0  0  0
 44 45  1  0  0  0  0
 46 45  1  0  0  0  0
 46 47  1  0  0  0  0
 47 48  1  1  0  0  0
 49 51  1  0  0  0  0
 49 52  1  1  0  0  0
 51 50  1  1  0  0  0
 53 47  1  6  0  0  0
 53 49  1  0  0  0  0
 53 51  1  0  0  0  0
 54 49  1  0  0  0  0
 54 55  2  0  0  0  0
 56 57  1  0  0  0  0
 57 47  1  0  0  0  0
M  END
>  <MODEL>
2

>  <REMARK>
 VINA RESULT:      -5.8      1.244      1.817
  Name = 
  14 active torsions:
  status: ('A' for Active; 'I' for Inactive)
    1  A    between atoms: C_1  and  C_10
    2  A    between atoms: C_8  and  O_46
    3  A    between atoms: N_9  and  C_16
    4  A    between atoms: N_9  and  C_33
    5  A    between atoms: C_16  and  C_43
    6  A    between atoms: C_18  and  N_35
    7  A    between atoms: C_18  and  C_54
    8  A    between atoms: C_19  and  N_49
    9  A    between atoms: C_25  and  C_42
   10  A    between atoms: O_28  and  C_54
   11  A    between atoms: C_29  and  C_54
   12  A    between atoms: N_35  and  N_49
   13  A    between atoms: C_37  and  C_45
   14  A    between atoms: C_43  and  O_46
                            x       y       z     vdW  Elec       q    Type
                         _______ _______ _______ _____ _____    ______ ____

>  <TORSDO>
F 14

$$$$
=
 OpenBabel11042412443D

 57 64  0  0  1  0  0  0  0  0999 V2000
  188.3100  176.2200  138.3910 O   0  0  0  0  0  0  0  0  0  0  0  0
  188.6490  175.7230  142.8670 C   0  0  0  0  0  1  0  0  0  0  0  0
  188.9960  178.0980  142.1870 C   0  0  1  0  0  3  0  0  0  0  0  0
  189.0390  178.8900  140.8830 C   0  0  0  0  0  2  0  0  0  0  0  0
  191.5850  177.3110  140.2520 O   0  0  0  0  0  0  0  0  0  0  0  0
  191.4390  176.0060  137.4910 C   0  0  2  0  0  0  0  0  0  0  0  0
  188.2720  178.9650  138.6010 O   0  0  0  0  0  0  0  0  0  0  0  0
  189.3800  178.4290  137.9310 C   0  0  0  0  0  2  0  0  0  0  0  0
  189.0110  177.0280  137.4570 C   0  0  1  0  0  3  0  0  0  0  0  0
  189.4850  176.6540  142.0090 C   0  0  2  0  0  3  0  0  0  0  0  0
  190.1270  176.2710  136.7290 C   0  0  0  0  0  2  0  0  0  0  0  0
  189.4990  176.1570  140.5520 C   0  0  1  0  0  3  0  0  0  0  0  0
  191.1840  175.5420  138.8270 O   0  0  0  0  0  0  0  0  0  0  0  0
  188.3470  176.7410  139.7080 C   0  0  1  0  0  3  0  0  0  0  0  0
  188.0840  178.2920  139.8360 C   0  0  1  0  0  0  0  0  0  0  0  0
  190.8270  176.3690  139.8930 C   0  0  0  0  0  0  0  0  0  0  0  0
  192.2810  177.2750  137.4910 C   0  0  0  0  0  1  0  0  0  0  0  0
  186.3850  178.7770  141.7720 C   0  0  2  0  0  3  0  0  0  0  0  0
  184.2370  178.9000  139.8110 C   0  0  0  0  0  3  0  0  0  0  0  0
  185.6200  178.6290  139.3900 C   0  0  0  0  0  0  0  0  0  0  0  0
  184.9270  178.9720  142.1810 C   0  0  1  0  0  0  0  0  0  0  0  0
  186.6400  178.5560  140.2880 C   0  0  0  0  0  0  0  0  0  0  0  0
  185.8260  178.4330  137.9250 C   0  0  0  0  0  1  0  0  0  0  0  0
  183.9060  179.0590  141.0880 C   0  0  0  0  0  3  0  0  0  0  0  0
  185.5750  177.6100  142.3390 C   0  0  0  0  0  2  0  0  0  0  0  0
  184.6810  179.7060  143.4750 C   0  0  0  0  0  0  0  0  0  0  0  0
  185.4780  180.5480  143.8540 O   0  0  0  0  0  0  0  0  0  0  0  0
  183.4900  179.4120  144.3280 C   0  0  0  0  0  1  0  0  0  0  0  0
  189.7680  178.7460  143.1570 O   0  0  0  0  0  0  0  0  0  0  0  0
  192.1320  178.7930  143.5040 C   0  0  0  0  0  1  0  0  0  0  0  0
  190.8900  177.9280  143.3480 C   0  0  1  0  0  3  0  0  0  0  0  0
  190.6820  177.0080  144.5550 C   0  0  1  0  0  3  0  0  0  0  0  0
  191.6970  176.0510  144.6160 O   0  0  0  0  0  1  0  0  0  0  0  0
  190.6370  177.7680  145.8020 N   0  0  0  0  0  2  0  0  0  0  0  0
  189.2880  177.9620  147.8600 C   0  0  2  0  0  3  0  0  0  0  0  0
  187.9830  178.6440  148.3210 C   0  0  0  0  0  2  0  0  0  0  0  0
  186.2460  177.4280  146.9770 C   0  0  0  0  0  3  0  0  0  0  0  0
  188.1390  178.2530  145.5490 C   0  0  0  0  0  2  0  0  0  0  0  0
  189.2960  177.6500  146.3660 C   0  0  1  0  0  0  0  0  0  0  0  0
  186.8110  177.5940  145.7790 C   0  0  0  0  0  3  0  0  0  0  0  0
  186.8170  177.8280  148.1950 O   0  0  0  0  0  0  0  0  0  0  0  0
  189.1010  176.5260  147.3720 C   0  0  0  0  0  2  0  0  0  0  0  0
  192.2020  174.9920  136.7520 N   0  0  0  0  0  2  0  0  0  0  0  0
  192.4310  175.9560  134.6900 C   0  0  0  0  0  1  0  0  0  0  0  0
  193.1440  175.6110  135.9090 N   0  0  0  0  0  0  0  0  0  0  0  0
  194.1360  174.6010  135.5540 C   0  0  0  0  0  2  0  0  0  0  0  0
  195.4680  174.7930  136.3190 C   0  0  2  0  0  0  0  0  0  0  0  0
  196.5590  173.8880  135.7360 C   0  0  0  0  0  1  0  0  0  0  0  0
  196.5100  174.1920  138.6450 C   0  0  2  0  0  0  0  0  0  0  0  0
  195.0720  172.3010  139.0430 O   0  0  0  0  0  1  0  0  0  0  0  0
  195.8540  172.9390  138.0800 C   0  0  1  0  0  3  0  0  0  0  0  0
  196.2980  174.4090  140.0090 O   0  0  0  0  0  1  0  0  0  0  0  0
  195.2610  174.3230  137.7800 C   0  0  2  0  0  3  0  0  0  0  0  0
  197.8710  174.5040  138.1100 C   0  0  0  0  0  3  0  0  0  0  0  0
  198.4000  175.5710  138.3650 O   0  0  0  0  0  0  0  0  0  0  0  0
  196.6230  176.4040  135.1040 C   0  0  0  0  0  1  0  0  0  0  0  0
  195.8840  176.1530  136.2780 O   0  0  0  0  0  0  0  0  0  0  0  0
  3 29  1  1  0  0  0
  4  3  1  0  0  0  0
  6 17  1  1  0  0  0
  6 13  1  0  0  0  0
  7 15  1  0  0  0  0
  8  7  1  0  0  0  0
  9 11  1  1  0  0  0
  9  8  1  0  0  0  0
  9  1  1  0  0  0  0
 10  3  1  0  0  0  0
 10  2  1  1  0  0  0
 11  6  1  0  0  0  0
 12 16  1  6  0  0  0
 12 10  1  0  0  0  0
 13 16  1  0  0  0  0
 14  1  1  6  0  0  0
 14 15  1  0  0  0  0
 14 12  1  0  0  0  0
 15 22  1  1  0  0  0
 15  4  1  0  0  0  0
 16  5  2  0  0  0  0
 18 21  1  0  0  0  0
 18 25  1  1  0  0  0
 19 24  2  0  0  0  0
 20 19  1  0  0  0  0
 20 22  2  0  0  0  0
 21 25  1  0  0  0  0
 21 26  1  1  0  0  0
 22 18  1  0  0  0  0
 23 20  1  0  0  0  0
 24 21  1  0  0  0  0
 26 27  2  0  0  0  0
 26 28  1  0  0  0  0
 29 31  1  0  0  0  0
 31 30  1  1  0  0  0
 31 32  1  0  0  0  0
 32 33  1  1  0  0  0
 32 34  1  0  0  0  0
 35 42  1  1  0  0  0
 35 36  1  0  0  0  0
 37 41  1  0  0  0  0
 38 40  1  0  0  0  0
 38 39  1  0  0  0  0
 39 34  1  6  0  0  0
 39 42  1  0  0  0  0
 39 35  1  0  0  0  0
 40 37  2  0  0  0  0
 41 36  1  0  0  0  0
 43  6  1  0  0  0  0
 44 45  1  0  0  0  0
 45 43  1  0  0  0  0
 46 45  1  0  0  0  0
 46 47  1  0  0  0  0
 47 48  1  6  0  0  0
 49 52  1  1  0  0  0
 51 49  1  0  0  0  0
 51 50  1  1  0  0  0
 53 47  1  6  0  0  0
 53 51  1  0  0  0  0
 53 49  1  0  0  0  0
 54 55  2  0  0  0  0
 54 49  1  0  0  0  0
 56 57  1  0  0  0  0
 57 47  1  0  0  0  0
M  END
>  <MODEL>
3

>  <REMARK>
 VINA RESULT:      -5.3      3.664      9.528
  Name = 
  14 active torsions:
  status: ('A' for Active; 'I' for Inactive)
    1  A    between atoms: C_1  and  C_10
    2  A    between atoms: C_8  and  O_46
    3  A    between atoms: N_9  and  C_16
    4  A    between atoms: N_9  and  C_33
    5  A    between atoms: C_16  and  C_43
    6  A    between atoms: C_18  and  N_35
    7  A    between atoms: C_18  and  C_54
    8  A    between atoms: C_19  and  N_49
    9  A    between atoms: C_25  and  C_42
   10  A    between atoms: O_28  and  C_54
   11  A    between atoms: C_29  and  C_54
   12  A    between atoms: N_35  and  N_49
   13  A    between atoms: C_37  and  C_45
   14  A    between atoms: C_43  and  O_46
                            x       y       z     vdW  Elec       q    Type
                         _______ _______ _______ _____ _____    ______ ____

>  <TORSDO>
F 14

$$$$
=
 OpenBabel11042412443D

 57 64  0  0  1  0  0  0  0  0999 V2000
  186.1660  175.2310  134.9900 O   0  0  0  0  0  0  0  0  0  0  0  0
  188.6110  178.8710  136.0740 C   0  0  0  0  0  1  0  0  0  0  0  0
  188.4450  177.2830  137.9910 C   0  0  1  0  0  3  0  0  0  0  0  0
  187.7680  175.9450  138.2760 C   0  0  0  0  0  2  0  0  0  0  0  0
  185.1240  177.4690  138.0360 O   0  0  0  0  0  0  0  0  0  0  0  0
  183.2160  176.1030  136.0760 C   0  0  2  0  0  0  0  0  0  0  0  0
  186.9280  173.9160  137.2860 O   0  0  0  0  0  0  0  0  0  0  0  0
  185.5620  174.2150  137.1890 C   0  0  0  0  0  2  0  0  0  0  0  0
  185.2340  174.4460  135.7190 C   0  0  1  0  0  3  0  0  0  0  0  0
  187.6520  178.1370  136.9920 C   0  0  2  0  0  3  0  0  0  0  0  0
  183.7770  174.8240  135.4270 C   0  0  0  0  0  2  0  0  0  0  0  0
  186.6190  177.3560  136.1590 C   0  0  1  0  0  3  0  0  0  0  0  0
  184.1430  177.1950  135.9660 O   0  0  0  0  0  0  0  0  0  0  0  0
  187.0790  175.9220  135.8260 C   0  0  1  0  0  3  0  0  0  0  0  0
  187.6950  175.0770  137.0070 C   0  0  1  0  0  0  0  0  0  0  0  0
  185.2590  177.3670  136.7870 C   0  0  0  0  0  0  0  0  0  0  0  0
  182.8640  175.8120  137.5290 C   0  0  0  0  0  1  0  0  0  0  0  0
  190.2790  175.5170  137.0390 C   0  0  2  0  0  3  0  0  0  0  0  0
  190.6960  172.9560  135.7200 C   0  0  0  0  0  3  0  0  0  0  0  0
  189.3390  173.4160  136.0460 C   0  0  0  0  0  0  0  0  0  0  0  0
  191.6660  175.0450  136.6080 C   0  0  1  0  0  0  0  0  0  0  0  0
  189.1160  174.6140  136.6530 C   0  0  0  0  0  0  0  0  0  0  0  0
  188.2300  172.4930  135.6630 C   0  0  0  0  0  1  0  0  0  0  0  0
  191.7720  173.6930  135.9720 C   0  0  0  0  0  3  0  0  0  0  0  0
  190.9350  176.0830  135.7790 C   0  0  0  0  0  2  0  0  0  0  0  0
  192.8350  175.5790  137.3980 C   0  0  0  0  0  0  0  0  0  0  0  0
  193.8550  174.9180  137.4910 O   0  0  0  0  0  0  0  0  0  0  0  0
  192.7690  176.8980  138.0980 C   0  0  0  0  0  1  0  0  0  0  0  0
  188.6170  177.9880  139.1870 O   0  0  0  0  0  0  0  0  0  0  0  0
  190.6360  177.2510  140.2310 C   0  0  0  0  0  1  0  0  0  0  0  0
  189.1330  177.0560  140.0980 C   0  0  1  0  0  3  0  0  0  0  0  0
  188.4220  177.1780  141.4480 C   0  0  1  0  0  3  0  0  0  0  0  0
  189.2060  176.6230  142.4620 O   0  0  0  0  0  1  0  0  0  0  0  0
  188.1120  178.5700  141.7640 N   0  0  0  0  0  2  0  0  0  0  0  0
  185.7030  178.6260  141.2290 C   0  0  2  0  0  3  0  0  0  0  0  0
  184.4130  177.8920  141.6490 C   0  0  0  0  0  2  0  0  0  0  0  0
  184.1680  178.5780  144.0510 C   0  0  0  0  0  3  0  0  0  0  0  0
  186.4750  177.7290  143.5400 C   0  0  0  0  0  2  0  0  0  0  0  0
  186.7650  178.6280  142.3240 C   0  0  1  0  0  0  0  0  0  0  0  0
  185.4000  178.2460  144.4480 C   0  0  0  0  0  3  0  0  0  0  0  0
  183.7080  178.5100  142.7270 O   0  0  0  0  0  0  0  0  0  0  0  0
  185.9830  179.8980  142.0290 C   0  0  0  0  0  2  0  0  0  0  0  0
  181.9610  176.4480  135.3980 N   0  0  0  0  0  2  0  0  0  0  0  0
  180.2550  175.0890  136.0850 C   0  0  0  0  0  1  0  0  0  0  0  0
  180.8840  176.3810  136.3020 N   0  0  0  0  0  0  0  0  0  0  0  0
  179.9190  177.4010  135.9020 C   0  0  0  0  0  2  0  0  0  0  0  0
  180.0330  178.6830  136.7610 C   0  0  2  0  0  0  0  0  0  0  0  0
  181.4710  179.2130  136.7510 C   0  0  0  0  0  1  0  0  0  0  0  0
  179.7910  179.4380  139.2570 C   0  0  2  0  0  0  0  0  0  0  0  0
  180.8400  177.4760  140.1790 O   0  0  0  0  0  1  0  0  0  0  0  0
  180.9350  178.4370  139.1730 C   0  0  1  0  0  3  0  0  0  0  0  0
  178.9400  179.2760  140.3540 O   0  0  0  0  0  1  0  0  0  0  0  0
  179.7270  178.3100  138.2330 C   0  0  2  0  0  3  0  0  0  0  0  0
  180.1290  180.8400  138.8610 C   0  0  0  0  0  3  0  0  0  0  0  0
  181.0950  181.3990  139.3490 O   0  0  0  0  0  0  0  0  0  0  0  0
  179.7850  180.5320  135.3740 C   0  0  0  0  0  1  0  0  0  0  0  0
  179.1370  179.6860  136.2960 O   0  0  0  0  0  0  0  0  0  0  0  0
  1  9  1  0  0  0  0
  3  4  1  0  0  0  0
  3 29  1  1  0  0  0
  6 17  1  1  0  0  0
  8  7  1  0  0  0  0
  9 11  1  1  0  0  0
  9  8  1  0  0  0  0
 10  2  1  6  0  0  0
 10  3  1  0  0  0  0
 11  6  1  0  0  0  0
 12 16  1  1  0  0  0
 12 10  1  0  0  0  0
 13  6  1  0  0  0  0
 13 16  1  0  0  0  0
 14  1  1  1  0  0  0
 14 12  1  0  0  0  0
 14 15  1  0  0  0  0
 15 22  1  6  0  0  0
 15  7  1  0  0  0  0
 15  4  1  0  0  0  0
 16  5  2  0  0  0  0
 18 25  1  6  0  0  0
 19 24  2  0  0  0  0
 19 20  1  0  0  0  0
 20 22  2  0  0  0  0
 21 18  1  0  0  0  0
 21 26  1  1  0  0  0
 22 18  1  0  0  0  0
 23 20  1  0  0  0  0
 24 21  1  0  0  0  0
 25 21  1  0  0  0  0
 26 27  2  0  0  0  0
 26 28  1  0  0  0  0
 29 31  1  0  0  0  0
 31 30  1  1  0  0  0
 31 32  1  0  0  0  0
 32 34  1  0  0  0  0
 32 33  1  1  0  0  0
 35 36  1  1  0  0  0
 35 42  1  0  0  0  0
 35 39  1  0  0  0  0
 36 41  1  0  0  0  0
 37 40  2  0  0  0  0
 38 40  1  0  0  0  0
 39 34  1  6  0  0  0
 39 38  1  0  0  0  0
 41 37  1  0  0  0  0
 42 39  1  0  0  0  0
 43  6  1  0  0  0  0
 43 45  1  0  0  0  0
 44 45  1  0  0  0  0
 46 45  1  0  0  0  0
 46 47  1  0  0  0  0
 47 48  1  6  0  0  0
 49 52  1  1  0  0  0
 51 49  1  0  0  0  0
 51 50  1  1  0  0  0
 53 47  1  6  0  0  0
 53 51  1  0  0  0  0
 53 49  1  0  0  0  0
 54 49  1  0  0  0  0
 54 55  2  0  0  0  0
 56 57  1  0  0  0  0
 57 47  1  0  0  0  0
M  END
>  <MODEL>
4

>  <REMARK>
 VINA RESULT:      -4.7      1.672      2.524
  Name = 
  14 active torsions:
  status: ('A' for Active; 'I' for Inactive)
    1  A    between atoms: C_1  and  C_10
    2  A    between atoms: C_8  and  O_46
    3  A    between atoms: N_9  and  C_16
    4  A    between atoms: N_9  and  C_33
    5  A    between atoms: C_16  and  C_43
    6  A    between atoms: C_18  and  N_35
    7  A    between atoms: C_18  and  C_54
    8  A    between atoms: C_19  and  N_49
    9  A    between atoms: C_25  and  C_42
   10  A    between atoms: O_28  and  C_54
   11  A    between atoms: C_29  and  C_54
   12  A    between atoms: N_35  and  N_49
   13  A    between atoms: C_37  and  C_45
   14  A    between atoms: C_43  and  O_46
                            x       y       z     vdW  Elec       q    Type
                         _______ _______ _______ _____ _____    ______ ____

>  <TORSDO>
F 14

$$$$
=
 OpenBabel11042412443D

 57 64  0  0  1  0  0  0  0  0999 V2000
  187.2320  176.8740  138.4850 O   0  0  0  0  0  0  0  0  0  0  0  0
  189.8840  173.3530  137.4970 C   0  0  0  0  0  1  0  0  0  0  0  0
  190.9480  175.5080  136.8310 C   0  0  1  0  0  3  0  0  0  0  0  0
  190.5810  176.9900  136.8590 C   0  0  0  0  0  2  0  0  0  0  0  0
  188.4310  176.2830  134.7980 O   0  0  0  0  0  0  0  0  0  0  0  0
  185.6810  177.3140  135.6500 C   0  0  2  0  0  0  0  0  0  0  0  0
  189.2580  178.6670  137.9720 O   0  0  0  0  0  0  0  0  0  0  0  0
  188.1540  178.7460  137.1130 C   0  0  0  0  0  2  0  0  0  0  0  0
  186.9650  178.0960  137.8130 C   0  0  1  0  0  3  0  0  0  0  0  0
  189.7180  174.6060  136.6580 C   0  0  2  0  0  3  0  0  0  0  0  0
  185.6680  178.0590  136.9970 C   0  0  0  0  0  2  0  0  0  0  0  0
  188.3750  175.2850  136.9830 C   0  0  1  0  0  3  0  0  0  0  0  0
  186.3460  176.0460  135.7590 O   0  0  0  0  0  0  0  0  0  0  0  0
  188.4840  176.3110  138.1300 C   0  0  1  0  0  3  0  0  0  0  0  0
  189.6940  177.3210  138.0730 C   0  0  1  0  0  0  0  0  0  0  0  0
  187.7330  175.8810  135.7690 C   0  0  0  0  0  0  0  0  0  0  0  0
  186.3340  178.2000  134.5970 C   0  0  0  0  0  1  0  0  0  0  0  0
  189.8450  176.8610  140.6490 C   0  0  2  0  0  3  0  0  0  0  0  0
  192.7270  177.2490  140.5150 C   0  0  0  0  0  3  0  0  0  0  0  0
  191.8990  177.3740  139.3060 C   0  0  0  0  0  0  0  0  0  0  0  0
  190.7260  176.8240  141.8960 C   0  0  1  0  0  0  0  0  0  0  0  0
  190.5480  177.2080  139.3440 C   0  0  0  0  0  0  0  0  0  0  0  0
  192.6310  177.7000  138.0470 C   0  0  0  0  0  1  0  0  0  0  0  0
  192.2010  176.9980  141.7080 C   0  0  0  0  0  3  0  0  0  0  0  0
  189.8970  178.0590  141.5990 C   0  0  0  0  0  2  0  0  0  0  0  0
  190.2250  175.9920  143.0500 C   0  0  0  0  0  0  0  0  0  0  0  0
  190.9940  175.2540  143.6430 O   0  0  0  0  0  0  0  0  0  0  0  0
  188.7930  176.0270  143.4770 C   0  0  0  0  0  1  0  0  0  0  0  0
  191.8620  175.2700  135.7980 O   0  0  0  0  0  0  0  0  0  0  0  0
  192.8230  173.0820  135.7940 C   0  0  0  0  0  1  0  0  0  0  0  0
  192.8750  174.4900  136.3690 C   0  0  1  0  0  3  0  0  0  0  0  0
  194.2420  175.1430  136.1490 C   0  0  1  0  0  3  0  0  0  0  0  0
  194.0920  176.3900  135.5390 O   0  0  0  0  0  1  0  0  0  0  0  0
  194.9730  175.2880  137.4060 N   0  0  0  0  0  2  0  0  0  0  0  0
  195.8560  173.0860  138.0870 C   0  0  2  0  0  3  0  0  0  0  0  0
  196.5880  171.8900  137.4440 C   0  0  0  0  0  2  0  0  0  0  0  0
  198.8070  172.8910  136.8340 C   0  0  0  0  0  3  0  0  0  0  0  0
  196.8860  174.2930  136.0310 C   0  0  0  0  0  2  0  0  0  0  0  0
  196.1330  174.4040  137.3700 C   0  0  1  0  0  0  0  0  0  0  0  0
  198.3390  173.9480  136.1660 C   0  0  0  0  0  3  0  0  0  0  0  0
  198.0120  171.9610  137.5210 O   0  0  0  0  0  0  0  0  0  0  0  0
  196.7890  174.1220  138.7130 C   0  0  0  0  0  2  0  0  0  0  0  0
  184.2900  177.1100  135.2260 N   0  0  0  0  0  2  0  0  0  0  0  0
  183.0820  175.5110  136.3290 C   0  0  0  0  0  1  0  0  0  0  0  0
  183.4630  176.9140  136.3480 N   0  0  0  0  0  0  0  0  0  0  0  0
  182.2470  177.6920  136.1300 C   0  0  0  0  0  2  0  0  0  0  0  0
  181.7110  178.3200  137.4380 C   0  0  2  0  0  0  0  0  0  0  0  0
  181.2110  179.7470  137.1850 C   0  0  0  0  0  1  0  0  0  0  0  0
  182.5380  178.5760  139.9100 C   0  0  2  0  0  0  0  0  0  0  0  0
  184.2970  180.1370  139.3880 O   0  0  0  0  0  1  0  0  0  0  0  0
  182.9630  179.8170  139.1370 C   0  0  1  0  0  3  0  0  0  0  0  0
  183.5010  178.0610  140.7820 O   0  0  0  0  0  1  0  0  0  0  0  0
  182.8920  178.4550  138.4320 C   0  0  2  0  0  3  0  0  0  0  0  0
  181.1190  178.5630  140.3810 C   0  0  0  0  0  3  0  0  0  0  0  0
  180.7860  179.2340  141.3420 O   0  0  0  0  0  0  0  0  0  0  0  0
  179.4140  177.9790  137.5410 C   0  0  0  0  0  1  0  0  0  0  0  0
  180.6690  177.5260  137.9930 O   0  0  0  0  0  0  0  0  0  0  0  0
  3 29  1  6  0  0  0
  3  4  1  0  0  0  0
  4 15  1  0  0  0  0
  5 16  2  0  0  0  0
  6 17  1  6  0  0  0
  6 13  1  0  0  0  0
  6 11  1  0  0  0  0
  7 15  1  0  0  0  0
  8  9  1  0  0  0  0
  8  7  1  0  0  0  0
  9 11  1  6  0  0  0
  9  1  1  0  0  0  0
 10  3  1  0  0  0  0
 10 12  1  0  0  0  0
 10  2  1  1  0  0  0
 12 16  1  6  0  0  0
 12 14  1  0  0  0  0
 13 16  1  0  0  0  0
 14  1  1  6  0  0  0
 15 14  1  0  0  0  0
 15 22  1  1  0  0  0
 18 25  1  1  0  0  0
 18 21  1  0  0  0  0
 19 24  2  0  0  0  0
 20 22  2  0  0  0  0
 20 19  1  0  0  0  0
 21 26  1  1  0  0  0
 22 18  1  0  0  0  0
 23 20  1  0  0  0  0
 24 21  1  0  0  0  0
 25 21  1  0  0  0  0
 26 28  1  0  0  0  0
 26 27  2  0  0  0  0
 29 31  1  0  0  0  0
 31 30  1  6  0  0  0
 32 33  1  1  0  0  0
 32 31  1  0  0  0  0
 32 34  1  0  0  0  0
 35 36  1  6  0  0  0
 35 42  1  0  0  0  0
 36 41  1  0  0  0  0
 37 41  1  0  0  0  0
 38 40  1  0  0  0  0
 38 39  1  0  0  0  0
 39 34  1  1  0  0  0
 39 35  1  0  0  0  0
 39 42  1  0  0  0  0
 40 37  2  0  0  0  0
 43  6  1  0  0  0  0
 43 45  1  0  0  0  0
 44 45  1  0  0  0  0
 46 45  1  0  0  0  0
 46 47  1  0  0  0  0
 47 48  1  6  0  0  0
 47 57  1  0  0  0  0
 49 54  1  0  0  0  0
 49 52  1  1  0  0  0
 51 50  1  1  0  0  0
 51 49  1  0  0  0  0
 53 47  1  6  0  0  0
 53 51  1  0  0  0  0
 53 49  1  0  0  0  0
 54 55  2  0  0  0  0
 56 57  1  0  0  0  0
M  END
>  <MODEL>
5

>  <REMARK>
 VINA RESULT:      -4.2      2.096      6.066
  Name = 
  14 active torsions:
  status: ('A' for Active; 'I' for Inactive)
    1  A    between atoms: C_1  and  C_10
    2  A    between atoms: C_8  and  O_46
    3  A    between atoms: N_9  and  C_16
    4  A    between atoms: N_9  and  C_33
    5  A    between atoms: C_16  and  C_43
    6  A    between atoms: C_18  and  N_35
    7  A    between atoms: C_18  and  C_54
    8  A    between atoms: C_19  and  N_49
    9  A    between atoms: C_25  and  C_42
   10  A    between atoms: O_28  and  C_54
   11  A    between atoms: C_29  and  C_54
   12  A    between atoms: N_35  and  N_49
   13  A    between atoms: C_37  and  C_45
   14  A    between atoms: C_43  and  O_46
                            x       y       z     vdW  Elec       q    Type
                         _______ _______ _______ _____ _____    ______ ____

>  <TORSDO>
F 14

$$$$
