=
 OpenBabel11042411533D

 35 38  0  0  0  0  0  0  0  0999 V2000
  187.7580  178.3710  148.0380 C   0  0  0  0  0  3  0  0  0  0  0  0
  189.0430  177.9070  147.7440 C   0  0  0  0  0  0  0  0  0  0  0  0
  189.3730  177.5330  146.4260 C   0  0  0  0  0  0  0  0  0  0  0  0
  189.9720  177.8050  148.7720 O   0  0  0  0  0  1  0  0  0  0  0  0
  186.7950  178.4700  147.0320 C   0  0  0  0  0  3  0  0  0  0  0  0
  188.3950  177.6430  145.4250 C   0  0  0  0  0  3  0  0  0  0  0  0
  187.1020  178.1050  145.7140 C   0  0  0  0  0  0  0  0  0  0  0  0
  184.7760  178.6280  144.9380 C   0  0  0  0  0  3  0  0  0  0  0  0
  186.4050  177.8880  143.3150 C   0  0  0  0  0  3  0  0  0  0  0  0
  185.4430  177.9860  142.3050 C   0  0  0  0  0  3  0  0  0  0  0  0
  186.0820  178.2080  144.6440 C   0  0  0  0  0  0  0  0  0  0  0  0
  184.1440  178.4070  142.6000 C   0  0  0  0  0  0  0  0  0  0  0  0
  183.8160  178.7270  143.9270 C   0  0  0  0  0  3  0  0  0  0  0  0
  183.2180  178.4920  141.5500 O   0  0  0  0  0  0  0  0  0  0  0  0
  183.5130  178.7140  140.1940 C   0  0  0  0  0  0  0  0  0  0  0  0
  184.0010  179.8100  139.8050 O   0  0  0  0  0  0  0  0  0  0  0  0
  182.8000  175.4500  138.4790 C   0  0  0  0  0  2  0  0  0  0  0  0
  182.6740  176.4090  139.6440 C   0  0  0  0  0  2  0  0  0  0  0  0
  182.8530  176.4190  136.9430 S   0  0  0  0  0  0  0  0  0  0  0  0
  183.2580  177.6750  139.2430 N   0  0  0  0  0  0  0  0  0  0  0  0
  183.5530  177.8390  137.8310 C   0  0  0  0  0  2  0  0  0  0  0  0
  190.7400  177.0720  146.0700 C   0  0  0  0  0  0  0  0  0  0  0  0
  191.3220  177.3440  144.8980 C   0  0  0  0  0  3  0  0  0  0  0  0
  192.1160  175.7080  147.7990 N   0  0  0  0  0  0  0  0  0  0  0  0
  191.5020  176.3160  147.0280 C   0  0  0  0  0  0  0  0  0  0  0  0
  190.6620  178.0910  143.7880 C   0  0  0  0  0  2  0  0  0  0  0  0
  190.7130  177.2650  142.5210 C   0  0  0  0  0  2  0  0  0  0  0  0
  189.8520  177.2840  137.4330 C   0  0  0  0  0  3  0  0  0  0  0  0
  188.6780  178.0730  139.3600 C   0  0  0  0  0  0  0  0  0  0  0  0
  188.8130  177.8790  137.9450 N   0  0  0  0  0  0  0  0  0  0  0  0
  190.9000  176.9180  139.6150 C   0  0  0  0  0  3  0  0  0  0  0  0
  189.7470  177.5840  140.2520 C   0  0  0  0  0  0  0  0  0  0  0  0
  190.9480  176.7780  138.2870 C   0  0  0  0  0  3  0  0  0  0  0  0
  187.6580  178.6520  139.8180 O   0  0  0  0  0  0  0  0  0  0  0  0
  189.6630  177.7430  141.5750 C   0  0  0  0  0  3  0  0  0  0  0  0
  2  1  1  0  0  0  0
  2  4  1  0  0  0  0
  3  2  2  0  0  0  0
  5  1  2  0  0  0  0
  6  7  2  0  0  0  0
  6  3  1  0  0  0  0
  7  5  1  0  0  0  0
  9 11  2  0  0  0  0
 10 12  2  0  0  0  0
 10  9  1  0  0  0  0
 11  8  1  0  0  0  0
 11  7  1  0  0  0  0
 12 13  1  0  0  0  0
 13  8  2  0  0  0  0
 14 12  1  0  0  0  0
 15 14  1  0  0  0  0
 16 15  2  0  0  0  0
 17 18  1  0  0  0  0
 19 21  1  0  0  0  0
 19 17  1  0  0  0  0
 20 18  1  0  0  0  0
 20 15  1  0  0  0  0
 21 20  1  0  0  0  0
 22  3  1  0  0  0  0
 22 25  1  0  0  0  0
 23 22  2  0  0  0  0
 25 24  3  0  0  0  0
 26 23  1  0  0  0  0
 27 26  1  0  0  0  0
 28 30  2  0  0  0  0
 28 33  1  0  0  0  0
 29 34  2  0  0  0  0
 29 32  1  0  0  0  0
 30 29  1  0  0  0  0
 31 32  1  0  0  0  0
 32 35  2  0  0  0  0
 33 31  2  0  0  0  0
 35 27  1  0  0  0  0
M  END
>  <MODEL>
1

>  <REMARK>
 VINA RESULT:     -10.2      0.000      0.000
  Name = 
  8 active torsions:
  status: ('A' for Active; 'I' for Inactive)
    1  A    between atoms: C_2  and  O_26
    2  A    between atoms: C_8  and  C_11
    3  A    between atoms: C_8  and  C_21
    4  A    between atoms: C_14  and  C_16
    5  A    between atoms: C_14  and  C_31
    6  A    between atoms: O_26  and  C_34
    7  A    between atoms: C_28  and  C_33
    8  A    between atoms: C_31  and  C_32
                            x       y       z     vdW  Elec       q    Type
                         _______ _______ _______ _____ _____    ______ ____

>  <TORSDO>
F 8

$$$$
=
 OpenBabel11042411533D

 35 38  0  0  0  0  0  0  0  0999 V2000
  187.6950  178.1310  147.8600 C   0  0  0  0  0  3  0  0  0  0  0  0
  188.9050  177.7540  147.2730 C   0  0  0  0  0  0  0  0  0  0  0  0
  188.9940  177.6010  145.8750 C   0  0  0  0  0  0  0  0  0  0  0  0
  190.0040  177.5180  148.0910 O   0  0  0  0  0  1  0  0  0  0  0  0
  186.5670  178.3600  147.0690 C   0  0  0  0  0  3  0  0  0  0  0  0
  187.8520  177.8390  145.0940 C   0  0  0  0  0  3  0  0  0  0  0  0
  186.6330  178.2140  145.6760 C   0  0  0  0  0  0  0  0  0  0  0  0
  185.5020  178.3070  143.4390 C   0  0  0  0  0  3  0  0  0  0  0  0
  184.2190  178.8410  145.4160 C   0  0  0  0  0  3  0  0  0  0  0  0
  183.0910  179.0690  144.6220 C   0  0  0  0  0  3  0  0  0  0  0  0
  185.4380  178.4560  144.8340 C   0  0  0  0  0  0  0  0  0  0  0  0
  183.1570  178.9160  143.2340 C   0  0  0  0  0  0  0  0  0  0  0  0
  184.3730  178.5340  142.6480 C   0  0  0  0  0  3  0  0  0  0  0  0
  181.9950  179.1540  142.4830 O   0  0  0  0  0  0  0  0  0  0  0  0
  180.8830  178.3020  142.3770 C   0  0  0  0  0  0  0  0  0  0  0  0
  180.0770  178.1610  143.3350 O   0  0  0  0  0  0  0  0  0  0  0  0
  180.9240  177.0590  138.8320 C   0  0  0  0  0  2  0  0  0  0  0  0
  181.5810  177.6990  140.0380 C   0  0  0  0  0  2  0  0  0  0  0  0
  179.7520  175.8020  139.4200 S   0  0  0  0  0  0  0  0  0  0  0  0
  180.6640  177.5860  141.1560 N   0  0  0  0  0  0  0  0  0  0  0  0
  179.5270  176.7010  140.9810 C   0  0  0  0  0  2  0  0  0  0  0  0
  190.2740  177.2380  145.2150 C   0  0  0  0  0  0  0  0  0  0  0  0
  190.5670  177.5720  143.9530 C   0  0  0  0  0  3  0  0  0  0  0  0
  192.0760  175.9350  146.5550 N   0  0  0  0  0  0  0  0  0  0  0  0
  191.2730  176.5160  145.9570 C   0  0  0  0  0  0  0  0  0  0  0  0
  189.6350  178.2950  143.0400 C   0  0  0  0  0  2  0  0  0  0  0  0
  189.6250  177.6180  141.6870 C   0  0  0  0  0  2  0  0  0  0  0  0
  188.1490  178.4660  136.8150 C   0  0  0  0  0  3  0  0  0  0  0  0
  187.0750  178.5090  138.9500 C   0  0  0  0  0  0  0  0  0  0  0  0
  187.0720  178.6520  137.5230 N   0  0  0  0  0  0  0  0  0  0  0  0
  189.5210  177.9410  138.7740 C   0  0  0  0  0  3  0  0  0  0  0  0
  188.3320  178.1390  139.6270 C   0  0  0  0  0  0  0  0  0  0  0  0
  189.4320  178.0950  137.4490 C   0  0  0  0  0  3  0  0  0  0  0  0
  186.0130  178.6960  139.6010 O   0  0  0  0  0  0  0  0  0  0  0  0
  188.3820  177.9930  140.9530 C   0  0  0  0  0  3  0  0  0  0  0  0
  2  1  1  0  0  0  0
  2  4  1  0  0  0  0
  3  2  2  0  0  0  0
  5  1  2  0  0  0  0
  6  7  2  0  0  0  0
  6  3  1  0  0  0  0
  7  5  1  0  0  0  0
  8 11  1  0  0  0  0
 10  9  1  0  0  0  0
 11  9  2  0  0  0  0
 11  7  1  0  0  0  0
 12 10  2  0  0  0  0
 13 12  1  0  0  0  0
 13  8  2  0  0  0  0
 14 12  1  0  0  0  0
 15 14  1  0  0  0  0
 15 16  2  0  0  0  0
 17 19  1  0  0  0  0
 17 18  1  0  0  0  0
 18 20  1  0  0  0  0
 19 21  1  0  0  0  0
 20 15  1  0  0  0  0
 21 20  1  0  0  0  0
 22  3  1  0  0  0  0
 22 25  1  0  0  0  0
 23 22  2  0  0  0  0
 25 24  3  0  0  0  0
 26 23  1  0  0  0  0
 27 26  1  0  0  0  0
 28 33  1  0  0  0  0
 28 30  2  0  0  0  0
 29 34  2  0  0  0  0
 29 32  1  0  0  0  0
 30 29  1  0  0  0  0
 31 32  1  0  0  0  0
 32 35  2  0  0  0  0
 33 31  2  0  0  0  0
 35 27  1  0  0  0  0
M  END
>  <MODEL>
2

>  <REMARK>
 VINA RESULT:      -9.9      1.707      2.243
  Name = 
  8 active torsions:
  status: ('A' for Active; 'I' for Inactive)
    1  A    between atoms: C_2  and  O_26
    2  A    between atoms: C_8  and  C_11
    3  A    between atoms: C_8  and  C_21
    4  A    between atoms: C_14  and  C_16
    5  A    between atoms: C_14  and  C_31
    6  A    between atoms: O_26  and  C_34
    7  A    between atoms: C_28  and  C_33
    8  A    between atoms: C_31  and  C_32
                            x       y       z     vdW  Elec       q    Type
                         _______ _______ _______ _____ _____    ______ ____

>  <TORSDO>
F 8

$$$$
=
 OpenBabel11042411533D

 35 38  0  0  0  0  0  0  0  0999 V2000
  191.6030  176.3000  145.1830 C   0  0  0  0  0  3  0  0  0  0  0  0
  190.7140  176.7050  146.1810 C   0  0  0  0  0  0  0  0  0  0  0  0
  189.5180  177.3660  145.8360 C   0  0  0  0  0  0  0  0  0  0  0  0
  191.0410  176.4620  147.5100 O   0  0  0  0  0  1  0  0  0  0  0  0
  191.3140  176.5440  143.8380 C   0  0  0  0  0  3  0  0  0  0  0  0
  189.2410  177.5990  144.4800 C   0  0  0  0  0  3  0  0  0  0  0  0
  190.1300  177.1980  143.4720 C   0  0  0  0  0  0  0  0  0  0  0  0
  188.5860  178.0100  141.6700 C   0  0  0  0  0  3  0  0  0  0  0  0
  190.7570  177.1560  141.0450 C   0  0  0  0  0  3  0  0  0  0  0  0
  190.4660  177.4020  139.7000 C   0  0  0  0  0  3  0  0  0  0  0  0
  189.8200  177.4580  142.0460 C   0  0  0  0  0  0  0  0  0  0  0  0
  189.2370  177.9550  139.3280 C   0  0  0  0  0  0  0  0  0  0  0  0
  188.2970  178.2570  140.3260 C   0  0  0  0  0  3  0  0  0  0  0  0
  188.9960  178.1850  137.9650 O   0  0  0  0  0  0  0  0  0  0  0  0
  187.7390  178.2560  137.3410 C   0  0  0  0  0  0  0  0  0  0  0  0
  187.1830  179.3660  137.1250 O   0  0  0  0  0  0  0  0  0  0  0  0
  186.8910  174.7160  136.4150 C   0  0  0  0  0  2  0  0  0  0  0  0
  187.6780  175.7470  137.1970 C   0  0  0  0  0  2  0  0  0  0  0  0
  185.2010  175.3420  136.1860 S   0  0  0  0  0  0  0  0  0  0  0  0
  187.0860  177.0460  136.9440 N   0  0  0  0  0  0  0  0  0  0  0  0
  185.7930  177.0560  136.2840 C   0  0  0  0  0  2  0  0  0  0  0  0
  188.5330  177.7770  146.8690 C   0  0  0  0  0  0  0  0  0  0  0  0
  187.2140  177.7990  146.6540 C   0  0  0  0  0  3  0  0  0  0  0  0
  189.3690  178.4470  149.2340 N   0  0  0  0  0  0  0  0  0  0  0  0
  188.9970  178.1490  148.1800 C   0  0  0  0  0  0  0  0  0  0  0  0
  186.5710  177.4690  145.3490 C   0  0  0  0  0  2  0  0  0  0  0  0
  185.6010  178.5670  144.9700 C   0  0  0  0  0  2  0  0  0  0  0  0
  181.4580  178.8810  141.9090 C   0  0  0  0  0  3  0  0  0  0  0  0
  183.7950  178.5040  141.5760 C   0  0  0  0  0  0  0  0  0  0  0  0
  182.4520  178.6570  141.0980 N   0  0  0  0  0  0  0  0  0  0  0  0
  182.8880  178.8600  143.8970 C   0  0  0  0  0  3  0  0  0  0  0  0
  184.0520  178.6050  143.0250 C   0  0  0  0  0  0  0  0  0  0  0  0
  181.6670  178.9890  143.3690 C   0  0  0  0  0  3  0  0  0  0  0  0
  184.7310  178.2900  140.7600 O   0  0  0  0  0  0  0  0  0  0  0  0
  185.2870  178.4710  143.5150 C   0  0  0  0  0  3  0  0  0  0  0  0
  1  2  1  0  0  0  0
  2  4  1  0  0  0  0
  3  2  2  0  0  0  0
  3 22  1  0  0  0  0
  5  1  2  0  0  0  0
  6  3  1  0  0  0  0
  7  5  1  0  0  0  0
  7  6  2  0  0  0  0
  8 11  1  0  0  0  0
  9 11  2  0  0  0  0
 10  9  1  0  0  0  0
 11  7  1  0  0  0  0
 12 10  2  0  0  0  0
 12 13  1  0  0  0  0
 13  8  2  0  0  0  0
 14 12  1  0  0  0  0
 15 14  1  0  0  0  0
 16 15  2  0  0  0  0
 17 18  1  0  0  0  0
 19 21  1  0  0  0  0
 19 17  1  0  0  0  0
 20 18  1  0  0  0  0
 20 15  1  0  0  0  0
 21 20  1  0  0  0  0
 22 25  1  0  0  0  0
 23 22  2  0  0  0  0
 25 24  3  0  0  0  0
 26 23  1  0  0  0  0
 27 26  1  0  0  0  0
 28 33  1  0  0  0  0
 29 32  1  0  0  0  0
 30 29  1  0  0  0  0
 30 28  2  0  0  0  0
 32 35  2  0  0  0  0
 32 31  1  0  0  0  0
 33 31  2  0  0  0  0
 34 29  2  0  0  0  0
 35 27  1  0  0  0  0
M  END
>  <MODEL>
3

>  <REMARK>
 VINA RESULT:      -9.7      1.871      5.346
  Name = 
  8 active torsions:
  status: ('A' for Active; 'I' for Inactive)
    1  A    between atoms: C_2  and  O_26
    2  A    between atoms: C_8  and  C_11
    3  A    between atoms: C_8  and  C_21
    4  A    between atoms: C_14  and  C_16
    5  A    between atoms: C_14  and  C_31
    6  A    between atoms: O_26  and  C_34
    7  A    between atoms: C_28  and  C_33
    8  A    between atoms: C_31  and  C_32
                            x       y       z     vdW  Elec       q    Type
                         _______ _______ _______ _____ _____    ______ ____

>  <TORSDO>
F 8

$$$$
=
 OpenBabel11042411533D

 35 38  0  0  0  0  0  0  0  0999 V2000
  181.9850  179.3890  139.9060 C   0  0  0  0  0  3  0  0  0  0  0  0
  181.5390  179.2300  141.2200 C   0  0  0  0  0  0  0  0  0  0  0  0
  182.4460  178.8630  142.2340 C   0  0  0  0  0  0  0  0  0  0  0  0
  180.1910  179.4230  141.4990 O   0  0  0  0  0  1  0  0  0  0  0  0
  183.3290  179.1870  139.5870 C   0  0  0  0  0  3  0  0  0  0  0  0
  183.7950  178.6680  141.8980 C   0  0  0  0  0  3  0  0  0  0  0  0
  184.2500  178.8220  140.5800 C   0  0  0  0  0  0  0  0  0  0  0  0
  186.6590  178.6310  141.2470 C   0  0  0  0  0  3  0  0  0  0  0  0
  186.0720  178.3750  138.9170 C   0  0  0  0  0  3  0  0  0  0  0  0
  187.4190  178.1720  138.6010 C   0  0  0  0  0  3  0  0  0  0  0  0
  185.6770  178.6070  140.2450 C   0  0  0  0  0  0  0  0  0  0  0  0
  188.3950  178.1930  139.6010 C   0  0  0  0  0  0  0  0  0  0  0  0
  188.0040  178.4260  140.9290 C   0  0  0  0  0  3  0  0  0  0  0  0
  189.7310  177.9790  139.2310 O   0  0  0  0  0  0  0  0  0  0  0  0
  190.3830  176.7380  139.1410 C   0  0  0  0  0  0  0  0  0  0  0  0
  190.6940  176.0900  140.1770 O   0  0  0  0  0  0  0  0  0  0  0  0
  190.5690  175.9790  135.4680 C   0  0  0  0  0  2  0  0  0  0  0  0
  190.3770  176.9250  136.6350 C   0  0  0  0  0  2  0  0  0  0  0  0
  191.7960  174.7270  135.9430 S   0  0  0  0  0  0  0  0  0  0  0  0
  190.6940  176.2020  137.8510 N   0  0  0  0  0  0  0  0  0  0  0  0
  191.3540  174.9190  137.6930 C   0  0  0  0  0  2  0  0  0  0  0  0
  182.0130  178.7210  143.6480 C   0  0  0  0  0  0  0  0  0  0  0  0
  182.8150  178.9750  144.6870 C   0  0  0  0  0  3  0  0  0  0  0  0
  179.5740  177.9980  144.1700 N   0  0  0  0  0  0  0  0  0  0  0  0
  180.6620  178.3200  143.9370 C   0  0  0  0  0  0  0  0  0  0  0  0
  184.2470  179.3740  144.5630 C   0  0  0  0  0  2  0  0  0  0  0  0
  185.0380  178.7880  145.7120 C   0  0  0  0  0  2  0  0  0  0  0  0
  189.6040  177.1910  147.5110 C   0  0  0  0  0  3  0  0  0  0  0  0
  188.5270  177.2050  145.3770 C   0  0  0  0  0  0  0  0  0  0  0  0
  189.6320  176.9080  146.2400 N   0  0  0  0  0  0  0  0  0  0  0  0
  187.3520  178.1450  147.3950 C   0  0  0  0  0  3  0  0  0  0  0  0
  187.3280  177.8470  145.9490 C   0  0  0  0  0  0  0  0  0  0  0  0
  188.4250  177.8360  148.1290 C   0  0  0  0  0  3  0  0  0  0  0  0
  188.5910  176.9150  144.1530 O   0  0  0  0  0  0  0  0  0  0  0  0
  186.2740  178.1420  145.1830 C   0  0  0  0  0  3  0  0  0  0  0  0
  1  2  1  0  0  0  0
  2  4  1  0  0  0  0
  2  3  2  0  0  0  0
  3 22  1  0  0  0  0
  5  1  2  0  0  0  0
  5  7  1  0  0  0  0
  6  3  1  0  0  0  0
  7  6  2  0  0  0  0
  9 11  1  0  0  0  0
 10  9  2  0  0  0  0
 10 12  1  0  0  0  0
 11  7  1  0  0  0  0
 11  8  2  0  0  0  0
 12 13  2  0  0  0  0
 13  8  1  0  0  0  0
 14 12  1  0  0  0  0
 15 14  1  0  0  0  0
 15 16  2  0  0  0  0
 17 19  1  0  0  0  0
 17 18  1  0  0  0  0
 18 20  1  0  0  0  0
 19 21  1  0  0  0  0
 20 15  1  0  0  0  0
 21 20  1  0  0  0  0
 22 25  1  0  0  0  0
 22 23  2  0  0  0  0
 25 24  3  0  0  0  0
 26 23  1  0  0  0  0
 26 27  1  0  0  0  0
 28 33  1  0  0  0  0
 29 32  1  0  0  0  0
 29 30  1  0  0  0  0
 30 28  2  0  0  0  0
 31 33  2  0  0  0  0
 32 31  1  0  0  0  0
 34 29  2  0  0  0  0
 35 27  1  0  0  0  0
 35 32  2  0  0  0  0
M  END
>  <MODEL>
4

>  <REMARK>
 VINA RESULT:      -9.1      2.832      7.971
  Name = 
  8 active torsions:
  status: ('A' for Active; 'I' for Inactive)
    1  A    between atoms: C_2  and  O_26
    2  A    between atoms: C_8  and  C_11
    3  A    between atoms: C_8  and  C_21
    4  A    between atoms: C_14  and  C_16
    5  A    between atoms: C_14  and  C_31
    6  A    between atoms: O_26  and  C_34
    7  A    between atoms: C_28  and  C_33
    8  A    between atoms: C_31  and  C_32
                            x       y       z     vdW  Elec       q    Type
                         _______ _______ _______ _____ _____    ______ ____

>  <TORSDO>
F 8

$$$$
=
 OpenBabel11042411533D

 35 38  0  0  0  0  0  0  0  0999 V2000
  180.9500  178.8760  142.9400 C   0  0  0  0  0  3  0  0  0  0  0  0
  181.1590  178.5560  141.5960 C   0  0  0  0  0  0  0  0  0  0  0  0
  182.4540  178.2420  141.1380 C   0  0  0  0  0  0  0  0  0  0  0  0
  180.0750  178.5720  140.7260 O   0  0  0  0  0  1  0  0  0  0  0  0
  182.0200  178.8850  143.8380 C   0  0  0  0  0  3  0  0  0  0  0  0
  183.5180  178.2520  142.0540 C   0  0  0  0  0  3  0  0  0  0  0  0
  183.3170  178.5760  143.4040 C   0  0  0  0  0  0  0  0  0  0  0  0
  184.2740  179.0040  145.6820 C   0  0  0  0  0  3  0  0  0  0  0  0
  185.7330  178.1760  143.9430 C   0  0  0  0  0  3  0  0  0  0  0  0
  186.8050  178.1840  144.8390 C   0  0  0  0  0  3  0  0  0  0  0  0
  184.4540  178.5850  144.3540 C   0  0  0  0  0  0  0  0  0  0  0  0
  186.6230  178.5980  146.1620 C   0  0  0  0  0  0  0  0  0  0  0  0
  185.3470  179.0090  146.5770 C   0  0  0  0  0  3  0  0  0  0  0  0
  187.7310  178.5840  147.0220 O   0  0  0  0  0  0  0  0  0  0  0  0
  188.4110  177.4450  147.4870 C   0  0  0  0  0  0  0  0  0  0  0  0
  187.9250  176.7250  148.4010 O   0  0  0  0  0  0  0  0  0  0  0  0
  191.4410  177.1340  145.2890 C   0  0  0  0  0  2  0  0  0  0  0  0
  190.2810  177.9130  145.8730 C   0  0  0  0  0  2  0  0  0  0  0  0
  192.0560  175.9880  146.5580 S   0  0  0  0  0  0  0  0  0  0  0  0
  189.6730  177.0980  146.9080 N   0  0  0  0  0  0  0  0  0  0  0  0
  190.4170  175.9280  147.3370 C   0  0  0  0  0  2  0  0  0  0  0  0
  182.7060  177.8620  139.7240 C   0  0  0  0  0  0  0  0  0  0  0  0
  182.9990  178.7500  138.7690 C   0  0  0  0  0  3  0  0  0  0  0  0
  182.6280  175.3580  139.0430 N   0  0  0  0  0  0  0  0  0  0  0  0
  182.6630  176.4740  139.3470 C   0  0  0  0  0  0  0  0  0  0  0  0
  183.0580  180.2260  138.9850 C   0  0  0  0  0  2  0  0  0  0  0  0
  181.7240  180.8430  138.6270 C   0  0  0  0  0  2  0  0  0  0  0  0
  180.0530  184.2070  135.0870 C   0  0  0  0  0  3  0  0  0  0  0  0
  181.5370  184.3030  136.9590 C   0  0  0  0  0  0  0  0  0  0  0  0
  180.8590  184.8960  135.8430 N   0  0  0  0  0  0  0  0  0  0  0  0
  180.3870  182.1440  136.3640 C   0  0  0  0  0  3  0  0  0  0  0  0
  181.3110  182.8750  137.2540 C   0  0  0  0  0  0  0  0  0  0  0  0
  179.7960  182.7730  135.3440 C   0  0  0  0  0  3  0  0  0  0  0  0
  182.3080  185.0030  137.6680 O   0  0  0  0  0  0  0  0  0  0  0  0
  181.9200  182.2820  138.2830 C   0  0  0  0  0  3  0  0  0  0  0  0
  1  5  1  0  0  0  0
  2  1  2  0  0  0  0
  3  2  1  0  0  0  0
  3  6  2  0  0  0  0
  4  2  1  0  0  0  0
  6  7  1  0  0  0  0
  7  5  2  0  0  0  0
  7 11  1  0  0  0  0
  8 13  1  0  0  0  0
  9 11  1  0  0  0  0
  9 10  2  0  0  0  0
 10 12  1  0  0  0  0
 11  8  2  0  0  0  0
 12 13  2  0  0  0  0
 12 14  1  0  0  0  0
 14 15  1  0  0  0  0
 15 16  2  0  0  0  0
 17 18  1  0  0  0  0
 17 19  1  0  0  0  0
 18 20  1  0  0  0  0
 19 21  1  0  0  0  0
 20 21  1  0  0  0  0
 20 15  1  0  0  0  0
 22  3  1  0  0  0  0
 23 26  1  0  0  0  0
 23 22  2  0  0  0  0
 24 25  3  0  0  0  0
 25 22  1  0  0  0  0
 27 26  1  0  0  0  0
 28 33  1  0  0  0  0
 28 30  2  0  0  0  0
 29 32  1  0  0  0  0
 29 34  2  0  0  0  0
 30 29  1  0  0  0  0
 31 32  1  0  0  0  0
 32 35  2  0  0  0  0
 33 31  2  0  0  0  0
 35 27  1  0  0  0  0
M  END
>  <MODEL>
5

>  <REMARK>
 VINA RESULT:      -9.0      4.147      9.376
  Name = 
  8 active torsions:
  status: ('A' for Active; 'I' for Inactive)
    1  A    between atoms: C_2  and  O_26
    2  A    between atoms: C_8  and  C_11
    3  A    between atoms: C_8  and  C_21
    4  A    between atoms: C_14  and  C_16
    5  A    between atoms: C_14  and  C_31
    6  A    between atoms: O_26  and  C_34
    7  A    between atoms: C_28  and  C_33
    8  A    between atoms: C_31  and  C_32
                            x       y       z     vdW  Elec       q    Type
                         _______ _______ _______ _____ _____    ______ ____

>  <TORSDO>
F 8

$$$$
=
 OpenBabel11042411533D

 35 38  0  0  0  0  0  0  0  0999 V2000
  181.2880  179.0130  142.3290 C   0  0  0  0  0  3  0  0  0  0  0  0
  181.5090  178.4460  141.0710 C   0  0  0  0  0  0  0  0  0  0  0  0
  182.7590  177.8710  140.7660 C   0  0  0  0  0  0  0  0  0  0  0  0
  180.4850  178.4780  140.1310 O   0  0  0  0  0  1  0  0  0  0  0  0
  182.3000  179.0130  143.2910 C   0  0  0  0  0  3  0  0  0  0  0  0
  183.7640  177.8750  141.7450 C   0  0  0  0  0  3  0  0  0  0  0  0
  183.5510  178.4460  143.0090 C   0  0  0  0  0  0  0  0  0  0  0  0
  185.8830  177.8840  143.7430 C   0  0  0  0  0  3  0  0  0  0  0  0
  184.4100  179.0040  145.2980 C   0  0  0  0  0  3  0  0  0  0  0  0
  185.4250  179.0030  146.2590 C   0  0  0  0  0  3  0  0  0  0  0  0
  184.6280  178.4450  144.0280 C   0  0  0  0  0  0  0  0  0  0  0  0
  186.6750  178.4480  145.9720 C   0  0  0  0  0  0  0  0  0  0  0  0
  186.8960  177.8870  144.7050 C   0  0  0  0  0  3  0  0  0  0  0  0
  187.6600  178.4760  146.9710 O   0  0  0  0  0  0  0  0  0  0  0  0
  188.3780  177.3740  147.4650 C   0  0  0  0  0  0  0  0  0  0  0  0
  187.9220  176.6710  148.4070 O   0  0  0  0  0  0  0  0  0  0  0  0
  191.3950  177.0800  145.2470 C   0  0  0  0  0  2  0  0  0  0  0  0
  190.2180  177.8440  145.8180 C   0  0  0  0  0  2  0  0  0  0  0  0
  192.0560  175.9960  146.5460 S   0  0  0  0  0  0  0  0  0  0  0  0
  189.6450  177.0460  146.8850 N   0  0  0  0  0  0  0  0  0  0  0  0
  190.4270  175.9120  147.3440 C   0  0  0  0  0  2  0  0  0  0  0  0
  183.0160  177.2270  139.4520 C   0  0  0  0  0  0  0  0  0  0  0  0
  183.9940  177.6130  138.6270 C   0  0  0  0  0  3  0  0  0  0  0  0
  181.5490  175.2180  138.7070 N   0  0  0  0  0  0  0  0  0  0  0  0
  182.2020  176.1140  139.0400 C   0  0  0  0  0  0  0  0  0  0  0  0
  184.9080  178.7630  138.8900 C   0  0  0  0  0  2  0  0  0  0  0  0
  186.3020  178.4210  138.4130 C   0  0  0  0  0  2  0  0  0  0  0  0
  191.1180  176.8330  139.3710 C   0  0  0  0  0  3  0  0  0  0  0  0
  189.3020  177.6500  140.6930 C   0  0  0  0  0  0  0  0  0  0  0  0
  190.6390  177.1560  140.5380 N   0  0  0  0  0  0  0  0  0  0  0  0
  189.0480  177.4140  138.2000 C   0  0  0  0  0  3  0  0  0  0  0  0
  188.4530  177.7950  139.4950 C   0  0  0  0  0  0  0  0  0  0  0  0
  190.3040  176.9610  138.1430 C   0  0  0  0  0  3  0  0  0  0  0  0
  188.8740  177.9540  141.8380 O   0  0  0  0  0  0  0  0  0  0  0  0
  187.2010  178.2530  139.5920 C   0  0  0  0  0  3  0  0  0  0  0  0
  1  5  1  0  0  0  0
  2  1  2  0  0  0  0
  3  2  1  0  0  0  0
  3  6  2  0  0  0  0
  4  2  1  0  0  0  0
  6  7  1  0  0  0  0
  7  5  2  0  0  0  0
  7 11  1  0  0  0  0
  8 11  2  0  0  0  0
  8 13  1  0  0  0  0
  9 10  2  0  0  0  0
 11  9  1  0  0  0  0
 12 10  1  0  0  0  0
 12 14  1  0  0  0  0
 13 12  2  0  0  0  0
 14 15  1  0  0  0  0
 15 16  2  0  0  0  0
 17 18  1  0  0  0  0
 17 19  1  0  0  0  0
 18 20  1  0  0  0  0
 19 21  1  0  0  0  0
 20 21  1  0  0  0  0
 20 15  1  0  0  0  0
 22  3  1  0  0  0  0
 23 26  1  0  0  0  0
 23 22  2  0  0  0  0
 24 25  3  0  0  0  0
 25 22  1  0  0  0  0
 27 26  1  0  0  0  0
 27 35  1  0  0  0  0
 28 30  2  0  0  0  0
 29 34  2  0  0  0  0
 30 29  1  0  0  0  0
 31 32  1  0  0  0  0
 32 35  2  0  0  0  0
 32 29  1  0  0  0  0
 33 31  2  0  0  0  0
 33 28  1  0  0  0  0
M  END
>  <MODEL>
6

>  <REMARK>
 VINA RESULT:      -8.9      2.834      7.767
  Name = 
  8 active torsions:
  status: ('A' for Active; 'I' for Inactive)
    1  A    between atoms: C_2  and  O_26
    2  A    between atoms: C_8  and  C_11
    3  A    between atoms: C_8  and  C_21
    4  A    between atoms: C_14  and  C_16
    5  A    between atoms: C_14  and  C_31
    6  A    between atoms: O_26  and  C_34
    7  A    between atoms: C_28  and  C_33
    8  A    between atoms: C_31  and  C_32
                            x       y       z     vdW  Elec       q    Type
                         _______ _______ _______ _____ _____    ______ ____

>  <TORSDO>
F 8

$$$$
=
 OpenBabel11042411533D

 35 38  0  0  0  0  0  0  0  0999 V2000
  180.5500  176.1240  140.1050 C   0  0  0  0  0  3  0  0  0  0  0  0
  180.1520  177.1460  140.9710 C   0  0  0  0  0  0  0  0  0  0  0  0
  180.9470  178.3010  141.1130 C   0  0  0  0  0  0  0  0  0  0  0  0
  178.9760  176.9910  141.6960 O   0  0  0  0  0  1  0  0  0  0  0  0
  181.7340  176.2400  139.3740 C   0  0  0  0  0  3  0  0  0  0  0  0
  182.1320  178.4030  140.3680 C   0  0  0  0  0  3  0  0  0  0  0  0
  182.5400  177.3800  139.4990 C   0  0  0  0  0  0  0  0  0  0  0  0
  184.7240  178.5170  139.0230 C   0  0  0  0  0  3  0  0  0  0  0  0
  184.0840  176.6140  137.6780 C   0  0  0  0  0  3  0  0  0  0  0  0
  185.2710  176.7310  136.9480 C   0  0  0  0  0  3  0  0  0  0  0  0
  183.7980  177.5060  138.7250 C   0  0  0  0  0  0  0  0  0  0  0  0
  186.1940  177.7370  137.2490 C   0  0  0  0  0  0  0  0  0  0  0  0
  185.9100  178.6310  138.2930 C   0  0  0  0  0  3  0  0  0  0  0  0
  187.3700  177.8090  136.4880 O   0  0  0  0  0  0  0  0  0  0  0  0
  188.6800  177.9060  136.9860 C   0  0  0  0  0  0  0  0  0  0  0  0
  189.1650  179.0180  137.3290 O   0  0  0  0  0  0  0  0  0  0  0  0
  189.9150  174.3660  137.2180 C   0  0  0  0  0  2  0  0  0  0  0  0
  188.9620  175.4240  136.7020 C   0  0  0  0  0  2  0  0  0  0  0  0
  191.5640  175.1130  137.3790 S   0  0  0  0  0  0  0  0  0  0  0  0
  189.4720  176.7200  137.1090 N   0  0  0  0  0  0  0  0  0  0  0  0
  190.8270  176.7530  137.6290 C   0  0  0  0  0  2  0  0  0  0  0  0
  180.5350  179.4220  141.9960 C   0  0  0  0  0  0  0  0  0  0  0  0
  180.9380  179.5390  143.2660 C   0  0  0  0  0  3  0  0  0  0  0  0
  178.9970  181.2900  141.0550 N   0  0  0  0  0  0  0  0  0  0  0  0
  179.6830  180.4570  141.4740 C   0  0  0  0  0  0  0  0  0  0  0  0
  181.8000  178.5430  143.9670 C   0  0  0  0  0  2  0  0  0  0  0  0
  183.0540  179.2230  144.4700 C   0  0  0  0  0  2  0  0  0  0  0  0
  187.8270  177.4550  145.3210 C   0  0  0  0  0  3  0  0  0  0  0  0
  186.4960  177.8950  143.3850 C   0  0  0  0  0  0  0  0  0  0  0  0
  187.7030  177.4600  144.0240 N   0  0  0  0  0  0  0  0  0  0  0  0
  185.5660  178.3200  145.6850 C   0  0  0  0  0  3  0  0  0  0  0  0
  185.3680  178.3470  144.2220 C   0  0  0  0  0  0  0  0  0  0  0  0
  186.7250  177.9000  146.2000 C   0  0  0  0  0  3  0  0  0  0  0  0
  186.4130  177.8840  142.1280 O   0  0  0  0  0  0  0  0  0  0  0  0
  184.2240  178.7590  143.6700 C   0  0  0  0  0  3  0  0  0  0  0  0
  1  2  1  0  0  0  0
  2  3  2  0  0  0  0
  2  4  1  0  0  0  0
  3 22  1  0  0  0  0
  5  7  1  0  0  0  0
  5  1  2  0  0  0  0
  6  3  1  0  0  0  0
  7  6  2  0  0  0  0
  9 11  2  0  0  0  0
 10 12  2  0  0  0  0
 10  9  1  0  0  0  0
 11  8  1  0  0  0  0
 11  7  1  0  0  0  0
 12 13  1  0  0  0  0
 13  8  2  0  0  0  0
 14 15  1  0  0  0  0
 14 12  1  0  0  0  0
 15 20  1  0  0  0  0
 15 16  2  0  0  0  0
 17 19  1  0  0  0  0
 18 20  1  0  0  0  0
 18 17  1  0  0  0  0
 19 21  1  0  0  0  0
 20 21  1  0  0  0  0
 22 23  2  0  0  0  0
 23 26  1  0  0  0  0
 24 25  3  0  0  0  0
 25 22  1  0  0  0  0
 26 27  1  0  0  0  0
 28 33  1  0  0  0  0
 29 30  1  0  0  0  0
 29 32  1  0  0  0  0
 30 28  2  0  0  0  0
 31 33  2  0  0  0  0
 32 31  1  0  0  0  0
 34 29  2  0  0  0  0
 35 32  2  0  0  0  0
 35 27  1  0  0  0  0
M  END
>  <MODEL>
7

>  <REMARK>
 VINA RESULT:      -8.6      3.256      8.476
  Name = 
  8 active torsions:
  status: ('A' for Active; 'I' for Inactive)
    1  A    between atoms: C_2  and  O_26
    2  A    between atoms: C_8  and  C_11
    3  A    between atoms: C_8  and  C_21
    4  A    between atoms: C_14  and  C_16
    5  A    between atoms: C_14  and  C_31
    6  A    between atoms: O_26  and  C_34
    7  A    between atoms: C_28  and  C_33
    8  A    between atoms: C_31  and  C_32
                            x       y       z     vdW  Elec       q    Type
                         _______ _______ _______ _____ _____    ______ ____

>  <TORSDO>
F 8

$$$$
=
 OpenBabel11042411533D

 35 38  0  0  0  0  0  0  0  0999 V2000
  180.0940  178.8780  142.3130 C   0  0  0  0  0  3  0  0  0  0  0  0
  180.1570  179.2010  140.9550 C   0  0  0  0  0  0  0  0  0  0  0  0
  181.4070  179.3420  140.3200 C   0  0  0  0  0  0  0  0  0  0  0  0
  178.9720  179.3960  140.2550 O   0  0  0  0  0  1  0  0  0  0  0  0
  181.2650  178.6910  143.0490 C   0  0  0  0  0  3  0  0  0  0  0  0
  182.5750  179.1470  141.0740 C   0  0  0  0  0  3  0  0  0  0  0  0
  182.5200  178.8260  142.4380 C   0  0  0  0  0  0  0  0  0  0  0  0
  183.8090  178.9340  144.5870 C   0  0  0  0  0  3  0  0  0  0  0  0
  184.9250  178.1330  142.5980 C   0  0  0  0  0  3  0  0  0  0  0  0
  186.0990  177.9460  143.3330 C   0  0  0  0  0  3  0  0  0  0  0  0
  183.7660  178.6290  143.2170 C   0  0  0  0  0  0  0  0  0  0  0  0
  186.1400  178.2480  144.6980 C   0  0  0  0  0  0  0  0  0  0  0  0
  184.9840  178.7450  145.3190 C   0  0  0  0  0  3  0  0  0  0  0  0
  187.3420  178.0390  145.3890 O   0  0  0  0  0  0  0  0  0  0  0  0
  188.5880  177.7250  144.8200 C   0  0  0  0  0  0  0  0  0  0  0  0
  188.7960  177.8780  143.5860 O   0  0  0  0  0  0  0  0  0  0  0  0
  190.7840  176.7620  147.7110 C   0  0  0  0  0  2  0  0  0  0  0  0
  189.4300  177.0110  147.0780 C   0  0  0  0  0  2  0  0  0  0  0  0
  191.8860  176.0670  146.4460 S   0  0  0  0  0  0  0  0  0  0  0  0
  189.6350  177.2270  145.6590 N   0  0  0  0  0  0  0  0  0  0  0  0
  190.9470  176.8970  145.1320 C   0  0  0  0  0  2  0  0  0  0  0  0
  181.5110  179.6480  138.8700 C   0  0  0  0  0  0  0  0  0  0  0  0
  181.6050  178.7040  137.9290 C   0  0  0  0  0  3  0  0  0  0  0  0
  181.4590  182.1210  138.0820 N   0  0  0  0  0  0  0  0  0  0  0  0
  181.4820  181.0190  138.4330 C   0  0  0  0  0  0  0  0  0  0  0  0
  181.6730  177.2410  138.2120 C   0  0  0  0  0  2  0  0  0  0  0  0
  182.9480  176.6710  137.6290 C   0  0  0  0  0  2  0  0  0  0  0  0
  187.6790  178.1970  136.2440 C   0  0  0  0  0  3  0  0  0  0  0  0
  186.3850  178.2790  138.2520 C   0  0  0  0  0  0  0  0  0  0  0  0
  187.5750  178.5390  137.4960 N   0  0  0  0  0  0  0  0  0  0  0  0
  185.4260  177.2420  136.1690 C   0  0  0  0  0  3  0  0  0  0  0  0
  185.2520  177.6070  137.5880 C   0  0  0  0  0  0  0  0  0  0  0  0
  186.5700  177.5200  135.5370 C   0  0  0  0  0  3  0  0  0  0  0  0
  186.3220  178.6260  139.4610 O   0  0  0  0  0  0  0  0  0  0  0  0
  184.1230  177.3450  138.2530 C   0  0  0  0  0  3  0  0  0  0  0  0
  1  5  1  0  0  0  0
  2  1  2  0  0  0  0
  3  2  1  0  0  0  0
  3  6  2  0  0  0  0
  4  2  1  0  0  0  0
  6  7  1  0  0  0  0
  7  5  2  0  0  0  0
  7 11  1  0  0  0  0
  8 13  1  0  0  0  0
  9 11  1  0  0  0  0
  9 10  2  0  0  0  0
 10 12  1  0  0  0  0
 11  8  2  0  0  0  0
 12 13  2  0  0  0  0
 12 14  1  0  0  0  0
 15 14  1  0  0  0  0
 15 20  1  0  0  0  0
 16 15  2  0  0  0  0
 18 17  1  0  0  0  0
 19 17  1  0  0  0  0
 20 18  1  0  0  0  0
 21 20  1  0  0  0  0
 21 19  1  0  0  0  0
 22  3  1  0  0  0  0
 23 26  1  0  0  0  0
 23 22  2  0  0  0  0
 24 25  3  0  0  0  0
 25 22  1  0  0  0  0
 27 26  1  0  0  0  0
 27 35  1  0  0  0  0
 28 30  2  0  0  0  0
 29 34  2  0  0  0  0
 30 29  1  0  0  0  0
 31 32  1  0  0  0  0
 32 29  1  0  0  0  0
 32 35  2  0  0  0  0
 33 31  2  0  0  0  0
 33 28  1  0  0  0  0
M  END
>  <MODEL>
8

>  <REMARK>
 VINA RESULT:      -8.5      3.319      8.452
  Name = 
  8 active torsions:
  status: ('A' for Active; 'I' for Inactive)
    1  A    between atoms: C_2  and  O_26
    2  A    between atoms: C_8  and  C_11
    3  A    between atoms: C_8  and  C_21
    4  A    between atoms: C_14  and  C_16
    5  A    between atoms: C_14  and  C_31
    6  A    between atoms: O_26  and  C_34
    7  A    between atoms: C_28  and  C_33
    8  A    between atoms: C_31  and  C_32
                            x       y       z     vdW  Elec       q    Type
                         _______ _______ _______ _____ _____    ______ ____

>  <TORSDO>
F 8

$$$$
=
 OpenBabel11042411533D

 35 38  0  0  0  0  0  0  0  0999 V2000
  190.8430  177.4340  139.5190 C   0  0  0  0  0  3  0  0  0  0  0  0
  191.1860  177.4990  140.8710 C   0  0  0  0  0  0  0  0  0  0  0  0
  190.2060  177.8160  141.8330 C   0  0  0  0  0  0  0  0  0  0  0  0
  192.5050  177.2660  141.2420 O   0  0  0  0  0  1  0  0  0  0  0  0
  189.5310  177.6790  139.1100 C   0  0  0  0  0  3  0  0  0  0  0  0
  188.8910  178.0550  141.4070 C   0  0  0  0  0  3  0  0  0  0  0  0
  188.5390  177.9950  140.0500 C   0  0  0  0  0  0  0  0  0  0  0  0
  186.1940  178.7420  140.5300 C   0  0  0  0  0  3  0  0  0  0  0  0
  186.7510  178.0200  138.2930 C   0  0  0  0  0  3  0  0  0  0  0  0
  185.4370  178.2670  137.8860 C   0  0  0  0  0  3  0  0  0  0  0  0
  187.1450  178.2560  139.6200 C   0  0  0  0  0  0  0  0  0  0  0  0
  184.4910  178.7540  138.7940 C   0  0  0  0  0  0  0  0  0  0  0  0
  184.8810  178.9890  140.1220 C   0  0  0  0  0  3  0  0  0  0  0  0
  183.1870  178.9880  138.3340 O   0  0  0  0  0  0  0  0  0  0  0  0
  182.2170  179.7950  138.9530 C   0  0  0  0  0  0  0  0  0  0  0  0
  182.1710  181.0370  138.7400 O   0  0  0  0  0  0  0  0  0  0  0  0
  180.0140  177.4150  140.8480 C   0  0  0  0  0  2  0  0  0  0  0  0
  181.2980  177.7720  140.1280 C   0  0  0  0  0  2  0  0  0  0  0  0
  179.4120  178.8970  141.7100 S   0  0  0  0  0  0  0  0  0  0  0  0
  181.2650  179.1920  139.8360 N   0  0  0  0  0  0  0  0  0  0  0  0
  180.2320  179.9690  140.4950 C   0  0  0  0  0  2  0  0  0  0  0  0
  190.5280  177.8570  143.2830 C   0  0  0  0  0  0  0  0  0  0  0  0
  190.0930  176.9420  144.1550 C   0  0  0  0  0  3  0  0  0  0  0  0
  192.0460  179.7540  144.1990 N   0  0  0  0  0  0  0  0  0  0  0  0
  191.3690  178.9080  143.7910 C   0  0  0  0  0  0  0  0  0  0  0  0
  189.1940  175.8060  143.7990 C   0  0  0  0  0  2  0  0  0  0  0  0
  187.7860  176.3190  143.5920 C   0  0  0  0  0  2  0  0  0  0  0  0
  183.8160  179.2560  145.0920 C   0  0  0  0  0  3  0  0  0  0  0  0
  185.7830  178.3910  146.1390 C   0  0  0  0  0  0  0  0  0  0  0  0
  184.5630  179.1450  146.1530 N   0  0  0  0  0  0  0  0  0  0  0  0
  185.3110  177.8870  143.7190 C   0  0  0  0  0  3  0  0  0  0  0  0
  186.1960  177.7260  144.8880 C   0  0  0  0  0  0  0  0  0  0  0  0
  184.1900  178.6090  143.8170 C   0  0  0  0  0  3  0  0  0  0  0  0
  186.4790  178.3050  147.1860 O   0  0  0  0  0  0  0  0  0  0  0  0
  187.3240  177.0130  144.8290 C   0  0  0  0  0  3  0  0  0  0  0  0
  1  2  1  0  0  0  0
  2  4  1  0  0  0  0
  2  3  2  0  0  0  0
  3 22  1  0  0  0  0
  5  1  2  0  0  0  0
  5  7  1  0  0  0  0
  6  3  1  0  0  0  0
  7  6  2  0  0  0  0
  9 11  1  0  0  0  0
 10  9  2  0  0  0  0
 10 12  1  0  0  0  0
 11  7  1  0  0  0  0
 11  8  2  0  0  0  0
 12 13  2  0  0  0  0
 13  8  1  0  0  0  0
 14 12  1  0  0  0  0
 14 15  1  0  0  0  0
 15 20  1  0  0  0  0
 16 15  2  0  0  0  0
 17 19  1  0  0  0  0
 18 17  1  0  0  0  0
 20 18  1  0  0  0  0
 20 21  1  0  0  0  0
 21 19  1  0  0  0  0
 22 25  1  0  0  0  0
 22 23  2  0  0  0  0
 25 24  3  0  0  0  0
 26 23  1  0  0  0  0
 27 26  1  0  0  0  0
 27 35  1  0  0  0  0
 28 30  2  0  0  0  0
 29 30  1  0  0  0  0
 29 34  2  0  0  0  0
 31 33  2  0  0  0  0
 31 32  1  0  0  0  0
 32 29  1  0  0  0  0
 33 28  1  0  0  0  0
 35 32  2  0  0  0  0
M  END
>  <MODEL>
9

>  <REMARK>
 VINA RESULT:      -8.5      2.745      5.677
  Name = 
  8 active torsions:
  status: ('A' for Active; 'I' for Inactive)
    1  A    between atoms: C_2  and  O_26
    2  A    between atoms: C_8  and  C_11
    3  A    between atoms: C_8  and  C_21
    4  A    between atoms: C_14  and  C_16
    5  A    between atoms: C_14  and  C_31
    6  A    between atoms: O_26  and  C_34
    7  A    between atoms: C_28  and  C_33
    8  A    between atoms: C_31  and  C_32
                            x       y       z     vdW  Elec       q    Type
                         _______ _______ _______ _____ _____    ______ ____

>  <TORSDO>
F 8

$$$$
