=
 OpenBabel11042412273D

 26 29  0  0  0  0  0  0  0  0999 V2000
  185.6540  178.2610  146.3880 C   0  0  0  0  0  3  0  0  0  0  0  0
  188.4650  177.3150  146.3070 O   0  0  0  0  0  0  0  0  0  0  0  0
  189.6350  176.9120  145.8490 C   0  0  0  0  0  0  0  0  0  0  0  0
  187.7090  177.5450  145.2660 C   0  0  0  0  0  0  0  0  0  0  0  0
  188.3980  177.2850  144.1160 C   0  0  0  0  0  0  0  0  0  0  0  0
  187.8000  177.4570  142.8670 C   0  0  0  0  0  0  0  0  0  0  0  0
  184.4700  178.5990  143.8860 C   0  0  0  0  0  3  0  0  0  0  0  0
  183.7670  178.8630  145.0670 C   0  0  0  0  0  0  0  0  0  0  0  0
  184.3660  178.6910  146.2780 N   0  0  0  0  0  0  0  0  0  0  0  0
  186.3900  177.9860  145.2350 C   0  0  0  0  0  0  0  0  0  0  0  0
  185.7900  178.1570  143.9640 C   0  0  0  0  0  0  0  0  0  0  0  0
  182.4840  179.2920  145.0050 F   0  0  0  0  0  0  0  0  0  0  0  0
  186.5020  177.8910  142.8250 N   0  0  0  0  0  0  0  0  0  0  0  0
  189.6680  176.8670  144.4550 C   0  0  0  0  0  3  0  0  0  0  0  0
  190.7370  176.5630  146.7000 C   0  0  0  0  0  0  0  0  0  0  0  0
  192.7880  175.9150  148.2810 C   0  0  0  0  0  1  0  0  0  0  0  0
  191.6640  176.2710  147.4140 C   0  0  0  0  0  0  0  0  0  0  0  0
  188.5150  177.1900  141.6960 O   0  0  0  0  0  0  0  0  0  0  0  0
  188.7630  178.1850  140.7110 C   0  0  0  0  0  2  0  0  0  0  0  0
  188.5900  177.5990  139.3200 C   0  0  0  0  0  2  0  0  0  0  0  0
  186.7610  178.0330  137.8430 C   0  0  0  0  0  2  0  0  0  0  0  0
  187.8660  177.5960  135.7540 O   0  0  0  0  0  0  0  0  0  0  0  0
  189.1130  177.8610  136.3430 C   0  0  0  0  0  2  0  0  0  0  0  0
  187.9870  178.5900  138.4370 N   0  0  0  0  0  0  0  0  0  0  0  0
  187.0790  177.0010  136.7520 C   0  0  0  0  0  2  0  0  0  0  0  0
  188.9610  178.9620  137.4010 C   0  0  0  0  0  2  0  0  0  0  0  0
  3  2  1  0  0  0  0
  3 15  1  0  0  0  0
  4  2  1  0  0  0  0
  5 14  1  0  0  0  0
  5  4  2  0  0  0  0
  6  5  1  0  0  0  0
  7 11  2  0  0  0  0
  7  8  1  0  0  0  0
  8  9  2  0  0  0  0
  9  1  1  0  0  0  0
 10  4  1  0  0  0  0
 10  1  2  0  0  0  0
 11 10  1  0  0  0  0
 12  8  1  0  0  0  0
 13  6  2  0  0  0  0
 13 11  1  0  0  0  0
 14  3  2  0  0  0  0
 15 17  3  0  0  0  0
 17 16  1  0  0  0  0
 18  6  1  0  0  0  0
 19 18  1  0  0  0  0
 20 19  1  0  0  0  0
 21 24  1  0  0  0  0
 22 23  1  0  0  0  0
 22 25  1  0  0  0  0
 23 26  1  0  0  0  0
 24 20  1  0  0  0  0
 25 21  1  0  0  0  0
 26 24  1  0  0  0  0
M  END
>  <MODEL>
1

>  <REMARK>
 VINA RESULT:      -9.2      0.000      0.000
  Name = 
  5 active torsions:
  status: ('A' for Active; 'I' for Inactive)
    1  A    between atoms: C_2  and  C_6
    2  A    between atoms: C_2  and  N_8
    3  A    between atoms: C_6  and  O_17
    4  A    between atoms: C_9  and  C_13
    5  A    between atoms: C_14  and  O_17
                            x       y       z     vdW  Elec       q    Type
                         _______ _______ _______ _____ _____    ______ ____

>  <TORSDO>
F 5

$$$$
=
 OpenBabel11042412273D

 26 29  0  0  0  0  0  0  0  0999 V2000
  189.2520  177.2890  146.9790 C   0  0  0  0  0  3  0  0  0  0  0  0
  187.0740  177.7990  145.0290 O   0  0  0  0  0  0  0  0  0  0  0  0
  186.4180  177.9120  143.8900 C   0  0  0  0  0  0  0  0  0  0  0  0
  188.2870  177.4130  144.7320 C   0  0  0  0  0  0  0  0  0  0  0  0
  188.4200  177.2750  143.3800 C   0  0  0  0  0  0  0  0  0  0  0  0
  189.6300  176.8700  142.8150 C   0  0  0  0  0  0  0  0  0  0  0  0
  191.6660  176.4820  145.8380 C   0  0  0  0  0  3  0  0  0  0  0  0
  191.5250  176.6260  147.2230 C   0  0  0  0  0  0  0  0  0  0  0  0
  190.3360  177.0210  147.7580 N   0  0  0  0  0  0  0  0  0  0  0  0
  189.3500  177.1590  145.5930 C   0  0  0  0  0  0  0  0  0  0  0  0
  190.5740  176.7490  145.0130 C   0  0  0  0  0  0  0  0  0  0  0  0
  192.5780  176.3700  148.0360 F   0  0  0  0  0  0  0  0  0  0  0  0
  190.6820  176.6170  143.6540 N   0  0  0  0  0  0  0  0  0  0  0  0
  187.2130  177.5930  142.7900 C   0  0  0  0  0  3  0  0  0  0  0  0
  185.0430  178.3170  143.8090 C   0  0  0  0  0  0  0  0  0  0  0  0
  182.4860  179.0680  143.6580 C   0  0  0  0  0  1  0  0  0  0  0  0
  183.8880  178.6560  143.7410 C   0  0  0  0  0  0  0  0  0  0  0  0
  189.7540  176.7300  141.4300 O   0  0  0  0  0  0  0  0  0  0  0  0
  190.8920  177.1950  140.7160 C   0  0  0  0  0  2  0  0  0  0  0  0
  190.6090  177.1940  139.2230 C   0  0  0  0  0  2  0  0  0  0  0  0
  188.8720  176.2530  137.8770 C   0  0  0  0  0  2  0  0  0  0  0  0
  188.5620  178.0820  136.3480 O   0  0  0  0  0  0  0  0  0  0  0  0
  189.0950  178.9770  137.2900 C   0  0  0  0  0  2  0  0  0  0  0  0
  189.1700  177.1650  138.9920 N   0  0  0  0  0  0  0  0  0  0  0  0
  189.2510  176.8720  136.5240 C   0  0  0  0  0  2  0  0  0  0  0  0
  188.7050  178.5300  138.7060 C   0  0  0  0  0  2  0  0  0  0  0  0
  1  9  1  0  0  0  0
  3  2  1  0  0  0  0
  4  2  1  0  0  0  0
  4 10  1  0  0  0  0
  5  4  2  0  0  0  0
  6  5  1  0  0  0  0
  6 13  2  0  0  0  0
  7  8  1  0  0  0  0
  8  9  2  0  0  0  0
  8 12  1  0  0  0  0
 10  1  2  0  0  0  0
 11 10  1  0  0  0  0
 11  7  2  0  0  0  0
 13 11  1  0  0  0  0
 14  5  1  0  0  0  0
 14  3  2  0  0  0  0
 15  3  1  0  0  0  0
 16 17  1  0  0  0  0
 17 15  3  0  0  0  0
 18  6  1  0  0  0  0
 19 18  1  0  0  0  0
 20 19  1  0  0  0  0
 21 24  1  0  0  0  0
 22 25  1  0  0  0  0
 22 23  1  0  0  0  0
 23 26  1  0  0  0  0
 24 20  1  0  0  0  0
 25 21  1  0  0  0  0
 26 24  1  0  0  0  0
M  END
>  <MODEL>
2

>  <REMARK>
 VINA RESULT:      -8.6      2.941      5.139
  Name = 
  5 active torsions:
  status: ('A' for Active; 'I' for Inactive)
    1  A    between atoms: C_2  and  C_6
    2  A    between atoms: C_2  and  N_8
    3  A    between atoms: C_6  and  O_17
    4  A    between atoms: C_9  and  C_13
    5  A    between atoms: C_14  and  O_17
                            x       y       z     vdW  Elec       q    Type
                         _______ _______ _______ _____ _____    ______ ____

>  <TORSDO>
F 5

$$$$
=
 OpenBabel11042412273D

 26 29  0  0  0  0  0  0  0  0999 V2000
  188.1010  177.7220  146.9950 C   0  0  0  0  0  3  0  0  0  0  0  0
  185.9170  178.1520  145.0330 O   0  0  0  0  0  0  0  0  0  0  0  0
  185.2580  178.2230  143.8910 C   0  0  0  0  0  0  0  0  0  0  0  0
  187.1330  177.7670  144.7460 C   0  0  0  0  0  0  0  0  0  0  0  0
  187.2650  177.5860  143.3990 C   0  0  0  0  0  0  0  0  0  0  0  0
  188.4780  177.1740  142.8460 C   0  0  0  0  0  0  0  0  0  0  0  0
  190.5200  176.8990  145.8780 C   0  0  0  0  0  3  0  0  0  0  0  0
  190.3790  177.0860  147.2580 C   0  0  0  0  0  0  0  0  0  0  0  0
  189.1880  177.4880  147.7800 N   0  0  0  0  0  0  0  0  0  0  0  0
  188.1980  177.5480  145.6140 C   0  0  0  0  0  0  0  0  0  0  0  0
  189.4250  177.1310  145.0450 C   0  0  0  0  0  0  0  0  0  0  0  0
  191.4360  176.8640  148.0770 F   0  0  0  0  0  0  0  0  0  0  0  0
  189.5340  176.9570  143.6910 N   0  0  0  0  0  0  0  0  0  0  0  0
  186.0550  177.8760  142.8010 C   0  0  0  0  0  3  0  0  0  0  0  0
  183.8800  178.6140  143.7990 C   0  0  0  0  0  0  0  0  0  0  0  0
  181.3180  179.3390  143.6260 C   0  0  0  0  0  1  0  0  0  0  0  0
  182.7220  178.9410  143.7210 C   0  0  0  0  0  0  0  0  0  0  0  0
  188.6020  176.9910  141.4660 O   0  0  0  0  0  0  0  0  0  0  0  0
  189.5380  177.7190  140.6820 C   0  0  0  0  0  2  0  0  0  0  0  0
  188.8310  178.4030  139.5240 C   0  0  0  0  0  2  0  0  0  0  0  0
  189.0070  178.9590  137.2050 C   0  0  0  0  0  2  0  0  0  0  0  0
  187.5830  177.2420  136.3090 O   0  0  0  0  0  0  0  0  0  0  0  0
  187.8050  176.4470  137.4440 C   0  0  0  0  0  2  0  0  0  0  0  0
  189.4980  178.0700  138.2710 N   0  0  0  0  0  0  0  0  0  0  0  0
  187.5910  178.5730  136.7550 C   0  0  0  0  0  2  0  0  0  0  0  0
  189.2380  176.6590  137.9520 C   0  0  0  0  0  2  0  0  0  0  0  0
  1  9  1  0  0  0  0
  3  2  1  0  0  0  0
  4  2  1  0  0  0  0
  4 10  1  0  0  0  0
  5  4  2  0  0  0  0
  6  5  1  0  0  0  0
  6 13  2  0  0  0  0
  7  8  1  0  0  0  0
  8  9  2  0  0  0  0
  8 12  1  0  0  0  0
 10  1  2  0  0  0  0
 11 10  1  0  0  0  0
 11  7  2  0  0  0  0
 13 11  1  0  0  0  0
 14  5  1  0  0  0  0
 14  3  2  0  0  0  0
 15  3  1  0  0  0  0
 16 17  1  0  0  0  0
 17 15  3  0  0  0  0
 18  6  1  0  0  0  0
 19 18  1  0  0  0  0
 20 19  1  0  0  0  0
 21 24  1  0  0  0  0
 22 25  1  0  0  0  0
 22 23  1  0  0  0  0
 23 26  1  0  0  0  0
 24 20  1  0  0  0  0
 25 21  1  0  0  0  0
 26 24  1  0  0  0  0
M  END
>  <MODEL>
3

>  <REMARK>
 VINA RESULT:      -8.5      2.599      5.028
  Name = 
  5 active torsions:
  status: ('A' for Active; 'I' for Inactive)
    1  A    between atoms: C_2  and  C_6
    2  A    between atoms: C_2  and  N_8
    3  A    between atoms: C_6  and  O_17
    4  A    between atoms: C_9  and  C_13
    5  A    between atoms: C_14  and  O_17
                            x       y       z     vdW  Elec       q    Type
                         _______ _______ _______ _____ _____    ______ ____

>  <TORSDO>
F 5

$$$$
=
 OpenBabel11042412273D

 26 29  0  0  0  0  0  0  0  0999 V2000
  191.3570  177.0210  144.8880 C   0  0  0  0  0  3  0  0  0  0  0  0
  189.6650  177.6470  142.5310 O   0  0  0  0  0  0  0  0  0  0  0  0
  188.6140  177.9440  141.7910 C   0  0  0  0  0  0  0  0  0  0  0  0
  189.2490  177.5680  143.7680 C   0  0  0  0  0  0  0  0  0  0  0  0
  187.9080  177.8170  143.8310 C   0  0  0  0  0  0  0  0  0  0  0  0
  187.2290  177.7910  145.0490 C   0  0  0  0  0  0  0  0  0  0  0  0
  189.9890  176.9700  147.3170 C   0  0  0  0  0  3  0  0  0  0  0  0
  191.3640  176.7160  147.2480 C   0  0  0  0  0  0  0  0  0  0  0  0
  192.0100  176.7460  146.0500 N   0  0  0  0  0  0  0  0  0  0  0  0
  189.9860  177.2800  144.9120 C   0  0  0  0  0  0  0  0  0  0  0  0
  189.2910  177.2540  146.1450 C   0  0  0  0  0  0  0  0  0  0  0  0
  192.0540  176.4380  148.3800 F   0  0  0  0  0  0  0  0  0  0  0  0
  187.9450  177.5070  146.1820 N   0  0  0  0  0  0  0  0  0  0  0  0
  187.4520  178.0690  142.5520 C   0  0  0  0  0  3  0  0  0  0  0  0
  188.6750  178.1160  140.3670 C   0  0  0  0  0  0  0  0  0  0  0  0
  188.7880  178.4380  137.7200 C   0  0  0  0  0  1  0  0  0  0  0  0
  188.7260  178.2620  139.1720 C   0  0  0  0  0  0  0  0  0  0  0  0
  185.8570  178.0480  145.1020 O   0  0  0  0  0  0  0  0  0  0  0  0
  185.3300  179.3680  145.1400 C   0  0  0  0  0  2  0  0  0  0  0  0
  184.4060  179.5970  143.9550 C   0  0  0  0  0  2  0  0  0  0  0  0
  183.8830  178.0900  142.1750 C   0  0  0  0  0  2  0  0  0  0  0  0
  181.6520  178.8480  141.6980 O   0  0  0  0  0  0  0  0  0  0  0  0
  181.5370  179.3680  142.9970 C   0  0  0  0  0  2  0  0  0  0  0  0
  183.7230  178.3550  143.6130 N   0  0  0  0  0  0  0  0  0  0  0  0
  182.9960  179.0130  141.3270 C   0  0  0  0  0  2  0  0  0  0  0  0
  182.3040  178.4740  143.9810 C   0  0  0  0  0  2  0  0  0  0  0  0
  1 10  2  0  0  0  0
  1  9  1  0  0  0  0
  2  4  1  0  0  0  0
  3  2  1  0  0  0  0
  3 14  2  0  0  0  0
  4  5  2  0  0  0  0
  4 10  1  0  0  0  0
  5  6  1  0  0  0  0
  6 18  1  0  0  0  0
  6 13  2  0  0  0  0
  8  7  1  0  0  0  0
  8 12  1  0  0  0  0
  9  8  2  0  0  0  0
 10 11  1  0  0  0  0
 11 13  1  0  0  0  0
 11  7  2  0  0  0  0
 14  5  1  0  0  0  0
 15  3  1  0  0  0  0
 16 17  1  0  0  0  0
 17 15  3  0  0  0  0
 18 19  1  0  0  0  0
 20 19  1  0  0  0  0
 21 24  1  0  0  0  0
 22 23  1  0  0  0  0
 23 26  1  0  0  0  0
 24 20  1  0  0  0  0
 24 26  1  0  0  0  0
 25 22  1  0  0  0  0
 25 21  1  0  0  0  0
M  END
>  <MODEL>
4

>  <REMARK>
 VINA RESULT:      -8.1      3.248      6.676
  Name = 
  5 active torsions:
  status: ('A' for Active; 'I' for Inactive)
    1  A    between atoms: C_2  and  C_6
    2  A    between atoms: C_2  and  N_8
    3  A    between atoms: C_6  and  O_17
    4  A    between atoms: C_9  and  C_13
    5  A    between atoms: C_14  and  O_17
                            x       y       z     vdW  Elec       q    Type
                         _______ _______ _______ _____ _____    ______ ____

>  <TORSDO>
F 5

$$$$
=
 OpenBabel11042412273D

 26 29  0  0  0  0  0  0  0  0999 V2000
  189.8290  177.4800  146.1280 C   0  0  0  0  0  3  0  0  0  0  0  0
  189.9700  177.3250  143.1680 O   0  0  0  0  0  0  0  0  0  0  0  0
  189.6120  177.3230  141.8980 C   0  0  0  0  0  0  0  0  0  0  0  0
  188.8850  177.5220  143.8690 C   0  0  0  0  0  0  0  0  0  0  0  0
  187.8060  177.6490  143.0420 C   0  0  0  0  0  0  0  0  0  0  0  0
  186.5280  177.8680  143.5580 C   0  0  0  0  0  0  0  0  0  0  0  0
  187.2700  177.9160  147.1470 C   0  0  0  0  0  3  0  0  0  0  0  0
  188.3790  177.7850  147.9910 C   0  0  0  0  0  0  0  0  0  0  0  0
  189.6190  177.5720  147.4700 N   0  0  0  0  0  0  0  0  0  0  0  0
  188.7510  177.6050  145.2510 C   0  0  0  0  0  0  0  0  0  0  0  0
  187.4510  177.8260  145.7670 C   0  0  0  0  0  0  0  0  0  0  0  0
  188.2160  177.8700  149.3330 F   0  0  0  0  0  0  0  0  0  0  0  0
  186.3840  177.9500  144.9170 N   0  0  0  0  0  0  0  0  0  0  0  0
  188.2410  177.5250  141.7380 C   0  0  0  0  0  3  0  0  0  0  0  0
  190.5370  177.1340  140.8180 C   0  0  0  0  0  0  0  0  0  0  0  0
  192.2570  176.7830  138.8070 C   0  0  0  0  0  1  0  0  0  0  0  0
  191.3140  176.9750  139.9090 C   0  0  0  0  0  0  0  0  0  0  0  0
  185.4310  177.9980  142.7010 O   0  0  0  0  0  0  0  0  0  0  0  0
  185.1890  179.1790  141.9470 C   0  0  0  0  0  2  0  0  0  0  0  0
  184.1160  178.9210  140.9020 C   0  0  0  0  0  2  0  0  0  0  0  0
  183.3120  180.0160  138.9340 C   0  0  0  0  0  2  0  0  0  0  0  0
  183.2870  178.1260  137.4490 O   0  0  0  0  0  0  0  0  0  0  0  0
  184.2510  177.4770  138.2370 C   0  0  0  0  0  2  0  0  0  0  0  0
  184.5090  179.5200  139.6320 N   0  0  0  0  0  0  0  0  0  0  0  0
  182.4890  178.8670  138.3360 C   0  0  0  0  0  2  0  0  0  0  0  0
  185.2170  178.5120  138.8290 C   0  0  0  0  0  2  0  0  0  0  0  0
  1  9  1  0  0  0  0
  2  4  1  0  0  0  0
  3  2  1  0  0  0  0
  4 10  1  0  0  0  0
  5  6  1  0  0  0  0
  5  4  2  0  0  0  0
  6 13  2  0  0  0  0
  7  8  1  0  0  0  0
  8 12  1  0  0  0  0
  9  8  2  0  0  0  0
 10 11  1  0  0  0  0
 10  1  2  0  0  0  0
 11  7  2  0  0  0  0
 13 11  1  0  0  0  0
 14  3  2  0  0  0  0
 14  5  1  0  0  0  0
 15  3  1  0  0  0  0
 16 17  1  0  0  0  0
 17 15  3  0  0  0  0
 18  6  1  0  0  0  0
 19 18  1  0  0  0  0
 20 19  1  0  0  0  0
 21 24  1  0  0  0  0
 22 23  1  0  0  0  0
 22 25  1  0  0  0  0
 23 26  1  0  0  0  0
 24 20  1  0  0  0  0
 25 21  1  0  0  0  0
 26 24  1  0  0  0  0
M  END
>  <MODEL>
5

>  <REMARK>
 VINA RESULT:      -8.0      3.083      4.694
  Name = 
  5 active torsions:
  status: ('A' for Active; 'I' for Inactive)
    1  A    between atoms: C_2  and  C_6
    2  A    between atoms: C_2  and  N_8
    3  A    between atoms: C_6  and  O_17
    4  A    between atoms: C_9  and  C_13
    5  A    between atoms: C_14  and  O_17
                            x       y       z     vdW  Elec       q    Type
                         _______ _______ _______ _____ _____    ______ ____

>  <TORSDO>
F 5

$$$$
=
 OpenBabel11042412273D

 26 29  0  0  0  0  0  0  0  0999 V2000
  186.9450  177.7840  146.9310 C   0  0  0  0  0  3  0  0  0  0  0  0
  184.8070  178.2900  144.9360 O   0  0  0  0  0  0  0  0  0  0  0  0
  184.1900  178.4640  143.7830 C   0  0  0  0  0  0  0  0  0  0  0  0
  186.0650  178.0630  144.6630 C   0  0  0  0  0  0  0  0  0  0  0  0
  186.2670  178.0910  143.3130 C   0  0  0  0  0  0  0  0  0  0  0  0
  187.5350  177.8750  142.7720 C   0  0  0  0  0  0  0  0  0  0  0  0
  189.4750  177.3550  145.8380 C   0  0  0  0  0  3  0  0  0  0  0  0
  189.2630  177.3270  147.2210 C   0  0  0  0  0  0  0  0  0  0  0  0
  188.0190  177.5400  147.7320 N   0  0  0  0  0  0  0  0  0  0  0  0
  187.1120  177.8200  145.5460 C   0  0  0  0  0  0  0  0  0  0  0  0
  188.3960  177.6030  144.9900 C   0  0  0  0  0  0  0  0  0  0  0  0
  190.3030  177.0880  148.0560 F   0  0  0  0  0  0  0  0  0  0  0  0
  188.5730  177.6360  143.6320 N   0  0  0  0  0  0  0  0  0  0  0  0
  185.0590  178.3520  142.6980 C   0  0  0  0  0  3  0  0  0  0  0  0
  182.7850  178.7370  143.6740 C   0  0  0  0  0  0  0  0  0  0  0  0
  180.1730  179.2450  143.4710 C   0  0  0  0  0  1  0  0  0  0  0  0
  181.6050  178.9670  143.5820 C   0  0  0  0  0  0  0  0  0  0  0  0
  187.7290  177.9040  141.3880 O   0  0  0  0  0  0  0  0  0  0  0  0
  188.7710  178.6580  140.7810 C   0  0  0  0  0  2  0  0  0  0  0  0
  189.0480  178.1350  139.3810 C   0  0  0  0  0  2  0  0  0  0  0  0
  190.7920  176.6570  140.0800 C   0  0  0  0  0  2  0  0  0  0  0  0
  191.8790  176.3450  137.9580 O   0  0  0  0  0  0  0  0  0  0  0  0
  190.6930  176.6820  137.2860 C   0  0  0  0  0  2  0  0  0  0  0  0
  189.4650  176.7390  139.4480 N   0  0  0  0  0  0  0  0  0  0  0  0
  191.9020  177.1230  139.1270 C   0  0  0  0  0  2  0  0  0  0  0  0
  189.4840  176.1810  138.0880 C   0  0  0  0  0  2  0  0  0  0  0  0
  1  9  1  0  0  0  0
  3  2  1  0  0  0  0
  4  2  1  0  0  0  0
  4 10  1  0  0  0  0
  5  4  2  0  0  0  0
  6  5  1  0  0  0  0
  6 13  2  0  0  0  0
  7  8  1  0  0  0  0
  8  9  2  0  0  0  0
  8 12  1  0  0  0  0
 10  1  2  0  0  0  0
 11 10  1  0  0  0  0
 11  7  2  0  0  0  0
 13 11  1  0  0  0  0
 14  5  1  0  0  0  0
 14  3  2  0  0  0  0
 15  3  1  0  0  0  0
 16 17  1  0  0  0  0
 17 15  3  0  0  0  0
 18  6  1  0  0  0  0
 19 18  1  0  0  0  0
 20 24  1  0  0  0  0
 20 19  1  0  0  0  0
 22 25  1  0  0  0  0
 23 22  1  0  0  0  0
 23 26  1  0  0  0  0
 24 21  1  0  0  0  0
 25 21  1  0  0  0  0
 26 24  1  0  0  0  0
M  END
>  <MODEL>
6

>  <REMARK>
 VINA RESULT:      -8.0      2.811      5.386
  Name = 
  5 active torsions:
  status: ('A' for Active; 'I' for Inactive)
    1  A    between atoms: C_2  and  C_6
    2  A    between atoms: C_2  and  N_8
    3  A    between atoms: C_6  and  O_17
    4  A    between atoms: C_9  and  C_13
    5  A    between atoms: C_14  and  O_17
                            x       y       z     vdW  Elec       q    Type
                         _______ _______ _______ _____ _____    ______ ____

>  <TORSDO>
F 5

$$$$
=
 OpenBabel11042412273D

 26 29  0  0  0  0  0  0  0  0999 V2000
  187.4000  178.2750  137.9260 C   0  0  0  0  0  3  0  0  0  0  0  0
  186.5930  178.4110  140.7780 O   0  0  0  0  0  0  0  0  0  0  0  0
  186.6420  178.3470  142.0950 C   0  0  0  0  0  0  0  0  0  0  0  0
  187.7760  178.0710  140.3370 C   0  0  0  0  0  0  0  0  0  0  0  0
  188.6040  177.7820  141.3830 C   0  0  0  0  0  0  0  0  0  0  0  0
  189.9260  177.3920  141.1650 C   0  0  0  0  0  0  0  0  0  0  0  0
  190.0430  177.4930  137.5030 C   0  0  0  0  0  3  0  0  0  0  0  0
  189.1900  177.7910  136.4340 C   0  0  0  0  0  0  0  0  0  0  0  0
  187.9030  178.1700  136.6650 N   0  0  0  0  0  0  0  0  0  0  0  0
  188.2170  177.9870  139.0200 C   0  0  0  0  0  0  0  0  0  0  0  0
  189.5580  177.5900  138.8070 C   0  0  0  0  0  0  0  0  0  0  0  0
  189.6490  177.7000  135.1620 F   0  0  0  0  0  0  0  0  0  0  0  0
  190.3700  177.3060  139.8730 N   0  0  0  0  0  0  0  0  0  0  0  0
  187.8970  177.9510  142.5560 C   0  0  0  0  0  3  0  0  0  0  0  0
  185.5240  178.6530  142.9420 C   0  0  0  0  0  0  0  0  0  0  0  0
  183.4470  179.2230  144.5180 C   0  0  0  0  0  1  0  0  0  0  0  0
  184.5870  178.9110  143.6540 C   0  0  0  0  0  0  0  0  0  0  0  0
  190.7660  177.1000  142.2430 O   0  0  0  0  0  0  0  0  0  0  0  0
  191.5380  178.0970  142.8990 C   0  0  0  0  0  2  0  0  0  0  0  0
  191.2700  178.0670  144.3950 C   0  0  0  0  0  2  0  0  0  0  0  0
  189.4220  176.9410  145.4110 C   0  0  0  0  0  2  0  0  0  0  0  0
  190.3440  176.6350  147.6100 O   0  0  0  0  0  0  0  0  0  0  0  0
  191.6460  176.7280  147.0910 C   0  0  0  0  0  2  0  0  0  0  0  0
  190.7380  176.7650  144.7760 N   0  0  0  0  0  0  0  0  0  0  0  0
  189.5510  177.4970  146.8360 C   0  0  0  0  0  2  0  0  0  0  0  0
  191.6880  176.1090  145.6870 C   0  0  0  0  0  2  0  0  0  0  0  0
  1 10  1  0  0  0  0
  2  3  1  0  0  0  0
  3 14  2  0  0  0  0
  3 15  1  0  0  0  0
  4  2  1  0  0  0  0
  4  5  2  0  0  0  0
  5 14  1  0  0  0  0
  6  5  1  0  0  0  0
  6 18  1  0  0  0  0
  7 11  1  0  0  0  0
  8  9  1  0  0  0  0
  8  7  2  0  0  0  0
  9  1  2  0  0  0  0
 10  4  1  0  0  0  0
 11 10  2  0  0  0  0
 11 13  1  0  0  0  0
 12  8  1  0  0  0  0
 13  6  2  0  0  0  0
 15 17  3  0  0  0  0
 17 16  1  0  0  0  0
 18 19  1  0  0  0  0
 19 20  1  0  0  0  0
 20 24  1  0  0  0  0
 21 25  1  0  0  0  0
 23 22  1  0  0  0  0
 24 21  1  0  0  0  0
 24 26  1  0  0  0  0
 25 22  1  0  0  0  0
 26 23  1  0  0  0  0
M  END
>  <MODEL>
7

>  <REMARK>
 VINA RESULT:      -7.6      3.392      7.805
  Name = 
  5 active torsions:
  status: ('A' for Active; 'I' for Inactive)
    1  A    between atoms: C_2  and  C_6
    2  A    between atoms: C_2  and  N_8
    3  A    between atoms: C_6  and  O_17
    4  A    between atoms: C_9  and  C_13
    5  A    between atoms: C_14  and  O_17
                            x       y       z     vdW  Elec       q    Type
                         _______ _______ _______ _____ _____    ______ ____

>  <TORSDO>
F 5

$$$$
=
 OpenBabel11042412273D

 26 29  0  0  0  0  0  0  0  0999 V2000
  187.3630  177.4920  144.8280 C   0  0  0  0  0  3  0  0  0  0  0  0
  188.5320  177.4570  142.1010 O   0  0  0  0  0  0  0  0  0  0  0  0
  188.6860  177.6500  140.8050 C   0  0  0  0  0  0  0  0  0  0  0  0
  187.3830  177.9860  142.4300 C   0  0  0  0  0  0  0  0  0  0  0  0
  186.7830  178.5300  141.3310 C   0  0  0  0  0  0  0  0  0  0  0  0
  185.5400  179.1570  141.4290 C   0  0  0  0  0  0  0  0  0  0  0  0
  184.8800  178.7470  145.0110 C   0  0  0  0  0  3  0  0  0  0  0  0
  185.4990  178.1880  146.1340 C   0  0  0  0  0  0  0  0  0  0  0  0
  186.7130  177.5800  146.0210 N   0  0  0  0  0  0  0  0  0  0  0  0
  186.7810  178.0360  143.6830 C   0  0  0  0  0  0  0  0  0  0  0  0
  185.5200  178.6730  143.7740 C   0  0  0  0  0  0  0  0  0  0  0  0
  184.8870  178.2530  147.3410 F   0  0  0  0  0  0  0  0  0  0  0  0
  184.9380  179.2120  142.6570 N   0  0  0  0  0  0  0  0  0  0  0  0
  187.6070  178.3310  140.2420 C   0  0  0  0  0  3  0  0  0  0  0  0
  189.8380  177.2050  140.0720 C   0  0  0  0  0  0  0  0  0  0  0  0
  191.9800  176.3800  138.7110 C   0  0  0  0  0  1  0  0  0  0  0  0
  190.8060  176.8330  139.4570 C   0  0  0  0  0  0  0  0  0  0  0  0
  184.9350  179.7120  140.2970 O   0  0  0  0  0  0  0  0  0  0  0  0
  184.1140  178.9510  139.4220 C   0  0  0  0  0  2  0  0  0  0  0  0
  182.8080  179.6830  139.1610 C   0  0  0  0  0  2  0  0  0  0  0  0
  180.4240  179.4990  139.1550 C   0  0  0  0  0  2  0  0  0  0  0  0
  180.0540  179.4650  141.5290 O   0  0  0  0  0  0  0  0  0  0  0  0
  181.3630  179.0020  141.7400 C   0  0  0  0  0  2  0  0  0  0  0  0
  181.6880  178.7580  139.2870 N   0  0  0  0  0  0  0  0  0  0  0  0
  180.1140  180.3180  140.4160 C   0  0  0  0  0  2  0  0  0  0  0  0
  181.7760  178.0770  140.5870 C   0  0  0  0  0  2  0  0  0  0  0  0
  1  9  1  0  0  0  0
  2  4  1  0  0  0  0
  3  2  1  0  0  0  0
  4 10  1  0  0  0  0
  5  6  1  0  0  0  0
  5  4  2  0  0  0  0
  6 13  2  0  0  0  0
  7  8  1  0  0  0  0
  8 12  1  0  0  0  0
  9  8  2  0  0  0  0
 10 11  1  0  0  0  0
 10  1  2  0  0  0  0
 11  7  2  0  0  0  0
 13 11  1  0  0  0  0
 14  3  2  0  0  0  0
 14  5  1  0  0  0  0
 15  3  1  0  0  0  0
 16 17  1  0  0  0  0
 17 15  3  0  0  0  0
 18  6  1  0  0  0  0
 19 18  1  0  0  0  0
 20 24  1  0  0  0  0
 20 19  1  0  0  0  0
 21 24  1  0  0  0  0
 21 25  1  0  0  0  0
 22 23  1  0  0  0  0
 24 26  1  0  0  0  0
 25 22  1  0  0  0  0
 26 23  1  0  0  0  0
M  END
>  <MODEL>
8

>  <REMARK>
 VINA RESULT:      -7.6      3.581      5.652
  Name = 
  5 active torsions:
  status: ('A' for Active; 'I' for Inactive)
    1  A    between atoms: C_2  and  C_6
    2  A    between atoms: C_2  and  N_8
    3  A    between atoms: C_6  and  O_17
    4  A    between atoms: C_9  and  C_13
    5  A    between atoms: C_14  and  O_17
                            x       y       z     vdW  Elec       q    Type
                         _______ _______ _______ _____ _____    ______ ____

>  <TORSDO>
F 5

$$$$
=
 OpenBabel11042412273D

 26 29  0  0  0  0  0  0  0  0999 V2000
  190.0360  177.2180  140.9380 C   0  0  0  0  0  3  0  0  0  0  0  0
  188.5650  177.5610  143.4920 O   0  0  0  0  0  0  0  0  0  0  0  0
  187.6130  177.8590  144.3560 C   0  0  0  0  0  0  0  0  0  0  0  0
  188.1090  177.8600  142.3050 C   0  0  0  0  0  0  0  0  0  0  0  0
  186.8420  178.3620  142.3990 C   0  0  0  0  0  0  0  0  0  0  0  0
  186.1400  178.7560  141.2600 C   0  0  0  0  0  0  0  0  0  0  0  0
  188.6220  178.0100  138.6690 C   0  0  0  0  0  3  0  0  0  0  0  0
  189.9210  177.4960  138.5770 C   0  0  0  0  0  0  0  0  0  0  0  0
  190.5920  177.1150  139.7000 N   0  0  0  0  0  0  0  0  0  0  0  0
  188.7440  177.7260  141.0740 C   0  0  0  0  0  0  0  0  0  0  0  0
  188.0250  178.1280  139.9230 C   0  0  0  0  0  0  0  0  0  0  0  0
  190.5130  177.3760  137.3640 F   0  0  0  0  0  0  0  0  0  0  0  0
  186.7550  178.6280  140.0440 N   0  0  0  0  0  0  0  0  0  0  0  0
  186.4790  178.3770  143.7310 C   0  0  0  0  0  3  0  0  0  0  0  0
  187.7440  177.6660  145.7720 C   0  0  0  0  0  0  0  0  0  0  0  0
  187.9870  177.3100  148.4060 C   0  0  0  0  0  1  0  0  0  0  0  0
  187.8540  177.5060  146.9620 C   0  0  0  0  0  0  0  0  0  0  0  0
  184.8430  179.2660  141.3680 O   0  0  0  0  0  0  0  0  0  0  0  0
  183.6880  178.4590  141.1780 C   0  0  0  0  0  2  0  0  0  0  0  0
  182.7460  178.6050  142.3620 C   0  0  0  0  0  2  0  0  0  0  0  0
  180.7290  179.6140  143.1530 C   0  0  0  0  0  2  0  0  0  0  0  0
  179.1710  177.9310  142.4320 O   0  0  0  0  0  0  0  0  0  0  0  0
  180.0730  177.4990  141.4470 C   0  0  0  0  0  2  0  0  0  0  0  0
  181.5870  179.4000  141.9760 N   0  0  0  0  0  0  0  0  0  0  0  0
  179.9510  178.3440  143.5240 C   0  0  0  0  0  2  0  0  0  0  0  0
  180.8620  178.6990  140.9060 C   0  0  0  0  0  2  0  0  0  0  0  0
  1 10  1  0  0  0  0
  2  3  1  0  0  0  0
  3 15  1  0  0  0  0
  4  5  2  0  0  0  0
  4  2  1  0  0  0  0
  5 14  1  0  0  0  0
  6 18  1  0  0  0  0
  6  5  1  0  0  0  0
  7 11  1  0  0  0  0
  8  7  2  0  0  0  0
  8  9  1  0  0  0  0
  9  1  2  0  0  0  0
 10  4  1  0  0  0  0
 11 13  1  0  0  0  0
 11 10  2  0  0  0  0
 12  8  1  0  0  0  0
 13  6  2  0  0  0  0
 14  3  2  0  0  0  0
 15 17  3  0  0  0  0
 17 16  1  0  0  0  0
 19 18  1  0  0  0  0
 19 20  1  0  0  0  0
 21 25  1  0  0  0  0
 22 25  1  0  0  0  0
 23 22  1  0  0  0  0
 24 20  1  0  0  0  0
 24 21  1  0  0  0  0
 26 23  1  0  0  0  0
 26 24  1  0  0  0  0
M  END
>  <MODEL>
9

>  <REMARK>
 VINA RESULT:      -7.4      3.924      6.672
  Name = 
  5 active torsions:
  status: ('A' for Active; 'I' for Inactive)
    1  A    between atoms: C_2  and  C_6
    2  A    between atoms: C_2  and  N_8
    3  A    between atoms: C_6  and  O_17
    4  A    between atoms: C_9  and  C_13
    5  A    between atoms: C_14  and  O_17
                            x       y       z     vdW  Elec       q    Type
                         _______ _______ _______ _____ _____    ______ ____

>  <TORSDO>
F 5

$$$$
