=
 OpenBabel11042411453D

 25 28  0  0  1  0  0  0  0  0999 V2000
  184.3620  179.3680  139.9300 C   0  0  0  0  0  0  0  0  0  0  0  0
  180.2560  178.5800  141.8870 N   0  0  0  0  0  0  0  0  0  0  0  0
  182.4590  178.8030  142.3020 C   0  0  1  0  0  3  0  0  0  0  0  0
  184.8780  179.7860  138.8620 O   0  0  0  0  0  0  0  0  0  0  0  0
  180.8900  178.6320  140.7540 O   0  0  0  0  0  0  0  0  0  0  0  0
  182.1810  178.7880  140.9320 C   0  0  0  0  0  0  0  0  0  0  0  0
  181.1800  178.7110  142.8530 C   0  0  0  0  0  0  0  0  0  0  0  0
  184.9060  178.4100  142.1960 C   0  0  2  0  0  3  0  0  0  0  0  0
  185.0490  178.7750  145.0760 C   0  0  0  0  0  2  0  0  0  0  0  0
  186.1610  178.3410  143.0660 C   0  0  0  0  0  2  0  0  0  0  0  0
  182.9810  178.9950  139.9250 N   0  0  0  0  0  0  0  0  0  0  0  0
  180.8530  178.6390  144.2380 N   0  0  0  0  0  1  0  0  0  0  0  0
  185.8580  177.7850  144.3810 N   0  0  0  0  0  0  0  0  0  0  0  0
  183.6560  178.8250  144.4650 C   0  0  0  0  0  2  0  0  0  0  0  0
  185.1620  179.3210  141.1040 N   0  0  0  0  0  2  0  0  0  0  0  0
  183.6450  178.7800  142.9500 C   0  0  2  0  0  3  0  0  0  0  0  0
  187.0840  177.5360  145.1580 C   0  0  2  0  0  3  0  0  0  0  0  0
  187.0630  178.0580  146.6110 C   0  0  0  0  0  2  0  0  0  0  0  0
  187.9390  177.2500  147.5560 C   0  0  0  0  0  3  0  0  0  0  0  0
  189.1080  178.1070  147.9970 C   0  0  0  0  0  2  0  0  0  0  0  0
  187.9280  177.9040  148.9220 C   0  0  0  0  0  2  0  0  0  0  0  0
  188.3350  177.9290  144.3710 C   0  0  0  0  0  2  0  0  0  0  0  0
  189.3300  176.7800  144.3030 C   0  0  0  0  0  2  0  0  0  0  0  0
  189.2090  176.0550  142.9760 C   0  0  0  0  0  2  0  0  0  0  0  0
  190.3710  175.3230  142.7410 O   0  0  0  0  0  1  0  0  0  0  0  0
  1 15  1  0  0  0  0
  2  7  2  0  0  0  0
  3  6  1  6  0  0  0
  3  7  1  0  0  0  0
  3 16  1  0  0  0  0
  4  1  2  0  0  0  0
  5  6  1  0  0  0  0
  5  2  1  0  0  0  0
  7 12  1  0  0  0  0
  8 16  1  0  0  0  0
  8 10  1  1  0  0  0
 10 13  1  0  0  0  0
 11  1  1  0  0  0  0
 11  6  2  0  0  0  0
 13  9  1  0  0  0  0
 13 17  1  0  0  0  0
 14  9  1  0  0  0  0
 15  8  1  0  0  0  0
 16 14  1  1  0  0  0
 17 22  1  6  0  0  0
 17 18  1  0  0  0  0
 18 19  1  0  0  0  0
 19 20  1  0  0  0  0
 19 21  1  0  0  0  0
 20 21  1  0  0  0  0
 23 22  1  0  0  0  0
 24 23  1  0  0  0  0
 25 24  1  0  0  0  0
M  END
>  <MODEL>
1

>  <REMARK>
 VINA RESULT:      -8.2      0.000      0.000
  Name = 
  6 active torsions:
  status: ('A' for Active; 'I' for Inactive)
    1  A    between atoms: C_3  and  C_4
    2  A    between atoms: C_4  and  C_10
    3  A    between atoms: C_6  and  C_9
    4  A    between atoms: C_6  and  C_16
    5  A    between atoms: C_10  and  C_16
    6  A    between atoms: C_10  and  N_21
                            x       y       z     vdW  Elec       q    Type
                         _______ _______ _______ _____ _____    ______ ____

>  <TORSDO>
F 6

$$$$
=
 OpenBabel11042411453D

 25 28  0  0  1  0  0  0  0  0999 V2000
  191.4580  176.5110  146.6210 C   0  0  0  0  0  0  0  0  0  0  0  0
  187.4740  178.1120  148.3180 N   0  0  0  0  0  0  0  0  0  0  0  0
  188.5280  177.4860  146.4280 C   0  0  1  0  0  3  0  0  0  0  0  0
  192.5370  175.9750  146.9840 O   0  0  0  0  0  0  0  0  0  0  0  0
  188.7300  177.9140  148.5880 O   0  0  0  0  0  0  0  0  0  0  0  0
  189.3940  177.5190  147.5260 C   0  0  0  0  0  0  0  0  0  0  0  0
  187.3100  177.8330  147.0140 C   0  0  0  0  0  0  0  0  0  0  0  0
  190.2210  177.4050  144.6160 C   0  0  2  0  0  3  0  0  0  0  0  0
  188.0750  177.0900  142.6810 C   0  0  0  0  0  2  0  0  0  0  0  0
  190.3680  177.2550  143.1020 C   0  0  0  0  0  2  0  0  0  0  0  0
  190.6360  177.1390  147.6100 N   0  0  0  0  0  0  0  0  0  0  0  0
  186.0620  178.0010  146.3480 N   0  0  0  0  0  1  0  0  0  0  0  0
  189.2580  177.8910  142.4010 N   0  0  0  0  0  0  0  0  0  0  0  0
  187.6460  177.2910  144.1280 C   0  0  0  0  0  2  0  0  0  0  0  0
  191.0820  176.4340  145.2530 N   0  0  0  0  0  2  0  0  0  0  0  0
  188.7940  177.2990  145.1160 C   0  0  2  0  0  3  0  0  0  0  0  0
  189.4830  177.9230  140.9460 C   0  0  2  0  0  3  0  0  0  0  0  0
  188.2210  178.1580  140.0870 C   0  0  0  0  0  2  0  0  0  0  0  0
  188.2760  177.4670  138.7320 C   0  0  0  0  0  3  0  0  0  0  0  0
  187.2010  178.0510  137.8390 C   0  0  0  0  0  2  0  0  0  0  0  0
  188.6400  178.4860  137.6730 C   0  0  0  0  0  2  0  0  0  0  0  0
  190.3390  176.7410  140.4870 C   0  0  0  0  0  2  0  0  0  0  0  0
  191.6050  177.2140  139.7890 C   0  0  0  0  0  2  0  0  0  0  0  0
  191.8180  176.4410  138.5010 C   0  0  0  0  0  2  0  0  0  0  0  0
  191.0240  175.2960  138.5110 O   0  0  0  0  0  1  0  0  0  0  0  0
  1  4  2  0  0  0  0
  1 11  1  0  0  0  0
  2  5  1  0  0  0  0
  3  7  1  6  0  0  0
  3  6  1  0  0  0  0
  6 11  2  0  0  0  0
  6  5  1  0  0  0  0
  7  2  2  0  0  0  0
  8 10  1  6  0  0  0
  8 16  1  0  0  0  0
  8 15  1  0  0  0  0
  9 14  1  0  0  0  0
 12  7  1  0  0  0  0
 13  9  1  0  0  0  0
 13 10  1  0  0  0  0
 15  1  1  0  0  0  0
 16 14  1  6  0  0  0
 16  3  1  0  0  0  0
 17 18  1  6  0  0  0
 17 13  1  0  0  0  0
 19 18  1  0  0  0  0
 20 19  1  0  0  0  0
 21 20  1  0  0  0  0
 21 19  1  0  0  0  0
 22 17  1  0  0  0  0
 23 22  1  0  0  0  0
 24 25  1  0  0  0  0
 24 23  1  0  0  0  0
M  END
>  <MODEL>
2

>  <REMARK>
 VINA RESULT:      -8.1      4.716      7.725
  Name = 
  6 active torsions:
  status: ('A' for Active; 'I' for Inactive)
    1  A    between atoms: C_3  and  C_4
    2  A    between atoms: C_4  and  C_10
    3  A    between atoms: C_6  and  C_9
    4  A    between atoms: C_6  and  C_16
    5  A    between atoms: C_10  and  C_16
    6  A    between atoms: C_10  and  N_21
                            x       y       z     vdW  Elec       q    Type
                         _______ _______ _______ _____ _____    ______ ____

>  <TORSDO>
F 6

$$$$
=
 OpenBabel11042411453D

 25 28  0  0  1  0  0  0  0  0999 V2000
  192.3660  177.1610  139.7680 C   0  0  0  0  0  0  0  0  0  0  0  0
  188.8930  177.4410  136.7400 N   0  0  0  0  0  0  0  0  0  0  0  0
  189.4240  177.6050  138.9230 C   0  0  1  0  0  3  0  0  0  0  0  0
  193.6230  177.1420  139.8240 O   0  0  0  0  0  0  0  0  0  0  0  0
  190.1210  177.0470  136.9010 O   0  0  0  0  0  0  0  0  0  0  0  0
  190.4970  177.1450  138.1540 C   0  0  0  0  0  0  0  0  0  0  0  0
  188.4460  177.8160  137.9510 C   0  0  0  0  0  0  0  0  0  0  0  0
  190.2790  176.9950  141.1700 C   0  0  2  0  0  3  0  0  0  0  0  0
  187.9780  178.3120  142.3610 C   0  0  0  0  0  2  0  0  0  0  0  0
  189.9680  177.1230  142.6610 C   0  0  0  0  0  2  0  0  0  0  0  0
  191.7320  176.9260  138.5080 N   0  0  0  0  0  0  0  0  0  0  0  0
  187.1070  178.2510  138.1700 N   0  0  0  0  0  1  0  0  0  0  0  0
  188.5290  177.0790  142.9030 N   0  0  0  0  0  0  0  0  0  0  0  0
  188.0090  178.2660  140.8390 C   0  0  0  0  0  2  0  0  0  0  0  0
  191.6330  177.4520  140.9500 N   0  0  0  0  0  2  0  0  0  0  0  0
  189.2940  177.7060  140.2650 C   0  0  2  0  0  3  0  0  0  0  0  0
  188.2240  177.0080  144.3410 C   0  0  2  0  0  3  0  0  0  0  0  0
  186.7390  177.2150  144.7130 C   0  0  0  0  0  2  0  0  0  0  0  0
  186.4940  178.4630  145.5480 C   0  0  0  0  0  3  0  0  0  0  0  0
  185.1030  178.9850  145.2540 C   0  0  0  0  0  2  0  0  0  0  0  0
  185.3620  178.1950  146.5170 C   0  0  0  0  0  2  0  0  0  0  0  0
  189.1970  177.8580  145.1620 C   0  0  0  0  0  2  0  0  0  0  0  0
  189.7800  177.0650  146.3220 C   0  0  0  0  0  2  0  0  0  0  0  0
  191.2640  176.8360  146.1110 C   0  0  0  0  0  2  0  0  0  0  0  0
  191.9120  176.8320  147.3460 O   0  0  0  0  0  1  0  0  0  0  0  0
  1  4  2  0  0  0  0
  1 15  1  0  0  0  0
  2  5  1  0  0  0  0
  2  7  2  0  0  0  0
  3  7  1  1  0  0  0
  3 16  1  0  0  0  0
  5  6  1  0  0  0  0
  6 11  2  0  0  0  0
  6  3  1  0  0  0  0
  7 12  1  0  0  0  0
  8 10  1  1  0  0  0
  9 13  1  0  0  0  0
 10 13  1  0  0  0  0
 11  1  1  0  0  0  0
 13 17  1  0  0  0  0
 14  9  1  0  0  0  0
 15  8  1  0  0  0  0
 16 14  1  1  0  0  0
 16  8  1  0  0  0  0
 17 18  1  6  0  0  0
 17 22  1  0  0  0  0
 18 19  1  0  0  0  0
 19 21  1  0  0  0  0
 20 19  1  0  0  0  0
 20 21  1  0  0  0  0
 22 23  1  0  0  0  0
 24 23  1  0  0  0  0
 24 25  1  0  0  0  0
M  END
>  <MODEL>
3

>  <REMARK>
 VINA RESULT:      -8.1      4.295      6.404
  Name = 
  6 active torsions:
  status: ('A' for Active; 'I' for Inactive)
    1  A    between atoms: C_3  and  C_4
    2  A    between atoms: C_4  and  C_10
    3  A    between atoms: C_6  and  C_9
    4  A    between atoms: C_6  and  C_16
    5  A    between atoms: C_10  and  C_16
    6  A    between atoms: C_10  and  N_21
                            x       y       z     vdW  Elec       q    Type
                         _______ _______ _______ _____ _____    ______ ____

>  <TORSDO>
F 6

$$$$
=
 OpenBabel11042411453D

 25 28  0  0  1  0  0  0  0  0999 V2000
  185.3930  179.0160  141.3330 C   0  0  0  0  0  0  0  0  0  0  0  0
  182.9530  178.8120  145.2460 N   0  0  0  0  0  0  0  0  0  0  0  0
  185.0210  178.6090  144.3760 C   0  0  1  0  0  3  0  0  0  0  0  0
  185.3140  179.4190  140.1440 O   0  0  0  0  0  0  0  0  0  0  0  0
  182.8640  178.8400  143.9500 O   0  0  0  0  0  0  0  0  0  0  0  0
  184.0460  178.7520  143.3850 C   0  0  0  0  0  0  0  0  0  0  0  0
  184.2590  178.7010  145.5420 C   0  0  0  0  0  0  0  0  0  0  0  0
  186.8880  177.8010  142.9580 C   0  0  2  0  0  3  0  0  0  0  0  0
  188.6420  177.9070  145.2730 C   0  0  0  0  0  2  0  0  0  0  0  0
  188.3740  177.4440  142.9980 C   0  0  0  0  0  2  0  0  0  0  0  0
  184.1910  178.8930  142.0980 N   0  0  0  0  0  0  0  0  0  0  0  0
  184.7310  178.5790  146.8800 N   0  0  0  0  0  1  0  0  0  0  0  0
  188.7360  176.8480  144.2800 N   0  0  0  0  0  0  0  0  0  0  0  0
  187.1800  178.2500  145.5260 C   0  0  0  0  0  2  0  0  0  0  0  0
  186.6770  178.7360  141.8760 N   0  0  0  0  0  2  0  0  0  0  0  0
  186.3390  178.3270  144.2680 C   0  0  2  0  0  3  0  0  0  0  0  0
  190.1130  176.3260  144.2640 C   0  0  2  0  0  3  0  0  0  0  0  0
  191.1070  177.0570  145.1920 C   0  0  0  0  0  2  0  0  0  0  0  0
  191.8110  176.1300  146.1730 C   0  0  0  0  0  3  0  0  0  0  0  0
  191.8350  176.7870  147.5370 C   0  0  0  0  0  2  0  0  0  0  0  0
  190.8270  175.6990  147.2390 C   0  0  0  0  0  2  0  0  0  0  0  0
  190.6210  176.1300  142.8340 C   0  0  0  0  0  2  0  0  0  0  0  0
  191.7930  177.0530  142.5330 C   0  0  0  0  0  2  0  0  0  0  0  0
  191.7630  177.4870  141.0800 C   0  0  0  0  0  2  0  0  0  0  0  0
  190.7770  176.7710  140.4030 O   0  0  0  0  0  1  0  0  0  0  0  0
  1 15  1  0  0  0  0
  1 11  1  0  0  0  0
  2  7  2  0  0  0  0
  3  6  1  6  0  0  0
  3  7  1  0  0  0  0
  4  1  2  0  0  0  0
  5  2  1  0  0  0  0
  6  5  1  0  0  0  0
  7 12  1  0  0  0  0
  8 10  1  1  0  0  0
  8 16  1  0  0  0  0
  9 14  1  0  0  0  0
 10 13  1  0  0  0  0
 11  6  2  0  0  0  0
 13  9  1  0  0  0  0
 15  8  1  0  0  0  0
 16  3  1  0  0  0  0
 16 14  1  1  0  0  0
 17 22  1  6  0  0  0
 17 13  1  0  0  0  0
 17 18  1  0  0  0  0
 18 19  1  0  0  0  0
 19 21  1  0  0  0  0
 19 20  1  0  0  0  0
 21 20  1  0  0  0  0
 23 22  1  0  0  0  0
 24 23  1  0  0  0  0
 25 24  1  0  0  0  0
M  END
>  <MODEL>
4

>  <REMARK>
 VINA RESULT:      -8.1      2.205      3.331
  Name = 
  6 active torsions:
  status: ('A' for Active; 'I' for Inactive)
    1  A    between atoms: C_3  and  C_4
    2  A    between atoms: C_4  and  C_10
    3  A    between atoms: C_6  and  C_9
    4  A    between atoms: C_6  and  C_16
    5  A    between atoms: C_10  and  C_16
    6  A    between atoms: C_10  and  N_21
                            x       y       z     vdW  Elec       q    Type
                         _______ _______ _______ _____ _____    ______ ____

>  <TORSDO>
F 6

$$$$
=
 OpenBabel11042411453D

 25 28  0  0  1  0  0  0  0  0999 V2000
  189.9620  176.1460  143.3600 C   0  0  0  0  0  0  0  0  0  0  0  0
  190.1100  177.4550  147.7850 N   0  0  0  0  0  0  0  0  0  0  0  0
  188.7780  177.3000  145.9750 C   0  0  1  0  0  3  0  0  0  0  0  0
  190.6020  175.4740  142.5120 O   0  0  0  0  0  0  0  0  0  0  0  0
  190.8370  177.1210  146.7610 O   0  0  0  0  0  0  0  0  0  0  0  0
  190.1080  176.9890  145.6770 C   0  0  0  0  0  0  0  0  0  0  0  0
  188.8430  177.5450  147.3470 C   0  0  0  0  0  0  0  0  0  0  0  0
  187.9360  177.6130  143.6630 C   0  0  2  0  0  3  0  0  0  0  0  0
  185.2520  177.9510  144.7290 C   0  0  0  0  0  2  0  0  0  0  0  0
  186.6580  177.8680  142.8630 C   0  0  0  0  0  2  0  0  0  0  0  0
  190.6210  176.5320  144.5700 N   0  0  0  0  0  0  0  0  0  0  0  0
  187.7710  177.9550  148.1910 N   0  0  0  0  0  1  0  0  0  0  0  0
  185.7400  178.7300  143.6000 N   0  0  0  0  0  0  0  0  0  0  0  0
  186.3630  177.7800  145.7560 C   0  0  0  0  0  2  0  0  0  0  0  0
  188.6010  176.4610  143.0980 N   0  0  0  0  0  2  0  0  0  0  0  0
  187.7150  177.4580  145.1540 C   0  0  2  0  0  3  0  0  0  0  0  0
  184.5950  179.1380  142.7690 C   0  0  2  0  0  3  0  0  0  0  0  0
  183.2620  178.4260  143.0840 C   0  0  0  0  0  2  0  0  0  0  0  0
  182.1770  179.3680  143.5840 C   0  0  0  0  0  3  0  0  0  0  0  0
  180.9810  179.2750  142.6590 C   0  0  0  0  0  2  0  0  0  0  0  0
  180.9650  178.5560  143.9900 C   0  0  0  0  0  2  0  0  0  0  0  0
  184.9590  179.1510  141.2830 C   0  0  0  0  0  2  0  0  0  0  0  0
  183.8740  178.4970  140.4420 C   0  0  0  0  0  2  0  0  0  0  0  0
  183.8960  179.0480  139.0290 C   0  0  0  0  0  2  0  0  0  0  0  0
  184.3340  180.3720  139.0550 O   0  0  0  0  0  1  0  0  0  0  0  0
  1 11  1  0  0  0  0
  3  6  1  6  0  0  0
  3  7  1  0  0  0  0
  4  1  2  0  0  0  0
  5  2  1  0  0  0  0
  6  5  1  0  0  0  0
  7  2  2  0  0  0  0
  7 12  1  0  0  0  0
  8 10  1  6  0  0  0
  8 16  1  0  0  0  0
  9 14  1  0  0  0  0
 10 13  1  0  0  0  0
 11  6  2  0  0  0  0
 13  9  1  0  0  0  0
 15  1  1  0  0  0  0
 15  8  1  0  0  0  0
 16 14  1  1  0  0  0
 16  3  1  0  0  0  0
 17 22  1  6  0  0  0
 17 18  1  0  0  0  0
 17 13  1  0  0  0  0
 18 19  1  0  0  0  0
 19 21  1  0  0  0  0
 20 19  1  0  0  0  0
 20 21  1  0  0  0  0
 23 22  1  0  0  0  0
 24 25  1  0  0  0  0
 24 23  1  0  0  0  0
M  END
>  <MODEL>
5

>  <REMARK>
 VINA RESULT:      -7.9      2.250      7.205
  Name = 
  6 active torsions:
  status: ('A' for Active; 'I' for Inactive)
    1  A    between atoms: C_3  and  C_4
    2  A    between atoms: C_4  and  C_10
    3  A    between atoms: C_6  and  C_9
    4  A    between atoms: C_6  and  C_16
    5  A    between atoms: C_10  and  C_16
    6  A    between atoms: C_10  and  N_21
                            x       y       z     vdW  Elec       q    Type
                         _______ _______ _______ _____ _____    ______ ____

>  <TORSDO>
F 6

$$$$
=
 OpenBabel11042411453D

 25 28  0  0  1  0  0  0  0  0999 V2000
  184.3400  179.2980  139.7970 C   0  0  0  0  0  0  0  0  0  0  0  0
  180.1880  178.3830  141.5960 N   0  0  0  0  0  0  0  0  0  0  0  0
  182.3480  178.7670  142.1040 C   0  0  1  0  0  3  0  0  0  0  0  0
  184.8880  179.6790  138.7310 O   0  0  0  0  0  0  0  0  0  0  0  0
  180.8780  178.4010  140.4940 O   0  0  0  0  0  0  0  0  0  0  0  0
  182.1460  178.6480  140.7260 C   0  0  0  0  0  0  0  0  0  0  0  0
  181.0500  178.6310  142.5960 C   0  0  0  0  0  0  0  0  0  0  0  0
  184.8160  178.5210  142.1470 C   0  0  2  0  0  3  0  0  0  0  0  0
  184.7830  179.0770  144.9990 C   0  0  0  0  0  2  0  0  0  0  0  0
  186.0250  178.5860  143.0810 C   0  0  0  0  0  2  0  0  0  0  0  0
  182.9860  178.8400  139.7490 N   0  0  0  0  0  0  0  0  0  0  0  0
  180.6540  178.6270  143.9650 N   0  0  0  0  0  1  0  0  0  0  0  0
  185.6850  178.0970  144.4130 N   0  0  0  0  0  0  0  0  0  0  0  0
  183.4240  179.0010  144.3170 C   0  0  0  0  0  2  0  0  0  0  0  0
  185.0770  179.3760  141.0100 N   0  0  0  0  0  2  0  0  0  0  0  0
  183.4980  178.8600  142.8110 C   0  0  2  0  0  3  0  0  0  0  0  0
  186.8800  177.9740  145.2650 C   0  0  2  0  0  3  0  0  0  0  0  0
  188.0730  177.2280  144.6280 C   0  0  0  0  0  2  0  0  0  0  0  0
  189.4110  177.9110  144.8710 C   0  0  0  0  0  3  0  0  0  0  0  0
  190.5230  176.9130  144.6250 C   0  0  0  0  0  2  0  0  0  0  0  0
  190.1900  177.9480  143.5740 C   0  0  0  0  0  2  0  0  0  0  0  0
  186.5170  177.4860  146.6690 C   0  0  0  0  0  2  0  0  0  0  0  0
  187.1660  178.3500  147.7400 C   0  0  0  0  0  2  0  0  0  0  0  0
  188.2340  177.5640  148.4770 C   0  0  0  0  0  2  0  0  0  0  0  0
  189.4380  178.2650  148.4330 O   0  0  0  0  0  1  0  0  0  0  0  0
  1 15  1  0  0  0  0
  2  7  2  0  0  0  0
  3  6  1  6  0  0  0
  3  7  1  0  0  0  0
  3 16  1  0  0  0  0
  4  1  2  0  0  0  0
  5  6  1  0  0  0  0
  5  2  1  0  0  0  0
  7 12  1  0  0  0  0
  8 16  1  0  0  0  0
  8 10  1  1  0  0  0
 10 13  1  0  0  0  0
 11  1  1  0  0  0  0
 11  6  2  0  0  0  0
 13  9  1  0  0  0  0
 13 17  1  0  0  0  0
 14  9  1  0  0  0  0
 15  8  1  0  0  0  0
 16 14  1  1  0  0  0
 17 18  1  6  0  0  0
 17 22  1  0  0  0  0
 18 19  1  0  0  0  0
 20 19  1  0  0  0  0
 21 20  1  0  0  0  0
 21 19  1  0  0  0  0
 22 23  1  0  0  0  0
 23 24  1  0  0  0  0
 25 24  1  0  0  0  0
M  END
>  <MODEL>
6

>  <REMARK>
 VINA RESULT:      -7.9      1.468      2.597
  Name = 
  6 active torsions:
  status: ('A' for Active; 'I' for Inactive)
    1  A    between atoms: C_3  and  C_4
    2  A    between atoms: C_4  and  C_10
    3  A    between atoms: C_6  and  C_9
    4  A    between atoms: C_6  and  C_16
    5  A    between atoms: C_10  and  C_16
    6  A    between atoms: C_10  and  N_21
                            x       y       z     vdW  Elec       q    Type
                         _______ _______ _______ _____ _____    ______ ____

>  <TORSDO>
F 6

$$$$
=
 OpenBabel11042411453D

 25 28  0  0  1  0  0  0  0  0999 V2000
  191.5820  176.3970  146.7240 C   0  0  0  0  0  0  0  0  0  0  0  0
  187.6910  178.2680  148.3580 N   0  0  0  0  0  0  0  0  0  0  0  0
  188.6800  177.4470  146.5080 C   0  0  1  0  0  3  0  0  0  0  0  0
  192.6520  175.8610  147.1090 O   0  0  0  0  0  0  0  0  0  0  0  0
  188.9460  178.0530  148.6180 O   0  0  0  0  0  0  0  0  0  0  0  0
  189.5720  177.5470  147.5810 C   0  0  0  0  0  0  0  0  0  0  0  0
  187.4870  177.8830  147.0870 C   0  0  0  0  0  0  0  0  0  0  0  0
  190.3250  177.1540  144.6750 C   0  0  2  0  0  3  0  0  0  0  0  0
  188.1260  176.7430  142.8200 C   0  0  0  0  0  2  0  0  0  0  0  0
  190.4320  176.8690  143.1770 C   0  0  0  0  0  2  0  0  0  0  0  0
  190.8040  177.1350  147.6710 N   0  0  0  0  0  0  0  0  0  0  0  0
  186.2290  178.0320  146.4350 N   0  0  0  0  0  1  0  0  0  0  0  0
  189.3250  177.4780  142.4470 N   0  0  0  0  0  0  0  0  0  0  0  0
  187.7370  177.0820  144.2530 C   0  0  0  0  0  2  0  0  0  0  0  0
  191.1720  176.2140  145.3760 N   0  0  0  0  0  2  0  0  0  0  0  0
  188.9080  177.1390  145.2120 C   0  0  2  0  0  3  0  0  0  0  0  0
  189.5160  177.3760  140.9900 C   0  0  2  0  0  3  0  0  0  0  0  0
  190.9530  177.0420  140.5340 C   0  0  0  0  0  2  0  0  0  0  0  0
  191.1810  177.2640  139.0460 C   0  0  0  0  0  3  0  0  0  0  0  0
  192.2200  176.2770  138.5550 C   0  0  0  0  0  2  0  0  0  0  0  0
  190.7520  176.0250  138.2890 C   0  0  0  0  0  2  0  0  0  0  0  0
  188.8900  178.5650  140.2590 C   0  0  0  0  0  2  0  0  0  0  0  0
  187.6420  178.1500  139.4960 C   0  0  0  0  0  2  0  0  0  0  0  0
  187.8780  178.2500  138.0010 C   0  0  0  0  0  2  0  0  0  0  0  0
  188.6760  179.3600  137.7320 O   0  0  0  0  0  1  0  0  0  0  0  0
  1  4  2  0  0  0  0
  1 11  1  0  0  0  0
  2  5  1  0  0  0  0
  3  7  1  6  0  0  0
  3  6  1  0  0  0  0
  6 11  2  0  0  0  0
  6  5  1  0  0  0  0
  7  2  2  0  0  0  0
  8 10  1  6  0  0  0
  8 16  1  0  0  0  0
  8 15  1  0  0  0  0
  9 14  1  0  0  0  0
 12  7  1  0  0  0  0
 13  9  1  0  0  0  0
 13 10  1  0  0  0  0
 15  1  1  0  0  0  0
 16 14  1  6  0  0  0
 16  3  1  0  0  0  0
 17 22  1  6  0  0  0
 17 13  1  0  0  0  0
 18 17  1  0  0  0  0
 19 18  1  0  0  0  0
 20 19  1  0  0  0  0
 21 20  1  0  0  0  0
 21 19  1  0  0  0  0
 23 22  1  0  0  0  0
 24 23  1  0  0  0  0
 25 24  1  0  0  0  0
M  END
>  <MODEL>
7

>  <REMARK>
 VINA RESULT:      -7.8      4.409      7.924
  Name = 
  6 active torsions:
  status: ('A' for Active; 'I' for Inactive)
    1  A    between atoms: C_3  and  C_4
    2  A    between atoms: C_4  and  C_10
    3  A    between atoms: C_6  and  C_9
    4  A    between atoms: C_6  and  C_16
    5  A    between atoms: C_10  and  C_16
    6  A    between atoms: C_10  and  N_21
                            x       y       z     vdW  Elec       q    Type
                         _______ _______ _______ _____ _____    ______ ____

>  <TORSDO>
F 6

$$$$
=
 OpenBabel11042411453D

 25 28  0  0  1  0  0  0  0  0999 V2000
  190.9290  176.5960  145.7230 C   0  0  0  0  0  0  0  0  0  0  0  0
  187.9050  178.3570  148.7330 N   0  0  0  0  0  0  0  0  0  0  0  0
  188.1830  177.7270  146.5890 C   0  0  1  0  0  3  0  0  0  0  0  0
  192.0330  175.9950  145.6750 O   0  0  0  0  0  0  0  0  0  0  0  0
  189.1610  178.0860  148.5390 O   0  0  0  0  0  0  0  0  0  0  0  0
  189.3810  177.6860  147.3080 C   0  0  0  0  0  0  0  0  0  0  0  0
  187.2740  178.1220  147.5710 C   0  0  0  0  0  0  0  0  0  0  0  0
  189.1160  177.6060  144.2930 C   0  0  2  0  0  3  0  0  0  0  0  0
  186.4100  177.4560  143.2430 C   0  0  0  0  0  2  0  0  0  0  0  0
  188.7090  177.4890  142.8240 C   0  0  0  0  0  2  0  0  0  0  0  0
  190.5490  177.2400  146.9420 N   0  0  0  0  0  0  0  0  0  0  0  0
  185.8820  178.3720  147.3920 N   0  0  0  0  0  1  0  0  0  0  0  0
  187.4610  178.2010  142.5670 N   0  0  0  0  0  0  0  0  0  0  0  0
  186.5330  177.6400  144.7500 C   0  0  0  0  0  2  0  0  0  0  0  0
  190.0890  176.5750  144.5760 N   0  0  0  0  0  2  0  0  0  0  0  0
  187.9550  177.5620  145.2660 C   0  0  2  0  0  3  0  0  0  0  0  0
  187.1580  178.2590  141.1280 C   0  0  2  0  0  3  0  0  0  0  0  0
  188.3520  178.6100  140.2140 C   0  0  0  0  0  2  0  0  0  0  0  0
  188.4500  177.7240  138.9810 C   0  0  0  0  0  3  0  0  0  0  0  0
  189.0640  178.5220  137.8500 C   0  0  0  0  0  2  0  0  0  0  0  0
  189.9090  177.5330  138.6230 C   0  0  0  0  0  2  0  0  0  0  0  0
  185.8990  179.0860  140.8540 C   0  0  0  0  0  2  0  0  0  0  0  0
  185.0450  178.4480  139.7700 C   0  0  0  0  0  2  0  0  0  0  0  0
  183.8380  179.3170  139.4690 C   0  0  0  0  0  2  0  0  0  0  0  0
  184.2660  180.5490  138.9740 O   0  0  0  0  0  1  0  0  0  0  0  0
  1 11  1  0  0  0  0
  3  6  1  6  0  0  0
  3  7  1  0  0  0  0
  4  1  2  0  0  0  0
  5  2  1  0  0  0  0
  6  5  1  0  0  0  0
  7  2  2  0  0  0  0
  8 10  1  6  0  0  0
  8 15  1  0  0  0  0
  8 16  1  0  0  0  0
  9 14  1  0  0  0  0
 11  6  2  0  0  0  0
 12  7  1  0  0  0  0
 13 10  1  0  0  0  0
 13  9  1  0  0  0  0
 15  1  1  0  0  0  0
 16 14  1  6  0  0  0
 16  3  1  0  0  0  0
 17 18  1  6  0  0  0
 17 13  1  0  0  0  0
 19 18  1  0  0  0  0
 20 21  1  0  0  0  0
 20 19  1  0  0  0  0
 21 19  1  0  0  0  0
 22 17  1  0  0  0  0
 23 22  1  0  0  0  0
 24 23  1  0  0  0  0
 25 24  1  0  0  0  0
M  END
>  <MODEL>
8

>  <REMARK>
 VINA RESULT:      -7.5      3.139      7.597
  Name = 
  6 active torsions:
  status: ('A' for Active; 'I' for Inactive)
    1  A    between atoms: C_3  and  C_4
    2  A    between atoms: C_4  and  C_10
    3  A    between atoms: C_6  and  C_9
    4  A    between atoms: C_6  and  C_16
    5  A    between atoms: C_10  and  C_16
    6  A    between atoms: C_10  and  N_21
                            x       y       z     vdW  Elec       q    Type
                         _______ _______ _______ _____ _____    ______ ____

>  <TORSDO>
F 6

$$$$
=
 OpenBabel11042411453D

 25 28  0  0  1  0  0  0  0  0999 V2000
  185.9610  178.6230  140.8650 C   0  0  0  0  0  0  0  0  0  0  0  0
  189.4630  177.9740  137.9280 N   0  0  0  0  0  0  0  0  0  0  0  0
  188.7700  177.6230  140.0430 C   0  0  1  0  0  3  0  0  0  0  0  0
  184.7410  178.9290  140.8880 O   0  0  0  0  0  0  0  0  0  0  0  0
  188.3510  178.6200  138.1140 O   0  0  0  0  0  0  0  0  0  0  0  0
  187.8820  178.4310  139.3260 C   0  0  0  0  0  0  0  0  0  0  0  0
  189.7340  177.3320  139.0760 C   0  0  0  0  0  0  0  0  0  0  0  0
  187.9370  178.0840  142.3330 C   0  0  2  0  0  3  0  0  0  0  0  0
  189.7940  176.1000  143.3650 C   0  0  0  0  0  2  0  0  0  0  0  0
  188.1150  177.6690  143.7940 C   0  0  0  0  0  2  0  0  0  0  0  0
  186.7120  178.8820  139.6750 N   0  0  0  0  0  0  0  0  0  0  0  0
  190.9210  176.5650  139.2620 N   0  0  0  0  0  1  0  0  0  0  0  0
  189.5070  177.3360  144.0790 N   0  0  0  0  0  0  0  0  0  0  0  0
  189.8710  176.3740  141.8690 C   0  0  0  0  0  2  0  0  0  0  0  0
  186.5310  177.9970  142.0070 N   0  0  0  0  0  2  0  0  0  0  0  0
  188.7880  177.3000  141.3550 C   0  0  2  0  0  3  0  0  0  0  0  0
  189.7280  177.1210  145.5180 C   0  0  2  0  0  3  0  0  0  0  0  0
  188.9500  178.0700  146.4560 C   0  0  0  0  0  2  0  0  0  0  0  0
  187.8990  177.3610  147.2970 C   0  0  0  0  0  3  0  0  0  0  0  0
  187.9320  177.9240  148.7030 C   0  0  0  0  0  2  0  0  0  0  0  0
  186.8560  178.3670  147.7360 C   0  0  0  0  0  2  0  0  0  0  0  0
  191.2180  177.0060  145.8450 C   0  0  0  0  0  2  0  0  0  0  0  0
  191.4420  176.7550  147.3280 C   0  0  0  0  0  2  0  0  0  0  0  0
  192.4340  175.6260  147.5290 C   0  0  0  0  0  2  0  0  0  0  0  0
  193.3720  175.9990  148.4900 O   0  0  0  0  0  1  0  0  0  0  0  0
  1  4  2  0  0  0  0
  1 15  1  0  0  0  0
  2  5  1  0  0  0  0
  2  7  2  0  0  0  0
  3  7  1  1  0  0  0
  3 16  1  0  0  0  0
  5  6  1  0  0  0  0
  6 11  2  0  0  0  0
  6  3  1  0  0  0  0
  7 12  1  0  0  0  0
  8 10  1  1  0  0  0
  9 13  1  0  0  0  0
 10 13  1  0  0  0  0
 11  1  1  0  0  0  0
 13 17  1  0  0  0  0
 14  9  1  0  0  0  0
 15  8  1  0  0  0  0
 16 14  1  1  0  0  0
 16  8  1  0  0  0  0
 17 22  1  6  0  0  0
 17 18  1  0  0  0  0
 18 19  1  0  0  0  0
 19 21  1  0  0  0  0
 19 20  1  0  0  0  0
 21 20  1  0  0  0  0
 22 23  1  0  0  0  0
 23 24  1  0  0  0  0
 24 25  1  0  0  0  0
M  END
>  <MODEL>
9

>  <REMARK>
 VINA RESULT:      -7.5      3.297      5.475
  Name = 
  6 active torsions:
  status: ('A' for Active; 'I' for Inactive)
    1  A    between atoms: C_3  and  C_4
    2  A    between atoms: C_4  and  C_10
    3  A    between atoms: C_6  and  C_9
    4  A    between atoms: C_6  and  C_16
    5  A    between atoms: C_10  and  C_16
    6  A    between atoms: C_10  and  N_21
                            x       y       z     vdW  Elec       q    Type
                         _______ _______ _______ _____ _____    ______ ____

>  <TORSDO>
F 6

$$$$
