=
 OpenBabel11042410003D

 38 43  0  0  1  0  0  0  0  0999 V2000
  184.2160  179.0980  144.8010 C   0  0  0  0  0  0  0  0  0  0  0  0
  181.2390  178.5410  141.5160 C   0  0  0  0  0  3  0  0  0  0  0  0
  184.3300  179.1090  143.4450 N   0  0  0  0  0  0  0  0  0  0  0  0
  182.9410  178.8970  145.2330 N   0  0  0  0  0  0  0  0  0  0  0  0
  182.6130  178.7740  141.6970 C   0  0  0  0  0  3  0  0  0  0  0  0
  183.0790  178.8870  143.0090 C   0  0  0  0  0  0  0  0  0  0  0  0
  180.8820  178.5460  143.9410 C   0  0  0  0  0  3  0  0  0  0  0  0
  179.0220  178.1960  142.4310 O   0  0  0  0  0  1  0  0  0  0  0  0
  180.3750  178.4290  142.6320 C   0  0  0  0  0  0  0  0  0  0  0  0
  182.2490  178.7710  144.0860 C   0  0  0  0  0  0  0  0  0  0  0  0
  185.9740  177.9410  146.0480 N   0  0  1  0  0  0  0  0  0  0  0  0
  185.0890  178.6120  147.0090 C   0  0  0  0  0  2  0  0  0  0  0  0
  185.3850  179.2520  145.7280 C   0  0  2  0  0  3  0  0  0  0  0  0
  187.3320  178.2040  146.4790 C   0  0  1  0  0  3  0  0  0  0  0  0
  187.7590  177.1730  147.3310 O   0  0  0  0  0  0  0  0  0  0  0  0
  188.2290  177.1210  146.0030 C   0  0  2  0  0  3  0  0  0  0  0  0
  190.7230  176.6370  146.2420 C   0  0  0  0  0  2  0  0  0  0  0  0
  189.8770  178.1450  144.5840 O   0  0  0  0  0  0  0  0  0  0  0  0
  190.8140  177.2870  143.9820 C   0  0  2  0  0  3  0  0  0  0  0  0
  191.6400  176.6400  145.0630 C   0  0  0  0  0  2  0  0  0  0  0  0
  189.6560  177.6600  145.8900 C   0  0  1  0  0  3  0  0  0  0  0  0
  191.7240  178.0730  143.0630 C   0  0  0  0  0  2  0  0  0  0  0  0
  191.8280  177.3950  141.7800 N   0  0  0  0  0  2  0  0  0  0  0  0
  190.4750  177.2440  141.2760 C   0  0  0  0  0  1  0  0  0  0  0  0
  186.3540  177.9100  142.7340 C   0  0  0  0  0  2  0  0  0  0  0  0
  185.5620  179.2030  142.6610 C   0  0  1  0  0  3  0  0  0  0  0  0
  185.5050  178.2060  141.5210 C   0  0  1  0  0  3  0  0  0  0  0  0
  186.3780  178.6990  140.3840 C   0  0  0  0  0  2  0  0  0  0  0  0
  187.3180  177.2590  137.9670 C   0  0  0  0  0  1  0  0  0  0  0  0
  185.5860  178.6740  139.1200 C   0  0  0  0  0  0  0  0  0  0  0  0
  184.5230  179.3500  139.0480 O   0  0  0  0  0  0  0  0  0  0  0  0
  185.9830  177.8360  138.0190 N   0  0  0  0  0  0  0  0  0  0  0  0
  185.0010  177.3960  137.0370 C   0  0  0  0  0  2  0  0  0  0  0  0
  185.4630  176.1090  136.3740 C   0  0  0  0  0  2  0  0  0  0  0  0
  186.9590  173.7660  137.1920 O   0  0  0  0  0  0  0  0  0  0  0  0
  184.9980  172.8360  137.9110 O   0  0  0  0  0  1  0  0  0  0  0  0
  185.5860  173.8140  137.3890 C   0  0  0  0  0  0  0  0  0  0  0  0
  184.8410  174.9720  137.0250 N   0  0  0  0  0  2  0  0  0  0  0  0
  1  4  2  0  0  0  0
  2  5  2  0  0  0  0
  2  9  1  0  0  0  0
  3  1  1  0  0  0  0
  5  6  1  0  0  0  0
  6  3  1  0  0  0  0
  6 10  2  0  0  0  0
  7 10  1  0  0  0  0
  8  9  1  0  0  0  0
  9  7  2  0  0  0  0
 10  4  1  0  0  0  0
 11 14  1  0  0  0  0
 11 12  1  1  0  0  0
 13  1  1  6  0  0  0
 13 11  1  0  0  0  0
 13 12  1  0  0  0  0
 14 15  1  1  0  0  0
 16 14  1  0  0  0  0
 16 15  1  1  0  0  0
 18 21  1  0  0  0  0
 19 22  1  6  0  0  0
 19 18  1  0  0  0  0
 19 20  1  0  0  0  0
 20 17  1  0  0  0  0
 21 16  1  0  0  0  0
 21 17  1  6  0  0  0
 23 22  1  0  0  0  0
 24 23  1  0  0  0  0
 26 25  1  1  0  0  0
 26  3  1  0  0  0  0
 27 28  1  6  0  0  0
 27 26  1  0  0  0  0
 27 25  1  0  0  0  0
 29 32  1  0  0  0  0
 30 28  1  0  0  0  0
 31 30  2  0  0  0  0
 32 30  1  0  0  0  0
 33 32  1  0  0  0  0
 34 38  1  0  0  0  0
 34 33  1  0  0  0  0
 35 37  2  0  0  0  0
 37 36  1  0  0  0  0
 38 37  1  0  0  0  0
M  END
>  <MODEL>
1

>  <REMARK>
 VINA RESULT:      -7.8      0.000      0.000
  Name = 
  11 active torsions:
  status: ('A' for Active; 'I' for Inactive)
    1  A    between atoms: C_1  and  C_36
    2  A    between atoms: N_2  and  C_3
    3  A    between atoms: N_6  and  C_23
    4  A    between atoms: C_8  and  C_17
    5  A    between atoms: C_8  and  C_29
    6  A    between atoms: C_12  and  C_27
    7  A    between atoms: C_12  and  N_34
    8  A    between atoms: N_16  and  C_38
    9  A    between atoms: C_22  and  C_38
   10  A    between atoms: C_27  and  N_37
   11  A    between atoms: C_30  and  C_35
                            x       y       z     vdW  Elec       q    Type
                         _______ _______ _______ _____ _____    ______ ____

>  <TORSDO>
F 11

$$$$
=
 OpenBabel11042410003D

 38 43  0  0  1  0  0  0  0  0999 V2000
  184.4210  179.0690  142.2810 C   0  0  0  0  0  0  0  0  0  0  0  0
  183.7480  177.9430  138.0090 C   0  0  0  0  0  3  0  0  0  0  0  0
  185.2490  179.0130  141.2030 N   0  0  0  0  0  0  0  0  0  0  0  0
  183.1340  178.7340  141.9890 N   0  0  0  0  0  0  0  0  0  0  0  0
  184.7840  178.3590  138.8650 C   0  0  0  0  0  3  0  0  0  0  0  0
  184.4550  178.6080  140.1990 C   0  0  0  0  0  0  0  0  0  0  0  0
  182.1360  178.0480  139.8520 C   0  0  0  0  0  3  0  0  0  0  0  0
  181.4220  177.3740  137.6400 O   0  0  0  0  0  1  0  0  0  0  0  0
  182.4290  177.7890  138.4990 C   0  0  0  0  0  0  0  0  0  0  0  0
  183.1860  178.4520  140.6740 C   0  0  0  0  0  0  0  0  0  0  0  0
  185.1010  178.2130  144.4700 N   0  0  1  0  0  0  0  0  0  0  0  0
  183.8830  179.0150  144.6430 C   0  0  0  0  0  2  0  0  0  0  0  0
  184.8860  179.4250  143.6620 C   0  0  2  0  0  3  0  0  0  0  0  0
  186.0060  178.5940  145.5350 C   0  0  1  0  0  3  0  0  0  0  0  0
  185.7150  177.8450  146.6850 O   0  0  0  0  0  0  0  0  0  0  0  0
  186.8320  177.4270  145.9340 C   0  0  2  0  0  3  0  0  0  0  0  0
  188.6490  177.0460  147.6840 C   0  0  0  0  0  2  0  0  0  0  0  0
  189.1290  178.0210  145.5490 O   0  0  0  0  0  0  0  0  0  0  0  0
  190.0920  177.0340  145.8250 C   0  0  2  0  0  3  0  0  0  0  0  0
  190.0550  176.7230  147.2990 C   0  0  0  0  0  2  0  0  0  0  0  0
  188.1420  177.9220  146.5510 C   0  0  1  0  0  3  0  0  0  0  0  0
  191.4710  177.5350  145.4550 C   0  0  0  0  0  2  0  0  0  0  0  0
  191.6790  177.3880  144.0240 N   0  0  0  0  0  2  0  0  0  0  0  0
  191.3650  176.0090  143.6960 C   0  0  0  0  0  1  0  0  0  0  0  0
  187.4190  178.0390  141.8220 C   0  0  0  0  0  2  0  0  0  0  0  0
  186.6990  179.2160  141.1890 C   0  0  1  0  0  3  0  0  0  0  0  0
  187.3430  178.1550  140.3190 C   0  0  1  0  0  3  0  0  0  0  0  0
  188.6530  178.6880  139.7720 C   0  0  0  0  0  2  0  0  0  0  0  0
  190.9160  176.7720  139.8740 C   0  0  0  0  0  1  0  0  0  0  0  0
  189.0510  177.8700  138.5890 C   0  0  0  0  0  0  0  0  0  0  0  0
  188.4610  178.0540  137.4890 O   0  0  0  0  0  0  0  0  0  0  0  0
  190.0420  176.8340  138.7110 N   0  0  0  0  0  0  0  0  0  0  0  0
  190.0640  175.7210  137.7710 C   0  0  0  0  0  2  0  0  0  0  0  0
  191.4210  175.0390  137.7980 C   0  0  0  0  0  2  0  0  0  0  0  0
  194.0670  175.9930  138.4950 O   0  0  0  0  0  1  0  0  0  0  0  0
  194.3010  176.7410  136.3470 O   0  0  0  0  0  0  0  0  0  0  0  0
  193.5880  176.1630  137.2040 C   0  0  0  0  0  0  0  0  0  0  0  0
  192.3040  175.6690  136.8350 N   0  0  0  0  0  2  0  0  0  0  0  0
  2  9  2  0  0  0  0
  2  5  1  0  0  0  0
  3  1  1  0  0  0  0
  4  1  2  0  0  0  0
  5  6  2  0  0  0  0
  6 10  1  0  0  0  0
  6  3  1  0  0  0  0
  7 10  2  0  0  0  0
  8  9  1  0  0  0  0
  9  7  1  0  0  0  0
 10  4  1  0  0  0  0
 11 12  1  1  0  0  0
 11 14  1  0  0  0  0
 13  1  1  6  0  0  0
 13 11  1  0  0  0  0
 13 12  1  0  0  0  0
 14 16  1  0  0  0  0
 14 15  1  1  0  0  0
 16 21  1  0  0  0  0
 16 15  1  1  0  0  0
 18 19  1  0  0  0  0
 18 21  1  0  0  0  0
 19 22  1  1  0  0  0
 19 20  1  0  0  0  0
 20 17  1  0  0  0  0
 21 17  1  1  0  0  0
 23 22  1  0  0  0  0
 24 23  1  0  0  0  0
 26  3  1  1  0  0  0
 26 25  1  0  0  0  0
 27 28  1  6  0  0  0
 27 26  1  0  0  0  0
 27 25  1  0  0  0  0
 30 32  1  0  0  0  0
 30 28  1  0  0  0  0
 31 30  2  0  0  0  0
 32 29  1  0  0  0  0
 33 34  1  0  0  0  0
 33 32  1  0  0  0  0
 36 37  2  0  0  0  0
 37 35  1  0  0  0  0
 38 37  1  0  0  0  0
 38 34  1  0  0  0  0
M  END
>  <MODEL>
2

>  <REMARK>
 VINA RESULT:      -7.8      2.927      4.141
  Name = 
  11 active torsions:
  status: ('A' for Active; 'I' for Inactive)
    1  A    between atoms: C_1  and  C_36
    2  A    between atoms: N_2  and  C_3
    3  A    between atoms: N_6  and  C_23
    4  A    between atoms: C_8  and  C_17
    5  A    between atoms: C_8  and  C_29
    6  A    between atoms: C_12  and  C_27
    7  A    between atoms: C_12  and  N_34
    8  A    between atoms: N_16  and  C_38
    9  A    between atoms: C_22  and  C_38
   10  A    between atoms: C_27  and  N_37
   11  A    between atoms: C_30  and  C_35
                            x       y       z     vdW  Elec       q    Type
                         _______ _______ _______ _____ _____    ______ ____

>  <TORSDO>
F 11

$$$$
=
 OpenBabel11042410003D

 38 43  0  0  1  0  0  0  0  0999 V2000
  184.4720  179.0840  142.2360 C   0  0  0  0  0  0  0  0  0  0  0  0
  183.8400  177.9070  137.9720 C   0  0  0  0  0  3  0  0  0  0  0  0
  185.3130  179.0080  141.1680 N   0  0  0  0  0  0  0  0  0  0  0  0
  183.1870  178.7540  141.9340 N   0  0  0  0  0  0  0  0  0  0  0  0
  184.8690  178.3260  138.8330 C   0  0  0  0  0  3  0  0  0  0  0  0
  184.5270  178.5950  140.1600 C   0  0  0  0  0  0  0  0  0  0  0  0
  182.2080  178.0470  139.7950 C   0  0  0  0  0  3  0  0  0  0  0  0
  181.5140  177.3500  137.5830 O   0  0  0  0  0  1  0  0  0  0  0  0
  182.5140  177.7690  138.4490 C   0  0  0  0  0  0  0  0  0  0  0  0
  183.2510  178.4550  140.6230 C   0  0  0  0  0  0  0  0  0  0  0  0
  185.0140  178.2610  144.4750 N   0  0  1  0  0  0  0  0  0  0  0  0
  183.8630  179.1660  144.5800 C   0  0  0  0  0  2  0  0  0  0  0  0
  184.9250  179.4540  143.6170 C   0  0  2  0  0  3  0  0  0  0  0  0
  185.9160  178.6080  145.5550 C   0  0  1  0  0  3  0  0  0  0  0  0
  185.6590  177.7840  146.6610 O   0  0  0  0  0  0  0  0  0  0  0  0
  186.7820  177.4470  145.8790 C   0  0  2  0  0  3  0  0  0  0  0  0
  188.5350  177.1160  147.7030 C   0  0  0  0  0  2  0  0  0  0  0  0
  189.1010  177.9820  145.5420 O   0  0  0  0  0  0  0  0  0  0  0  0
  190.0360  176.9920  145.8940 C   0  0  2  0  0  3  0  0  0  0  0  0
  189.9470  176.7500  147.3790 C   0  0  0  0  0  2  0  0  0  0  0  0
  188.0810  177.9470  146.5150 C   0  0  1  0  0  3  0  0  0  0  0  0
  191.4360  177.4510  145.5470 C   0  0  0  0  0  2  0  0  0  0  0  0
  191.4120  178.1920  144.2960 N   0  0  0  0  0  2  0  0  0  0  0  0
  191.6540  177.2300  143.2360 C   0  0  0  0  0  1  0  0  0  0  0  0
  187.4600  178.0890  141.9330 C   0  0  0  0  0  2  0  0  0  0  0  0
  186.7640  179.2000  141.1680 C   0  0  1  0  0  3  0  0  0  0  0  0
  187.4190  178.0530  140.4250 C   0  0  1  0  0  3  0  0  0  0  0  0
  188.7450  178.5200  139.8580 C   0  0  0  0  0  2  0  0  0  0  0  0
  190.4260  176.3210  138.7890 C   0  0  0  0  0  1  0  0  0  0  0  0
  188.7910  178.1950  138.4020 C   0  0  0  0  0  0  0  0  0  0  0  0
  188.1580  178.9250  137.5900 O   0  0  0  0  0  0  0  0  0  0  0  0
  189.4830  177.0250  137.9310 N   0  0  0  0  0  0  0  0  0  0  0  0
  189.1150  176.4120  136.6610 C   0  0  0  0  0  2  0  0  0  0  0  0
  188.3980  175.0950  136.9030 C   0  0  0  0  0  2  0  0  0  0  0  0
  186.4980  172.9590  137.3800 O   0  0  0  0  0  0  0  0  0  0  0  0
  184.8330  174.5250  137.4100 O   0  0  0  0  0  1  0  0  0  0  0  0
  186.0560  174.2710  137.2920 C   0  0  0  0  0  0  0  0  0  0  0  0
  186.9810  175.3360  137.0940 N   0  0  0  0  0  2  0  0  0  0  0  0
  2  9  2  0  0  0  0
  2  5  1  0  0  0  0
  3  1  1  0  0  0  0
  4  1  2  0  0  0  0
  5  6  2  0  0  0  0
  6 10  1  0  0  0  0
  6  3  1  0  0  0  0
  7 10  2  0  0  0  0
  8  9  1  0  0  0  0
  9  7  1  0  0  0  0
 10  4  1  0  0  0  0
 11 12  1  1  0  0  0
 11 14  1  0  0  0  0
 13  1  1  6  0  0  0
 13 11  1  0  0  0  0
 13 12  1  0  0  0  0
 14 16  1  0  0  0  0
 14 15  1  1  0  0  0
 16 21  1  0  0  0  0
 16 15  1  1  0  0  0
 18 19  1  0  0  0  0
 18 21  1  0  0  0  0
 19 22  1  1  0  0  0
 19 20  1  0  0  0  0
 20 17  1  0  0  0  0
 21 17  1  1  0  0  0
 23 22  1  0  0  0  0
 24 23  1  0  0  0  0
 26  3  1  1  0  0  0
 26 25  1  0  0  0  0
 27 28  1  6  0  0  0
 27 26  1  0  0  0  0
 27 25  1  0  0  0  0
 30 28  1  0  0  0  0
 31 30  2  0  0  0  0
 32 30  1  0  0  0  0
 32 29  1  0  0  0  0
 33 34  1  0  0  0  0
 33 32  1  0  0  0  0
 34 38  1  0  0  0  0
 37 35  2  0  0  0  0
 37 36  1  0  0  0  0
 38 37  1  0  0  0  0
M  END
>  <MODEL>
3

>  <REMARK>
 VINA RESULT:      -7.7      2.002      2.931
  Name = 
  11 active torsions:
  status: ('A' for Active; 'I' for Inactive)
    1  A    between atoms: C_1  and  C_36
    2  A    between atoms: N_2  and  C_3
    3  A    between atoms: N_6  and  C_23
    4  A    between atoms: C_8  and  C_17
    5  A    between atoms: C_8  and  C_29
    6  A    between atoms: C_12  and  C_27
    7  A    between atoms: C_12  and  N_34
    8  A    between atoms: N_16  and  C_38
    9  A    between atoms: C_22  and  C_38
   10  A    between atoms: C_27  and  N_37
   11  A    between atoms: C_30  and  C_35
                            x       y       z     vdW  Elec       q    Type
                         _______ _______ _______ _____ _____    ______ ____

>  <TORSDO>
F 11

$$$$
=
 OpenBabel11042410003D

 38 43  0  0  1  0  0  0  0  0999 V2000
  189.0000  177.1980  143.1840 C   0  0  0  0  0  0  0  0  0  0  0  0
  189.6890  176.9630  147.5920 C   0  0  0  0  0  3  0  0  0  0  0  0
  188.1520  177.1820  144.2470 N   0  0  0  0  0  0  0  0  0  0  0  0
  190.3130  177.1540  143.5410 N   0  0  0  0  0  0  0  0  0  0  0  0
  188.6320  177.0340  146.6690 C   0  0  0  0  0  3  0  0  0  0  0  0
  188.9650  177.1040  145.3150 C   0  0  0  0  0  0  0  0  0  0  0  0
  191.3300  177.0350  145.7740 C   0  0  0  0  0  3  0  0  0  0  0  0
  192.0620  176.8910  148.0760 O   0  0  0  0  0  1  0  0  0  0  0  0
  191.0330  176.9650  147.1480 C   0  0  0  0  0  0  0  0  0  0  0  0
  190.2590  177.0980  144.8850 C   0  0  0  0  0  0  0  0  0  0  0  0
  189.6410  177.5800  140.8540 N   0  0  1  0  0  0  0  0  0  0  0  0
  188.6340  178.5810  141.2280 C   0  0  0  0  0  2  0  0  0  0  0  0
  188.5350  177.2230  141.7580 C   0  0  2  0  0  3  0  0  0  0  0  0
  189.2680  177.0830  139.5450 C   0  0  1  0  0  3  0  0  0  0  0  0
  189.7320  177.9680  138.5600 O   0  0  0  0  0  0  0  0  0  0  0  0
  190.4880  176.7940  138.7510 C   0  0  2  0  0  3  0  0  0  0  0  0
  190.3000  176.2450  136.2660 C   0  0  0  0  0  2  0  0  0  0  0  0
  190.9950  174.6130  137.8770 O   0  0  0  0  0  0  0  0  0  0  0  0
  191.8640  174.5610  136.7720 C   0  0  2  0  0  3  0  0  0  0  0  0
  191.2080  175.2580  135.6090 C   0  0  0  0  0  2  0  0  0  0  0  0
  190.1650  175.7380  137.6920 C   0  0  1  0  0  3  0  0  0  0  0  0
  192.1430  173.1210  136.3980 C   0  0  0  0  0  2  0  0  0  0  0  0
  193.5780  172.9050  136.3170 N   0  0  0  0  0  2  0  0  0  0  0  0
  194.1780  173.6740  137.3920 C   0  0  0  0  0  1  0  0  0  0  0  0
  186.0830  178.0530  145.2470 C   0  0  0  0  0  2  0  0  0  0  0  0
  186.6900  177.1220  144.2130 C   0  0  1  0  0  3  0  0  0  0  0  0
  186.1450  178.4740  143.7990 C   0  0  1  0  0  3  0  0  0  0  0  0
  184.7900  178.2850  143.1450 C   0  0  0  0  0  2  0  0  0  0  0  0
  183.0570  177.2740  140.9590 C   0  0  0  0  0  1  0  0  0  0  0  0
  184.8320  178.8630  141.7700 C   0  0  0  0  0  0  0  0  0  0  0  0
  185.6840  179.7550  141.5050 O   0  0  0  0  0  0  0  0  0  0  0  0
  183.8690  178.4670  140.7760 N   0  0  0  0  0  0  0  0  0  0  0  0
  183.5560  179.3510  139.6600 C   0  0  0  0  0  2  0  0  0  0  0  0
  183.7510  178.6210  138.3420 C   0  0  0  0  0  2  0  0  0  0  0  0
  184.7230  177.0770  136.0910 O   0  0  0  0  0  0  0  0  0  0  0  0
  186.8160  177.1700  137.0060 O   0  0  0  0  0  1  0  0  0  0  0  0
  185.6040  177.4830  137.0840 C   0  0  0  0  0  0  0  0  0  0  0  0
  185.1490  178.2730  138.1780 N   0  0  0  0  0  2  0  0  0  0  0  0
  1  4  2  0  0  0  0
  1  3  1  0  0  0  0
  3  6  1  0  0  0  0
  4 10  1  0  0  0  0
  5  2  2  0  0  0  0
  6  5  1  0  0  0  0
  7  9  2  0  0  0  0
  9  2  1  0  0  0  0
  9  8  1  0  0  0  0
 10  6  2  0  0  0  0
 10  7  1  0  0  0  0
 11 12  1  6  0  0  0
 11 13  1  0  0  0  0
 12 13  1  0  0  0  0
 13  1  1  1  0  0  0
 14 15  1  6  0  0  0
 14 11  1  0  0  0  0
 16 15  1  6  0  0  0
 16 14  1  0  0  0  0
 19 22  1  6  0  0  0
 19 18  1  0  0  0  0
 20 17  1  0  0  0  0
 20 19  1  0  0  0  0
 21 17  1  6  0  0  0
 21 18  1  0  0  0  0
 21 16  1  0  0  0  0
 23 22  1  0  0  0  0
 23 24  1  0  0  0  0
 26  3  1  1  0  0  0
 26 25  1  0  0  0  0
 27 28  1  6  0  0  0
 27 26  1  0  0  0  0
 27 25  1  0  0  0  0
 30 28  1  0  0  0  0
 31 30  2  0  0  0  0
 32 29  1  0  0  0  0
 32 30  1  0  0  0  0
 33 32  1  0  0  0  0
 34 33  1  0  0  0  0
 35 37  2  0  0  0  0
 36 37  1  0  0  0  0
 37 38  1  0  0  0  0
 38 34  1  0  0  0  0
M  END
>  <MODEL>
4

>  <REMARK>
 VINA RESULT:      -7.7      3.215      7.033
  Name = 
  11 active torsions:
  status: ('A' for Active; 'I' for Inactive)
    1  A    between atoms: C_1  and  C_36
    2  A    between atoms: N_2  and  C_3
    3  A    between atoms: N_6  and  C_23
    4  A    between atoms: C_8  and  C_17
    5  A    between atoms: C_8  and  C_29
    6  A    between atoms: C_12  and  C_27
    7  A    between atoms: C_12  and  N_34
    8  A    between atoms: N_16  and  C_38
    9  A    between atoms: C_22  and  C_38
   10  A    between atoms: C_27  and  N_37
   11  A    between atoms: C_30  and  C_35
                            x       y       z     vdW  Elec       q    Type
                         _______ _______ _______ _____ _____    ______ ____

>  <TORSDO>
F 11

$$$$
=
 OpenBabel11042410003D

 38 43  0  0  1  0  0  0  0  0999 V2000
  189.0810  177.1990  143.0590 C   0  0  0  0  0  0  0  0  0  0  0  0
  189.5940  177.0620  147.4950 C   0  0  0  0  0  3  0  0  0  0  0  0
  188.1910  177.1820  144.0870 N   0  0  0  0  0  0  0  0  0  0  0  0
  190.3790  177.1930  143.4690 N   0  0  0  0  0  0  0  0  0  0  0  0
  188.5740  177.0900  146.5280 C   0  0  0  0  0  3  0  0  0  0  0  0
  188.9600  177.1440  145.1880 C   0  0  0  0  0  0  0  0  0  0  0  0
  191.3060  177.1410  145.7440 C   0  0  0  0  0  3  0  0  0  0  0  0
  191.9460  177.0570  148.0760 O   0  0  0  0  0  1  0  0  0  0  0  0
  190.9550  177.0890  147.1060 C   0  0  0  0  0  0  0  0  0  0  0  0
  190.2710  177.1610  144.8110 C   0  0  0  0  0  0  0  0  0  0  0  0
  189.7850  177.6280  140.7550 N   0  0  1  0  0  0  0  0  0  0  0  0
  188.6890  178.5480  141.0840 C   0  0  0  0  0  2  0  0  0  0  0  0
  188.6740  177.1860  141.6150 C   0  0  2  0  0  3  0  0  0  0  0  0
  189.5060  177.1020  139.4340 C   0  0  1  0  0  3  0  0  0  0  0  0
  190.1460  177.8970  138.4710 O   0  0  0  0  0  0  0  0  0  0  0  0
  190.7710  176.6740  138.7870 C   0  0  2  0  0  3  0  0  0  0  0  0
  190.5820  176.0940  136.3090 C   0  0  0  0  0  2  0  0  0  0  0  0
  191.3220  174.4950  137.9330 O   0  0  0  0  0  0  0  0  0  0  0  0
  192.1860  174.4510  136.8240 C   0  0  2  0  0  3  0  0  0  0  0  0
  191.5080  175.1210  135.6570 C   0  0  0  0  0  2  0  0  0  0  0  0
  190.4660  175.6000  137.7400 C   0  0  1  0  0  3  0  0  0  0  0  0
  192.4960  173.0150  136.4630 C   0  0  0  0  0  2  0  0  0  0  0  0
  193.9160  172.8740  136.1870 N   0  0  0  0  0  2  0  0  0  0  0  0
  194.6200  173.5330  137.2730 C   0  0  0  0  0  1  0  0  0  0  0  0
  186.0620  178.1460  144.8510 C   0  0  0  0  0  2  0  0  0  0  0  0
  186.7330  177.0860  143.9950 C   0  0  1  0  0  3  0  0  0  0  0  0
  186.1890  178.3500  143.3600 C   0  0  1  0  0  3  0  0  0  0  0  0
  184.8700  178.0370  142.6800 C   0  0  0  0  0  2  0  0  0  0  0  0
  183.0720  177.1980  140.4740 C   0  0  0  0  0  1  0  0  0  0  0  0
  184.8060  178.7780  141.3850 C   0  0  0  0  0  0  0  0  0  0  0  0
  185.5960  179.7430  141.1910 O   0  0  0  0  0  0  0  0  0  0  0  0
  183.8110  178.4500  140.3990 N   0  0  0  0  0  0  0  0  0  0  0  0
  183.3920  179.4420  139.4170 C   0  0  0  0  0  2  0  0  0  0  0  0
  181.9380  179.2200  139.0370 C   0  0  0  0  0  2  0  0  0  0  0  0
  180.2930  179.1030  141.4200 O   0  0  0  0  0  1  0  0  0  0  0  0
  179.5970  181.2350  140.9740 O   0  0  0  0  0  0  0  0  0  0  0  0
  180.3070  180.2540  140.6440 C   0  0  0  0  0  0  0  0  0  0  0  0
  181.1370  180.3410  139.4900 N   0  0  0  0  0  2  0  0  0  0  0  0
  1  4  2  0  0  0  0
  1  3  1  0  0  0  0
  3  6  1  0  0  0  0
  4 10  1  0  0  0  0
  5  2  2  0  0  0  0
  6  5  1  0  0  0  0
  7  9  2  0  0  0  0
  9  2  1  0  0  0  0
  9  8  1  0  0  0  0
 10  6  2  0  0  0  0
 10  7  1  0  0  0  0
 11 12  1  6  0  0  0
 11 13  1  0  0  0  0
 12 13  1  0  0  0  0
 13  1  1  1  0  0  0
 14 15  1  6  0  0  0
 14 11  1  0  0  0  0
 16 15  1  6  0  0  0
 16 14  1  0  0  0  0
 19 22  1  6  0  0  0
 19 18  1  0  0  0  0
 20 17  1  0  0  0  0
 20 19  1  0  0  0  0
 21 17  1  6  0  0  0
 21 18  1  0  0  0  0
 21 16  1  0  0  0  0
 23 22  1  0  0  0  0
 23 24  1  0  0  0  0
 26  3  1  1  0  0  0
 26 25  1  0  0  0  0
 27 28  1  6  0  0  0
 27 26  1  0  0  0  0
 27 25  1  0  0  0  0
 30 28  1  0  0  0  0
 31 30  2  0  0  0  0
 32 29  1  0  0  0  0
 32 30  1  0  0  0  0
 33 32  1  0  0  0  0
 34 33  1  0  0  0  0
 34 38  1  0  0  0  0
 37 36  2  0  0  0  0
 37 35  1  0  0  0  0
 38 37  1  0  0  0  0
M  END
>  <MODEL>
5

>  <REMARK>
 VINA RESULT:      -7.5      3.396      7.531
  Name = 
  11 active torsions:
  status: ('A' for Active; 'I' for Inactive)
    1  A    between atoms: C_1  and  C_36
    2  A    between atoms: N_2  and  C_3
    3  A    between atoms: N_6  and  C_23
    4  A    between atoms: C_8  and  C_17
    5  A    between atoms: C_8  and  C_29
    6  A    between atoms: C_12  and  C_27
    7  A    between atoms: C_12  and  N_34
    8  A    between atoms: N_16  and  C_38
    9  A    between atoms: C_22  and  C_38
   10  A    between atoms: C_27  and  N_37
   11  A    between atoms: C_30  and  C_35
                            x       y       z     vdW  Elec       q    Type
                         _______ _______ _______ _____ _____    ______ ____

>  <TORSDO>
F 11

$$$$
=
 OpenBabel11042410003D

 38 43  0  0  1  0  0  0  0  0999 V2000
  188.5940  177.9330  141.8980 C   0  0  0  0  0  0  0  0  0  0  0  0
  189.6070  177.0590  146.1610 C   0  0  0  0  0  3  0  0  0  0  0  0
  187.8260  177.6780  142.9920 N   0  0  0  0  0  0  0  0  0  0  0  0
  189.9290  177.9410  142.1660 N   0  0  0  0  0  0  0  0  0  0  0  0
  188.4850  177.1880  145.3250 C   0  0  0  0  0  3  0  0  0  0  0  0
  188.7160  177.4990  143.9830 C   0  0  0  0  0  0  0  0  0  0  0  0
  191.1060  177.5540  144.2870 C   0  0  0  0  0  3  0  0  0  0  0  0
  192.0070  177.1080  146.4890 O   0  0  0  0  0  1  0  0  0  0  0  0
  190.9130  177.2430  145.6460 C   0  0  0  0  0  0  0  0  0  0  0  0
  189.9740  177.6690  143.4840 C   0  0  0  0  0  0  0  0  0  0  0  0
  188.6510  177.2250  139.5570 N   0  0  1  0  0  0  0  0  0  0  0  0
  189.0760  178.6290  139.6270 C   0  0  0  0  0  2  0  0  0  0  0  0
  188.0290  178.1450  140.5250 C   0  0  2  0  0  3  0  0  0  0  0  0
  187.7260  177.1260  138.4450 C   0  0  1  0  0  3  0  0  0  0  0  0
  188.4270  177.2880  137.2400 O   0  0  0  0  0  0  0  0  0  0  0  0
  188.0890  175.9660  137.5930 C   0  0  2  0  0  3  0  0  0  0  0  0
  186.9730  175.5850  135.3300 C   0  0  0  0  0  2  0  0  0  0  0  0
  186.5610  174.1510  137.2050 O   0  0  0  0  0  0  0  0  0  0  0  0
  186.7990  173.3570  136.0690 C   0  0  2  0  0  3  0  0  0  0  0  0
  186.6400  174.2140  134.8390 C   0  0  0  0  0  2  0  0  0  0  0  0
  186.8470  175.4830  136.8400 C   0  0  1  0  0  3  0  0  0  0  0  0
  185.8050  172.2170  136.0140 C   0  0  0  0  0  2  0  0  0  0  0  0
  184.4510  172.7450  136.0800 N   0  0  0  0  0  2  0  0  0  0  0  0
  183.8050  172.0990  137.2080 C   0  0  0  0  0  1  0  0  0  0  0  0
  185.7210  178.5700  143.8950 C   0  0  0  0  0  2  0  0  0  0  0  0
  186.3740  177.5040  143.0330 C   0  0  1  0  0  3  0  0  0  0  0  0
  185.7080  178.7050  142.3910 C   0  0  1  0  0  3  0  0  0  0  0  0
  184.3560  178.2910  141.8450 C   0  0  0  0  0  2  0  0  0  0  0  0
  182.6790  176.8820  139.8440 C   0  0  0  0  0  1  0  0  0  0  0  0
  184.2370  178.7680  140.4360 C   0  0  0  0  0  0  0  0  0  0  0  0
  184.9300  179.7530  140.0600 O   0  0  0  0  0  0  0  0  0  0  0  0
  183.2930  178.1650  139.5320 N   0  0  0  0  0  0  0  0  0  0  0  0
  182.7910  178.9100  138.3850 C   0  0  0  0  0  2  0  0  0  0  0  0
  181.2750  178.9840  138.4310 C   0  0  0  0  0  2  0  0  0  0  0  0
  180.0650  178.9040  141.0630 O   0  0  0  0  0  1  0  0  0  0  0  0
  179.8620  181.1790  140.9760 O   0  0  0  0  0  0  0  0  0  0  0  0
  180.2390  180.1200  140.4190 C   0  0  0  0  0  0  0  0  0  0  0  0
  180.8650  180.1810  139.1400 N   0  0  0  0  0  2  0  0  0  0  0  0
  1  4  2  0  0  0  0
  1  3  1  0  0  0  0
  3  6  1  0  0  0  0
  4 10  1  0  0  0  0
  5  2  2  0  0  0  0
  6  5  1  0  0  0  0
  7  9  2  0  0  0  0
  9  2  1  0  0  0  0
  9  8  1  0  0  0  0
 10  6  2  0  0  0  0
 10  7  1  0  0  0  0
 11 12  1  6  0  0  0
 11 13  1  0  0  0  0
 12 13  1  0  0  0  0
 13  1  1  1  0  0  0
 14 15  1  6  0  0  0
 14 11  1  0  0  0  0
 16 15  1  6  0  0  0
 16 14  1  0  0  0  0
 19 22  1  6  0  0  0
 19 18  1  0  0  0  0
 20 17  1  0  0  0  0
 20 19  1  0  0  0  0
 21 17  1  6  0  0  0
 21 18  1  0  0  0  0
 21 16  1  0  0  0  0
 22 23  1  0  0  0  0
 23 24  1  0  0  0  0
 26  3  1  1  0  0  0
 26 25  1  0  0  0  0
 27 28  1  6  0  0  0
 27 26  1  0  0  0  0
 27 25  1  0  0  0  0
 30 28  1  0  0  0  0
 31 30  2  0  0  0  0
 32 29  1  0  0  0  0
 32 30  1  0  0  0  0
 33 34  1  0  0  0  0
 33 32  1  0  0  0  0
 34 38  1  0  0  0  0
 37 36  2  0  0  0  0
 37 35  1  0  0  0  0
 38 37  1  0  0  0  0
M  END
>  <MODEL>
6

>  <REMARK>
 VINA RESULT:      -7.3      2.361      7.976
  Name = 
  11 active torsions:
  status: ('A' for Active; 'I' for Inactive)
    1  A    between atoms: C_1  and  C_36
    2  A    between atoms: N_2  and  C_3
    3  A    between atoms: N_6  and  C_23
    4  A    between atoms: C_8  and  C_17
    5  A    between atoms: C_8  and  C_29
    6  A    between atoms: C_12  and  C_27
    7  A    between atoms: C_12  and  N_34
    8  A    between atoms: N_16  and  C_38
    9  A    between atoms: C_22  and  C_38
   10  A    between atoms: C_27  and  N_37
   11  A    between atoms: C_30  and  C_35
                            x       y       z     vdW  Elec       q    Type
                         _______ _______ _______ _____ _____    ______ ____

>  <TORSDO>
F 11

$$$$
=
 OpenBabel11042410003D

 38 43  0  0  1  0  0  0  0  0999 V2000
  186.9990  177.3330  145.8870 C   0  0  0  0  0  0  0  0  0  0  0  0
  191.4330  176.8040  145.7220 C   0  0  0  0  0  3  0  0  0  0  0  0
  187.8620  177.1210  144.8570 N   0  0  0  0  0  0  0  0  0  0  0  0
  187.6100  177.3700  147.1030 N   0  0  0  0  0  0  0  0  0  0  0  0
  190.3210  176.8540  144.8640 C   0  0  0  0  0  3  0  0  0  0  0  0
  189.0660  177.0420  145.4480 C   0  0  0  0  0  0  0  0  0  0  0  0
  189.9870  177.1310  147.6740 C   0  0  0  0  0  3  0  0  0  0  0  0
  192.3800  176.8920  147.9500 O   0  0  0  0  0  1  0  0  0  0  0  0
  191.2690  176.9400  147.1210 C   0  0  0  0  0  0  0  0  0  0  0  0
  188.9070  177.1820  146.7950 C   0  0  0  0  0  0  0  0  0  0  0  0
  185.2530  178.9000  145.1930 N   0  0  1  0  0  0  0  0  0  0  0  0
  185.0540  178.5830  146.6130 C   0  0  0  0  0  2  0  0  0  0  0  0
  185.5260  177.5440  145.6990 C   0  0  2  0  0  3  0  0  0  0  0  0
  183.9480  178.8410  144.5660 C   0  0  1  0  0  3  0  0  0  0  0  0
  183.6610  180.0780  143.9700 O   0  0  0  0  0  0  0  0  0  0  0  0
  184.0840  179.0500  143.1030 C   0  0  2  0  0  3  0  0  0  0  0  0
  181.7640  179.3580  142.0850 C   0  0  0  0  0  2  0  0  0  0  0  0
  183.3450  177.7950  141.1900 O   0  0  0  0  0  0  0  0  0  0  0  0
  182.7830  178.5310  140.1310 C   0  0  2  0  0  3  0  0  0  0  0  0
  181.5210  179.1930  140.6210 C   0  0  0  0  0  2  0  0  0  0  0  0
  182.9010  178.3950  142.3870 C   0  0  1  0  0  3  0  0  0  0  0  0
  182.4460  177.6080  138.9790 C   0  0  0  0  0  2  0  0  0  0  0  0
  182.5560  176.2240  139.4120 N   0  0  0  0  0  2  0  0  0  0  0  0
  181.2220  175.6550  139.3310 C   0  0  0  0  0  1  0  0  0  0  0  0
  187.4430  178.5400  142.8940 C   0  0  0  0  0  2  0  0  0  0  0  0
  187.5510  177.1220  143.4270 C   0  0  1  0  0  3  0  0  0  0  0  0
  188.7050  177.7430  142.6650 C   0  0  1  0  0  3  0  0  0  0  0  0
  188.7230  177.1930  141.2520 C   0  0  0  0  0  2  0  0  0  0  0  0
  189.6030  176.7010  138.4620 C   0  0  0  0  0  1  0  0  0  0  0  0
  190.1080  176.7400  140.9270 C   0  0  0  0  0  0  0  0  0  0  0  0
  190.9070  176.4830  141.8690 O   0  0  0  0  0  0  0  0  0  0  0  0
  190.5560  176.6680  139.5620 N   0  0  0  0  0  0  0  0  0  0  0  0
  191.9770  176.7510  139.2470 C   0  0  0  0  0  2  0  0  0  0  0  0
  192.2230  176.3030  137.8160 C   0  0  0  0  0  2  0  0  0  0  0  0
  193.8400  173.9140  137.5390 O   0  0  0  0  0  1  0  0  0  0  0  0
  195.6640  175.2550  137.2210 O   0  0  0  0  0  0  0  0  0  0  0  0
  194.4300  175.1650  137.4290 C   0  0  0  0  0  0  0  0  0  0  0  0
  193.6440  176.3490  137.5270 N   0  0  0  0  0  2  0  0  0  0  0  0
  1  4  2  0  0  0  0
  2  9  1  0  0  0  0
  3  6  1  0  0  0  0
  3  1  1  0  0  0  0
  5  6  1  0  0  0  0
  5  2  2  0  0  0  0
  6 10  2  0  0  0  0
  9  7  2  0  0  0  0
  9  8  1  0  0  0  0
 10  4  1  0  0  0  0
 10  7  1  0  0  0  0
 11 13  1  0  0  0  0
 11 12  1  1  0  0  0
 13  1  1  1  0  0  0
 13 12  1  0  0  0  0
 14 15  1  1  0  0  0
 14 11  1  0  0  0  0
 16 15  1  1  0  0  0
 16 14  1  0  0  0  0
 18 21  1  0  0  0  0
 19 22  1  6  0  0  0
 19 20  1  0  0  0  0
 19 18  1  0  0  0  0
 20 17  1  0  0  0  0
 21 17  1  6  0  0  0
 21 16  1  0  0  0  0
 22 23  1  0  0  0  0
 24 23  1  0  0  0  0
 26 25  1  1  0  0  0
 26  3  1  0  0  0  0
 27 28  1  6  0  0  0
 27 25  1  0  0  0  0
 27 26  1  0  0  0  0
 29 32  1  0  0  0  0
 30 28  1  0  0  0  0
 30 31  2  0  0  0  0
 32 30  1  0  0  0  0
 33 32  1  0  0  0  0
 34 33  1  0  0  0  0
 36 37  2  0  0  0  0
 37 38  1  0  0  0  0
 37 35  1  0  0  0  0
 38 34  1  0  0  0  0
M  END
>  <MODEL>
7

>  <REMARK>
 VINA RESULT:      -7.2      3.081      7.578
  Name = 
  11 active torsions:
  status: ('A' for Active; 'I' for Inactive)
    1  A    between atoms: C_1  and  C_36
    2  A    between atoms: N_2  and  C_3
    3  A    between atoms: N_6  and  C_23
    4  A    between atoms: C_8  and  C_17
    5  A    between atoms: C_8  and  C_29
    6  A    between atoms: C_12  and  C_27
    7  A    between atoms: C_12  and  N_34
    8  A    between atoms: N_16  and  C_38
    9  A    between atoms: C_22  and  C_38
   10  A    between atoms: C_27  and  N_37
   11  A    between atoms: C_30  and  C_35
                            x       y       z     vdW  Elec       q    Type
                         _______ _______ _______ _____ _____    ______ ____

>  <TORSDO>
F 11

$$$$
=
 OpenBabel11042410003D

 38 43  0  0  1  0  0  0  0  0999 V2000
  188.9220  177.4010  136.8460 C   0  0  0  0  0  0  0  0  0  0  0  0
  192.5440  174.8060  137.1930 C   0  0  0  0  0  3  0  0  0  0  0  0
  189.8560  177.2510  137.8240 N   0  0  0  0  0  0  0  0  0  0  0  0
  189.1540  176.6190  135.7560 N   0  0  0  0  0  0  0  0  0  0  0  0
  191.8320  175.7680  137.9310 C   0  0  0  0  0  3  0  0  0  0  0  0
  190.6970  176.3240  137.3370 C   0  0  0  0  0  0  0  0  0  0  0  0
  190.9630  175.0120  135.3320 C   0  0  0  0  0  3  0  0  0  0  0  0
  192.8290  173.4770  135.1880 O   0  0  0  0  0  1  0  0  0  0  0  0
  192.1140  174.4300  135.8980 C   0  0  0  0  0  0  0  0  0  0  0  0
  190.2760  175.9560  136.0920 C   0  0  0  0  0  0  0  0  0  0  0  0
  186.5460  177.5530  137.4080 N   0  0  1  0  0  0  0  0  0  0  0  0
  186.7130  177.9230  135.9970 C   0  0  0  0  0  2  0  0  0  0  0  0
  187.7340  178.3070  136.9710 C   0  0  2  0  0  3  0  0  0  0  0  0
  185.6430  178.5260  137.9900 C   0  0  1  0  0  3  0  0  0  0  0  0
  184.3200  178.1760  137.6810 O   0  0  0  0  0  0  0  0  0  0  0  0
  184.7620  177.8620  138.9830 C   0  0  2  0  0  3  0  0  0  0  0  0
  182.8850  178.6240  140.5340 C   0  0  0  0  0  2  0  0  0  0  0  0
  185.1950  178.9560  141.0790 O   0  0  0  0  0  0  0  0  0  0  0  0
  184.5300  178.4450  142.2080 C   0  0  2  0  0  3  0  0  0  0  0  0
  183.0460  178.6290  142.0190 C   0  0  0  0  0  2  0  0  0  0  0  0
  184.2830  178.8950  140.0040 C   0  0  1  0  0  3  0  0  0  0  0  0
  184.9700  179.1880  143.4510 C   0  0  0  0  0  2  0  0  0  0  0  0
  183.8390  179.3530  144.3490 N   0  0  0  0  0  2  0  0  0  0  0  0
  184.1690  178.6420  145.5720 C   0  0  0  0  0  1  0  0  0  0  0  0
  188.7800  177.2480  140.0340 C   0  0  0  0  0  2  0  0  0  0  0  0
  189.8520  177.8640  139.1530 C   0  0  1  0  0  3  0  0  0  0  0  0
  190.2190  176.8180  140.1860 C   0  0  1  0  0  3  0  0  0  0  0  0
  190.8410  177.5030  141.3880 C   0  0  0  0  0  2  0  0  0  0  0  0
  190.3260  179.0450  143.8700 C   0  0  0  0  0  1  0  0  0  0  0  0
  190.3300  176.8540  142.6320 C   0  0  0  0  0  0  0  0  0  0  0  0
  190.1860  175.6010  142.6560 O   0  0  0  0  0  0  0  0  0  0  0  0
  189.9340  177.6470  143.7650 N   0  0  0  0  0  0  0  0  0  0  0  0
  188.9800  177.1230  144.7340 C   0  0  0  0  0  2  0  0  0  0  0  0
  189.2260  177.7420  146.0990 C   0  0  0  0  0  2  0  0  0  0  0  0
  192.0600  177.1350  146.1340 O   0  0  0  0  0  0  0  0  0  0  0  0
  191.6410  175.5470  147.7240 O   0  0  0  0  0  1  0  0  0  0  0  0
  191.1930  176.4420  146.9670 C   0  0  0  0  0  0  0  0  0  0  0  0
  189.8030  176.7520  146.9880 N   0  0  0  0  0  2  0  0  0  0  0  0
  1  3  1  0  0  0  0
  2  5  1  0  0  0  0
  4 10  1  0  0  0  0
  4  1  2  0  0  0  0
  6  3  1  0  0  0  0
  6  5  2  0  0  0  0
  7  9  1  0  0  0  0
  7 10  2  0  0  0  0
  8  9  1  0  0  0  0
  9  2  2  0  0  0  0
 10  6  1  0  0  0  0
 11 12  1  6  0  0  0
 11 14  1  0  0  0  0
 12 13  1  0  0  0  0
 13  1  1  6  0  0  0
 13 11  1  0  0  0  0
 14 15  1  6  0  0  0
 14 16  1  0  0  0  0
 16 15  1  6  0  0  0
 16 21  1  0  0  0  0
 17 20  1  0  0  0  0
 18 19  1  0  0  0  0
 19 22  1  1  0  0  0
 20 19  1  0  0  0  0
 21 17  1  1  0  0  0
 21 18  1  0  0  0  0
 22 23  1  0  0  0  0
 23 24  1  0  0  0  0
 25 27  1  0  0  0  0
 26  3  1  6  0  0  0
 26 25  1  0  0  0  0
 26 27  1  0  0  0  0
 27 28  1  1  0  0  0
 28 30  1  0  0  0  0
 30 31  2  0  0  0  0
 30 32  1  0  0  0  0
 32 29  1  0  0  0  0
 32 33  1  0  0  0  0
 33 34  1  0  0  0  0
 34 38  1  0  0  0  0
 35 37  2  0  0  0  0
 37 38  1  0  0  0  0
 37 36  1  0  0  0  0
M  END
>  <MODEL>
8

>  <REMARK>
 VINA RESULT:      -7.2      2.861      9.562
  Name = 
  11 active torsions:
  status: ('A' for Active; 'I' for Inactive)
    1  A    between atoms: C_1  and  C_36
    2  A    between atoms: N_2  and  C_3
    3  A    between atoms: N_6  and  C_23
    4  A    between atoms: C_8  and  C_17
    5  A    between atoms: C_8  and  C_29
    6  A    between atoms: C_12  and  C_27
    7  A    between atoms: C_12  and  N_34
    8  A    between atoms: N_16  and  C_38
    9  A    between atoms: C_22  and  C_38
   10  A    between atoms: C_27  and  N_37
   11  A    between atoms: C_30  and  C_35
                            x       y       z     vdW  Elec       q    Type
                         _______ _______ _______ _____ _____    ______ ____

>  <TORSDO>
F 11

$$$$
=
 OpenBabel11042410003D

 38 43  0  0  1  0  0  0  0  0999 V2000
  186.9460  177.6500  143.3830 C   0  0  0  0  0  0  0  0  0  0  0  0
  191.2720  176.9970  144.2920 C   0  0  0  0  0  3  0  0  0  0  0  0
  188.0220  177.3850  142.5940 N   0  0  0  0  0  0  0  0  0  0  0  0
  187.2510  177.7060  144.7090 N   0  0  0  0  0  0  0  0  0  0  0  0
  190.3980  177.0520  143.1930 C   0  0  0  0  0  3  0  0  0  0  0  0
  189.0480  177.2910  143.4560 C   0  0  0  0  0  0  0  0  0  0  0  0
  189.4150  177.4190  145.8350 C   0  0  0  0  0  3  0  0  0  0  0  0
  191.6640  177.1240  146.6800 O   0  0  0  0  0  1  0  0  0  0  0  0
  190.7840  177.1780  145.6090 C   0  0  0  0  0  0  0  0  0  0  0  0
  188.5770  177.4740  144.7240 C   0  0  0  0  0  0  0  0  0  0  0  0
  185.5440  179.1020  142.0000 N   0  0  1  0  0  0  0  0  0  0  0  0
  185.0430  179.1510  143.3800 C   0  0  0  0  0  2  0  0  0  0  0  0
  185.5680  177.8960  142.8450 C   0  0  2  0  0  3  0  0  0  0  0  0
  184.3850  178.9700  141.1410 C   0  0  1  0  0  3  0  0  0  0  0  0
  184.5210  179.8290  140.0390 O   0  0  0  0  0  0  0  0  0  0  0  0
  184.8030  178.4670  139.8090 C   0  0  2  0  0  3  0  0  0  0  0  0
  182.7370  178.6750  138.3260 C   0  0  0  0  0  2  0  0  0  0  0  0
  184.1020  176.7060  138.3290 O   0  0  0  0  0  0  0  0  0  0  0  0
  183.8320  177.0710  136.9980 C   0  0  2  0  0  3  0  0  0  0  0  0
  182.6630  178.0210  136.9860 C   0  0  0  0  0  2  0  0  0  0  0  0
  183.6240  177.7530  139.1450 C   0  0  1  0  0  3  0  0  0  0  0  0
  183.4840  175.8430  136.1840 C   0  0  0  0  0  2  0  0  0  0  0  0
  182.3040  175.2030  136.7420 N   0  0  0  0  0  2  0  0  0  0  0  0
  182.7000  173.8620  137.1320 C   0  0  0  0  0  1  0  0  0  0  0  0
  188.3980  178.7210  140.5650 C   0  0  0  0  0  2  0  0  0  0  0  0
  188.0600  177.3540  141.1310 C   0  0  1  0  0  3  0  0  0  0  0  0
  189.4680  177.6610  140.6620 C   0  0  1  0  0  3  0  0  0  0  0  0
  189.6910  177.0230  139.3040 C   0  0  0  0  0  2  0  0  0  0  0  0
  190.7170  175.2960  137.1200 C   0  0  0  0  0  1  0  0  0  0  0  0
  191.1470  176.7410  139.1350 C   0  0  0  0  0  0  0  0  0  0  0  0
  191.9610  177.1850  139.9910 O   0  0  0  0  0  0  0  0  0  0  0  0
  191.6310  176.0380  137.9770 N   0  0  0  0  0  0  0  0  0  0  0  0
  193.0080  176.2100  137.5320 C   0  0  0  0  0  2  0  0  0  0  0  0
  193.7990  174.9350  137.7730 C   0  0  0  0  0  2  0  0  0  0  0  0
  195.4270  172.9340  139.0930 O   0  0  0  0  0  0  0  0  0  0  0  0
  196.8820  174.5940  139.6880 O   0  0  0  0  0  1  0  0  0  0  0  0
  195.8240  174.2640  139.1000 C   0  0  0  0  0  0  0  0  0  0  0  0
  195.0540  175.2540  138.4250 N   0  0  0  0  0  2  0  0  0  0  0  0
  1  4  2  0  0  0  0
  2  9  1  0  0  0  0
  3  1  1  0  0  0  0
  3  6  1  0  0  0  0
  4 10  1  0  0  0  0
  5  6  1  0  0  0  0
  5  2  2  0  0  0  0
  6 10  2  0  0  0  0
  9  7  2  0  0  0  0
  9  8  1  0  0  0  0
 10  7  1  0  0  0  0
 11 13  1  0  0  0  0
 11 12  1  1  0  0  0
 13 12  1  0  0  0  0
 13  1  1  1  0  0  0
 14 15  1  6  0  0  0
 14 11  1  0  0  0  0
 16 15  1  6  0  0  0
 16 14  1  0  0  0  0
 18 21  1  0  0  0  0
 19 22  1  6  0  0  0
 19 18  1  0  0  0  0
 20 19  1  0  0  0  0
 20 17  1  0  0  0  0
 21 17  1  6  0  0  0
 21 16  1  0  0  0  0
 22 23  1  0  0  0  0
 23 24  1  0  0  0  0
 25 27  1  0  0  0  0
 26 25  1  6  0  0  0
 26  3  1  0  0  0  0
 27 28  1  6  0  0  0
 27 26  1  0  0  0  0
 29 32  1  0  0  0  0
 30 28  1  0  0  0  0
 30 31  2  0  0  0  0
 32 30  1  0  0  0  0
 33 34  1  0  0  0  0
 33 32  1  0  0  0  0
 34 38  1  0  0  0  0
 35 37  2  0  0  0  0
 37 36  1  0  0  0  0
 38 37  1  0  0  0  0
M  END
>  <MODEL>
9

>  <REMARK>
 VINA RESULT:      -7.1      3.448      8.148
  Name = 
  11 active torsions:
  status: ('A' for Active; 'I' for Inactive)
    1  A    between atoms: C_1  and  C_36
    2  A    between atoms: N_2  and  C_3
    3  A    between atoms: N_6  and  C_23
    4  A    between atoms: C_8  and  C_17
    5  A    between atoms: C_8  and  C_29
    6  A    between atoms: C_12  and  C_27
    7  A    between atoms: C_12  and  N_34
    8  A    between atoms: N_16  and  C_38
    9  A    between atoms: C_22  and  C_38
   10  A    between atoms: C_27  and  N_37
   11  A    between atoms: C_30  and  C_35
                            x       y       z     vdW  Elec       q    Type
                         _______ _______ _______ _____ _____    ______ ____

>  <TORSDO>
F 11

$$$$
