=
 OpenBabel11042412533D

 43 45  0  0  1  0  0  0  0  0999 V2000
  189.5210  177.4280  143.5960 C   0  0  2  0  0  3  0  0  0  0  0  0
  190.7790  178.0180  144.1370 C   0  0  0  0  0  0  0  0  0  0  0  0
  191.1880  179.1380  143.7330 O   0  0  0  0  0  0  0  0  0  0  0  0
  191.5200  177.3100  145.1240 N   0  0  0  0  0  1  0  0  0  0  0  0
  188.7660  176.7970  144.6710 N   0  0  0  0  0  2  0  0  0  0  0  0
  186.4920  177.6780  144.6720 C   0  0  0  0  0  3  0  0  0  0  0  0
  186.7660  178.5220  147.3210 C   0  0  0  0  0  3  0  0  0  0  0  0
  185.4250  178.3250  145.3040 C   0  0  0  0  0  0  0  0  0  0  0  0
  187.6920  177.4490  145.3520 C   0  0  0  0  0  0  0  0  0  0  0  0
  187.8250  177.8740  146.6820 C   0  0  0  0  0  3  0  0  0  0  0  0
  185.5700  178.7470  146.6340 C   0  0  0  0  0  3  0  0  0  0  0  0
  182.8140  179.2060  142.6190 N   0  0  0  0  0  2  0  0  0  0  0  0
  181.5540  178.8900  143.2280 C   0  0  0  0  0  0  0  0  0  0  0  0
  181.4920  178.5050  144.4260 O   0  0  0  0  0  0  0  0  0  0  0  0
  184.0960  179.0740  143.2390 C   0  0  0  0  0  0  0  0  0  0  0  0
  185.1200  179.4290  142.5970 O   0  0  0  0  0  0  0  0  0  0  0  0
  184.2140  178.5370  144.5660 N   0  0  0  0  0  2  0  0  0  0  0  0
  179.7480  180.4260  142.5380 C   0  0  0  0  0  1  0  0  0  0  0  0
  180.2890  179.0130  142.4390 C   0  0  1  0  0  3  0  0  0  0  0  0
  180.5130  178.6490  140.9780 C   0  0  0  0  0  2  0  0  0  0  0  0
  180.7790  176.5750  139.8350 O   0  0  0  0  0  0  0  0  0  0  0  0
  179.2060  176.5900  141.5010 O   0  0  0  0  0  1  0  0  0  0  0  0
  180.1720  177.2190  140.7270 C   0  0  0  0  0  0  0  0  0  0  0  0
  189.8420  176.4100  142.5060 C   0  0  0  0  0  2  0  0  0  0  0  0
  187.7000  178.0420  140.6270 C   0  0  0  0  0  2  0  0  0  0  0  0
  193.5700  176.7450  138.7250 C   0  0  0  0  0  3  0  0  0  0  0  0
  187.5740  178.5680  139.2030 C   0  0  0  0  0  2  0  0  0  0  0  0
  191.4560  175.6770  137.9050 C   0  0  0  0  0  3  0  0  0  0  0  0
  188.0060  176.4800  137.9030 C   0  0  0  0  0  0  0  0  0  0  0  0
  187.1640  177.5230  138.3210 O   0  0  0  0  0  0  0  0  0  0  0  0
  192.7750  175.8330  137.9000 C   0  0  0  0  0  3  0  0  0  0  0  0
  189.2490  176.4060  138.3040 C   0  0  0  0  0  0  0  0  0  0  0  0
  193.2060  177.3760  139.8370 C   0  0  0  0  0  3  0  0  0  0  0  0
  190.7430  176.8370  140.1350 C   0  0  0  0  0  0  0  0  0  0  0  0
  189.5710  176.9320  141.0880 C   0  0  2  0  0  3  0  0  0  0  0  0
  191.9230  177.3120  140.5450 C   0  0  0  0  0  3  0  0  0  0  0  0
  190.4770  176.3640  138.7530 C   0  0  0  0  0  0  0  0  0  0  0  0
  189.0100  178.2150  141.0840 O   0  0  0  0  0  0  0  0  0  0  0  0
  188.2720  175.3500  135.8480 O   0  0  0  0  0  1  0  0  0  0  0  0
  187.4790  175.4230  136.9950 C   0  0  2  0  0  3  0  0  0  0  0  0
  186.0450  175.7360  136.6110 C   0  0  0  0  0  2  0  0  0  0  0  0
  186.0150  176.3970  135.3840 O   0  0  0  0  0  0  0  0  0  0  0  0
  184.6890  176.7990  135.2350 C   0  0  0  0  0  1  0  0  0  0  0  0
  1 24  1  6  0  0  0
  1  2  1  0  0  0  0
  1  5  1  0  0  0  0
  2  4  1  0  0  0  0
  3  2  2  0  0  0  0
  5  9  1  0  0  0  0
  6  8  2  0  0  0  0
  6  9  1  0  0  0  0
  8 11  1  0  0  0  0
  9 10  2  0  0  0  0
 10  7  1  0  0  0  0
 11  7  2  0  0  0  0
 12 13  1  0  0  0  0
 12 15  1  0  0  0  0
 13 14  2  0  0  0  0
 15 17  1  0  0  0  0
 16 15  2  0  0  0  0
 17  8  1  0  0  0  0
 19 18  1  6  0  0  0
 19 13  1  0  0  0  0
 20 19  1  0  0  0  0
 21 23  2  0  0  0  0
 23 20  1  0  0  0  0
 23 22  1  0  0  0  0
 25 38  1  0  0  0  0
 26 33  2  0  0  0  0
 27 25  1  0  0  0  0
 28 37  1  0  0  0  0
 29 32  2  0  0  0  0
 29 30  1  0  0  0  0
 30 27  1  0  0  0  0
 31 28  2  0  0  0  0
 31 26  1  0  0  0  0
 32 37  2  0  0  0  0
 33 36  1  0  0  0  0
 34 36  2  0  0  0  0
 34 35  1  0  0  0  0
 35 24  1  1  0  0  0
 37 34  1  0  0  0  0
 38 35  1  0  0  0  0
 40 39  1  6  0  0  0
 40 29  1  0  0  0  0
 41 40  1  0  0  0  0
 42 41  1  0  0  0  0
 43 42  1  0  0  0  0
M  END
>  <MODEL>
1

>  <REMARK>
 VINA RESULT:      -8.2      0.000      0.000
  Name = 
  12 active torsions:
  status: ('A' for Active; 'I' for Inactive)
    1  A    between atoms: C_5  and  C_17
    2  A    between atoms: C_8  and  C_23
    3  A    between atoms: C_10  and  C_15
    4  A    between atoms: C_15  and  C_33
    5  A    between atoms: C_17  and  N_19
    6  A    between atoms: C_17  and  C_43
    7  A    between atoms: N_19  and  C_30
    8  A    between atoms: C_23  and  C_41
    9  A    between atoms: O_24  and  C_41
   10  A    between atoms: C_25  and  N_42
   11  A    between atoms: C_31  and  C_43
   12  A    between atoms: C_33  and  C_37
                            x       y       z     vdW  Elec       q    Type
                         _______ _______ _______ _____ _____    ______ ____

>  <TORSDO>
F 12

$$$$
=
 OpenBabel11042412533D

 43 45  0  0  1  0  0  0  0  0999 V2000
  189.3130  177.6290  143.3460 C   0  0  2  0  0  3  0  0  0  0  0  0
  190.5920  178.1540  143.9040 C   0  0  0  0  0  0  0  0  0  0  0  0
  190.8270  179.3910  143.9160 O   0  0  0  0  0  0  0  0  0  0  0  0
  191.5540  177.2480  144.4310 N   0  0  0  0  0  1  0  0  0  0  0  0
  188.4690  177.1300  144.4230 N   0  0  0  0  0  2  0  0  0  0  0  0
  186.2510  177.8850  143.7450 C   0  0  0  0  0  3  0  0  0  0  0  0
  185.6740  178.6970  146.3560 C   0  0  0  0  0  3  0  0  0  0  0  0
  185.0100  178.4620  144.0300 C   0  0  0  0  0  0  0  0  0  0  0  0
  187.2050  177.7110  144.7530 C   0  0  0  0  0  0  0  0  0  0  0  0
  186.9110  178.1190  146.0630 C   0  0  0  0  0  3  0  0  0  0  0  0
  184.7270  178.8690  145.3430 C   0  0  0  0  0  3  0  0  0  0  0  0
  181.8200  178.9260  141.9290 N   0  0  0  0  0  2  0  0  0  0  0  0
  182.2840  178.9410  140.5720 C   0  0  0  0  0  0  0  0  0  0  0  0
  183.4980  178.7390  140.3000 O   0  0  0  0  0  0  0  0  0  0  0  0
  182.6380  178.7490  143.0890 C   0  0  0  0  0  0  0  0  0  0  0  0
  182.0870  178.7160  144.2210 O   0  0  0  0  0  0  0  0  0  0  0  0
  184.0640  178.6210  142.9640 N   0  0  0  0  0  2  0  0  0  0  0  0
  180.4660  180.4100  139.7780 C   0  0  0  0  0  1  0  0  0  0  0  0
  181.3250  179.2040  139.4550 C   0  0  1  0  0  3  0  0  0  0  0  0
  182.0580  179.4310  138.1410 C   0  0  0  0  0  2  0  0  0  0  0  0
  181.5690  178.7130  135.9220 O   0  0  0  0  0  0  0  0  0  0  0  0
  181.4770  177.0830  137.5290 O   0  0  0  0  0  1  0  0  0  0  0  0
  181.6780  178.3990  137.1340 C   0  0  0  0  0  0  0  0  0  0  0  0
  189.5930  176.5210  142.3360 C   0  0  0  0  0  2  0  0  0  0  0  0
  187.5380  178.0200  140.2590 C   0  0  0  0  0  2  0  0  0  0  0  0
  193.5140  176.6970  138.7430 C   0  0  0  0  0  3  0  0  0  0  0  0
  187.4820  178.4660  138.8040 C   0  0  0  0  0  2  0  0  0  0  0  0
  191.4560  175.5580  137.8740 C   0  0  0  0  0  3  0  0  0  0  0  0
  188.0040  176.3150  137.6460 C   0  0  0  0  0  0  0  0  0  0  0  0
  187.1300  177.3690  137.9610 O   0  0  0  0  0  0  0  0  0  0  0  0
  192.7730  175.7310  137.9290 C   0  0  0  0  0  3  0  0  0  0  0  0
  189.2240  176.2800  138.1150 C   0  0  0  0  0  0  0  0  0  0  0  0
  193.0850  177.3830  139.7980 C   0  0  0  0  0  3  0  0  0  0  0  0
  190.6140  176.8290  139.9960 C   0  0  0  0  0  0  0  0  0  0  0  0
  189.3920  176.9610  140.8790 C   0  0  2  0  0  3  0  0  0  0  0  0
  191.7660  177.3410  140.4410 C   0  0  0  0  0  3  0  0  0  0  0  0
  190.4270  176.2780  138.6300 C   0  0  0  0  0  0  0  0  0  0  0  0
  188.8200  178.2350  140.7750 O   0  0  0  0  0  0  0  0  0  0  0  0
  187.3020  175.6860  135.4820 O   0  0  0  0  0  1  0  0  0  0  0  0
  187.5370  175.2040  136.7710 C   0  0  2  0  0  3  0  0  0  0  0  0
  186.2650  174.5990  137.3350 C   0  0  0  0  0  2  0  0  0  0  0  0
  185.1520  175.2260  136.7750 O   0  0  0  0  0  0  0  0  0  0  0  0
  184.0600  174.6240  137.3990 C   0  0  0  0  0  1  0  0  0  0  0  0
  1 24  1  6  0  0  0
  1  2  1  0  0  0  0
  1  5  1  0  0  0  0
  2  3  2  0  0  0  0
  2  4  1  0  0  0  0
  5  9  1  0  0  0  0
  6  8  2  0  0  0  0
  6  9  1  0  0  0  0
  8 11  1  0  0  0  0
  9 10  2  0  0  0  0
 10  7  1  0  0  0  0
 11  7  2  0  0  0  0
 12 15  1  0  0  0  0
 13 12  1  0  0  0  0
 14 13  2  0  0  0  0
 15 16  2  0  0  0  0
 17 15  1  0  0  0  0
 17  8  1  0  0  0  0
 19 18  1  1  0  0  0
 19 13  1  0  0  0  0
 20 19  1  0  0  0  0
 21 23  2  0  0  0  0
 23 22  1  0  0  0  0
 23 20  1  0  0  0  0
 25 38  1  0  0  0  0
 26 33  2  0  0  0  0
 27 25  1  0  0  0  0
 28 31  2  0  0  0  0
 28 37  1  0  0  0  0
 29 30  1  0  0  0  0
 29 32  2  0  0  0  0
 30 27  1  0  0  0  0
 31 26  1  0  0  0  0
 32 37  2  0  0  0  0
 33 36  1  0  0  0  0
 34 36  2  0  0  0  0
 34 35  1  0  0  0  0
 35 24  1  1  0  0  0
 37 34  1  0  0  0  0
 38 35  1  0  0  0  0
 40 39  1  6  0  0  0
 40 41  1  0  0  0  0
 40 29  1  0  0  0  0
 42 41  1  0  0  0  0
 42 43  1  0  0  0  0
M  END
>  <MODEL>
2

>  <REMARK>
 VINA RESULT:      -7.8      1.513      1.950
  Name = 
  12 active torsions:
  status: ('A' for Active; 'I' for Inactive)
    1  A    between atoms: C_5  and  C_17
    2  A    between atoms: C_8  and  C_23
    3  A    between atoms: C_10  and  C_15
    4  A    between atoms: C_15  and  C_33
    5  A    between atoms: C_17  and  N_19
    6  A    between atoms: C_17  and  C_43
    7  A    between atoms: N_19  and  C_30
    8  A    between atoms: C_23  and  C_41
    9  A    between atoms: O_24  and  C_41
   10  A    between atoms: C_25  and  N_42
   11  A    between atoms: C_31  and  C_43
   12  A    between atoms: C_33  and  C_37
                            x       y       z     vdW  Elec       q    Type
                         _______ _______ _______ _____ _____    ______ ____

>  <TORSDO>
F 12

$$$$
=
 OpenBabel11042412533D

 43 45  0  0  1  0  0  0  0  0999 V2000
  190.2720  177.4650  140.6260 C   0  0  2  0  0  3  0  0  0  0  0  0
  191.4680  176.9490  139.8990 C   0  0  0  0  0  0  0  0  0  0  0  0
  192.6180  177.3920  140.1590 O   0  0  0  0  0  0  0  0  0  0  0  0
  191.3080  175.9430  138.9070 N   0  0  0  0  0  1  0  0  0  0  0  0
  189.7090  178.6020  139.9100 N   0  0  0  0  0  2  0  0  0  0  0  0
  187.3650  178.2970  139.3100 C   0  0  0  0  0  3  0  0  0  0  0  0
  188.0030  178.3420  136.5900 C   0  0  0  0  0  3  0  0  0  0  0  0
  186.3500  178.1490  138.3600 C   0  0  0  0  0  0  0  0  0  0  0  0
  188.6950  178.4670  138.9120 C   0  0  0  0  0  0  0  0  0  0  0  0
  189.0110  178.4900  137.5450 C   0  0  0  0  0  3  0  0  0  0  0  0
  186.6770  178.1710  136.9960 C   0  0  0  0  0  3  0  0  0  0  0  0
  182.7580  178.6870  139.6300 N   0  0  0  0  0  2  0  0  0  0  0  0
  182.2150  177.3630  139.7380 C   0  0  0  0  0  0  0  0  0  0  0  0
  182.9280  176.3500  139.5150 O   0  0  0  0  0  0  0  0  0  0  0  0
  184.0890  179.0110  139.2190 C   0  0  0  0  0  0  0  0  0  0  0  0
  184.4440  180.2200  139.2090 O   0  0  0  0  0  0  0  0  0  0  0  0
  185.0010  177.9770  138.8160 N   0  0  0  0  0  2  0  0  0  0  0  0
  179.9610  178.3700  139.6830 C   0  0  0  0  0  1  0  0  0  0  0  0
  180.7810  177.1710  140.1180 C   0  0  1  0  0  3  0  0  0  0  0  0
  180.2100  175.9050  139.4940 C   0  0  0  0  0  2  0  0  0  0  0  0
  179.5030  173.8020  140.3630 O   0  0  0  0  0  0  0  0  0  0  0  0
  179.0600  175.6170  141.6890 O   0  0  0  0  0  1  0  0  0  0  0  0
  179.5640  175.0460  140.5280 C   0  0  0  0  0  0  0  0  0  0  0  0
  190.6510  177.8680  142.0470 C   0  0  0  0  0  2  0  0  0  0  0  0
  187.5580  177.0140  142.7450 C   0  0  0  0  0  2  0  0  0  0  0  0
  192.4510  175.2010  146.2850 C   0  0  0  0  0  3  0  0  0  0  0  0
  186.7660  176.3330  143.8520 C   0  0  0  0  0  2  0  0  0  0  0  0
  190.7150  176.9090  146.8830 C   0  0  0  0  0  3  0  0  0  0  0  0
  187.4380  177.7210  145.8170 C   0  0  0  0  0  0  0  0  0  0  0  0
  186.4790  177.2580  144.9010 O   0  0  0  0  0  0  0  0  0  0  0  0
  191.8010  176.1900  147.1480 C   0  0  0  0  0  3  0  0  0  0  0  0
  188.6800  177.3170  145.7650 C   0  0  0  0  0  0  0  0  0  0  0  0
  192.2950  175.0230  144.9770 C   0  0  0  0  0  3  0  0  0  0  0  0
  190.4560  176.6370  144.2970 C   0  0  0  0  0  0  0  0  0  0  0  0
  189.7370  177.2540  143.1170 C   0  0  2  0  0  3  0  0  0  0  0  0
  191.4510  175.7820  144.0460 C   0  0  0  0  0  3  0  0  0  0  0  0
  189.9150  176.9010  145.6540 C   0  0  0  0  0  0  0  0  0  0  0  0
  188.7910  176.3750  142.5770 O   0  0  0  0  0  0  0  0  0  0  0  0
  187.5920  178.3270  148.0930 O   0  0  0  0  0  1  0  0  0  0  0  0
  187.0440  178.7040  146.8660 C   0  0  2  0  0  3  0  0  0  0  0  0
  185.5320  178.7690  146.9750 C   0  0  0  0  0  2  0  0  0  0  0  0
  185.0210  179.6210  145.9960 O   0  0  0  0  0  0  0  0  0  0  0  0
  183.8880  178.9660  145.5180 C   0  0  0  0  0  1  0  0  0  0  0  0
  1 24  1  1  0  0  0
  2  3  2  0  0  0  0
  2  1  1  0  0  0  0
  4  2  1  0  0  0  0
  5  1  1  0  0  0  0
  7 11  2  0  0  0  0
  7 10  1  0  0  0  0
  8 17  1  0  0  0  0
  8  6  2  0  0  0  0
  9  6  1  0  0  0  0
  9  5  1  0  0  0  0
 10  9  2  0  0  0  0
 11  8  1  0  0  0  0
 12 13  1  0  0  0  0
 13 19  1  0  0  0  0
 14 13  2  0  0  0  0
 15 12  1  0  0  0  0
 16 15  2  0  0  0  0
 17 15  1  0  0  0  0
 19 18  1  6  0  0  0
 20 19  1  0  0  0  0
 20 23  1  0  0  0  0
 21 23  2  0  0  0  0
 23 22  1  0  0  0  0
 25 27  1  0  0  0  0
 26 31  1  0  0  0  0
 27 30  1  0  0  0  0
 28 31  2  0  0  0  0
 29 40  1  0  0  0  0
 30 29  1  0  0  0  0
 32 29  2  0  0  0  0
 33 26  2  0  0  0  0
 34 37  1  0  0  0  0
 35 24  1  6  0  0  0
 35 34  1  0  0  0  0
 36 34  2  0  0  0  0
 36 33  1  0  0  0  0
 37 32  2  0  0  0  0
 37 28  1  0  0  0  0
 38 25  1  0  0  0  0
 38 35  1  0  0  0  0
 40 41  1  0  0  0  0
 40 39  1  1  0  0  0
 42 41  1  0  0  0  0
 43 42  1  0  0  0  0
M  END
>  <MODEL>
3

>  <REMARK>
 VINA RESULT:      -7.8      2.829      6.598
  Name = 
  12 active torsions:
  status: ('A' for Active; 'I' for Inactive)
    1  A    between atoms: C_5  and  C_17
    2  A    between atoms: C_8  and  C_23
    3  A    between atoms: C_10  and  C_15
    4  A    between atoms: C_15  and  C_33
    5  A    between atoms: C_17  and  N_19
    6  A    between atoms: C_17  and  C_43
    7  A    between atoms: N_19  and  C_30
    8  A    between atoms: C_23  and  C_41
    9  A    between atoms: O_24  and  C_41
   10  A    between atoms: C_25  and  N_42
   11  A    between atoms: C_31  and  C_43
   12  A    between atoms: C_33  and  C_37
                            x       y       z     vdW  Elec       q    Type
                         _______ _______ _______ _____ _____    ______ ____

>  <TORSDO>
F 12

$$$$
=
 OpenBabel11042412533D

 43 45  0  0  1  0  0  0  0  0999 V2000
  183.4120  177.7110  139.8740 C   0  0  2  0  0  3  0  0  0  0  0  0
  182.2840  176.7560  139.6690 C   0  0  0  0  0  0  0  0  0  0  0  0
  182.4920  175.5150  139.6380 O   0  0  0  0  0  0  0  0  0  0  0  0
  180.9620  177.2550  139.5110 N   0  0  0  0  0  1  0  0  0  0  0  0
  183.0340  178.7240  140.8500 N   0  0  0  0  0  2  0  0  0  0  0  0
  184.7950  178.3450  142.4940 C   0  0  0  0  0  3  0  0  0  0  0  0
  183.0410  178.9420  144.5850 C   0  0  0  0  0  3  0  0  0  0  0  0
  185.2520  178.2920  143.8150 C   0  0  0  0  0  0  0  0  0  0  0  0
  183.4710  178.6940  142.2110 C   0  0  0  0  0  0  0  0  0  0  0  0
  182.5940  178.9930  143.2640 C   0  0  0  0  0  3  0  0  0  0  0  0
  184.3660  178.5920  144.8600 C   0  0  0  0  0  3  0  0  0  0  0  0
  188.9880  177.4400  143.4710 N   0  0  0  0  0  2  0  0  0  0  0  0
  189.4150  177.1550  144.8110 C   0  0  0  0  0  0  0  0  0  0  0  0
  188.5920  177.1420  145.7640 O   0  0  0  0  0  0  0  0  0  0  0  0
  187.6580  177.7860  143.0750 C   0  0  0  0  0  0  0  0  0  0  0  0
  187.4170  177.9710  141.8530 O   0  0  0  0  0  0  0  0  0  0  0  0
  186.6180  177.9300  144.0560 N   0  0  0  0  0  2  0  0  0  0  0  0
  191.7370  177.8490  144.3410 C   0  0  0  0  0  1  0  0  0  0  0  0
  190.8560  176.8710  145.0930 C   0  0  1  0  0  3  0  0  0  0  0  0
  191.1530  176.9550  146.5840 C   0  0  0  0  0  2  0  0  0  0  0  0
  192.4310  174.9800  146.2020 O   0  0  0  0  0  0  0  0  0  0  0  0
  192.7850  176.0110  148.2180 O   0  0  0  0  0  1  0  0  0  0  0  0
  192.1470  175.9190  146.9880 C   0  0  0  0  0  0  0  0  0  0  0  0
  183.7960  178.3670  138.5520 C   0  0  0  0  0  2  0  0  0  0  0  0
  182.7210  176.3610  136.1840 C   0  0  0  0  0  2  0  0  0  0  0  0
  188.8150  177.8260  136.8700 C   0  0  0  0  0  3  0  0  0  0  0  0
  183.2750  175.4340  135.1110 C   0  0  0  0  0  2  0  0  0  0  0  0
  187.7300  175.6280  137.3980 C   0  0  0  0  0  3  0  0  0  0  0  0
  184.7410  173.9580  136.4950 C   0  0  0  0  0  0  0  0  0  0  0  0
  183.6190  174.1680  135.6760 O   0  0  0  0  0  0  0  0  0  0  0  0
  188.7860  176.4320  137.3190 C   0  0  0  0  0  3  0  0  0  0  0  0
  185.5610  174.9330  136.7890 C   0  0  0  0  0  0  0  0  0  0  0  0
  187.7960  178.6690  136.7380 C   0  0  0  0  0  3  0  0  0  0  0  0
  185.7210  177.2900  137.2280 C   0  0  0  0  0  0  0  0  0  0  0  0
  184.2290  177.3590  137.4770 C   0  0  2  0  0  3  0  0  0  0  0  0
  186.3750  178.4370  137.0250 C   0  0  0  0  0  3  0  0  0  0  0  0
  186.3360  175.9470  137.0740 C   0  0  0  0  0  0  0  0  0  0  0  0
  183.5170  177.5070  136.2810 O   0  0  0  0  0  0  0  0  0  0  0  0
  186.0400  171.9940  136.3430 O   0  0  0  0  0  1  0  0  0  0  0  0
  185.0050  172.6020  137.0540 C   0  0  2  0  0  3  0  0  0  0  0  0
  183.7510  171.7530  136.9680 C   0  0  0  0  0  2  0  0  0  0  0  0
  183.7070  171.0940  135.7400 O   0  0  0  0  0  0  0  0  0  0  0  0
  182.4240  170.5530  135.6770 C   0  0  0  0  0  1  0  0  0  0  0  0
  1 24  1  6  0  0  0
  1  5  1  0  0  0  0
  2  1  1  0  0  0  0
  3  2  2  0  0  0  0
  4  2  1  0  0  0  0
  5  9  1  0  0  0  0
  6  8  1  0  0  0  0
  7 11  1  0  0  0  0
  8 17  1  0  0  0  0
  8 11  2  0  0  0  0
  9  6  2  0  0  0  0
  9 10  1  0  0  0  0
 10  7  2  0  0  0  0
 12 13  1  0  0  0  0
 13 19  1  0  0  0  0
 13 14  2  0  0  0  0
 15 12  1  0  0  0  0
 15 17  1  0  0  0  0
 16 15  2  0  0  0  0
 19 18  1  6  0  0  0
 19 20  1  0  0  0  0
 20 23  1  0  0  0  0
 21 23  2  0  0  0  0
 23 22  1  0  0  0  0
 25 38  1  0  0  0  0
 26 31  1  0  0  0  0
 27 30  1  0  0  0  0
 27 25  1  0  0  0  0
 29 32  2  0  0  0  0
 29 40  1  0  0  0  0
 30 29  1  0  0  0  0
 31 28  2  0  0  0  0
 32 37  2  0  0  0  0
 33 26  2  0  0  0  0
 33 36  1  0  0  0  0
 34 35  1  0  0  0  0
 35 24  1  1  0  0  0
 36 34  2  0  0  0  0
 37 34  1  0  0  0  0
 37 28  1  0  0  0  0
 38 35  1  0  0  0  0
 40 39  1  6  0  0  0
 41 40  1  0  0  0  0
 42 41  1  0  0  0  0
 43 42  1  0  0  0  0
M  END
>  <MODEL>
4

>  <REMARK>
 VINA RESULT:      -7.6      2.904      7.469
  Name = 
  12 active torsions:
  status: ('A' for Active; 'I' for Inactive)
    1  A    between atoms: C_5  and  C_17
    2  A    between atoms: C_8  and  C_23
    3  A    between atoms: C_10  and  C_15
    4  A    between atoms: C_15  and  C_33
    5  A    between atoms: C_17  and  N_19
    6  A    between atoms: C_17  and  C_43
    7  A    between atoms: N_19  and  C_30
    8  A    between atoms: C_23  and  C_41
    9  A    between atoms: O_24  and  C_41
   10  A    between atoms: C_25  and  N_42
   11  A    between atoms: C_31  and  C_43
   12  A    between atoms: C_33  and  C_37
                            x       y       z     vdW  Elec       q    Type
                         _______ _______ _______ _____ _____    ______ ____

>  <TORSDO>
F 12

$$$$
=
 OpenBabel11042412533D

 43 45  0  0  1  0  0  0  0  0999 V2000
  185.7040  177.9520  138.2770 C   0  0  2  0  0  3  0  0  0  0  0  0
  184.6140  178.5060  139.1310 C   0  0  0  0  0  0  0  0  0  0  0  0
  183.4560  178.0120  139.0950 O   0  0  0  0  0  0  0  0  0  0  0  0
  184.8870  179.6010  139.9980 N   0  0  0  0  0  1  0  0  0  0  0  0
  186.9460  178.6700  138.5300 N   0  0  0  0  0  2  0  0  0  0  0  0
  188.1620  178.0660  140.5570 C   0  0  0  0  0  3  0  0  0  0  0  0
  190.2120  176.9190  139.0450 C   0  0  0  0  0  3  0  0  0  0  0  0
  189.2620  177.4970  141.2050 C   0  0  0  0  0  0  0  0  0  0  0  0
  188.0790  178.0660  139.1610 C   0  0  0  0  0  0  0  0  0  0  0  0
  189.1100  177.4890  138.4060 C   0  0  0  0  0  3  0  0  0  0  0  0
  190.2890  176.9230  140.4400 C   0  0  0  0  0  3  0  0  0  0  0  0
  188.7040  176.8210  144.9520 N   0  0  0  0  0  2  0  0  0  0  0  0
  189.5650  177.7570  145.6160 C   0  0  0  0  0  0  0  0  0  0  0  0
  190.2240  178.6080  144.9620 O   0  0  0  0  0  0  0  0  0  0  0  0
  188.5370  176.7010  143.5360 C   0  0  0  0  0  0  0  0  0  0  0  0
  187.7120  175.8590  143.0920 O   0  0  0  0  0  0  0  0  0  0  0  0
  189.3030  177.5200  142.6390 N   0  0  0  0  0  2  0  0  0  0  0  0
  188.3530  178.0180  147.7510 C   0  0  0  0  0  1  0  0  0  0  0  0
  189.6940  177.7290  147.1060 C   0  0  1  0  0  3  0  0  0  0  0  0
  190.2170  176.3830  147.5890 C   0  0  0  0  0  2  0  0  0  0  0  0
  192.4410  176.9000  148.2730 O   0  0  0  0  0  1  0  0  0  0  0  0
  192.2630  175.5530  146.4280 O   0  0  0  0  0  0  0  0  0  0  0  0
  191.7000  176.3070  147.4490 C   0  0  0  0  0  0  0  0  0  0  0  0
  185.3240  178.0530  136.8040 C   0  0  0  0  0  2  0  0  0  0  0  0
  182.6940  177.0570  135.1090 C   0  0  0  0  0  2  0  0  0  0  0  0
  187.4010  173.1560  136.6550 C   0  0  0  0  0  3  0  0  0  0  0  0
  182.0680  175.7680  134.5940 C   0  0  0  0  0  2  0  0  0  0  0  0
  185.0990  173.2010  137.6480 C   0  0  0  0  0  3  0  0  0  0  0  0
  181.9210  174.4510  136.7110 C   0  0  0  0  0  0  0  0  0  0  0  0
  181.3270  175.1250  135.6310 O   0  0  0  0  0  0  0  0  0  0  0  0
  186.3280  172.7050  137.5440 C   0  0  0  0  0  3  0  0  0  0  0  0
  183.2210  174.3670  136.8290 C   0  0  0  0  0  0  0  0  0  0  0  0
  187.4940  174.3080  135.9980 C   0  0  0  0  0  3  0  0  0  0  0  0
  185.2990  175.5070  136.4370 C   0  0  0  0  0  0  0  0  0  0  0  0
  184.5660  176.8230  136.2860 C   0  0  2  0  0  3  0  0  0  0  0  0
  186.5610  175.4420  136.0050 C   0  0  0  0  0  3  0  0  0  0  0  0
  184.5260  174.3330  136.9150 C   0  0  0  0  0  0  0  0  0  0  0  0
  184.0850  176.9940  134.9830 O   0  0  0  0  0  0  0  0  0  0  0  0
  180.2690  172.8320  137.1810 O   0  0  0  0  0  1  0  0  0  0  0  0
  181.0620  173.8270  137.7560 C   0  0  2  0  0  3  0  0  0  0  0  0
  180.1800  174.8810  138.4010 C   0  0  0  0  0  2  0  0  0  0  0  0
  179.5850  174.3640  139.5500 O   0  0  0  0  0  0  0  0  0  0  0  0
  179.1310  175.4840  140.2440 C   0  0  0  0  0  1  0  0  0  0  0  0
  1 24  1  6  0  0  0
  1  5  1  0  0  0  0
  1  2  1  0  0  0  0
  2  4  1  0  0  0  0
  3  2  2  0  0  0  0
  5  9  1  0  0  0  0
  6  8  1  0  0  0  0
  7 11  1  0  0  0  0
  8 17  1  0  0  0  0
  9  6  2  0  0  0  0
 10  7  2  0  0  0  0
 10  9  1  0  0  0  0
 11  8  2  0  0  0  0
 12 13  1  0  0  0  0
 13 19  1  0  0  0  0
 14 13  2  0  0  0  0
 15 12  1  0  0  0  0
 16 15  2  0  0  0  0
 17 15  1  0  0  0  0
 19 20  1  0  0  0  0
 19 18  1  1  0  0  0
 22 23  2  0  0  0  0
 23 20  1  0  0  0  0
 23 21  1  0  0  0  0
 26 31  1  0  0  0  0
 27 25  1  0  0  0  0
 27 30  1  0  0  0  0
 29 32  2  0  0  0  0
 29 40  1  0  0  0  0
 30 29  1  0  0  0  0
 31 28  2  0  0  0  0
 32 37  2  0  0  0  0
 33 36  1  0  0  0  0
 33 26  2  0  0  0  0
 34 37  1  0  0  0  0
 35 34  1  0  0  0  0
 35 24  1  6  0  0  0
 36 34  2  0  0  0  0
 37 28  1  0  0  0  0
 38 25  1  0  0  0  0
 38 35  1  0  0  0  0
 40 39  1  6  0  0  0
 40 41  1  0  0  0  0
 41 42  1  0  0  0  0
 42 43  1  0  0  0  0
M  END
>  <MODEL>
5

>  <REMARK>
 VINA RESULT:      -7.5      2.904      8.172
  Name = 
  12 active torsions:
  status: ('A' for Active; 'I' for Inactive)
    1  A    between atoms: C_5  and  C_17
    2  A    between atoms: C_8  and  C_23
    3  A    between atoms: C_10  and  C_15
    4  A    between atoms: C_15  and  C_33
    5  A    between atoms: C_17  and  N_19
    6  A    between atoms: C_17  and  C_43
    7  A    between atoms: N_19  and  C_30
    8  A    between atoms: C_23  and  C_41
    9  A    between atoms: O_24  and  C_41
   10  A    between atoms: C_25  and  N_42
   11  A    between atoms: C_31  and  C_43
   12  A    between atoms: C_33  and  C_37
                            x       y       z     vdW  Elec       q    Type
                         _______ _______ _______ _____ _____    ______ ____

>  <TORSDO>
F 12

$$$$
=
 OpenBabel11042412533D

 43 45  0  0  1  0  0  0  0  0999 V2000
  183.1750  178.2950  138.8920 C   0  0  2  0  0  3  0  0  0  0  0  0
  183.4800  179.7410  139.0950 C   0  0  0  0  0  0  0  0  0  0  0  0
  184.6540  180.1200  139.3510 O   0  0  0  0  0  0  0  0  0  0  0  0
  182.4360  180.7010  138.9910 N   0  0  0  0  0  1  0  0  0  0  0  0
  183.5380  177.5400  140.0840 N   0  0  0  0  0  2  0  0  0  0  0  0
  184.4280  177.9650  142.3150 C   0  0  0  0  0  3  0  0  0  0  0  0
  182.0020  179.0900  143.1230 C   0  0  0  0  0  3  0  0  0  0  0  0
  184.2890  178.4400  143.6230 C   0  0  0  0  0  0  0  0  0  0  0  0
  183.3660  178.0480  141.4090 C   0  0  0  0  0  0  0  0  0  0  0  0
  182.1500  178.6140  141.8190 C   0  0  0  0  0  3  0  0  0  0  0  0
  183.0680  179.0030  144.0230 C   0  0  0  0  0  3  0  0  0  0  0  0
  186.5750  178.2730  146.7140 N   0  0  0  0  0  2  0  0  0  0  0  0
  187.8910  178.0790  146.1760 C   0  0  0  0  0  0  0  0  0  0  0  0
  188.0890  178.0800  144.9320 O   0  0  0  0  0  0  0  0  0  0  0  0
  185.3750  178.4230  145.9490 C   0  0  0  0  0  0  0  0  0  0  0  0
  184.2900  178.6280  146.5560 O   0  0  0  0  0  0  0  0  0  0  0  0
  185.4060  178.3330  144.5160 N   0  0  0  0  0  2  0  0  0  0  0  0
  188.5850  177.8880  148.5370 C   0  0  0  0  0  1  0  0  0  0  0  0
  189.0520  177.8680  147.0940 C   0  0  1  0  0  3  0  0  0  0  0  0
  189.7560  176.5510  146.8000 C   0  0  0  0  0  2  0  0  0  0  0  0
  191.6830  177.3010  145.6150 O   0  0  0  0  0  0  0  0  0  0  0  0
  192.0870  176.3730  147.6700 O   0  0  0  0  0  1  0  0  0  0  0  0
  191.2260  176.7550  146.6500 C   0  0  0  0  0  0  0  0  0  0  0  0
  183.9280  177.7620  137.6780 C   0  0  0  0  0  2  0  0  0  0  0  0
  181.2050  177.1220  135.9560 C   0  0  0  0  0  2  0  0  0  0  0  0
  186.0840  173.1330  136.1810 C   0  0  0  0  0  3  0  0  0  0  0  0
  180.5700  175.9790  135.1760 C   0  0  0  0  0  2  0  0  0  0  0  0
  183.8570  172.8470  137.2960 C   0  0  0  0  0  3  0  0  0  0  0  0
  180.5980  174.1750  136.9020 C   0  0  0  0  0  0  0  0  0  0  0  0
  179.9160  175.0720  136.0640 O   0  0  0  0  0  0  0  0  0  0  0  0
  185.0840  172.4370  136.9950 C   0  0  0  0  0  3  0  0  0  0  0  0
  181.9030  174.1110  136.9140 C   0  0  0  0  0  0  0  0  0  0  0  0
  186.1080  174.4150  135.8280 C   0  0  0  0  0  3  0  0  0  0  0  0
  183.9270  175.3870  136.6890 C   0  0  0  0  0  0  0  0  0  0  0  0
  183.1590  176.6720  136.9180 C   0  0  2  0  0  3  0  0  0  0  0  0
  185.1570  175.4770  136.1760 C   0  0  0  0  0  3  0  0  0  0  0  0
  183.2110  174.1040  136.9060 C   0  0  0  0  0  0  0  0  0  0  0  0
  182.5860  177.1430  135.7310 O   0  0  0  0  0  0  0  0  0  0  0  0
  180.0540  173.6460  139.1370 O   0  0  0  0  0  1  0  0  0  0  0  0
  179.8250  173.2800  137.8100 C   0  0  2  0  0  3  0  0  0  0  0  0
  180.2410  171.8370  137.5940 C   0  0  0  0  0  2  0  0  0  0  0  0
  179.2900  171.1810  136.8140 O   0  0  0  0  0  0  0  0  0  0  0  0
  179.9910  170.7610  135.6850 C   0  0  0  0  0  1  0  0  0  0  0  0
  1 24  1  6  0  0  0
  1  2  1  0  0  0  0
  1  5  1  0  0  0  0
  2  3  2  0  0  0  0
  4  2  1  0  0  0  0
  5  9  1  0  0  0  0
  6  8  1  0  0  0  0
  7 11  1  0  0  0  0
  8 11  2  0  0  0  0
  8 17  1  0  0  0  0
  9 10  1  0  0  0  0
  9  6  2  0  0  0  0
 10  7  2  0  0  0  0
 13 12  1  0  0  0  0
 13 19  1  0  0  0  0
 14 13  2  0  0  0  0
 15 16  2  0  0  0  0
 15 12  1  0  0  0  0
 17 15  1  0  0  0  0
 19 18  1  1  0  0  0
 20 19  1  0  0  0  0
 21 23  2  0  0  0  0
 23 20  1  0  0  0  0
 23 22  1  0  0  0  0
 26 31  1  0  0  0  0
 27 25  1  0  0  0  0
 27 30  1  0  0  0  0
 29 32  2  0  0  0  0
 29 40  1  0  0  0  0
 30 29  1  0  0  0  0
 31 28  2  0  0  0  0
 33 36  1  0  0  0  0
 33 26  2  0  0  0  0
 34 37  1  0  0  0  0
 34 35  1  0  0  0  0
 35 24  1  6  0  0  0
 36 34  2  0  0  0  0
 37 32  2  0  0  0  0
 37 28  1  0  0  0  0
 38 25  1  0  0  0  0
 38 35  1  0  0  0  0
 40 39  1  1  0  0  0
 41 40  1  0  0  0  0
 42 41  1  0  0  0  0
 43 42  1  0  0  0  0
M  END
>  <MODEL>
6

>  <REMARK>
 VINA RESULT:      -7.4      3.935      8.181
  Name = 
  12 active torsions:
  status: ('A' for Active; 'I' for Inactive)
    1  A    between atoms: C_5  and  C_17
    2  A    between atoms: C_8  and  C_23
    3  A    between atoms: C_10  and  C_15
    4  A    between atoms: C_15  and  C_33
    5  A    between atoms: C_17  and  N_19
    6  A    between atoms: C_17  and  C_43
    7  A    between atoms: N_19  and  C_30
    8  A    between atoms: C_23  and  C_41
    9  A    between atoms: O_24  and  C_41
   10  A    between atoms: C_25  and  N_42
   11  A    between atoms: C_31  and  C_43
   12  A    between atoms: C_33  and  C_37
                            x       y       z     vdW  Elec       q    Type
                         _______ _______ _______ _____ _____    ______ ____

>  <TORSDO>
F 12

$$$$
=
 OpenBabel11042412533D

 43 45  0  0  1  0  0  0  0  0999 V2000
  183.5260  177.7940  138.4130 C   0  0  2  0  0  3  0  0  0  0  0  0
  182.2880  177.7810  137.5800 C   0  0  0  0  0  0  0  0  0  0  0  0
  182.2810  178.2980  136.4330 O   0  0  0  0  0  0  0  0  0  0  0  0
  181.1070  177.1720  138.0880 N   0  0  0  0  0  1  0  0  0  0  0  0
  184.5850  177.0530  137.7400 N   0  0  0  0  0  2  0  0  0  0  0  0
  186.7950  177.5140  138.6630 C   0  0  0  0  0  3  0  0  0  0  0  0
  187.6290  178.6290  136.2400 C   0  0  0  0  0  3  0  0  0  0  0  0
  188.0940  178.0170  138.5450 C   0  0  0  0  0  0  0  0  0  0  0  0
  185.9110  177.5640  137.5800 C   0  0  0  0  0  0  0  0  0  0  0  0
  186.3330  178.1240  136.3660 C   0  0  0  0  0  3  0  0  0  0  0  0
  188.5060  178.5770  137.3260 C   0  0  0  0  0  3  0  0  0  0  0  0
  191.0870  177.5040  140.9080 N   0  0  0  0  0  2  0  0  0  0  0  0
  190.5920  177.8810  142.2010 C   0  0  0  0  0  0  0  0  0  0  0  0
  189.3840  178.1990  142.3640 O   0  0  0  0  0  0  0  0  0  0  0  0
  190.3310  177.4980  139.6940 C   0  0  0  0  0  0  0  0  0  0  0  0
  190.8860  177.1020  138.6350 O   0  0  0  0  0  0  0  0  0  0  0  0
  188.9660  177.9450  139.6820 N   0  0  0  0  0  2  0  0  0  0  0  0
  191.5320  179.2880  143.9980 C   0  0  0  0  0  1  0  0  0  0  0  0
  191.5130  177.9050  143.3780 C   0  0  1  0  0  3  0  0  0  0  0  0
  191.0980  176.8790  144.4240 C   0  0  0  0  0  2  0  0  0  0  0  0
  190.5300  175.0240  143.0390 O   0  0  0  0  0  0  0  0  0  0  0  0
  192.3570  174.7250  144.3890 O   0  0  0  0  0  1  0  0  0  0  0  0
  191.2990  175.4910  143.9170 C   0  0  0  0  0  0  0  0  0  0  0  0
  183.2460  177.1900  139.7850 C   0  0  0  0  0  2  0  0  0  0  0  0
  185.6360  178.9130  141.2360 C   0  0  0  0  0  2  0  0  0  0  0  0
  179.5420  179.7330  142.6360 C   0  0  0  0  0  3  0  0  0  0  0  0
  185.8210  179.9010  142.3800 C   0  0  0  0  0  2  0  0  0  0  0  0
  181.2780  178.6290  144.0700 C   0  0  0  0  0  3  0  0  0  0  0  0
  184.8140  178.6100  144.2660 C   0  0  0  0  0  0  0  0  0  0  0  0
  185.9110  179.2090  143.6250 O   0  0  0  0  0  0  0  0  0  0  0  0
  180.0410  179.0550  143.8350 C   0  0  0  0  0  3  0  0  0  0  0  0
  183.6140  178.6580  143.7490 C   0  0  0  0  0  0  0  0  0  0  0  0
  180.1070  179.7990  141.4350 C   0  0  0  0  0  3  0  0  0  0  0  0
  182.3670  178.6700  141.6950 C   0  0  0  0  0  0  0  0  0  0  0  0
  183.5700  178.1410  140.9450 C   0  0  2  0  0  3  0  0  0  0  0  0
  181.3660  179.1950  140.9830 C   0  0  0  0  0  3  0  0  0  0  0  0
  182.4380  178.7140  143.1780 C   0  0  0  0  0  0  0  0  0  0  0  0
  184.4350  179.1760  140.5690 O   0  0  0  0  0  0  0  0  0  0  0  0
  184.4180  178.6130  146.5930 O   0  0  0  0  0  1  0  0  0  0  0  0
  185.0130  177.8920  145.5570 C   0  0  2  0  0  3  0  0  0  0  0  0
  186.4950  177.7210  145.8320 C   0  0  0  0  0  2  0  0  0  0  0  0
  186.8010  178.2050  147.1030 O   0  0  0  0  0  0  0  0  0  0  0  0
  187.9690  177.5350  147.4620 C   0  0  0  0  0  1  0  0  0  0  0  0
  1 24  1  1  0  0  0
  2  4  1  0  0  0  0
  2  1  1  0  0  0  0
  3  2  2  0  0  0  0
  5  1  1  0  0  0  0
  7 10  2  0  0  0  0
  7 11  1  0  0  0  0
  8  6  1  0  0  0  0
  8 17  1  0  0  0  0
  9  5  1  0  0  0  0
  9  6  2  0  0  0  0
 10  9  1  0  0  0  0
 11  8  2  0  0  0  0
 12 13  1  0  0  0  0
 13 14  2  0  0  0  0
 13 19  1  0  0  0  0
 15 12  1  0  0  0  0
 16 15  2  0  0  0  0
 17 15  1  0  0  0  0
 19 18  1  1  0  0  0
 19 20  1  0  0  0  0
 21 23  2  0  0  0  0
 23 22  1  0  0  0  0
 23 20  1  0  0  0  0
 25 27  1  0  0  0  0
 26 31  1  0  0  0  0
 27 30  1  0  0  0  0
 29 40  1  0  0  0  0
 30 29  1  0  0  0  0
 31 28  2  0  0  0  0
 32 29  2  0  0  0  0
 33 26  2  0  0  0  0
 34 37  1  0  0  0  0
 35 24  1  6  0  0  0
 35 34  1  0  0  0  0
 36 33  1  0  0  0  0
 36 34  2  0  0  0  0
 37 32  2  0  0  0  0
 37 28  1  0  0  0  0
 38 35  1  0  0  0  0
 38 25  1  0  0  0  0
 40 41  1  0  0  0  0
 40 39  1  1  0  0  0
 41 42  1  0  0  0  0
 42 43  1  0  0  0  0
M  END
>  <MODEL>
7

>  <REMARK>
 VINA RESULT:      -7.4      2.820      9.842
  Name = 
  12 active torsions:
  status: ('A' for Active; 'I' for Inactive)
    1  A    between atoms: C_5  and  C_17
    2  A    between atoms: C_8  and  C_23
    3  A    between atoms: C_10  and  C_15
    4  A    between atoms: C_15  and  C_33
    5  A    between atoms: C_17  and  N_19
    6  A    between atoms: C_17  and  C_43
    7  A    between atoms: N_19  and  C_30
    8  A    between atoms: C_23  and  C_41
    9  A    between atoms: O_24  and  C_41
   10  A    between atoms: C_25  and  N_42
   11  A    between atoms: C_31  and  C_43
   12  A    between atoms: C_33  and  C_37
                            x       y       z     vdW  Elec       q    Type
                         _______ _______ _______ _____ _____    ______ ____

>  <TORSDO>
F 12

$$$$
=
 OpenBabel11042412533D

 43 45  0  0  1  0  0  0  0  0999 V2000
  185.0160  178.0250  138.5140 C   0  0  2  0  0  3  0  0  0  0  0  0
  184.6130  178.7900  139.7300 C   0  0  0  0  0  0  0  0  0  0  0  0
  184.6000  180.0490  139.7220 O   0  0  0  0  0  0  0  0  0  0  0  0
  184.2360  178.0870  140.9080 N   0  0  0  0  0  1  0  0  0  0  0  0
  186.2470  178.5780  137.9660 N   0  0  0  0  0  2  0  0  0  0  0  0
  187.8480  177.9270  139.6860 C   0  0  0  0  0  3  0  0  0  0  0  0
  189.7820  177.3690  137.7480 C   0  0  0  0  0  3  0  0  0  0  0  0
  189.1120  177.4750  140.0810 C   0  0  0  0  0  0  0  0  0  0  0  0
  187.5440  178.1010  138.3330 C   0  0  0  0  0  0  0  0  0  0  0  0
  188.5180  177.8200  137.3630 C   0  0  0  0  0  3  0  0  0  0  0  0
  190.0780  177.1980  139.1030 C   0  0  0  0  0  3  0  0  0  0  0  0
  190.7420  177.3320  143.5630 N   0  0  0  0  0  2  0  0  0  0  0  0
  189.6870  176.9000  144.4350 C   0  0  0  0  0  0  0  0  0  0  0  0
  188.5550  176.5880  143.9770 O   0  0  0  0  0  0  0  0  0  0  0  0
  190.6340  177.5120  142.1490 C   0  0  0  0  0  0  0  0  0  0  0  0
  191.6570  177.8570  141.5010 O   0  0  0  0  0  0  0  0  0  0  0  0
  189.3780  177.3110  141.4810 N   0  0  0  0  0  2  0  0  0  0  0  0
  191.4060  176.7250  146.1980 C   0  0  0  0  0  1  0  0  0  0  0  0
  189.9200  176.8180  145.9100 C   0  0  1  0  0  3  0  0  0  0  0  0
  189.3320  178.0240  146.6290 C   0  0  0  0  0  2  0  0  0  0  0  0
  187.0060  177.5050  146.6260 O   0  0  0  0  0  0  0  0  0  0  0  0
  188.0200  177.4810  148.6810 O   0  0  0  0  0  1  0  0  0  0  0  0
  188.0510  177.6670  147.3050 C   0  0  0  0  0  0  0  0  0  0  0  0
  183.9050  178.0700  137.4710 C   0  0  0  0  0  2  0  0  0  0  0  0
  181.7990  180.4690  138.2430 C   0  0  0  0  0  2  0  0  0  0  0  0
  180.1340  174.3870  138.1990 C   0  0  0  0  0  3  0  0  0  0  0  0
  180.3880  180.6400  138.7880 C   0  0  0  0  0  2  0  0  0  0  0  0
  180.4710  175.8370  140.2160 C   0  0  0  0  0  3  0  0  0  0  0  0
  180.5470  179.3120  140.8970 C   0  0  0  0  0  0  0  0  0  0  0  0
  180.3860  180.5270  140.2120 O   0  0  0  0  0  0  0  0  0  0  0  0
  180.1610  174.6840  139.6330 C   0  0  0  0  0  3  0  0  0  0  0  0
  180.7050  178.1840  140.2560 C   0  0  0  0  0  0  0  0  0  0  0  0
  180.6880  175.0760  137.2070 C   0  0  0  0  0  3  0  0  0  0  0  0
  181.6430  177.1630  138.2930 C   0  0  0  0  0  0  0  0  0  0  0  0
  182.5230  178.3740  138.0670 C   0  0  2  0  0  3  0  0  0  0  0  0
  181.4900  176.3030  137.2820 C   0  0  0  0  0  3  0  0  0  0  0  0
  180.8840  177.0860  139.5670 C   0  0  0  0  0  0  0  0  0  0  0  0
  181.8430  179.3780  137.3680 O   0  0  0  0  0  0  0  0  0  0  0  0
  180.0480  180.5080  142.8700 O   0  0  0  0  0  1  0  0  0  0  0  0
  180.5510  179.2990  142.3870 C   0  0  2  0  0  3  0  0  0  0  0  0
  181.9630  179.0860  142.9010 C   0  0  0  0  0  2  0  0  0  0  0  0
  181.9300  178.7280  144.2480 O   0  0  0  0  0  0  0  0  0  0  0  0
  183.2700  178.6280  144.6170 C   0  0  0  0  0  1  0  0  0  0  0  0
  1 24  1  6  0  0  0
  1  2  1  0  0  0  0
  2  4  1  0  0  0  0
  3  2  2  0  0  0  0
  5  9  1  0  0  0  0
  5  1  1  0  0  0  0
  6  8  1  0  0  0  0
  7 11  1  0  0  0  0
  8 17  1  0  0  0  0
  9  6  2  0  0  0  0
 10  7  2  0  0  0  0
 10  9  1  0  0  0  0
 11  8  2  0  0  0  0
 12 13  1  0  0  0  0
 13 19  1  0  0  0  0
 14 13  2  0  0  0  0
 15 12  1  0  0  0  0
 16 15  2  0  0  0  0
 17 15  1  0  0  0  0
 19 18  1  6  0  0  0
 19 20  1  0  0  0  0
 20 23  1  0  0  0  0
 21 23  2  0  0  0  0
 23 22  1  0  0  0  0
 25 27  1  0  0  0  0
 26 31  1  0  0  0  0
 27 30  1  0  0  0  0
 29 40  1  0  0  0  0
 30 29  1  0  0  0  0
 31 28  2  0  0  0  0
 32 29  2  0  0  0  0
 33 36  1  0  0  0  0
 33 26  2  0  0  0  0
 34 37  1  0  0  0  0
 35 24  1  6  0  0  0
 35 34  1  0  0  0  0
 36 34  2  0  0  0  0
 37 28  1  0  0  0  0
 37 32  2  0  0  0  0
 38 35  1  0  0  0  0
 38 25  1  0  0  0  0
 40 39  1  1  0  0  0
 40 41  1  0  0  0  0
 41 42  1  0  0  0  0
 42 43  1  0  0  0  0
M  END
>  <MODEL>
8

>  <REMARK>
 VINA RESULT:      -7.4      2.790      9.215
  Name = 
  12 active torsions:
  status: ('A' for Active; 'I' for Inactive)
    1  A    between atoms: C_5  and  C_17
    2  A    between atoms: C_8  and  C_23
    3  A    between atoms: C_10  and  C_15
    4  A    between atoms: C_15  and  C_33
    5  A    between atoms: C_17  and  N_19
    6  A    between atoms: C_17  and  C_43
    7  A    between atoms: N_19  and  C_30
    8  A    between atoms: C_23  and  C_41
    9  A    between atoms: O_24  and  C_41
   10  A    between atoms: C_25  and  N_42
   11  A    between atoms: C_31  and  C_43
   12  A    between atoms: C_33  and  C_37
                            x       y       z     vdW  Elec       q    Type
                         _______ _______ _______ _____ _____    ______ ____

>  <TORSDO>
F 12

$$$$
=
 OpenBabel11042412533D

 43 45  0  0  1  0  0  0  0  0999 V2000
  190.7280  177.2780  143.4140 C   0  0  2  0  0  3  0  0  0  0  0  0
  191.5380  176.4090  144.3160 C   0  0  0  0  0  0  0  0  0  0  0  0
  191.9010  175.2610  143.9470 O   0  0  0  0  0  0  0  0  0  0  0  0
  191.9090  176.8870  145.6040 N   0  0  0  0  0  1  0  0  0  0  0  0
  190.0090  178.2730  144.1980 N   0  0  0  0  0  2  0  0  0  0  0  0
  187.5810  178.1860  143.9840 C   0  0  0  0  0  3  0  0  0  0  0  0
  187.3210  177.4310  146.6610 C   0  0  0  0  0  3  0  0  0  0  0  0
  186.3080  177.9690  144.5200 C   0  0  0  0  0  0  0  0  0  0  0  0
  188.7240  178.0290  144.7750 C   0  0  0  0  0  0  0  0  0  0  0  0
  188.5890  177.6490  146.1180 C   0  0  0  0  0  3  0  0  0  0  0  0
  186.1840  177.5910  145.8650 C   0  0  0  0  0  3  0  0  0  0  0  0
  182.8980  178.9470  143.0290 N   0  0  0  0  0  2  0  0  0  0  0  0
  182.9020  178.3680  141.7160 C   0  0  0  0  0  0  0  0  0  0  0  0
  183.8590  177.6460  141.3290 O   0  0  0  0  0  0  0  0  0  0  0  0
  183.9490  178.8360  143.9930 C   0  0  0  0  0  0  0  0  0  0  0  0
  183.7920  179.3640  145.1260 O   0  0  0  0  0  0  0  0  0  0  0  0
  185.1650  178.1420  143.6700 N   0  0  0  0  0  2  0  0  0  0  0  0
  180.5080  178.9540  141.5690 C   0  0  0  0  0  1  0  0  0  0  0  0
  181.7610  178.6210  140.7830 C   0  0  1  0  0  3  0  0  0  0  0  0
  182.0790  179.7550  139.8180 C   0  0  0  0  0  2  0  0  0  0  0  0
  184.3260  180.0900  139.0990 O   0  0  0  0  0  1  0  0  0  0  0  0
  183.2160  178.3570  138.0930 O   0  0  0  0  0  0  0  0  0  0  0  0
  183.2680  179.4230  138.9800 C   0  0  0  0  0  0  0  0  0  0  0  0
  189.7490  176.4320  142.6070 C   0  0  0  0  0  2  0  0  0  0  0  0
  187.6660  178.0960  140.6890 C   0  0  0  0  0  2  0  0  0  0  0  0
  193.5630  176.7490  138.9110 C   0  0  0  0  0  3  0  0  0  0  0  0
  187.5760  178.6300  139.2660 C   0  0  0  0  0  2  0  0  0  0  0  0
  191.4560  175.7060  138.0390 C   0  0  0  0  0  3  0  0  0  0  0  0
  188.0170  176.5440  137.9650 C   0  0  0  0  0  0  0  0  0  0  0  0
  187.1760  177.5940  138.3690 O   0  0  0  0  0  0  0  0  0  0  0  0
  192.7770  175.8490  138.0630 C   0  0  0  0  0  3  0  0  0  0  0  0
  189.2490  176.4560  138.3930 C   0  0  0  0  0  0  0  0  0  0  0  0
  193.1810  177.3780  140.0170 C   0  0  0  0  0  3  0  0  0  0  0  0
  190.7060  176.8620  140.2590 C   0  0  0  0  0  0  0  0  0  0  0  0
  189.5150  176.9640  141.1860 C   0  0  2  0  0  3  0  0  0  0  0  0
  191.8820  177.3230  140.6970 C   0  0  0  0  0  3  0  0  0  0  0  0
  190.4660  176.3990  138.8690 C   0  0  0  0  0  0  0  0  0  0  0  0
  188.9670  178.2530  141.1760 O   0  0  0  0  0  0  0  0  0  0  0  0
  188.2790  175.4650  135.8820 O   0  0  0  0  0  1  0  0  0  0  0  0
  187.4990  175.4970  137.0390 C   0  0  2  0  0  3  0  0  0  0  0  0
  186.0550  175.7910  136.6790 C   0  0  0  0  0  2  0  0  0  0  0  0
  185.3370  174.5990  136.5840 O   0  0  0  0  0  0  0  0  0  0  0  0
  185.4590  174.2220  135.2480 C   0  0  0  0  0  1  0  0  0  0  0  0
  1 24  1  1  0  0  0
  1  5  1  0  0  0  0
  1  2  1  0  0  0  0
  2  4  1  0  0  0  0
  3  2  2  0  0  0  0
  5  9  1  0  0  0  0
  6  8  2  0  0  0  0
  6  9  1  0  0  0  0
  8 11  1  0  0  0  0
  9 10  2  0  0  0  0
 10  7  1  0  0  0  0
 11  7  2  0  0  0  0
 12 15  1  0  0  0  0
 13 12  1  0  0  0  0
 14 13  2  0  0  0  0
 15 16  2  0  0  0  0
 17 15  1  0  0  0  0
 17  8  1  0  0  0  0
 19 18  1  1  0  0  0
 19 13  1  0  0  0  0
 20 19  1  0  0  0  0
 22 23  2  0  0  0  0
 23 21  1  0  0  0  0
 23 20  1  0  0  0  0
 25 38  1  0  0  0  0
 26 33  2  0  0  0  0
 27 25  1  0  0  0  0
 28 31  2  0  0  0  0
 28 37  1  0  0  0  0
 29 30  1  0  0  0  0
 29 32  2  0  0  0  0
 30 27  1  0  0  0  0
 31 26  1  0  0  0  0
 32 37  2  0  0  0  0
 33 36  1  0  0  0  0
 34 36  2  0  0  0  0
 34 35  1  0  0  0  0
 35 24  1  1  0  0  0
 37 34  1  0  0  0  0
 38 35  1  0  0  0  0
 40 39  1  6  0  0  0
 40 29  1  0  0  0  0
 41 40  1  0  0  0  0
 42 41  1  0  0  0  0
 43 42  1  0  0  0  0
M  END
>  <MODEL>
9

>  <REMARK>
 VINA RESULT:      -7.3      1.566      1.968
  Name = 
  12 active torsions:
  status: ('A' for Active; 'I' for Inactive)
    1  A    between atoms: C_5  and  C_17
    2  A    between atoms: C_8  and  C_23
    3  A    between atoms: C_10  and  C_15
    4  A    between atoms: C_15  and  C_33
    5  A    between atoms: C_17  and  N_19
    6  A    between atoms: C_17  and  C_43
    7  A    between atoms: N_19  and  C_30
    8  A    between atoms: C_23  and  C_41
    9  A    between atoms: O_24  and  C_41
   10  A    between atoms: C_25  and  N_42
   11  A    between atoms: C_31  and  C_43
   12  A    between atoms: C_33  and  C_37
                            x       y       z     vdW  Elec       q    Type
                         _______ _______ _______ _____ _____    ______ ____

>  <TORSDO>
F 12

$$$$
