=
 OpenBabel11032420373D

 27 28  0  0  1  0  0  0  0  0999 V2000
  185.7930  179.5540  141.0230 O   0  0  0  0  0  0  0  0  0  0  0  0
  185.8530  178.7420  142.1300 N   0  0  0  0  0  2  0  0  0  0  0  0
  181.7430  178.5960  139.9500 N   0  0  0  0  0  1  0  0  0  0  0  0
  183.7190  178.6070  141.3180 C   0  0  0  0  0  0  0  0  0  0  0  0
  184.4990  178.3630  142.5190 C   0  0  2  0  0  3  0  0  0  0  0  0
  182.4310  178.3040  141.1640 C   0  0  0  0  0  3  0  0  0  0  0  0
  184.5970  179.2520  140.3370 C   0  0  2  0  0  3  0  0  0  0  0  0
  184.0170  179.2500  143.6580 C   0  0  0  0  0  2  0  0  0  0  0  0
  184.1940  178.5370  144.9880 C   0  0  0  0  0  2  0  0  0  0  0  0
  185.3620  179.1320  145.7520 C   0  0  0  0  0  2  0  0  0  0  0  0
  186.0540  178.0890  146.4960 N   0  0  0  0  0  2  0  0  0  0  0  0
  189.1920  177.0700  144.7990 C   0  0  0  0  0  3  0  0  0  0  0  0
  187.8670  177.4470  145.0240 C   0  0  0  0  0  3  0  0  0  0  0  0
  188.3410  177.5760  147.3940 C   0  0  0  0  0  0  0  0  0  0  0  0
  187.9680  177.8210  148.7460 N   0  0  0  0  0  1  0  0  0  0  0  0
  189.6580  177.1950  147.1200 C   0  0  0  0  0  3  0  0  0  0  0  0
  187.4250  177.7050  146.3250 C   0  0  0  0  0  0  0  0  0  0  0  0
  190.0530  176.9520  145.8430 N   0  0  0  0  0  0  0  0  0  0  0  0
  184.8900  178.3090  139.1760 C   0  0  0  0  0  2  0  0  0  0  0  0
  185.6320  178.9760  138.1980 O   0  0  0  0  0  0  0  0  0  0  0  0
  186.4410  177.9890  137.6270 C   0  0  1  0  0  3  0  0  0  0  0  0
  188.7940  178.4400  138.4400 C   0  0  0  0  0  0  0  0  0  0  0  0
  189.7230  178.1670  139.2430 O   0  0  0  0  0  0  0  0  0  0  0  0
  187.5680  177.7100  138.5060 N   0  0  0  0  0  2  0  0  0  0  0  0
  188.9790  179.4670  137.4710 N   0  0  0  0  0  1  0  0  0  0  0  0
  186.5970  175.9000  136.9150 C   0  0  0  0  0  1  0  0  0  0  0  0
  185.6950  176.8220  137.4470 O   0  0  0  0  0  0  0  0  0  0  0  0
  1  2  1  0  0  0  0
  2  5  1  0  0  0  0
  3  6  1  0  0  0  0
  4  5  1  0  0  0  0
  5  8  1  1  0  0  0
  6  4  2  0  0  0  0
  7 19  1  6  0  0  0
  7  1  1  0  0  0  0
  7  4  1  0  0  0  0
  8  9  1  0  0  0  0
  9 10  1  0  0  0  0
 10 11  1  0  0  0  0
 12 13  2  0  0  0  0
 12 18  1  0  0  0  0
 13 17  1  0  0  0  0
 14 15  1  0  0  0  0
 16 14  1  0  0  0  0
 17 11  1  0  0  0  0
 17 14  2  0  0  0  0
 18 16  2  0  0  0  0
 20 19  1  0  0  0  0
 21 27  1  1  0  0  0
 21 20  1  0  0  0  0
 21 24  1  0  0  0  0
 22 24  1  0  0  0  0
 22 23  2  0  0  0  0
 25 22  1  0  0  0  0
 26 27  1  0  0  0  0
M  END
>  <MODEL>
1

>  <REMARK>
 VINA RESULT:      -7.1      0.000      0.000
  Name = 
  10 active torsions:
  status: ('A' for Active; 'I' for Inactive)
    1  A    between atoms: O_2  and  C_5
    2  A    between atoms: O_2  and  C_27
    3  A    between atoms: C_5  and  O_11
    4  A    between atoms: C_5  and  N_14
    5  A    between atoms: C_9  and  N_13
    6  A    between atoms: C_9  and  C_25
    7  A    between atoms: N_13  and  C_23
    8  A    between atoms: C_17  and  C_18
    9  A    between atoms: C_18  and  C_25
   10  A    between atoms: C_22  and  C_27
                            x       y       z     vdW  Elec       q    Type
                         _______ _______ _______ _____ _____    ______ ____

>  <TORSDO>
F 10

$$$$
=
 OpenBabel11032420373D

 27 28  0  0  1  0  0  0  0  0999 V2000
  186.7210  177.1290  143.2580 O   0  0  0  0  0  0  0  0  0  0  0  0
  186.3630  178.2200  142.5030 N   0  0  0  0  0  2  0  0  0  0  0  0
  185.0160  178.5230  146.9480 N   0  0  0  0  0  1  0  0  0  0  0  0
  185.4830  178.5340  144.5900 C   0  0  0  0  0  0  0  0  0  0  0  0
  185.3410  178.9790  143.2150 C   0  0  2  0  0  3  0  0  0  0  0  0
  184.8210  179.0360  145.6330 C   0  0  0  0  0  3  0  0  0  0  0  0
  186.4590  177.4410  144.6090 C   0  0  2  0  0  3  0  0  0  0  0  0
  183.9610  178.6250  142.6790 C   0  0  0  0  0  2  0  0  0  0  0  0
  184.0720  178.0800  141.2660 C   0  0  0  0  0  2  0  0  0  0  0  0
  183.8270  179.1850  140.2550 C   0  0  0  0  0  2  0  0  0  0  0  0
  184.9900  179.3400  139.3930 N   0  0  0  0  0  2  0  0  0  0  0  0
  185.0260  176.7650  136.7210 C   0  0  0  0  0  3  0  0  0  0  0  0
  184.5850  177.7330  137.6260 C   0  0  0  0  0  3  0  0  0  0  0  0
  186.8600  177.9790  138.4160 C   0  0  0  0  0  0  0  0  0  0  0  0
  187.8490  178.5640  139.2570 N   0  0  0  0  0  1  0  0  0  0  0  0
  187.2530  177.0050  137.4950 C   0  0  0  0  0  3  0  0  0  0  0  0
  185.4980  178.3530  138.4850 C   0  0  0  0  0  0  0  0  0  0  0  0
  186.3390  176.4230  136.6750 N   0  0  0  0  0  0  0  0  0  0  0  0
  187.7450  177.8790  145.2980 C   0  0  0  0  0  2  0  0  0  0  0  0
  188.7600  176.9530  145.0450 O   0  0  0  0  0  0  0  0  0  0  0  0
  189.9370  177.7070  145.0230 C   0  0  1  0  0  3  0  0  0  0  0  0
  191.4820  176.5100  146.6310 C   0  0  0  0  0  0  0  0  0  0  0  0
  192.4610  175.7400  146.8060 O   0  0  0  0  0  0  0  0  0  0  0  0
  191.0770  176.8440  145.3020 N   0  0  0  0  0  2  0  0  0  0  0  0
  190.7940  177.0460  147.7570 N   0  0  0  0  0  1  0  0  0  0  0  0
  191.1820  179.1480  143.9000 C   0  0  0  0  0  1  0  0  0  0  0  0
  190.0940  178.2870  143.7630 O   0  0  0  0  0  0  0  0  0  0  0  0
  1  7  1  0  0  0  0
  2  5  1  0  0  0  0
  2  1  1  0  0  0  0
  4  7  1  0  0  0  0
  4  6  2  0  0  0  0
  5  8  1  6  0  0  0
  5  4  1  0  0  0  0
  6  3  1  0  0  0  0
  7 19  1  6  0  0  0
  9  8  1  0  0  0  0
 10  9  1  0  0  0  0
 11 10  1  0  0  0  0
 12 13  1  0  0  0  0
 13 17  2  0  0  0  0
 14 17  1  0  0  0  0
 14 15  1  0  0  0  0
 16 14  2  0  0  0  0
 17 11  1  0  0  0  0
 18 12  2  0  0  0  0
 18 16  1  0  0  0  0
 20 19  1  0  0  0  0
 21 27  1  6  0  0  0
 21 20  1  0  0  0  0
 21 24  1  0  0  0  0
 22 23  2  0  0  0  0
 22 25  1  0  0  0  0
 24 22  1  0  0  0  0
 27 26  1  0  0  0  0
M  END
>  <MODEL>
2

>  <REMARK>
 VINA RESULT:      -7.0      2.651      7.359
  Name = 
  10 active torsions:
  status: ('A' for Active; 'I' for Inactive)
    1  A    between atoms: O_2  and  C_5
    2  A    between atoms: O_2  and  C_27
    3  A    between atoms: C_5  and  O_11
    4  A    between atoms: C_5  and  N_14
    5  A    between atoms: C_9  and  N_13
    6  A    between atoms: C_9  and  C_25
    7  A    between atoms: N_13  and  C_23
    8  A    between atoms: C_17  and  C_18
    9  A    between atoms: C_18  and  C_25
   10  A    between atoms: C_22  and  C_27
                            x       y       z     vdW  Elec       q    Type
                         _______ _______ _______ _____ _____    ______ ____

>  <TORSDO>
F 10

$$$$
=
 OpenBabel11032420373D

 27 28  0  0  1  0  0  0  0  0999 V2000
  186.7010  177.2260  143.1770 O   0  0  0  0  0  0  0  0  0  0  0  0
  186.3490  178.3140  142.4150 N   0  0  0  0  0  2  0  0  0  0  0  0
  184.6610  178.4680  146.7500 N   0  0  0  0  0  1  0  0  0  0  0  0
  185.3020  178.5460  144.4350 C   0  0  0  0  0  0  0  0  0  0  0  0
  185.2430  179.0120  143.0600 C   0  0  2  0  0  3  0  0  0  0  0  0
  184.5420  178.9970  145.4320 C   0  0  0  0  0  3  0  0  0  0  0  0
  186.3250  177.4990  144.5090 C   0  0  2  0  0  3  0  0  0  0  0  0
  183.9250  178.6060  142.4150 C   0  0  0  0  0  2  0  0  0  0  0  0
  184.1720  178.0550  141.0220 C   0  0  0  0  0  2  0  0  0  0  0  0
  183.9090  179.1250  139.9790 C   0  0  0  0  0  2  0  0  0  0  0  0
  185.0720  179.2740  139.1150 N   0  0  0  0  0  2  0  0  0  0  0  0
  185.3330  176.5250  136.6360 C   0  0  0  0  0  3  0  0  0  0  0  0
  184.8150  177.5410  137.4410 C   0  0  0  0  0  3  0  0  0  0  0  0
  187.0280  177.8960  138.3550 C   0  0  0  0  0  0  0  0  0  0  0  0
  187.9490  178.5610  139.2150 N   0  0  0  0  0  1  0  0  0  0  0  0
  187.5000  176.8710  137.5310 C   0  0  0  0  0  3  0  0  0  0  0  0
  185.6580  178.2400  138.3110 C   0  0  0  0  0  0  0  0  0  0  0  0
  186.6530  176.2130  136.6970 N   0  0  0  0  0  0  0  0  0  0  0  0
  187.5340  177.9810  145.3010 C   0  0  0  0  0  2  0  0  0  0  0  0
  187.6730  177.2230  146.4660 O   0  0  0  0  0  0  0  0  0  0  0  0
  189.0300  177.3130  146.7920 C   0  0  1  0  0  3  0  0  0  0  0  0
  191.1720  177.3450  145.4460 C   0  0  0  0  0  0  0  0  0  0  0  0
  191.7710  177.6750  144.3910 O   0  0  0  0  0  0  0  0  0  0  0  0
  189.7940  177.6850  145.6100 N   0  0  0  0  0  2  0  0  0  0  0  0
  191.8750  176.6440  146.4670 N   0  0  0  0  0  1  0  0  0  0  0  0
  188.2800  177.9530  148.7720 C   0  0  0  0  0  1  0  0  0  0  0  0
  189.2060  178.2820  147.7820 O   0  0  0  0  0  0  0  0  0  0  0  0
  1  7  1  0  0  0  0
  2  5  1  0  0  0  0
  2  1  1  0  0  0  0
  4  7  1  0  0  0  0
  4  6  2  0  0  0  0
  5  8  1  6  0  0  0
  5  4  1  0  0  0  0
  6  3  1  0  0  0  0
  7 19  1  1  0  0  0
  9  8  1  0  0  0  0
 10  9  1  0  0  0  0
 11 10  1  0  0  0  0
 12 18  2  0  0  0  0
 12 13  1  0  0  0  0
 13 17  2  0  0  0  0
 14 15  1  0  0  0  0
 16 14  2  0  0  0  0
 17 14  1  0  0  0  0
 17 11  1  0  0  0  0
 18 16  1  0  0  0  0
 19 20  1  0  0  0  0
 20 21  1  0  0  0  0
 21 24  1  6  0  0  0
 21 27  1  0  0  0  0
 22 24  1  0  0  0  0
 22 25  1  0  0  0  0
 23 22  2  0  0  0  0
 27 26  1  0  0  0  0
M  END
>  <MODEL>
3

>  <REMARK>
 VINA RESULT:      -6.9      2.635      7.552
  Name = 
  10 active torsions:
  status: ('A' for Active; 'I' for Inactive)
    1  A    between atoms: O_2  and  C_5
    2  A    between atoms: O_2  and  C_27
    3  A    between atoms: C_5  and  O_11
    4  A    between atoms: C_5  and  N_14
    5  A    between atoms: C_9  and  N_13
    6  A    between atoms: C_9  and  C_25
    7  A    between atoms: N_13  and  C_23
    8  A    between atoms: C_17  and  C_18
    9  A    between atoms: C_18  and  C_25
   10  A    between atoms: C_22  and  C_27
                            x       y       z     vdW  Elec       q    Type
                         _______ _______ _______ _____ _____    ______ ____

>  <TORSDO>
F 10

$$$$
=
 OpenBabel11032420373D

 27 28  0  0  1  0  0  0  0  0999 V2000
  191.4440  177.1710  140.6000 O   0  0  0  0  0  0  0  0  0  0  0  0
  190.9250  176.6800  141.7740 N   0  0  0  0  0  2  0  0  0  0  0  0
  187.7240  178.6200  139.0070 N   0  0  0  0  0  1  0  0  0  0  0  0
  189.2060  177.6940  140.6570 C   0  0  0  0  0  0  0  0  0  0  0  0
  189.5960  177.2430  141.9820 C   0  0  2  0  0  3  0  0  0  0  0  0
  188.0110  178.1870  140.3340 C   0  0  0  0  0  3  0  0  0  0  0  0
  190.3590  177.5210  139.7680 C   0  0  2  0  0  3  0  0  0  0  0  0
  189.6730  178.4190  142.9450 C   0  0  0  0  0  2  0  0  0  0  0  0
  189.4180  177.9500  144.3660 C   0  0  0  0  0  2  0  0  0  0  0  0
  188.1370  177.1390  144.4310 C   0  0  0  0  0  2  0  0  0  0  0  0
  187.1110  177.8840  145.1460 N   0  0  0  0  0  2  0  0  0  0  0  0
  184.3690  178.4400  142.7080 C   0  0  0  0  0  3  0  0  0  0  0  0
  185.6120  178.1200  143.2570 C   0  0  0  0  0  3  0  0  0  0  0  0
  184.7430  178.6590  145.4510 C   0  0  0  0  0  0  0  0  0  0  0  0
  184.8700  178.7920  146.8630 N   0  0  0  0  0  1  0  0  0  0  0  0
  183.5170  178.9680  144.8560 C   0  0  0  0  0  3  0  0  0  0  0  0
  185.8140  178.2250  144.6370 C   0  0  0  0  0  0  0  0  0  0  0  0
  183.3560  178.8550  143.5120 N   0  0  0  0  0  0  0  0  0  0  0  0
  190.0990  176.4090  138.7600 C   0  0  0  0  0  2  0  0  0  0  0  0
  190.9900  175.3550  138.9740 O   0  0  0  0  0  0  0  0  0  0  0  0
  191.3380  174.9130  137.6940 C   0  0  1  0  0  3  0  0  0  0  0  0
  193.8120  175.4440  137.6980 C   0  0  0  0  0  0  0  0  0  0  0  0
  194.9990  175.0280  137.7090 O   0  0  0  0  0  0  0  0  0  0  0  0
  192.7360  174.5050  137.6800 N   0  0  0  0  0  2  0  0  0  0  0  0
  193.5550  176.8450  137.6960 N   0  0  0  0  0  1  0  0  0  0  0  0
  191.0970  173.3320  136.1660 C   0  0  0  0  0  1  0  0  0  0  0  0
  190.5350  173.8260  137.3430 O   0  0  0  0  0  0  0  0  0  0  0  0
  1  2  1  0  0  0  0
  2  5  1  0  0  0  0
  3  6  1  0  0  0  0
  4  5  1  0  0  0  0
  5  8  1  1  0  0  0
  6  4  2  0  0  0  0
  7 19  1  6  0  0  0
  7  1  1  0  0  0  0
  7  4  1  0  0  0  0
  8  9  1  0  0  0  0
  9 10  1  0  0  0  0
 10 11  1  0  0  0  0
 12 13  2  0  0  0  0
 12 18  1  0  0  0  0
 13 17  1  0  0  0  0
 14 15  1  0  0  0  0
 16 14  1  0  0  0  0
 17 11  1  0  0  0  0
 17 14  2  0  0  0  0
 18 16  2  0  0  0  0
 19 20  1  0  0  0  0
 21 27  1  1  0  0  0
 21 20  1  0  0  0  0
 22 23  2  0  0  0  0
 24 21  1  0  0  0  0
 24 22  1  0  0  0  0
 25 22  1  0  0  0  0
 26 27  1  0  0  0  0
M  END
>  <MODEL>
4

>  <REMARK>
 VINA RESULT:      -6.9      3.326      5.416
  Name = 
  10 active torsions:
  status: ('A' for Active; 'I' for Inactive)
    1  A    between atoms: O_2  and  C_5
    2  A    between atoms: O_2  and  C_27
    3  A    between atoms: C_5  and  O_11
    4  A    between atoms: C_5  and  N_14
    5  A    between atoms: C_9  and  N_13
    6  A    between atoms: C_9  and  C_25
    7  A    between atoms: N_13  and  C_23
    8  A    between atoms: C_17  and  C_18
    9  A    between atoms: C_18  and  C_25
   10  A    between atoms: C_22  and  C_27
                            x       y       z     vdW  Elec       q    Type
                         _______ _______ _______ _____ _____    ______ ____

>  <TORSDO>
F 10

$$$$
=
 OpenBabel11032420373D

 27 28  0  0  1  0  0  0  0  0999 V2000
  188.3060  176.0190  143.2570 O   0  0  0  0  0  0  0  0  0  0  0  0
  187.5240  177.1300  143.4600 N   0  0  0  0  0  2  0  0  0  0  0  0
  191.4880  177.1880  145.8980 N   0  0  0  0  0  1  0  0  0  0  0  0
  189.3290  177.3200  144.8510 C   0  0  0  0  0  0  0  0  0  0  0  0
  187.9790  177.8220  144.6600 C   0  0  2  0  0  3  0  0  0  0  0  0
  190.1860  177.7530  145.7760 C   0  0  0  0  0  3  0  0  0  0  0  0
  189.5570  176.2600  143.8650 C   0  0  2  0  0  3  0  0  0  0  0  0
  187.0980  177.4470  145.8430 C   0  0  0  0  0  2  0  0  0  0  0  0
  186.2330  178.6280  146.2480 C   0  0  0  0  0  2  0  0  0  0  0  0
  184.8100  178.4300  145.7590 C   0  0  0  0  0  2  0  0  0  0  0  0
  184.5640  179.2650  144.5910 N   0  0  0  0  0  2  0  0  0  0  0  0
  181.2120  178.8290  143.0600 C   0  0  0  0  0  3  0  0  0  0  0  0
  182.2260  179.0500  143.9940 C   0  0  0  0  0  3  0  0  0  0  0  0
  183.8620  178.7860  142.2290 C   0  0  0  0  0  0  0  0  0  0  0  0
  185.1990  178.7520  141.7400 N   0  0  0  0  0  1  0  0  0  0  0  0
  182.8130  178.5700  141.3310 C   0  0  0  0  0  3  0  0  0  0  0  0
  183.5640  179.0320  143.5890 C   0  0  0  0  0  0  0  0  0  0  0  0
  181.5240  178.5950  141.7590 N   0  0  0  0  0  0  0  0  0  0  0  0
  190.5650  176.7100  142.8150 C   0  0  0  0  0  2  0  0  0  0  0  0
  190.3770  175.9870  141.6350 O   0  0  0  0  0  0  0  0  0  0  0  0
  190.6150  176.9070  140.6090 C   0  0  1  0  0  3  0  0  0  0  0  0
  188.5730  177.7480  139.3740 C   0  0  0  0  0  0  0  0  0  0  0  0
  187.5920  178.5340  139.3320 O   0  0  0  0  0  0  0  0  0  0  0  0
  189.4740  177.8030  140.4810 N   0  0  0  0  0  2  0  0  0  0  0  0
  188.7780  176.8190  138.3140 N   0  0  0  0  0  1  0  0  0  0  0  0
  192.6730  177.3150  139.9100 C   0  0  0  0  0  1  0  0  0  0  0  0
  191.7570  177.6520  140.9070 O   0  0  0  0  0  0  0  0  0  0  0  0
  1  2  1  0  0  0  0
  1  7  1  0  0  0  0
  2  5  1  0  0  0  0
  4  6  2  0  0  0  0
  5  4  1  0  0  0  0
  5  8  1  1  0  0  0
  6  3  1  0  0  0  0
  7 19  1  6  0  0  0
  7  4  1  0  0  0  0
  8  9  1  0  0  0  0
 10  9  1  0  0  0  0
 11 10  1  0  0  0  0
 12 13  1  0  0  0  0
 14 17  1  0  0  0  0
 15 14  1  0  0  0  0
 16 18  1  0  0  0  0
 16 14  2  0  0  0  0
 17 13  2  0  0  0  0
 17 11  1  0  0  0  0
 18 12  2  0  0  0  0
 20 19  1  0  0  0  0
 21 24  1  1  0  0  0
 21 27  1  0  0  0  0
 21 20  1  0  0  0  0
 22 24  1  0  0  0  0
 23 22  2  0  0  0  0
 25 22  1  0  0  0  0
 26 27  1  0  0  0  0
M  END
>  <MODEL>
5

>  <REMARK>
 VINA RESULT:      -6.9      2.183      6.182
  Name = 
  10 active torsions:
  status: ('A' for Active; 'I' for Inactive)
    1  A    between atoms: O_2  and  C_5
    2  A    between atoms: O_2  and  C_27
    3  A    between atoms: C_5  and  O_11
    4  A    between atoms: C_5  and  N_14
    5  A    between atoms: C_9  and  N_13
    6  A    between atoms: C_9  and  C_25
    7  A    between atoms: N_13  and  C_23
    8  A    between atoms: C_17  and  C_18
    9  A    between atoms: C_18  and  C_25
   10  A    between atoms: C_22  and  C_27
                            x       y       z     vdW  Elec       q    Type
                         _______ _______ _______ _____ _____    ______ ____

>  <TORSDO>
F 10

$$$$
=
 OpenBabel11032420373D

 27 28  0  0  1  0  0  0  0  0999 V2000
  185.8260  179.0480  142.2890 O   0  0  0  0  0  0  0  0  0  0  0  0
  186.2710  178.2630  143.3250 N   0  0  0  0  0  2  0  0  0  0  0  0
  181.7000  179.1260  143.4890 N   0  0  0  0  0  1  0  0  0  0  0  0
  184.0490  178.6580  143.6930 C   0  0  0  0  0  0  0  0  0  0  0  0
  185.2610  178.2410  144.3770 C   0  0  2  0  0  3  0  0  0  0  0  0
  182.8310  178.6870  144.2360 C   0  0  0  0  0  3  0  0  0  0  0  0
  184.4160  179.0470  142.3280 C   0  0  2  0  0  3  0  0  0  0  0  0
  185.6260  179.2360  145.4700 C   0  0  0  0  0  2  0  0  0  0  0  0
  185.8790  178.5090  146.7780 C   0  0  0  0  0  2  0  0  0  0  0  0
  186.9960  177.4960  146.6100 C   0  0  0  0  0  2  0  0  0  0  0  0
  188.2620  178.1810  146.3990 N   0  0  0  0  0  2  0  0  0  0  0  0
  191.3610  176.3710  147.3450 C   0  0  0  0  0  3  0  0  0  0  0  0
  190.1140  176.9960  147.4160 C   0  0  0  0  0  3  0  0  0  0  0  0
  190.2540  177.4680  145.0460 C   0  0  0  0  0  0  0  0  0  0  0  0
  189.7400  178.0100  143.8330 N   0  0  0  0  0  1  0  0  0  0  0  0
  191.4980  176.8330  145.0240 C   0  0  0  0  0  3  0  0  0  0  0  0
  189.5450  177.5520  146.2670 C   0  0  0  0  0  0  0  0  0  0  0  0
  192.0220  176.3040  146.1610 N   0  0  0  0  0  0  0  0  0  0  0  0
  183.8700  178.0460  141.3180 C   0  0  0  0  0  2  0  0  0  0  0  0
  183.1250  178.7130  140.3430 O   0  0  0  0  0  0  0  0  0  0  0  0
  184.0770  179.2870  139.4950 C   0  0  1  0  0  3  0  0  0  0  0  0
  185.6950  178.0420  138.0000 C   0  0  0  0  0  0  0  0  0  0  0  0
  185.8770  177.2310  137.0550 O   0  0  0  0  0  0  0  0  0  0  0  0
  184.3630  178.3770  138.3940 N   0  0  0  0  0  2  0  0  0  0  0  0
  186.8170  178.6210  138.6590 N   0  0  0  0  0  1  0  0  0  0  0  0
  182.2840  180.1900  138.5660 C   0  0  0  0  0  1  0  0  0  0  0  0
  183.5810  180.4890  138.9850 O   0  0  0  0  0  0  0  0  0  0  0  0
  1  7  1  0  0  0  0
  1  2  1  0  0  0  0
  2  5  1  0  0  0  0
  3  6  1  0  0  0  0
  4  6  2  0  0  0  0
  4  5  1  0  0  0  0
  5  8  1  1  0  0  0
  7 19  1  6  0  0  0
  7  4  1  0  0  0  0
  8  9  1  0  0  0  0
 10  9  1  0  0  0  0
 11 10  1  0  0  0  0
 12 13  1  0  0  0  0
 14 17  1  0  0  0  0
 15 14  1  0  0  0  0
 16 14  2  0  0  0  0
 16 18  1  0  0  0  0
 17 11  1  0  0  0  0
 17 13  2  0  0  0  0
 18 12  2  0  0  0  0
 20 19  1  0  0  0  0
 21 24  1  6  0  0  0
 21 20  1  0  0  0  0
 22 24  1  0  0  0  0
 22 25  1  0  0  0  0
 23 22  2  0  0  0  0
 26 27  1  0  0  0  0
 27 21  1  0  0  0  0
M  END
>  <MODEL>
6

>  <REMARK>
 VINA RESULT:      -6.9      1.868      3.187
  Name = 
  10 active torsions:
  status: ('A' for Active; 'I' for Inactive)
    1  A    between atoms: O_2  and  C_5
    2  A    between atoms: O_2  and  C_27
    3  A    between atoms: C_5  and  O_11
    4  A    between atoms: C_5  and  N_14
    5  A    between atoms: C_9  and  N_13
    6  A    between atoms: C_9  and  C_25
    7  A    between atoms: N_13  and  C_23
    8  A    between atoms: C_17  and  C_18
    9  A    between atoms: C_18  and  C_25
   10  A    between atoms: C_22  and  C_27
                            x       y       z     vdW  Elec       q    Type
                         _______ _______ _______ _____ _____    ______ ____

>  <TORSDO>
F 10

$$$$
=
 OpenBabel11032420373D

 27 28  0  0  1  0  0  0  0  0999 V2000
  188.3970  175.8580  142.9390 O   0  0  0  0  0  0  0  0  0  0  0  0
  187.6430  176.9940  143.1080 N   0  0  0  0  0  2  0  0  0  0  0  0
  191.4150  176.8580  145.8310 N   0  0  0  0  0  1  0  0  0  0  0  0
  189.3450  177.0910  144.6320 C   0  0  0  0  0  0  0  0  0  0  0  0
  188.0320  177.6470  144.3530 C   0  0  2  0  0  3  0  0  0  0  0  0
  190.1460  177.4730  145.6260 C   0  0  0  0  0  3  0  0  0  0  0  0
  189.6070  176.0410  143.6420 C   0  0  2  0  0  3  0  0  0  0  0  0
  187.0520  177.2820  145.4600 C   0  0  0  0  0  2  0  0  0  0  0  0
  186.4250  178.5380  146.0380 C   0  0  0  0  0  2  0  0  0  0  0  0
  184.9250  178.5310  145.8080 C   0  0  0  0  0  2  0  0  0  0  0  0
  184.5840  179.4300  144.7140 N   0  0  0  0  0  2  0  0  0  0  0  0
  181.3440  178.7690  143.0310 C   0  0  0  0  0  3  0  0  0  0  0  0
  182.2990  179.0350  144.0140 C   0  0  0  0  0  3  0  0  0  0  0  0
  184.0150  179.0010  142.3070 C   0  0  0  0  0  0  0  0  0  0  0  0
  185.3660  179.1090  141.8720 N   0  0  0  0  0  1  0  0  0  0  0  0
  183.0230  178.7340  141.3590 C   0  0  0  0  0  3  0  0  0  0  0  0
  183.6470  179.1560  143.6640 C   0  0  0  0  0  0  0  0  0  0  0  0
  181.7220  178.6240  141.7350 N   0  0  0  0  0  0  0  0  0  0  0  0
  190.7060  176.4720  142.6790 C   0  0  0  0  0  2  0  0  0  0  0  0
  190.3950  176.0520  141.3840 O   0  0  0  0  0  0  0  0  0  0  0  0
  190.6640  177.1590  140.5730 C   0  0  1  0  0  3  0  0  0  0  0  0
  192.3410  176.6670  138.7430 C   0  0  0  0  0  0  0  0  0  0  0  0
  192.5670  176.2490  137.5790 O   0  0  0  0  0  0  0  0  0  0  0  0
  190.9980  176.7110  139.2280 N   0  0  0  0  0  2  0  0  0  0  0  0
  193.4240  177.1000  139.5600 N   0  0  0  0  0  1  0  0  0  0  0  0
  188.8430  177.5640  139.3860 C   0  0  0  0  0  1  0  0  0  0  0  0
  189.5370  177.9820  140.5210 O   0  0  0  0  0  0  0  0  0  0  0  0
  1  2  1  0  0  0  0
  1  7  1  0  0  0  0
  2  5  1  0  0  0  0
  4  6  2  0  0  0  0
  5  4  1  0  0  0  0
  5  8  1  1  0  0  0
  6  3  1  0  0  0  0
  7 19  1  6  0  0  0
  7  4  1  0  0  0  0
  8  9  1  0  0  0  0
 10  9  1  0  0  0  0
 11 10  1  0  0  0  0
 12 13  1  0  0  0  0
 14 17  1  0  0  0  0
 15 14  1  0  0  0  0
 16 18  1  0  0  0  0
 16 14  2  0  0  0  0
 17 13  2  0  0  0  0
 17 11  1  0  0  0  0
 18 12  2  0  0  0  0
 20 19  1  0  0  0  0
 21 24  1  6  0  0  0
 21 20  1  0  0  0  0
 22 24  1  0  0  0  0
 22 25  1  0  0  0  0
 23 22  2  0  0  0  0
 26 27  1  0  0  0  0
 27 21  1  0  0  0  0
M  END
>  <MODEL>
7

>  <REMARK>
 VINA RESULT:      -6.8      2.566      6.109
  Name = 
  10 active torsions:
  status: ('A' for Active; 'I' for Inactive)
    1  A    between atoms: O_2  and  C_5
    2  A    between atoms: O_2  and  C_27
    3  A    between atoms: C_5  and  O_11
    4  A    between atoms: C_5  and  N_14
    5  A    between atoms: C_9  and  N_13
    6  A    between atoms: C_9  and  C_25
    7  A    between atoms: N_13  and  C_23
    8  A    between atoms: C_17  and  C_18
    9  A    between atoms: C_18  and  C_25
   10  A    between atoms: C_22  and  C_27
                            x       y       z     vdW  Elec       q    Type
                         _______ _______ _______ _____ _____    ______ ____

>  <TORSDO>
F 10

$$$$
=
 OpenBabel11032420373D

 27 28  0  0  1  0  0  0  0  0999 V2000
  185.7590  179.6200  140.9810 O   0  0  0  0  0  0  0  0  0  0  0  0
  185.8390  178.8530  142.1190 N   0  0  0  0  0  2  0  0  0  0  0  0
  181.7570  178.4720  139.9140 N   0  0  0  0  0  1  0  0  0  0  0  0
  183.7190  178.6090  141.2960 C   0  0  0  0  0  0  0  0  0  0  0  0
  184.4960  178.4390  142.5110 C   0  0  2  0  0  3  0  0  0  0  0  0
  182.4440  178.2520  141.1430 C   0  0  0  0  0  3  0  0  0  0  0  0
  184.5820  179.2470  140.2970 C   0  0  2  0  0  3  0  0  0  0  0  0
  183.9720  179.3500  143.6120 C   0  0  0  0  0  2  0  0  0  0  0  0
  184.0120  178.6320  144.9500 C   0  0  0  0  0  2  0  0  0  0  0  0
  185.3100  178.9400  145.6730 C   0  0  0  0  0  2  0  0  0  0  0  0
  186.1100  177.7300  145.7980 N   0  0  0  0  0  2  0  0  0  0  0  0
  188.7460  177.9110  148.4030 C   0  0  0  0  0  3  0  0  0  0  0  0
  187.5090  177.9810  147.7600 C   0  0  0  0  0  3  0  0  0  0  0  0
  188.5680  177.2290  145.7170 C   0  0  0  0  0  0  0  0  0  0  0  0
  188.5430  176.8660  144.3400 N   0  0  0  0  0  1  0  0  0  0  0  0
  189.7840  177.1750  146.4030 C   0  0  0  0  0  3  0  0  0  0  0  0
  187.4050  177.6400  146.4080 C   0  0  0  0  0  0  0  0  0  0  0  0
  189.8490  177.5140  147.7180 N   0  0  0  0  0  0  0  0  0  0  0  0
  184.9200  178.2730  139.1760 C   0  0  0  0  0  2  0  0  0  0  0  0
  185.8140  178.8680  138.2830 O   0  0  0  0  0  0  0  0  0  0  0  0
  186.9170  178.0090  138.2530 C   0  0  1  0  0  3  0  0  0  0  0  0
  187.2900  176.3640  136.3670 C   0  0  0  0  0  0  0  0  0  0  0  0
  187.5720  176.1640  135.1580 O   0  0  0  0  0  0  0  0  0  0  0  0
  187.2600  177.7000  136.8720 N   0  0  0  0  0  2  0  0  0  0  0  0
  187.0130  175.2570  137.2200 N   0  0  0  0  0  1  0  0  0  0  0  0
  188.6440  177.6040  139.5730 C   0  0  0  0  0  1  0  0  0  0  0  0
  188.0040  178.6270  138.8730 O   0  0  0  0  0  0  0  0  0  0  0  0
  1  2  1  0  0  0  0
  2  5  1  0  0  0  0
  3  6  1  0  0  0  0
  4  5  1  0  0  0  0
  5  8  1  1  0  0  0
  6  4  2  0  0  0  0
  7 19  1  6  0  0  0
  7  1  1  0  0  0  0
  7  4  1  0  0  0  0
  8  9  1  0  0  0  0
  9 10  1  0  0  0  0
 10 11  1  0  0  0  0
 11 17  1  0  0  0  0
 13 12  1  0  0  0  0
 14 16  2  0  0  0  0
 14 17  1  0  0  0  0
 15 14  1  0  0  0  0
 16 18  1  0  0  0  0
 17 13  2  0  0  0  0
 18 12  2  0  0  0  0
 20 19  1  0  0  0  0
 21 24  1  6  0  0  0
 21 20  1  0  0  0  0
 21 27  1  0  0  0  0
 22 24  1  0  0  0  0
 22 25  1  0  0  0  0
 23 22  2  0  0  0  0
 27 26  1  0  0  0  0
M  END
>  <MODEL>
8

>  <REMARK>
 VINA RESULT:      -6.7      1.216      2.250
  Name = 
  10 active torsions:
  status: ('A' for Active; 'I' for Inactive)
    1  A    between atoms: O_2  and  C_5
    2  A    between atoms: O_2  and  C_27
    3  A    between atoms: C_5  and  O_11
    4  A    between atoms: C_5  and  N_14
    5  A    between atoms: C_9  and  N_13
    6  A    between atoms: C_9  and  C_25
    7  A    between atoms: N_13  and  C_23
    8  A    between atoms: C_17  and  C_18
    9  A    between atoms: C_18  and  C_25
   10  A    between atoms: C_22  and  C_27
                            x       y       z     vdW  Elec       q    Type
                         _______ _______ _______ _____ _____    ______ ____

>  <TORSDO>
F 10

$$$$
=
 OpenBabel11032420373D

 27 28  0  0  1  0  0  0  0  0999 V2000
  187.0100  177.1370  143.2560 O   0  0  0  0  0  0  0  0  0  0  0  0
  186.6710  178.1450  142.3850 N   0  0  0  0  0  2  0  0  0  0  0  0
  184.6580  178.5540  146.5610 N   0  0  0  0  0  1  0  0  0  0  0  0
  185.4670  178.4830  144.2990 C   0  0  0  0  0  0  0  0  0  0  0  0
  185.4920  178.8370  142.8910 C   0  0  2  0  0  3  0  0  0  0  0  0
  184.6160  178.9740  145.2000 C   0  0  0  0  0  3  0  0  0  0  0  0
  186.5240  177.4940  144.5310 C   0  0  2  0  0  3  0  0  0  0  0  0
  184.2440  178.3200  142.1880 C   0  0  0  0  0  2  0  0  0  0  0  0
  184.2910  178.6710  140.7110 C   0  0  0  0  0  2  0  0  0  0  0  0
  183.0530  178.1460  140.0070 C   0  0  0  0  0  2  0  0  0  0  0  0
  181.9350  178.0920  140.9380 N   0  0  0  0  0  2  0  0  0  0  0  0
  179.7400  181.0290  140.3670 C   0  0  0  0  0  3  0  0  0  0  0  0
  180.6250  179.9700  140.1500 C   0  0  0  0  0  3  0  0  0  0  0  0
  180.5200  179.4440  142.5100 C   0  0  0  0  0  0  0  0  0  0  0  0
  180.8810  178.6700  143.6490 N   0  0  0  0  0  1  0  0  0  0  0  0
  179.6370  180.5140  142.6780 C   0  0  0  0  0  3  0  0  0  0  0  0
  181.0250  179.1640  141.2200 C   0  0  0  0  0  0  0  0  0  0  0  0
  179.2690  181.2770  141.6160 N   0  0  0  0  0  0  0  0  0  0  0  0
  187.6490  178.0930  145.3650 C   0  0  0  0  0  2  0  0  0  0  0  0
  187.7320  177.4350  146.5940 O   0  0  0  0  0  0  0  0  0  0  0  0
  189.0910  177.1460  146.7550 C   0  0  1  0  0  3  0  0  0  0  0  0
  191.1810  177.4440  145.3610 C   0  0  0  0  0  0  0  0  0  0  0  0
  191.7890  178.0760  144.4590 O   0  0  0  0  0  0  0  0  0  0  0  0
  189.8640  177.8460  145.7380 N   0  0  0  0  0  2  0  0  0  0  0  0
  191.8170  176.3420  146.0010 N   0  0  0  0  0  1  0  0  0  0  0  0
  188.3380  177.9600  148.6690 C   0  0  0  0  0  1  0  0  0  0  0  0
  189.5080  177.5620  148.0210 O   0  0  0  0  0  0  0  0  0  0  0  0
  1  7  1  0  0  0  0
  2  5  1  0  0  0  0
  2  1  1  0  0  0  0
  4  7  1  0  0  0  0
  4  6  2  0  0  0  0
  5  8  1  6  0  0  0
  5  4  1  0  0  0  0
  6  3  1  0  0  0  0
  7 19  1  1  0  0  0
  9  8  1  0  0  0  0
 10  9  1  0  0  0  0
 10 11  1  0  0  0  0
 11 17  1  0  0  0  0
 12 18  1  0  0  0  0
 13 12  2  0  0  0  0
 13 17  1  0  0  0  0
 14 16  1  0  0  0  0
 14 15  1  0  0  0  0
 17 14  2  0  0  0  0
 18 16  2  0  0  0  0
 19 20  1  0  0  0  0
 20 21  1  0  0  0  0
 21 24  1  6  0  0  0
 21 27  1  0  0  0  0
 22 24  1  0  0  0  0
 22 25  1  0  0  0  0
 23 22  2  0  0  0  0
 27 26  1  0  0  0  0
M  END
>  <MODEL>
9

>  <REMARK>
 VINA RESULT:      -6.5      3.061      7.888
  Name = 
  10 active torsions:
  status: ('A' for Active; 'I' for Inactive)
    1  A    between atoms: O_2  and  C_5
    2  A    between atoms: O_2  and  C_27
    3  A    between atoms: C_5  and  O_11
    4  A    between atoms: C_5  and  N_14
    5  A    between atoms: C_9  and  N_13
    6  A    between atoms: C_9  and  C_25
    7  A    between atoms: N_13  and  C_23
    8  A    between atoms: C_17  and  C_18
    9  A    between atoms: C_18  and  C_25
   10  A    between atoms: C_22  and  C_27
                            x       y       z     vdW  Elec       q    Type
                         _______ _______ _______ _____ _____    ______ ____

>  <TORSDO>
F 10

$$$$
