=
 OpenBabel11032419193D

 25 26  0  0  0  0  0  0  0  0999 V2000
  188.8650  176.7120  144.3360 N   0  0  0  0  0  0  0  0  0  0  0  0
  189.6990  177.0740  143.4040 C   0  0  0  0  0  0  0  0  0  0  0  0
  186.6430  177.5390  143.7570 N   0  0  0  0  0  0  0  0  0  0  0  0
  184.5960  178.8800  146.3090 N   0  0  0  0  0  0  0  0  0  0  0  0
  187.1680  177.8300  146.2730 S   0  0  0  0  0  0  0  0  0  0  0  0
  187.6270  177.3500  144.6810 C   0  0  0  0  0  0  0  0  0  0  0  0
  185.5890  178.0990  144.3840 C   0  0  0  0  0  0  0  0  0  0  0  0
  183.6040  179.1030  145.4390 N   0  0  0  0  0  0  0  0  0  0  0  0
  185.6790  178.3280  145.7060 C   0  0  0  0  0  0  0  0  0  0  0  0
  184.0820  178.6030  143.9040 S   0  0  0  0  0  0  0  0  0  0  0  0
  189.3940  178.1640  142.4250 C   0  0  0  0  0  2  0  0  0  0  0  0
  189.0730  177.5650  141.0660 C   0  0  0  0  0  2  0  0  0  0  0  0
  188.0260  178.5050  138.9320 N   0  0  0  0  0  2  0  0  0  0  0  0
  190.1510  177.6320  138.4560 O   0  0  0  0  0  0  0  0  0  0  0  0
  188.0570  178.4030  140.3620 C   0  0  0  0  0  0  0  0  0  0  0  0
  189.0350  178.0360  138.0320 C   0  0  0  0  0  0  0  0  0  0  0  0
  187.1850  179.0060  141.0390 O   0  0  0  0  0  0  0  0  0  0  0  0
  188.7850  178.0780  136.5670 C   0  0  0  0  0  2  0  0  0  0  0  0
  187.4420  178.5640  136.3130 N   0  0  0  0  0  1  0  0  0  0  0  0
  190.9660  176.3040  143.2360 C   0  0  0  0  0  2  0  0  0  0  0  0
  191.7810  176.4120  145.6340 C   0  0  0  0  0  0  0  0  0  0  0  0
  191.9120  177.6630  145.5780 O   0  0  0  0  0  0  0  0  0  0  0  0
  191.3470  175.6720  144.4920 N   0  0  0  0  0  2  0  0  0  0  0  0
  192.1230  175.6930  146.8900 C   0  0  0  0  0  2  0  0  0  0  0  0
  192.2570  176.6090  147.9330 O   0  0  0  0  0  1  0  0  0  0  0  0
  1  6  1  0  0  0  0
  2  1  2  0  0  0  0
  3  7  1  0  0  0  0
  3  6  2  0  0  0  0
  6  5  1  0  0  0  0
  7  9  2  0  0  0  0
  8  4  2  0  0  0  0
  9  5  1  0  0  0  0
  9  4  1  0  0  0  0
 10  7  1  0  0  0  0
 10  8  1  0  0  0  0
 11  2  1  0  0  0  0
 12 11  1  0  0  0  0
 13 15  1  0  0  0  0
 15 17  2  0  0  0  0
 15 12  1  0  0  0  0
 16 14  2  0  0  0  0
 16 13  1  0  0  0  0
 18 16  1  0  0  0  0
 19 18  1  0  0  0  0
 20  2  1  0  0  0  0
 20 23  1  0  0  0  0
 21 24  1  0  0  0  0
 22 21  2  0  0  0  0
 23 21  1  0  0  0  0
 24 25  1  0  0  0  0
M  END
>  <MODEL>
1

>  <REMARK>
 VINA RESULT:      -7.4      0.000      0.000
  Name = 
  8 active torsions:
  status: ('A' for Active; 'I' for Inactive)
    1  A    between atoms: C_3  and  C_7
    2  A    between atoms: C_6  and  C_20
    3  A    between atoms: C_8  and  C_19
    4  A    between atoms: C_12  and  C_17
    5  A    between atoms: C_12  and  C_20
    6  A    between atoms: C_13  and  N_14
    7  A    between atoms: C_17  and  C_23
    8  A    between atoms: C_23  and  N_25
                            x       y       z     vdW  Elec       q    Type
                         _______ _______ _______ _____ _____    ______ ____

>  <TORSDO>
F 8

$$$$
=
 OpenBabel11032419193D

 25 26  0  0  0  0  0  0  0  0999 V2000
  188.8150  176.7730  144.3150 N   0  0  0  0  0  0  0  0  0  0  0  0
  189.5970  177.0390  143.3080 C   0  0  0  0  0  0  0  0  0  0  0  0
  186.6180  177.6150  143.6690 N   0  0  0  0  0  0  0  0  0  0  0  0
  184.4690  178.8900  146.1720 N   0  0  0  0  0  0  0  0  0  0  0  0
  187.0420  177.8400  146.2110 S   0  0  0  0  0  0  0  0  0  0  0  0
  187.5640  177.4010  144.6260 C   0  0  0  0  0  0  0  0  0  0  0  0
  185.5380  178.1590  144.2680 C   0  0  0  0  0  0  0  0  0  0  0  0
  183.5130  179.1350  145.2690 N   0  0  0  0  0  0  0  0  0  0  0  0
  185.5760  178.3540  145.5970 C   0  0  0  0  0  0  0  0  0  0  0  0
  184.0520  178.6750  143.7410 S   0  0  0  0  0  0  0  0  0  0  0  0
  189.2070  177.9770  142.2090 C   0  0  0  0  0  2  0  0  0  0  0  0
  189.8230  177.5210  140.8960 C   0  0  0  0  0  2  0  0  0  0  0  0
  188.8390  176.9120  138.6180 N   0  0  0  0  0  2  0  0  0  0  0  0
  190.8840  175.8040  138.9210 O   0  0  0  0  0  0  0  0  0  0  0  0
  188.8720  177.7630  139.7710 C   0  0  0  0  0  0  0  0  0  0  0  0
  189.8010  175.9060  138.2860 C   0  0  0  0  0  0  0  0  0  0  0  0
  188.0550  178.7160  139.8530 O   0  0  0  0  0  0  0  0  0  0  0  0
  189.5450  175.0000  137.1350 C   0  0  0  0  0  2  0  0  0  0  0  0
  190.2210  173.7340  137.3470 N   0  0  0  0  0  1  0  0  0  0  0  0
  190.8900  176.3050  143.1880 C   0  0  0  0  0  2  0  0  0  0  0  0
  191.7320  176.5220  145.5690 C   0  0  0  0  0  0  0  0  0  0  0  0
  191.8900  177.7650  145.4440 O   0  0  0  0  0  0  0  0  0  0  0  0
  191.2700  175.7320  144.4730 N   0  0  0  0  0  2  0  0  0  0  0  0
  192.0730  175.8640  146.8580 C   0  0  0  0  0  2  0  0  0  0  0  0
  192.1040  176.8170  147.8770 O   0  0  0  0  0  1  0  0  0  0  0  0
  1  6  1  0  0  0  0
  2  1  2  0  0  0  0
  3  7  1  0  0  0  0
  3  6  2  0  0  0  0
  6  5  1  0  0  0  0
  7  9  2  0  0  0  0
  8  4  2  0  0  0  0
  9  4  1  0  0  0  0
  9  5  1  0  0  0  0
 10  7  1  0  0  0  0
 10  8  1  0  0  0  0
 11  2  1  0  0  0  0
 12 11  1  0  0  0  0
 13 15  1  0  0  0  0
 15 17  2  0  0  0  0
 15 12  1  0  0  0  0
 16 13  1  0  0  0  0
 16 14  2  0  0  0  0
 18 19  1  0  0  0  0
 18 16  1  0  0  0  0
 20  2  1  0  0  0  0
 20 23  1  0  0  0  0
 21 24  1  0  0  0  0
 22 21  2  0  0  0  0
 23 21  1  0  0  0  0
 24 25  1  0  0  0  0
M  END
>  <MODEL>
2

>  <REMARK>
 VINA RESULT:      -7.4      1.520      1.547
  Name = 
  8 active torsions:
  status: ('A' for Active; 'I' for Inactive)
    1  A    between atoms: C_3  and  C_7
    2  A    between atoms: C_6  and  C_20
    3  A    between atoms: C_8  and  C_19
    4  A    between atoms: C_12  and  C_17
    5  A    between atoms: C_12  and  C_20
    6  A    between atoms: C_13  and  N_14
    7  A    between atoms: C_17  and  C_23
    8  A    between atoms: C_23  and  N_25
                            x       y       z     vdW  Elec       q    Type
                         _______ _______ _______ _____ _____    ______ ____

>  <TORSDO>
F 8

$$$$
=
 OpenBabel11032419193D

 25 26  0  0  0  0  0  0  0  0999 V2000
  188.0090  176.9620  142.1740 N   0  0  0  0  0  0  0  0  0  0  0  0
  189.1620  177.3970  141.7530 C   0  0  0  0  0  0  0  0  0  0  0  0
  187.7770  177.2950  144.5810 N   0  0  0  0  0  0  0  0  0  0  0  0
  184.9450  179.0260  145.8040 N   0  0  0  0  0  0  0  0  0  0  0  0
  185.7860  178.2890  143.2600 S   0  0  0  0  0  0  0  0  0  0  0  0
  187.2780  177.4240  143.3190 C   0  0  0  0  0  0  0  0  0  0  0  0
  186.9020  177.8700  145.4320 C   0  0  0  0  0  0  0  0  0  0  0  0
  185.3820  178.9120  147.0630 N   0  0  0  0  0  0  0  0  0  0  0  0
  185.7980  178.4430  144.9230 C   0  0  0  0  0  0  0  0  0  0  0  0
  186.8470  178.0820  147.0760 S   0  0  0  0  0  0  0  0  0  0  0  0
  189.8410  178.5910  142.3480 C   0  0  0  0  0  2  0  0  0  0  0  0
  191.1940  178.1890  142.9110 C   0  0  0  0  0  2  0  0  0  0  0  0
  191.6770  177.9650  145.4110 N   0  0  0  0  0  2  0  0  0  0  0  0
  191.1140  175.8690  144.5200 O   0  0  0  0  0  0  0  0  0  0  0  0
  191.3810  178.7800  144.2700 C   0  0  0  0  0  0  0  0  0  0  0  0
  191.6160  176.5350  145.4630 C   0  0  0  0  0  0  0  0  0  0  0  0
  191.3120  180.0290  144.4100 O   0  0  0  0  0  0  0  0  0  0  0  0
  192.1020  175.8270  146.6770 C   0  0  0  0  0  2  0  0  0  0  0  0
  192.0510  176.7200  147.8190 N   0  0  0  0  0  1  0  0  0  0  0  0
  189.7850  176.7460  140.5640 C   0  0  0  0  0  2  0  0  0  0  0  0
  188.8400  178.0500  138.6060 C   0  0  0  0  0  0  0  0  0  0  0  0
  187.7200  177.4840  138.7150 O   0  0  0  0  0  0  0  0  0  0  0  0
  189.9210  177.7030  139.4740 N   0  0  0  0  0  2  0  0  0  0  0  0
  189.0520  179.0590  137.5340 C   0  0  0  0  0  2  0  0  0  0  0  0
  187.8330  179.3620  136.9290 O   0  0  0  0  0  1  0  0  0  0  0  0
  1  6  1  0  0  0  0
  2  1  2  0  0  0  0
  2 11  1  0  0  0  0
  3  7  1  0  0  0  0
  4  8  2  0  0  0  0
  5  6  1  0  0  0  0
  5  9  1  0  0  0  0
  6  3  2  0  0  0  0
  7 10  1  0  0  0  0
  8 10  1  0  0  0  0
  9  7  2  0  0  0  0
  9  4  1  0  0  0  0
 11 12  1  0  0  0  0
 12 15  1  0  0  0  0
 13 16  1  0  0  0  0
 14 16  2  0  0  0  0
 15 17  2  0  0  0  0
 15 13  1  0  0  0  0
 16 18  1  0  0  0  0
 18 19  1  0  0  0  0
 20  2  1  0  0  0  0
 21 22  2  0  0  0  0
 21 23  1  0  0  0  0
 23 20  1  0  0  0  0
 24 21  1  0  0  0  0
 25 24  1  0  0  0  0
M  END
>  <MODEL>
3

>  <REMARK>
 VINA RESULT:      -7.3      1.863      6.242
  Name = 
  8 active torsions:
  status: ('A' for Active; 'I' for Inactive)
    1  A    between atoms: C_3  and  C_7
    2  A    between atoms: C_6  and  C_20
    3  A    between atoms: C_8  and  C_19
    4  A    between atoms: C_12  and  C_17
    5  A    between atoms: C_12  and  C_20
    6  A    between atoms: C_13  and  N_14
    7  A    between atoms: C_17  and  C_23
    8  A    between atoms: C_23  and  N_25
                            x       y       z     vdW  Elec       q    Type
                         _______ _______ _______ _____ _____    ______ ____

>  <TORSDO>
F 8

$$$$
=
 OpenBabel11032419193D

 25 26  0  0  0  0  0  0  0  0999 V2000
  186.1040  178.2170  144.2730 N   0  0  0  0  0  0  0  0  0  0  0  0
  187.1310  177.4760  144.5750 C   0  0  0  0  0  0  0  0  0  0  0  0
  184.2650  178.0580  142.6770 N   0  0  0  0  0  0  0  0  0  0  0  0
  184.6720  179.4500  139.4510 N   0  0  0  0  0  0  0  0  0  0  0  0
  186.3280  179.2540  141.6740 S   0  0  0  0  0  0  0  0  0  0  0  0
  185.5440  178.4260  142.9680 C   0  0  0  0  0  0  0  0  0  0  0  0
  184.0060  178.4330  141.4070 C   0  0  0  0  0  0  0  0  0  0  0  0
  183.4280  179.0960  139.1080 N   0  0  0  0  0  0  0  0  0  0  0  0
  184.9690  179.0740  140.7210 C   0  0  0  0  0  0  0  0  0  0  0  0
  182.6910  178.3100  140.4030 S   0  0  0  0  0  0  0  0  0  0  0  0
  187.8070  176.5860  143.5790 C   0  0  0  0  0  2  0  0  0  0  0  0
  188.9560  177.3300  142.9160 C   0  0  0  0  0  2  0  0  0  0  0  0
  190.5700  176.2600  141.2490 N   0  0  0  0  0  2  0  0  0  0  0  0
  188.8450  177.3530  140.0940 O   0  0  0  0  0  0  0  0  0  0  0  0
  190.0580  176.3790  142.5820 C   0  0  0  0  0  0  0  0  0  0  0  0
  189.9890  176.8270  140.0700 C   0  0  0  0  0  0  0  0  0  0  0  0
  190.5740  175.6920  143.5010 O   0  0  0  0  0  0  0  0  0  0  0  0
  190.7250  176.7440  138.7800 C   0  0  0  0  0  2  0  0  0  0  0  0
  190.6510  175.3920  138.2600 N   0  0  0  0  0  1  0  0  0  0  0  0
  187.5920  177.4310  145.9930 C   0  0  0  0  0  2  0  0  0  0  0  0
  189.7900  177.1470  147.2250 C   0  0  0  0  0  0  0  0  0  0  0  0
  189.3520  177.7610  148.2340 O   0  0  0  0  0  0  0  0  0  0  0  0
  188.9750  176.9780  146.0640 N   0  0  0  0  0  2  0  0  0  0  0  0
  191.1840  176.6300  147.2280 C   0  0  0  0  0  2  0  0  0  0  0  0
  191.8670  177.1180  146.1140 O   0  0  0  0  0  1  0  0  0  0  0  0
  1  2  2  0  0  0  0
  2 20  1  0  0  0  0
  3  6  2  0  0  0  0
  4  9  1  0  0  0  0
  5  6  1  0  0  0  0
  6  1  1  0  0  0  0
  7  3  1  0  0  0  0
  8  4  2  0  0  0  0
  8 10  1  0  0  0  0
  9  7  2  0  0  0  0
  9  5  1  0  0  0  0
 10  7  1  0  0  0  0
 11  2  1  0  0  0  0
 12 11  1  0  0  0  0
 13 15  1  0  0  0  0
 15 12  1  0  0  0  0
 15 17  2  0  0  0  0
 16 14  2  0  0  0  0
 16 13  1  0  0  0  0
 18 16  1  0  0  0  0
 19 18  1  0  0  0  0
 20 23  1  0  0  0  0
 21 24  1  0  0  0  0
 21 22  2  0  0  0  0
 23 21  1  0  0  0  0
 25 24  1  0  0  0  0
M  END
>  <MODEL>
4

>  <REMARK>
 VINA RESULT:      -7.2      2.602      3.830
  Name = 
  8 active torsions:
  status: ('A' for Active; 'I' for Inactive)
    1  A    between atoms: C_3  and  C_7
    2  A    between atoms: C_6  and  C_20
    3  A    between atoms: C_8  and  C_19
    4  A    between atoms: C_12  and  C_17
    5  A    between atoms: C_12  and  C_20
    6  A    between atoms: C_13  and  N_14
    7  A    between atoms: C_17  and  C_23
    8  A    between atoms: C_23  and  N_25
                            x       y       z     vdW  Elec       q    Type
                         _______ _______ _______ _____ _____    ______ ____

>  <TORSDO>
F 8

$$$$
=
 OpenBabel11032419193D

 25 26  0  0  0  0  0  0  0  0999 V2000
  189.0900  178.1060  139.9920 N   0  0  0  0  0  0  0  0  0  0  0  0
  188.5510  177.8130  141.1410 C   0  0  0  0  0  0  0  0  0  0  0  0
  190.1980  176.9720  138.1370 N   0  0  0  0  0  0  0  0  0  0  0  0
  193.6460  176.2300  138.3980 N   0  0  0  0  0  0  0  0  0  0  0  0
  191.8140  177.4360  140.1040 S   0  0  0  0  0  0  0  0  0  0  0  0
  190.2410  177.4900  139.3960 C   0  0  0  0  0  0  0  0  0  0  0  0
  191.4330  176.5240  137.8320 C   0  0  0  0  0  0  0  0  0  0  0  0
  193.6550  175.6940  137.1720 N   0  0  0  0  0  0  0  0  0  0  0  0
  192.4120  176.6790  138.7410 C   0  0  0  0  0  0  0  0  0  0  0  0
  192.1090  175.7850  136.5090 S   0  0  0  0  0  0  0  0  0  0  0  0
  188.9910  176.6430  141.9650 C   0  0  0  0  0  2  0  0  0  0  0  0
  188.1560  176.5600  143.2330 C   0  0  0  0  0  2  0  0  0  0  0  0
  188.3800  177.4640  145.6130 N   0  0  0  0  0  2  0  0  0  0  0  0
  186.2470  177.9600  144.7730 O   0  0  0  0  0  0  0  0  0  0  0  0
  188.9790  176.9530  144.4160 C   0  0  0  0  0  0  0  0  0  0  0  0
  187.0140  177.8640  145.7670 C   0  0  0  0  0  0  0  0  0  0  0  0
  190.2270  176.7980  144.3720 O   0  0  0  0  0  0  0  0  0  0  0  0
  186.5060  178.2280  147.1160 C   0  0  0  0  0  2  0  0  0  0  0  0
  185.5600  179.3220  147.0050 N   0  0  0  0  0  1  0  0  0  0  0  0
  187.3800  178.6100  141.6090 C   0  0  0  0  0  2  0  0  0  0  0  0
  185.0200  179.0170  140.7780 C   0  0  0  0  0  0  0  0  0  0  0  0
  184.5710  179.0710  141.9530 O   0  0  0  0  0  0  0  0  0  0  0  0
  186.4040  178.7570  140.5380 N   0  0  0  0  0  2  0  0  0  0  0  0
  184.0930  179.1840  139.6280 C   0  0  0  0  0  2  0  0  0  0  0  0
  184.3130  180.4220  139.0240 O   0  0  0  0  0  1  0  0  0  0  0  0
  1  2  2  0  0  0  0
  2 20  1  0  0  0  0
  2 11  1  0  0  0  0
  3  6  2  0  0  0  0
  4  9  1  0  0  0  0
  6  1  1  0  0  0  0
  6  5  1  0  0  0  0
  7  3  1  0  0  0  0
  7  9  2  0  0  0  0
  8  4  2  0  0  0  0
  9  5  1  0  0  0  0
 10  8  1  0  0  0  0
 10  7  1  0  0  0  0
 11 12  1  0  0  0  0
 12 15  1  0  0  0  0
 13 16  1  0  0  0  0
 14 16  2  0  0  0  0
 15 13  1  0  0  0  0
 16 18  1  0  0  0  0
 17 15  2  0  0  0  0
 19 18  1  0  0  0  0
 21 22  2  0  0  0  0
 23 21  1  0  0  0  0
 23 20  1  0  0  0  0
 24 21  1  0  0  0  0
 25 24  1  0  0  0  0
M  END
>  <MODEL>
5

>  <REMARK>
 VINA RESULT:      -7.2      3.953      8.387
  Name = 
  8 active torsions:
  status: ('A' for Active; 'I' for Inactive)
    1  A    between atoms: C_3  and  C_7
    2  A    between atoms: C_6  and  C_20
    3  A    between atoms: C_8  and  C_19
    4  A    between atoms: C_12  and  C_17
    5  A    between atoms: C_12  and  C_20
    6  A    between atoms: C_13  and  N_14
    7  A    between atoms: C_17  and  C_23
    8  A    between atoms: C_23  and  N_25
                            x       y       z     vdW  Elec       q    Type
                         _______ _______ _______ _____ _____    ______ ____

>  <TORSDO>
F 8

$$$$
=
 OpenBabel11032419193D

 25 26  0  0  0  0  0  0  0  0999 V2000
  187.3320  177.7430  142.5270 N   0  0  0  0  0  0  0  0  0  0  0  0
  187.5580  177.6230  143.8040 C   0  0  0  0  0  0  0  0  0  0  0  0
  188.0640  178.0140  140.2150 N   0  0  0  0  0  0  0  0  0  0  0  0
  191.1570  176.6160  139.2230 N   0  0  0  0  0  0  0  0  0  0  0  0
  189.7500  176.6450  141.6190 S   0  0  0  0  0  0  0  0  0  0  0  0
  188.2570  177.4930  141.4590 C   0  0  0  0  0  0  0  0  0  0  0  0
  189.1180  177.6630  139.4510 C   0  0  0  0  0  0  0  0  0  0  0  0
  191.0080  177.0910  137.9810 N   0  0  0  0  0  0  0  0  0  0  0  0
  190.1030  176.9420  140.0140 C   0  0  0  0  0  0  0  0  0  0  0  0
  189.5510  177.9290  137.8720 S   0  0  0  0  0  0  0  0  0  0  0  0
  188.8260  177.0420  144.3490 C   0  0  0  0  0  2  0  0  0  0  0  0
  189.5630  178.0880  145.1690 C   0  0  0  0  0  2  0  0  0  0  0  0
  191.8470  177.1300  145.8030 N   0  0  0  0  0  2  0  0  0  0  0  0
  190.3350  176.8160  147.5700 O   0  0  0  0  0  0  0  0  0  0  0  0
  191.0370  177.9600  144.9600 C   0  0  0  0  0  0  0  0  0  0  0  0
  191.4340  176.5190  147.0300 C   0  0  0  0  0  0  0  0  0  0  0  0
  191.5740  178.5670  143.9980 O   0  0  0  0  0  0  0  0  0  0  0  0
  192.3440  175.5600  147.7110 C   0  0  0  0  0  2  0  0  0  0  0  0
  193.0910  176.2460  148.7480 N   0  0  0  0  0  1  0  0  0  0  0  0
  186.4740  177.9820  144.7630 C   0  0  0  0  0  2  0  0  0  0  0  0
  184.1180  178.9180  144.7010 C   0  0  0  0  0  0  0  0  0  0  0  0
  184.0530  178.9480  145.9590 O   0  0  0  0  0  0  0  0  0  0  0  0
  185.2830  178.4160  144.0440 N   0  0  0  0  0  2  0  0  0  0  0  0
  182.9550  179.3700  143.8940 C   0  0  0  0  0  2  0  0  0  0  0  0
  181.8350  178.6020  144.2160 O   0  0  0  0  0  1  0  0  0  0  0  0
  1  2  2  0  0  0  0
  2 11  1  0  0  0  0
  2 20  1  0  0  0  0
  3  6  2  0  0  0  0
  4  9  1  0  0  0  0
  6  5  1  0  0  0  0
  6  1  1  0  0  0  0
  7  9  2  0  0  0  0
  7  3  1  0  0  0  0
  8  4  2  0  0  0  0
  9  5  1  0  0  0  0
 10  8  1  0  0  0  0
 10  7  1  0  0  0  0
 11 12  1  0  0  0  0
 13 16  1  0  0  0  0
 15 12  1  0  0  0  0
 15 13  1  0  0  0  0
 16 14  2  0  0  0  0
 16 18  1  0  0  0  0
 17 15  2  0  0  0  0
 18 19  1  0  0  0  0
 21 22  2  0  0  0  0
 23 21  1  0  0  0  0
 23 20  1  0  0  0  0
 24 25  1  0  0  0  0
 24 21  1  0  0  0  0
M  END
>  <MODEL>
6

>  <REMARK>
 VINA RESULT:      -7.1      3.251      7.804
  Name = 
  8 active torsions:
  status: ('A' for Active; 'I' for Inactive)
    1  A    between atoms: C_3  and  C_7
    2  A    between atoms: C_6  and  C_20
    3  A    between atoms: C_8  and  C_19
    4  A    between atoms: C_12  and  C_17
    5  A    between atoms: C_12  and  C_20
    6  A    between atoms: C_13  and  N_14
    7  A    between atoms: C_17  and  C_23
    8  A    between atoms: C_23  and  N_25
                            x       y       z     vdW  Elec       q    Type
                         _______ _______ _______ _____ _____    ______ ____

>  <TORSDO>
F 8

$$$$
=
 OpenBabel11032419193D

 25 26  0  0  0  0  0  0  0  0999 V2000
  185.7250  178.8180  140.1760 N   0  0  0  0  0  0  0  0  0  0  0  0
  186.2050  178.9090  141.3830 C   0  0  0  0  0  0  0  0  0  0  0  0
  183.9840  180.2090  139.1810 N   0  0  0  0  0  0  0  0  0  0  0  0
  180.7390  178.8630  138.7780 N   0  0  0  0  0  0  0  0  0  0  0  0
  183.1050  177.8670  139.8400 S   0  0  0  0  0  0  0  0  0  0  0  0
  184.3670  179.0410  139.7690 C   0  0  0  0  0  0  0  0  0  0  0  0
  182.6790  180.1010  138.8580 C   0  0  0  0  0  0  0  0  0  0  0  0
  180.3070  179.9950  138.2100 N   0  0  0  0  0  0  0  0  0  0  0  0
  182.0470  178.9450  139.1280 C   0  0  0  0  0  0  0  0  0  0  0  0
  181.5710  181.1060  138.1400 S   0  0  0  0  0  0  0  0  0  0  0  0
  185.4030  179.4240  142.5360 C   0  0  0  0  0  2  0  0  0  0  0  0
  184.9310  178.2650  143.3980 C   0  0  0  0  0  2  0  0  0  0  0  0
  185.8610  178.4780  145.7690 N   0  0  0  0  0  2  0  0  0  0  0  0
  187.1160  176.9060  144.5620 O   0  0  0  0  0  0  0  0  0  0  0  0
  184.8090  178.6990  144.8220 C   0  0  0  0  0  0  0  0  0  0  0  0
  187.0180  177.6590  145.5670 C   0  0  0  0  0  0  0  0  0  0  0  0
  183.7700  179.3070  145.1900 O   0  0  0  0  0  0  0  0  0  0  0  0
  188.0970  177.6540  146.5890 C   0  0  0  0  0  2  0  0  0  0  0  0
  189.3840  177.4780  145.9420 N   0  0  0  0  0  1  0  0  0  0  0  0
  187.6440  178.5850  141.6090 C   0  0  0  0  0  2  0  0  0  0  0  0
  189.4650  177.4100  140.2940 C   0  0  0  0  0  0  0  0  0  0  0  0
  190.0440  177.0360  141.3480 O   0  0  0  0  0  0  0  0  0  0  0  0
  188.2840  178.2120  140.3550 N   0  0  0  0  0  2  0  0  0  0  0  0
  190.0400  177.0470  138.9720 C   0  0  0  0  0  2  0  0  0  0  0  0
  190.6340  175.7880  139.0490 O   0  0  0  0  0  1  0  0  0  0  0  0
  1  2  2  0  0  0  0
  2 20  1  0  0  0  0
  2 11  1  0  0  0  0
  3  6  2  0  0  0  0
  4  9  1  0  0  0  0
  6  5  1  0  0  0  0
  6  1  1  0  0  0  0
  7  9  2  0  0  0  0
  7  3  1  0  0  0  0
  8  4  2  0  0  0  0
  9  5  1  0  0  0  0
 10  8  1  0  0  0  0
 10  7  1  0  0  0  0
 11 12  1  0  0  0  0
 12 15  1  0  0  0  0
 14 16  2  0  0  0  0
 15 17  2  0  0  0  0
 15 13  1  0  0  0  0
 16 13  1  0  0  0  0
 16 18  1  0  0  0  0
 19 18  1  0  0  0  0
 21 23  1  0  0  0  0
 21 22  2  0  0  0  0
 23 20  1  0  0  0  0
 24 25  1  0  0  0  0
 24 21  1  0  0  0  0
M  END
>  <MODEL>
7

>  <REMARK>
 VINA RESULT:      -7.1      3.865      6.873
  Name = 
  8 active torsions:
  status: ('A' for Active; 'I' for Inactive)
    1  A    between atoms: C_3  and  C_7
    2  A    between atoms: C_6  and  C_20
    3  A    between atoms: C_8  and  C_19
    4  A    between atoms: C_12  and  C_17
    5  A    between atoms: C_12  and  C_20
    6  A    between atoms: C_13  and  N_14
    7  A    between atoms: C_17  and  C_23
    8  A    between atoms: C_23  and  N_25
                            x       y       z     vdW  Elec       q    Type
                         _______ _______ _______ _____ _____    ______ ____

>  <TORSDO>
F 8

$$$$
=
 OpenBabel11032419193D

 25 26  0  0  0  0  0  0  0  0999 V2000
  186.6710  178.3260  145.9070 N   0  0  0  0  0  0  0  0  0  0  0  0
  187.8390  177.7860  145.7100 C   0  0  0  0  0  0  0  0  0  0  0  0
  185.8100  178.1740  143.6280 N   0  0  0  0  0  0  0  0  0  0  0  0
  182.4290  179.0110  143.0160 N   0  0  0  0  0  0  0  0  0  0  0  0
  184.0150  179.0000  145.2980 S   0  0  0  0  0  0  0  0  0  0  0  0
  185.6260  178.5000  144.9390 C   0  0  0  0  0  0  0  0  0  0  0  0
  184.6450  178.3860  142.9820 C   0  0  0  0  0  0  0  0  0  0  0  0
  182.5610  178.7210  141.7170 N   0  0  0  0  0  0  0  0  0  0  0  0
  183.5900  178.8210  143.6930 C   0  0  0  0  0  0  0  0  0  0  0  0
  184.1390  178.2180  141.4110 S   0  0  0  0  0  0  0  0  0  0  0  0
  188.2120  177.1110  144.4280 C   0  0  0  0  0  2  0  0  0  0  0  0
  189.3380  177.8740  143.7490 C   0  0  0  0  0  2  0  0  0  0  0  0
  190.1570  177.0250  141.4810 N   0  0  0  0  0  2  0  0  0  0  0  0
  188.2520  178.3640  141.1890 O   0  0  0  0  0  0  0  0  0  0  0  0
  190.1560  176.9460  142.9130 C   0  0  0  0  0  0  0  0  0  0  0  0
  189.2580  177.8020  140.6810 C   0  0  0  0  0  0  0  0  0  0  0  0
  190.8920  176.0960  143.4800 O   0  0  0  0  0  0  0  0  0  0  0  0
  189.4850  177.9000  139.2150 C   0  0  0  0  0  2  0  0  0  0  0  0
  188.6870  178.9810  138.6680 N   0  0  0  0  0  1  0  0  0  0  0  0
  188.8110  177.7460  146.8410 C   0  0  0  0  0  2  0  0  0  0  0  0
  191.0940  176.7300  147.2730 C   0  0  0  0  0  0  0  0  0  0  0  0
  191.3930  177.6440  148.0850 O   0  0  0  0  0  0  0  0  0  0  0  0
  189.8360  176.7400  146.5940 N   0  0  0  0  0  2  0  0  0  0  0  0
  192.0760  175.6510  146.9850 C   0  0  0  0  0  2  0  0  0  0  0  0
  192.9700  175.5360  148.0500 O   0  0  0  0  0  1  0  0  0  0  0  0
  2  1  2  0  0  0  0
  2 20  1  0  0  0  0
  3  6  2  0  0  0  0
  4  9  1  0  0  0  0
  6  5  1  0  0  0  0
  6  1  1  0  0  0  0
  7  3  1  0  0  0  0
  7  9  2  0  0  0  0
  8  4  2  0  0  0  0
  9  5  1  0  0  0  0
 10  8  1  0  0  0  0
 10  7  1  0  0  0  0
 11  2  1  0  0  0  0
 12 11  1  0  0  0  0
 13 15  1  0  0  0  0
 15 17  2  0  0  0  0
 15 12  1  0  0  0  0
 16 14  2  0  0  0  0
 16 13  1  0  0  0  0
 18 16  1  0  0  0  0
 19 18  1  0  0  0  0
 21 22  2  0  0  0  0
 23 20  1  0  0  0  0
 23 21  1  0  0  0  0
 24 21  1  0  0  0  0
 24 25  1  0  0  0  0
M  END
>  <MODEL>
8

>  <REMARK>
 VINA RESULT:      -7.0      1.894      3.016
  Name = 
  8 active torsions:
  status: ('A' for Active; 'I' for Inactive)
    1  A    between atoms: C_3  and  C_7
    2  A    between atoms: C_6  and  C_20
    3  A    between atoms: C_8  and  C_19
    4  A    between atoms: C_12  and  C_17
    5  A    between atoms: C_12  and  C_20
    6  A    between atoms: C_13  and  N_14
    7  A    between atoms: C_17  and  C_23
    8  A    between atoms: C_23  and  N_25
                            x       y       z     vdW  Elec       q    Type
                         _______ _______ _______ _____ _____    ______ ____

>  <TORSDO>
F 8

$$$$
=
 OpenBabel11032419193D

 25 26  0  0  0  0  0  0  0  0999 V2000
  188.5920  178.1020  142.4260 N   0  0  0  0  0  0  0  0  0  0  0  0
  187.2960  178.1930  142.3340 C   0  0  0  0  0  0  0  0  0  0  0  0
  188.7750  177.8050  144.8420 N   0  0  0  0  0  0  0  0  0  0  0  0
  191.8850  176.8300  146.2150 N   0  0  0  0  0  0  0  0  0  0  0  0
  191.0180  177.3650  143.6300 S   0  0  0  0  0  0  0  0  0  0  0  0
  189.3550  177.8240  143.6090 C   0  0  0  0  0  0  0  0  0  0  0  0
  189.7210  177.4570  145.7390 C   0  0  0  0  0  0  0  0  0  0  0  0
  191.3680  176.8120  147.4490 N   0  0  0  0  0  0  0  0  0  0  0  0
  190.9600  177.1900  145.2900 C   0  0  0  0  0  0  0  0  0  0  0  0
  189.7420  177.2440  147.3840 S   0  0  0  0  0  0  0  0  0  0  0  0
  186.3790  177.8600  143.4690 C   0  0  0  0  0  2  0  0  0  0  0  0
  184.9460  178.1990  143.0930 C   0  0  0  0  0  2  0  0  0  0  0  0
  182.8110  178.9960  144.2500 N   0  0  0  0  0  2  0  0  0  0  0  0
  182.4560  178.8580  141.9350 O   0  0  0  0  0  0  0  0  0  0  0  0
  184.2240  178.7600  144.2740 C   0  0  0  0  0  0  0  0  0  0  0  0
  181.9690  178.9480  143.0930 C   0  0  0  0  0  0  0  0  0  0  0  0
  184.8680  178.9990  145.3290 O   0  0  0  0  0  0  0  0  0  0  0  0
  180.4960  179.0640  143.2560 C   0  0  0  0  0  2  0  0  0  0  0  0
  180.0000  177.9470  144.0390 N   0  0  0  0  0  1  0  0  0  0  0  0
  186.6930  178.5420  141.0150 C   0  0  0  0  0  2  0  0  0  0  0  0
  187.4460  178.2180  138.6160 C   0  0  0  0  0  0  0  0  0  0  0  0
  186.3020  177.8230  138.2660 O   0  0  0  0  0  0  0  0  0  0  0  0
  187.7150  178.5590  139.9770 N   0  0  0  0  0  2  0  0  0  0  0  0
  188.5380  178.2890  137.6100 C   0  0  0  0  0  2  0  0  0  0  0  0
  188.9650  179.6100  137.4740 O   0  0  0  0  0  1  0  0  0  0  0  0
  1  6  1  0  0  0  0
  2  1  2  0  0  0  0
  2 11  1  0  0  0  0
  3  7  1  0  0  0  0
  4  8  2  0  0  0  0
  5  9  1  0  0  0  0
  6  5  1  0  0  0  0
  6  3  2  0  0  0  0
  7 10  1  0  0  0  0
  9  7  2  0  0  0  0
  9  4  1  0  0  0  0
 10  8  1  0  0  0  0
 12 11  1  0  0  0  0
 12 15  1  0  0  0  0
 13 15  1  0  0  0  0
 14 16  2  0  0  0  0
 15 17  2  0  0  0  0
 16 18  1  0  0  0  0
 16 13  1  0  0  0  0
 18 19  1  0  0  0  0
 20  2  1  0  0  0  0
 21 23  1  0  0  0  0
 22 21  2  0  0  0  0
 23 20  1  0  0  0  0
 24 21  1  0  0  0  0
 25 24  1  0  0  0  0
M  END
>  <MODEL>
9

>  <REMARK>
 VINA RESULT:      -7.0      3.213      7.069
  Name = 
  8 active torsions:
  status: ('A' for Active; 'I' for Inactive)
    1  A    between atoms: C_3  and  C_7
    2  A    between atoms: C_6  and  C_20
    3  A    between atoms: C_8  and  C_19
    4  A    between atoms: C_12  and  C_17
    5  A    between atoms: C_12  and  C_20
    6  A    between atoms: C_13  and  N_14
    7  A    between atoms: C_17  and  C_23
    8  A    between atoms: C_23  and  N_25
                            x       y       z     vdW  Elec       q    Type
                         _______ _______ _______ _____ _____    ______ ____

>  <TORSDO>
F 8

$$$$
