=
 OpenBabel11042410303D

 35 39  0  0  1  0  0  0  0  0999 V2000
  186.3380  178.0830  142.7190 C   0  0  0  0  0  0  0  0  0  0  0  0
  187.1140  179.0290  140.6170 C   0  0  0  0  0  3  0  0  0  0  0  0
  188.6400  177.7470  141.9990 C   0  0  0  0  0  0  0  0  0  0  0  0
  187.6150  177.5510  142.9290 C   0  0  0  0  0  3  0  0  0  0  0  0
  188.3820  178.4930  140.8400 C   0  0  0  0  0  3  0  0  0  0  0  0
  186.0830  178.8330  141.5480 C   0  0  0  0  0  0  0  0  0  0  0  0
  189.3790  178.2680  148.6920 C   0  0  0  0  0  2  0  0  0  0  0  0
  189.9000  177.3580  147.6150 C   0  0  0  0  0  0  0  0  0  0  0  0
  184.6190  179.6250  145.3180 N   0  0  0  0  0  2  0  0  0  0  0  0
  185.2590  178.5830  146.1140 C   0  0  1  0  0  3  0  0  0  0  0  0
  186.9700  176.9380  145.4410 C   0  0  0  0  0  3  0  0  0  0  0  0
  185.3040  177.8430  143.7890 C   0  0  1  0  0  3  0  0  0  0  0  0
  188.2710  179.0350  148.2180 O   0  0  0  0  0  0  0  0  0  0  0  0
  185.8720  177.6490  145.1410 C   0  0  0  0  0  0  0  0  0  0  0  0
  187.3260  178.4690  147.3600 C   0  0  0  0  0  0  0  0  0  0  0  0
  187.5630  177.0700  146.8180 C   0  0  2  0  0  3  0  0  0  0  0  0
  189.0390  176.8010  146.7500 C   0  0  0  0  0  3  0  0  0  0  0  0
  184.4020  179.0610  143.9780 C   0  0  0  0  0  2  0  0  0  0  0  0
  186.2780  179.1550  146.9980 N   0  0  0  0  0  0  0  0  0  0  0  0
  191.9410  175.8070  147.6770 C   0  0  0  0  0  0  0  0  0  0  0  0
  191.3070  177.0880  147.5630 N   0  0  0  0  0  2  0  0  0  0  0  0
  191.2650  174.7520  147.8050 O   0  0  0  0  0  1  0  0  0  0  0  0
  193.3260  175.7280  147.6370 O   0  0  0  0  0  0  0  0  0  0  0  0
  184.8020  179.3510  141.3100 O   0  0  0  0  0  0  0  0  0  0  0  0
  183.6160  179.5280  139.2960 C   0  0  0  0  0  3  0  0  0  0  0  0
  183.8810  178.8190  140.3990 C   0  0  0  0  0  0  0  0  0  0  0  0
  182.3650  176.9960  139.5120 C   0  0  0  0  0  0  0  0  0  0  0  0
  183.2530  177.4590  140.6330 C   0  0  0  0  0  2  0  0  0  0  0  0
  182.7060  179.0400  138.2470 C   0  0  0  0  0  3  0  0  0  0  0  0
  182.1190  177.8490  138.3440 C   0  0  0  0  0  3  0  0  0  0  0  0
  181.8180  175.8660  139.5810 O   0  0  0  0  0  0  0  0  0  0  0  0
  189.9000  177.1970  142.2540 O   0  0  0  0  0  0  0  0  0  0  0  0
  190.1040  176.0710  143.1040 C   0  0  0  0  0  2  0  0  0  0  0  0
  191.6400  177.7270  144.1540 C   0  0  0  0  0  1  0  0  0  0  0  0
  191.3590  176.2520  143.9440 C   0  0  0  0  0  2  0  0  0  0  0  0
  1  4  1  0  0  0  0
  2  5  2  0  0  0  0
  2  6  1  0  0  0  0
  3 32  1  0  0  0  0
  3  4  2  0  0  0  0
  5  3  1  0  0  0  0
  6  1  2  0  0  0  0
  8  7  1  0  0  0  0
  9 10  1  0  0  0  0
 10 14  1  6  0  0  0
 10 19  1  0  0  0  0
 12  1  1  6  0  0  0
 12 18  1  0  0  0  0
 12 14  1  0  0  0  0
 13  7  1  0  0  0  0
 14 11  2  0  0  0  0
 15 13  1  0  0  0  0
 16 11  1  6  0  0  0
 16 15  1  0  0  0  0
 17 16  1  0  0  0  0
 17  8  2  0  0  0  0
 18  9  1  0  0  0  0
 19 15  2  0  0  0  0
 20 22  1  0  0  0  0
 21  8  1  0  0  0  0
 21 20  1  0  0  0  0
 23 20  2  0  0  0  0
 24  6  1  0  0  0  0
 25 26  2  0  0  0  0
 26 28  1  0  0  0  0
 26 24  1  0  0  0  0
 27 31  2  0  0  0  0
 27 28  1  0  0  0  0
 29 30  2  0  0  0  0
 29 25  1  0  0  0  0
 30 27  1  0  0  0  0
 32 33  1  0  0  0  0
 33 35  1  0  0  0  0
 35 34  1  0  0  0  0
M  END
>  <MODEL>
1

>  <REMARK>
 VINA RESULT:      -8.6      0.000      0.000
  Name = 
  7 active torsions:
  status: ('A' for Active; 'I' for Inactive)
    1  A    between atoms: C_2  and  C_14
    2  A    between atoms: C_5  and  C_23
    3  A    between atoms: O_6  and  C_7
    4  A    between atoms: O_6  and  C_29
    5  A    between atoms: C_8  and  N_17
    6  A    between atoms: C_14  and  O_31
    7  A    between atoms: C_15  and  O_31
                            x       y       z     vdW  Elec       q    Type
                         _______ _______ _______ _____ _____    ______ ____

>  <TORSDO>
F 7

$$$$
=
 OpenBabel11042410303D

 35 39  0  0  1  0  0  0  0  0999 V2000
  187.2920  178.3090  141.9770 C   0  0  0  0  0  0  0  0  0  0  0  0
  188.8850  176.6950  142.8560 C   0  0  0  0  0  3  0  0  0  0  0  0
  189.1880  177.5970  140.6250 C   0  0  0  0  0  0  0  0  0  0  0  0
  188.0310  178.3640  140.7900 C   0  0  0  0  0  3  0  0  0  0  0  0
  189.6110  176.7590  141.6660 C   0  0  0  0  0  3  0  0  0  0  0  0
  187.7240  177.4640  143.0250 C   0  0  0  0  0  0  0  0  0  0  0  0
  183.0470  176.2530  137.2120 C   0  0  0  0  0  2  0  0  0  0  0  0
  184.4570  176.6270  136.8480 C   0  0  0  0  0  0  0  0  0  0  0  0
  183.9190  178.2050  142.8080 N   0  0  0  0  0  2  0  0  0  0  0  0
  183.7520  178.6090  141.4160 C   0  0  1  0  0  3  0  0  0  0  0  0
  185.4500  178.8020  139.6360 C   0  0  0  0  0  3  0  0  0  0  0  0
  186.0440  179.1510  142.0540 C   0  0  1  0  0  3  0  0  0  0  0  0
  182.8410  176.3580  138.6210 O   0  0  0  0  0  0  0  0  0  0  0  0
  185.1100  178.9440  140.9260 C   0  0  0  0  0  0  0  0  0  0  0  0
  183.4280  177.3920  139.3540 C   0  0  0  0  0  0  0  0  0  0  0  0
  184.4050  178.3260  138.6610 C   0  0  2  0  0  3  0  0  0  0  0  0
  185.0770  177.6020  137.5290 C   0  0  0  0  0  3  0  0  0  0  0  0
  185.1930  178.7780  143.2660 C   0  0  0  0  0  2  0  0  0  0  0  0
  183.1680  177.5230  140.6250 N   0  0  0  0  0  0  0  0  0  0  0  0
  186.1040  174.9370  135.8430 C   0  0  0  0  0  0  0  0  0  0  0  0
  185.0890  175.9470  135.7550 N   0  0  0  0  0  2  0  0  0  0  0  0
  186.5180  174.5210  136.9570 O   0  0  0  0  0  1  0  0  0  0  0  0
  186.6330  174.4020  134.6760 O   0  0  0  0  0  0  0  0  0  0  0  0
  187.0090  177.4180  144.2300 O   0  0  0  0  0  0  0  0  0  0  0  0
  186.7850  178.0680  146.4710 C   0  0  0  0  0  3  0  0  0  0  0  0
  187.5730  177.5930  145.5010 C   0  0  0  0  0  0  0  0  0  0  0  0
  189.4260  177.3590  147.2080 C   0  0  0  0  0  0  0  0  0  0  0  0
  189.0110  177.1990  145.7730 C   0  0  0  0  0  2  0  0  0  0  0  0
  187.2580  178.2400  147.8550 C   0  0  0  0  0  3  0  0  0  0  0  0
  188.4980  177.9040  148.2050 C   0  0  0  0  0  3  0  0  0  0  0  0
  190.5880  177.0290  147.5590 O   0  0  0  0  0  0  0  0  0  0  0  0
  189.8920  177.6840  139.4190 O   0  0  0  0  0  0  0  0  0  0  0  0
  189.6800  176.7980  138.3240 C   0  0  0  0  0  2  0  0  0  0  0  0
  188.9870  178.8940  137.1720 C   0  0  0  0  0  1  0  0  0  0  0  0
  188.7210  177.4090  137.3150 C   0  0  0  0  0  2  0  0  0  0  0  0
  1  6  1  0  0  0  0
  2  6  2  0  0  0  0
  3  4  1  0  0  0  0
  3  5  2  0  0  0  0
  4  1  2  0  0  0  0
  5  2  1  0  0  0  0
  6 24  1  0  0  0  0
  7 13  1  0  0  0  0
  8  7  1  0  0  0  0
  8 17  2  0  0  0  0
  9 18  1  0  0  0  0
 10 19  1  6  0  0  0
 10  9  1  0  0  0  0
 11 14  2  0  0  0  0
 12  1  1  6  0  0  0
 12 18  1  0  0  0  0
 13 15  1  0  0  0  0
 14 10  1  0  0  0  0
 14 12  1  0  0  0  0
 15 19  2  0  0  0  0
 16 17  1  6  0  0  0
 16 15  1  0  0  0  0
 16 11  1  0  0  0  0
 20 22  1  0  0  0  0
 21 20  1  0  0  0  0
 21  8  1  0  0  0  0
 23 20  2  0  0  0  0
 24 26  1  0  0  0  0
 25 29  1  0  0  0  0
 26 28  1  0  0  0  0
 26 25  2  0  0  0  0
 27 31  2  0  0  0  0
 27 30  1  0  0  0  0
 28 27  1  0  0  0  0
 29 30  2  0  0  0  0
 32  3  1  0  0  0  0
 33 32  1  0  0  0  0
 34 35  1  0  0  0  0
 35 33  1  0  0  0  0
M  END
>  <MODEL>
2

>  <REMARK>
 VINA RESULT:      -8.3      3.231      8.336
  Name = 
  7 active torsions:
  status: ('A' for Active; 'I' for Inactive)
    1  A    between atoms: C_2  and  C_14
    2  A    between atoms: C_5  and  C_23
    3  A    between atoms: O_6  and  C_7
    4  A    between atoms: O_6  and  C_29
    5  A    between atoms: C_8  and  N_17
    6  A    between atoms: C_14  and  O_31
    7  A    between atoms: C_15  and  O_31
                            x       y       z     vdW  Elec       q    Type
                         _______ _______ _______ _____ _____    ______ ____

>  <TORSDO>
F 7

$$$$
=
 OpenBabel11042410303D

 35 39  0  0  1  0  0  0  0  0999 V2000
  187.2680  178.3720  140.7130 C   0  0  0  0  0  0  0  0  0  0  0  0
  184.8540  178.6120  140.5430 C   0  0  0  0  0  3  0  0  0  0  0  0
  185.8710  178.1360  142.6920 C   0  0  0  0  0  0  0  0  0  0  0  0
  187.1290  178.1360  142.0850 C   0  0  0  0  0  3  0  0  0  0  0  0
  184.7310  178.3740  141.9110 C   0  0  0  0  0  3  0  0  0  0  0  0
  186.1160  178.6130  139.9300 C   0  0  0  0  0  0  0  0  0  0  0  0
  191.4710  176.3280  145.5200 C   0  0  0  0  0  2  0  0  0  0  0  0
  190.5560  177.4940  145.7720 C   0  0  0  0  0  0  0  0  0  0  0  0
  189.8130  176.2020  139.7660 N   0  0  0  0  0  2  0  0  0  0  0  0
  190.5670  176.9390  140.7740 C   0  0  1  0  0  3  0  0  0  0  0  0
  189.7760  178.6440  142.3720 C   0  0  0  0  0  3  0  0  0  0  0  0
  188.6630  178.3270  140.1410 C   0  0  1  0  0  3  0  0  0  0  0  0
  191.2460  175.7760  144.2230 O   0  0  0  0  0  0  0  0  0  0  0  0
  189.7180  178.0940  141.1500 C   0  0  0  0  0  0  0  0  0  0  0  0
  190.9660  176.6040  143.1330 C   0  0  0  0  0  0  0  0  0  0  0  0
  190.7610  178.0910  143.3690 C   0  0  2  0  0  3  0  0  0  0  0  0
  190.2380  178.3130  144.7590 C   0  0  0  0  0  3  0  0  0  0  0  0
  188.8380  177.1420  139.1940 C   0  0  0  0  0  2  0  0  0  0  0  0
  190.8410  176.0950  141.9400 N   0  0  0  0  0  0  0  0  0  0  0  0
  188.7280  177.5370  147.5710 C   0  0  0  0  0  0  0  0  0  0  0  0
  190.0720  177.7140  147.1040 N   0  0  0  0  0  2  0  0  0  0  0  0
  187.8210  177.1140  146.8060 O   0  0  0  0  0  0  0  0  0  0  0  0
  188.4240  177.8270  148.8940 O   0  0  0  0  0  1  0  0  0  0  0  0
  186.2410  178.8780  138.5590 O   0  0  0  0  0  0  0  0  0  0  0  0
  186.6790  177.9160  136.4660 C   0  0  0  0  0  3  0  0  0  0  0  0
  185.8800  177.9910  137.5370 C   0  0  0  0  0  0  0  0  0  0  0  0
  184.4690  176.1460  136.5320 C   0  0  0  0  0  0  0  0  0  0  0  0
  184.6560  177.1070  137.6720 C   0  0  0  0  0  2  0  0  0  0  0  0
  186.4240  176.9800  135.3600 C   0  0  0  0  0  3  0  0  0  0  0  0
  185.3880  176.1440  135.3890 C   0  0  0  0  0  3  0  0  0  0  0  0
  183.5050  175.3370  136.5540 O   0  0  0  0  0  0  0  0  0  0  0  0
  185.7820  177.8930  144.0670 O   0  0  0  0  0  0  0  0  0  0  0  0
  185.4920  178.9080  145.0240 C   0  0  0  0  0  2  0  0  0  0  0  0
  183.0120  178.9910  144.8220 C   0  0  0  0  0  1  0  0  0  0  0  0
  184.1730  178.6260  145.7250 C   0  0  0  0  0  2  0  0  0  0  0  0
  1  4  1  0  0  0  0
  2  5  2  0  0  0  0
  3 32  1  0  0  0  0
  4  3  2  0  0  0  0
  5  3  1  0  0  0  0
  6  2  1  0  0  0  0
  6  1  2  0  0  0  0
  7  8  1  0  0  0  0
  8 21  1  0  0  0  0
 10  9  1  6  0  0  0
 10 14  1  0  0  0  0
 10 19  1  0  0  0  0
 12  1  1  1  0  0  0
 12 14  1  0  0  0  0
 13  7  1  0  0  0  0
 14 11  2  0  0  0  0
 15 16  1  0  0  0  0
 15 13  1  0  0  0  0
 16 11  1  6  0  0  0
 16 17  1  0  0  0  0
 17  8  2  0  0  0  0
 18  9  1  0  0  0  0
 18 12  1  0  0  0  0
 19 15  2  0  0  0  0
 20 23  1  0  0  0  0
 21 20  1  0  0  0  0
 22 20  2  0  0  0  0
 24  6  1  0  0  0  0
 25 26  2  0  0  0  0
 26 28  1  0  0  0  0
 26 24  1  0  0  0  0
 27 31  2  0  0  0  0
 27 28  1  0  0  0  0
 29 30  2  0  0  0  0
 29 25  1  0  0  0  0
 30 27  1  0  0  0  0
 32 33  1  0  0  0  0
 33 35  1  0  0  0  0
 34 35  1  0  0  0  0
M  END
>  <MODEL>
3

>  <REMARK>
 VINA RESULT:      -8.1      2.850      4.928
  Name = 
  7 active torsions:
  status: ('A' for Active; 'I' for Inactive)
    1  A    between atoms: C_2  and  C_14
    2  A    between atoms: C_5  and  C_23
    3  A    between atoms: O_6  and  C_7
    4  A    between atoms: O_6  and  C_29
    5  A    between atoms: C_8  and  N_17
    6  A    between atoms: C_14  and  O_31
    7  A    between atoms: C_15  and  O_31
                            x       y       z     vdW  Elec       q    Type
                         _______ _______ _______ _____ _____    ______ ____

>  <TORSDO>
F 7

$$$$
=
 OpenBabel11042410303D

 35 39  0  0  1  0  0  0  0  0999 V2000
  186.5330  178.6670  141.5100 C   0  0  0  0  0  0  0  0  0  0  0  0
  184.2250  178.9680  142.2160 C   0  0  0  0  0  3  0  0  0  0  0  0
  185.8140  177.9010  143.7060 C   0  0  0  0  0  0  0  0  0  0  0  0
  186.8100  178.0590  142.7390 C   0  0  0  0  0  3  0  0  0  0  0  0
  184.5160  178.3590  143.4360 C   0  0  0  0  0  3  0  0  0  0  0  0
  185.2230  179.1280  141.2430 C   0  0  0  0  0  0  0  0  0  0  0  0
  191.9840  175.8430  144.2040 C   0  0  0  0  0  2  0  0  0  0  0  0
  191.2450  176.9130  144.9580 C   0  0  0  0  0  0  0  0  0  0  0  0
  188.5480  176.7880  139.3900 N   0  0  0  0  0  2  0  0  0  0  0  0
  189.6160  177.3360  140.2190 C   0  0  1  0  0  3  0  0  0  0  0  0
  189.4520  178.6780  142.2830 C   0  0  0  0  0  3  0  0  0  0  0  0
  187.6640  178.7700  140.5180 C   0  0  1  0  0  3  0  0  0  0  0  0
  191.3300  175.5470  142.9700 O   0  0  0  0  0  0  0  0  0  0  0  0
  188.9800  178.3740  141.0640 C   0  0  0  0  0  0  0  0  0  0  0  0
  190.7440  176.5620  142.2100 C   0  0  0  0  0  0  0  0  0  0  0  0
  190.6840  177.9690  142.7790 C   0  0  2  0  0  3  0  0  0  0  0  0
  190.6480  177.9040  144.2790 C   0  0  0  0  0  3  0  0  0  0  0  0
  187.4780  177.7960  139.3570 C   0  0  0  0  0  2  0  0  0  0  0  0
  190.2200  176.2900  141.0480 N   0  0  0  0  0  0  0  0  0  0  0  0
  192.0110  175.9960  147.2280 C   0  0  0  0  0  0  0  0  0  0  0  0
  191.2290  176.8590  146.3910 N   0  0  0  0  0  2  0  0  0  0  0  0
  192.8490  175.1950  146.7370 O   0  0  0  0  0  0  0  0  0  0  0  0
  191.8470  176.0530  148.6050 O   0  0  0  0  0  1  0  0  0  0  0  0
  184.9360  179.7640  140.0270 O   0  0  0  0  0  0  0  0  0  0  0  0
  184.0950  178.1790  138.5180 C   0  0  0  0  0  3  0  0  0  0  0  0
  183.9400  179.3590  139.1280 C   0  0  0  0  0  0  0  0  0  0  0  0
  181.6930  179.5830  137.9850 C   0  0  0  0  0  0  0  0  0  0  0  0
  182.7050  180.2090  138.9040 C   0  0  0  0  0  2  0  0  0  0  0  0
  183.0850  177.6320  137.5970 C   0  0  0  0  0  3  0  0  0  0  0  0
  181.9540  178.2890  137.3470 C   0  0  0  0  0  3  0  0  0  0  0  0
  180.6110  180.1820  137.7540 O   0  0  0  0  0  0  0  0  0  0  0  0
  186.1390  177.2850  144.9190 O   0  0  0  0  0  0  0  0  0  0  0  0
  186.4310  178.0100  146.1100 C   0  0  0  0  0  2  0  0  0  0  0  0
  187.9140  178.0900  148.1100 C   0  0  0  0  0  1  0  0  0  0  0  0
  187.7650  177.5700  146.6940 C   0  0  0  0  0  2  0  0  0  0  0  0
  1  4  1  0  0  0  0
  2  5  2  0  0  0  0
  3 32  1  0  0  0  0
  4  3  2  0  0  0  0
  5  3  1  0  0  0  0
  6  1  2  0  0  0  0
  6  2  1  0  0  0  0
  7  8  1  0  0  0  0
  8 21  1  0  0  0  0
 10  9  1  6  0  0  0
 10 19  1  0  0  0  0
 10 14  1  0  0  0  0
 12 14  1  0  0  0  0
 12  1  1  1  0  0  0
 13  7  1  0  0  0  0
 14 11  2  0  0  0  0
 15 16  1  0  0  0  0
 15 13  1  0  0  0  0
 16 11  1  6  0  0  0
 16 17  1  0  0  0  0
 17  8  2  0  0  0  0
 18  9  1  0  0  0  0
 18 12  1  0  0  0  0
 19 15  2  0  0  0  0
 20 23  1  0  0  0  0
 21 20  1  0  0  0  0
 22 20  2  0  0  0  0
 24  6  1  0  0  0  0
 25 26  2  0  0  0  0
 26 24  1  0  0  0  0
 27 28  1  0  0  0  0
 28 26  1  0  0  0  0
 29 25  1  0  0  0  0
 30 29  2  0  0  0  0
 30 27  1  0  0  0  0
 31 27  2  0  0  0  0
 32 33  1  0  0  0  0
 33 35  1  0  0  0  0
 35 34  1  0  0  0  0
M  END
>  <MODEL>
4

>  <REMARK>
 VINA RESULT:      -8.0      2.334      4.301
  Name = 
  7 active torsions:
  status: ('A' for Active; 'I' for Inactive)
    1  A    between atoms: C_2  and  C_14
    2  A    between atoms: C_5  and  C_23
    3  A    between atoms: O_6  and  C_7
    4  A    between atoms: O_6  and  C_29
    5  A    between atoms: C_8  and  N_17
    6  A    between atoms: C_14  and  O_31
    7  A    between atoms: C_15  and  O_31
                            x       y       z     vdW  Elec       q    Type
                         _______ _______ _______ _____ _____    ______ ____

>  <TORSDO>
F 7

$$$$
=
 OpenBabel11042410303D

 35 39  0  0  1  0  0  0  0  0999 V2000
  185.4310  176.5700  137.0700 C   0  0  0  0  0  0  0  0  0  0  0  0
  183.5200  175.5480  138.1750 C   0  0  0  0  0  3  0  0  0  0  0  0
  185.2310  174.1460  137.1790 C   0  0  0  0  0  0  0  0  0  0  0  0
  185.9230  175.2930  136.7800 C   0  0  0  0  0  3  0  0  0  0  0  0
  184.0230  174.2810  137.8780 C   0  0  0  0  0  3  0  0  0  0  0  0
  184.2130  176.7010  137.7760 C   0  0  0  0  0  0  0  0  0  0  0  0
  190.7520  177.3480  141.0750 C   0  0  0  0  0  2  0  0  0  0  0  0
  189.3710  177.2830  141.6670 C   0  0  0  0  0  0  0  0  0  0  0  0
  188.4330  177.4490  135.5530 N   0  0  0  0  0  2  0  0  0  0  0  0
  188.6190  178.2120  136.7820 C   0  0  1  0  0  3  0  0  0  0  0  0
  187.2400  178.2270  138.8290 C   0  0  0  0  0  3  0  0  0  0  0  0
  186.2320  177.7480  136.5760 C   0  0  1  0  0  3  0  0  0  0  0  0
  190.7050  177.1720  139.6590 O   0  0  0  0  0  0  0  0  0  0  0  0
  187.3180  178.1610  137.4910 C   0  0  0  0  0  0  0  0  0  0  0  0
  189.6690  177.7260  138.9040 C   0  0  0  0  0  0  0  0  0  0  0  0
  188.5100  178.3980  139.6200 C   0  0  2  0  0  3  0  0  0  0  0  0
  188.3340  177.7840  140.9790 C   0  0  0  0  0  3  0  0  0  0  0  0
  186.9860  177.4120  135.2920 C   0  0  0  0  0  2  0  0  0  0  0  0
  189.6810  177.6250  137.6040 N   0  0  0  0  0  0  0  0  0  0  0  0
  189.5250  177.3320  144.2270 C   0  0  0  0  0  0  0  0  0  0  0  0
  189.2090  176.7130  142.9730 N   0  0  0  0  0  2  0  0  0  0  0  0
  189.9660  178.5110  144.2810 O   0  0  0  0  0  0  0  0  0  0  0  0
  189.3340  176.6220  145.4040 O   0  0  0  0  0  1  0  0  0  0  0  0
  183.7210  177.9740  138.0970 O   0  0  0  0  0  0  0  0  0  0  0  0
  181.8300  178.6230  139.3220 C   0  0  0  0  0  3  0  0  0  0  0  0
  183.1330  178.3190  139.3210 C   0  0  0  0  0  0  0  0  0  0  0  0
  183.1330  178.5910  141.8370 C   0  0  0  0  0  0  0  0  0  0  0  0
  183.9390  178.2900  140.6050 C   0  0  0  0  0  2  0  0  0  0  0  0
  181.1000  178.9470  140.5580 C   0  0  0  0  0  3  0  0  0  0  0  0
  181.7090  178.9300  141.7420 C   0  0  0  0  0  3  0  0  0  0  0  0
  183.6890  178.5600  142.9650 O   0  0  0  0  0  0  0  0  0  0  0  0
  185.7620  172.8910  136.8640 O   0  0  0  0  0  0  0  0  0  0  0  0
  186.9330  172.7130  136.0730 C   0  0  0  0  0  2  0  0  0  0  0  0
  189.1720  173.4450  136.8790 C   0  0  0  0  0  1  0  0  0  0  0  0
  188.1240  172.3520  136.9480 C   0  0  0  0  0  2  0  0  0  0  0  0
  1  6  1  0  0  0  0
  3  5  2  0  0  0  0
  4  1  2  0  0  0  0
  4  3  1  0  0  0  0
  5  2  1  0  0  0  0
  6 24  1  0  0  0  0
  6  2  2  0  0  0  0
  7  8  1  0  0  0  0
  8 21  1  0  0  0  0
 10  9  1  6  0  0  0
 10 14  1  0  0  0  0
 10 19  1  0  0  0  0
 12  1  1  1  0  0  0
 12 14  1  0  0  0  0
 13  7  1  0  0  0  0
 14 11  2  0  0  0  0
 15 16  1  0  0  0  0
 15 13  1  0  0  0  0
 16 11  1  6  0  0  0
 16 17  1  0  0  0  0
 17  8  2  0  0  0  0
 18  9  1  0  0  0  0
 18 12  1  0  0  0  0
 19 15  2  0  0  0  0
 20 22  2  0  0  0  0
 20 23  1  0  0  0  0
 21 20  1  0  0  0  0
 24 26  1  0  0  0  0
 25 29  1  0  0  0  0
 26 25  2  0  0  0  0
 26 28  1  0  0  0  0
 27 31  2  0  0  0  0
 28 27  1  0  0  0  0
 29 30  2  0  0  0  0
 30 27  1  0  0  0  0
 32  3  1  0  0  0  0
 33 32  1  0  0  0  0
 33 35  1  0  0  0  0
 34 35  1  0  0  0  0
M  END
>  <MODEL>
5

>  <REMARK>
 VINA RESULT:      -7.8      4.284      6.735
  Name = 
  7 active torsions:
  status: ('A' for Active; 'I' for Inactive)
    1  A    between atoms: C_2  and  C_14
    2  A    between atoms: C_5  and  C_23
    3  A    between atoms: O_6  and  C_7
    4  A    between atoms: O_6  and  C_29
    5  A    between atoms: C_8  and  N_17
    6  A    between atoms: C_14  and  O_31
    7  A    between atoms: C_15  and  O_31
                            x       y       z     vdW  Elec       q    Type
                         _______ _______ _______ _____ _____    ______ ____

>  <TORSDO>
F 7

$$$$
=
 OpenBabel11042410303D

 35 39  0  0  1  0  0  0  0  0999 V2000
  187.9070  178.0090  141.0070 C   0  0  0  0  0  0  0  0  0  0  0  0
  187.3000  177.5870  143.3240 C   0  0  0  0  0  3  0  0  0  0  0  0
  189.2220  176.4670  142.3570 C   0  0  0  0  0  0  0  0  0  0  0  0
  188.9800  177.1220  141.1460 C   0  0  0  0  0  3  0  0  0  0  0  0
  188.3730  176.7040  143.4470 C   0  0  0  0  0  3  0  0  0  0  0  0
  187.0550  178.2460  142.1110 C   0  0  0  0  0  0  0  0  0  0  0  0
  191.6220  174.6900  136.5190 C   0  0  0  0  0  2  0  0  0  0  0  0
  192.2610  175.2280  137.7700 C   0  0  0  0  0  0  0  0  0  0  0  0
  186.5030  177.4920  137.8700 N   0  0  0  0  0  2  0  0  0  0  0  0
  187.8800  177.6730  137.4260 C   0  0  1  0  0  3  0  0  0  0  0  0
  189.9350  177.8870  138.7740 C   0  0  0  0  0  3  0  0  0  0  0  0
  187.7080  178.6480  139.6560 C   0  0  1  0  0  3  0  0  0  0  0  0
  190.2180  174.9510  136.5140 O   0  0  0  0  0  0  0  0  0  0  0  0
  188.6290  178.1480  138.6140 C   0  0  0  0  0  0  0  0  0  0  0  0
  189.7130  176.1540  137.0130 C   0  0  0  0  0  0  0  0  0  0  0  0
  190.6600  177.1270  137.6950 C   0  0  2  0  0  3  0  0  0  0  0  0
  191.8050  176.3700  138.3040 C   0  0  0  0  0  3  0  0  0  0  0  0
  186.3350  178.3130  139.0780 C   0  0  0  0  0  2  0  0  0  0  0  0
  188.4380  176.4130  136.9290 N   0  0  0  0  0  0  0  0  0  0  0  0
  194.7530  174.6720  138.0110 C   0  0  0  0  0  0  0  0  0  0  0  0
  193.3660  174.5130  138.3400 N   0  0  0  0  0  2  0  0  0  0  0  0
  195.1320  175.5290  137.1700 O   0  0  0  0  0  0  0  0  0  0  0  0
  195.6970  173.8720  138.6400 O   0  0  0  0  0  1  0  0  0  0  0  0
  185.9910  179.1530  141.9950 O   0  0  0  0  0  0  0  0  0  0  0  0
  184.6330  179.1610  143.9050 C   0  0  0  0  0  3  0  0  0  0  0  0
  184.7310  178.9860  142.5830 C   0  0  0  0  0  0  0  0  0  0  0  0
  182.2270  178.6250  142.5090 C   0  0  0  0  0  0  0  0  0  0  0  0
  183.5140  178.6740  141.7340 C   0  0  0  0  0  2  0  0  0  0  0  0
  183.3480  179.0640  144.6170 C   0  0  0  0  0  3  0  0  0  0  0  0
  182.2160  178.8150  143.9630 C   0  0  0  0  0  3  0  0  0  0  0  0
  181.1460  178.4090  141.9030 O   0  0  0  0  0  0  0  0  0  0  0  0
  190.3060  175.5880  142.4460 O   0  0  0  0  0  0  0  0  0  0  0  0
  191.3330  175.7090  143.4260 C   0  0  0  0  0  2  0  0  0  0  0  0
  191.5850  177.5030  145.1340 C   0  0  0  0  0  1  0  0  0  0  0  0
  191.6840  177.1700  143.6590 C   0  0  0  0  0  2  0  0  0  0  0  0
  1  4  2  0  0  0  0
  1  6  1  0  0  0  0
  2  5  1  0  0  0  0
  3 32  1  0  0  0  0
  3  5  2  0  0  0  0
  4  3  1  0  0  0  0
  6  2  2  0  0  0  0
  7  8  1  0  0  0  0
  8 17  2  0  0  0  0
  8 21  1  0  0  0  0
  9 18  1  0  0  0  0
 10 19  1  1  0  0  0
 10  9  1  0  0  0  0
 10 14  1  0  0  0  0
 12  1  1  1  0  0  0
 13  7  1  0  0  0  0
 13 15  1  0  0  0  0
 14 11  2  0  0  0  0
 14 12  1  0  0  0  0
 15 16  1  0  0  0  0
 16 17  1  1  0  0  0
 16 11  1  0  0  0  0
 18 12  1  0  0  0  0
 19 15  2  0  0  0  0
 20 21  1  0  0  0  0
 20 23  1  0  0  0  0
 22 20  2  0  0  0  0
 24  6  1  0  0  0  0
 24 26  1  0  0  0  0
 25 29  1  0  0  0  0
 26 25  2  0  0  0  0
 27 30  1  0  0  0  0
 28 27  1  0  0  0  0
 28 26  1  0  0  0  0
 30 29  2  0  0  0  0
 31 27  2  0  0  0  0
 32 33  1  0  0  0  0
 33 35  1  0  0  0  0
 35 34  1  0  0  0  0
M  END
>  <MODEL>
6

>  <REMARK>
 VINA RESULT:      -7.8      4.362      7.020
  Name = 
  7 active torsions:
  status: ('A' for Active; 'I' for Inactive)
    1  A    between atoms: C_2  and  C_14
    2  A    between atoms: C_5  and  C_23
    3  A    between atoms: O_6  and  C_7
    4  A    between atoms: O_6  and  C_29
    5  A    between atoms: C_8  and  N_17
    6  A    between atoms: C_14  and  O_31
    7  A    between atoms: C_15  and  O_31
                            x       y       z     vdW  Elec       q    Type
                         _______ _______ _______ _____ _____    ______ ____

>  <TORSDO>
F 7

$$$$
=
 OpenBabel11042410303D

 35 39  0  0  1  0  0  0  0  0999 V2000
  186.9770  178.4290  141.6330 C   0  0  0  0  0  0  0  0  0  0  0  0
  189.0550  177.3910  140.9130 C   0  0  0  0  0  3  0  0  0  0  0  0
  188.2440  177.0300  143.1710 C   0  0  0  0  0  0  0  0  0  0  0  0
  187.1400  177.8390  142.8910 C   0  0  0  0  0  3  0  0  0  0  0  0
  189.2050  176.8100  142.1730 C   0  0  0  0  0  3  0  0  0  0  0  0
  187.9480  178.2030  140.6290 C   0  0  0  0  0  0  0  0  0  0  0  0
  182.5860  175.1490  137.7720 C   0  0  0  0  0  2  0  0  0  0  0  0
  184.0070  175.3210  137.3110 C   0  0  0  0  0  0  0  0  0  0  0  0
  183.6130  178.7540  142.4440 N   0  0  0  0  0  2  0  0  0  0  0  0
  183.4470  178.6970  140.9960 C   0  0  1  0  0  3  0  0  0  0  0  0
  185.1300  178.2280  139.2530 C   0  0  0  0  0  3  0  0  0  0  0  0
  185.7690  179.3080  141.4320 C   0  0  1  0  0  3  0  0  0  0  0  0
  182.4020  175.7110  139.0710 O   0  0  0  0  0  0  0  0  0  0  0  0
  184.8130  178.7930  140.4280 C   0  0  0  0  0  0  0  0  0  0  0  0
  183.0440  176.8980  139.4330 C   0  0  0  0  0  0  0  0  0  0  0  0
  184.0540  177.5130  138.4800 C   0  0  2  0  0  3  0  0  0  0  0  0
  184.6780  176.4330  137.6440 C   0  0  0  0  0  3  0  0  0  0  0  0
  184.9170  179.3840  142.6970 C   0  0  0  0  0  2  0  0  0  0  0  0
  182.8050  177.4420  140.5940 N   0  0  0  0  0  0  0  0  0  0  0  0
  185.3810  173.1860  136.9480 C   0  0  0  0  0  0  0  0  0  0  0  0
  184.5940  174.2960  136.4970 N   0  0  0  0  0  2  0  0  0  0  0  0
  185.6010  172.9950  138.1730 O   0  0  0  0  0  1  0  0  0  0  0  0
  185.9030  172.2990  136.0160 O   0  0  0  0  0  0  0  0  0  0  0  0
  187.7850  178.7660  139.3560 O   0  0  0  0  0  0  0  0  0  0  0  0
  188.7200  178.9290  137.2120 C   0  0  0  0  0  3  0  0  0  0  0  0
  188.1740  178.1550  138.1560 C   0  0  0  0  0  0  0  0  0  0  0  0
  188.5830  176.1540  136.6620 C   0  0  0  0  0  0  0  0  0  0  0  0
  188.0290  176.6580  137.9650 C   0  0  0  0  0  2  0  0  0  0  0  0
  189.2120  178.3830  135.9370 C   0  0  0  0  0  3  0  0  0  0  0  0
  189.1520  177.0790  135.6770 C   0  0  0  0  0  3  0  0  0  0  0  0
  188.5510  174.9220  136.4100 O   0  0  0  0  0  0  0  0  0  0  0  0
  188.3640  176.4640  144.4440 O   0  0  0  0  0  0  0  0  0  0  0  0
  188.9800  177.1310  145.5420 C   0  0  0  0  0  2  0  0  0  0  0  0
  188.6360  177.9120  147.8810 C   0  0  0  0  0  1  0  0  0  0  0  0
  187.9470  177.4950  146.5970 C   0  0  0  0  0  2  0  0  0  0  0  0
  1  4  1  0  0  0  0
  2  5  2  0  0  0  0
  3 32  1  0  0  0  0
  4  3  2  0  0  0  0
  5  3  1  0  0  0  0
  6  2  1  0  0  0  0
  6  1  2  0  0  0  0
  7 13  1  0  0  0  0
  8 17  2  0  0  0  0
  8  7  1  0  0  0  0
  9 18  1  0  0  0  0
 10 14  1  6  0  0  0
 10  9  1  0  0  0  0
 11 14  2  0  0  0  0
 12  1  1  1  0  0  0
 12 18  1  0  0  0  0
 13 15  1  0  0  0  0
 14 12  1  0  0  0  0
 15 19  2  0  0  0  0
 16 17  1  1  0  0  0
 16 11  1  0  0  0  0
 16 15  1  0  0  0  0
 19 10  1  0  0  0  0
 20 22  1  0  0  0  0
 21 20  1  0  0  0  0
 21  8  1  0  0  0  0
 23 20  2  0  0  0  0
 24  6  1  0  0  0  0
 25 26  2  0  0  0  0
 26 24  1  0  0  0  0
 27 28  1  0  0  0  0
 28 26  1  0  0  0  0
 29 25  1  0  0  0  0
 30 29  2  0  0  0  0
 30 27  1  0  0  0  0
 31 27  2  0  0  0  0
 32 33  1  0  0  0  0
 33 35  1  0  0  0  0
 35 34  1  0  0  0  0
M  END
>  <MODEL>
7

>  <REMARK>
 VINA RESULT:      -7.6      3.630      7.460
  Name = 
  7 active torsions:
  status: ('A' for Active; 'I' for Inactive)
    1  A    between atoms: C_2  and  C_14
    2  A    between atoms: C_5  and  C_23
    3  A    between atoms: O_6  and  C_7
    4  A    between atoms: O_6  and  C_29
    5  A    between atoms: C_8  and  N_17
    6  A    between atoms: C_14  and  O_31
    7  A    between atoms: C_15  and  O_31
                            x       y       z     vdW  Elec       q    Type
                         _______ _______ _______ _____ _____    ______ ____

>  <TORSDO>
F 7

$$$$
=
 OpenBabel11042410303D

 35 39  0  0  1  0  0  0  0  0999 V2000
  184.1790  177.7450  138.8730 C   0  0  0  0  0  0  0  0  0  0  0  0
  186.3510  178.6000  138.1890 C   0  0  0  0  0  3  0  0  0  0  0  0
  185.1880  176.9980  136.7880 C   0  0  0  0  0  0  0  0  0  0  0  0
  184.1390  176.9680  137.7110 C   0  0  0  0  0  3  0  0  0  0  0  0
  186.2980  177.8190  137.0350 C   0  0  0  0  0  3  0  0  0  0  0  0
  185.2990  178.5730  139.1180 C   0  0  0  0  0  0  0  0  0  0  0  0
  178.9910  181.1290  136.3060 C   0  0  0  0  0  2  0  0  0  0  0  0
  180.3220  181.8100  136.4700 C   0  0  0  0  0  0  0  0  0  0  0  0
  181.0290  176.3240  139.2450 N   0  0  0  0  0  2  0  0  0  0  0  0
  180.6170  177.7170  139.3780 C   0  0  1  0  0  3  0  0  0  0  0  0
  181.9470  179.7700  139.0560 C   0  0  0  0  0  3  0  0  0  0  0  0
  183.0150  177.6270  139.8240 C   0  0  1  0  0  3  0  0  0  0  0  0
  179.0670  179.7610  136.7080 O   0  0  0  0  0  0  0  0  0  0  0  0
  181.8710  178.5010  139.4830 C   0  0  0  0  0  0  0  0  0  0  0  0
  179.8380  179.3820  137.8100 C   0  0  0  0  0  0  0  0  0  0  0  0
  180.7110  180.4200  138.4930 C   0  0  2  0  0  3  0  0  0  0  0  0
  181.1120  181.4730  137.5000 C   0  0  0  0  0  3  0  0  0  0  0  0
  182.3950  176.2330  139.7790 C   0  0  0  0  0  2  0  0  0  0  0  0
  179.8350  178.1430  138.2140 N   0  0  0  0  0  0  0  0  0  0  0  0
  180.8020  184.2340  135.7860 C   0  0  0  0  0  0  0  0  0  0  0  0
  180.6950  182.8270  135.5310 N   0  0  0  0  0  2  0  0  0  0  0  0
  180.5980  184.7080  136.9350 O   0  0  0  0  0  1  0  0  0  0  0  0
  181.1470  185.0890  134.7480 O   0  0  0  0  0  0  0  0  0  0  0  0
  185.3420  179.3770  140.2650 O   0  0  0  0  0  0  0  0  0  0  0  0
  184.7570  179.0120  142.5050 C   0  0  0  0  0  3  0  0  0  0  0  0
  185.6850  178.9260  141.5460 C   0  0  0  0  0  0  0  0  0  0  0  0
  187.2130  177.7910  143.2130 C   0  0  0  0  0  0  0  0  0  0  0  0
  187.0450  178.3110  141.8130 C   0  0  0  0  0  2  0  0  0  0  0  0
  184.9930  178.5190  143.8720 C   0  0  0  0  0  3  0  0  0  0  0  0
  186.1450  177.9420  144.2070 C   0  0  0  0  0  3  0  0  0  0  0  0
  188.2890  177.2260  143.5400 O   0  0  0  0  0  0  0  0  0  0  0  0
  185.1040  176.2020  135.6410 O   0  0  0  0  0  0  0  0  0  0  0  0
  184.8120  174.8080  135.6760 C   0  0  0  0  0  2  0  0  0  0  0  0
  185.3060  173.2950  137.5910 C   0  0  0  0  0  1  0  0  0  0  0  0
  185.9010  174.0490  136.4190 C   0  0  0  0  0  2  0  0  0  0  0  0
  1  6  1  0  0  0  0
  2  6  2  0  0  0  0
  3  5  2  0  0  0  0
  3  4  1  0  0  0  0
  4  1  2  0  0  0  0
  5  2  1  0  0  0  0
  6 24  1  0  0  0  0
  7  8  1  0  0  0  0
  7 13  1  0  0  0  0
  8 17  2  0  0  0  0
  9 10  1  0  0  0  0
  9 18  1  0  0  0  0
 10 19  1  6  0  0  0
 10 14  1  0  0  0  0
 11 14  2  0  0  0  0
 12  1  1  6  0  0  0
 13 15  1  0  0  0  0
 14 12  1  0  0  0  0
 15 19  2  0  0  0  0
 15 16  1  0  0  0  0
 16 17  1  6  0  0  0
 16 11  1  0  0  0  0
 18 12  1  0  0  0  0
 20 22  1  0  0  0  0
 21 20  1  0  0  0  0
 21  8  1  0  0  0  0
 23 20  2  0  0  0  0
 24 26  1  0  0  0  0
 25 29  1  0  0  0  0
 26 28  1  0  0  0  0
 26 25  2  0  0  0  0
 27 31  2  0  0  0  0
 27 30  1  0  0  0  0
 28 27  1  0  0  0  0
 29 30  2  0  0  0  0
 32 33  1  0  0  0  0
 32  3  1  0  0  0  0
 33 35  1  0  0  0  0
 35 34  1  0  0  0  0
M  END
>  <MODEL>
8

>  <REMARK>
 VINA RESULT:      -7.6      4.518     10.209
  Name = 
  7 active torsions:
  status: ('A' for Active; 'I' for Inactive)
    1  A    between atoms: C_2  and  C_14
    2  A    between atoms: C_5  and  C_23
    3  A    between atoms: O_6  and  C_7
    4  A    between atoms: O_6  and  C_29
    5  A    between atoms: C_8  and  N_17
    6  A    between atoms: C_14  and  O_31
    7  A    between atoms: C_15  and  O_31
                            x       y       z     vdW  Elec       q    Type
                         _______ _______ _______ _____ _____    ______ ____

>  <TORSDO>
F 7

$$$$
=
 OpenBabel11042410303D

 35 39  0  0  1  0  0  0  0  0999 V2000
  184.2400  178.5680  139.8640 C   0  0  0  0  0  0  0  0  0  0  0  0
  182.9200  178.6370  141.9060 C   0  0  0  0  0  3  0  0  0  0  0  0
  185.3400  178.5390  142.0360 C   0  0  0  0  0  0  0  0  0  0  0  0
  185.4040  178.5260  140.6400 C   0  0  0  0  0  3  0  0  0  0  0  0
  184.0890  178.5930  142.6660 C   0  0  0  0  0  3  0  0  0  0  0  0
  182.9800  178.6240  140.5040 C   0  0  0  0  0  0  0  0  0  0  0  0
  190.3450  176.1720  138.4710 C   0  0  0  0  0  2  0  0  0  0  0  0
  190.1950  177.3430  139.4030 C   0  0  0  0  0  0  0  0  0  0  0  0
  184.5040  176.3970  137.1630 N   0  0  0  0  0  2  0  0  0  0  0  0
  185.7920  177.0610  136.9900 C   0  0  1  0  0  3  0  0  0  0  0  0
  186.9110  178.6930  138.4620 C   0  0  0  0  0  3  0  0  0  0  0  0
  184.4050  178.5230  138.3660 C   0  0  1  0  0  3  0  0  0  0  0  0
  189.0690  175.6970  138.0420 O   0  0  0  0  0  0  0  0  0  0  0  0
  185.7810  178.2130  137.9230 C   0  0  0  0  0  0  0  0  0  0  0  0
  188.0290  176.5900  137.7700 C   0  0  0  0  0  0  0  0  0  0  0  0
  188.2240  178.0650  138.0730 C   0  0  2  0  0  3  0  0  0  0  0  0
  189.2030  178.2230  139.2010 C   0  0  0  0  0  3  0  0  0  0  0  0
  183.5910  177.3880  137.7490 C   0  0  0  0  0  2  0  0  0  0  0  0
  186.8950  176.1490  137.3030 N   0  0  0  0  0  0  0  0  0  0  0  0
  191.0940  176.8810  141.7600 C   0  0  0  0  0  0  0  0  0  0  0  0
  191.1420  177.5010  140.4680 N   0  0  0  0  0  2  0  0  0  0  0  0
  190.1770  176.0730  142.0640 O   0  0  0  0  0  0  0  0  0  0  0  0
  192.0830  177.1700  142.6900 O   0  0  0  0  0  1  0  0  0  0  0  0
  181.8060  178.6930  139.7410 O   0  0  0  0  0  0  0  0  0  0  0  0
  180.0480  180.1770  140.1900 C   0  0  0  0  0  3  0  0  0  0  0  0
  181.1150  179.8750  139.4420 C   0  0  0  0  0  0  0  0  0  0  0  0
  180.8030  182.0700  138.2220 C   0  0  0  0  0  0  0  0  0  0  0  0
  181.6000  180.8020  138.3450 C   0  0  0  0  0  2  0  0  0  0  0  0
  179.2810  181.4190  139.9980 C   0  0  0  0  0  3  0  0  0  0  0  0
  179.6360  182.3120  139.0770 C   0  0  0  0  0  3  0  0  0  0  0  0
  181.1360  182.9320  137.3680 O   0  0  0  0  0  0  0  0  0  0  0  0
  186.5310  178.4940  142.7680 O   0  0  0  0  0  0  0  0  0  0  0  0
  187.1230  177.2820  143.2250 C   0  0  0  0  0  2  0  0  0  0  0  0
  186.4590  178.0140  145.5100 C   0  0  0  0  0  1  0  0  0  0  0  0
  187.5690  177.4130  144.6730 C   0  0  0  0  0  2  0  0  0  0  0  0
  1  6  2  0  0  0  0
  1  4  1  0  0  0  0
  2  5  2  0  0  0  0
  3  5  1  0  0  0  0
  3 32  1  0  0  0  0
  4  3  2  0  0  0  0
  6  2  1  0  0  0  0
  7  8  1  0  0  0  0
  8 21  1  0  0  0  0
  9 18  1  0  0  0  0
 10  9  1  1  0  0  0
 10 19  1  0  0  0  0
 10 14  1  0  0  0  0
 12  1  1  1  0  0  0
 13  7  1  0  0  0  0
 14 12  1  0  0  0  0
 14 11  2  0  0  0  0
 15 13  1  0  0  0  0
 15 16  1  0  0  0  0
 16 11  1  1  0  0  0
 16 17  1  0  0  0  0
 17  8  2  0  0  0  0
 18 12  1  0  0  0  0
 19 15  2  0  0  0  0
 20 22  2  0  0  0  0
 20 23  1  0  0  0  0
 21 20  1  0  0  0  0
 24  6  1  0  0  0  0
 26 24  1  0  0  0  0
 26 25  2  0  0  0  0
 27 28  1  0  0  0  0
 27 30  1  0  0  0  0
 28 26  1  0  0  0  0
 29 25  1  0  0  0  0
 30 29  2  0  0  0  0
 31 27  2  0  0  0  0
 32 33  1  0  0  0  0
 33 35  1  0  0  0  0
 35 34  1  0  0  0  0
M  END
>  <MODEL>
9

>  <REMARK>
 VINA RESULT:      -7.3      3.628      6.466
  Name = 
  7 active torsions:
  status: ('A' for Active; 'I' for Inactive)
    1  A    between atoms: C_2  and  C_14
    2  A    between atoms: C_5  and  C_23
    3  A    between atoms: O_6  and  C_7
    4  A    between atoms: O_6  and  C_29
    5  A    between atoms: C_8  and  N_17
    6  A    between atoms: C_14  and  O_31
    7  A    between atoms: C_15  and  O_31
                            x       y       z     vdW  Elec       q    Type
                         _______ _______ _______ _____ _____    ______ ____

>  <TORSDO>
F 7

$$$$
