=
 OpenBabel11042412333D

 41 45  0  0  1  0  0  0  0  0999 V2000
  187.8910  177.9990  143.5500 C   0  0  2  0  0  3  0  0  0  0  0  0
  186.6700  177.4330  144.2590 C   0  0  0  0  0  2  0  0  0  0  0  0
  185.7130  178.5500  144.6650 C   0  0  1  0  0  3  0  0  0  0  0  0
  183.3730  178.4310  141.6400 C   0  0  0  0  0  3  0  0  0  0  0  0
  183.2380  178.8810  144.3960 C   0  0  0  0  0  3  0  0  0  0  0  0
  182.1440  178.7080  142.2420 C   0  0  0  0  0  3  0  0  0  0  0  0
  184.5370  178.3770  142.4150 C   0  0  0  0  0  3  0  0  0  0  0  0
  182.0760  178.9320  143.6200 C   0  0  0  0  0  3  0  0  0  0  0  0
  184.4760  178.6050  143.7990 C   0  0  0  0  0  0  0  0  0  0  0  0
  185.4480  179.7440  146.6250 O   0  0  0  0  0  1  0  0  0  0  0  0
  185.4370  178.4890  146.1090 N   0  0  0  0  0  0  0  0  0  0  0  0
  186.4860  177.7300  146.7780 C   0  0  0  0  0  2  0  0  0  0  0  0
  186.9980  178.4880  147.9940 C   0  0  0  0  0  2  0  0  0  0  0  0
  188.7210  176.7430  147.6870 C   0  0  0  0  0  2  0  0  0  0  0  0
  189.4210  178.0500  147.9920 C   0  0  0  0  0  2  0  0  0  0  0  0
  188.1140  177.7170  148.6740 C   0  0  0  0  0  3  0  0  0  0  0  0
  188.0100  177.4230  142.1430 C   0  0  0  0  0  2  0  0  0  0  0  0
  187.8840  178.4980  141.0760 C   0  0  0  0  0  2  0  0  0  0  0  0
  187.0920  176.6700  136.2870 N   0  0  0  0  0  0  0  0  0  0  0  0
  186.4890  177.9380  138.3170 C   0  0  0  0  0  2  0  0  0  0  0  0
  187.9250  177.7620  138.6880 C   0  0  0  0  0  0  0  0  0  0  0  0
  188.5260  178.0530  139.8490 N   0  0  0  0  0  0  0  0  0  0  0  0
  190.0690  177.3250  138.4950 C   0  0  0  0  0  3  0  0  0  0  0  0
  184.7930  176.7570  136.7880 N   0  0  0  0  0  2  0  0  0  0  0  0
  188.8610  177.3050  137.8200 C   0  0  0  0  0  0  0  0  0  0  0  0
  189.8210  177.7800  139.7470 N   0  0  0  0  0  0  0  0  0  0  0  0
  186.1530  177.1050  137.0920 C   0  0  0  0  0  0  0  0  0  0  0  0
  188.5340  176.9440  136.4150 C   0  0  0  0  0  2  0  0  0  0  0  0
  183.0240  176.0480  138.4330 C   0  0  0  0  0  2  0  0  0  0  0  0
  180.9900  175.4300  139.7650 C   0  0  0  0  0  1  0  0  0  0  0  0
  183.0210  178.2980  137.3930 C   0  0  0  0  0  3  0  0  0  0  0  0
  181.7110  176.4100  138.9770 N   0  0  0  0  0  0  0  0  0  0  0  0
  181.7900  178.6440  138.1170 C   0  0  0  0  0  3  0  0  0  0  0  0
  181.1750  177.7340  138.8650 C   0  0  0  0  0  3  0  0  0  0  0  0
  183.5920  177.0910  137.5020 C   0  0  0  0  0  0  0  0  0  0  0  0
  189.0580  177.7420  144.3160 O   0  0  0  0  0  0  0  0  0  0  0  0
  190.2460  178.4230  144.0620 C   0  0  0  0  0  3  0  0  0  0  0  0
  191.4180  177.9320  144.4530 C   0  0  0  0  0  3  0  0  0  0  0  0
  191.5180  176.6380  145.1830 C   0  0  0  0  0  2  0  0  0  0  0  0
  192.0400  176.8620  146.4600 O   0  0  0  0  0  0  0  0  0  0  0  0
  192.2400  175.5900  146.9910 C   0  0  0  0  0  1  0  0  0  0  0  0
  1 17  1  6  0  0  0
  1  2  1  0  0  0  0
  1 36  1  0  0  0  0
  3  2  1  6  0  0  0
  3 11  1  0  0  0  0
  4  6  2  0  0  0  0
  4  7  1  0  0  0  0
  6  8  1  0  0  0  0
  7  9  2  0  0  0  0
  8  5  2  0  0  0  0
  9  5  1  0  0  0  0
  9  3  1  0  0  0  0
 11 10  1  0  0  0  0
 11 12  1  0  0  0  0
 12 13  1  0  0  0  0
 13 16  1  0  0  0  0
 14 15  1  0  0  0  0
 14 16  1  0  0  0  0
 15 16  1  0  0  0  0
 18 17  1  0  0  0  0
 19 28  1  0  0  0  0
 19 27  2  0  0  0  0
 20 21  1  0  0  0  0
 21 22  1  0  0  0  0
 22 18  1  0  0  0  0
 23 26  2  0  0  0  0
 24 27  1  0  0  0  0
 24 35  1  0  0  0  0
 25 23  1  0  0  0  0
 25 21  2  0  0  0  0
 26 22  1  0  0  0  0
 27 20  1  0  0  0  0
 28 25  1  0  0  0  0
 29 32  1  0  0  0  0
 31 35  2  0  0  0  0
 31 33  1  0  0  0  0
 32 30  1  0  0  0  0
 33 34  2  0  0  0  0
 34 32  1  0  0  0  0
 35 29  1  0  0  0  0
 37 36  1  0  0  0  0
 37 38  2  0  0  0  0
 38 39  1  0  0  0  0
 39 40  1  0  0  0  0
 40 41  1  0  0  0  0
M  END
>  <MODEL>
1

>  <REMARK>
 VINA RESULT:      -8.4      0.000      0.000
  Name = 
  15 active torsions:
  status: ('A' for Active; 'I' for Inactive)
    1  A    between atoms: C_1  and  O_29
    2  A    between atoms: C_1  and  C_38
    3  A    between atoms: C_4  and  N_20
    4  A    between atoms: C_4  and  C_22
    5  A    between atoms: C_6  and  O_24
    6  A    between atoms: C_7  and  C_14
    7  A    between atoms: C_7  and  C_22
    8  A    between atoms: C_7  and  O_24
    9  A    between atoms: C_8  and  N_18
   10  A    between atoms: C_8  and  C_21
   11  A    between atoms: C_14  and  C_19
   12  A    between atoms: N_18  and  C_19
   13  A    between atoms: C_19  and  C_37
   14  A    between atoms: C_21  and  C_27
   15  A    between atoms: N_26  and  C_41
                            x       y       z     vdW  Elec       q    Type
                         _______ _______ _______ _____ _____    ______ ____

>  <TORSDO>
F 15

$$$$
=
 OpenBabel11042412333D

 41 45  0  0  1  0  0  0  0  0999 V2000
  187.9040  177.9590  143.2040 C   0  0  2  0  0  3  0  0  0  0  0  0
  186.7560  177.3580  144.0020 C   0  0  0  0  0  2  0  0  0  0  0  0
  185.8590  178.4540  144.5680 C   0  0  1  0  0  3  0  0  0  0  0  0
  182.1430  178.9600  143.8090 C   0  0  0  0  0  3  0  0  0  0  0  0
  184.5180  178.3950  142.4460 C   0  0  0  0  0  3  0  0  0  0  0  0
  182.1270  178.7830  142.4240 C   0  0  0  0  0  3  0  0  0  0  0  0
  183.3460  178.8550  144.5150 C   0  0  0  0  0  3  0  0  0  0  0  0
  183.3140  178.5020  141.7420 C   0  0  0  0  0  3  0  0  0  0  0  0
  184.5420  178.5690  143.8370 C   0  0  0  0  0  0  0  0  0  0  0  0
  185.6560  179.5350  146.6000 O   0  0  0  0  0  1  0  0  0  0  0  0
  185.7290  178.3070  146.0270 N   0  0  0  0  0  0  0  0  0  0  0  0
  186.9120  177.6430  146.5600 C   0  0  0  0  0  2  0  0  0  0  0  0
  187.2890  178.2340  147.9110 C   0  0  0  0  0  2  0  0  0  0  0  0
  189.1010  176.5860  147.5760 C   0  0  0  0  0  2  0  0  0  0  0  0
  189.5600  177.9140  147.0130 C   0  0  0  0  0  2  0  0  0  0  0  0
  188.7200  177.8760  148.2690 C   0  0  0  0  0  3  0  0  0  0  0  0
  187.8350  177.5160  141.7470 C   0  0  0  0  0  2  0  0  0  0  0  0
  187.4710  178.6650  140.8200 C   0  0  0  0  0  2  0  0  0  0  0  0
  186.2830  176.9440  136.0730 N   0  0  0  0  0  0  0  0  0  0  0  0
  185.7870  177.9830  138.2560 C   0  0  0  0  0  2  0  0  0  0  0  0
  187.2710  178.0590  138.4030 C   0  0  0  0  0  0  0  0  0  0  0  0
  187.9840  178.4030  139.4840 N   0  0  0  0  0  0  0  0  0  0  0  0
  189.4020  178.0350  137.8730 C   0  0  0  0  0  3  0  0  0  0  0  0
  184.1090  176.5800  136.9040 N   0  0  0  0  0  2  0  0  0  0  0  0
  188.1270  177.8230  137.3790 C   0  0  0  0  0  0  0  0  0  0  0  0
  189.2750  178.3790  139.1780 N   0  0  0  0  0  0  0  0  0  0  0  0
  185.4170  177.1590  137.0340 C   0  0  0  0  0  0  0  0  0  0  0  0
  187.6560  177.4730  136.0130 C   0  0  0  0  0  2  0  0  0  0  0  0
  182.0850  177.8520  137.6930 C   0  0  0  0  0  2  0  0  0  0  0  0
  180.2510  179.1070  138.8560 C   0  0  0  0  0  1  0  0  0  0  0  0
  182.7290  175.6710  138.6790 C   0  0  0  0  0  3  0  0  0  0  0  0
  181.0860  177.9250  138.7630 N   0  0  0  0  0  0  0  0  0  0  0  0
  181.5910  175.7410  139.6060 C   0  0  0  0  0  3  0  0  0  0  0  0
  180.8190  176.8230  139.6380 C   0  0  0  0  0  3  0  0  0  0  0  0
  182.9930  176.6530  137.8060 C   0  0  0  0  0  0  0  0  0  0  0  0
  189.1440  177.6020  143.7960 O   0  0  0  0  0  0  0  0  0  0  0  0
  189.6370  176.3020  143.6990 C   0  0  0  0  0  3  0  0  0  0  0  0
  190.8360  176.0580  143.1830 C   0  0  0  0  0  3  0  0  0  0  0  0
  191.7080  177.1560  142.6800 C   0  0  0  0  0  2  0  0  0  0  0  0
  191.3170  177.5060  141.3840 O   0  0  0  0  0  0  0  0  0  0  0  0
  192.4980  177.5050  140.6450 C   0  0  0  0  0  1  0  0  0  0  0  0
  1 17  1  6  0  0  0
  1 36  1  0  0  0  0
  1  2  1  0  0  0  0
  3  2  1  6  0  0  0
  3 11  1  0  0  0  0
  4  7  1  0  0  0  0
  5  9  1  0  0  0  0
  6  4  2  0  0  0  0
  8  6  1  0  0  0  0
  8  5  2  0  0  0  0
  9  7  2  0  0  0  0
  9  3  1  0  0  0  0
 11 12  1  0  0  0  0
 11 10  1  0  0  0  0
 12 13  1  0  0  0  0
 13 16  1  0  0  0  0
 14 16  1  0  0  0  0
 15 14  1  0  0  0  0
 15 16  1  0  0  0  0
 18 17  1  0  0  0  0
 19 27  2  0  0  0  0
 20 21  1  0  0  0  0
 21 22  1  0  0  0  0
 22 18  1  0  0  0  0
 23 26  2  0  0  0  0
 24 27  1  0  0  0  0
 24 35  1  0  0  0  0
 25 23  1  0  0  0  0
 25 21  2  0  0  0  0
 26 22  1  0  0  0  0
 27 20  1  0  0  0  0
 28 19  1  0  0  0  0
 28 25  1  0  0  0  0
 29 35  1  0  0  0  0
 29 32  1  0  0  0  0
 31 33  1  0  0  0  0
 32 30  1  0  0  0  0
 32 34  1  0  0  0  0
 33 34  2  0  0  0  0
 35 31  2  0  0  0  0
 37 36  1  0  0  0  0
 38 37  2  0  0  0  0
 39 38  1  0  0  0  0
 40 39  1  0  0  0  0
 41 40  1  0  0  0  0
M  END
>  <MODEL>
2

>  <REMARK>
 VINA RESULT:      -7.9      1.205      2.015
  Name = 
  15 active torsions:
  status: ('A' for Active; 'I' for Inactive)
    1  A    between atoms: C_1  and  O_29
    2  A    between atoms: C_1  and  C_38
    3  A    between atoms: C_4  and  N_20
    4  A    between atoms: C_4  and  C_22
    5  A    between atoms: C_6  and  O_24
    6  A    between atoms: C_7  and  C_14
    7  A    between atoms: C_7  and  C_22
    8  A    between atoms: C_7  and  O_24
    9  A    between atoms: C_8  and  N_18
   10  A    between atoms: C_8  and  C_21
   11  A    between atoms: C_14  and  C_19
   12  A    between atoms: N_18  and  C_19
   13  A    between atoms: C_19  and  C_37
   14  A    between atoms: C_21  and  C_27
   15  A    between atoms: N_26  and  C_41
                            x       y       z     vdW  Elec       q    Type
                         _______ _______ _______ _____ _____    ______ ____

>  <TORSDO>
F 15

$$$$
=
 OpenBabel11042412333D

 41 45  0  0  1  0  0  0  0  0999 V2000
  183.7670  178.6340  141.2910 C   0  0  2  0  0  3  0  0  0  0  0  0
  183.3380  177.4390  140.4520 C   0  0  0  0  0  2  0  0  0  0  0  0
  181.8540  177.5230  140.1090 C   0  0  1  0  0  3  0  0  0  0  0  0
  181.5120  180.8030  138.1690 C   0  0  0  0  0  3  0  0  0  0  0  0
  180.4980  179.6030  140.4820 C   0  0  0  0  0  3  0  0  0  0  0  0
  180.5880  181.4870  138.9620 C   0  0  0  0  0  3  0  0  0  0  0  0
  181.9300  179.5180  138.5310 C   0  0  0  0  0  3  0  0  0  0  0  0
  180.0800  180.8870  140.1180 C   0  0  0  0  0  3  0  0  0  0  0  0
  181.4270  178.9110  139.6920 C   0  0  0  0  0  0  0  0  0  0  0  0
  180.8620  175.4580  139.8090 O   0  0  0  0  0  1  0  0  0  0  0  0
  181.4890  176.4660  139.1520 N   0  0  0  0  0  0  0  0  0  0  0  0
  182.6950  175.9130  138.5480 C   0  0  0  0  0  2  0  0  0  0  0  0
  182.5160  175.7670  137.0440 C   0  0  0  0  0  2  0  0  0  0  0  0
  184.4970  177.2450  137.0200 C   0  0  0  0  0  2  0  0  0  0  0  0
  184.5210  176.4020  135.7630 C   0  0  0  0  0  2  0  0  0  0  0  0
  183.2040  176.9040  136.3110 C   0  0  0  0  0  3  0  0  0  0  0  0
  185.0480  179.2470  140.7370 C   0  0  0  0  0  2  0  0  0  0  0  0
  186.2870  178.6830  141.4150 C   0  0  0  0  0  2  0  0  0  0  0  0
  191.1570  177.0710  140.6460 N   0  0  0  0  0  0  0  0  0  0  0  0
  189.0480  177.2660  141.9120 C   0  0  0  0  0  2  0  0  0  0  0  0
  188.4860  177.7900  140.6310 C   0  0  0  0  0  0  0  0  0  0  0  0
  187.2860  178.3450  140.4130 N   0  0  0  0  0  0  0  0  0  0  0  0
  188.3050  178.2490  138.4910 C   0  0  0  0  0  3  0  0  0  0  0  0
  191.3720  177.0590  142.9910 N   0  0  0  0  0  2  0  0  0  0  0  0
  189.1480  177.7160  139.4500 C   0  0  0  0  0  0  0  0  0  0  0  0
  187.1720  178.6380  139.1240 N   0  0  0  0  0  0  0  0  0  0  0  0
  190.5570  177.1250  141.8100 C   0  0  0  0  0  0  0  0  0  0  0  0
  190.4940  177.0960  139.3310 C   0  0  0  0  0  2  0  0  0  0  0  0
  191.8870  176.4580  145.3800 C   0  0  0  0  0  2  0  0  0  0  0  0
  192.0270  175.6700  147.7580 C   0  0  0  0  0  1  0  0  0  0  0  0
  189.8630  177.7460  144.7600 C   0  0  0  0  0  3  0  0  0  0  0  0
  191.3150  176.4020  146.7290 N   0  0  0  0  0  0  0  0  0  0  0  0
  189.4470  177.7940  146.1690 C   0  0  0  0  0  3  0  0  0  0  0  0
  190.1460  177.1460  147.0950 C   0  0  0  0  0  3  0  0  0  0  0  0
  190.9730  177.1060  144.3700 C   0  0  0  0  0  0  0  0  0  0  0  0
  183.9220  178.2430  142.6470 O   0  0  0  0  0  0  0  0  0  0  0  0
  183.1410  178.8110  143.6500 C   0  0  0  0  0  3  0  0  0  0  0  0
  183.6520  179.0910  144.8450 C   0  0  0  0  0  3  0  0  0  0  0  0
  185.0780  178.8080  145.1700 C   0  0  0  0  0  2  0  0  0  0  0  0
  185.4380  179.5000  146.3290 O   0  0  0  0  0  0  0  0  0  0  0  0
  185.9970  178.5320  147.1610 C   0  0  0  0  0  1  0  0  0  0  0  0
  1  2  1  6  0  0  0
  1 36  1  0  0  0  0
  3  2  1  6  0  0  0
  4  7  2  0  0  0  0
  4  6  1  0  0  0  0
  6  8  2  0  0  0  0
  7  9  1  0  0  0  0
  8  5  1  0  0  0  0
  9  3  1  0  0  0  0
  9  5  2  0  0  0  0
 11 10  1  0  0  0  0
 11  3  1  0  0  0  0
 12 11  1  0  0  0  0
 13 12  1  0  0  0  0
 15 16  1  0  0  0  0
 15 14  1  0  0  0  0
 16 14  1  0  0  0  0
 16 13  1  0  0  0  0
 17  1  1  0  0  0  0
 17 18  1  0  0  0  0
 19 27  2  0  0  0  0
 21 20  1  0  0  0  0
 22 21  1  0  0  0  0
 22 18  1  0  0  0  0
 23 26  2  0  0  0  0
 23 25  1  0  0  0  0
 24 35  1  0  0  0  0
 25 21  2  0  0  0  0
 26 22  1  0  0  0  0
 27 20  1  0  0  0  0
 27 24  1  0  0  0  0
 28 25  1  0  0  0  0
 28 19  1  0  0  0  0
 29 32  1  0  0  0  0
 31 33  1  0  0  0  0
 32 34  1  0  0  0  0
 32 30  1  0  0  0  0
 33 34  2  0  0  0  0
 35 31  2  0  0  0  0
 35 29  1  0  0  0  0
 36 37  1  0  0  0  0
 37 38  2  0  0  0  0
 38 39  1  0  0  0  0
 39 40  1  0  0  0  0
 40 41  1  0  0  0  0
M  END
>  <MODEL>
3

>  <REMARK>
 VINA RESULT:      -7.4      2.457      7.885
  Name = 
  15 active torsions:
  status: ('A' for Active; 'I' for Inactive)
    1  A    between atoms: C_1  and  O_29
    2  A    between atoms: C_1  and  C_38
    3  A    between atoms: C_4  and  N_20
    4  A    between atoms: C_4  and  C_22
    5  A    between atoms: C_6  and  O_24
    6  A    between atoms: C_7  and  C_14
    7  A    between atoms: C_7  and  C_22
    8  A    between atoms: C_7  and  O_24
    9  A    between atoms: C_8  and  N_18
   10  A    between atoms: C_8  and  C_21
   11  A    between atoms: C_14  and  C_19
   12  A    between atoms: N_18  and  C_19
   13  A    between atoms: C_19  and  C_37
   14  A    between atoms: C_21  and  C_27
   15  A    between atoms: N_26  and  C_41
                            x       y       z     vdW  Elec       q    Type
                         _______ _______ _______ _____ _____    ______ ____

>  <TORSDO>
F 15

$$$$
=
 OpenBabel11042412333D

 41 45  0  0  1  0  0  0  0  0999 V2000
  188.4370  177.0760  142.0840 C   0  0  2  0  0  3  0  0  0  0  0  0
  189.0040  176.5520  143.3950 C   0  0  0  0  0  2  0  0  0  0  0  0
  189.4180  177.7050  144.3050 C   0  0  1  0  0  3  0  0  0  0  0  0
  186.3020  178.0280  146.5020 C   0  0  0  0  0  3  0  0  0  0  0  0
  189.0840  177.9650  146.7800 C   0  0  0  0  0  3  0  0  0  0  0  0
  186.8790  178.1350  147.7690 C   0  0  0  0  0  3  0  0  0  0  0  0
  187.1150  177.8880  145.3720 C   0  0  0  0  0  3  0  0  0  0  0  0
  188.2700  178.1020  147.9090 C   0  0  0  0  0  3  0  0  0  0  0  0
  188.5120  177.8590  145.5040 C   0  0  0  0  0  0  0  0  0  0  0  0
  191.5270  178.6040  144.0150 O   0  0  0  0  0  1  0  0  0  0  0  0
  190.8490  177.6070  144.6370 N   0  0  0  0  0  0  0  0  0  0  0  0
  191.3800  176.3420  144.1460 C   0  0  0  0  0  2  0  0  0  0  0  0
  192.0450  175.5710  145.2780 C   0  0  0  0  0  2  0  0  0  0  0  0
  191.2360  175.3930  147.6070 C   0  0  0  0  0  2  0  0  0  0  0  0
  192.7320  175.6260  147.6420 C   0  0  0  0  0  2  0  0  0  0  0  0
  191.8850  176.3110  146.5930 C   0  0  0  0  0  3  0  0  0  0  0  0
  189.4840  177.8930  141.3350 C   0  0  0  0  0  2  0  0  0  0  0  0
  190.2230  177.0580  140.3010 C   0  0  0  0  0  2  0  0  0  0  0  0
  190.9470  176.3150  135.2190 N   0  0  0  0  0  0  0  0  0  0  0  0
  191.0880  175.6970  137.6040 C   0  0  0  0  0  2  0  0  0  0  0  0
  190.1400  176.8320  137.8130 C   0  0  0  0  0  0  0  0  0  0  0  0
  189.7330  177.3740  138.9690 N   0  0  0  0  0  0  0  0  0  0  0  0
  188.6760  178.4080  137.3690 C   0  0  0  0  0  3  0  0  0  0  0  0
  192.8010  174.9940  135.8210 N   0  0  0  0  0  2  0  0  0  0  0  0
  189.4980  177.4550  136.7950 C   0  0  0  0  0  0  0  0  0  0  0  0
  188.8570  178.3370  138.7110 N   0  0  0  0  0  0  0  0  0  0  0  0
  191.5920  175.6850  136.1710 C   0  0  0  0  0  0  0  0  0  0  0  0
  189.6820  177.0530  135.3750 C   0  0  0  0  0  2  0  0  0  0  0  0
  193.9170  172.7930  136.3200 C   0  0  0  0  0  2  0  0  0  0  0  0
  194.8530  170.6360  137.1960 C   0  0  0  0  0  1  0  0  0  0  0  0
  194.3450  174.8180  137.6830 C   0  0  0  0  0  3  0  0  0  0  0  0
  194.6950  172.0710  137.3310 N   0  0  0  0  0  0  0  0  0  0  0  0
  195.2540  174.0560  138.5500 C   0  0  0  0  0  3  0  0  0  0  0  0
  195.4080  172.7470  138.3730 C   0  0  0  0  0  3  0  0  0  0  0  0
  193.6920  174.2440  136.6630 C   0  0  0  0  0  0  0  0  0  0  0  0
  187.2660  177.8380  142.3340 O   0  0  0  0  0  0  0  0  0  0  0  0
  186.7830  178.7400  141.3890 C   0  0  0  0  0  3  0  0  0  0  0  0
  185.4780  178.9310  141.2230 C   0  0  0  0  0  3  0  0  0  0  0  0
  184.4710  178.1900  142.0320 C   0  0  0  0  0  2  0  0  0  0  0  0
  183.2220  178.8010  141.8960 O   0  0  0  0  0  0  0  0  0  0  0  0
  182.6700  178.2290  140.7530 C   0  0  0  0  0  1  0  0  0  0  0  0
  1 17  1  1  0  0  0
  1 36  1  0  0  0  0
  1  2  1  0  0  0  0
  3  2  1  1  0  0  0
  3 11  1  0  0  0  0
  3  9  1  0  0  0  0
  4  6  1  0  0  0  0
  5  8  1  0  0  0  0
  6  8  2  0  0  0  0
  7  9  1  0  0  0  0
  7  4  2  0  0  0  0
  9  5  2  0  0  0  0
 10 11  1  0  0  0  0
 12 11  1  0  0  0  0
 12 13  1  0  0  0  0
 13 16  1  0  0  0  0
 14 15  1  0  0  0  0
 16 14  1  0  0  0  0
 16 15  1  0  0  0  0
 18 17  1  0  0  0  0
 19 28  1  0  0  0  0
 19 27  2  0  0  0  0
 20 21  1  0  0  0  0
 21 22  1  0  0  0  0
 22 18  1  0  0  0  0
 23 26  2  0  0  0  0
 24 27  1  0  0  0  0
 24 35  1  0  0  0  0
 25 23  1  0  0  0  0
 25 21  2  0  0  0  0
 26 22  1  0  0  0  0
 27 20  1  0  0  0  0
 28 25  1  0  0  0  0
 29 35  1  0  0  0  0
 29 32  1  0  0  0  0
 30 32  1  0  0  0  0
 31 33  1  0  0  0  0
 32 34  1  0  0  0  0
 34 33  2  0  0  0  0
 35 31  2  0  0  0  0
 37 36  1  0  0  0  0
 38 37  2  0  0  0  0
 38 39  1  0  0  0  0
 40 39  1  0  0  0  0
 41 40  1  0  0  0  0
M  END
>  <MODEL>
4

>  <REMARK>
 VINA RESULT:      -7.4      3.419      7.354
  Name = 
  15 active torsions:
  status: ('A' for Active; 'I' for Inactive)
    1  A    between atoms: C_1  and  O_29
    2  A    between atoms: C_1  and  C_38
    3  A    between atoms: C_4  and  N_20
    4  A    between atoms: C_4  and  C_22
    5  A    between atoms: C_6  and  O_24
    6  A    between atoms: C_7  and  C_14
    7  A    between atoms: C_7  and  C_22
    8  A    between atoms: C_7  and  O_24
    9  A    between atoms: C_8  and  N_18
   10  A    between atoms: C_8  and  C_21
   11  A    between atoms: C_14  and  C_19
   12  A    between atoms: N_18  and  C_19
   13  A    between atoms: C_19  and  C_37
   14  A    between atoms: C_21  and  C_27
   15  A    between atoms: N_26  and  C_41
                            x       y       z     vdW  Elec       q    Type
                         _______ _______ _______ _____ _____    ______ ____

>  <TORSDO>
F 15

$$$$
=
 OpenBabel11042412333D

 41 45  0  0  1  0  0  0  0  0999 V2000
  183.7450  178.7670  141.2590 C   0  0  2  0  0  3  0  0  0  0  0  0
  183.2240  177.6740  140.3370 C   0  0  0  0  0  2  0  0  0  0  0  0
  182.3770  178.2690  139.2170 C   0  0  1  0  0  3  0  0  0  0  0  0
  182.5260  177.6530  135.4430 C   0  0  0  0  0  3  0  0  0  0  0  0
  184.1340  177.3040  137.7040 C   0  0  0  0  0  3  0  0  0  0  0  0
  183.8000  177.0960  135.3140 C   0  0  0  0  0  3  0  0  0  0  0  0
  182.0540  178.0360  136.7030 C   0  0  0  0  0  3  0  0  0  0  0  0
  184.6050  176.9230  136.4430 C   0  0  0  0  0  3  0  0  0  0  0  0
  182.8550  177.8610  137.8420 C   0  0  0  0  0  0  0  0  0  0  0  0
  180.4880  178.8730  140.4020 O   0  0  0  0  0  1  0  0  0  0  0  0
  180.9490  178.0110  139.4610 N   0  0  0  0  0  0  0  0  0  0  0  0
  180.7770  176.6610  139.9810 C   0  0  0  0  0  2  0  0  0  0  0  0
  179.7550  175.8980  139.1500 C   0  0  0  0  0  2  0  0  0  0  0  0
  180.1770  174.2800  137.3300 C   0  0  0  0  0  2  0  0  0  0  0  0
  181.5040  174.6300  137.9690 C   0  0  0  0  0  2  0  0  0  0  0  0
  180.2640  174.5060  138.8240 C   0  0  0  0  0  3  0  0  0  0  0  0
  185.0920  179.2860  140.7680 C   0  0  0  0  0  2  0  0  0  0  0  0
  186.2550  178.5570  141.4220 C   0  0  0  0  0  2  0  0  0  0  0  0
  191.2020  177.1720  140.7030 N   0  0  0  0  0  0  0  0  0  0  0  0
  189.0680  177.2560  141.9400 C   0  0  0  0  0  2  0  0  0  0  0  0
  188.5030  177.7740  140.6590 C   0  0  0  0  0  0  0  0  0  0  0  0
  187.2830  178.2780  140.4310 N   0  0  0  0  0  0  0  0  0  0  0  0
  188.3330  178.2560  138.5230 C   0  0  0  0  0  3  0  0  0  0  0  0
  191.3830  177.1340  143.0510 N   0  0  0  0  0  2  0  0  0  0  0  0
  189.1840  177.7460  139.4870 C   0  0  0  0  0  0  0  0  0  0  0  0
  187.1740  178.5860  139.1450 N   0  0  0  0  0  0  0  0  0  0  0  0
  190.5830  177.1810  141.8600 C   0  0  0  0  0  0  0  0  0  0  0  0
  190.5580  177.1870  139.3790 C   0  0  0  0  0  2  0  0  0  0  0  0
  191.8900  176.5200  145.4390 C   0  0  0  0  0  2  0  0  0  0  0  0
  192.0290  175.7030  147.8070 C   0  0  0  0  0  1  0  0  0  0  0  0
  189.8200  177.7280  144.8070 C   0  0  0  0  0  3  0  0  0  0  0  0
  191.3010  176.4190  146.7780 N   0  0  0  0  0  0  0  0  0  0  0  0
  189.3830  177.7360  146.2100 C   0  0  0  0  0  3  0  0  0  0  0  0
  190.0960  177.1050  147.1380 C   0  0  0  0  0  3  0  0  0  0  0  0
  190.9630  177.1430  144.4250 C   0  0  0  0  0  0  0  0  0  0  0  0
  183.8310  178.2780  142.5890 O   0  0  0  0  0  0  0  0  0  0  0  0
  183.0490  178.8240  143.6050 C   0  0  0  0  0  3  0  0  0  0  0  0
  183.5900  179.2210  144.7510 C   0  0  0  0  0  3  0  0  0  0  0  0
  185.0520  179.0980  145.0100 C   0  0  0  0  0  2  0  0  0  0  0  0
  185.3220  179.4410  146.3370 O   0  0  0  0  0  0  0  0  0  0  0  0
  185.9320  178.3120  146.8790 C   0  0  0  0  0  1  0  0  0  0  0  0
  1  2  1  6  0  0  0
  1 36  1  0  0  0  0
  3 11  1  0  0  0  0
  3  2  1  1  0  0  0
  4  7  1  0  0  0  0
  5  9  1  0  0  0  0
  6  4  2  0  0  0  0
  6  8  1  0  0  0  0
  7  9  2  0  0  0  0
  8  5  2  0  0  0  0
  9  3  1  0  0  0  0
 11 12  1  0  0  0  0
 11 10  1  0  0  0  0
 13 12  1  0  0  0  0
 14 15  1  0  0  0  0
 14 16  1  0  0  0  0
 15 16  1  0  0  0  0
 16 13  1  0  0  0  0
 17  1  1  0  0  0  0
 17 18  1  0  0  0  0
 19 27  2  0  0  0  0
 21 20  1  0  0  0  0
 22 21  1  0  0  0  0
 22 18  1  0  0  0  0
 23 26  2  0  0  0  0
 23 25  1  0  0  0  0
 24 35  1  0  0  0  0
 25 21  2  0  0  0  0
 26 22  1  0  0  0  0
 27 20  1  0  0  0  0
 27 24  1  0  0  0  0
 28 25  1  0  0  0  0
 28 19  1  0  0  0  0
 29 32  1  0  0  0  0
 31 33  1  0  0  0  0
 32 34  1  0  0  0  0
 32 30  1  0  0  0  0
 33 34  2  0  0  0  0
 35 31  2  0  0  0  0
 35 29  1  0  0  0  0
 36 37  1  0  0  0  0
 37 38  2  0  0  0  0
 38 39  1  0  0  0  0
 39 40  1  0  0  0  0
 40 41  1  0  0  0  0
M  END
>  <MODEL>
5

>  <REMARK>
 VINA RESULT:      -7.3      2.291      8.141
  Name = 
  15 active torsions:
  status: ('A' for Active; 'I' for Inactive)
    1  A    between atoms: C_1  and  O_29
    2  A    between atoms: C_1  and  C_38
    3  A    between atoms: C_4  and  N_20
    4  A    between atoms: C_4  and  C_22
    5  A    between atoms: C_6  and  O_24
    6  A    between atoms: C_7  and  C_14
    7  A    between atoms: C_7  and  C_22
    8  A    between atoms: C_7  and  O_24
    9  A    between atoms: C_8  and  N_18
   10  A    between atoms: C_8  and  C_21
   11  A    between atoms: C_14  and  C_19
   12  A    between atoms: N_18  and  C_19
   13  A    between atoms: C_19  and  C_37
   14  A    between atoms: C_21  and  C_27
   15  A    between atoms: N_26  and  C_41
                            x       y       z     vdW  Elec       q    Type
                         _______ _______ _______ _____ _____    ______ ____

>  <TORSDO>
F 15

$$$$
=
 OpenBabel11042412333D

 41 45  0  0  1  0  0  0  0  0999 V2000
  188.0480  177.6140  141.7010 C   0  0  2  0  0  3  0  0  0  0  0  0
  188.6860  176.8700  142.8640 C   0  0  0  0  0  2  0  0  0  0  0  0
  189.2220  177.8480  143.9050 C   0  0  1  0  0  3  0  0  0  0  0  0
  186.2580  177.6070  146.3140 C   0  0  0  0  0  3  0  0  0  0  0  0
  188.9760  178.2600  146.3700 C   0  0  0  0  0  3  0  0  0  0  0  0
  186.8610  177.9770  147.5170 C   0  0  0  0  0  3  0  0  0  0  0  0
  187.0130  177.5620  145.1360 C   0  0  0  0  0  3  0  0  0  0  0  0
  188.2210  178.3020  147.5460 C   0  0  0  0  0  3  0  0  0  0  0  0
  188.3770  177.8910  145.1570 C   0  0  0  0  0  0  0  0  0  0  0  0
  191.3910  178.4460  143.3820 O   0  0  0  0  0  1  0  0  0  0  0  0
  190.6520  177.6060  144.1490 N   0  0  0  0  0  0  0  0  0  0  0  0
  190.9920  176.2430  143.7590 C   0  0  0  0  0  2  0  0  0  0  0  0
  191.7070  175.5280  144.8970 C   0  0  0  0  0  2  0  0  0  0  0  0
  190.9330  175.7060  147.2370 C   0  0  0  0  0  2  0  0  0  0  0  0
  192.4460  175.6470  147.2430 C   0  0  0  0  0  2  0  0  0  0  0  0
  191.7230  176.3930  146.1440 C   0  0  0  0  0  3  0  0  0  0  0  0
  189.0870  178.4560  140.9680 C   0  0  0  0  0  2  0  0  0  0  0  0
  189.0630  178.2100  139.4670 C   0  0  0  0  0  2  0  0  0  0  0  0
  190.4420  173.7650  137.1770 N   0  0  0  0  0  0  0  0  0  0  0  0
  188.9720  175.7080  137.5680 C   0  0  0  0  0  2  0  0  0  0  0  0
  190.1340  176.2630  138.3230 C   0  0  0  0  0  0  0  0  0  0  0  0
  190.1820  177.3620  139.0890 N   0  0  0  0  0  0  0  0  0  0  0  0
  192.1910  176.5200  139.0510 C   0  0  0  0  0  3  0  0  0  0  0  0
  188.1400  173.3820  136.8570 N   0  0  0  0  0  2  0  0  0  0  0  0
  191.3730  175.7150  138.2780 C   0  0  0  0  0  0  0  0  0  0  0  0
  191.4180  177.5190  139.5450 N   0  0  0  0  0  0  0  0  0  0  0  0
  189.2270  174.2590  137.1920 C   0  0  0  0  0  0  0  0  0  0  0  0
  191.6800  174.5090  137.4630 C   0  0  0  0  0  2  0  0  0  0  0  0
  186.2640  174.7000  135.8170 C   0  0  0  0  0  2  0  0  0  0  0  0
  184.3080  176.1340  135.1740 C   0  0  0  0  0  1  0  0  0  0  0  0
  185.8550  172.9950  137.5690 C   0  0  0  0  0  3  0  0  0  0  0  0
  184.8460  175.0430  135.9630 N   0  0  0  0  0  0  0  0  0  0  0  0
  184.4140  173.2800  137.5260 C   0  0  0  0  0  3  0  0  0  0  0  0
  183.9480  174.2610  136.7600 C   0  0  0  0  0  3  0  0  0  0  0  0
  186.7320  173.6630  136.8070 C   0  0  0  0  0  0  0  0  0  0  0  0
  186.9710  178.4110  142.1690 O   0  0  0  0  0  0  0  0  0  0  0  0
  186.0110  178.9070  141.2890 C   0  0  0  0  0  3  0  0  0  0  0  0
  184.7160  178.8500  141.5800 C   0  0  0  0  0  3  0  0  0  0  0  0
  184.2270  178.2510  142.8530 C   0  0  0  0  0  2  0  0  0  0  0  0
  183.8370  179.2680  143.7280 O   0  0  0  0  0  0  0  0  0  0  0  0
  182.4640  179.3980  143.5320 C   0  0  0  0  0  1  0  0  0  0  0  0
  1 17  1  1  0  0  0
  1 36  1  0  0  0  0
  1  2  1  0  0  0  0
  3  2  1  6  0  0  0
  3 11  1  0  0  0  0
  3  9  1  0  0  0  0
  4  6  1  0  0  0  0
  5  8  1  0  0  0  0
  6  8  2  0  0  0  0
  7  9  1  0  0  0  0
  7  4  2  0  0  0  0
  9  5  2  0  0  0  0
 10 11  1  0  0  0  0
 12 11  1  0  0  0  0
 12 13  1  0  0  0  0
 13 16  1  0  0  0  0
 14 15  1  0  0  0  0
 16 14  1  0  0  0  0
 16 15  1  0  0  0  0
 18 17  1  0  0  0  0
 19 27  2  0  0  0  0
 19 28  1  0  0  0  0
 20 21  1  0  0  0  0
 21 22  1  0  0  0  0
 22 18  1  0  0  0  0
 22 26  1  0  0  0  0
 23 26  2  0  0  0  0
 24 27  1  0  0  0  0
 25 21  2  0  0  0  0
 25 23  1  0  0  0  0
 27 20  1  0  0  0  0
 28 25  1  0  0  0  0
 29 32  1  0  0  0  0
 29 35  1  0  0  0  0
 30 32  1  0  0  0  0
 32 34  1  0  0  0  0
 33 31  1  0  0  0  0
 34 33  2  0  0  0  0
 35 24  1  0  0  0  0
 35 31  2  0  0  0  0
 37 38  2  0  0  0  0
 37 36  1  0  0  0  0
 38 39  1  0  0  0  0
 39 40  1  0  0  0  0
 41 40  1  0  0  0  0
M  END
>  <MODEL>
6

>  <REMARK>
 VINA RESULT:      -7.1      2.403      5.158
  Name = 
  15 active torsions:
  status: ('A' for Active; 'I' for Inactive)
    1  A    between atoms: C_1  and  O_29
    2  A    between atoms: C_1  and  C_38
    3  A    between atoms: C_4  and  N_20
    4  A    between atoms: C_4  and  C_22
    5  A    between atoms: C_6  and  O_24
    6  A    between atoms: C_7  and  C_14
    7  A    between atoms: C_7  and  C_22
    8  A    between atoms: C_7  and  O_24
    9  A    between atoms: C_8  and  N_18
   10  A    between atoms: C_8  and  C_21
   11  A    between atoms: C_14  and  C_19
   12  A    between atoms: N_18  and  C_19
   13  A    between atoms: C_19  and  C_37
   14  A    between atoms: C_21  and  C_27
   15  A    between atoms: N_26  and  C_41
                            x       y       z     vdW  Elec       q    Type
                         _______ _______ _______ _____ _____    ______ ____

>  <TORSDO>
F 15

$$$$
=
 OpenBabel11042412333D

 41 45  0  0  1  0  0  0  0  0999 V2000
  189.0060  178.2730  142.4520 C   0  0  2  0  0  3  0  0  0  0  0  0
  187.9730  177.1740  142.6580 C   0  0  0  0  0  2  0  0  0  0  0  0
  186.5610  177.7520  142.6560 C   0  0  1  0  0  3  0  0  0  0  0  0
  186.3050  178.0620  146.4610 C   0  0  0  0  0  3  0  0  0  0  0  0
  184.6920  178.4000  144.2020 C   0  0  0  0  0  3  0  0  0  0  0  0
  184.9760  178.4660  146.6070 C   0  0  0  0  0  3  0  0  0  0  0  0
  186.8300  177.8280  145.1850 C   0  0  0  0  0  3  0  0  0  0  0  0
  184.1690  178.6360  145.4780 C   0  0  0  0  0  3  0  0  0  0  0  0
  186.0240  177.9930  144.0480 C   0  0  0  0  0  0  0  0  0  0  0  0
  185.7440  179.8930  142.3600 O   0  0  0  0  0  1  0  0  0  0  0  0
  186.4880  178.9250  141.7700 N   0  0  0  0  0  0  0  0  0  0  0  0
  185.8240  178.5580  140.5250 C   0  0  0  0  0  2  0  0  0  0  0  0
  184.4190  179.1420  140.4820 C   0  0  0  0  0  2  0  0  0  0  0  0
  182.2480  178.6300  141.5460 C   0  0  0  0  0  2  0  0  0  0  0  0
  182.0920  178.4620  140.0500 C   0  0  0  0  0  2  0  0  0  0  0  0
  183.3840  178.0600  140.7250 C   0  0  0  0  0  3  0  0  0  0  0  0
  189.9990  177.8780  141.3650 C   0  0  0  0  0  2  0  0  0  0  0  0
  189.4630  176.7610  140.4820 C   0  0  0  0  0  2  0  0  0  0  0  0
  189.3420  176.0520  135.3460 N   0  0  0  0  0  0  0  0  0  0  0  0
  188.4180  176.7680  137.5190 C   0  0  0  0  0  2  0  0  0  0  0  0
  189.8180  176.6060  138.0130 C   0  0  0  0  0  0  0  0  0  0  0  0
  190.2670  176.6580  139.2750 N   0  0  0  0  0  0  0  0  0  0  0  0
  192.0010  176.3690  137.9900 C   0  0  0  0  0  3  0  0  0  0  0  0
  187.0050  175.8660  135.5700 N   0  0  0  0  0  2  0  0  0  0  0  0
  190.8770  176.4270  137.1860 C   0  0  0  0  0  0  0  0  0  0  0  0
  191.5840  176.5020  139.2730 N   0  0  0  0  0  0  0  0  0  0  0  0
  188.2880  176.2240  136.1070 C   0  0  0  0  0  0  0  0  0  0  0  0
  190.7310  176.3830  135.7070 C   0  0  0  0  0  2  0  0  0  0  0  0
  185.0270  174.6450  136.5350 C   0  0  0  0  0  2  0  0  0  0  0  0
  182.8300  173.6440  137.2180 C   0  0  0  0  0  1  0  0  0  0  0  0
  185.1500  177.1200  136.4990 C   0  0  0  0  0  3  0  0  0  0  0  0
  183.6470  174.8220  136.9970 N   0  0  0  0  0  0  0  0  0  0  0  0
  183.8240  177.2070  137.1280 C   0  0  0  0  0  3  0  0  0  0  0  0
  183.1180  176.1040  137.3550 C   0  0  0  0  0  3  0  0  0  0  0  0
  185.7110  175.9440  136.1890 C   0  0  0  0  0  0  0  0  0  0  0  0
  189.6640  178.5550  143.6780 O   0  0  0  0  0  0  0  0  0  0  0  0
  191.0540  178.5650  143.7590 C   0  0  0  0  0  3  0  0  0  0  0  0
  191.6940  177.8710  144.6940 C   0  0  0  0  0  3  0  0  0  0  0  0
  190.9600  177.0540  145.7000 C   0  0  0  0  0  2  0  0  0  0  0  0
  191.6520  177.0780  146.9140 O   0  0  0  0  0  0  0  0  0  0  0  0
  192.0550  175.7610  147.1190 C   0  0  0  0  0  1  0  0  0  0  0  0
  1 17  1  6  0  0  0
  1  2  1  0  0  0  0
  1 36  1  0  0  0  0
  3  2  1  1  0  0  0
  3  9  1  0  0  0  0
  4  6  1  0  0  0  0
  5  8  1  0  0  0  0
  7  4  2  0  0  0  0
  8  6  2  0  0  0  0
  9  5  2  0  0  0  0
  9  7  1  0  0  0  0
 11 10  1  0  0  0  0
 11  3  1  0  0  0  0
 12 11  1  0  0  0  0
 13 12  1  0  0  0  0
 13 16  1  0  0  0  0
 15 16  1  0  0  0  0
 15 14  1  0  0  0  0
 16 14  1  0  0  0  0
 18 17  1  0  0  0  0
 19 28  1  0  0  0  0
 19 27  2  0  0  0  0
 20 21  1  0  0  0  0
 21 22  1  0  0  0  0
 22 18  1  0  0  0  0
 23 26  2  0  0  0  0
 24 27  1  0  0  0  0
 24 35  1  0  0  0  0
 25 23  1  0  0  0  0
 25 21  2  0  0  0  0
 26 22  1  0  0  0  0
 27 20  1  0  0  0  0
 28 25  1  0  0  0  0
 29 32  1  0  0  0  0
 31 33  1  0  0  0  0
 32 30  1  0  0  0  0
 32 34  1  0  0  0  0
 33 34  2  0  0  0  0
 35 31  2  0  0  0  0
 35 29  1  0  0  0  0
 36 37  1  0  0  0  0
 37 38  2  0  0  0  0
 38 39  1  0  0  0  0
 39 40  1  0  0  0  0
 40 41  1  0  0  0  0
M  END
>  <MODEL>
7

>  <REMARK>
 VINA RESULT:      -7.0      1.879      4.012
  Name = 
  15 active torsions:
  status: ('A' for Active; 'I' for Inactive)
    1  A    between atoms: C_1  and  O_29
    2  A    between atoms: C_1  and  C_38
    3  A    between atoms: C_4  and  N_20
    4  A    between atoms: C_4  and  C_22
    5  A    between atoms: C_6  and  O_24
    6  A    between atoms: C_7  and  C_14
    7  A    between atoms: C_7  and  C_22
    8  A    between atoms: C_7  and  O_24
    9  A    between atoms: C_8  and  N_18
   10  A    between atoms: C_8  and  C_21
   11  A    between atoms: C_14  and  C_19
   12  A    between atoms: N_18  and  C_19
   13  A    between atoms: C_19  and  C_37
   14  A    between atoms: C_21  and  C_27
   15  A    between atoms: N_26  and  C_41
                            x       y       z     vdW  Elec       q    Type
                         _______ _______ _______ _____ _____    ______ ____

>  <TORSDO>
F 15

$$$$
=
 OpenBabel11042412333D

 41 45  0  0  1  0  0  0  0  0999 V2000
  183.9110  178.7740  141.1500 C   0  0  2  0  0  3  0  0  0  0  0  0
  183.2160  177.5020  140.6880 C   0  0  0  0  0  2  0  0  0  0  0  0
  182.4760  177.7370  139.3740 C   0  0  1  0  0  3  0  0  0  0  0  0
  184.0080  176.6960  136.0260 C   0  0  0  0  0  3  0  0  0  0  0  0
  183.0580  175.5080  138.3730 C   0  0  0  0  0  3  0  0  0  0  0  0
  184.0380  175.3070  136.1660 C   0  0  0  0  0  3  0  0  0  0  0  0
  183.5040  177.4940  137.0590 C   0  0  0  0  0  3  0  0  0  0  0  0
  183.5640  174.7120  137.3400 C   0  0  0  0  0  3  0  0  0  0  0  0
  183.0230  176.9040  138.2380 C   0  0  0  0  0  0  0  0  0  0  0  0
  180.3890  178.6330  138.9530 O   0  0  0  0  0  1  0  0  0  0  0  0
  181.0240  177.6080  139.5740 N   0  0  0  0  0  0  0  0  0  0  0  0
  180.7140  177.6960  140.9960 C   0  0  0  0  0  2  0  0  0  0  0  0
  180.0420  179.0240  141.3110 C   0  0  0  0  0  2  0  0  0  0  0  0
  179.8260  178.2710  143.6560 C   0  0  0  0  0  2  0  0  0  0  0  0
  179.5590  179.7600  143.6110 C   0  0  0  0  0  2  0  0  0  0  0  0
  179.0870  178.8740  142.4810 C   0  0  0  0  0  3  0  0  0  0  0  0
  185.1730  179.0240  140.3330 C   0  0  0  0  0  2  0  0  0  0  0  0
  186.4290  178.6190  141.0880 C   0  0  0  0  0  2  0  0  0  0  0  0
  191.3810  177.1550  140.6000 N   0  0  0  0  0  0  0  0  0  0  0  0
  189.1950  177.2780  141.7390 C   0  0  0  0  0  2  0  0  0  0  0  0
  188.6970  177.7980  140.4310 C   0  0  0  0  0  0  0  0  0  0  0  0
  187.4960  178.3200  140.1460 N   0  0  0  0  0  0  0  0  0  0  0  0
  188.6310  178.2700  138.2870 C   0  0  0  0  0  3  0  0  0  0  0  0
  191.4560  177.1280  142.9540 N   0  0  0  0  0  2  0  0  0  0  0  0
  189.4290  177.7530  139.2910 C   0  0  0  0  0  0  0  0  0  0  0  0
  187.4500  178.6210  138.8540 N   0  0  0  0  0  0  0  0  0  0  0  0
  190.7110  177.1810  141.7270 C   0  0  0  0  0  0  0  0  0  0  0  0
  190.7980  177.1730  139.2480 C   0  0  0  0  0  2  0  0  0  0  0  0
  191.8180  176.4700  145.3570 C   0  0  0  0  0  2  0  0  0  0  0  0
  191.8030  175.6300  147.7210 C   0  0  0  0  0  1  0  0  0  0  0  0
  189.8500  177.7960  144.6430 C   0  0  0  0  0  3  0  0  0  0  0  0
  191.1630  176.3920  146.6660 N   0  0  0  0  0  0  0  0  0  0  0  0
  189.3500  177.8200  146.0250 C   0  0  0  0  0  3  0  0  0  0  0  0
  189.9830  177.1430  146.9770 C   0  0  0  0  0  3  0  0  0  0  0  0
  190.9750  177.1510  144.3070 C   0  0  0  0  0  0  0  0  0  0  0  0
  184.2000  178.6910  142.5380 O   0  0  0  0  0  0  0  0  0  0  0  0
  183.2990  179.1680  143.4870 C   0  0  0  0  0  3  0  0  0  0  0  0
  183.5470  179.0570  144.7880 C   0  0  0  0  0  3  0  0  0  0  0  0
  184.7920  178.4150  145.2940 C   0  0  0  0  0  2  0  0  0  0  0  0
  184.8170  178.4800  146.6890 O   0  0  0  0  0  0  0  0  0  0  0  0
  186.0550  179.0390  146.9970 C   0  0  0  0  0  1  0  0  0  0  0  0
  1 17  1  6  0  0  0
  1 36  1  0  0  0  0
  2  1  1  0  0  0  0
  3 11  1  0  0  0  0
  3  2  1  1  0  0  0
  4  6  2  0  0  0  0
  4  7  1  0  0  0  0
  6  8  1  0  0  0  0
  7  9  2  0  0  0  0
  8  5  2  0  0  0  0
  9  5  1  0  0  0  0
  9  3  1  0  0  0  0
 10 11  1  0  0  0  0
 11 12  1  0  0  0  0
 12 13  1  0  0  0  0
 13 16  1  0  0  0  0
 15 14  1  0  0  0  0
 16 15  1  0  0  0  0
 16 14  1  0  0  0  0
 17 18  1  0  0  0  0
 19 27  2  0  0  0  0
 21 20  1  0  0  0  0
 22 21  1  0  0  0  0
 22 18  1  0  0  0  0
 23 26  2  0  0  0  0
 23 25  1  0  0  0  0
 24 35  1  0  0  0  0
 25 21  2  0  0  0  0
 26 22  1  0  0  0  0
 27 20  1  0  0  0  0
 27 24  1  0  0  0  0
 28 25  1  0  0  0  0
 28 19  1  0  0  0  0
 29 32  1  0  0  0  0
 31 33  1  0  0  0  0
 32 34  1  0  0  0  0
 32 30  1  0  0  0  0
 33 34  2  0  0  0  0
 35 31  2  0  0  0  0
 35 29  1  0  0  0  0
 36 37  1  0  0  0  0
 37 38  2  0  0  0  0
 38 39  1  0  0  0  0
 39 40  1  0  0  0  0
 40 41  1  0  0  0  0
M  END
>  <MODEL>
8

>  <REMARK>
 VINA RESULT:      -7.0      2.470      7.705
  Name = 
  15 active torsions:
  status: ('A' for Active; 'I' for Inactive)
    1  A    between atoms: C_1  and  O_29
    2  A    between atoms: C_1  and  C_38
    3  A    between atoms: C_4  and  N_20
    4  A    between atoms: C_4  and  C_22
    5  A    between atoms: C_6  and  O_24
    6  A    between atoms: C_7  and  C_14
    7  A    between atoms: C_7  and  C_22
    8  A    between atoms: C_7  and  O_24
    9  A    between atoms: C_8  and  N_18
   10  A    between atoms: C_8  and  C_21
   11  A    between atoms: C_14  and  C_19
   12  A    between atoms: N_18  and  C_19
   13  A    between atoms: C_19  and  C_37
   14  A    between atoms: C_21  and  C_27
   15  A    between atoms: N_26  and  C_41
                            x       y       z     vdW  Elec       q    Type
                         _______ _______ _______ _____ _____    ______ ____

>  <TORSDO>
F 15

$$$$
=
 OpenBabel11042412333D

 41 45  0  0  1  0  0  0  0  0999 V2000
  184.2100  177.8630  139.3780 C   0  0  2  0  0  3  0  0  0  0  0  0
  183.4590  178.9980  140.0580 C   0  0  0  0  0  2  0  0  0  0  0  0
  182.6240  178.4720  141.2220 C   0  0  1  0  0  3  0  0  0  0  0  0
  185.3400  178.6090  143.9150 C   0  0  0  0  0  3  0  0  0  0  0  0
  182.5660  178.8860  143.6990 C   0  0  0  0  0  3  0  0  0  0  0  0
  184.5760  178.8830  145.0510 C   0  0  0  0  0  3  0  0  0  0  0  0
  184.7190  178.4730  142.6690 C   0  0  0  0  0  3  0  0  0  0  0  0
  183.1890  179.0230  144.9440 C   0  0  0  0  0  3  0  0  0  0  0  0
  183.3260  178.6080  142.5540 C   0  0  0  0  0  0  0  0  0  0  0  0
  180.3520  178.0710  141.3370 O   0  0  0  0  0  1  0  0  0  0  0  0
  181.2730  179.0550  141.1900 N   0  0  0  0  0  0  0  0  0  0  0  0
  181.0420  179.6830  139.8950 C   0  0  0  0  0  2  0  0  0  0  0  0
  180.0090  180.7940  140.0200 C   0  0  0  0  0  2  0  0  0  0  0  0
  181.5540  181.7510  138.3440 C   0  0  0  0  0  2  0  0  0  0  0  0
  180.4650  180.9990  137.6090 C   0  0  0  0  0  2  0  0  0  0  0  0
  180.1330  181.7710  138.8660 C   0  0  0  0  0  3  0  0  0  0  0  0
  185.4820  178.3820  138.7160 C   0  0  0  0  0  2  0  0  0  0  0  0
  186.6680  178.3600  139.6680 C   0  0  0  0  0  2  0  0  0  0  0  0
  191.6890  177.1270  140.0810 N   0  0  0  0  0  0  0  0  0  0  0  0
  189.3430  177.2060  140.8440 C   0  0  0  0  0  2  0  0  0  0  0  0
  189.0440  177.6180  139.4400 C   0  0  0  0  0  0  0  0  0  0  0  0
  187.8850  178.0590  138.9310 N   0  0  0  0  0  0  0  0  0  0  0  0
  189.3090  177.9560  137.2860 C   0  0  0  0  0  3  0  0  0  0  0  0
  191.3800  177.2470  142.4120 N   0  0  0  0  0  2  0  0  0  0  0  0
  189.9540  177.5420  138.4380 C   0  0  0  0  0  0  0  0  0  0  0  0
  188.0380  178.2790  137.6320 N   0  0  0  0  0  0  0  0  0  0  0  0
  190.8430  177.1870  141.0820 C   0  0  0  0  0  0  0  0  0  0  0  0
  191.3340  177.0330  138.6550 C   0  0  0  0  0  2  0  0  0  0  0  0
  191.4470  176.9480  144.9110 C   0  0  0  0  0  2  0  0  0  0  0  0
  191.1870  176.3940  147.3440 C   0  0  0  0  0  1  0  0  0  0  0  0
  189.4220  177.7720  143.7430 C   0  0  0  0  0  3  0  0  0  0  0  0
  190.6070  176.8920  146.1120 N   0  0  0  0  0  0  0  0  0  0  0  0
  188.7030  177.8530  145.0220 C   0  0  0  0  0  3  0  0  0  0  0  0
  189.2790  177.4260  146.1420 C   0  0  0  0  0  3  0  0  0  0  0  0
  190.6830  177.3270  143.6660 C   0  0  0  0  0  0  0  0  0  0  0  0
  183.3630  177.2180  138.4390 O   0  0  0  0  0  0  0  0  0  0  0  0
  182.7890  175.9810  138.7240 C   0  0  0  0  0  3  0  0  0  0  0  0
  183.1600  174.8840  138.0720 C   0  0  0  0  0  3  0  0  0  0  0  0
  184.1980  174.9220  137.0050 C   0  0  0  0  0  2  0  0  0  0  0  0
  185.4030  174.4250  137.5090 O   0  0  0  0  0  0  0  0  0  0  0  0
  185.2130  173.0470  137.5920 C   0  0  0  0  0  1  0  0  0  0  0  0
  1 17  1  6  0  0  0
  1  2  1  0  0  0  0
  3  2  1  6  0  0  0
  3  9  1  0  0  0  0
  4  6  1  0  0  0  0
  5  8  1  0  0  0  0
  7  4  2  0  0  0  0
  8  6  2  0  0  0  0
  9  7  1  0  0  0  0
  9  5  2  0  0  0  0
 11  3  1  0  0  0  0
 11 10  1  0  0  0  0
 12 13  1  0  0  0  0
 12 11  1  0  0  0  0
 14 16  1  0  0  0  0
 15 14  1  0  0  0  0
 15 16  1  0  0  0  0
 16 13  1  0  0  0  0
 17 18  1  0  0  0  0
 19 27  2  0  0  0  0
 20 27  1  0  0  0  0
 21 20  1  0  0  0  0
 22 21  1  0  0  0  0
 22 18  1  0  0  0  0
 23 26  2  0  0  0  0
 23 25  1  0  0  0  0
 24 35  1  0  0  0  0
 25 28  1  0  0  0  0
 25 21  2  0  0  0  0
 26 22  1  0  0  0  0
 27 24  1  0  0  0  0
 28 19  1  0  0  0  0
 29 32  1  0  0  0  0
 31 33  1  0  0  0  0
 32 34  1  0  0  0  0
 32 30  1  0  0  0  0
 33 34  2  0  0  0  0
 35 31  2  0  0  0  0
 35 29  1  0  0  0  0
 36 37  1  0  0  0  0
 36  1  1  0  0  0  0
 38 37  2  0  0  0  0
 39 40  1  0  0  0  0
 39 38  1  0  0  0  0
 40 41  1  0  0  0  0
M  END
>  <MODEL>
9

>  <REMARK>
 VINA RESULT:      -7.0      3.155      8.002
  Name = 
  15 active torsions:
  status: ('A' for Active; 'I' for Inactive)
    1  A    between atoms: C_1  and  O_29
    2  A    between atoms: C_1  and  C_38
    3  A    between atoms: C_4  and  N_20
    4  A    between atoms: C_4  and  C_22
    5  A    between atoms: C_6  and  O_24
    6  A    between atoms: C_7  and  C_14
    7  A    between atoms: C_7  and  C_22
    8  A    between atoms: C_7  and  O_24
    9  A    between atoms: C_8  and  N_18
   10  A    between atoms: C_8  and  C_21
   11  A    between atoms: C_14  and  C_19
   12  A    between atoms: N_18  and  C_19
   13  A    between atoms: C_19  and  C_37
   14  A    between atoms: C_21  and  C_27
   15  A    between atoms: N_26  and  C_41
                            x       y       z     vdW  Elec       q    Type
                         _______ _______ _______ _____ _____    ______ ____

>  <TORSDO>
F 15

$$$$
