=
 OpenBabel11032420323D

 33 37  0  0  1  0  0  0  0  0999 V2000
  184.1490  178.7390  143.3110 N   0  0  0  0  0  0  0  0  0  0  0  0
  189.1860  178.6570  139.1960 C   0  0  0  0  0  2  0  0  0  0  0  0
  186.2170  178.1170  142.2580 C   0  0  1  0  0  3  0  0  0  0  0  0
  190.3030  177.9610  139.9610 C   0  0  1  0  0  3  0  0  0  0  0  0
  186.4680  178.2290  139.4310 S   0  0  0  0  0  0  0  0  0  0  0  0
  189.7510  177.6850  141.3030 N   0  0  1  0  0  0  0  0  0  0  0  0
  187.7070  177.7930  142.3880 C   0  0  1  0  0  3  0  0  0  0  0  0
  185.4390  178.3240  143.4160 C   0  0  0  0  0  0  0  0  0  0  0  0
  185.9250  178.1320  144.5610 O   0  0  0  0  0  0  0  0  0  0  0  0
  187.9340  176.5380  143.2360 C   0  0  0  0  0  2  0  0  0  0  0  0
  189.5220  174.8290  143.4990 O   0  0  0  0  0  0  0  0  0  0  0  0
  189.2690  175.8900  142.9550 C   0  0  0  0  0  0  0  0  0  0  0  0
  188.0480  178.6510  140.1840 C   0  0  1  0  0  3  0  0  0  0  0  0
  183.5840  178.9780  142.1060 C   0  0  0  0  0  3  0  0  0  0  0  0
  188.3640  177.5830  141.1030 N   0  0  1  0  0  0  0  0  0  0  0  0
  185.6040  178.3940  141.0080 C   0  0  0  0  0  0  0  0  0  0  0  0
  184.3090  178.8100  140.9730 N   0  0  0  0  0  0  0  0  0  0  0  0
  190.2550  176.4570  141.9470 C   0  0  2  0  0  3  0  0  0  0  0  0
  190.7310  176.6960  139.1990 C   0  0  0  0  0  2  0  0  0  0  0  0
  190.6930  176.8910  137.6880 C   0  0  0  0  0  2  0  0  0  0  0  0
  191.7240  176.1780  137.0740 O   0  0  0  0  0  0  0  0  0  0  0  0
  193.9170  176.8040  137.1900 O   0  0  0  0  0  1  0  0  0  0  0  0
  192.8250  176.3270  137.9190 C   0  0  0  0  0  2  0  0  0  0  0  0
  191.5800  176.7470  142.6480 C   0  0  0  0  0  2  0  0  0  0  0  0
  190.8480  176.5540  147.1380 C   0  0  0  0  0  3  0  0  0  0  0  0
  191.8450  176.0280  146.4310 C   0  0  0  0  0  0  0  0  0  0  0  0
  190.9640  179.4710  143.7640 C   0  0  0  0  0  1  0  0  0  0  0  0
  190.7820  178.2350  144.5780 C   0  0  0  0  0  0  0  0  0  0  0  0
  189.6360  177.1660  146.5190 C   0  0  0  0  0  2  0  0  0  0  0  0
  191.4080  176.9650  144.1210 C   0  0  0  0  0  0  0  0  0  0  0  0
  192.8460  175.4030  147.1000 F   0  0  0  0  0  0  0  0  0  0  0  0
  190.0010  178.3290  145.6560 C   0  0  0  0  0  3  0  0  0  0  0  0
  191.8880  176.0230  144.9530 C   0  0  0  0  0  3  0  0  0  0  0  0
  1  8  1  0  0  0  0
  2  4  1  0  0  0  0
  2 13  1  0  0  0  0
  3 16  1  6  0  0  0
  3  7  1  0  0  0  0
  3  8  1  0  0  0  0
  4 19  1  6  0  0  0
  4  6  1  0  0  0  0
  5 13  1  0  0  0  0
  5 16  1  0  0  0  0
  6 18  1  0  0  0  0
  7 10  1  0  0  0  0
  8  9  2  0  0  0  0
 12 10  1  0  0  0  0
 12 11  2  0  0  0  0
 13 15  1  0  0  0  0
 14  1  2  0  0  0  0
 15  6  1  0  0  0  0
 15  7  1  0  0  0  0
 17 16  2  0  0  0  0
 17 14  1  0  0  0  0
 18 24  1  0  0  0  0
 18 12  1  0  0  0  0
 20 19  1  0  0  0  0
 21 20  1  0  0  0  0
 21 23  1  0  0  0  0
 22 23  1  0  0  0  0
 24 30  1  0  0  0  0
 26 31  1  0  0  0  0
 26 25  2  0  0  0  0
 27 28  1  0  0  0  0
 28 32  2  0  0  0  0
 29 25  1  0  0  0  0
 30 28  1  0  0  0  0
 30 33  2  0  0  0  0
 32 29  1  0  0  0  0
 33 26  1  0  0  0  0
M  END
>  <MODEL>
1

>  <REMARK>
 VINA RESULT:      -8.1      0.000      0.000
  Name = 
  6 active torsions:
  status: ('A' for Active; 'I' for Inactive)
    1  A    between atoms: C_2  and  C_6
    2  A    between atoms: C_2  and  C_32
    3  A    between atoms: C_16  and  C_30
    4  A    between atoms: C_27  and  O_29
    5  A    between atoms: O_29  and  C_32
    6  A    between atoms: C_30  and  C_33
                            x       y       z     vdW  Elec       q    Type
                         _______ _______ _______ _____ _____    ______ ____

>  <TORSDO>
F 6

$$$$
=
 OpenBabel11032420323D

 33 37  0  0  1  0  0  0  0  0999 V2000
  181.0220  178.9650  140.2030 N   0  0  0  0  0  2  0  0  0  0  0  0
  184.4470  177.9990  145.6480 C   0  0  0  0  0  2  0  0  0  0  0  0
  182.8750  178.7460  141.7170 C   0  0  0  0  0  0  0  0  0  0  0  0
  185.8380  177.6050  145.1700 C   0  0  1  0  0  3  0  0  0  0  0  0
  182.6490  179.6760  144.3920 S   0  0  0  0  0  0  0  0  0  0  0  0
  185.7500  177.5610  143.6960 N   0  0  1  0  0  0  0  0  0  0  0  0
  184.2420  178.1350  142.0340 C   0  0  1  0  0  3  0  0  0  0  0  0
  182.2880  178.5390  140.4510 C   0  0  0  0  0  0  0  0  0  0  0  0
  182.9250  177.9570  139.5340 O   0  0  0  0  0  0  0  0  0  0  0  0
  185.3060  178.5980  141.0350 C   0  0  0  0  0  2  0  0  0  0  0  0
  187.6310  178.9060  140.9240 O   0  0  0  0  0  0  0  0  0  0  0  0
  186.7050  178.4770  141.5900 C   0  0  0  0  0  0  0  0  0  0  0  0
  183.6960  178.2120  144.3590 C   0  0  1  0  0  3  0  0  0  0  0  0
  180.2890  179.5800  141.1590 C   0  0  0  0  0  3  0  0  0  0  0  0
  184.7200  178.4600  143.3730 N   0  0  1  0  0  0  0  0  0  0  0  0
  182.0750  179.3770  142.7060 C   0  0  0  0  0  0  0  0  0  0  0  0
  180.8120  179.7770  142.3930 N   0  0  0  0  0  0  0  0  0  0  0  0
  186.9860  177.9390  142.9840 C   0  0  2  0  0  3  0  0  0  0  0  0
  186.8640  178.6220  145.6950 C   0  0  0  0  0  2  0  0  0  0  0  0
  186.9550  178.6170  147.2160 C   0  0  0  0  0  2  0  0  0  0  0  0
  187.5600  177.4430  147.6690 O   0  0  0  0  0  0  0  0  0  0  0  0
  189.4070  178.5180  148.4740 O   0  0  0  0  0  1  0  0  0  0  0  0
  188.2540  177.8110  148.8240 C   0  0  0  0  0  2  0  0  0  0  0  0
  187.9120  176.7290  142.8770 C   0  0  0  0  0  2  0  0  0  0  0  0
  191.6090  177.9900  145.2160 C   0  0  0  0  0  3  0  0  0  0  0  0
  190.6840  177.0890  145.5380 C   0  0  0  0  0  0  0  0  0  0  0  0
  190.3530  176.7400  141.1210 C   0  0  0  0  0  1  0  0  0  0  0  0
  190.3750  177.3280  142.4910 C   0  0  0  0  0  0  0  0  0  0  0  0
  191.4790  178.9230  144.0590 C   0  0  0  0  0  2  0  0  0  0  0  0
  189.2740  177.0040  143.4390 C   0  0  0  0  0  0  0  0  0  0  0  0
  190.8600  176.3670  146.6730 F   0  0  0  0  0  0  0  0  0  0  0  0
  191.3680  178.1750  142.7720 C   0  0  0  0  0  3  0  0  0  0  0  0
  189.4390  176.8820  144.7680 C   0  0  0  0  0  3  0  0  0  0  0  0
  1  8  1  0  0  0  0
  1 14  1  0  0  0  0
  3  7  1  0  0  0  0
  3 16  2  0  0  0  0
  4  2  1  0  0  0  0
  4 19  1  6  0  0  0
  6  4  1  0  0  0  0
  7 15  1  0  0  0  0
  8  3  1  0  0  0  0
  9  8  2  0  0  0  0
 10 12  1  0  0  0  0
 10  7  1  0  0  0  0
 11 12  2  0  0  0  0
 12 18  1  0  0  0  0
 13  5  1  0  0  0  0
 13  2  1  0  0  0  0
 14 17  2  0  0  0  0
 15  6  1  0  0  0  0
 15 13  1  0  0  0  0
 16  5  1  0  0  0  0
 17 16  1  0  0  0  0
 18  6  1  0  0  0  0
 19 20  1  0  0  0  0
 20 21  1  0  0  0  0
 21 23  1  0  0  0  0
 22 23  1  0  0  0  0
 24 18  1  0  0  0  0
 24 30  1  0  0  0  0
 25 26  2  0  0  0  0
 26 31  1  0  0  0  0
 27 28  1  0  0  0  0
 28 32  2  0  0  0  0
 28 30  1  0  0  0  0
 29 25  1  0  0  0  0
 30 33  2  0  0  0  0
 32 29  1  0  0  0  0
 33 26  1  0  0  0  0
M  END
>  <MODEL>
2

>  <REMARK>
 VINA RESULT:      -8.1      3.011      5.820
  Name = 
  6 active torsions:
  status: ('A' for Active; 'I' for Inactive)
    1  A    between atoms: C_2  and  C_6
    2  A    between atoms: C_2  and  C_32
    3  A    between atoms: C_16  and  C_30
    4  A    between atoms: C_27  and  O_29
    5  A    between atoms: O_29  and  C_32
    6  A    between atoms: C_30  and  C_33
                            x       y       z     vdW  Elec       q    Type
                         _______ _______ _______ _____ _____    ______ ____

>  <TORSDO>
F 6

$$$$
=
 OpenBabel11032420323D

 33 37  0  0  1  0  0  0  0  0999 V2000
  182.5530  178.8830  143.0400 N   0  0  0  0  0  2  0  0  0  0  0  0
  188.0490  177.1120  146.0350 C   0  0  0  0  0  2  0  0  0  0  0  0
  184.8790  178.4470  143.4560 C   0  0  0  0  0  0  0  0  0  0  0  0
  189.0280  176.8100  144.9080 C   0  0  1  0  0  3  0  0  0  0  0  0
  185.9870  178.9470  146.0240 S   0  0  0  0  0  0  0  0  0  0  0  0
  188.2600  176.9950  143.6590 N   0  0  1  0  0  0  0  0  0  0  0  0
  186.1930  177.8070  143.0030 C   0  0  1  0  0  3  0  0  0  0  0  0
  183.7580  178.4350  142.6000 C   0  0  0  0  0  0  0  0  0  0  0  0
  183.8550  178.0080  141.4200 O   0  0  0  0  0  0  0  0  0  0  0  0
  186.6970  178.4300  141.6980 C   0  0  0  0  0  2  0  0  0  0  0  0
  188.7160  178.7730  140.5510 O   0  0  0  0  0  0  0  0  0  0  0  0
  188.1820  178.2360  141.5060 C   0  0  0  0  0  0  0  0  0  0  0  0
  186.7990  177.5160  145.2960 C   0  0  1  0  0  3  0  0  0  0  0  0
  182.3910  179.3350  144.3050 C   0  0  0  0  0  3  0  0  0  0  0  0
  187.2600  177.9240  143.9900 N   0  0  1  0  0  0  0  0  0  0  0  0
  184.6750  178.9090  144.7830 C   0  0  0  0  0  0  0  0  0  0  0  0
  183.4410  179.3410  145.1610 N   0  0  0  0  0  0  0  0  0  0  0  0
  189.0440  177.4900  142.5110 C   0  0  2  0  0  3  0  0  0  0  0  0
  190.2440  177.7420  145.0270 C   0  0  0  0  0  2  0  0  0  0  0  0
  191.5020  176.9980  145.4590 C   0  0  0  0  0  2  0  0  0  0  0  0
  191.6580  177.0580  146.8450 O   0  0  0  0  0  0  0  0  0  0  0  0
  193.0340  175.8830  148.2380 O   0  0  0  0  0  1  0  0  0  0  0  0
  192.0830  175.7810  147.2200 C   0  0  0  0  0  2  0  0  0  0  0  0
  189.7330  176.3200  141.8120 C   0  0  0  0  0  2  0  0  0  0  0  0
  191.8530  176.8980  137.8250 C   0  0  0  0  0  3  0  0  0  0  0  0
  190.5520  176.9580  138.0950 C   0  0  0  0  0  0  0  0  0  0  0  0
  192.0530  178.2130  142.0840 C   0  0  0  0  0  1  0  0  0  0  0  0
  191.8430  177.4100  140.8450 C   0  0  0  0  0  0  0  0  0  0  0  0
  192.8740  176.4180  138.8020 C   0  0  0  0  0  2  0  0  0  0  0  0
  190.5250  176.7580  140.6170 C   0  0  0  0  0  0  0  0  0  0  0  0
  189.7050  177.3100  137.0940 F   0  0  0  0  0  0  0  0  0  0  0  0
  192.8890  177.2690  140.0280 C   0  0  0  0  0  3  0  0  0  0  0  0
  189.9690  176.5920  139.4030 C   0  0  0  0  0  3  0  0  0  0  0  0
  1 14  1  0  0  0  0
  3 16  2  0  0  0  0
  4 19  1  6  0  0  0
  4  2  1  0  0  0  0
  6 15  1  0  0  0  0
  6  4  1  0  0  0  0
  7  3  1  0  0  0  0
  7 15  1  0  0  0  0
  8  1  1  0  0  0  0
  8  3  1  0  0  0  0
  9  8  2  0  0  0  0
 10  7  1  0  0  0  0
 11 12  2  0  0  0  0
 12 10  1  0  0  0  0
 12 18  1  0  0  0  0
 13  5  1  0  0  0  0
 13  2  1  0  0  0  0
 14 17  2  0  0  0  0
 15 13  1  0  0  0  0
 16 17  1  0  0  0  0
 16  5  1  0  0  0  0
 18  6  1  0  0  0  0
 19 20  1  0  0  0  0
 20 21  1  0  0  0  0
 21 23  1  0  0  0  0
 23 22  1  0  0  0  0
 24 18  1  0  0  0  0
 25 26  2  0  0  0  0
 25 29  1  0  0  0  0
 26 33  1  0  0  0  0
 28 27  1  0  0  0  0
 29 32  1  0  0  0  0
 30 28  1  0  0  0  0
 30 24  1  0  0  0  0
 31 26  1  0  0  0  0
 32 28  2  0  0  0  0
 33 30  2  0  0  0  0
M  END
>  <MODEL>
3

>  <REMARK>
 VINA RESULT:      -7.9      3.141      5.883
  Name = 
  6 active torsions:
  status: ('A' for Active; 'I' for Inactive)
    1  A    between atoms: C_2  and  C_6
    2  A    between atoms: C_2  and  C_32
    3  A    between atoms: C_16  and  C_30
    4  A    between atoms: C_27  and  O_29
    5  A    between atoms: O_29  and  C_32
    6  A    between atoms: C_30  and  C_33
                            x       y       z     vdW  Elec       q    Type
                         _______ _______ _______ _____ _____    ______ ____

>  <TORSDO>
F 6

$$$$
=
 OpenBabel11032420323D

 33 37  0  0  1  0  0  0  0  0999 V2000
  190.7200  177.1160  137.2110 N   0  0  0  0  0  2  0  0  0  0  0  0
  187.0140  178.9940  142.2160 C   0  0  0  0  0  2  0  0  0  0  0  0
  188.7900  177.5930  138.5600 C   0  0  0  0  0  0  0  0  0  0  0  0
  185.6570  179.3060  141.6010 C   0  0  1  0  0  3  0  0  0  0  0  0
  188.8560  177.1240  141.3610 S   0  0  0  0  0  0  0  0  0  0  0  0
  185.8260  179.1030  140.1480 N   0  0  1  0  0  0  0  0  0  0  0  0
  187.4160  178.2530  138.6930 C   0  0  1  0  0  3  0  0  0  0  0  0
  189.4480  177.5830  137.3120 C   0  0  0  0  0  0  0  0  0  0  0  0
  188.8700  178.0060  136.2770 O   0  0  0  0  0  0  0  0  0  0  0  0
  186.4020  177.6330  137.7270 C   0  0  0  0  0  2  0  0  0  0  0  0
  184.0830  177.3180  137.5380 O   0  0  0  0  0  0  0  0  0  0  0  0
  184.9760  177.8500  138.1740 C   0  0  0  0  0  0  0  0  0  0  0  0
  187.8320  178.5650  141.0250 C   0  0  1  0  0  3  0  0  0  0  0  0
  191.3920  176.6680  138.2950 C   0  0  0  0  0  3  0  0  0  0  0  0
  186.8600  178.1580  140.0380 N   0  0  1  0  0  0  0  0  0  0  0  0
  189.5260  177.1340  139.6840 C   0  0  0  0  0  0  0  0  0  0  0  0
  190.7990  176.6830  139.5140 N   0  0  0  0  0  0  0  0  0  0  0  0
  184.6260  178.6150  139.4400 C   0  0  2  0  0  3  0  0  0  0  0  0
  184.5900  178.3950  142.2300 C   0  0  0  0  0  2  0  0  0  0  0  0
  183.7550  179.1220  143.2770 C   0  0  0  0  0  2  0  0  0  0  0  0
  183.7500  178.4150  144.4810 O   0  0  0  0  0  0  0  0  0  0  0  0
  184.5560  178.7100  146.5970 O   0  0  0  0  0  1  0  0  0  0  0  0
  184.7710  178.9860  145.2440 C   0  0  0  0  0  2  0  0  0  0  0  0
  183.7230  179.7930  139.0810 C   0  0  0  0  0  2  0  0  0  0  0  0
  179.5760  178.0050  139.6600 C   0  0  0  0  0  3  0  0  0  0  0  0
  180.6100  178.0060  140.4980 C   0  0  0  0  0  0  0  0  0  0  0  0
  181.5790  181.7680  138.3410 C   0  0  0  0  0  1  0  0  0  0  0  0
  181.2630  180.3350  138.6040 C   0  0  0  0  0  0  0  0  0  0  0  0
  179.6710  178.4490  138.2380 C   0  0  0  0  0  2  0  0  0  0  0  0
  182.2720  179.4810  139.2880 C   0  0  0  0  0  0  0  0  0  0  0  0
  180.4310  177.4810  141.7360 F   0  0  0  0  0  0  0  0  0  0  0  0
  180.0950  179.8780  138.1460 C   0  0  0  0  0  3  0  0  0  0  0  0
  181.9610  178.4800  140.1320 C   0  0  0  0  0  3  0  0  0  0  0  0
  1  8  1  0  0  0  0
  1 14  1  0  0  0  0
  3  7  1  0  0  0  0
  3 16  2  0  0  0  0
  4  2  1  0  0  0  0
  4 19  1  1  0  0  0
  6  4  1  0  0  0  0
  7 15  1  0  0  0  0
  8  3  1  0  0  0  0
  9  8  2  0  0  0  0
 10 12  1  0  0  0  0
 10  7  1  0  0  0  0
 11 12  2  0  0  0  0
 12 18  1  0  0  0  0
 13  5  1  0  0  0  0
 13  2  1  0  0  0  0
 14 17  2  0  0  0  0
 15  6  1  0  0  0  0
 15 13  1  0  0  0  0
 16  5  1  0  0  0  0
 17 16  1  0  0  0  0
 18  6  1  0  0  0  0
 19 20  1  0  0  0  0
 20 21  1  0  0  0  0
 21 23  1  0  0  0  0
 23 22  1  0  0  0  0
 24 30  1  0  0  0  0
 24 18  1  0  0  0  0
 25 26  2  0  0  0  0
 26 31  1  0  0  0  0
 27 28  1  0  0  0  0
 28 30  1  0  0  0  0
 29 25  1  0  0  0  0
 30 33  2  0  0  0  0
 32 29  1  0  0  0  0
 32 28  2  0  0  0  0
 33 26  1  0  0  0  0
M  END
>  <MODEL>
4

>  <REMARK>
 VINA RESULT:      -7.6      4.305      8.993
  Name = 
  6 active torsions:
  status: ('A' for Active; 'I' for Inactive)
    1  A    between atoms: C_2  and  C_6
    2  A    between atoms: C_2  and  C_32
    3  A    between atoms: C_16  and  C_30
    4  A    between atoms: C_27  and  O_29
    5  A    between atoms: O_29  and  C_32
    6  A    between atoms: C_30  and  C_33
                            x       y       z     vdW  Elec       q    Type
                         _______ _______ _______ _____ _____    ______ ____

>  <TORSDO>
F 6

$$$$
=
 OpenBabel11032420323D

 33 37  0  0  1  0  0  0  0  0999 V2000
  189.1980  177.5280  147.9990 N   0  0  0  0  0  0  0  0  0  0  0  0
  185.5310  179.3300  142.9380 C   0  0  0  0  0  2  0  0  0  0  0  0
  188.3290  177.7010  145.7660 C   0  0  1  0  0  3  0  0  0  0  0  0
  186.3910  179.0520  141.7140 C   0  0  1  0  0  3  0  0  0  0  0  0
  185.5340  177.9680  145.3400 S   0  0  0  0  0  0  0  0  0  0  0  0
  187.6820  178.5650  142.2420 N   0  0  1  0  0  0  0  0  0  0  0  0
  188.5880  177.9180  144.2730 C   0  0  1  0  0  3  0  0  0  0  0  0
  189.4160  177.5910  146.6590 C   0  0  0  0  0  0  0  0  0  0  0  0
  190.5990  177.5520  146.2320 O   0  0  0  0  0  0  0  0  0  0  0  0
  189.4580  176.8020  143.6880 C   0  0  0  0  0  2  0  0  0  0  0  0
  189.8630  175.7540  141.6270 O   0  0  0  0  0  0  0  0  0  0  0  0
  189.2960  176.6720  142.1930 C   0  0  0  0  0  0  0  0  0  0  0  0
  186.4180  178.8990  144.0780 C   0  0  1  0  0  3  0  0  0  0  0  0
  187.9480  177.5850  148.5110 C   0  0  0  0  0  3  0  0  0  0  0  0
  187.3650  177.9860  143.4820 N   0  0  1  0  0  0  0  0  0  0  0  0
  187.0300  177.7770  146.3330 C   0  0  0  0  0  0  0  0  0  0  0  0
  186.8820  177.7120  147.6840 N   0  0  0  0  0  0  0  0  0  0  0  0
  188.3730  177.5760  141.3910 C   0  0  2  0  0  3  0  0  0  0  0  0
  185.6750  178.0380  140.8070 C   0  0  0  0  0  2  0  0  0  0  0  0
  184.3480  178.5710  140.2810 C   0  0  0  0  0  2  0  0  0  0  0  0
  184.5440  179.7430  139.5480 O   0  0  0  0  0  0  0  0  0  0  0  0
  182.9950  181.2580  138.8280 O   0  0  0  0  0  1  0  0  0  0  0  0
  183.3700  179.9130  138.8100 C   0  0  0  0  0  2  0  0  0  0  0  0
  189.1840  178.2950  140.3160 C   0  0  0  0  0  2  0  0  0  0  0  0
  187.6310  176.5620  136.4030 C   0  0  0  0  0  3  0  0  0  0  0  0
  187.4990  177.7970  136.8800 C   0  0  0  0  0  0  0  0  0  0  0  0
  191.3460  176.7930  138.8630 C   0  0  0  0  0  1  0  0  0  0  0  0
  189.9210  176.7190  138.4330 C   0  0  0  0  0  0  0  0  0  0  0  0
  188.1770  175.4260  137.2030 C   0  0  0  0  0  2  0  0  0  0  0  0
  188.9520  177.7230  138.9500 C   0  0  0  0  0  0  0  0  0  0  0  0
  186.8920  178.7240  136.0980 F   0  0  0  0  0  0  0  0  0  0  0  0
  189.5780  175.7000  137.6410 C   0  0  0  0  0  3  0  0  0  0  0  0
  187.9120  178.1980  138.2420 C   0  0  0  0  0  3  0  0  0  0  0  0
  1 14  2  0  0  0  0
  2 13  1  0  0  0  0
  3 16  1  1  0  0  0
  3  8  1  0  0  0  0
  4 19  1  6  0  0  0
  4  6  1  0  0  0  0
  4  2  1  0  0  0  0
  5 16  1  0  0  0  0
  6 15  1  0  0  0  0
  7  3  1  0  0  0  0
  8  1  1  0  0  0  0
  9  8  2  0  0  0  0
 10  7  1  0  0  0  0
 11 12  2  0  0  0  0
 12 10  1  0  0  0  0
 13  5  1  0  0  0  0
 15 13  1  0  0  0  0
 15  7  1  0  0  0  0
 16 17  2  0  0  0  0
 17 14  1  0  0  0  0
 18 12  1  0  0  0  0
 18  6  1  0  0  0  0
 20 19  1  0  0  0  0
 21 20  1  0  0  0  0
 23 22  1  0  0  0  0
 23 21  1  0  0  0  0
 24 18  1  0  0  0  0
 25 26  2  0  0  0  0
 25 29  1  0  0  0  0
 26 33  1  0  0  0  0
 28 27  1  0  0  0  0
 28 30  1  0  0  0  0
 29 32  1  0  0  0  0
 30 24  1  0  0  0  0
 31 26  1  0  0  0  0
 32 28  2  0  0  0  0
 33 30  2  0  0  0  0
M  END
>  <MODEL>
5

>  <REMARK>
 VINA RESULT:      -7.4      3.766      6.841
  Name = 
  6 active torsions:
  status: ('A' for Active; 'I' for Inactive)
    1  A    between atoms: C_2  and  C_6
    2  A    between atoms: C_2  and  C_32
    3  A    between atoms: C_16  and  C_30
    4  A    between atoms: C_27  and  O_29
    5  A    between atoms: O_29  and  C_32
    6  A    between atoms: C_30  and  C_33
                            x       y       z     vdW  Elec       q    Type
                         _______ _______ _______ _____ _____    ______ ____

>  <TORSDO>
F 6

$$$$
=
 OpenBabel11032420323D

 33 37  0  0  1  0  0  0  0  0999 V2000
  190.7170  177.6780  140.2090 N   0  0  0  0  0  2  0  0  0  0  0  0
  185.1170  178.9750  143.2540 C   0  0  0  0  0  2  0  0  0  0  0  0
  188.3710  177.9910  140.6220 C   0  0  0  0  0  0  0  0  0  0  0  0
  184.1440  179.3420  142.1420 C   0  0  1  0  0  3  0  0  0  0  0  0
  187.2460  177.2230  143.1150 S   0  0  0  0  0  0  0  0  0  0  0  0
  184.9350  179.2980  140.8960 N   0  0  1  0  0  0  0  0  0  0  0  0
  187.0410  178.6220  140.2050 C   0  0  1  0  0  3  0  0  0  0  0  0
  189.5020  178.1210  139.7900 C   0  0  0  0  0  0  0  0  0  0  0  0
  189.4070  178.6490  138.6510 O   0  0  0  0  0  0  0  0  0  0  0  0
  186.5790  178.1030  138.8410 C   0  0  0  0  0  2  0  0  0  0  0  0
  184.5900  177.7920  137.6330 O   0  0  0  0  0  0  0  0  0  0  0  0
  185.0900  178.2590  138.6410 C   0  0  0  0  0  0  0  0  0  0  0  0
  186.3910  178.6840  142.5040 C   0  0  1  0  0  3  0  0  0  0  0  0
  190.8780  177.1210  141.4310 C   0  0  0  0  0  3  0  0  0  0  0  0
  185.9650  178.3790  141.1590 N   0  0  1  0  0  0  0  0  0  0  0  0
  188.5730  177.4190  141.9060 C   0  0  0  0  0  0  0  0  0  0  0  0
  189.8170  176.9990  142.2650 N   0  0  0  0  0  0  0  0  0  0  0  0
  184.1870  178.8800  139.6940 C   0  0  2  0  0  3  0  0  0  0  0  0
  182.9610  178.3600  142.1560 C   0  0  0  0  0  2  0  0  0  0  0  0
  181.6680  179.0200  142.6200 C   0  0  0  0  0  2  0  0  0  0  0  0
  181.3540  178.6260  143.9210 O   0  0  0  0  0  0  0  0  0  0  0  0
  179.3760  178.0930  142.9120 O   0  0  0  0  0  1  0  0  0  0  0  0
  179.9640  178.7290  144.0080 C   0  0  0  0  0  2  0  0  0  0  0  0
  183.4650  180.0830  139.0900 C   0  0  0  0  0  2  0  0  0  0  0  0
  179.5430  178.2990  137.6220 C   0  0  0  0  0  3  0  0  0  0  0  0
  180.2270  178.0150  138.7270 C   0  0  0  0  0  0  0  0  0  0  0  0
  181.5330  182.2380  138.2760 C   0  0  0  0  0  1  0  0  0  0  0  0
  181.2740  180.8020  137.9690 C   0  0  0  0  0  0  0  0  0  0  0  0
  180.0730  179.1600  136.5250 C   0  0  0  0  0  2  0  0  0  0  0  0
  182.0630  179.7550  138.6730 C   0  0  0  0  0  0  0  0  0  0  0  0
  179.6880  177.1350  139.6070 F   0  0  0  0  0  0  0  0  0  0  0  0
  180.3750  180.5370  137.0190 C   0  0  0  0  0  3  0  0  0  0  0  0
  181.5750  178.5490  139.0150 C   0  0  0  0  0  3  0  0  0  0  0  0
  1 14  1  0  0  0  0
  3 16  2  0  0  0  0
  4 19  1  6  0  0  0
  4  2  1  0  0  0  0
  6 15  1  0  0  0  0
  6  4  1  0  0  0  0
  7  3  1  0  0  0  0
  7 15  1  0  0  0  0
  8  1  1  0  0  0  0
  8  3  1  0  0  0  0
  9  8  2  0  0  0  0
 10  7  1  0  0  0  0
 11 12  2  0  0  0  0
 12 10  1  0  0  0  0
 12 18  1  0  0  0  0
 13  5  1  0  0  0  0
 13  2  1  0  0  0  0
 14 17  2  0  0  0  0
 15 13  1  0  0  0  0
 16 17  1  0  0  0  0
 16  5  1  0  0  0  0
 18  6  1  0  0  0  0
 19 20  1  0  0  0  0
 20 21  1  0  0  0  0
 21 23  1  0  0  0  0
 22 23  1  0  0  0  0
 24 18  1  0  0  0  0
 25 26  2  0  0  0  0
 26 33  1  0  0  0  0
 26 31  1  0  0  0  0
 28 27  1  0  0  0  0
 28 30  1  0  0  0  0
 29 32  1  0  0  0  0
 29 25  1  0  0  0  0
 30 33  2  0  0  0  0
 30 24  1  0  0  0  0
 32 28  2  0  0  0  0
M  END
>  <MODEL>
6

>  <REMARK>
 VINA RESULT:      -7.0      4.486      9.546
  Name = 
  6 active torsions:
  status: ('A' for Active; 'I' for Inactive)
    1  A    between atoms: C_2  and  C_6
    2  A    between atoms: C_2  and  C_32
    3  A    between atoms: C_16  and  C_30
    4  A    between atoms: C_27  and  O_29
    5  A    between atoms: O_29  and  C_32
    6  A    between atoms: C_30  and  C_33
                            x       y       z     vdW  Elec       q    Type
                         _______ _______ _______ _____ _____    ______ ____

>  <TORSDO>
F 6

$$$$
=
 OpenBabel11032420323D

 33 37  0  0  1  0  0  0  0  0999 V2000
  191.7300  177.0890  146.2960 N   0  0  0  0  0  2  0  0  0  0  0  0
  185.8040  178.7860  144.2200 C   0  0  0  0  0  2  0  0  0  0  0  0
  189.8160  177.3880  144.8750 C   0  0  0  0  0  0  0  0  0  0  0  0
  185.9280  178.8630  142.7050 C   0  0  1  0  0  3  0  0  0  0  0  0
  187.1950  177.1340  145.9390 S   0  0  0  0  0  0  0  0  0  0  0  0
  187.3490  178.5820  142.4110 N   0  0  1  0  0  0  0  0  0  0  0  0
  189.2380  177.8590  143.5380 C   0  0  1  0  0  3  0  0  0  0  0  0
  191.2120  177.3800  145.0740 C   0  0  0  0  0  0  0  0  0  0  0  0
  191.9990  177.6430  144.1270 O   0  0  0  0  0  0  0  0  0  0  0  0
  189.7900  177.0370  142.3700 C   0  0  0  0  0  2  0  0  0  0  0  0
  189.1750  176.3910  140.1980 O   0  0  0  0  0  0  0  0  0  0  0  0
  188.8910  177.0850  141.1590 C   0  0  0  0  0  0  0  0  0  0  0  0
  187.1930  178.3910  144.6520 C   0  0  1  0  0  3  0  0  0  0  0  0
  190.9290  176.8160  147.3510 C   0  0  0  0  0  3  0  0  0  0  0  0
  187.7830  177.7840  143.4830 N   0  0  1  0  0  0  0  0  0  0  0  0
  189.0000  177.1170  146.0040 C   0  0  0  0  0  0  0  0  0  0  0  0
  189.5820  176.8360  147.2020 N   0  0  0  0  0  0  0  0  0  0  0  0
  187.5970  177.8830  141.1350 C   0  0  2  0  0  3  0  0  0  0  0  0
  184.9560  177.8600  142.0620 C   0  0  0  0  0  2  0  0  0  0  0  0
  183.5710  178.4570  141.8450 C   0  0  0  0  0  2  0  0  0  0  0  0
  182.8870  177.7620  140.8460 O   0  0  0  0  0  0  0  0  0  0  0  0
  181.3090  179.0980  141.8140 O   0  0  0  0  0  1  0  0  0  0  0  0
  181.7210  178.4970  140.6220 C   0  0  0  0  0  2  0  0  0  0  0  0
  187.6520  178.8960  139.9930 C   0  0  0  0  0  2  0  0  0  0  0  0
  185.1860  176.8470  136.7610 C   0  0  0  0  0  3  0  0  0  0  0  0
  184.8010  177.7540  137.6560 C   0  0  0  0  0  0  0  0  0  0  0  0
  189.0580  178.9870  137.3370 C   0  0  0  0  0  1  0  0  0  0  0  0
  187.8470  178.1440  137.5490 C   0  0  0  0  0  0  0  0  0  0  0  0
  186.5170  176.1740  136.7930 C   0  0  0  0  0  2  0  0  0  0  0  0
  186.9960  178.3840  138.7460 C   0  0  0  0  0  0  0  0  0  0  0  0
  183.5290  178.2200  137.5900 F   0  0  0  0  0  0  0  0  0  0  0  0
  187.6260  177.1650  136.6690 C   0  0  0  0  0  3  0  0  0  0  0  0
  185.6600  178.2280  138.7620 C   0  0  0  0  0  3  0  0  0  0  0  0
  1 14  1  0  0  0  0
  2 13  1  0  0  0  0
  3  8  1  0  0  0  0
  3 16  2  0  0  0  0
  4 19  1  6  0  0  0
  4  2  1  0  0  0  0
  5 16  1  0  0  0  0
  6  4  1  0  0  0  0
  6 15  1  0  0  0  0
  7  3  1  0  0  0  0
  8  1  1  0  0  0  0
  9  8  2  0  0  0  0
 10  7  1  0  0  0  0
 11 12  2  0  0  0  0
 12 10  1  0  0  0  0
 13  5  1  0  0  0  0
 15  7  1  0  0  0  0
 15 13  1  0  0  0  0
 16 17  1  0  0  0  0
 17 14  2  0  0  0  0
 18 12  1  0  0  0  0
 18  6  1  0  0  0  0
 20 19  1  0  0  0  0
 21 20  1  0  0  0  0
 23 21  1  0  0  0  0
 23 22  1  0  0  0  0
 24 18  1  0  0  0  0
 25 29  1  0  0  0  0
 25 26  2  0  0  0  0
 26 33  1  0  0  0  0
 27 28  1  0  0  0  0
 28 30  1  0  0  0  0
 30 33  2  0  0  0  0
 30 24  1  0  0  0  0
 31 26  1  0  0  0  0
 32 29  1  0  0  0  0
 32 28  2  0  0  0  0
M  END
>  <MODEL>
7

>  <REMARK>
 VINA RESULT:      -7.0      3.855      7.740
  Name = 
  6 active torsions:
  status: ('A' for Active; 'I' for Inactive)
    1  A    between atoms: C_2  and  C_6
    2  A    between atoms: C_2  and  C_32
    3  A    between atoms: C_16  and  C_30
    4  A    between atoms: C_27  and  O_29
    5  A    between atoms: O_29  and  C_32
    6  A    between atoms: C_30  and  C_33
                            x       y       z     vdW  Elec       q    Type
                         _______ _______ _______ _____ _____    ______ ____

>  <TORSDO>
F 6

$$$$
=
 OpenBabel11032420323D

 33 37  0  0  1  0  0  0  0  0999 V2000
  181.4870  179.2070  142.5760 N   0  0  0  0  0  0  0  0  0  0  0  0
  187.0890  178.7490  139.3030 C   0  0  0  0  0  2  0  0  0  0  0  0
  183.7580  178.6570  142.0200 C   0  0  1  0  0  3  0  0  0  0  0  0
  188.1470  178.5130  140.3720 C   0  0  1  0  0  3  0  0  0  0  0  0
  184.4440  177.9590  139.3530 S   0  0  0  0  0  0  0  0  0  0  0  0
  187.4250  178.5620  141.6600 N   0  0  1  0  0  0  0  0  0  0  0  0
  185.2370  178.6430  142.4140 C   0  0  1  0  0  3  0  0  0  0  0  0
  182.7840  179.0670  142.9540 C   0  0  0  0  0  0  0  0  0  0  0  0
  183.1010  179.3100  144.1480 O   0  0  0  0  0  0  0  0  0  0  0  0
  185.4800  177.7570  143.6390 C   0  0  0  0  0  2  0  0  0  0  0  0
  187.2060  176.4980  144.6140 O   0  0  0  0  0  0  0  0  0  0  0  0
  186.9120  177.2890  143.7340 C   0  0  0  0  0  0  0  0  0  0  0  0
  185.8170  178.8470  140.1060 C   0  0  1  0  0  3  0  0  0  0  0  0
  181.0970  178.9760  141.3020 C   0  0  0  0  0  3  0  0  0  0  0  0
  186.1120  178.1720  141.3470 N   0  0  1  0  0  0  0  0  0  0  0  0
  183.3240  178.4400  140.6850 C   0  0  0  0  0  0  0  0  0  0  0  0
  182.0100  178.6010  140.3720 N   0  0  0  0  0  0  0  0  0  0  0  0
  187.9690  177.6860  142.7160 C   0  0  2  0  0  3  0  0  0  0  0  0
  188.8460  177.1690  140.1090 C   0  0  0  0  0  2  0  0  0  0  0  0
  188.7560  176.7470  138.6480 C   0  0  0  0  0  2  0  0  0  0  0  0
  189.9730  176.9600  137.9980 O   0  0  0  0  0  0  0  0  0  0  0  0
  191.1670  175.0450  138.3470 O   0  0  0  0  0  1  0  0  0  0  0  0
  190.9310  176.3430  138.8060 C   0  0  0  0  0  2  0  0  0  0  0  0
  189.1170  178.3930  143.4330 C   0  0  0  0  0  2  0  0  0  0  0  0
  190.9470  176.6230  147.2080 C   0  0  0  0  0  3  0  0  0  0  0  0
  189.7260  177.1210  147.0260 C   0  0  0  0  0  0  0  0  0  0  0  0
  190.4500  175.7590  142.8590 C   0  0  0  0  0  1  0  0  0  0  0  0
  190.6280  176.4550  144.1660 C   0  0  0  0  0  0  0  0  0  0  0  0
  192.0410  176.7420  146.2010 C   0  0  0  0  0  2  0  0  0  0  0  0
  189.7000  177.5580  144.5340 C   0  0  0  0  0  0  0  0  0  0  0  0
  188.8440  177.0470  148.0530 F   0  0  0  0  0  0  0  0  0  0  0  0
  191.6660  176.0800  144.9160 C   0  0  0  0  0  3  0  0  0  0  0  0
  189.3010  177.8170  145.7920 C   0  0  0  0  0  3  0  0  0  0  0  0
  1  8  1  0  0  0  0
  2 13  1  0  0  0  0
  2  4  1  0  0  0  0
  3 16  1  6  0  0  0
  3  7  1  0  0  0  0
  3  8  1  0  0  0  0
  4 19  1  6  0  0  0
  4  6  1  0  0  0  0
  5 13  1  0  0  0  0
  5 16  1  0  0  0  0
  6 18  1  0  0  0  0
  7 10  1  0  0  0  0
  8  9  2  0  0  0  0
 10 12  1  0  0  0  0
 12 11  2  0  0  0  0
 13 15  1  0  0  0  0
 14  1  2  0  0  0  0
 15  6  1  0  0  0  0
 15  7  1  0  0  0  0
 17 16  2  0  0  0  0
 17 14  1  0  0  0  0
 18 24  1  0  0  0  0
 18 12  1  0  0  0  0
 20 19  1  0  0  0  0
 21 20  1  0  0  0  0
 21 23  1  0  0  0  0
 22 23  1  0  0  0  0
 24 30  1  0  0  0  0
 26 25  2  0  0  0  0
 26 31  1  0  0  0  0
 27 28  1  0  0  0  0
 28 30  1  0  0  0  0
 28 32  2  0  0  0  0
 29 25  1  0  0  0  0
 30 33  2  0  0  0  0
 32 29  1  0  0  0  0
 33 26  1  0  0  0  0
M  END
>  <MODEL>
8

>  <REMARK>
 VINA RESULT:      -6.9      1.767      2.647
  Name = 
  6 active torsions:
  status: ('A' for Active; 'I' for Inactive)
    1  A    between atoms: C_2  and  C_6
    2  A    between atoms: C_2  and  C_32
    3  A    between atoms: C_16  and  C_30
    4  A    between atoms: C_27  and  O_29
    5  A    between atoms: O_29  and  C_32
    6  A    between atoms: C_30  and  C_33
                            x       y       z     vdW  Elec       q    Type
                         _______ _______ _______ _____ _____    ______ ____

>  <TORSDO>
F 6

$$$$
=
 OpenBabel11032420323D

 33 37  0  0  1  0  0  0  0  0999 V2000
  189.4200  177.7630  147.8680 N   0  0  0  0  0  2  0  0  0  0  0  0
  184.9160  179.3370  143.4470 C   0  0  0  0  0  2  0  0  0  0  0  0
  188.2070  177.8780  145.7970 C   0  0  0  0  0  0  0  0  0  0  0  0
  185.5910  179.1040  142.1020 C   0  0  1  0  0  3  0  0  0  0  0  0
  185.3690  177.9850  145.8110 S   0  0  0  0  0  0  0  0  0  0  0  0
  186.9740  178.6930  142.4210 N   0  0  1  0  0  0  0  0  0  0  0  0
  188.2190  178.1060  144.2840 C   0  0  1  0  0  3  0  0  0  0  0  0
  189.4230  177.8340  146.5110 C   0  0  0  0  0  0  0  0  0  0  0  0
  190.5260  177.8610  145.9050 O   0  0  0  0  0  0  0  0  0  0  0  0
  189.0490  177.0400  143.5650 C   0  0  0  0  0  2  0  0  0  0  0  0
  189.1900  176.0100  141.4590 O   0  0  0  0  0  0  0  0  0  0  0  0
  188.6650  176.8960  142.1120 C   0  0  0  0  0  0  0  0  0  0  0  0
  185.9920  178.9600  144.4320 C   0  0  1  0  0  3  0  0  0  0  0  0
  188.2630  177.7490  148.5680 C   0  0  0  0  0  3  0  0  0  0  0  0
  186.8860  178.1020  143.6920 N   0  0  1  0  0  0  0  0  0  0  0  0
  187.0090  177.8820  146.5590 C   0  0  0  0  0  0  0  0  0  0  0  0
  187.0770  177.8130  147.9160 N   0  0  0  0  0  0  0  0  0  0  0  0
  187.5800  177.7430  141.4680 C   0  0  2  0  0  3  0  0  0  0  0  0
  184.8020  178.0490  141.3110 C   0  0  0  0  0  2  0  0  0  0  0  0
  183.7640  178.6760  140.3880 C   0  0  0  0  0  2  0  0  0  0  0  0
  182.5520  177.9890  140.4720 O   0  0  0  0  0  0  0  0  0  0  0  0
  181.6230  178.6210  142.4590 O   0  0  0  0  0  1  0  0  0  0  0  0
  181.6700  178.8790  141.0870 C   0  0  0  0  0  2  0  0  0  0  0  0
  188.1720  178.5040  140.2840 C   0  0  0  0  0  2  0  0  0  0  0  0
  186.3180  176.3700  136.7150 C   0  0  0  0  0  3  0  0  0  0  0  0
  185.9310  177.4970  137.3080 C   0  0  0  0  0  0  0  0  0  0  0  0
  190.2640  177.7790  138.2490 C   0  0  0  0  0  1  0  0  0  0  0  0
  188.8720  177.2520  138.1590 C   0  0  0  0  0  0  0  0  0  0  0  0
  187.3700  175.4690  137.2700 C   0  0  0  0  0  2  0  0  0  0  0  0
  187.7990  177.8900  138.9680 C   0  0  0  0  0  0  0  0  0  0  0  0
  184.8910  178.1810  136.7680 F   0  0  0  0  0  0  0  0  0  0  0  0
  188.6790  176.1780  137.3900 C   0  0  0  0  0  3  0  0  0  0  0  0
  186.5210  178.0060  138.5640 C   0  0  0  0  0  3  0  0  0  0  0  0
  1 14  1  0  0  0  0
  2 13  1  0  0  0  0
  3  8  1  0  0  0  0
  3 16  2  0  0  0  0
  4 19  1  1  0  0  0
  4  6  1  0  0  0  0
  4  2  1  0  0  0  0
  5 16  1  0  0  0  0
  6 15  1  0  0  0  0
  7  3  1  0  0  0  0
  8  1  1  0  0  0  0
  9  8  2  0  0  0  0
 10  7  1  0  0  0  0
 11 12  2  0  0  0  0
 12 10  1  0  0  0  0
 13  5  1  0  0  0  0
 15  7  1  0  0  0  0
 15 13  1  0  0  0  0
 16 17  1  0  0  0  0
 17 14  2  0  0  0  0
 18 12  1  0  0  0  0
 18  6  1  0  0  0  0
 20 21  1  0  0  0  0
 20 19  1  0  0  0  0
 21 23  1  0  0  0  0
 23 22  1  0  0  0  0
 24 18  1  0  0  0  0
 25 29  1  0  0  0  0
 25 26  2  0  0  0  0
 26 33  1  0  0  0  0
 28 27  1  0  0  0  0
 28 30  1  0  0  0  0
 29 32  1  0  0  0  0
 30 24  1  0  0  0  0
 31 26  1  0  0  0  0
 32 28  2  0  0  0  0
 33 30  2  0  0  0  0
M  END
>  <MODEL>
9

>  <REMARK>
 VINA RESULT:      -6.8      3.819      7.328
  Name = 
  6 active torsions:
  status: ('A' for Active; 'I' for Inactive)
    1  A    between atoms: C_2  and  C_6
    2  A    between atoms: C_2  and  C_32
    3  A    between atoms: C_16  and  C_30
    4  A    between atoms: C_27  and  O_29
    5  A    between atoms: O_29  and  C_32
    6  A    between atoms: C_30  and  C_33
                            x       y       z     vdW  Elec       q    Type
                         _______ _______ _______ _____ _____    ______ ____

>  <TORSDO>
F 6

$$$$
