=
 OpenBabel11042412543D

 43 43  0  0  1  0  0  0  0  0999 V2000
  189.4620  177.5280  142.6880 C   0  0  1  0  0  3  0  0  0  0  0  0
  190.4880  175.8660  141.3080 O   0  0  0  0  0  0  0  0  0  0  0  0
  189.8520  176.9540  141.3620 C   0  0  0  0  0  0  0  0  0  0  0  0
  189.5190  177.6670  140.1210 C   0  0  0  0  0  0  0  0  0  0  0  0
  190.4200  177.9300  139.2810 O   0  0  0  0  0  0  0  0  0  0  0  0
  188.1700  178.0600  139.8680 N   0  0  0  0  0  2  0  0  0  0  0  0
  186.8030  177.8420  135.4610 O   0  0  0  0  0  0  0  0  0  0  0  0
  187.4900  178.0850  137.6180 C   0  0  0  0  0  0  0  0  0  0  0  0
  187.1440  178.6940  136.4440 O   0  0  0  0  0  0  0  0  0  0  0  0
  187.0730  176.5430  135.9810 C   0  0  1  0  0  3  0  0  0  0  0  0
  187.4280  176.6380  137.4700 C   0  0  0  0  0  2  0  0  0  0  0  0
  187.8210  178.7330  138.6880 N   0  0  0  0  0  0  0  0  0  0  0  0
  185.8700  175.6280  135.7710 C   0  0  2  0  0  3  0  0  0  0  0  0
  184.7380  176.3900  135.4710 O   0  0  0  0  0  1  0  0  0  0  0  0
  185.6040  174.8130  137.0260 C   0  0  0  0  0  2  0  0  0  0  0  0
  184.9080  172.8420  137.7310 C   0  0  0  0  0  1  0  0  0  0  0  0
  184.6760  173.8080  136.7530 O   0  0  0  0  0  0  0  0  0  0  0  0
  188.5910  176.5420  143.4570 C   0  0  0  0  0  2  0  0  0  0  0  0
  187.4480  177.2260  144.0650 C   0  0  0  0  0  0  0  0  0  0  0  0
  186.5050  177.7910  144.5610 C   0  0  0  0  0  0  0  0  0  0  0  0
  185.3590  178.4820  145.1610 C   0  0  0  0  0  2  0  0  0  0  0  0
  184.5490  178.6040  142.8470 C   0  0  0  0  0  3  0  0  0  0  0  0
  182.8750  178.9040  144.6510 C   0  0  0  0  0  1  0  0  0  0  0  0
  184.2680  178.6770  144.1560 C   0  0  0  0  0  0  0  0  0  0  0  0
  183.5170  178.7510  141.7670 C   0  0  0  0  0  2  0  0  0  0  0  0
  184.7370  179.5610  139.8880 O   0  0  0  0  0  1  0  0  0  0  0  0
  184.1100  178.4220  140.4020 C   0  0  2  0  0  3  0  0  0  0  0  0
  183.0170  177.9480  139.4470 C   0  0  1  0  0  3  0  0  0  0  0  0
  183.1090  178.6720  138.1860 N   0  0  0  0  0  2  0  0  0  0  0  0
  181.8260  179.3180  137.9730 C   0  0  0  0  0  1  0  0  0  0  0  0
  183.1690  176.4560  139.1810 C   0  0  0  0  0  2  0  0  0  0  0  0
  181.8240  175.7590  139.2850 C   0  0  0  0  0  2  0  0  0  0  0  0
  181.4370  175.1450  137.9460 C   0  0  0  0  0  2  0  0  0  0  0  0
  179.8990  173.9710  139.3720 O   0  0  0  0  0  1  0  0  0  0  0  0
  180.1960  174.2610  138.0400 C   0  0  0  0  0  3  0  0  0  0  0  0
  179.0990  174.8750  137.4340 O   0  0  0  0  0  1  0  0  0  0  0  0
  190.7160  177.8990  143.4760 C   0  0  0  0  0  2  0  0  0  0  0  0
  190.4490  177.9280  144.9760 C   0  0  0  0  0  2  0  0  0  0  0  0
  191.4310  177.0470  145.7330 C   0  0  0  0  0  2  0  0  0  0  0  0
  190.8570  176.6440  147.0810 C   0  0  0  0  0  2  0  0  0  0  0  0
  189.3620  176.9100  147.1190 C   0  0  0  0  0  2  0  0  0  0  0  0
  187.6130  178.3660  148.0910 C   0  0  0  0  0  1  0  0  0  0  0  0
  189.0170  177.8280  148.2780 C   0  0  0  0  0  2  0  0  0  0  0  0
  1 18  1  1  0  0  0
  1 37  1  0  0  0  0
  2  3  2  0  0  0  0
  3  1  1  0  0  0  0
  4  3  1  0  0  0  0
  5  4  2  0  0  0  0
  6  4  1  0  0  0  0
  7 10  1  0  0  0  0
  7  9  1  0  0  0  0
  8 12  2  0  0  0  0
  9  8  1  0  0  0  0
 10 13  1  1  0  0  0
 10 11  1  0  0  0  0
 11  8  1  0  0  0  0
 12  6  1  0  0  0  0
 13 14  1  1  0  0  0
 13 15  1  0  0  0  0
 17 15  1  0  0  0  0
 17 16  1  0  0  0  0
 18 19  1  0  0  0  0
 19 20  3  0  0  0  0
 20 21  1  0  0  0  0
 22 24  2  0  0  0  0
 24 23  1  0  0  0  0
 24 21  1  0  0  0  0
 25 22  1  0  0  0  0
 27 26  1  6  0  0  0
 27 25  1  0  0  0  0
 28 31  1  6  0  0  0
 28 27  1  0  0  0  0
 29 28  1  0  0  0  0
 30 29  1  0  0  0  0
 31 32  1  0  0  0  0
 33 35  1  0  0  0  0
 33 32  1  0  0  0  0
 35 34  1  0  0  0  0
 36 35  1  0  0  0  0
 37 38  1  0  0  0  0
 38 39  1  0  0  0  0
 39 40  1  0  0  0  0
 40 41  1  0  0  0  0
 41 43  1  0  0  0  0
 42 43  1  0  0  0  0
M  END
>  <MODEL>
1

>  <REMARK>
 VINA RESULT:      -6.8      0.000      0.000
  Name = 
  24 active torsions:
  status: ('A' for Active; 'I' for Inactive)
    1  A    between atoms: C_1  and  N_12
    2  A    between atoms: C_1  and  C_21
    3  A    between atoms: C_1  and  C_40
    4  A    between atoms: C_4  and  C_13
    5  A    between atoms: C_4  and  C_36
    6  A    between atoms: C_5  and  C_16
    7  A    between atoms: C_5  and  C_27
    8  A    between atoms: C_6  and  C_21
    9  A    between atoms: C_6  and  C_24
   10  A    between atoms: C_7  and  C_15
   11  A    between atoms: C_7  and  C_22
   12  A    between atoms: C_11  and  C_32
   13  A    between atoms: C_13  and  C_22
   14  A    between atoms: C_14  and  C_15
   15  A    between atoms: C_14  and  C_32
   16  A    between atoms: C_14  and  C_41
   17  A    between atoms: C_17  and  C_37
   18  A    between atoms: C_17  and  C_39
   19  A    between atoms: C_18  and  C_24
   20  A    between atoms: O_19  and  C_27
   21  A    between atoms: C_26  and  C_29
   22  A    between atoms: C_29  and  C_40
   23  A    between atoms: C_30  and  C_41
   24  A    between atoms: N_38  and  N_43
                            x       y       z     vdW  Elec       q    Type
                         _______ _______ _______ _____ _____    ______ ____

>  <TORSDO>
F 24

$$$$
=
 OpenBabel11042412543D

 43 43  0  0  1  0  0  0  0  0999 V2000
  189.3710  177.5180  142.5990 C   0  0  1  0  0  3  0  0  0  0  0  0
  190.5750  175.9840  141.2130 O   0  0  0  0  0  0  0  0  0  0  0  0
  189.8360  177.0050  141.2720 C   0  0  0  0  0  0  0  0  0  0  0  0
  189.4550  177.7020  140.0360 C   0  0  0  0  0  0  0  0  0  0  0  0
  190.3350  178.0190  139.1910 O   0  0  0  0  0  0  0  0  0  0  0  0
  188.0840  178.0180  139.7920 N   0  0  0  0  0  2  0  0  0  0  0  0
  186.8880  177.7510  135.3390 O   0  0  0  0  0  0  0  0  0  0  0  0
  187.4740  178.0190  137.5220 C   0  0  0  0  0  0  0  0  0  0  0  0
  187.0920  178.6120  136.3510 O   0  0  0  0  0  0  0  0  0  0  0  0
  187.3010  176.4810  135.8380 C   0  0  1  0  0  3  0  0  0  0  0  0
  187.5960  176.5800  137.3390 C   0  0  0  0  0  2  0  0  0  0  0  0
  187.6910  178.6740  138.6160 N   0  0  0  0  0  0  0  0  0  0  0  0
  186.2270  175.4310  135.5680 C   0  0  2  0  0  3  0  0  0  0  0  0
  185.0950  176.0380  135.0160 O   0  0  0  0  0  1  0  0  0  0  0  0
  185.8390  174.7320  136.8600 C   0  0  0  0  0  2  0  0  0  0  0  0
  185.0600  172.8760  137.7600 C   0  0  0  0  0  1  0  0  0  0  0  0
  185.7480  173.3570  136.6480 O   0  0  0  0  0  0  0  0  0  0  0  0
  188.3710  176.5500  143.2190 C   0  0  0  0  0  2  0  0  0  0  0  0
  187.2090  177.2740  143.7420 C   0  0  0  0  0  0  0  0  0  0  0  0
  186.2520  177.8710  144.1690 C   0  0  0  0  0  0  0  0  0  0  0  0
  185.0900  178.6010  144.6840 C   0  0  0  0  0  2  0  0  0  0  0  0
  184.2940  178.4650  142.3660 C   0  0  0  0  0  3  0  0  0  0  0  0
  182.5990  178.9010  144.1230 C   0  0  0  0  0  1  0  0  0  0  0  0
  184.0010  178.6630  143.6600 C   0  0  0  0  0  0  0  0  0  0  0  0
  183.2670  178.4730  141.2720 C   0  0  0  0  0  2  0  0  0  0  0  0
  184.7910  179.6970  139.9120 O   0  0  0  0  0  1  0  0  0  0  0  0
  183.9300  178.5960  139.9060 C   0  0  2  0  0  3  0  0  0  0  0  0
  182.8750  178.7610  138.8150 C   0  0  1  0  0  3  0  0  0  0  0  0
  182.1230  177.5230  138.6590 N   0  0  0  0  0  2  0  0  0  0  0  0
  183.0690  176.5000  138.2470 C   0  0  0  0  0  1  0  0  0  0  0  0
  181.9170  179.8860  139.1820 C   0  0  0  0  0  2  0  0  0  0  0  0
  181.5160  180.6670  137.9430 C   0  0  0  0  0  2  0  0  0  0  0  0
  180.9660  182.0340  138.3300 C   0  0  0  0  0  2  0  0  0  0  0  0
  180.5310  182.2290  135.9740 O   0  0  0  0  0  1  0  0  0  0  0  0
  180.7990  182.9630  137.1300 C   0  0  0  0  0  3  0  0  0  0  0  0
  179.7770  183.8860  137.3530 O   0  0  0  0  0  1  0  0  0  0  0  0
  190.5740  177.7400  143.5130 C   0  0  0  0  0  2  0  0  0  0  0  0
  190.1450  178.0260  144.9460 C   0  0  0  0  0  2  0  0  0  0  0  0
  190.9640  177.2220  145.9430 C   0  0  0  0  0  2  0  0  0  0  0  0
  190.1870  177.0180  147.2340 C   0  0  0  0  0  2  0  0  0  0  0  0
  188.7130  176.8040  146.9330 C   0  0  0  0  0  2  0  0  0  0  0  0
  188.4520  178.2470  148.9250 C   0  0  0  0  0  1  0  0  0  0  0  0
  187.8790  177.9020  147.5660 C   0  0  0  0  0  2  0  0  0  0  0  0
  1 18  1  1  0  0  0
  1 37  1  0  0  0  0
  2  3  2  0  0  0  0
  3  1  1  0  0  0  0
  4  3  1  0  0  0  0
  5  4  2  0  0  0  0
  6  4  1  0  0  0  0
  7 10  1  0  0  0  0
  7  9  1  0  0  0  0
  8 12  2  0  0  0  0
  9  8  1  0  0  0  0
 10 13  1  1  0  0  0
 10 11  1  0  0  0  0
 11  8  1  0  0  0  0
 12  6  1  0  0  0  0
 13 14  1  1  0  0  0
 13 15  1  0  0  0  0
 17 15  1  0  0  0  0
 17 16  1  0  0  0  0
 18 19  1  0  0  0  0
 19 20  3  0  0  0  0
 20 21  1  0  0  0  0
 22 24  2  0  0  0  0
 24 23  1  0  0  0  0
 24 21  1  0  0  0  0
 25 22  1  0  0  0  0
 27 26  1  1  0  0  0
 27 25  1  0  0  0  0
 28 31  1  1  0  0  0
 28 27  1  0  0  0  0
 29 28  1  0  0  0  0
 30 29  1  0  0  0  0
 32 33  1  0  0  0  0
 32 31  1  0  0  0  0
 34 35  1  0  0  0  0
 35 36  1  0  0  0  0
 35 33  1  0  0  0  0
 37 38  1  0  0  0  0
 38 39  1  0  0  0  0
 39 40  1  0  0  0  0
 41 40  1  0  0  0  0
 41 43  1  0  0  0  0
 43 42  1  0  0  0  0
M  END
>  <MODEL>
2

>  <REMARK>
 VINA RESULT:      -6.7      1.734      2.848
  Name = 
  24 active torsions:
  status: ('A' for Active; 'I' for Inactive)
    1  A    between atoms: C_1  and  N_12
    2  A    between atoms: C_1  and  C_21
    3  A    between atoms: C_1  and  C_40
    4  A    between atoms: C_4  and  C_13
    5  A    between atoms: C_4  and  C_36
    6  A    between atoms: C_5  and  C_16
    7  A    between atoms: C_5  and  C_27
    8  A    between atoms: C_6  and  C_21
    9  A    between atoms: C_6  and  C_24
   10  A    between atoms: C_7  and  C_15
   11  A    between atoms: C_7  and  C_22
   12  A    between atoms: C_11  and  C_32
   13  A    between atoms: C_13  and  C_22
   14  A    between atoms: C_14  and  C_15
   15  A    between atoms: C_14  and  C_32
   16  A    between atoms: C_14  and  C_41
   17  A    between atoms: C_17  and  C_37
   18  A    between atoms: C_17  and  C_39
   19  A    between atoms: C_18  and  C_24
   20  A    between atoms: O_19  and  C_27
   21  A    between atoms: C_26  and  C_29
   22  A    between atoms: C_29  and  C_40
   23  A    between atoms: C_30  and  C_41
   24  A    between atoms: N_38  and  N_43
                            x       y       z     vdW  Elec       q    Type
                         _______ _______ _______ _____ _____    ______ ____

>  <TORSDO>
F 24

$$$$
=
 OpenBabel11042412543D

 43 43  0  0  1  0  0  0  0  0999 V2000
  191.3000  177.2670  143.7400 C   0  0  1  0  0  3  0  0  0  0  0  0
  190.4000  175.4370  142.4890 O   0  0  0  0  0  0  0  0  0  0  0  0
  190.8170  176.6270  142.4750 C   0  0  0  0  0  0  0  0  0  0  0  0
  190.8520  177.3740  141.2110 C   0  0  0  0  0  0  0  0  0  0  0  0
  191.9560  177.7030  140.7000 O   0  0  0  0  0  0  0  0  0  0  0  0
  189.6310  177.7250  140.5590 N   0  0  0  0  0  2  0  0  0  0  0  0
  187.3790  178.9960  136.7320 O   0  0  0  0  0  0  0  0  0  0  0  0
  188.6010  178.4290  138.5670 C   0  0  0  0  0  0  0  0  0  0  0  0
  188.5560  179.0970  137.3750 O   0  0  0  0  0  0  0  0  0  0  0  0
  186.6130  178.0690  137.4960 C   0  0  1  0  0  3  0  0  0  0  0  0
  187.3410  177.7420  138.8050 C   0  0  0  0  0  2  0  0  0  0  0  0
  189.6340  178.4290  139.3460 N   0  0  0  0  0  0  0  0  0  0  0  0
  185.2240  178.6340  137.7780 C   0  0  2  0  0  3  0  0  0  0  0  0
  185.2130  179.2780  139.0180 O   0  0  0  0  0  1  0  0  0  0  0  0
  184.1940  177.5170  137.7860 C   0  0  0  0  0  2  0  0  0  0  0  0
  183.1920  175.9010  136.6680 C   0  0  0  0  0  1  0  0  0  0  0  0
  184.0870  176.9580  136.5120 O   0  0  0  0  0  0  0  0  0  0  0  0
  190.3830  178.4180  144.1340 C   0  0  0  0  0  2  0  0  0  0  0  0
  188.9860  177.9790  144.1640 C   0  0  0  0  0  0  0  0  0  0  0  0
  187.8350  177.6180  144.1920 C   0  0  0  0  0  0  0  0  0  0  0  0
  186.4370  177.1770  144.2320 C   0  0  0  0  0  2  0  0  0  0  0  0
  184.3220  178.3920  143.9580 C   0  0  0  0  0  3  0  0  0  0  0  0
  186.0980  178.8150  142.2810 C   0  0  0  0  0  1  0  0  0  0  0  0
  185.5550  178.1340  143.4970 C   0  0  0  0  0  0  0  0  0  0  0  0
  183.3780  179.3610  143.3090 C   0  0  0  0  0  2  0  0  0  0  0  0
  182.7430  178.8970  141.0620 O   0  0  0  0  0  1  0  0  0  0  0  0
  182.4010  178.6370  142.3920 C   0  0  2  0  0  3  0  0  0  0  0  0
  180.9710  179.0960  142.6660 C   0  0  1  0  0  3  0  0  0  0  0  0
  180.5390  180.0230  141.6290 N   0  0  0  0  0  2  0  0  0  0  0  0
  179.4650  180.8220  142.1950 C   0  0  0  0  0  1  0  0  0  0  0  0
  180.0340  177.8960  142.6890 C   0  0  0  0  0  2  0  0  0  0  0  0
  179.4600  177.6450  141.3060 C   0  0  0  0  0  2  0  0  0  0  0  0
  179.6020  176.1750  140.9300 C   0  0  0  0  0  2  0  0  0  0  0  0
  181.7470  175.9900  139.8610 O   0  0  0  0  0  1  0  0  0  0  0  0
  180.3710  175.9720  139.6270 C   0  0  0  0  0  3  0  0  0  0  0  0
  180.0100  174.7700  139.0180 O   0  0  0  0  0  1  0  0  0  0  0  0
  191.3860  176.2180  144.8450 C   0  0  0  0  0  2  0  0  0  0  0  0
  191.7830  176.8380  146.1790 C   0  0  0  0  0  2  0  0  0  0  0  0
  190.8540  176.3930  147.2980 C   0  0  0  0  0  2  0  0  0  0  0  0
  189.9240  177.5250  147.7030 C   0  0  0  0  0  2  0  0  0  0  0  0
  188.4960  177.0190  147.8160 C   0  0  0  0  0  2  0  0  0  0  0  0
  186.6370  178.6190  147.4900 C   0  0  0  0  0  1  0  0  0  0  0  0
  187.6200  178.0560  148.4960 C   0  0  0  0  0  2  0  0  0  0  0  0
  1 18  1  1  0  0  0
  1 37  1  0  0  0  0
  3  2  2  0  0  0  0
  3  1  1  0  0  0  0
  4  3  1  0  0  0  0
  5  4  2  0  0  0  0
  6  4  1  0  0  0  0
  7  9  1  0  0  0  0
  7 10  1  0  0  0  0
  8 11  1  0  0  0  0
  8 12  2  0  0  0  0
  9  8  1  0  0  0  0
 10 13  1  1  0  0  0
 10 11  1  0  0  0  0
 12  6  1  0  0  0  0
 13 15  1  0  0  0  0
 13 14  1  1  0  0  0
 17 16  1  0  0  0  0
 17 15  1  0  0  0  0
 18 19  1  0  0  0  0
 19 20  3  0  0  0  0
 20 21  1  0  0  0  0
 23 24  1  0  0  0  0
 24 22  2  0  0  0  0
 24 21  1  0  0  0  0
 25 22  1  0  0  0  0
 27 26  1  6  0  0  0
 27 28  1  0  0  0  0
 27 25  1  0  0  0  0
 28 31  1  6  0  0  0
 29 30  1  0  0  0  0
 29 28  1  0  0  0  0
 32 31  1  0  0  0  0
 33 32  1  0  0  0  0
 35 34  1  0  0  0  0
 35 33  1  0  0  0  0
 36 35  1  0  0  0  0
 37 38  1  0  0  0  0
 38 39  1  0  0  0  0
 39 40  1  0  0  0  0
 40 41  1  0  0  0  0
 41 43  1  0  0  0  0
 42 43  1  0  0  0  0
M  END
>  <MODEL>
3

>  <REMARK>
 VINA RESULT:      -6.7      1.920      2.671
  Name = 
  24 active torsions:
  status: ('A' for Active; 'I' for Inactive)
    1  A    between atoms: C_1  and  N_12
    2  A    between atoms: C_1  and  C_21
    3  A    between atoms: C_1  and  C_40
    4  A    between atoms: C_4  and  C_13
    5  A    between atoms: C_4  and  C_36
    6  A    between atoms: C_5  and  C_16
    7  A    between atoms: C_5  and  C_27
    8  A    between atoms: C_6  and  C_21
    9  A    between atoms: C_6  and  C_24
   10  A    between atoms: C_7  and  C_15
   11  A    between atoms: C_7  and  C_22
   12  A    between atoms: C_11  and  C_32
   13  A    between atoms: C_13  and  C_22
   14  A    between atoms: C_14  and  C_15
   15  A    between atoms: C_14  and  C_32
   16  A    between atoms: C_14  and  C_41
   17  A    between atoms: C_17  and  C_37
   18  A    between atoms: C_17  and  C_39
   19  A    between atoms: C_18  and  C_24
   20  A    between atoms: O_19  and  C_27
   21  A    between atoms: C_26  and  C_29
   22  A    between atoms: C_29  and  C_40
   23  A    between atoms: C_30  and  C_41
   24  A    between atoms: N_38  and  N_43
                            x       y       z     vdW  Elec       q    Type
                         _______ _______ _______ _____ _____    ______ ____

>  <TORSDO>
F 24

$$$$
=
 OpenBabel11042412543D

 43 43  0  0  1  0  0  0  0  0999 V2000
  190.9560  177.2840  143.2820 C   0  0  1  0  0  3  0  0  0  0  0  0
  189.9520  175.2900  142.4220 O   0  0  0  0  0  0  0  0  0  0  0  0
  190.1400  176.5290  142.2790 C   0  0  0  0  0  0  0  0  0  0  0  0
  189.5790  177.2220  141.1120 C   0  0  0  0  0  0  0  0  0  0  0  0
  188.3490  177.4930  141.0680 O   0  0  0  0  0  0  0  0  0  0  0  0
  190.4310  177.5930  140.0270 N   0  0  0  0  0  2  0  0  0  0  0  0
  189.2610  177.4830  135.5610 O   0  0  0  0  0  0  0  0  0  0  0  0
  189.8110  177.6710  137.7610 C   0  0  0  0  0  0  0  0  0  0  0  0
  189.3260  178.2830  136.6400 O   0  0  0  0  0  0  0  0  0  0  0  0
  189.8840  176.2650  135.9600 C   0  0  1  0  0  3  0  0  0  0  0  0
  190.1700  176.2920  137.4660 C   0  0  0  0  0  2  0  0  0  0  0  0
  189.9240  178.2650  138.9060 N   0  0  0  0  0  0  0  0  0  0  0  0
  188.9990  175.0750  135.6010 C   0  0  2  0  0  3  0  0  0  0  0  0
  187.8000  175.5240  135.0420 O   0  0  0  0  0  1  0  0  0  0  0  0
  188.6940  174.2540  136.8430 C   0  0  0  0  0  2  0  0  0  0  0  0
  187.7830  172.2460  136.9070 C   0  0  0  0  0  1  0  0  0  0  0  0
  188.9720  172.9080  136.6030 O   0  0  0  0  0  0  0  0  0  0  0  0
  190.1740  178.4830  143.8050 C   0  0  0  0  0  2  0  0  0  0  0  0
  188.8490  178.0700  144.2750 C   0  0  0  0  0  0  0  0  0  0  0  0
  187.7580  177.7270  144.6600 C   0  0  0  0  0  0  0  0  0  0  0  0
  186.4300  177.3100  145.1210 C   0  0  0  0  0  2  0  0  0  0  0  0
  185.2640  178.1940  143.1500 C   0  0  0  0  0  3  0  0  0  0  0  0
  184.3930  178.8570  145.3740 C   0  0  0  0  0  1  0  0  0  0  0  0
  185.3600  178.1410  144.4860 C   0  0  0  0  0  0  0  0  0  0  0  0
  184.2050  178.9700  142.4230 C   0  0  0  0  0  2  0  0  0  0  0  0
  185.3650  179.4110  140.3900 O   0  0  0  0  0  1  0  0  0  0  0  0
  184.2770  178.7130  140.9230 C   0  0  2  0  0  3  0  0  0  0  0  0
  182.9840  179.1590  140.2440 C   0  0  1  0  0  3  0  0  0  0  0  0
  183.2870  179.8260  138.9850 N   0  0  0  0  0  2  0  0  0  0  0  0
  182.0660  180.4790  138.5460 C   0  0  0  0  0  1  0  0  0  0  0  0
  182.0960  177.9520  139.9720 C   0  0  0  0  0  2  0  0  0  0  0  0
  182.9410  176.7070  139.7680 C   0  0  0  0  0  2  0  0  0  0  0  0
  182.7430  176.1530  138.3640 C   0  0  0  0  0  2  0  0  0  0  0  0
  183.8290  175.6110  136.2890 O   0  0  0  0  0  1  0  0  0  0  0  0
  184.0620  175.9330  137.6260 C   0  0  0  0  0  3  0  0  0  0  0  0
  184.8710  177.0670  137.7050 O   0  0  0  0  0  1  0  0  0  0  0  0
  191.3690  176.3490  144.4160 C   0  0  0  0  0  2  0  0  0  0  0  0
  191.8400  177.1240  145.6400 C   0  0  0  0  0  2  0  0  0  0  0  0
  191.7810  176.2700  146.8960 C   0  0  0  0  0  2  0  0  0  0  0  0
  190.3430  176.0960  147.3570 C   0  0  0  0  0  2  0  0  0  0  0  0
  189.7280  177.4450  147.6860 C   0  0  0  0  0  2  0  0  0  0  0  0
  187.6490  178.6080  148.3560 C   0  0  0  0  0  1  0  0  0  0  0  0
  188.3450  177.2650  148.2860 C   0  0  0  0  0  2  0  0  0  0  0  0
  1 18  1  1  0  0  0
  1 37  1  0  0  0  0
  3  2  2  0  0  0  0
  3  1  1  0  0  0  0
  4  3  1  0  0  0  0
  5  4  2  0  0  0  0
  6  4  1  0  0  0  0
  7 10  1  0  0  0  0
  7  9  1  0  0  0  0
  8 12  2  0  0  0  0
  9  8  1  0  0  0  0
 10 13  1  1  0  0  0
 10 11  1  0  0  0  0
 11  8  1  0  0  0  0
 12  6  1  0  0  0  0
 13 14  1  1  0  0  0
 13 15  1  0  0  0  0
 17 15  1  0  0  0  0
 17 16  1  0  0  0  0
 18 19  1  0  0  0  0
 19 20  3  0  0  0  0
 20 21  1  0  0  0  0
 22 24  2  0  0  0  0
 24 21  1  0  0  0  0
 24 23  1  0  0  0  0
 25 22  1  0  0  0  0
 27 26  1  6  0  0  0
 27 25  1  0  0  0  0
 28 31  1  6  0  0  0
 28 27  1  0  0  0  0
 29 28  1  0  0  0  0
 30 29  1  0  0  0  0
 32 31  1  0  0  0  0
 33 32  1  0  0  0  0
 34 35  1  0  0  0  0
 35 36  1  0  0  0  0
 35 33  1  0  0  0  0
 37 38  1  0  0  0  0
 38 39  1  0  0  0  0
 39 40  1  0  0  0  0
 40 41  1  0  0  0  0
 41 43  1  0  0  0  0
 43 42  1  0  0  0  0
M  END
>  <MODEL>
4

>  <REMARK>
 VINA RESULT:      -6.6      1.963      2.393
  Name = 
  24 active torsions:
  status: ('A' for Active; 'I' for Inactive)
    1  A    between atoms: C_1  and  N_12
    2  A    between atoms: C_1  and  C_21
    3  A    between atoms: C_1  and  C_40
    4  A    between atoms: C_4  and  C_13
    5  A    between atoms: C_4  and  C_36
    6  A    between atoms: C_5  and  C_16
    7  A    between atoms: C_5  and  C_27
    8  A    between atoms: C_6  and  C_21
    9  A    between atoms: C_6  and  C_24
   10  A    between atoms: C_7  and  C_15
   11  A    between atoms: C_7  and  C_22
   12  A    between atoms: C_11  and  C_32
   13  A    between atoms: C_13  and  C_22
   14  A    between atoms: C_14  and  C_15
   15  A    between atoms: C_14  and  C_32
   16  A    between atoms: C_14  and  C_41
   17  A    between atoms: C_17  and  C_37
   18  A    between atoms: C_17  and  C_39
   19  A    between atoms: C_18  and  C_24
   20  A    between atoms: O_19  and  C_27
   21  A    between atoms: C_26  and  C_29
   22  A    between atoms: C_29  and  C_40
   23  A    between atoms: C_30  and  C_41
   24  A    between atoms: N_38  and  N_43
                            x       y       z     vdW  Elec       q    Type
                         _______ _______ _______ _____ _____    ______ ____

>  <TORSDO>
F 24

$$$$
=
 OpenBabel11042412543D

 43 43  0  0  1  0  0  0  0  0999 V2000
  189.7510  177.6880  144.8970 C   0  0  1  0  0  3  0  0  0  0  0  0
  191.1230  179.5050  144.1650 O   0  0  0  0  0  0  0  0  0  0  0  0
  190.7530  178.3140  143.9780 C   0  0  0  0  0  0  0  0  0  0  0  0
  191.2890  177.5530  142.8410 C   0  0  0  0  0  0  0  0  0  0  0  0
  191.9720  176.5130  143.0420 O   0  0  0  0  0  0  0  0  0  0  0  0
  191.0320  177.9920  141.5070 N   0  0  0  0  0  2  0  0  0  0  0  0
  190.4270  176.5450  137.1630 O   0  0  0  0  0  0  0  0  0  0  0  0
  190.8390  177.1830  139.3090 C   0  0  0  0  0  0  0  0  0  0  0  0
  191.2720  176.4990  138.2080 O   0  0  0  0  0  0  0  0  0  0  0  0
  189.2630  177.2070  137.6520 C   0  0  1  0  0  3  0  0  0  0  0  0
  189.5280  177.7610  139.0570 C   0  0  0  0  0  2  0  0  0  0  0  0
  191.5220  177.2790  140.4040 N   0  0  0  0  0  0  0  0  0  0  0  0
  188.8500  178.3250  136.7000 C   0  0  2  0  0  3  0  0  0  0  0  0
  189.0420  179.5680  137.3110 O   0  0  0  0  0  1  0  0  0  0  0  0
  187.3860  178.1780  136.3190 C   0  0  0  0  0  2  0  0  0  0  0  0
  185.7080  177.9360  137.7310 C   0  0  0  0  0  1  0  0  0  0  0  0
  186.5870  178.8880  137.2160 O   0  0  0  0  0  0  0  0  0  0  0  0
  188.8440  176.7390  144.1230 C   0  0  0  0  0  2  0  0  0  0  0  0
  187.9310  177.4890  143.2560 C   0  0  0  0  0  0  0  0  0  0  0  0
  187.1800  178.1030  142.5400 C   0  0  0  0  0  0  0  0  0  0  0  0
  186.2690  178.8470  141.6640 C   0  0  0  0  0  2  0  0  0  0  0  0
  184.0200  178.2150  140.9110 C   0  0  0  0  0  3  0  0  0  0  0  0
  184.3970  178.3600  143.3570 C   0  0  0  0  0  1  0  0  0  0  0  0
  184.8460  178.4750  141.9350 C   0  0  0  0  0  0  0  0  0  0  0  0
  182.5880  177.8000  141.0830 C   0  0  0  0  0  2  0  0  0  0  0  0
  181.1340  179.4240  142.0410 O   0  0  0  0  0  1  0  0  0  0  0  0
  181.6490  178.9720  140.8240 C   0  0  2  0  0  3  0  0  0  0  0  0
  180.5120  178.5470  139.8970 C   0  0  1  0  0  3  0  0  0  0  0  0
  180.3730  179.5050  138.8080 N   0  0  0  0  0  2  0  0  0  0  0  0
  181.7110  179.7890  138.3200 C   0  0  0  0  0  1  0  0  0  0  0  0
  180.7990  177.1680  139.3180 C   0  0  0  0  0  2  0  0  0  0  0  0
  179.6400  176.2260  139.5920 C   0  0  0  0  0  2  0  0  0  0  0  0
  180.1230  174.7820  139.6240 C   0  0  0  0  0  2  0  0  0  0  0  0
  179.9310  172.7410  138.3690 O   0  0  0  0  0  1  0  0  0  0  0  0
  180.0980  174.1210  138.2480 C   0  0  0  0  0  3  0  0  0  0  0  0
  179.0780  174.6540  137.4590 O   0  0  0  0  0  1  0  0  0  0  0  0
  190.4750  176.9680  146.0320 C   0  0  0  0  0  2  0  0  0  0  0  0
  189.5780  176.7990  147.2520 C   0  0  0  0  0  2  0  0  0  0  0  0
  189.4040  178.1110  148.0010 C   0  0  0  0  0  2  0  0  0  0  0  0
  187.9340  178.3770  148.2790 C   0  0  0  0  0  2  0  0  0  0  0  0
  187.0660  177.3970  147.5080 C   0  0  0  0  0  2  0  0  0  0  0  0
  185.5510  179.2650  146.9270 C   0  0  0  0  0  1  0  0  0  0  0  0
  186.3510  178.1050  146.3720 C   0  0  0  0  0  2  0  0  0  0  0  0
  1 18  1  6  0  0  0
  1 37  1  0  0  0  0
  3  2  2  0  0  0  0
  3  1  1  0  0  0  0
  4  5  2  0  0  0  0
  4  3  1  0  0  0  0
  6  4  1  0  0  0  0
  7 10  1  0  0  0  0
  7  9  1  0  0  0  0
  8 12  2  0  0  0  0
  9  8  1  0  0  0  0
 10 13  1  6  0  0  0
 10 11  1  0  0  0  0
 11  8  1  0  0  0  0
 12  6  1  0  0  0  0
 13 14  1  1  0  0  0
 15 13  1  0  0  0  0
 15 17  1  0  0  0  0
 17 16  1  0  0  0  0
 19 18  1  0  0  0  0
 20 19  3  0  0  0  0
 21 24  1  0  0  0  0
 21 20  1  0  0  0  0
 22 25  1  0  0  0  0
 22 24  2  0  0  0  0
 24 23  1  0  0  0  0
 27 25  1  0  0  0  0
 27 26  1  1  0  0  0
 28 31  1  6  0  0  0
 28 27  1  0  0  0  0
 29 28  1  0  0  0  0
 30 29  1  0  0  0  0
 31 32  1  0  0  0  0
 32 33  1  0  0  0  0
 35 34  1  0  0  0  0
 35 33  1  0  0  0  0
 36 35  1  0  0  0  0
 37 38  1  0  0  0  0
 38 39  1  0  0  0  0
 39 40  1  0  0  0  0
 41 40  1  0  0  0  0
 43 42  1  0  0  0  0
 43 41  1  0  0  0  0
M  END
>  <MODEL>
5

>  <REMARK>
 VINA RESULT:      -6.5      2.156      3.213
  Name = 
  24 active torsions:
  status: ('A' for Active; 'I' for Inactive)
    1  A    between atoms: C_1  and  N_12
    2  A    between atoms: C_1  and  C_21
    3  A    between atoms: C_1  and  C_40
    4  A    between atoms: C_4  and  C_13
    5  A    between atoms: C_4  and  C_36
    6  A    between atoms: C_5  and  C_16
    7  A    between atoms: C_5  and  C_27
    8  A    between atoms: C_6  and  C_21
    9  A    between atoms: C_6  and  C_24
   10  A    between atoms: C_7  and  C_15
   11  A    between atoms: C_7  and  C_22
   12  A    between atoms: C_11  and  C_32
   13  A    between atoms: C_13  and  C_22
   14  A    between atoms: C_14  and  C_15
   15  A    between atoms: C_14  and  C_32
   16  A    between atoms: C_14  and  C_41
   17  A    between atoms: C_17  and  C_37
   18  A    between atoms: C_17  and  C_39
   19  A    between atoms: C_18  and  C_24
   20  A    between atoms: O_19  and  C_27
   21  A    between atoms: C_26  and  C_29
   22  A    between atoms: C_29  and  C_40
   23  A    between atoms: C_30  and  C_41
   24  A    between atoms: N_38  and  N_43
                            x       y       z     vdW  Elec       q    Type
                         _______ _______ _______ _____ _____    ______ ____

>  <TORSDO>
F 24

$$$$
=
 OpenBabel11042412543D

 43 43  0  0  1  0  0  0  0  0999 V2000
  185.7800  177.9330  144.8110 C   0  0  1  0  0  3  0  0  0  0  0  0
  184.4390  178.7020  146.6360 O   0  0  0  0  0  0  0  0  0  0  0  0
  184.5990  178.6500  145.3860 C   0  0  0  0  0  0  0  0  0  0  0  0
  183.6080  179.2710  144.4970 C   0  0  0  0  0  0  0  0  0  0  0  0
  183.7500  180.4690  144.1310 O   0  0  0  0  0  0  0  0  0  0  0  0
  182.4840  178.5150  144.0450 N   0  0  0  0  0  2  0  0  0  0  0  0
  181.0030  179.2540  139.7340 O   0  0  0  0  0  0  0  0  0  0  0  0
  181.6330  178.9710  141.9030 C   0  0  0  0  0  0  0  0  0  0  0  0
  180.7300  179.5050  141.0260 O   0  0  0  0  0  0  0  0  0  0  0  0
  182.2750  178.6100  139.7380 C   0  0  1  0  0  3  0  0  0  0  0  0
  182.6940  178.2890  141.1770 C   0  0  0  0  0  2  0  0  0  0  0  0
  181.5290  179.0790  143.1880 N   0  0  0  0  0  0  0  0  0  0  0  0
  182.2270  177.3390  138.8940 C   0  0  2  0  0  3  0  0  0  0  0  0
  182.5620  177.6330  137.5690 O   0  0  0  0  0  1  0  0  0  0  0  0
  180.8340  176.7340  138.9340 C   0  0  0  0  0  2  0  0  0  0  0  0
  179.5640  175.9520  140.5600 C   0  0  0  0  0  1  0  0  0  0  0  0
  180.7770  175.7360  139.9070 O   0  0  0  0  0  0  0  0  0  0  0  0
  185.9180  178.2460  143.3260 C   0  0  0  0  0  2  0  0  0  0  0  0
  187.1660  177.6920  142.7950 C   0  0  0  0  0  0  0  0  0  0  0  0
  188.1940  177.2350  142.3610 C   0  0  0  0  0  0  0  0  0  0  0  0
  189.4470  176.6790  141.8400 C   0  0  0  0  0  2  0  0  0  0  0  0
  190.6230  176.5210  139.6910 C   0  0  0  0  0  3  0  0  0  0  0  0
  188.8270  178.2200  139.8780 C   0  0  0  0  0  1  0  0  0  0  0  0
  189.6850  177.1270  140.4330 C   0  0  0  0  0  0  0  0  0  0  0  0
  190.9100  176.8760  138.2610 C   0  0  0  0  0  2  0  0  0  0  0  0
  190.4160  174.5560  138.0500 O   0  0  0  0  0  1  0  0  0  0  0  0
  190.4850  175.7500  137.3270 C   0  0  2  0  0  3  0  0  0  0  0  0
  191.4800  175.6110  136.1760 C   0  0  1  0  0  3  0  0  0  0  0  0
  190.9910  176.3290  135.0060 N   0  0  0  0  0  2  0  0  0  0  0  0
  189.5400  176.2940  135.0630 C   0  0  0  0  0  1  0  0  0  0  0  0
  192.8320  176.1790  136.5840 C   0  0  0  0  0  2  0  0  0  0  0  0
  193.8650  175.0700  136.6860 C   0  0  0  0  0  2  0  0  0  0  0  0
  194.3390  174.9140  138.1250 C   0  0  0  0  0  2  0  0  0  0  0  0
  196.6460  174.9130  138.8020 O   0  0  0  0  0  1  0  0  0  0  0  0
  195.6430  174.1270  138.2330 C   0  0  0  0  0  3  0  0  0  0  0  0
  195.4640  172.9690  138.9890 O   0  0  0  0  0  1  0  0  0  0  0  0
  187.0400  178.3190  145.5830 C   0  0  0  0  0  2  0  0  0  0  0  0
  187.4560  177.2280  146.5620 C   0  0  0  0  0  2  0  0  0  0  0  0
  188.9550  177.2500  146.8150 C   0  0  0  0  0  2  0  0  0  0  0  0
  189.6780  177.9690  145.6870 C   0  0  0  0  0  2  0  0  0  0  0  0
  190.9750  177.2520  145.3510 C   0  0  0  0  0  2  0  0  0  0  0  0
  191.0120  179.2810  143.9360 C   0  0  0  0  0  1  0  0  0  0  0  0
  191.6820  177.9500  144.2040 C   0  0  0  0  0  2  0  0  0  0  0  0
  1 18  1  6  0  0  0
  1  3  1  0  0  0  0
  1 37  1  0  0  0  0
  3  2  2  0  0  0  0
  4  3  1  0  0  0  0
  5  4  2  0  0  0  0
  6  4  1  0  0  0  0
  7 10  1  0  0  0  0
  7  9  1  0  0  0  0
  8 12  2  0  0  0  0
  9  8  1  0  0  0  0
 10 13  1  6  0  0  0
 10 11  1  0  0  0  0
 11  8  1  0  0  0  0
 12  6  1  0  0  0  0
 13 14  1  6  0  0  0
 13 15  1  0  0  0  0
 15 17  1  0  0  0  0
 17 16  1  0  0  0  0
 19 18  1  0  0  0  0
 20 19  3  0  0  0  0
 21 20  1  0  0  0  0
 22 24  2  0  0  0  0
 23 24  1  0  0  0  0
 24 21  1  0  0  0  0
 25 22  1  0  0  0  0
 27 26  1  1  0  0  0
 27 25  1  0  0  0  0
 28 31  1  1  0  0  0
 28 27  1  0  0  0  0
 29 30  1  0  0  0  0
 29 28  1  0  0  0  0
 31 32  1  0  0  0  0
 32 33  1  0  0  0  0
 33 35  1  0  0  0  0
 35 34  1  0  0  0  0
 35 36  1  0  0  0  0
 37 38  1  0  0  0  0
 38 39  1  0  0  0  0
 40 39  1  0  0  0  0
 41 40  1  0  0  0  0
 42 43  1  0  0  0  0
 43 41  1  0  0  0  0
M  END
>  <MODEL>
6

>  <REMARK>
 VINA RESULT:      -6.4      3.513      7.959
  Name = 
  24 active torsions:
  status: ('A' for Active; 'I' for Inactive)
    1  A    between atoms: C_1  and  N_12
    2  A    between atoms: C_1  and  C_21
    3  A    between atoms: C_1  and  C_40
    4  A    between atoms: C_4  and  C_13
    5  A    between atoms: C_4  and  C_36
    6  A    between atoms: C_5  and  C_16
    7  A    between atoms: C_5  and  C_27
    8  A    between atoms: C_6  and  C_21
    9  A    between atoms: C_6  and  C_24
   10  A    between atoms: C_7  and  C_15
   11  A    between atoms: C_7  and  C_22
   12  A    between atoms: C_11  and  C_32
   13  A    between atoms: C_13  and  C_22
   14  A    between atoms: C_14  and  C_15
   15  A    between atoms: C_14  and  C_32
   16  A    between atoms: C_14  and  C_41
   17  A    between atoms: C_17  and  C_37
   18  A    between atoms: C_17  and  C_39
   19  A    between atoms: C_18  and  C_24
   20  A    between atoms: O_19  and  C_27
   21  A    between atoms: C_26  and  C_29
   22  A    between atoms: C_29  and  C_40
   23  A    between atoms: C_30  and  C_41
   24  A    between atoms: N_38  and  N_43
                            x       y       z     vdW  Elec       q    Type
                         _______ _______ _______ _____ _____    ______ ____

>  <TORSDO>
F 24

$$$$
=
 OpenBabel11042412543D

 43 43  0  0  1  0  0  0  0  0999 V2000
  185.2530  177.7660  138.0020 C   0  0  1  0  0  3  0  0  0  0  0  0
  186.4180  178.0610  135.9330 O   0  0  0  0  0  0  0  0  0  0  0  0
  186.4870  178.0160  137.1920 C   0  0  0  0  0  0  0  0  0  0  0  0
  187.7860  178.1830  137.8580 C   0  0  0  0  0  0  0  0  0  0  0  0
  188.4230  179.2640  137.7400 O   0  0  0  0  0  0  0  0  0  0  0  0
  188.3240  177.1190  138.6440 N   0  0  0  0  0  2  0  0  0  0  0  0
  190.6430  177.7590  142.5860 O   0  0  0  0  0  0  0  0  0  0  0  0
  189.6190  177.4520  140.5770 C   0  0  0  0  0  0  0  0  0  0  0  0
  190.7940  177.5930  141.2600 O   0  0  0  0  0  0  0  0  0  0  0  0
  189.2380  177.8740  142.7920 C   0  0  1  0  0  3  0  0  0  0  0  0
  188.4910  177.5600  141.4900 C   0  0  0  0  0  2  0  0  0  0  0  0
  189.5560  177.2550  139.2990 N   0  0  0  0  0  0  0  0  0  0  0  0
  188.7870  176.9400  143.9110 C   0  0  2  0  0  3  0  0  0  0  0  0
  187.7250  176.1460  143.4710 O   0  0  0  0  0  1  0  0  0  0  0  0
  188.3420  177.7440  145.1200 C   0  0  0  0  0  2  0  0  0  0  0  0
  188.3640  177.2780  147.2760 C   0  0  0  0  0  1  0  0  0  0  0  0
  189.2070  177.5120  146.1900 O   0  0  0  0  0  0  0  0  0  0  0  0
  184.9110  178.9940  138.8360 C   0  0  0  0  0  2  0  0  0  0  0  0
  184.8700  178.6540  140.2610 C   0  0  0  0  0  0  0  0  0  0  0  0
  184.8370  178.3790  141.4350 C   0  0  0  0  0  0  0  0  0  0  0  0
  184.8010  178.0490  142.8630 C   0  0  0  0  0  2  0  0  0  0  0  0
  182.4750  178.8340  142.8810 C   0  0  0  0  0  3  0  0  0  0  0  0
  183.8040  179.1770  144.9460 C   0  0  0  0  0  1  0  0  0  0  0  0
  183.6400  178.7100  143.5350 C   0  0  0  0  0  0  0  0  0  0  0  0
  181.2460  179.4500  143.4820 C   0  0  0  0  0  2  0  0  0  0  0  0
  179.7760  177.6160  143.8680 O   0  0  0  0  0  1  0  0  0  0  0  0
  179.9930  178.7130  143.0290 C   0  0  2  0  0  3  0  0  0  0  0  0
  180.1440  178.2450  141.5820 C   0  0  1  0  0  3  0  0  0  0  0  0
  179.3680  177.0310  141.3680 N   0  0  0  0  0  2  0  0  0  0  0  0
  180.0960  176.2270  140.4010 C   0  0  0  0  0  1  0  0  0  0  0  0
  179.6530  179.3280  140.6310 C   0  0  0  0  0  2  0  0  0  0  0  0
  180.7990  179.8450  139.7790 C   0  0  0  0  0  2  0  0  0  0  0  0
  180.3300  180.9910  138.8930 C   0  0  0  0  0  2  0  0  0  0  0  0
  181.1370  182.9120  137.6950 O   0  0  0  0  0  1  0  0  0  0  0  0
  181.4650  181.6130  138.0830 C   0  0  0  0  0  3  0  0  0  0  0  0
  182.6520  181.6230  138.8160 O   0  0  0  0  0  1  0  0  0  0  0  0
  184.1010  177.3810  137.0760 C   0  0  0  0  0  2  0  0  0  0  0  0
  182.8960  176.8750  137.8590 C   0  0  0  0  0  2  0  0  0  0  0  0
  183.1600  175.5040  138.4630 C   0  0  0  0  0  2  0  0  0  0  0  0
  182.6790  174.4070  137.5280 C   0  0  0  0  0  2  0  0  0  0  0  0
  183.8510  173.8090  136.7680 C   0  0  0  0  0  2  0  0  0  0  0  0
  186.2590  173.5940  137.2940 C   0  0  0  0  0  1  0  0  0  0  0  0
  184.8600  173.2160  137.7350 C   0  0  0  0  0  2  0  0  0  0  0  0
  1 37  1  6  0  0  0
  1 18  1  0  0  0  0
  2  3  2  0  0  0  0
  3  4  1  0  0  0  0
  3  1  1  0  0  0  0
  4  6  1  0  0  0  0
  5  4  2  0  0  0  0
  6 12  1  0  0  0  0
  7 10  1  0  0  0  0
  8  9  1  0  0  0  0
  8 11  1  0  0  0  0
  9  7  1  0  0  0  0
 10 13  1  1  0  0  0
 11 10  1  0  0  0  0
 12  8  2  0  0  0  0
 13 14  1  6  0  0  0
 13 15  1  0  0  0  0
 15 17  1  0  0  0  0
 17 16  1  0  0  0  0
 18 19  1  0  0  0  0
 19 20  3  0  0  0  0
 20 21  1  0  0  0  0
 21 24  1  0  0  0  0
 22 25  1  0  0  0  0
 22 24  2  0  0  0  0
 24 23  1  0  0  0  0
 27 25  1  0  0  0  0
 27 26  1  1  0  0  0
 28 31  1  6  0  0  0
 28 27  1  0  0  0  0
 29 28  1  0  0  0  0
 30 29  1  0  0  0  0
 32 31  1  0  0  0  0
 33 32  1  0  0  0  0
 34 35  1  0  0  0  0
 35 36  1  0  0  0  0
 35 33  1  0  0  0  0
 37 38  1  0  0  0  0
 38 39  1  0  0  0  0
 40 39  1  0  0  0  0
 41 40  1  0  0  0  0
 41 43  1  0  0  0  0
 42 43  1  0  0  0  0
M  END
>  <MODEL>
7

>  <REMARK>
 VINA RESULT:      -6.2      2.443      7.199
  Name = 
  24 active torsions:
  status: ('A' for Active; 'I' for Inactive)
    1  A    between atoms: C_1  and  N_12
    2  A    between atoms: C_1  and  C_21
    3  A    between atoms: C_1  and  C_40
    4  A    between atoms: C_4  and  C_13
    5  A    between atoms: C_4  and  C_36
    6  A    between atoms: C_5  and  C_16
    7  A    between atoms: C_5  and  C_27
    8  A    between atoms: C_6  and  C_21
    9  A    between atoms: C_6  and  C_24
   10  A    between atoms: C_7  and  C_15
   11  A    between atoms: C_7  and  C_22
   12  A    between atoms: C_11  and  C_32
   13  A    between atoms: C_13  and  C_22
   14  A    between atoms: C_14  and  C_15
   15  A    between atoms: C_14  and  C_32
   16  A    between atoms: C_14  and  C_41
   17  A    between atoms: C_17  and  C_37
   18  A    between atoms: C_17  and  C_39
   19  A    between atoms: C_18  and  C_24
   20  A    between atoms: O_19  and  C_27
   21  A    between atoms: C_26  and  C_29
   22  A    between atoms: C_29  and  C_40
   23  A    between atoms: C_30  and  C_41
   24  A    between atoms: N_38  and  N_43
                            x       y       z     vdW  Elec       q    Type
                         _______ _______ _______ _____ _____    ______ ____

>  <TORSDO>
F 24

$$$$
=
 OpenBabel11042412543D

 43 43  0  0  1  0  0  0  0  0999 V2000
  188.1260  177.8000  144.2970 C   0  0  1  0  0  3  0  0  0  0  0  0
  189.5070  176.4620  142.8730 O   0  0  0  0  0  0  0  0  0  0  0  0
  188.6720  177.4040  142.9610 C   0  0  0  0  0  0  0  0  0  0  0  0
  188.2580  178.1280  141.7510 C   0  0  0  0  0  0  0  0  0  0  0  0
  187.2130  178.8310  141.7610 O   0  0  0  0  0  0  0  0  0  0  0  0
  189.0450  178.0360  140.5630 N   0  0  0  0  0  2  0  0  0  0  0  0
  188.9150  178.1830  135.9490 O   0  0  0  0  0  0  0  0  0  0  0  0
  188.9300  178.2380  138.2240 C   0  0  0  0  0  0  0  0  0  0  0  0
  188.5950  178.8700  137.0600 O   0  0  0  0  0  0  0  0  0  0  0  0
  189.6500  177.0510  136.4070 C   0  0  1  0  0  3  0  0  0  0  0  0
  189.5920  176.9740  137.9370 C   0  0  0  0  0  2  0  0  0  0  0  0
  188.6800  178.7230  139.3970 N   0  0  0  0  0  0  0  0  0  0  0  0
  189.0980  175.7730  135.7820 C   0  0  2  0  0  3  0  0  0  0  0  0
  187.8910  176.0420  135.1310 O   0  0  0  0  0  1  0  0  0  0  0  0
  188.8630  174.7220  136.8550 C   0  0  0  0  0  2  0  0  0  0  0  0
  187.8690  172.9530  135.9900 C   0  0  0  0  0  1  0  0  0  0  0  0
  187.6090  174.1360  136.6800 O   0  0  0  0  0  0  0  0  0  0  0  0
  186.9360  176.9220  144.6640 C   0  0  0  0  0  2  0  0  0  0  0  0
  185.6960  177.7030  144.6520 C   0  0  0  0  0  0  0  0  0  0  0  0
  184.6760  178.3460  144.6390 C   0  0  0  0  0  0  0  0  0  0  0  0
  183.4380  179.1320  144.6180 C   0  0  0  0  0  2  0  0  0  0  0  0
  183.4980  178.8400  142.1810 C   0  0  0  0  0  3  0  0  0  0  0  0
  181.2700  179.0980  143.2380 C   0  0  0  0  0  1  0  0  0  0  0  0
  182.7630  179.0300  143.2870 C   0  0  0  0  0  0  0  0  0  0  0  0
  182.9100  178.6900  140.8090 C   0  0  0  0  0  2  0  0  0  0  0  0
  184.7520  179.7560  139.7400 O   0  0  0  0  0  1  0  0  0  0  0  0
  184.0070  178.5740  139.7580 C   0  0  2  0  0  3  0  0  0  0  0  0
  183.4000  178.3150  138.3810 C   0  0  1  0  0  3  0  0  0  0  0  0
  183.7840  176.9920  137.9080 N   0  0  0  0  0  2  0  0  0  0  0  0
  185.1390  177.1020  137.3970 C   0  0  0  0  0  1  0  0  0  0  0  0
  181.8810  178.3980  138.4580 C   0  0  0  0  0  2  0  0  0  0  0  0
  181.2580  177.0580  138.1070 C   0  0  0  0  0  2  0  0  0  0  0  0
  180.4480  176.5250  139.2820 C   0  0  0  0  0  2  0  0  0  0  0  0
  179.8000  174.5400  140.4740 O   0  0  0  0  0  1  0  0  0  0  0  0
  180.3160  175.0040  139.2630 C   0  0  0  0  0  3  0  0  0  0  0  0
  179.4990  174.5880  138.2110 O   0  0  0  0  0  1  0  0  0  0  0  0
  189.2300  177.7120  145.3490 C   0  0  0  0  0  2  0  0  0  0  0  0
  188.7410  178.1710  146.7170 C   0  0  0  0  0  2  0  0  0  0  0  0
  189.4890  177.4700  147.8400 C   0  0  0  0  0  2  0  0  0  0  0  0
  190.2060  176.2360  147.3160 C   0  0  0  0  0  2  0  0  0  0  0  0
  191.7000  176.3500  147.5640 C   0  0  0  0  0  2  0  0  0  0  0  0
  192.0440  175.6310  145.2210 C   0  0  0  0  0  1  0  0  0  0  0  0
  192.4610  175.3980  146.6590 C   0  0  0  0  0  2  0  0  0  0  0  0
  1 18  1  1  0  0  0
  1 37  1  0  0  0  0
  2  3  2  0  0  0  0
  3  1  1  0  0  0  0
  4  5  2  0  0  0  0
  4  3  1  0  0  0  0
  6  4  1  0  0  0  0
  7 10  1  0  0  0  0
  7  9  1  0  0  0  0
  8 12  2  0  0  0  0
  9  8  1  0  0  0  0
 10 13  1  6  0  0  0
 10 11  1  0  0  0  0
 11  8  1  0  0  0  0
 12  6  1  0  0  0  0
 13 14  1  1  0  0  0
 13 15  1  0  0  0  0
 16 17  1  0  0  0  0
 17 15  1  0  0  0  0
 19 18  1  0  0  0  0
 20 19  3  0  0  0  0
 21 20  1  0  0  0  0
 22 24  2  0  0  0  0
 23 24  1  0  0  0  0
 24 21  1  0  0  0  0
 25 22  1  0  0  0  0
 27 26  1  6  0  0  0
 27 25  1  0  0  0  0
 28 31  1  1  0  0  0
 28 27  1  0  0  0  0
 29 28  1  0  0  0  0
 30 29  1  0  0  0  0
 32 31  1  0  0  0  0
 32 33  1  0  0  0  0
 35 33  1  0  0  0  0
 35 34  1  0  0  0  0
 36 35  1  0  0  0  0
 37 38  1  0  0  0  0
 38 39  1  0  0  0  0
 40 41  1  0  0  0  0
 40 39  1  0  0  0  0
 42 43  1  0  0  0  0
 43 41  1  0  0  0  0
M  END
>  <MODEL>
8

>  <REMARK>
 VINA RESULT:      -6.0      1.709      2.456
  Name = 
  24 active torsions:
  status: ('A' for Active; 'I' for Inactive)
    1  A    between atoms: C_1  and  N_12
    2  A    between atoms: C_1  and  C_21
    3  A    between atoms: C_1  and  C_40
    4  A    between atoms: C_4  and  C_13
    5  A    between atoms: C_4  and  C_36
    6  A    between atoms: C_5  and  C_16
    7  A    between atoms: C_5  and  C_27
    8  A    between atoms: C_6  and  C_21
    9  A    between atoms: C_6  and  C_24
   10  A    between atoms: C_7  and  C_15
   11  A    between atoms: C_7  and  C_22
   12  A    between atoms: C_11  and  C_32
   13  A    between atoms: C_13  and  C_22
   14  A    between atoms: C_14  and  C_15
   15  A    between atoms: C_14  and  C_32
   16  A    between atoms: C_14  and  C_41
   17  A    between atoms: C_17  and  C_37
   18  A    between atoms: C_17  and  C_39
   19  A    between atoms: C_18  and  C_24
   20  A    between atoms: O_19  and  C_27
   21  A    between atoms: C_26  and  C_29
   22  A    between atoms: C_29  and  C_40
   23  A    between atoms: C_30  and  C_41
   24  A    between atoms: N_38  and  N_43
                            x       y       z     vdW  Elec       q    Type
                         _______ _______ _______ _____ _____    ______ ____

>  <TORSDO>
F 24

$$$$
=
 OpenBabel11042412543D

 43 43  0  0  1  0  0  0  0  0999 V2000
  184.7800  178.7690  143.6690 C   0  0  1  0  0  3  0  0  0  0  0  0
  183.4130  179.0050  145.6170 O   0  0  0  0  0  0  0  0  0  0  0  0
  184.5760  178.8730  145.1480 C   0  0  0  0  0  0  0  0  0  0  0  0
  185.7320  178.8480  146.0560 C   0  0  0  0  0  0  0  0  0  0  0  0
  186.0080  179.8590  146.7550 O   0  0  0  0  0  0  0  0  0  0  0  0
  186.5390  177.6740  146.1470 N   0  0  0  0  0  2  0  0  0  0  0  0
  191.0890  177.1170  146.7050 O   0  0  0  0  0  0  0  0  0  0  0  0
  188.8340  177.3940  146.5660 C   0  0  0  0  0  0  0  0  0  0  0  0
  189.9390  177.3290  147.3680 O   0  0  0  0  0  0  0  0  0  0  0  0
  190.7050  176.8870  145.3520 C   0  0  1  0  0  3  0  0  0  0  0  0
  189.2090  177.1750  145.1770 C   0  0  0  0  0  2  0  0  0  0  0  0
  187.6410  177.6180  147.0120 N   0  0  0  0  0  0  0  0  0  0  0  0
  191.5350  177.7550  144.4100 C   0  0  2  0  0  3  0  0  0  0  0  0
  190.9910  179.0410  144.3420 O   0  0  0  0  0  1  0  0  0  0  0  0
  191.5550  177.1480  143.0170 C   0  0  0  0  0  2  0  0  0  0  0  0
  192.2660  177.5010  140.9590 C   0  0  0  0  0  1  0  0  0  0  0  0
  191.7170  178.1520  142.0630 O   0  0  0  0  0  0  0  0  0  0  0  0
  185.6490  177.5610  143.3380 C   0  0  0  0  0  2  0  0  0  0  0  0
  186.7350  177.9400  142.4310 C   0  0  0  0  0  0  0  0  0  0  0  0
  187.6270  178.2500  141.6810 C   0  0  0  0  0  0  0  0  0  0  0  0
  188.7100  178.6220  140.7650 C   0  0  0  0  0  2  0  0  0  0  0  0
  189.3500  177.8740  138.5160 C   0  0  0  0  0  3  0  0  0  0  0  0
  186.9360  178.2460  138.9440 C   0  0  0  0  0  1  0  0  0  0  0  0
  188.3730  178.2440  139.3580 C   0  0  0  0  0  0  0  0  0  0  0  0
  189.1070  177.4440  137.0990 C   0  0  0  0  0  2  0  0  0  0  0  0
  190.1190  176.4390  135.1920 O   0  0  0  0  0  1  0  0  0  0  0  0
  190.2900  176.6480  136.5630 C   0  0  2  0  0  3  0  0  0  0  0  0
  190.4030  175.3090  137.2890 C   0  0  1  0  0  3  0  0  0  0  0  0
  190.2420  174.2140  136.3410 N   0  0  0  0  0  2  0  0  0  0  0  0
  189.1330  173.4040  136.8120 C   0  0  0  0  0  1  0  0  0  0  0  0
  191.7640  175.1940  137.9620 C   0  0  0  0  0  2  0  0  0  0  0  0
  192.7120  176.2510  137.4250 C   0  0  0  0  0  2  0  0  0  0  0  0
  193.8720  175.5990  136.6830 C   0  0  0  0  0  2  0  0  0  0  0  0
  195.7530  174.1140  136.8620 O   0  0  0  0  0  1  0  0  0  0  0  0
  194.6590  174.6270  137.5590 C   0  0  0  0  0  3  0  0  0  0  0  0
  195.0930  175.2510  138.7290 O   0  0  0  0  0  1  0  0  0  0  0  0
  183.4260  178.6910  142.9690 C   0  0  0  0  0  2  0  0  0  0  0  0
  183.5600  178.1760  141.5410 C   0  0  0  0  0  2  0  0  0  0  0  0
  182.4650  178.7320  140.6430 C   0  0  0  0  0  2  0  0  0  0  0  0
  181.7900  177.6130  139.8680 C   0  0  0  0  0  2  0  0  0  0  0  0
  182.6790  176.3820  139.8370 C   0  0  0  0  0  2  0  0  0  0  0  0
  183.4530  176.7490  137.5150 C   0  0  0  0  0  1  0  0  0  0  0  0
  182.7220  175.7950  138.4380 C   0  0  0  0  0  2  0  0  0  0  0  0
  1 37  1  6  0  0  0
  1  3  1  0  0  0  0
  3  2  2  0  0  0  0
  3  4  1  0  0  0  0
  4  6  1  0  0  0  0
  4  5  2  0  0  0  0
  6 12  1  0  0  0  0
  7  9  1  0  0  0  0
  8 12  2  0  0  0  0
  8  9  1  0  0  0  0
 10 13  1  6  0  0  0
 10  7  1  0  0  0  0
 11 10  1  0  0  0  0
 11  8  1  0  0  0  0
 13 14  1  6  0  0  0
 15 13  1  0  0  0  0
 16 17  1  0  0  0  0
 17 15  1  0  0  0  0
 18  1  1  0  0  0  0
 19 18  1  0  0  0  0
 20 19  3  0  0  0  0
 21 20  1  0  0  0  0
 22 24  2  0  0  0  0
 23 24  1  0  0  0  0
 24 21  1  0  0  0  0
 25 22  1  0  0  0  0
 27 26  1  6  0  0  0
 27 25  1  0  0  0  0
 27 28  1  0  0  0  0
 28 31  1  6  0  0  0
 29 30  1  0  0  0  0
 29 28  1  0  0  0  0
 32 31  1  0  0  0  0
 33 32  1  0  0  0  0
 33 35  1  0  0  0  0
 34 35  1  0  0  0  0
 35 36  1  0  0  0  0
 38 37  1  0  0  0  0
 39 38  1  0  0  0  0
 40 39  1  0  0  0  0
 41 40  1  0  0  0  0
 42 43  1  0  0  0  0
 43 41  1  0  0  0  0
M  END
>  <MODEL>
9

>  <REMARK>
 VINA RESULT:      -5.9      3.708      9.405
  Name = 
  24 active torsions:
  status: ('A' for Active; 'I' for Inactive)
    1  A    between atoms: C_1  and  N_12
    2  A    between atoms: C_1  and  C_21
    3  A    between atoms: C_1  and  C_40
    4  A    between atoms: C_4  and  C_13
    5  A    between atoms: C_4  and  C_36
    6  A    between atoms: C_5  and  C_16
    7  A    between atoms: C_5  and  C_27
    8  A    between atoms: C_6  and  C_21
    9  A    between atoms: C_6  and  C_24
   10  A    between atoms: C_7  and  C_15
   11  A    between atoms: C_7  and  C_22
   12  A    between atoms: C_11  and  C_32
   13  A    between atoms: C_13  and  C_22
   14  A    between atoms: C_14  and  C_15
   15  A    between atoms: C_14  and  C_32
   16  A    between atoms: C_14  and  C_41
   17  A    between atoms: C_17  and  C_37
   18  A    between atoms: C_17  and  C_39
   19  A    between atoms: C_18  and  C_24
   20  A    between atoms: O_19  and  C_27
   21  A    between atoms: C_26  and  C_29
   22  A    between atoms: C_29  and  C_40
   23  A    between atoms: C_30  and  C_41
   24  A    between atoms: N_38  and  N_43
                            x       y       z     vdW  Elec       q    Type
                         _______ _______ _______ _____ _____    ______ ____

>  <TORSDO>
F 24

$$$$
