=
 OpenBabel11042410283D

 35 38  0  0  1  0  0  0  0  0999 V2000
  191.0940  177.3800  145.5720 C   0  0  0  0  0  0  0  0  0  0  0  0
  189.6420  177.9580  143.2500 C   0  0  0  0  0  0  0  0  0  0  0  0
  191.7040  178.0680  144.5210 C   0  0  0  0  0  3  0  0  0  0  0  0
  189.0190  177.2670  144.3060 C   0  0  0  0  0  0  0  0  0  0  0  0
  190.9800  178.3540  143.3620 C   0  0  0  0  0  3  0  0  0  0  0  0
  189.7610  176.9790  145.4640 C   0  0  0  0  0  3  0  0  0  0  0  0
  191.7950  177.1000  146.6950 F   0  0  0  0  0  0  0  0  0  0  0  0
  187.6810  176.8610  144.1540 O   0  0  0  0  0  0  0  0  0  0  0  0
  186.3260  177.8610  145.9570 C   0  0  0  0  0  3  0  0  0  0  0  0
  184.4180  178.5960  144.0530 C   0  0  0  0  0  0  0  0  0  0  0  0
  186.5320  177.5300  144.6070 C   0  0  0  0  0  0  0  0  0  0  0  0
  185.1730  178.5440  146.3510 C   0  0  0  0  0  3  0  0  0  0  0  0
  184.2170  178.9090  145.4000 C   0  0  0  0  0  3  0  0  0  0  0  0
  185.5710  177.9060  143.6610 C   0  0  0  0  0  3  0  0  0  0  0  0
  183.3960  178.9740  143.0390 C   0  0  0  0  0  2  0  0  0  0  0  0
  182.0060  178.9620  143.6660 C   0  0  0  0  0  2  0  0  0  0  0  0
  179.6020  177.6350  141.3290 C   0  0  0  0  0  2  0  0  0  0  0  0
  180.9060  179.1630  142.6280 C   0  0  1  0  0  0  0  0  0  0  0  0
  180.4310  178.3330  139.2590 C   0  0  0  0  0  1  0  0  0  0  0  0
  179.8380  178.1020  142.7450 C   0  0  0  0  0  2  0  0  0  0  0  0
  180.3400  180.4350  142.7500 O   0  0  0  0  0  1  0  0  0  0  0  0
  181.4850  179.0050  141.2360 C   0  0  0  0  0  2  0  0  0  0  0  0
  180.8260  177.8810  140.5810 N   0  0  0  0  0  0  0  0  0  0  0  0
  188.9000  178.2570  141.9890 C   0  0  0  0  0  2  0  0  0  0  0  0
  189.3270  177.2980  140.8960 C   0  0  0  0  0  2  0  0  0  0  0  0
  189.3410  178.0210  139.5650 C   0  0  0  0  0  2  0  0  0  0  0  0
  188.5650  177.2440  138.5560 C   0  0  0  0  0  0  0  0  0  0  0  0
  187.1780  177.5270  138.3240 N   0  0  0  0  0  0  0  0  0  0  0  0
  185.2660  177.5230  136.7820 C   0  0  0  0  0  2  0  0  0  0  0  0
  185.1360  178.7880  138.9080 C   0  0  0  0  0  0  0  0  0  0  0  0
  186.5220  178.4940  139.1070 N   0  0  0  0  0  2  0  0  0  0  0  0
  186.4140  176.7110  137.3750 C   0  0  0  0  0  2  0  0  0  0  0  0
  184.3490  178.0260  137.8900 C   0  0  0  0  0  2  0  0  0  0  0  0
  184.5690  179.6560  139.6210 O   0  0  0  0  0  0  0  0  0  0  0  0
  189.1520  176.3490  137.8890 O   0  0  0  0  0  0  0  0  0  0  0  0
  1  7  1  0  0  0  0
  2  5  2  0  0  0  0
  2  4  1  0  0  0  0
  3  1  2  0  0  0  0
  4  6  2  0  0  0  0
  5  3  1  0  0  0  0
  6  1  1  0  0  0  0
  8  4  1  0  0  0  0
  8 11  1  0  0  0  0
  9 12  1  0  0  0  0
 10 13  1  0  0  0  0
 11  9  2  0  0  0  0
 13 12  2  0  0  0  0
 14 10  2  0  0  0  0
 14 11  1  0  0  0  0
 15 16  1  0  0  0  0
 15 10  1  0  0  0  0
 17 20  1  0  0  0  0
 18 20  1  0  0  0  0
 18 21  1  1  0  0  0
 18 16  1  0  0  0  0
 19 23  1  0  0  0  0
 22 18  1  0  0  0  0
 23 22  1  0  0  0  0
 23 17  1  0  0  0  0
 24  2  1  0  0  0  0
 25 24  1  0  0  0  0
 26 25  1  0  0  0  0
 27 26  1  0  0  0  0
 28 27  1  0  0  0  0
 28 31  1  0  0  0  0
 29 32  1  0  0  0  0
 29 33  1  0  0  0  0
 30 31  1  0  0  0  0
 30 34  2  0  0  0  0
 32 28  1  0  0  0  0
 33 30  1  0  0  0  0
 35 27  2  0  0  0  0
M  END
>  <MODEL>
1

>  <REMARK>
 VINA RESULT:      -9.5      0.000      0.000
  Name = 
  9 active torsions:
  status: ('A' for Active; 'I' for Inactive)
    1  A    between atoms: O_2  and  C_18
    2  A    between atoms: O_2  and  C_26
    3  A    between atoms: C_3  and  C_20
    4  A    between atoms: C_4  and  C_6
    5  A    between atoms: C_4  and  C_11
    6  A    between atoms: C_6  and  C_20
    7  A    between atoms: C_7  and  C_34
    8  A    between atoms: C_21  and  C_27
    9  A    between atoms: C_27  and  C_34
                            x       y       z     vdW  Elec       q    Type
                         _______ _______ _______ _____ _____    ______ ____

>  <TORSDO>
F 9

$$$$
=
 OpenBabel11042410283D

 35 38  0  0  1  0  0  0  0  0999 V2000
  188.2070  178.1660  148.0590 C   0  0  0  0  0  0  0  0  0  0  0  0
  186.5840  178.1300  145.7800 C   0  0  0  0  0  0  0  0  0  0  0  0
  186.9750  178.8230  148.0700 C   0  0  0  0  0  3  0  0  0  0  0  0
  187.8220  177.4620  145.7620 C   0  0  0  0  0  0  0  0  0  0  0  0
  186.1660  178.8070  146.9310 C   0  0  0  0  0  3  0  0  0  0  0  0
  188.6300  177.4920  146.9120 C   0  0  0  0  0  3  0  0  0  0  0  0
  188.9930  178.1830  149.1620 F   0  0  0  0  0  0  0  0  0  0  0  0
  188.2250  176.8100  144.5820 O   0  0  0  0  0  0  0  0  0  0  0  0
  190.5660  177.5550  144.3640 C   0  0  0  0  0  3  0  0  0  0  0  0
  190.4230  177.0470  141.6200 C   0  0  0  0  0  0  0  0  0  0  0  0
  189.3660  177.0770  143.8100 C   0  0  0  0  0  0  0  0  0  0  0  0
  191.6800  177.7860  143.5520 C   0  0  0  0  0  3  0  0  0  0  0  0
  191.6070  177.5350  142.1800 C   0  0  0  0  0  3  0  0  0  0  0  0
  189.3070  176.8230  142.4350 C   0  0  0  0  0  3  0  0  0  0  0  0
  190.3410  176.7890  140.1570 C   0  0  0  0  0  2  0  0  0  0  0  0
  189.5290  177.8860  139.4760 C   0  0  0  0  0  2  0  0  0  0  0  0
  187.6970  178.3700  136.4080 C   0  0  0  0  0  2  0  0  0  0  0  0
  189.3230  177.6090  137.9900 C   0  0  1  0  0  0  0  0  0  0  0  0
  186.7730  176.2620  136.0030 C   0  0  0  0  0  1  0  0  0  0  0  0
  188.8500  178.8440  137.2610 C   0  0  0  0  0  2  0  0  0  0  0  0
  190.4990  177.1250  137.4110 O   0  0  0  0  0  1  0  0  0  0  0  0
  188.2190  176.5840  137.8120 C   0  0  0  0  0  2  0  0  0  0  0  0
  187.1320  177.1950  137.0560 N   0  0  0  0  0  0  0  0  0  0  0  0
  185.7090  178.1490  144.5700 C   0  0  0  0  0  2  0  0  0  0  0  0
  184.2770  178.4430  144.9710 C   0  0  0  0  0  2  0  0  0  0  0  0
  183.7330  179.5680  144.1140 C   0  0  0  0  0  2  0  0  0  0  0  0
  182.7430  179.0300  143.1360 C   0  0  0  0  0  0  0  0  0  0  0  0
  183.1410  178.7060  141.7960 N   0  0  0  0  0  0  0  0  0  0  0  0
  182.7980  177.3500  139.7780 C   0  0  0  0  0  2  0  0  0  0  0  0
  184.8790  178.6680  140.0420 C   0  0  0  0  0  0  0  0  0  0  0  0
  184.4580  178.9680  141.3760 N   0  0  0  0  0  2  0  0  0  0  0  0
  182.1420  178.2390  140.8300 C   0  0  0  0  0  2  0  0  0  0  0  0
  183.9010  178.1160  139.0560 C   0  0  0  0  0  2  0  0  0  0  0  0
  186.0610  178.9120  139.6870 O   0  0  0  0  0  0  0  0  0  0  0  0
  181.5540  178.8390  143.5110 O   0  0  0  0  0  0  0  0  0  0  0  0
  1  3  1  0  0  0  0
  1  7  1  0  0  0  0
  2  5  1  0  0  0  0
  4  2  2  0  0  0  0
  4  6  1  0  0  0  0
  5  3  2  0  0  0  0
  6  1  2  0  0  0  0
  8  4  1  0  0  0  0
 10 13  2  0  0  0  0
 10 14  1  0  0  0  0
 11  9  1  0  0  0  0
 11  8  1  0  0  0  0
 12  9  2  0  0  0  0
 13 12  1  0  0  0  0
 14 11  2  0  0  0  0
 15 10  1  0  0  0  0
 16 15  1  0  0  0  0
 17 23  1  0  0  0  0
 17 20  1  0  0  0  0
 18 21  1  6  0  0  0
 18 16  1  0  0  0  0
 19 23  1  0  0  0  0
 20 18  1  0  0  0  0
 22 18  1  0  0  0  0
 23 22  1  0  0  0  0
 24 25  1  0  0  0  0
 24  2  1  0  0  0  0
 26 25  1  0  0  0  0
 27 35  2  0  0  0  0
 27 26  1  0  0  0  0
 28 27  1  0  0  0  0
 29 32  1  0  0  0  0
 30 31  1  0  0  0  0
 31 28  1  0  0  0  0
 32 28  1  0  0  0  0
 33 29  1  0  0  0  0
 33 30  1  0  0  0  0
 34 30  2  0  0  0  0
M  END
>  <MODEL>
2

>  <REMARK>
 VINA RESULT:      -9.2      1.730      6.418
  Name = 
  9 active torsions:
  status: ('A' for Active; 'I' for Inactive)
    1  A    between atoms: O_2  and  C_18
    2  A    between atoms: O_2  and  C_26
    3  A    between atoms: C_3  and  C_20
    4  A    between atoms: C_4  and  C_6
    5  A    between atoms: C_4  and  C_11
    6  A    between atoms: C_6  and  C_20
    7  A    between atoms: C_7  and  C_34
    8  A    between atoms: C_21  and  C_27
    9  A    between atoms: C_27  and  C_34
                            x       y       z     vdW  Elec       q    Type
                         _______ _______ _______ _____ _____    ______ ____

>  <TORSDO>
F 9

$$$$
=
 OpenBabel11042410283D

 35 38  0  0  1  0  0  0  0  0999 V2000
  188.7240  177.8860  148.2910 C   0  0  0  0  0  0  0  0  0  0  0  0
  189.6770  177.1420  145.7670 C   0  0  0  0  0  0  0  0  0  0  0  0
  190.0830  177.6240  148.1080 C   0  0  0  0  0  3  0  0  0  0  0  0
  188.3060  177.4080  145.9420 C   0  0  0  0  0  0  0  0  0  0  0  0
  190.5580  177.2510  146.8490 C   0  0  0  0  0  3  0  0  0  0  0  0
  187.8400  177.7750  147.2160 C   0  0  0  0  0  3  0  0  0  0  0  0
  188.2620  178.2460  149.5120 F   0  0  0  0  0  0  0  0  0  0  0  0
  187.4420  177.2670  144.8410 O   0  0  0  0  0  0  0  0  0  0  0  0
  185.4050  178.3130  145.7560 C   0  0  0  0  0  3  0  0  0  0  0  0
  184.4170  178.5560  143.1540 C   0  0  0  0  0  0  0  0  0  0  0  0
  186.1710  177.8400  144.6780 C   0  0  0  0  0  0  0  0  0  0  0  0
  184.1530  178.8930  145.5360 C   0  0  0  0  0  3  0  0  0  0  0  0
  183.6580  179.0120  144.2350 C   0  0  0  0  0  3  0  0  0  0  0  0
  185.6680  177.9710  143.3780 C   0  0  0  0  0  3  0  0  0  0  0  0
  183.8860  178.6730  141.7690 C   0  0  0  0  0  2  0  0  0  0  0  0
  185.0310  178.8970  140.7870 C   0  0  0  0  0  2  0  0  0  0  0  0
  183.6130  177.2950  137.8840 C   0  0  0  0  0  2  0  0  0  0  0  0
  184.5470  178.9470  139.3410 C   0  0  1  0  0  0  0  0  0  0  0  0
  185.3690  177.3320  136.3440 C   0  0  0  0  0  1  0  0  0  0  0  0
  183.3240  178.0820  139.1400 C   0  0  0  0  0  2  0  0  0  0  0  0
  184.2760  180.2630  138.9570 O   0  0  0  0  0  1  0  0  0  0  0  0
  185.6090  178.3670  138.4280 C   0  0  0  0  0  2  0  0  0  0  0  0
  185.0590  177.1960  137.7560 N   0  0  0  0  0  0  0  0  0  0  0  0
  190.2100  176.7180  144.4380 C   0  0  0  0  0  2  0  0  0  0  0  0
  190.5560  177.9370  143.6070 C   0  0  0  0  0  2  0  0  0  0  0  0
  191.0420  177.4970  142.2410 C   0  0  0  0  0  2  0  0  0  0  0  0
  189.9230  177.5640  141.2570 C   0  0  0  0  0  0  0  0  0  0  0  0
  190.1390  177.2270  139.8790 N   0  0  0  0  0  0  0  0  0  0  0  0
  189.2310  176.3780  137.7610 C   0  0  0  0  0  2  0  0  0  0  0  0
  191.6820  176.5760  138.0640 C   0  0  0  0  0  0  0  0  0  0  0  0
  191.4340  176.9030  139.4340 N   0  0  0  0  0  2  0  0  0  0  0  0
  189.0440  177.3600  138.9140 C   0  0  0  0  0  2  0  0  0  0  0  0
  190.5670  176.6260  137.0690 C   0  0  0  0  0  2  0  0  0  0  0  0
  192.8480  176.2900  137.6870 O   0  0  0  0  0  0  0  0  0  0  0  0
  188.7750  177.8980  141.6580 O   0  0  0  0  0  0  0  0  0  0  0  0
  1  7  1  0  0  0  0
  2  4  2  0  0  0  0
  2  5  1  0  0  0  0
  3  1  1  0  0  0  0
  4  6  1  0  0  0  0
  5  3  2  0  0  0  0
  6  1  2  0  0  0  0
  8  4  1  0  0  0  0
 10 14  2  0  0  0  0
 10 13  1  0  0  0  0
 11  8  1  0  0  0  0
 11  9  2  0  0  0  0
 12  9  1  0  0  0  0
 13 12  2  0  0  0  0
 14 11  1  0  0  0  0
 15 10  1  0  0  0  0
 16 15  1  0  0  0  0
 17 20  1  0  0  0  0
 18 21  1  6  0  0  0
 18 16  1  0  0  0  0
 19 23  1  0  0  0  0
 20 18  1  0  0  0  0
 22 18  1  0  0  0  0
 23 17  1  0  0  0  0
 23 22  1  0  0  0  0
 24  2  1  0  0  0  0
 25 24  1  0  0  0  0
 26 25  1  0  0  0  0
 27 35  2  0  0  0  0
 27 26  1  0  0  0  0
 28 27  1  0  0  0  0
 29 32  1  0  0  0  0
 30 31  1  0  0  0  0
 31 28  1  0  0  0  0
 32 28  1  0  0  0  0
 33 29  1  0  0  0  0
 33 30  1  0  0  0  0
 34 30  2  0  0  0  0
M  END
>  <MODEL>
3

>  <REMARK>
 VINA RESULT:      -9.2      2.314      4.124
  Name = 
  9 active torsions:
  status: ('A' for Active; 'I' for Inactive)
    1  A    between atoms: O_2  and  C_18
    2  A    between atoms: O_2  and  C_26
    3  A    between atoms: C_3  and  C_20
    4  A    between atoms: C_4  and  C_6
    5  A    between atoms: C_4  and  C_11
    6  A    between atoms: C_6  and  C_20
    7  A    between atoms: C_7  and  C_34
    8  A    between atoms: C_21  and  C_27
    9  A    between atoms: C_27  and  C_34
                            x       y       z     vdW  Elec       q    Type
                         _______ _______ _______ _____ _____    ______ ____

>  <TORSDO>
F 9

$$$$
=
 OpenBabel11042410283D

 35 38  0  0  1  0  0  0  0  0999 V2000
  187.3810  178.2900  147.6340 C   0  0  0  0  0  0  0  0  0  0  0  0
  186.3230  177.9980  145.0600 C   0  0  0  0  0  0  0  0  0  0  0  0
  186.1890  178.9330  147.2920 C   0  0  0  0  0  3  0  0  0  0  0  0
  187.5230  177.3440  145.3960 C   0  0  0  0  0  0  0  0  0  0  0  0
  185.6630  178.7880  146.0070 C   0  0  0  0  0  3  0  0  0  0  0  0
  188.0460  177.5040  146.6900 C   0  0  0  0  0  3  0  0  0  0  0  0
  187.8940  178.4320  148.8790 F   0  0  0  0  0  0  0  0  0  0  0  0
  188.1750  176.5760  144.4150 O   0  0  0  0  0  0  0  0  0  0  0  0
  190.5500  177.2340  144.3090 C   0  0  0  0  0  3  0  0  0  0  0  0
  190.3780  177.2350  141.5200 C   0  0  0  0  0  0  0  0  0  0  0  0
  189.3270  176.9220  143.6910 C   0  0  0  0  0  0  0  0  0  0  0  0
  191.6720  177.5530  143.5400 C   0  0  0  0  0  3  0  0  0  0  0  0
  191.5860  177.5560  142.1460 C   0  0  0  0  0  3  0  0  0  0  0  0
  189.2540  176.9210  142.2930 C   0  0  0  0  0  3  0  0  0  0  0  0
  190.2810  177.2470  140.0350 C   0  0  0  0  0  2  0  0  0  0  0  0
  189.0590  178.0480  139.5970 C   0  0  0  0  0  2  0  0  0  0  0  0
  188.1630  176.5980  136.4190 C   0  0  0  0  0  2  0  0  0  0  0  0
  188.9440  178.1340  138.0780 C   0  0  1  0  0  0  0  0  0  0  0  0
  190.2240  176.3600  135.3430 C   0  0  0  0  0  1  0  0  0  0  0  0
  187.6970  177.4430  137.5800 C   0  0  0  0  0  2  0  0  0  0  0  0
  188.9590  179.4670  137.6580 O   0  0  0  0  0  1  0  0  0  0  0  0
  190.1020  177.3950  137.4370 C   0  0  0  0  0  2  0  0  0  0  0  0
  189.5700  176.2970  136.6390 N   0  0  0  0  0  0  0  0  0  0  0  0
  185.7480  177.8800  143.6860 C   0  0  0  0  0  2  0  0  0  0  0  0
  184.9210  179.1090  143.3640 C   0  0  0  0  0  2  0  0  0  0  0  0
  183.8290  178.7400  142.3810 C   0  0  0  0  0  2  0  0  0  0  0  0
  184.3510  178.8220  140.9860 C   0  0  0  0  0  0  0  0  0  0  0  0
  183.7850  178.0150  139.9440 N   0  0  0  0  0  0  0  0  0  0  0  0
  183.2860  177.7190  137.5570 C   0  0  0  0  0  2  0  0  0  0  0  0
  182.2040  176.2530  139.2370 C   0  0  0  0  0  0  0  0  0  0  0  0
  182.7780  177.0810  140.2520 N   0  0  0  0  0  2  0  0  0  0  0  0
  184.3530  178.0610  138.5930 C   0  0  0  0  0  2  0  0  0  0  0  0
  182.7100  176.3350  137.8320 C   0  0  0  0  0  2  0  0  0  0  0  0
  181.3060  175.4240  139.5350 O   0  0  0  0  0  0  0  0  0  0  0  0
  185.2840  179.6310  140.7290 O   0  0  0  0  0  0  0  0  0  0  0  0
  1  7  1  0  0  0  0
  2  4  2  0  0  0  0
  2  5  1  0  0  0  0
  3  1  1  0  0  0  0
  4  6  1  0  0  0  0
  5  3  2  0  0  0  0
  6  1  2  0  0  0  0
  8  4  1  0  0  0  0
 10 13  2  0  0  0  0
 10 14  1  0  0  0  0
 11  9  1  0  0  0  0
 11  8  1  0  0  0  0
 12  9  2  0  0  0  0
 13 12  1  0  0  0  0
 14 11  2  0  0  0  0
 15 10  1  0  0  0  0
 16 15  1  0  0  0  0
 17 23  1  0  0  0  0
 17 20  1  0  0  0  0
 18 21  1  6  0  0  0
 18 16  1  0  0  0  0
 19 23  1  0  0  0  0
 20 18  1  0  0  0  0
 22 18  1  0  0  0  0
 23 22  1  0  0  0  0
 24  2  1  0  0  0  0
 25 24  1  0  0  0  0
 26 25  1  0  0  0  0
 27 26  1  0  0  0  0
 28 31  1  0  0  0  0
 28 27  1  0  0  0  0
 29 33  1  0  0  0  0
 29 32  1  0  0  0  0
 30 34  2  0  0  0  0
 30 31  1  0  0  0  0
 32 28  1  0  0  0  0
 33 30  1  0  0  0  0
 35 27  2  0  0  0  0
M  END
>  <MODEL>
4

>  <REMARK>
 VINA RESULT:      -9.1      2.209      6.283
  Name = 
  9 active torsions:
  status: ('A' for Active; 'I' for Inactive)
    1  A    between atoms: O_2  and  C_18
    2  A    between atoms: O_2  and  C_26
    3  A    between atoms: C_3  and  C_20
    4  A    between atoms: C_4  and  C_6
    5  A    between atoms: C_4  and  C_11
    6  A    between atoms: C_6  and  C_20
    7  A    between atoms: C_7  and  C_34
    8  A    between atoms: C_21  and  C_27
    9  A    between atoms: C_27  and  C_34
                            x       y       z     vdW  Elec       q    Type
                         _______ _______ _______ _____ _____    ______ ____

>  <TORSDO>
F 9

$$$$
=
 OpenBabel11042410283D

 35 38  0  0  1  0  0  0  0  0999 V2000
  190.1500  177.3480  147.1580 C   0  0  0  0  0  0  0  0  0  0  0  0
  190.1290  176.7130  144.4330 C   0  0  0  0  0  0  0  0  0  0  0  0
  191.3010  176.8410  146.5510 C   0  0  0  0  0  3  0  0  0  0  0  0
  188.9660  177.2270  145.0360 C   0  0  0  0  0  0  0  0  0  0  0  0
  191.2890  176.5230  145.1920 C   0  0  0  0  0  3  0  0  0  0  0  0
  188.9880  177.5360  146.4060 C   0  0  0  0  0  3  0  0  0  0  0  0
  190.1590  177.6560  148.4770 F   0  0  0  0  0  0  0  0  0  0  0  0
  187.8090  177.3840  144.2520 O   0  0  0  0  0  0  0  0  0  0  0  0
  186.2530  178.1300  146.0150 C   0  0  0  0  0  3  0  0  0  0  0  0
  184.3340  178.6300  144.0460 C   0  0  0  0  0  0  0  0  0  0  0  0
  186.5580  177.8670  144.6690 C   0  0  0  0  0  0  0  0  0  0  0  0
  184.9980  178.6280  146.3730 C   0  0  0  0  0  3  0  0  0  0  0  0
  184.0370  178.8760  145.3890 C   0  0  0  0  0  3  0  0  0  0  0  0
  185.5910  178.1250  143.6900 C   0  0  0  0  0  3  0  0  0  0  0  0
  183.3090  178.8830  142.9970 C   0  0  0  0  0  2  0  0  0  0  0  0
  181.9360  179.0510  143.6370 C   0  0  0  0  0  2  0  0  0  0  0  0
  179.5220  177.6650  141.3440 C   0  0  0  0  0  2  0  0  0  0  0  0
  180.8350  179.2260  142.5960 C   0  0  1  0  0  0  0  0  0  0  0  0
  180.3500  178.3000  139.2530 C   0  0  0  0  0  1  0  0  0  0  0  0
  179.7630  178.1720  142.7460 C   0  0  0  0  0  2  0  0  0  0  0  0
  180.2730  180.5030  142.6820 O   0  0  0  0  0  1  0  0  0  0  0  0
  181.4100  179.0250  141.2080 C   0  0  0  0  0  2  0  0  0  0  0  0
  180.7460  177.8850  140.5870 N   0  0  0  0  0  0  0  0  0  0  0  0
  190.1390  176.3420  142.9870 C   0  0  0  0  0  2  0  0  0  0  0  0
  191.5340  176.5120  142.4180 C   0  0  0  0  0  2  0  0  0  0  0  0
  191.5960  177.7850  141.6000 C   0  0  0  0  0  2  0  0  0  0  0  0
  191.4970  177.4620  140.1470 C   0  0  0  0  0  0  0  0  0  0  0  0
  190.2640  177.6490  139.4380 N   0  0  0  0  0  0  0  0  0  0  0  0
  189.1140  178.1130  137.3180 C   0  0  0  0  0  2  0  0  0  0  0  0
  187.8690  178.2530  139.4560 C   0  0  0  0  0  0  0  0  0  0  0  0
  189.1150  178.0700  140.1330 N   0  0  0  0  0  2  0  0  0  0  0  0
  190.1670  177.2660  138.0270 C   0  0  0  0  0  2  0  0  0  0  0  0
  187.7590  177.9450  137.9970 C   0  0  0  0  0  2  0  0  0  0  0  0
  186.8540  178.6280  140.0970 O   0  0  0  0  0  0  0  0  0  0  0  0
  192.5220  177.0440  139.5420 O   0  0  0  0  0  0  0  0  0  0  0  0
  1  7  1  0  0  0  0
  2  4  2  0  0  0  0
  2  5  1  0  0  0  0
  3  1  1  0  0  0  0
  4  6  1  0  0  0  0
  5  3  2  0  0  0  0
  6  1  2  0  0  0  0
  8 11  1  0  0  0  0
  8  4  1  0  0  0  0
  9 12  1  0  0  0  0
 10 13  1  0  0  0  0
 11  9  2  0  0  0  0
 13 12  2  0  0  0  0
 14 10  2  0  0  0  0
 14 11  1  0  0  0  0
 15 16  1  0  0  0  0
 15 10  1  0  0  0  0
 17 20  1  0  0  0  0
 18 21  1  1  0  0  0
 18 20  1  0  0  0  0
 18 16  1  0  0  0  0
 19 23  1  0  0  0  0
 22 18  1  0  0  0  0
 23 22  1  0  0  0  0
 23 17  1  0  0  0  0
 24  2  1  0  0  0  0
 25 24  1  0  0  0  0
 26 25  1  0  0  0  0
 27 26  1  0  0  0  0
 28 31  1  0  0  0  0
 28 27  1  0  0  0  0
 29 33  1  0  0  0  0
 29 32  1  0  0  0  0
 30 34  2  0  0  0  0
 30 31  1  0  0  0  0
 32 28  1  0  0  0  0
 33 30  1  0  0  0  0
 35 27  2  0  0  0  0
M  END
>  <MODEL>
5

>  <REMARK>
 VINA RESULT:      -9.0      1.704      2.088
  Name = 
  9 active torsions:
  status: ('A' for Active; 'I' for Inactive)
    1  A    between atoms: O_2  and  C_18
    2  A    between atoms: O_2  and  C_26
    3  A    between atoms: C_3  and  C_20
    4  A    between atoms: C_4  and  C_6
    5  A    between atoms: C_4  and  C_11
    6  A    between atoms: C_6  and  C_20
    7  A    between atoms: C_7  and  C_34
    8  A    between atoms: C_21  and  C_27
    9  A    between atoms: C_27  and  C_34
                            x       y       z     vdW  Elec       q    Type
                         _______ _______ _______ _____ _____    ______ ____

>  <TORSDO>
F 9

$$$$
=
 OpenBabel11042410283D

 35 38  0  0  1  0  0  0  0  0999 V2000
  191.1310  177.3310  145.4770 C   0  0  0  0  0  0  0  0  0  0  0  0
  189.5680  178.0850  143.2820 C   0  0  0  0  0  0  0  0  0  0  0  0
  191.6860  178.1080  144.4590 C   0  0  0  0  0  3  0  0  0  0  0  0
  188.9980  177.3040  144.3050 C   0  0  0  0  0  0  0  0  0  0  0  0
  190.9070  178.4830  143.3630 C   0  0  0  0  0  3  0  0  0  0  0  0
  189.7960  176.9270  145.3990 C   0  0  0  0  0  3  0  0  0  0  0  0
  191.8860  176.9650  146.5400 F   0  0  0  0  0  0  0  0  0  0  0  0
  187.6570  176.8990  144.1830 O   0  0  0  0  0  0  0  0  0  0  0  0
  186.3380  177.8970  146.0130 C   0  0  0  0  0  3  0  0  0  0  0  0
  184.4010  178.6490  144.1440 C   0  0  0  0  0  0  0  0  0  0  0  0
  186.5190  177.5710  144.6580 C   0  0  0  0  0  0  0  0  0  0  0  0
  185.1940  178.5830  146.4300 C   0  0  0  0  0  3  0  0  0  0  0  0
  184.2250  178.9570  145.4960 C   0  0  0  0  0  3  0  0  0  0  0  0
  185.5440  177.9560  143.7300 C   0  0  0  0  0  3  0  0  0  0  0  0
  183.3640  179.0370  143.1500 C   0  0  0  0  0  2  0  0  0  0  0  0
  181.9820  179.0020  143.7930 C   0  0  0  0  0  2  0  0  0  0  0  0
  179.4680  177.6830  141.5700 C   0  0  0  0  0  2  0  0  0  0  0  0
  180.8680  179.2070  142.7720 C   0  0  1  0  0  0  0  0  0  0  0  0
  180.2770  178.2530  139.4540 C   0  0  0  0  0  1  0  0  0  0  0  0
  179.7570  178.2000  142.9590 C   0  0  0  0  0  2  0  0  0  0  0  0
  180.3610  180.5070  142.8490 O   0  0  0  0  0  1  0  0  0  0  0  0
  181.4060  178.9620  141.3760 C   0  0  0  0  0  2  0  0  0  0  0  0
  180.6830  177.8410  140.7860 N   0  0  0  0  0  0  0  0  0  0  0  0
  188.7650  178.4800  142.0860 C   0  0  0  0  0  2  0  0  0  0  0  0
  189.0030  177.5000  140.9550 C   0  0  0  0  0  2  0  0  0  0  0  0
  189.0860  178.2520  139.6430 C   0  0  0  0  0  2  0  0  0  0  0  0
  188.0300  177.7650  138.7090 C   0  0  0  0  0  0  0  0  0  0  0  0
  188.2240  176.5660  137.9450 N   0  0  0  0  0  0  0  0  0  0  0  0
  187.2450  174.6220  136.8080 C   0  0  0  0  0  2  0  0  0  0  0  0
  189.6810  174.6930  137.2570 C   0  0  0  0  0  0  0  0  0  0  0  0
  189.4530  175.8830  138.0180 N   0  0  0  0  0  2  0  0  0  0  0  0
  187.2030  176.1370  136.9850 C   0  0  0  0  0  2  0  0  0  0  0  0
  188.6250  174.1870  136.3280 C   0  0  0  0  0  2  0  0  0  0  0  0
  190.7870  174.1000  137.3370 O   0  0  0  0  0  0  0  0  0  0  0  0
  186.9490  178.4090  138.6190 O   0  0  0  0  0  0  0  0  0  0  0  0
  1  7  1  0  0  0  0
  2  5  2  0  0  0  0
  2  4  1  0  0  0  0
  3  1  2  0  0  0  0
  4  6  2  0  0  0  0
  5  3  1  0  0  0  0
  6  1  1  0  0  0  0
  8  4  1  0  0  0  0
  8 11  1  0  0  0  0
  9 12  1  0  0  0  0
 10 13  1  0  0  0  0
 11  9  2  0  0  0  0
 13 12  2  0  0  0  0
 14 10  2  0  0  0  0
 14 11  1  0  0  0  0
 15 16  1  0  0  0  0
 15 10  1  0  0  0  0
 17 20  1  0  0  0  0
 18 21  1  1  0  0  0
 18 20  1  0  0  0  0
 18 16  1  0  0  0  0
 19 23  1  0  0  0  0
 22 18  1  0  0  0  0
 23 22  1  0  0  0  0
 23 17  1  0  0  0  0
 24  2  1  0  0  0  0
 25 24  1  0  0  0  0
 26 25  1  0  0  0  0
 27 26  1  0  0  0  0
 28 31  1  0  0  0  0
 28 27  1  0  0  0  0
 29 32  1  0  0  0  0
 30 34  2  0  0  0  0
 30 31  1  0  0  0  0
 32 28  1  0  0  0  0
 33 29  1  0  0  0  0
 33 30  1  0  0  0  0
 35 27  2  0  0  0  0
M  END
>  <MODEL>
6

>  <REMARK>
 VINA RESULT:      -9.0      1.273      2.352
  Name = 
  9 active torsions:
  status: ('A' for Active; 'I' for Inactive)
    1  A    between atoms: O_2  and  C_18
    2  A    between atoms: O_2  and  C_26
    3  A    between atoms: C_3  and  C_20
    4  A    between atoms: C_4  and  C_6
    5  A    between atoms: C_4  and  C_11
    6  A    between atoms: C_6  and  C_20
    7  A    between atoms: C_7  and  C_34
    8  A    between atoms: C_21  and  C_27
    9  A    between atoms: C_27  and  C_34
                            x       y       z     vdW  Elec       q    Type
                         _______ _______ _______ _____ _____    ______ ____

>  <TORSDO>
F 9

$$$$
=
 OpenBabel11042410283D

 35 38  0  0  1  0  0  0  0  0999 V2000
  190.7010  177.1310  146.2700 C   0  0  0  0  0  0  0  0  0  0  0  0
  189.9020  177.4200  143.6040 C   0  0  0  0  0  0  0  0  0  0  0  0
  191.6380  177.4810  145.2950 C   0  0  0  0  0  3  0  0  0  0  0  0
  188.9510  177.0710  144.5800 C   0  0  0  0  0  0  0  0  0  0  0  0
  191.2390  177.6230  143.9640 C   0  0  0  0  0  3  0  0  0  0  0  0
  189.3670  176.9230  145.9140 C   0  0  0  0  0  3  0  0  0  0  0  0
  191.0870  176.9900  147.5600 F   0  0  0  0  0  0  0  0  0  0  0  0
  187.6200  176.8500  144.1830 O   0  0  0  0  0  0  0  0  0  0  0  0
  186.2650  177.9250  145.9410 C   0  0  0  0  0  3  0  0  0  0  0  0
  184.3900  178.6370  143.9970 C   0  0  0  0  0  0  0  0  0  0  0  0
  186.4790  177.5510  144.6040 C   0  0  0  0  0  0  0  0  0  0  0  0
  185.1200  178.6390  146.3040 C   0  0  0  0  0  3  0  0  0  0  0  0
  184.1810  178.9930  145.3320 C   0  0  0  0  0  3  0  0  0  0  0  0
  185.5350  177.9170  143.6370 C   0  0  0  0  0  3  0  0  0  0  0  0
  183.3850  179.0050  142.9610 C   0  0  0  0  0  2  0  0  0  0  0  0
  183.8080  178.4540  141.6030 C   0  0  0  0  0  2  0  0  0  0  0  0
  182.3150  176.8920  138.7170 C   0  0  0  0  0  2  0  0  0  0  0  0
  182.6160  178.2260  140.6800 C   0  0  1  0  0  0  0  0  0  0  0  0
  181.9320  178.6920  137.2770 C   0  0  0  0  0  1  0  0  0  0  0  0
  182.5530  176.7940  140.2050 C   0  0  0  0  0  2  0  0  0  0  0  0
  181.4230  178.5760  141.3190 O   0  0  0  0  0  1  0  0  0  0  0  0
  182.7750  179.0640  139.4260 C   0  0  0  0  0  2  0  0  0  0  0  0
  182.8490  178.1720  138.2750 N   0  0  0  0  0  0  0  0  0  0  0  0
  189.5090  177.5560  142.1690 C   0  0  0  0  0  2  0  0  0  0  0  0
  190.4710  176.7790  141.2930 C   0  0  0  0  0  2  0  0  0  0  0  0
  190.5240  177.4100  139.9160 C   0  0  0  0  0  2  0  0  0  0  0  0
  190.0440  176.4360  138.8920 C   0  0  0  0  0  0  0  0  0  0  0  0
  188.8110  176.6580  138.1930 N   0  0  0  0  0  0  0  0  0  0  0  0
  187.4590  176.3250  136.1700 C   0  0  0  0  0  2  0  0  0  0  0  0
  186.7660  178.0020  137.8570 C   0  0  0  0  0  0  0  0  0  0  0  0
  188.0070  177.7630  138.5280 N   0  0  0  0  0  2  0  0  0  0  0  0
  188.3240  175.6600  137.2370 C   0  0  0  0  0  2  0  0  0  0  0  0
  186.2810  177.0420  136.8200 C   0  0  0  0  0  2  0  0  0  0  0  0
  186.0630  178.9960  138.1740 O   0  0  0  0  0  0  0  0  0  0  0  0
  190.7520  175.4260  138.6300 O   0  0  0  0  0  0  0  0  0  0  0  0
  1  7  1  0  0  0  0
  2  5  2  0  0  0  0
  2  4  1  0  0  0  0
  3  1  2  0  0  0  0
  4  6  2  0  0  0  0
  5  3  1  0  0  0  0
  6  1  1  0  0  0  0
  8  4  1  0  0  0  0
  8 11  1  0  0  0  0
  9 12  1  0  0  0  0
 10 13  1  0  0  0  0
 11  9  2  0  0  0  0
 13 12  2  0  0  0  0
 14 10  2  0  0  0  0
 14 11  1  0  0  0  0
 15 10  1  0  0  0  0
 16 15  1  0  0  0  0
 17 20  1  0  0  0  0
 18 21  1  1  0  0  0
 18 16  1  0  0  0  0
 19 23  1  0  0  0  0
 20 18  1  0  0  0  0
 22 18  1  0  0  0  0
 23 17  1  0  0  0  0
 23 22  1  0  0  0  0
 24  2  1  0  0  0  0
 25 24  1  0  0  0  0
 26 25  1  0  0  0  0
 27 26  1  0  0  0  0
 28 31  1  0  0  0  0
 28 27  1  0  0  0  0
 29 33  1  0  0  0  0
 29 32  1  0  0  0  0
 30 34  2  0  0  0  0
 30 31  1  0  0  0  0
 32 28  1  0  0  0  0
 33 30  1  0  0  0  0
 35 27  2  0  0  0  0
M  END
>  <MODEL>
7

>  <REMARK>
 VINA RESULT:      -8.8      1.614      1.869
  Name = 
  9 active torsions:
  status: ('A' for Active; 'I' for Inactive)
    1  A    between atoms: O_2  and  C_18
    2  A    between atoms: O_2  and  C_26
    3  A    between atoms: C_3  and  C_20
    4  A    between atoms: C_4  and  C_6
    5  A    between atoms: C_4  and  C_11
    6  A    between atoms: C_6  and  C_20
    7  A    between atoms: C_7  and  C_34
    8  A    between atoms: C_21  and  C_27
    9  A    between atoms: C_27  and  C_34
                            x       y       z     vdW  Elec       q    Type
                         _______ _______ _______ _____ _____    ______ ____

>  <TORSDO>
F 9

$$$$
=
 OpenBabel11042410283D

 35 38  0  0  1  0  0  0  0  0999 V2000
  188.0420  178.0040  148.0260 C   0  0  0  0  0  0  0  0  0  0  0  0
  186.6130  177.9970  145.6190 C   0  0  0  0  0  0  0  0  0  0  0  0
  186.8470  178.7190  147.9210 C   0  0  0  0  0  3  0  0  0  0  0  0
  187.8150  177.2700  145.7170 C   0  0  0  0  0  0  0  0  0  0  0  0
  186.1360  178.7170  146.7200 C   0  0  0  0  0  3  0  0  0  0  0  0
  188.5250  177.2870  146.9290 C   0  0  0  0  0  3  0  0  0  0  0  0
  188.7340  178.0070  149.1900 F   0  0  0  0  0  0  0  0  0  0  0  0
  188.2810  176.5760  144.5860 O   0  0  0  0  0  0  0  0  0  0  0  0
  190.6320  177.2490  144.2660 C   0  0  0  0  0  3  0  0  0  0  0  0
  190.2150  177.2250  141.5030 C   0  0  0  0  0  0  0  0  0  0  0  0
  189.3620  176.9230  143.7600 C   0  0  0  0  0  0  0  0  0  0  0  0
  191.6800  177.5690  143.3980 C   0  0  0  0  0  3  0  0  0  0  0  0
  191.4700  177.5590  142.0170 C   0  0  0  0  0  3  0  0  0  0  0  0
  189.1650  176.9100  142.3750 C   0  0  0  0  0  3  0  0  0  0  0  0
  189.9860  177.2240  140.0320 C   0  0  0  0  0  2  0  0  0  0  0  0
  188.8980  178.2290  139.6700 C   0  0  0  0  0  2  0  0  0  0  0  0
  187.6650  177.1770  136.4500 C   0  0  0  0  0  2  0  0  0  0  0  0
  188.7750  178.4240  138.1630 C   0  0  1  0  0  0  0  0  0  0  0  0
  189.6120  176.5860  135.3020 C   0  0  0  0  0  1  0  0  0  0  0  0
  187.4040  178.0320  137.6670 C   0  0  0  0  0  2  0  0  0  0  0  0
  189.0550  179.7480  137.8130 O   0  0  0  0  0  1  0  0  0  0  0  0
  189.7450  177.5020  137.4490 C   0  0  0  0  0  2  0  0  0  0  0  0
  188.9840  176.5830  136.6110 N   0  0  0  0  0  0  0  0  0  0  0  0
  185.8430  178.0320  144.3400 C   0  0  0  0  0  2  0  0  0  0  0  0
  184.4180  178.4750  144.6050 C   0  0  0  0  0  2  0  0  0  0  0  0
  184.0440  179.5800  143.6380 C   0  0  0  0  0  2  0  0  0  0  0  0
  183.6850  178.9960  142.3130 C   0  0  0  0  0  0  0  0  0  0  0  0
  182.3240  178.6640  142.0050 N   0  0  0  0  0  0  0  0  0  0  0  0
  180.5690  178.3730  140.3120 C   0  0  0  0  0  2  0  0  0  0  0  0
  179.9640  178.4830  142.7120 C   0  0  0  0  0  0  0  0  0  0  0  0
  181.3280  178.8190  142.9860 N   0  0  0  0  0  2  0  0  0  0  0  0
  181.9990  178.0320  140.7230 C   0  0  0  0  0  2  0  0  0  0  0  0
  179.5890  177.9090  141.3830 C   0  0  0  0  0  2  0  0  0  0  0  0
  179.0900  178.6280  143.6050 O   0  0  0  0  0  0  0  0  0  0  0  0
  184.5930  178.8220  141.4560 O   0  0  0  0  0  0  0  0  0  0  0  0
  1  7  1  0  0  0  0
  2  4  2  0  0  0  0
  2  5  1  0  0  0  0
  3  1  1  0  0  0  0
  4  6  1  0  0  0  0
  5  3  2  0  0  0  0
  6  1  2  0  0  0  0
  8  4  1  0  0  0  0
 10 13  2  0  0  0  0
 10 14  1  0  0  0  0
 11  9  1  0  0  0  0
 11  8  1  0  0  0  0
 12  9  2  0  0  0  0
 13 12  1  0  0  0  0
 14 11  2  0  0  0  0
 15 10  1  0  0  0  0
 16 15  1  0  0  0  0
 17 23  1  0  0  0  0
 17 20  1  0  0  0  0
 18 21  1  6  0  0  0
 18 16  1  0  0  0  0
 19 23  1  0  0  0  0
 20 18  1  0  0  0  0
 22 18  1  0  0  0  0
 23 22  1  0  0  0  0
 24 25  1  0  0  0  0
 24  2  1  0  0  0  0
 26 25  1  0  0  0  0
 27 26  1  0  0  0  0
 28 27  1  0  0  0  0
 28 31  1  0  0  0  0
 29 32  1  0  0  0  0
 29 33  1  0  0  0  0
 30 31  1  0  0  0  0
 30 34  2  0  0  0  0
 32 28  1  0  0  0  0
 33 30  1  0  0  0  0
 35 27  2  0  0  0  0
M  END
>  <MODEL>
8

>  <REMARK>
 VINA RESULT:      -8.8      1.836      6.615
  Name = 
  9 active torsions:
  status: ('A' for Active; 'I' for Inactive)
    1  A    between atoms: O_2  and  C_18
    2  A    between atoms: O_2  and  C_26
    3  A    between atoms: C_3  and  C_20
    4  A    between atoms: C_4  and  C_6
    5  A    between atoms: C_4  and  C_11
    6  A    between atoms: C_6  and  C_20
    7  A    between atoms: C_7  and  C_34
    8  A    between atoms: C_21  and  C_27
    9  A    between atoms: C_27  and  C_34
                            x       y       z     vdW  Elec       q    Type
                         _______ _______ _______ _____ _____    ______ ____

>  <TORSDO>
F 9

$$$$
=
 OpenBabel11042410283D

 35 38  0  0  1  0  0  0  0  0999 V2000
  183.6720  178.9680  144.3750 C   0  0  0  0  0  0  0  0  0  0  0  0
  183.6910  178.8820  141.5780 C   0  0  0  0  0  0  0  0  0  0  0  0
  182.5000  178.6650  143.6780 C   0  0  0  0  0  3  0  0  0  0  0  0
  184.8770  179.1850  142.2720 C   0  0  0  0  0  0  0  0  0  0  0  0
  182.5100  178.6240  142.2820 C   0  0  0  0  0  3  0  0  0  0  0  0
  184.8520  179.2300  143.6760 C   0  0  0  0  0  3  0  0  0  0  0  0
  183.6630  179.0100  145.7280 F   0  0  0  0  0  0  0  0  0  0  0  0
  186.0420  179.4630  141.5350 O   0  0  0  0  0  0  0  0  0  0  0  0
  187.8870  178.5700  140.1620 C   0  0  0  0  0  3  0  0  0  0  0  0
  188.6990  177.0220  142.3430 C   0  0  0  0  0  0  0  0  0  0  0  0
  187.1590  178.6300  141.3630 C   0  0  0  0  0  0  0  0  0  0  0  0
  189.0030  177.7370  140.0510 C   0  0  0  0  0  3  0  0  0  0  0  0
  189.4080  176.9610  141.1400 C   0  0  0  0  0  3  0  0  0  0  0  0
  187.5770  177.8530  142.4500 C   0  0  0  0  0  3  0  0  0  0  0  0
  189.1220  176.1890  143.5010 C   0  0  0  0  0  2  0  0  0  0  0  0
  190.6120  176.3750  143.7640 C   0  0  0  0  0  2  0  0  0  0  0  0
  190.9640  176.5900  147.3460 C   0  0  0  0  0  2  0  0  0  0  0  0
  190.8750  177.1840  145.0300 C   0  0  1  0  0  0  0  0  0  0  0  0
  189.1310  177.8900  147.9830 C   0  0  0  0  0  1  0  0  0  0  0  0
  191.6810  176.3920  146.0320 C   0  0  0  0  0  2  0  0  0  0  0  0
  191.5270  178.3810  144.7230 O   0  0  0  0  0  1  0  0  0  0  0  0
  189.5610  177.4930  145.7190 C   0  0  0  0  0  2  0  0  0  0  0  0
  189.5700  176.8770  147.0410 N   0  0  0  0  0  0  0  0  0  0  0  0
  183.6660  178.8540  140.0850 C   0  0  0  0  0  2  0  0  0  0  0  0
  183.1000  177.5330  139.6010 C   0  0  0  0  0  2  0  0  0  0  0  0
  183.1630  177.4800  138.0880 C   0  0  0  0  0  2  0  0  0  0  0  0
  184.0420  176.3540  137.6560 C   0  0  0  0  0  0  0  0  0  0  0  0
  185.3990  176.5970  137.2580 N   0  0  0  0  0  0  0  0  0  0  0  0
  187.7020  175.7710  137.0490 C   0  0  0  0  0  2  0  0  0  0  0  0
  187.2290  178.1900  136.7960 C   0  0  0  0  0  0  0  0  0  0  0  0
  185.8850  177.9160  137.2020 N   0  0  0  0  0  2  0  0  0  0  0  0
  186.2280  175.4890  136.7740 C   0  0  0  0  0  2  0  0  0  0  0  0
  188.1250  177.0700  136.3720 C   0  0  0  0  0  2  0  0  0  0  0  0
  187.6430  179.3770  136.7510 O   0  0  0  0  0  0  0  0  0  0  0  0
  183.5820  175.1800  137.6680 O   0  0  0  0  0  0  0  0  0  0  0  0
  1  7  1  0  0  0  0
  2  4  2  0  0  0  0
  2  5  1  0  0  0  0
  3  1  1  0  0  0  0
  4  6  1  0  0  0  0
  5  3  2  0  0  0  0
  6  1  2  0  0  0  0
  8  4  1  0  0  0  0
  9 11  1  0  0  0  0
 10 14  1  0  0  0  0
 10 15  1  0  0  0  0
 11  8  1  0  0  0  0
 11 14  2  0  0  0  0
 12  9  2  0  0  0  0
 12 13  1  0  0  0  0
 13 10  2  0  0  0  0
 15 16  1  0  0  0  0
 16 18  1  0  0  0  0
 18 21  1  6  0  0  0
 18 22  1  0  0  0  0
 18 20  1  0  0  0  0
 20 17  1  0  0  0  0
 22 23  1  0  0  0  0
 23 17  1  0  0  0  0
 23 19  1  0  0  0  0
 24  2  1  0  0  0  0
 25 24  1  0  0  0  0
 26 25  1  0  0  0  0
 27 35  2  0  0  0  0
 27 26  1  0  0  0  0
 28 27  1  0  0  0  0
 30 31  1  0  0  0  0
 31 28  1  0  0  0  0
 32 29  1  0  0  0  0
 32 28  1  0  0  0  0
 33 30  1  0  0  0  0
 33 29  1  0  0  0  0
 34 30  2  0  0  0  0
M  END
>  <MODEL>
9

>  <REMARK>
 VINA RESULT:      -8.7      2.817      7.286
  Name = 
  9 active torsions:
  status: ('A' for Active; 'I' for Inactive)
    1  A    between atoms: O_2  and  C_18
    2  A    between atoms: O_2  and  C_26
    3  A    between atoms: C_3  and  C_20
    4  A    between atoms: C_4  and  C_6
    5  A    between atoms: C_4  and  C_11
    6  A    between atoms: C_6  and  C_20
    7  A    between atoms: C_7  and  C_34
    8  A    between atoms: C_21  and  C_27
    9  A    between atoms: C_27  and  C_34
                            x       y       z     vdW  Elec       q    Type
                         _______ _______ _______ _____ _____    ______ ____

>  <TORSDO>
F 9

$$$$
