=
 OpenBabel11032419453D

 45 51  0  0  1  0  0  0  0  0999 V2000
  190.1860  176.9290  136.9620 C   0  0  2  0  0  3  0  0  0  0  0  0
  188.6190  176.6420  138.6770 C   0  0  0  0  0  2  0  0  0  0  0  0
  188.2650  173.4610  135.6390 O   0  0  0  0  0  1  0  0  0  0  0  0
  190.9680  175.6260  136.6520 C   0  0  1  0  0  0  0  0  0  0  0  0
  191.3310  174.8740  137.9340 C   0  0  0  0  0  1  0  0  0  0  0  0
  190.7350  177.5860  138.0860 O   0  0  0  0  0  0  0  0  0  0  0  0
  190.1210  174.7160  135.7650 C   0  0  0  0  0  2  0  0  0  0  0  0
  188.0470  177.9530  136.8070 O   0  0  0  0  0  1  0  0  0  0  0  0
  188.0320  175.5900  136.4200 C   0  0  1  0  0  3  0  0  0  0  0  0
  188.6830  176.7680  137.1880 C   0  0  1  0  0  0  0  0  0  0  0  0
  189.7790  177.5110  139.1250 C   0  0  2  0  0  3  0  0  0  0  0  0
  188.8670  174.3840  136.4280 N   0  0  0  0  0  0  0  0  0  0  0  0
  186.3800  174.2090  137.4800 O   0  0  0  0  0  0  0  0  0  0  0  0
  186.6400  175.3080  136.9160 C   0  0  0  0  0  0  0  0  0  0  0  0
  185.6330  176.3200  136.7890 N   0  0  0  0  0  2  0  0  0  0  0  0
  182.3310  177.3440  136.7230 C   0  0  0  0  0  0  0  0  0  0  0  0
  184.0370  177.4200  138.3470 C   0  0  0  0  0  2  0  0  0  0  0  0
  182.2940  179.2160  137.8860 N   0  0  0  0  0  0  0  0  0  0  0  0
  181.5350  178.2410  136.0430 C   0  0  0  0  0  3  0  0  0  0  0  0
  182.7710  177.9630  137.8260 C   0  0  0  0  0  0  0  0  0  0  0  0
  183.2090  176.2480  136.2760 C   0  0  0  0  0  2  0  0  0  0  0  0
  180.7880  180.5670  136.5000 C   0  0  0  0  0  1  0  0  0  0  0  0
  181.4910  179.3410  136.8320 N   0  0  0  0  0  0  0  0  0  0  0  0
  184.2980  176.2390  137.3780 C   0  0  1  0  0  3  0  0  0  0  0  0
  190.4130  176.9730  140.4110 C   0  0  1  0  0  3  0  0  0  0  0  0
  191.8100  177.5380  140.6220 C   0  0  0  0  0  1  0  0  0  0  0  0
  189.5690  177.2100  141.5880 N   0  0  0  0  0  0  0  0  0  0  0  0
  189.7940  176.8110  142.8100 C   0  0  0  0  0  0  0  0  0  0  0  0
  186.7720  177.7860  142.6570 N   0  0  0  0  0  2  0  0  0  0  0  0
  188.8330  177.1780  143.8660 C   0  0  0  0  0  0  0  0  0  0  0  0
  187.5730  177.5790  143.6840 N   0  0  0  0  0  0  0  0  0  0  0  0
  185.7210  178.2190  144.6070 C   0  0  0  0  0  0  0  0  0  0  0  0
  185.5900  178.1920  143.2080 C   0  0  0  0  0  3  0  0  0  0  0  0
  187.0100  177.8170  144.8290 C   0  0  0  0  0  0  0  0  0  0  0  0
  187.8690  177.5880  145.8860 C   0  0  0  0  0  3  0  0  0  0  0  0
  189.0620  177.1710  145.2490 C   0  0  0  0  0  3  0  0  0  0  0  0
  183.4890  179.0430  145.8710 N   0  0  0  0  0  0  0  0  0  0  0  0
  184.3210  178.7130  146.8880 O   0  0  0  0  0  0  0  0  0  0  0  0
  184.7070  178.5870  145.5920 C   0  0  0  0  0  0  0  0  0  0  0  0
  190.9700  176.0430  143.1520 C   0  0  0  0  0  0  0  0  0  0  0  0
  191.9110  175.4280  143.4220 N   0  0  0  0  0  0  0  0  0  0  0  0
  192.2490  176.0290  135.9110 C   0  0  0  0  0  2  0  0  0  0  0  0
  193.4970  175.8740  136.7240 C   0  0  0  0  0  0  0  0  0  0  0  0
  194.2670  174.7270  136.6030 O   0  0  0  0  0  0  0  0  0  0  0  0
  193.8600  176.7940  137.5030 O   0  0  0  0  0  1  0  0  0  0  0  0
  1 10  1  0  0  0  0
  1  6  1  1  0  0  0
  2 11  1  0  0  0  0
  3 12  1  0  0  0  0
  4  1  1  0  0  0  0
  4  5  1  1  0  0  0
  6 11  1  0  0  0  0
  7 12  1  0  0  0  0
  7  4  1  0  0  0  0
  9 12  1  0  0  0  0
  9 14  1  1  0  0  0
  9 10  1  0  0  0  0
 10  8  1  6  0  0  0
 10  2  1  0  0  0  0
 11 25  1  1  0  0  0
 14 13  2  0  0  0  0
 15 14  1  0  0  0  0
 16 20  1  0  0  0  0
 19 16  2  0  0  0  0
 19 23  1  0  0  0  0
 20 18  2  0  0  0  0
 20 17  1  0  0  0  0
 21 16  1  0  0  0  0
 21 24  1  0  0  0  0
 22 23  1  0  0  0  0
 23 18  1  0  0  0  0
 24 15  1  6  0  0  0
 24 17  1  0  0  0  0
 25 26  1  1  0  0  0
 25 27  1  0  0  0  0
 27 28  2  0  0  0  0
 28 40  1  0  0  0  0
 28 30  1  0  0  0  0
 29 33  1  0  0  0  0
 29 31  1  0  0  0  0
 30 36  2  0  0  0  0
 31 30  1  0  0  0  0
 31 34  1  0  0  0  0
 32 34  1  0  0  0  0
 32 39  1  0  0  0  0
 33 32  2  0  0  0  0
 34 35  2  0  0  0  0
 36 35  1  0  0  0  0
 37 38  1  0  0  0  0
 39 37  2  0  0  0  0
 39 38  1  0  0  0  0
 40 41  3  0  0  0  0
 42  4  1  0  0  0  0
 42 43  1  0  0  0  0
 43 45  1  0  0  0  0
 44 43  2  0  0  0  0
M  END
>  <MODEL>
1

>  <REMARK>
 VINA RESULT:      -8.3      0.000      0.000
  Name = 
  9 active torsions:
  status: ('A' for Active; 'I' for Inactive)
    1  A    between atoms: C_6  and  C_37
    2  A    between atoms: C_8  and  C_37
    3  A    between atoms: C_9  and  C_44
    4  A    between atoms: C_13  and  C_41
    5  A    between atoms: C_16  and  C_44
    6  A    between atoms: C_26  and  C_27
    7  A    between atoms: N_28  and  C_42
    8  A    between atoms: N_31  and  C_38
    9  A    between atoms: C_38  and  C_39
                            x       y       z     vdW  Elec       q    Type
                         _______ _______ _______ _____ _____    ______ ____

>  <TORSDO>
F 9

$$$$
=
 OpenBabel11032419453D

 45 51  0  0  1  0  0  0  0  0999 V2000
  186.2660  176.1910  135.5410 C   0  0  2  0  0  3  0  0  0  0  0  0
  185.7960  177.5980  137.3510 C   0  0  0  0  0  2  0  0  0  0  0  0
  183.7420  173.7150  137.7700 O   0  0  0  0  0  1  0  0  0  0  0  0
  186.6990  174.7720  135.9930 C   0  0  1  0  0  0  0  0  0  0  0  0
  187.6280  174.8320  137.2080 C   0  0  0  0  0  1  0  0  0  0  0  0
  187.3530  177.0910  135.6090 O   0  0  0  0  0  0  0  0  0  0  0  0
  185.4660  173.9470  136.3520 C   0  0  0  0  0  2  0  0  0  0  0  0
  184.4170  177.6800  135.4450 O   0  0  0  0  0  1  0  0  0  0  0  0
  184.0690  175.7770  136.8550 C   0  0  1  0  0  3  0  0  0  0  0  0
  185.0890  176.8030  136.3000 C   0  0  1  0  0  0  0  0  0  0  0  0
  187.0680  178.0160  136.6390 C   0  0  2  0  0  3  0  0  0  0  0  0
  184.7170  174.5910  137.4230 N   0  0  0  0  0  0  0  0  0  0  0  0
  183.1350  176.0710  139.0470 O   0  0  0  0  0  0  0  0  0  0  0  0
  183.1190  176.4150  137.8320 C   0  0  0  0  0  0  0  0  0  0  0  0
  182.2390  177.4510  137.3780 N   0  0  0  0  0  2  0  0  0  0  0  0
  180.3790  180.3350  137.8070 C   0  0  0  0  0  0  0  0  0  0  0  0
  182.2140  179.3850  138.9410 C   0  0  0  0  0  2  0  0  0  0  0  0
  181.8330  181.8560  138.4630 N   0  0  0  0  0  0  0  0  0  0  0  0
  180.0980  181.5010  137.1270 C   0  0  0  0  0  3  0  0  0  0  0  0
  181.4270  180.5840  138.6020 C   0  0  0  0  0  0  0  0  0  0  0  0
  180.2380  178.9120  137.4520 C   0  0  0  0  0  2  0  0  0  0  0  0
  181.0650  183.7900  137.1660 C   0  0  0  0  0  1  0  0  0  0  0  0
  180.9700  182.4130  137.6170 N   0  0  0  0  0  0  0  0  0  0  0  0
  181.3960  178.2640  138.2530 C   0  0  1  0  0  3  0  0  0  0  0  0
  188.2430  178.1250  137.6160 C   0  0  1  0  0  3  0  0  0  0  0  0
  189.0780  179.3680  137.3470 C   0  0  0  0  0  1  0  0  0  0  0  0
  187.8090  178.0780  139.0170 N   0  0  0  0  0  0  0  0  0  0  0  0
  188.5100  177.6890  140.0450 C   0  0  0  0  0  0  0  0  0  0  0  0
  185.8380  179.0630  141.0820 N   0  0  0  0  0  2  0  0  0  0  0  0
  187.8990  177.7430  141.3850 C   0  0  0  0  0  0  0  0  0  0  0  0
  186.7590  178.3580  141.7100 N   0  0  0  0  0  0  0  0  0  0  0  0
  185.3380  178.8400  143.2720 C   0  0  0  0  0  0  0  0  0  0  0  0
  184.9230  179.3830  142.0440 C   0  0  0  0  0  3  0  0  0  0  0  0
  186.5130  178.2040  142.9750 C   0  0  0  0  0  0  0  0  0  0  0  0
  187.4910  177.4600  143.6050 C   0  0  0  0  0  3  0  0  0  0  0  0
  188.3970  177.1620  142.5600 C   0  0  0  0  0  3  0  0  0  0  0  0
  184.7230  178.9690  145.8920 N   0  0  0  0  0  0  0  0  0  0  0  0
  183.5150  179.0410  145.2830 O   0  0  0  0  0  0  0  0  0  0  0  0
  184.6620  178.9310  144.5630 C   0  0  0  0  0  0  0  0  0  0  0  0
  189.8750  177.2320  139.9020 C   0  0  0  0  0  0  0  0  0  0  0  0
  190.9650  176.8650  139.7900 N   0  0  0  0  0  0  0  0  0  0  0  0
  187.4350  174.1240  134.8140 C   0  0  0  0  0  2  0  0  0  0  0  0
  188.3020  172.9650  135.2000 C   0  0  0  0  0  0  0  0  0  0  0  0
  189.6720  173.1370  135.3340 O   0  0  0  0  0  0  0  0  0  0  0  0
  187.7870  171.8390  135.4220 O   0  0  0  0  0  1  0  0  0  0  0  0
  1  6  1  1  0  0  0
  1  4  1  0  0  0  0
  1 10  1  0  0  0  0
  4  7  1  0  0  0  0
  4  5  1  1  0  0  0
  6 11  1  0  0  0  0
  7 12  1  0  0  0  0
  9 12  1  0  0  0  0
  9 14  1  1  0  0  0
 10  8  1  6  0  0  0
 10  9  1  0  0  0  0
 10  2  1  0  0  0  0
 11  2  1  0  0  0  0
 11 25  1  1  0  0  0
 12  3  1  0  0  0  0
 14 13  2  0  0  0  0
 15 14  1  0  0  0  0
 16 20  1  0  0  0  0
 18 20  2  0  0  0  0
 19 23  1  0  0  0  0
 19 16  2  0  0  0  0
 20 17  1  0  0  0  0
 21 16  1  0  0  0  0
 21 24  1  0  0  0  0
 22 23  1  0  0  0  0
 23 18  1  0  0  0  0
 24 15  1  6  0  0  0
 24 17  1  0  0  0  0
 25 26  1  1  0  0  0
 25 27  1  0  0  0  0
 27 28  2  0  0  0  0
 28 30  1  0  0  0  0
 29 31  1  0  0  0  0
 29 33  1  0  0  0  0
 30 31  1  0  0  0  0
 30 36  2  0  0  0  0
 31 34  1  0  0  0  0
 32 39  1  0  0  0  0
 33 32  2  0  0  0  0
 34 32  1  0  0  0  0
 34 35  2  0  0  0  0
 36 35  1  0  0  0  0
 38 37  1  0  0  0  0
 39 38  1  0  0  0  0
 39 37  2  0  0  0  0
 40 28  1  0  0  0  0
 41 40  3  0  0  0  0
 42 43  1  0  0  0  0
 42  4  1  0  0  0  0
 43 44  2  0  0  0  0
 43 45  1  0  0  0  0
M  END
>  <MODEL>
2

>  <REMARK>
 VINA RESULT:      -8.1      2.556      3.772
  Name = 
  9 active torsions:
  status: ('A' for Active; 'I' for Inactive)
    1  A    between atoms: C_6  and  C_37
    2  A    between atoms: C_8  and  C_37
    3  A    between atoms: C_9  and  C_44
    4  A    between atoms: C_13  and  C_41
    5  A    between atoms: C_16  and  C_44
    6  A    between atoms: C_26  and  C_27
    7  A    between atoms: N_28  and  C_42
    8  A    between atoms: N_31  and  C_38
    9  A    between atoms: C_38  and  C_39
                            x       y       z     vdW  Elec       q    Type
                         _______ _______ _______ _____ _____    ______ ____

>  <TORSDO>
F 9

$$$$
=
 OpenBabel11032419453D

 45 51  0  0  1  0  0  0  0  0999 V2000
  181.2700  177.3070  139.7120 C   0  0  2  0  0  3  0  0  0  0  0  0
  183.6100  177.3100  139.7670 C   0  0  0  0  0  2  0  0  0  0  0  0
  182.1030  178.4170  135.7690 O   0  0  0  0  0  1  0  0  0  0  0  0
  180.6920  178.6030  139.0850 C   0  0  1  0  0  0  0  0  0  0  0  0
  181.4680  179.8390  139.5430 C   0  0  0  0  0  1  0  0  0  0  0  0
  181.6120  177.5170  141.0660 O   0  0  0  0  0  0  0  0  0  0  0  0
  180.7570  178.5120  137.5620 C   0  0  0  0  0  2  0  0  0  0  0  0
  182.4770  175.3220  139.2140 O   0  0  0  0  0  1  0  0  0  0  0  0
  182.5320  176.9640  137.4730 C   0  0  1  0  0  3  0  0  0  0  0  0
  182.4790  176.7030  138.9990 C   0  0  1  0  0  0  0  0  0  0  0  0
  183.0210  177.4400  141.1590 C   0  0  2  0  0  3  0  0  0  0  0  0
  182.1340  178.3310  137.1220 N   0  0  0  0  0  0  0  0  0  0  0  0
  184.0020  175.5910  136.1630 O   0  0  0  0  0  0  0  0  0  0  0  0
  183.8770  176.6100  136.8980 C   0  0  0  0  0  0  0  0  0  0  0  0
  184.9940  177.4700  137.1510 N   0  0  0  0  0  2  0  0  0  0  0  0
  188.3330  176.6240  137.4680 C   0  0  0  0  0  0  0  0  0  0  0  0
  187.1940  178.5730  136.7910 C   0  0  0  0  0  2  0  0  0  0  0  0
  189.3170  178.4590  138.1900 N   0  0  0  0  0  0  0  0  0  0  0  0
  189.2230  176.2590  138.4550 C   0  0  0  0  0  3  0  0  0  0  0  0
  188.4150  177.9530  137.3340 C   0  0  0  0  0  0  0  0  0  0  0  0
  187.0380  176.0700  137.0350 C   0  0  0  0  0  2  0  0  0  0  0  0
  190.8510  177.5130  139.8520 C   0  0  0  0  0  1  0  0  0  0  0  0
  189.8450  177.4080  138.8110 N   0  0  0  0  0  0  0  0  0  0  0  0
  186.3040  177.3340  136.5170 C   0  0  1  0  0  3  0  0  0  0  0  0
  183.5870  178.6620  141.8900 C   0  0  1  0  0  3  0  0  0  0  0  0
  182.4810  179.4950  142.5220 C   0  0  0  0  0  1  0  0  0  0  0  0
  184.5990  178.2940  142.8870 N   0  0  0  0  0  0  0  0  0  0  0  0
  185.8940  178.2900  142.7280 C   0  0  0  0  0  0  0  0  0  0  0  0
  189.0410  177.9010  142.9550 N   0  0  0  0  0  2  0  0  0  0  0  0
  186.7500  177.9130  143.8670 C   0  0  0  0  0  0  0  0  0  0  0  0
  188.0780  177.7780  143.8480 N   0  0  0  0  0  0  0  0  0  0  0  0
  189.8720  177.3160  144.9700 C   0  0  0  0  0  0  0  0  0  0  0  0
  190.1900  177.6160  143.6350 C   0  0  0  0  0  3  0  0  0  0  0  0
  188.5100  177.4400  145.0240 C   0  0  0  0  0  0  0  0  0  0  0  0
  187.4820  177.3220  145.9390 C   0  0  0  0  0  3  0  0  0  0  0  0
  186.3310  177.6320  145.1750 C   0  0  0  0  0  3  0  0  0  0  0  0
  190.9960  176.6520  147.3270 N   0  0  0  0  0  0  0  0  0  0  0  0
  192.0520  176.7020  146.4790 O   0  0  0  0  0  0  0  0  0  0  0  0
  190.7890  176.9610  146.0490 C   0  0  0  0  0  0  0  0  0  0  0  0
  186.5040  178.6700  141.4730 C   0  0  0  0  0  0  0  0  0  0  0  0
  186.9890  178.9730  140.4690 N   0  0  0  0  0  0  0  0  0  0  0  0
  179.2310  178.7160  139.5380 C   0  0  0  0  0  2  0  0  0  0  0  0
  179.0310  179.5860  140.7400 C   0  0  0  0  0  0  0  0  0  0  0  0
  178.9770  179.0230  142.0060 O   0  0  0  0  0  1  0  0  0  0  0  0
  178.9310  180.8330  140.6040 O   0  0  0  0  0  0  0  0  0  0  0  0
  1  6  1  1  0  0  0
  2 11  1  0  0  0  0
  3 12  1  0  0  0  0
  4 42  1  0  0  0  0
  4  5  1  1  0  0  0
  4  1  1  0  0  0  0
  6 11  1  0  0  0  0
  7  4  1  0  0  0  0
  9 14  1  1  0  0  0
  9 10  1  0  0  0  0
 10  8  1  1  0  0  0
 10  1  1  0  0  0  0
 10  2  1  0  0  0  0
 11 25  1  6  0  0  0
 12  9  1  0  0  0  0
 12  7  1  0  0  0  0
 13 14  2  0  0  0  0
 14 15  1  0  0  0  0
 16 19  2  0  0  0  0
 17 20  1  0  0  0  0
 18 23  1  0  0  0  0
 19 23  1  0  0  0  0
 20 16  1  0  0  0  0
 20 18  2  0  0  0  0
 21 16  1  0  0  0  0
 23 22  1  0  0  0  0
 24 17  1  0  0  0  0
 24 21  1  0  0  0  0
 24 15  1  1  0  0  0
 25 26  1  1  0  0  0
 25 27  1  0  0  0  0
 28 27  2  0  0  0  0
 28 30  1  0  0  0  0
 29 33  1  0  0  0  0
 29 31  1  0  0  0  0
 30 36  2  0  0  0  0
 31 30  1  0  0  0  0
 31 34  1  0  0  0  0
 32 34  1  0  0  0  0
 32 39  1  0  0  0  0
 33 32  2  0  0  0  0
 34 35  2  0  0  0  0
 36 35  1  0  0  0  0
 38 37  1  0  0  0  0
 39 38  1  0  0  0  0
 39 37  2  0  0  0  0
 40 28  1  0  0  0  0
 41 40  3  0  0  0  0
 42 43  1  0  0  0  0
 43 44  1  0  0  0  0
 45 43  2  0  0  0  0
M  END
>  <MODEL>
3

>  <REMARK>
 VINA RESULT:      -8.1      3.293      7.811
  Name = 
  9 active torsions:
  status: ('A' for Active; 'I' for Inactive)
    1  A    between atoms: C_6  and  C_37
    2  A    between atoms: C_8  and  C_37
    3  A    between atoms: C_9  and  C_44
    4  A    between atoms: C_13  and  C_41
    5  A    between atoms: C_16  and  C_44
    6  A    between atoms: C_26  and  C_27
    7  A    between atoms: N_28  and  C_42
    8  A    between atoms: N_31  and  C_38
    9  A    between atoms: C_38  and  C_39
                            x       y       z     vdW  Elec       q    Type
                         _______ _______ _______ _____ _____    ______ ____

>  <TORSDO>
F 9

$$$$
=
 OpenBabel11032419453D

 45 51  0  0  1  0  0  0  0  0999 V2000
  190.5660  176.8550  136.7880 C   0  0  2  0  0  3  0  0  0  0  0  0
  188.7550  176.8570  138.2710 C   0  0  0  0  0  2  0  0  0  0  0  0
  188.3400  173.6730  135.2440 O   0  0  0  0  0  1  0  0  0  0  0  0
  191.1760  175.4420  136.6030 C   0  0  1  0  0  0  0  0  0  0  0  0
  191.2430  174.6840  137.9300 C   0  0  0  0  0  1  0  0  0  0  0  0
  191.0500  177.4570  137.9710 O   0  0  0  0  0  0  0  0  0  0  0  0
  190.3300  174.6410  135.6160 C   0  0  0  0  0  2  0  0  0  0  0  0
  188.6480  178.1800  136.3260 O   0  0  0  0  0  1  0  0  0  0  0  0
  188.3290  175.8360  135.9650 C   0  0  1  0  0  3  0  0  0  0  0  0
  189.0400  176.9270  136.8040 C   0  0  1  0  0  0  0  0  0  0  0  0
  189.9610  177.5570  138.8670 C   0  0  2  0  0  3  0  0  0  0  0  0
  188.9620  174.5200  136.1010 N   0  0  0  0  0  0  0  0  0  0  0  0
  186.1130  176.7590  135.9770 O   0  0  0  0  0  0  0  0  0  0  0  0
  186.8550  175.7790  136.2650 C   0  0  0  0  0  0  0  0  0  0  0  0
  186.3010  174.5850  136.8300 N   0  0  0  0  0  2  0  0  0  0  0  0
  183.7090  172.2980  136.9380 C   0  0  0  0  0  0  0  0  0  0  0  0
  184.1450  174.2210  135.6470 C   0  0  0  0  0  2  0  0  0  0  0  0
  183.0790  172.0550  134.8410 N   0  0  0  0  0  0  0  0  0  0  0  0
  183.5010  170.9530  136.7190 C   0  0  0  0  0  3  0  0  0  0  0  0
  183.4470  172.9310  135.7880 C   0  0  0  0  0  0  0  0  0  0  0  0
  184.6360  173.0360  137.8150 C   0  0  0  0  0  2  0  0  0  0  0  0
  182.7280  169.6290  134.7630 C   0  0  0  0  0  1  0  0  0  0  0  0
  183.0510  170.8700  135.4440 N   0  0  0  0  0  0  0  0  0  0  0  0
  184.8720  174.3390  137.0100 C   0  0  1  0  0  3  0  0  0  0  0  0
  190.3250  176.9710  140.2350 C   0  0  1  0  0  3  0  0  0  0  0  0
  191.6480  177.5250  140.7440 C   0  0  0  0  0  1  0  0  0  0  0  0
  189.2600  177.1660  141.2250 N   0  0  0  0  0  0  0  0  0  0  0  0
  189.2730  176.7980  142.4770 C   0  0  0  0  0  0  0  0  0  0  0  0
  186.4910  178.1760  141.7950 N   0  0  0  0  0  2  0  0  0  0  0  0
  188.1080  177.1120  143.3230 C   0  0  0  0  0  0  0  0  0  0  0  0
  186.9780  177.7010  142.9250 N   0  0  0  0  0  0  0  0  0  0  0  0
  185.0130  178.4220  143.4830 C   0  0  0  0  0  0  0  0  0  0  0  0
  185.2470  178.6400  142.1150 C   0  0  0  0  0  3  0  0  0  0  0  0
  186.1610  177.8220  143.9270 C   0  0  0  0  0  0  0  0  0  0  0  0
  186.6950  177.3130  145.0940 C   0  0  0  0  0  3  0  0  0  0  0  0
  187.9700  176.8510  144.6940 C   0  0  0  0  0  3  0  0  0  0  0  0
  183.2530  179.3260  145.3120 N   0  0  0  0  0  0  0  0  0  0  0  0
  182.4660  178.7130  144.3960 O   0  0  0  0  0  0  0  0  0  0  0  0
  183.8160  178.7560  144.2490 C   0  0  0  0  0  0  0  0  0  0  0  0
  190.4100  176.1160  143.0540 C   0  0  0  0  0  0  0  0  0  0  0  0
  191.3170  175.5700  143.5180 N   0  0  0  0  0  0  0  0  0  0  0  0
  192.5920  175.6270  136.0440 C   0  0  0  0  0  2  0  0  0  0  0  0
  193.6800  175.2470  137.0010 C   0  0  0  0  0  0  0  0  0  0  0  0
  194.2340  173.9760  136.9540 O   0  0  0  0  0  0  0  0  0  0  0  0
  194.1060  176.0860  137.8350 O   0  0  0  0  0  1  0  0  0  0  0  0
  1 10  1  0  0  0  0
  1  6  1  1  0  0  0
  2 11  1  0  0  0  0
  3 12  1  0  0  0  0
  4  1  1  0  0  0  0
  4  5  1  1  0  0  0
  6 11  1  0  0  0  0
  7 12  1  0  0  0  0
  7  4  1  0  0  0  0
  9 12  1  0  0  0  0
  9 14  1  1  0  0  0
  9 10  1  0  0  0  0
 10  8  1  6  0  0  0
 10  2  1  0  0  0  0
 11 25  1  1  0  0  0
 13 14  2  0  0  0  0
 14 15  1  0  0  0  0
 16 21  1  0  0  0  0
 17 20  1  0  0  0  0
 17 24  1  0  0  0  0
 18 23  1  0  0  0  0
 18 20  2  0  0  0  0
 19 16  2  0  0  0  0
 20 16  1  0  0  0  0
 22 23  1  0  0  0  0
 23 19  1  0  0  0  0
 24 15  1  6  0  0  0
 24 21  1  0  0  0  0
 25 26  1  1  0  0  0
 25 27  1  0  0  0  0
 27 28  2  0  0  0  0
 28 40  1  0  0  0  0
 28 30  1  0  0  0  0
 29 33  1  0  0  0  0
 29 31  1  0  0  0  0
 30 36  2  0  0  0  0
 31 30  1  0  0  0  0
 31 34  1  0  0  0  0
 32 34  1  0  0  0  0
 32 39  1  0  0  0  0
 33 32  2  0  0  0  0
 34 35  2  0  0  0  0
 36 35  1  0  0  0  0
 38 37  1  0  0  0  0
 39 38  1  0  0  0  0
 39 37  2  0  0  0  0
 40 41  3  0  0  0  0
 42  4  1  0  0  0  0
 42 43  1  0  0  0  0
 43 45  1  0  0  0  0
 44 43  2  0  0  0  0
M  END
>  <MODEL>
4

>  <REMARK>
 VINA RESULT:      -8.0      2.347      3.190
  Name = 
  9 active torsions:
  status: ('A' for Active; 'I' for Inactive)
    1  A    between atoms: C_6  and  C_37
    2  A    between atoms: C_8  and  C_37
    3  A    between atoms: C_9  and  C_44
    4  A    between atoms: C_13  and  C_41
    5  A    between atoms: C_16  and  C_44
    6  A    between atoms: C_26  and  C_27
    7  A    between atoms: N_28  and  C_42
    8  A    between atoms: N_31  and  C_38
    9  A    between atoms: C_38  and  C_39
                            x       y       z     vdW  Elec       q    Type
                         _______ _______ _______ _____ _____    ______ ____

>  <TORSDO>
F 9

$$$$
=
 OpenBabel11032419453D

 45 51  0  0  1  0  0  0  0  0999 V2000
  186.5270  176.0900  135.4210 C   0  0  2  0  0  3  0  0  0  0  0  0
  185.6890  177.5910  137.0090 C   0  0  0  0  0  2  0  0  0  0  0  0
  183.7160  173.6570  137.3310 O   0  0  0  0  0  1  0  0  0  0  0  0
  186.9140  174.7240  136.0460 C   0  0  1  0  0  0  0  0  0  0  0  0
  187.6020  174.9050  137.4010 C   0  0  0  0  0  1  0  0  0  0  0  0
  187.5540  177.0390  135.6190 O   0  0  0  0  0  0  0  0  0  0  0  0
  185.6620  173.8700  136.2350 C   0  0  0  0  0  2  0  0  0  0  0  0
  184.6810  177.4860  134.8840 O   0  0  0  0  0  1  0  0  0  0  0  0
  184.1400  175.6670  136.3430 C   0  0  1  0  0  3  0  0  0  0  0  0
  185.2120  176.6980  135.9080 C   0  0  1  0  0  0  0  0  0  0  0  0
  187.0560  178.0170  136.5100 C   0  0  2  0  0  3  0  0  0  0  0  0
  184.7100  174.5500  137.1030 N   0  0  0  0  0  0  0  0  0  0  0  0
  183.1530  176.6610  138.2920 O   0  0  0  0  0  0  0  0  0  0  0  0
  183.0080  176.3260  137.0830 C   0  0  0  0  0  0  0  0  0  0  0  0
  181.7890  176.6130  136.3870 N   0  0  0  0  0  2  0  0  0  0  0  0
  180.6630  178.7730  138.8420 C   0  0  0  0  0  0  0  0  0  0  0  0
  179.9830  176.6430  138.0960 C   0  0  0  0  0  2  0  0  0  0  0  0
  180.0380  177.4670  140.5030 N   0  0  0  0  0  0  0  0  0  0  0  0
  181.1170  179.3420  140.0130 C   0  0  0  0  0  3  0  0  0  0  0  0
  180.0190  177.6470  139.1730 C   0  0  0  0  0  0  0  0  0  0  0  0
  181.1900  178.7630  137.4660 C   0  0  0  0  0  2  0  0  0  0  0  0
  180.9070  178.7340  142.4140 C   0  0  0  0  0  1  0  0  0  0  0  0
  180.6470  178.5410  140.9990 N   0  0  0  0  0  0  0  0  0  0  0  0
  180.6850  177.3970  136.9370 C   0  0  1  0  0  3  0  0  0  0  0  0
  188.0280  178.2410  137.6730 C   0  0  1  0  0  3  0  0  0  0  0  0
  188.9950  179.3780  137.3790 C   0  0  0  0  0  1  0  0  0  0  0  0
  187.3320  178.4600  138.9460 N   0  0  0  0  0  0  0  0  0  0  0  0
  187.7260  178.0870  140.1320 C   0  0  0  0  0  0  0  0  0  0  0  0
  188.0910  177.4680  143.2290 N   0  0  0  0  0  2  0  0  0  0  0  0
  186.8940  178.4290  141.2990 C   0  0  0  0  0  0  0  0  0  0  0  0
  187.1470  178.1130  142.5710 N   0  0  0  0  0  0  0  0  0  0  0  0
  186.5030  178.2390  144.6350 C   0  0  0  0  0  0  0  0  0  0  0  0
  187.7130  177.5300  144.5390 C   0  0  0  0  0  3  0  0  0  0  0  0
  186.2100  178.5750  143.3420 C   0  0  0  0  0  0  0  0  0  0  0  0
  185.2390  179.2480  142.6280 C   0  0  0  0  0  3  0  0  0  0  0  0
  185.6910  179.1490  141.2910 C   0  0  0  0  0  3  0  0  0  0  0  0
  185.7080  178.9960  147.0950 N   0  0  0  0  0  0  0  0  0  0  0  0
  184.5580  178.5870  146.5070 O   0  0  0  0  0  0  0  0  0  0  0  0
  185.7430  178.5470  145.8430 C   0  0  0  0  0  0  0  0  0  0  0  0
  188.9670  177.3700  140.3270 C   0  0  0  0  0  0  0  0  0  0  0  0
  189.9580  176.7960  140.4860 N   0  0  0  0  0  0  0  0  0  0  0  0
  187.8730  174.0320  135.0700 C   0  0  0  0  0  2  0  0  0  0  0  0
  188.7100  172.9590  135.6950 C   0  0  0  0  0  0  0  0  0  0  0  0
  188.1670  171.7040  135.9320 O   0  0  0  0  0  0  0  0  0  0  0  0
  189.9120  173.1880  135.9880 O   0  0  0  0  0  1  0  0  0  0  0  0
  1  6  1  1  0  0  0
  1 10  1  0  0  0  0
  1  4  1  0  0  0  0
  4  7  1  0  0  0  0
  4  5  1  1  0  0  0
  6 11  1  0  0  0  0
  7 12  1  0  0  0  0
  9 14  1  1  0  0  0
  9 12  1  0  0  0  0
 10  8  1  6  0  0  0
 10  9  1  0  0  0  0
 10  2  1  0  0  0  0
 11  2  1  0  0  0  0
 11 25  1  1  0  0  0
 12  3  1  0  0  0  0
 14 13  2  0  0  0  0
 15 14  1  0  0  0  0
 16 20  1  0  0  0  0
 16 19  2  0  0  0  0
 17 20  1  0  0  0  0
 18 23  1  0  0  0  0
 19 23  1  0  0  0  0
 20 18  2  0  0  0  0
 21 16  1  0  0  0  0
 23 22  1  0  0  0  0
 24 15  1  1  0  0  0
 24 21  1  0  0  0  0
 24 17  1  0  0  0  0
 25 26  1  6  0  0  0
 25 27  1  0  0  0  0
 27 28  2  0  0  0  0
 28 40  1  0  0  0  0
 28 30  1  0  0  0  0
 29 33  1  0  0  0  0
 30 31  1  0  0  0  0
 31 29  1  0  0  0  0
 31 34  1  0  0  0  0
 32 39  1  0  0  0  0
 33 32  2  0  0  0  0
 34 32  1  0  0  0  0
 35 34  2  0  0  0  0
 36 30  2  0  0  0  0
 36 35  1  0  0  0  0
 38 37  1  0  0  0  0
 39 38  1  0  0  0  0
 39 37  2  0  0  0  0
 40 41  3  0  0  0  0
 42 43  1  0  0  0  0
 42  4  1  0  0  0  0
 43 44  2  0  0  0  0
 43 45  1  0  0  0  0
M  END
>  <MODEL>
5

>  <REMARK>
 VINA RESULT:      -7.8      2.607      3.963
  Name = 
  9 active torsions:
  status: ('A' for Active; 'I' for Inactive)
    1  A    between atoms: C_6  and  C_37
    2  A    between atoms: C_8  and  C_37
    3  A    between atoms: C_9  and  C_44
    4  A    between atoms: C_13  and  C_41
    5  A    between atoms: C_16  and  C_44
    6  A    between atoms: C_26  and  C_27
    7  A    between atoms: N_28  and  C_42
    8  A    between atoms: N_31  and  C_38
    9  A    between atoms: C_38  and  C_39
                            x       y       z     vdW  Elec       q    Type
                         _______ _______ _______ _____ _____    ______ ____

>  <TORSDO>
F 9

$$$$
=
 OpenBabel11032419453D

 45 51  0  0  1  0  0  0  0  0999 V2000
  181.0310  177.5150  138.9330 C   0  0  2  0  0  3  0  0  0  0  0  0
  183.3240  177.2290  139.3040 C   0  0  0  0  0  2  0  0  0  0  0  0
  182.4960  178.1890  135.0770 O   0  0  0  0  0  1  0  0  0  0  0  0
  180.7170  178.8180  138.1530 C   0  0  1  0  0  0  0  0  0  0  0  0
  181.5890  179.9800  138.6320 C   0  0  0  0  0  1  0  0  0  0  0  0
  181.2260  177.7890  140.3050 O   0  0  0  0  0  0  0  0  0  0  0  0
  180.9600  178.5960  136.6610 C   0  0  0  0  0  2  0  0  0  0  0  0
  182.0120  175.3600  138.7310 O   0  0  0  0  0  1  0  0  0  0  0  0
  182.5070  176.8360  136.9120 C   0  0  1  0  0  3  0  0  0  0  0  0
  182.2280  176.7080  138.4310 C   0  0  1  0  0  0  0  0  0  0  0  0
  182.5880  177.5440  140.5920 C   0  0  2  0  0  3  0  0  0  0  0  0
  182.3440  178.2100  136.4240 N   0  0  0  0  0  0  0  0  0  0  0  0
  183.9430  175.1040  136.0740 O   0  0  0  0  0  0  0  0  0  0  0  0
  183.8540  176.2710  136.5480 C   0  0  0  0  0  0  0  0  0  0  0  0
  185.0200  177.0900  136.6970 N   0  0  0  0  0  2  0  0  0  0  0  0
  188.2870  176.2690  137.4800 C   0  0  0  0  0  0  0  0  0  0  0  0
  187.2900  177.9600  136.1740 C   0  0  0  0  0  2  0  0  0  0  0  0
  189.3240  178.2030  137.6840 N   0  0  0  0  0  0  0  0  0  0  0  0
  189.1010  176.1900  138.5900 C   0  0  0  0  0  3  0  0  0  0  0  0
  188.4460  177.4930  136.9600 C   0  0  0  0  0  0  0  0  0  0  0  0
  186.9900  175.6540  137.1450 C   0  0  0  0  0  2  0  0  0  0  0  0
  190.7130  177.7530  139.6550 C   0  0  0  0  0  1  0  0  0  0  0  0
  189.7620  177.3720  138.6260 N   0  0  0  0  0  0  0  0  0  0  0  0
  186.3540  176.7260  136.2240 C   0  0  1  0  0  3  0  0  0  0  0  0
  183.2170  178.7400  141.3150 C   0  0  1  0  0  3  0  0  0  0  0  0
  182.1580  179.6140  141.9700 C   0  0  0  0  0  1  0  0  0  0  0  0
  184.2340  178.3300  142.2890 N   0  0  0  0  0  0  0  0  0  0  0  0
  185.5240  178.2720  142.1030 C   0  0  0  0  0  0  0  0  0  0  0  0
  185.3520  178.8700  145.2200 N   0  0  0  0  0  2  0  0  0  0  0  0
  186.3880  177.8590  143.2230 C   0  0  0  0  0  0  0  0  0  0  0  0
  186.2180  178.1730  144.5100 N   0  0  0  0  0  0  0  0  0  0  0  0
  186.9510  177.9770  146.5380 C   0  0  0  0  0  0  0  0  0  0  0  0
  185.7880  178.7650  146.5100 C   0  0  0  0  0  3  0  0  0  0  0  0
  187.1590  177.6410  145.2280 C   0  0  0  0  0  0  0  0  0  0  0  0
  188.0470  176.9150  144.4600 C   0  0  0  0  0  3  0  0  0  0  0  0
  187.5390  177.0630  143.1480 C   0  0  0  0  0  3  0  0  0  0  0  0
  188.3460  177.9400  148.8430 N   0  0  0  0  0  0  0  0  0  0  0  0
  188.4150  176.6570  148.4150 O   0  0  0  0  0  0  0  0  0  0  0  0
  187.7470  177.6020  147.7030 C   0  0  0  0  0  0  0  0  0  0  0  0
  186.1230  178.6280  140.8350 C   0  0  0  0  0  0  0  0  0  0  0  0
  186.6020  178.9090  139.8210 N   0  0  0  0  0  0  0  0  0  0  0  0
  179.2390  179.1490  138.3950 C   0  0  0  0  0  2  0  0  0  0  0  0
  179.0180  180.3760  139.2250 C   0  0  0  0  0  0  0  0  0  0  0  0
  178.9310  180.2750  140.6060 O   0  0  0  0  0  1  0  0  0  0  0  0
  178.9310  181.5030  138.6720 O   0  0  0  0  0  0  0  0  0  0  0  0
  1  6  1  1  0  0  0
  2 11  1  0  0  0  0
  3 12  1  0  0  0  0
  4 42  1  0  0  0  0
  4  5  1  1  0  0  0
  4  1  1  0  0  0  0
  6 11  1  0  0  0  0
  7  4  1  0  0  0  0
  9 14  1  1  0  0  0
  9 10  1  0  0  0  0
 10  8  1  1  0  0  0
 10  1  1  0  0  0  0
 10  2  1  0  0  0  0
 11 25  1  6  0  0  0
 12  7  1  0  0  0  0
 12  9  1  0  0  0  0
 13 14  2  0  0  0  0
 14 15  1  0  0  0  0
 16 19  2  0  0  0  0
 17 24  1  0  0  0  0
 17 20  1  0  0  0  0
 18 23  1  0  0  0  0
 19 23  1  0  0  0  0
 20 16  1  0  0  0  0
 20 18  2  0  0  0  0
 21 16  1  0  0  0  0
 23 22  1  0  0  0  0
 24 15  1  1  0  0  0
 24 21  1  0  0  0  0
 25 26  1  1  0  0  0
 25 27  1  0  0  0  0
 28 27  2  0  0  0  0
 28 30  1  0  0  0  0
 29 33  1  0  0  0  0
 30 31  1  0  0  0  0
 31 29  1  0  0  0  0
 31 34  1  0  0  0  0
 32 39  1  0  0  0  0
 33 32  2  0  0  0  0
 34 32  1  0  0  0  0
 35 34  2  0  0  0  0
 36 30  2  0  0  0  0
 36 35  1  0  0  0  0
 38 37  1  0  0  0  0
 39 38  1  0  0  0  0
 39 37  2  0  0  0  0
 40 28  1  0  0  0  0
 41 40  3  0  0  0  0
 42 43  1  0  0  0  0
 43 44  1  0  0  0  0
 45 43  2  0  0  0  0
M  END
>  <MODEL>
6

>  <REMARK>
 VINA RESULT:      -7.7      3.413      7.657
  Name = 
  9 active torsions:
  status: ('A' for Active; 'I' for Inactive)
    1  A    between atoms: C_6  and  C_37
    2  A    between atoms: C_8  and  C_37
    3  A    between atoms: C_9  and  C_44
    4  A    between atoms: C_13  and  C_41
    5  A    between atoms: C_16  and  C_44
    6  A    between atoms: C_26  and  C_27
    7  A    between atoms: N_28  and  C_42
    8  A    between atoms: N_31  and  C_38
    9  A    between atoms: C_38  and  C_39
                            x       y       z     vdW  Elec       q    Type
                         _______ _______ _______ _____ _____    ______ ____

>  <TORSDO>
F 9

$$$$
=
 OpenBabel11032419453D

 45 51  0  0  1  0  0  0  0  0999 V2000
  189.8000  178.0540  138.0760 C   0  0  2  0  0  3  0  0  0  0  0  0
  187.5770  177.8040  138.7640 C   0  0  0  0  0  2  0  0  0  0  0  0
  188.6670  174.7730  135.7470 O   0  0  0  0  0  1  0  0  0  0  0  0
  190.5830  176.7160  138.1090 C   0  0  1  0  0  0  0  0  0  0  0  0
  190.2290  175.8920  139.3490 C   0  0  0  0  0  1  0  0  0  0  0  0
  189.7400  178.6290  139.3650 O   0  0  0  0  0  0  0  0  0  0  0  0
  190.2580  175.8980  136.8610 C   0  0  0  0  0  2  0  0  0  0  0  0
  188.0640  179.2210  136.9480 O   0  0  0  0  0  1  0  0  0  0  0  0
  188.1560  176.8820  136.4500 C   0  0  1  0  0  3  0  0  0  0  0  0
  188.3810  177.9830  137.5150 C   0  0  1  0  0  0  0  0  0  0  0  0
  188.3910  178.5770  139.7850 C   0  0  2  0  0  3  0  0  0  0  0  0
  188.8290  175.6240  136.7910 N   0  0  0  0  0  0  0  0  0  0  0  0
  186.1020  177.3930  135.3180 O   0  0  0  0  0  0  0  0  0  0  0  0
  186.6920  176.6720  136.1700 C   0  0  0  0  0  0  0  0  0  0  0  0
  185.9960  175.6160  136.8410 N   0  0  0  0  0  2  0  0  0  0  0  0
  183.6260  173.0960  136.8410 C   0  0  0  0  0  0  0  0  0  0  0  0
  184.5510  174.4760  135.1680 C   0  0  0  0  0  2  0  0  0  0  0  0
  183.9510  172.0130  134.9490 N   0  0  0  0  0  0  0  0  0  0  0  0
  183.5440  171.7480  137.1140 C   0  0  0  0  0  3  0  0  0  0  0  0
  183.8720  173.2200  135.5300 C   0  0  0  0  0  0  0  0  0  0  0  0
  184.0840  174.2510  137.6340 C   0  0  0  0  0  2  0  0  0  0  0  0
  183.6900  169.6980  135.7160 C   0  0  0  0  0  1  0  0  0  0  0  0
  183.6800  171.1360  135.9130 N   0  0  0  0  0  0  0  0  0  0  0  0
  184.6280  175.2000  136.5360 C   0  0  1  0  0  3  0  0  0  0  0  0
  188.2780  177.9490  141.1780 C   0  0  1  0  0  3  0  0  0  0  0  0
  189.4340  178.3690  142.0740 C   0  0  0  0  0  1  0  0  0  0  0  0
  186.9880  178.2390  141.8160 N   0  0  0  0  0  0  0  0  0  0  0  0
  186.6360  177.9590  143.0400 C   0  0  0  0  0  0  0  0  0  0  0  0
  183.8930  178.3340  141.4770 N   0  0  0  0  0  2  0  0  0  0  0  0
  185.2960  178.3610  143.5050 C   0  0  0  0  0  0  0  0  0  0  0  0
  184.2030  178.4880  142.7500 N   0  0  0  0  0  0  0  0  0  0  0  0
  182.0920  178.9680  142.6790 C   0  0  0  0  0  0  0  0  0  0  0  0
  182.5620  178.6300  141.3990 C   0  0  0  0  0  3  0  0  0  0  0  0
  183.1950  178.8540  143.4810 C   0  0  0  0  0  0  0  0  0  0  0  0
  183.5460  179.0040  144.8080 C   0  0  0  0  0  3  0  0  0  0  0  0
  184.9240  178.6810  144.8180 C   0  0  0  0  0  3  0  0  0  0  0  0
  179.7240  179.2890  143.9250 N   0  0  0  0  0  0  0  0  0  0  0  0
  179.5830  180.0170  142.7910 O   0  0  0  0  0  0  0  0  0  0  0  0
  180.7340  179.3480  143.0600 C   0  0  0  0  0  0  0  0  0  0  0  0
  187.5360  177.2890  143.9520 C   0  0  0  0  0  0  0  0  0  0  0  0
  188.2560  176.7510  144.6790 N   0  0  0  0  0  0  0  0  0  0  0  0
  192.0770  177.0620  138.1300 C   0  0  0  0  0  2  0  0  0  0  0  0
  192.9450  176.0610  137.4330 C   0  0  0  0  0  0  0  0  0  0  0  0
  193.5290  176.3750  136.2140 O   0  0  0  0  0  0  0  0  0  0  0  0
  193.1620  174.9390  137.9610 O   0  0  0  0  0  1  0  0  0  0  0  0
  1  4  1  0  0  0  0
  1  6  1  1  0  0  0
  2 11  1  0  0  0  0
  3 12  1  0  0  0  0
  4 42  1  0  0  0  0
  4  5  1  1  0  0  0
  6 11  1  0  0  0  0
  7  4  1  0  0  0  0
  9 14  1  1  0  0  0
  9 12  1  0  0  0  0
  9 10  1  0  0  0  0
 10  8  1  6  0  0  0
 10  1  1  0  0  0  0
 10  2  1  0  0  0  0
 11 25  1  1  0  0  0
 12  7  1  0  0  0  0
 13 14  2  0  0  0  0
 14 15  1  0  0  0  0
 16 19  2  0  0  0  0
 16 21  1  0  0  0  0
 17 20  1  0  0  0  0
 17 24  1  0  0  0  0
 18 20  2  0  0  0  0
 18 23  1  0  0  0  0
 20 16  1  0  0  0  0
 22 23  1  0  0  0  0
 23 19  1  0  0  0  0
 24 15  1  1  0  0  0
 24 21  1  0  0  0  0
 25 27  1  0  0  0  0
 25 26  1  1  0  0  0
 27 28  2  0  0  0  0
 28 30  1  0  0  0  0
 28 40  1  0  0  0  0
 29 31  1  0  0  0  0
 30 36  2  0  0  0  0
 31 34  1  0  0  0  0
 31 30  1  0  0  0  0
 32 39  1  0  0  0  0
 32 34  1  0  0  0  0
 33 29  1  0  0  0  0
 33 32  2  0  0  0  0
 34 35  2  0  0  0  0
 35 36  1  0  0  0  0
 38 39  1  0  0  0  0
 38 37  1  0  0  0  0
 39 37  2  0  0  0  0
 40 41  3  0  0  0  0
 43 45  1  0  0  0  0
 43 42  1  0  0  0  0
 44 43  2  0  0  0  0
M  END
>  <MODEL>
7

>  <REMARK>
 VINA RESULT:      -7.5      2.763      4.007
  Name = 
  9 active torsions:
  status: ('A' for Active; 'I' for Inactive)
    1  A    between atoms: C_6  and  C_37
    2  A    between atoms: C_8  and  C_37
    3  A    between atoms: C_9  and  C_44
    4  A    between atoms: C_13  and  C_41
    5  A    between atoms: C_16  and  C_44
    6  A    between atoms: C_26  and  C_27
    7  A    between atoms: N_28  and  C_42
    8  A    between atoms: N_31  and  C_38
    9  A    between atoms: C_38  and  C_39
                            x       y       z     vdW  Elec       q    Type
                         _______ _______ _______ _____ _____    ______ ____

>  <TORSDO>
F 9

$$$$
=
 OpenBabel11032419453D

 45 51  0  0  1  0  0  0  0  0999 V2000
  184.3900  175.4220  135.5050 C   0  0  2  0  0  3  0  0  0  0  0  0
  185.3960  177.2580  136.5510 C   0  0  0  0  0  2  0  0  0  0  0  0
  182.5460  175.2440  139.2520 O   0  0  0  0  0  1  0  0  0  0  0  0
  184.4360  174.1440  136.3820 C   0  0  1  0  0  0  0  0  0  0  0  0
  185.7830  174.0050  137.0960 C   0  0  0  0  0  1  0  0  0  0  0  0
  185.6170  175.6110  134.8320 O   0  0  0  0  0  0  0  0  0  0  0  0
  183.3240  174.1950  137.4270 C   0  0  0  0  0  2  0  0  0  0  0  0
  183.4090  177.5790  135.3290 O   0  0  0  0  0  1  0  0  0  0  0  0
  183.1170  176.5420  137.4670 C   0  0  1  0  0  3  0  0  0  0  0  0
  184.0370  176.7190  136.2330 C   0  0  1  0  0  0  0  0  0  0  0  0
  186.2210  176.7680  135.3770 C   0  0  2  0  0  3  0  0  0  0  0  0
  183.4760  175.3710  138.2730 N   0  0  0  0  0  0  0  0  0  0  0  0
  182.3110  178.7510  137.9530 O   0  0  0  0  0  0  0  0  0  0  0  0
  183.0610  177.7950  138.2980 C   0  0  0  0  0  0  0  0  0  0  0  0
  183.8240  177.8670  139.5090 N   0  0  0  0  0  2  0  0  0  0  0  0
  184.9570  179.2590  142.4650 C   0  0  0  0  0  0  0  0  0  0  0  0
  182.8490  178.5390  141.6960 C   0  0  0  0  0  2  0  0  0  0  0  0
  183.7870  178.2640  144.0450 N   0  0  0  0  0  0  0  0  0  0  0  0
  185.8220  178.9520  143.4930 C   0  0  0  0  0  3  0  0  0  0  0  0
  183.7420  178.8320  142.8300 C   0  0  0  0  0  0  0  0  0  0  0  0
  185.1320  179.3500  141.0040 C   0  0  0  0  0  2  0  0  0  0  0  0
  185.5340  177.9030  145.7280 C   0  0  0  0  0  1  0  0  0  0  0  0
  185.0430  178.4110  144.4590 N   0  0  0  0  0  0  0  0  0  0  0  0
  183.7270  178.9490  140.4870 C   0  0  1  0  0  3  0  0  0  0  0  0
  187.6670  176.4830  135.7930 C   0  0  1  0  0  3  0  0  0  0  0  0
  188.6600  177.1060  134.8220 C   0  0  0  0  0  1  0  0  0  0  0  0
  187.9440  176.9080  137.1700 N   0  0  0  0  0  0  0  0  0  0  0  0
  188.8710  176.4480  137.9640 C   0  0  0  0  0  0  0  0  0  0  0  0
  191.3970  176.7710  139.8670 N   0  0  0  0  0  2  0  0  0  0  0  0
  189.0080  177.0300  139.3110 C   0  0  0  0  0  0  0  0  0  0  0  0
  190.1330  177.1130  140.0260 N   0  0  0  0  0  0  0  0  0  0  0  0
  191.0680  177.7600  141.8690 C   0  0  0  0  0  0  0  0  0  0  0  0
  192.0170  177.1680  141.0170 C   0  0  0  0  0  3  0  0  0  0  0  0
  189.8960  177.6860  141.1660 C   0  0  0  0  0  0  0  0  0  0  0  0
  188.5680  178.0360  141.3030 C   0  0  0  0  0  3  0  0  0  0  0  0
  187.9900  177.6030  140.0860 C   0  0  0  0  0  3  0  0  0  0  0  0
  191.7190  178.1890  144.4480 N   0  0  0  0  0  0  0  0  0  0  0  0
  191.2130  179.3810  144.0510 O   0  0  0  0  0  0  0  0  0  0  0  0
  191.2910  178.3280  143.1960 C   0  0  0  0  0  0  0  0  0  0  0  0
  189.7780  175.4020  137.5440 C   0  0  0  0  0  0  0  0  0  0  0  0
  190.5010  174.5660  137.2050 N   0  0  0  0  0  0  0  0  0  0  0  0
  184.2210  172.9440  135.4510 C   0  0  0  0  0  2  0  0  0  0  0  0
  184.4790  171.6180  136.0960 C   0  0  0  0  0  0  0  0  0  0  0  0
  183.5010  171.0240  136.8810 O   0  0  0  0  0  1  0  0  0  0  0  0
  185.5760  171.0300  135.9110 O   0  0  0  0  0  0  0  0  0  0  0  0
  1  6  1  1  0  0  0
  1 10  1  0  0  0  0
  1  4  1  0  0  0  0
  4  5  1  1  0  0  0
  4  7  1  0  0  0  0
  6 11  1  0  0  0  0
  7 12  1  0  0  0  0
  9 12  1  0  0  0  0
  9 14  1  1  0  0  0
 10  8  1  6  0  0  0
 10  2  1  0  0  0  0
 10  9  1  0  0  0  0
 11 25  1  1  0  0  0
 11  2  1  0  0  0  0
 12  3  1  0  0  0  0
 13 14  2  0  0  0  0
 14 15  1  0  0  0  0
 16 20  1  0  0  0  0
 16 19  2  0  0  0  0
 17 20  1  0  0  0  0
 18 23  1  0  0  0  0
 19 23  1  0  0  0  0
 20 18  2  0  0  0  0
 21 16  1  0  0  0  0
 23 22  1  0  0  0  0
 24 15  1  6  0  0  0
 24 21  1  0  0  0  0
 24 17  1  0  0  0  0
 25 26  1  6  0  0  0
 25 27  1  0  0  0  0
 27 28  2  0  0  0  0
 28 30  1  0  0  0  0
 29 31  1  0  0  0  0
 29 33  1  0  0  0  0
 30 31  1  0  0  0  0
 30 36  2  0  0  0  0
 31 34  1  0  0  0  0
 32 39  1  0  0  0  0
 33 32  2  0  0  0  0
 34 35  2  0  0  0  0
 34 32  1  0  0  0  0
 36 35  1  0  0  0  0
 38 37  1  0  0  0  0
 39 38  1  0  0  0  0
 39 37  2  0  0  0  0
 40 28  1  0  0  0  0
 41 40  3  0  0  0  0
 42 43  1  0  0  0  0
 42  4  1  0  0  0  0
 43 44  1  0  0  0  0
 45 43  2  0  0  0  0
M  END
>  <MODEL>
8

>  <REMARK>
 VINA RESULT:      -7.5      3.121      6.527
  Name = 
  9 active torsions:
  status: ('A' for Active; 'I' for Inactive)
    1  A    between atoms: C_6  and  C_37
    2  A    between atoms: C_8  and  C_37
    3  A    between atoms: C_9  and  C_44
    4  A    between atoms: C_13  and  C_41
    5  A    between atoms: C_16  and  C_44
    6  A    between atoms: C_26  and  C_27
    7  A    between atoms: N_28  and  C_42
    8  A    between atoms: N_31  and  C_38
    9  A    between atoms: C_38  and  C_39
                            x       y       z     vdW  Elec       q    Type
                         _______ _______ _______ _____ _____    ______ ____

>  <TORSDO>
F 9

$$$$
=
 OpenBabel11032419453D

 45 51  0  0  1  0  0  0  0  0999 V2000
  181.1780  176.3010  136.5430 C   0  0  2  0  0  3  0  0  0  0  0  0
  183.2500  177.1320  137.2450 C   0  0  0  0  0  2  0  0  0  0  0  0
  180.4650  176.7010  140.6410 O   0  0  0  0  0  1  0  0  0  0  0  0
  180.6940  175.1100  137.4110 C   0  0  1  0  0  0  0  0  0  0  0  0
  181.8470  174.1650  137.7560 C   0  0  0  0  0  1  0  0  0  0  0  0
  182.1060  175.8650  135.5700 O   0  0  0  0  0  0  0  0  0  0  0  0
  180.0770  175.6340  138.7060 C   0  0  0  0  0  2  0  0  0  0  0  0
  181.5760  178.6430  136.5690 O   0  0  0  0  0  1  0  0  0  0  0  0
  181.2450  177.6810  138.7360 C   0  0  1  0  0  3  0  0  0  0  0  0
  181.7950  177.4740  137.3030 C   0  0  1  0  0  0  0  0  0  0  0  0
  183.3610  176.4190  135.9110 C   0  0  2  0  0  3  0  0  0  0  0  0
  181.0530  176.4160  139.4530 N   0  0  0  0  0  0  0  0  0  0  0  0
  181.7400  179.8480  139.6430 O   0  0  0  0  0  0  0  0  0  0  0  0
  182.0960  178.6430  139.5210 C   0  0  0  0  0  0  0  0  0  0  0  0
  183.2800  178.1620  140.1680 N   0  0  0  0  0  2  0  0  0  0  0  0
  186.3580  178.6660  141.6620 C   0  0  0  0  0  0  0  0  0  0  0  0
  184.1850  178.2650  142.4820 C   0  0  0  0  0  2  0  0  0  0  0  0
  186.3610  177.3350  143.4190 N   0  0  0  0  0  0  0  0  0  0  0  0
  187.5950  178.0600  141.7240 C   0  0  0  0  0  3  0  0  0  0  0  0
  185.6420  178.2080  142.6960 C   0  0  0  0  0  0  0  0  0  0  0  0
  185.5300  179.1360  140.5380 C   0  0  0  0  0  2  0  0  0  0  0  0
  188.6520  176.4660  143.3100 C   0  0  0  0  0  1  0  0  0  0  0  0
  187.5650  177.3130  142.8530 N   0  0  0  0  0  0  0  0  0  0  0  0
  184.0960  178.9470  141.0940 C   0  0  1  0  0  3  0  0  0  0  0  0
  184.4440  175.3360  135.9470 C   0  0  1  0  0  3  0  0  0  0  0  0
  184.5950  174.6540  134.5950 C   0  0  0  0  0  1  0  0  0  0  0  0
  185.7330  175.8530  136.4200 N   0  0  0  0  0  0  0  0  0  0  0  0
  186.6750  175.1840  137.0260 C   0  0  0  0  0  0  0  0  0  0  0  0
  189.7090  174.2350  137.0000 N   0  0  0  0  0  2  0  0  0  0  0  0
  187.9180  175.8830  137.3980 C   0  0  0  0  0  0  0  0  0  0  0  0
  189.1530  175.3800  137.3480 N   0  0  0  0  0  0  0  0  0  0  0  0
  191.2670  175.7210  137.6730 C   0  0  0  0  0  0  0  0  0  0  0  0
  191.0480  174.4180  137.1950 C   0  0  0  0  0  3  0  0  0  0  0  0
  190.0140  176.2670  137.7440 C   0  0  0  0  0  0  0  0  0  0  0  0
  189.4060  177.4550  138.0970 C   0  0  0  0  0  3  0  0  0  0  0  0
  188.0330  177.1980  137.8700 C   0  0  0  0  0  3  0  0  0  0  0  0
  193.7160  176.8450  137.6260 N   0  0  0  0  0  0  0  0  0  0  0  0
  193.3990  176.8390  138.9440 O   0  0  0  0  0  0  0  0  0  0  0  0
  192.5430  176.3450  138.0110 C   0  0  0  0  0  0  0  0  0  0  0  0
  186.5360  173.7740  137.3140 C   0  0  0  0  0  0  0  0  0  0  0  0
  186.4280  172.6460  137.5420 N   0  0  0  0  0  0  0  0  0  0  0  0
  179.6350  174.3540  136.5980 C   0  0  0  0  0  2  0  0  0  0  0  0
  180.0410  172.9660  136.2100 C   0  0  0  0  0  0  0  0  0  0  0  0
  179.6270  171.8820  136.9700 O   0  0  0  0  0  1  0  0  0  0  0  0
  180.7420  172.7800  135.1810 O   0  0  0  0  0  0  0  0  0  0  0  0
  1  6  1  6  0  0  0
  1 10  1  0  0  0  0
  1  4  1  0  0  0  0
  2 10  1  0  0  0  0
  4  5  1  1  0  0  0
  4  7  1  0  0  0  0
  6 11  1  0  0  0  0
  7 12  1  0  0  0  0
  9 12  1  0  0  0  0
  9 14  1  1  0  0  0
 10  8  1  6  0  0  0
 10  9  1  0  0  0  0
 11 25  1  1  0  0  0
 11  2  1  0  0  0  0
 12  3  1  0  0  0  0
 14 13  2  0  0  0  0
 14 15  1  0  0  0  0
 16 19  2  0  0  0  0
 16 20  1  0  0  0  0
 17 20  1  0  0  0  0
 19 23  1  0  0  0  0
 20 18  2  0  0  0  0
 21 24  1  0  0  0  0
 21 16  1  0  0  0  0
 23 22  1  0  0  0  0
 23 18  1  0  0  0  0
 24 15  1  6  0  0  0
 24 17  1  0  0  0  0
 25 26  1  6  0  0  0
 25 27  1  0  0  0  0
 27 28  2  0  0  0  0
 28 40  1  0  0  0  0
 28 30  1  0  0  0  0
 29 33  1  0  0  0  0
 29 31  1  0  0  0  0
 30 36  2  0  0  0  0
 31 30  1  0  0  0  0
 31 34  1  0  0  0  0
 32 34  1  0  0  0  0
 32 39  1  0  0  0  0
 33 32  2  0  0  0  0
 34 35  2  0  0  0  0
 36 35  1  0  0  0  0
 37 39  2  0  0  0  0
 37 38  1  0  0  0  0
 39 38  1  0  0  0  0
 40 41  3  0  0  0  0
 42  4  1  0  0  0  0
 43 42  1  0  0  0  0
 43 44  1  0  0  0  0
 45 43  2  0  0  0  0
M  END
>  <MODEL>
9

>  <REMARK>
 VINA RESULT:      -7.4      3.177      8.872
  Name = 
  9 active torsions:
  status: ('A' for Active; 'I' for Inactive)
    1  A    between atoms: C_6  and  C_37
    2  A    between atoms: C_8  and  C_37
    3  A    between atoms: C_9  and  C_44
    4  A    between atoms: C_13  and  C_41
    5  A    between atoms: C_16  and  C_44
    6  A    between atoms: C_26  and  C_27
    7  A    between atoms: N_28  and  C_42
    8  A    between atoms: N_31  and  C_38
    9  A    between atoms: C_38  and  C_39
                            x       y       z     vdW  Elec       q    Type
                         _______ _______ _______ _____ _____    ______ ____

>  <TORSDO>
F 9

$$$$
