=
 OpenBabel11042411013D

 29 33  0  0  1  0  0  0  0  0999 V2000
  186.0040  179.3970  142.1260 C   0  0  2  0  0  3  0  0  0  0  0  0
  184.1190  178.1280  140.8800 C   0  0  0  0  0  2  0  0  0  0  0  0
  186.9600  178.5410  141.2830 C   0  0  0  0  0  0  0  0  0  0  0  0
  185.8670  178.8350  143.5400 C   0  0  0  0  0  2  0  0  0  0  0  0
  184.4880  178.3960  143.3190 N   0  0  0  0  0  0  0  0  0  0  0  0
  184.5090  179.0610  142.0200 C   0  0  1  0  0  3  0  0  0  0  0  0
  184.4530  178.8220  139.6110 C   0  0  0  0  0  3  0  0  0  0  0  0
  185.6800  178.9500  139.2180 N   0  0  0  0  0  0  0  0  0  0  0  0
  186.8370  178.4360  139.9240 C   0  0  0  0  0  0  0  0  0  0  0  0
  192.1240  175.0200  136.2090 N   0  0  0  0  0  1  0  0  0  0  0  0
  191.0580  175.6360  136.9080 C   0  0  0  0  0  0  0  0  0  0  0  0
  189.9390  177.2230  137.9400 C   0  0  0  0  0  0  0  0  0  0  0  0
  191.1280  176.9130  137.3880 N   0  0  0  0  0  0  0  0  0  0  0  0
  188.9840  176.2710  137.9370 C   0  0  0  0  0  0  0  0  0  0  0  0
  187.8900  177.8200  139.0720 C   0  0  0  0  0  0  0  0  0  0  0  0
  189.4100  178.5670  138.7700 S   0  0  0  0  0  0  0  0  0  0  0  0
  189.5430  174.8740  137.1880 S   0  0  0  0  0  0  0  0  0  0  0  0
  187.8230  176.5530  138.5630 N   0  0  0  0  0  0  0  0  0  0  0  0
  190.3040  178.1400  143.0060 C   0  0  0  0  0  3  0  0  0  0  0  0
  189.2460  178.6990  142.2750 C   0  0  0  0  0  3  0  0  0  0  0  0
  189.0720  176.0560  143.1720 C   0  0  0  0  0  3  0  0  0  0  0  0
  188.0150  176.6150  142.4550 C   0  0  0  0  0  3  0  0  0  0  0  0
  188.1100  177.9310  141.9820 C   0  0  0  0  0  0  0  0  0  0  0  0
  190.2240  176.8020  143.4430 C   0  0  0  0  0  0  0  0  0  0  0  0
  191.6000  176.5950  145.4810 C   0  0  0  0  0  1  0  0  0  0  0  0
  191.2680  176.2050  144.1530 O   0  0  0  0  0  0  0  0  0  0  0  0
  183.5380  179.0530  144.2410 C   0  0  0  0  0  3  0  0  0  0  0  0
  182.1050  178.6260  143.9340 C   0  0  0  0  0  1  0  0  0  0  0  0
  183.8290  178.8370  145.7360 C   0  0  0  0  0  1  0  0  0  0  0  0
  1  4  1  1  0  0  0
  3 23  1  0  0  0  0
  3  1  1  0  0  0  0
  5  4  1  0  0  0  0
  5 27  1  0  0  0  0
  6  2  1  6  0  0  0
  6  1  1  0  0  0  0
  6  5  1  0  0  0  0
  7  2  1  0  0  0  0
  8  7  2  0  0  0  0
  8  9  1  0  0  0  0
  9  3  2  0  0  0  0
 10 11  1  0  0  0  0
 11 17  1  0  0  0  0
 11 13  2  0  0  0  0
 12 16  1  0  0  0  0
 13 12  1  0  0  0  0
 14 12  2  0  0  0  0
 14 18  1  0  0  0  0
 15  9  1  0  0  0  0
 16 15  1  0  0  0  0
 17 14  1  0  0  0  0
 18 15  2  0  0  0  0
 19 24  1  0  0  0  0
 20 19  2  0  0  0  0
 21 24  2  0  0  0  0
 22 21  1  0  0  0  0
 23 20  1  0  0  0  0
 23 22  2  0  0  0  0
 24 26  1  0  0  0  0
 26 25  1  0  0  0  0
 27 29  1  0  0  0  0
 28 27  1  0  0  0  0
M  END
>  <MODEL>
1

>  <REMARK>
 VINA RESULT:      -6.9      0.000      0.000
  Name = 
  4 active torsions:
  status: ('A' for Active; 'I' for Inactive)
    1  A    between atoms: C_7  and  N_19
    2  A    between atoms: C_13  and  C_21
    3  A    between atoms: C_16  and  C_26
    4  A    between atoms: C_28  and  O_29
                            x       y       z     vdW  Elec       q    Type
                         _______ _______ _______ _____ _____    ______ ____

>  <TORSDO>
F 4

$$$$
=
 OpenBabel11042411013D

 29 33  0  0  1  0  0  0  0  0999 V2000
  186.3130  179.3290  141.9390 C   0  0  2  0  0  3  0  0  0  0  0  0
  184.5870  177.9960  140.5390 C   0  0  0  0  0  2  0  0  0  0  0  0
  187.3540  178.3980  141.3030 C   0  0  0  0  0  0  0  0  0  0  0  0
  185.9680  178.8780  143.3580 C   0  0  0  0  0  2  0  0  0  0  0  0
  184.6220  178.4440  142.9800 N   0  0  0  0  0  0  0  0  0  0  0  0
  184.8390  179.0080  141.6510 C   0  0  1  0  0  3  0  0  0  0  0  0
  185.1100  178.5860  139.2820 C   0  0  0  0  0  3  0  0  0  0  0  0
  186.3820  178.6660  139.0550 N   0  0  0  0  0  0  0  0  0  0  0  0
  187.4170  178.1900  139.9510 C   0  0  0  0  0  0  0  0  0  0  0  0
  193.2080  175.3320  136.5290 N   0  0  0  0  0  1  0  0  0  0  0  0
  192.1250  175.9010  137.2420 C   0  0  0  0  0  0  0  0  0  0  0  0
  190.0390  176.2990  137.8120 C   0  0  0  0  0  0  0  0  0  0  0  0
  190.8200  175.6740  136.9100 N   0  0  0  0  0  0  0  0  0  0  0  0
  190.6530  177.0000  138.7870 C   0  0  0  0  0  0  0  0  0  0  0  0
  188.5620  177.4960  139.3020 C   0  0  0  0  0  0  0  0  0  0  0  0
  188.3870  176.4900  137.9170 S   0  0  0  0  0  0  0  0  0  0  0  0
  192.3230  176.8940  138.6300 S   0  0  0  0  0  0  0  0  0  0  0  0
  189.8720  177.6930  139.6410 N   0  0  0  0  0  0  0  0  0  0  0  0
  189.3680  175.9050  143.3130 C   0  0  0  0  0  3  0  0  0  0  0  0
  188.3500  176.4630  142.5270 C   0  0  0  0  0  3  0  0  0  0  0  0
  190.4590  178.0700  143.4140 C   0  0  0  0  0  3  0  0  0  0  0  0
  189.4530  178.6220  142.6230 C   0  0  0  0  0  3  0  0  0  0  0  0
  188.3810  177.8250  142.1980 C   0  0  0  0  0  0  0  0  0  0  0  0
  190.4220  176.7180  143.7760 C   0  0  0  0  0  0  0  0  0  0  0  0
  191.6230  176.6170  145.9290 C   0  0  0  0  0  1  0  0  0  0  0  0
  191.4410  176.2030  144.5800 O   0  0  0  0  0  0  0  0  0  0  0  0
  183.5710  179.1830  143.7090 C   0  0  0  0  0  3  0  0  0  0  0  0
  182.1930  178.8750  143.1290 C   0  0  0  0  0  1  0  0  0  0  0  0
  183.5510  178.9530  145.2300 C   0  0  0  0  0  1  0  0  0  0  0  0
  1  4  1  1  0  0  0
  3  1  1  0  0  0  0
  3 23  1  0  0  0  0
  5  4  1  0  0  0  0
  5 27  1  0  0  0  0
  6  2  1  6  0  0  0
  6  1  1  0  0  0  0
  6  5  1  0  0  0  0
  7  2  1  0  0  0  0
  8  7  2  0  0  0  0
  8  9  1  0  0  0  0
  9  3  2  0  0  0  0
 10 11  1  0  0  0  0
 11 17  1  0  0  0  0
 12 16  1  0  0  0  0
 12 14  2  0  0  0  0
 13 11  2  0  0  0  0
 13 12  1  0  0  0  0
 14 18  1  0  0  0  0
 15 18  2  0  0  0  0
 15  9  1  0  0  0  0
 16 15  1  0  0  0  0
 17 14  1  0  0  0  0
 19 24  1  0  0  0  0
 20 19  2  0  0  0  0
 21 24  2  0  0  0  0
 22 21  1  0  0  0  0
 23 20  1  0  0  0  0
 23 22  2  0  0  0  0
 24 26  1  0  0  0  0
 26 25  1  0  0  0  0
 27 29  1  0  0  0  0
 28 27  1  0  0  0  0
M  END
>  <MODEL>
2

>  <REMARK>
 VINA RESULT:      -6.9      1.101      1.502
  Name = 
  4 active torsions:
  status: ('A' for Active; 'I' for Inactive)
    1  A    between atoms: C_7  and  N_19
    2  A    between atoms: C_13  and  C_21
    3  A    between atoms: C_16  and  C_26
    4  A    between atoms: C_28  and  O_29
                            x       y       z     vdW  Elec       q    Type
                         _______ _______ _______ _____ _____    ______ ____

>  <TORSDO>
F 4

$$$$
=
 OpenBabel11042411013D

 29 33  0  0  1  0  0  0  0  0999 V2000
  189.0640  178.1860  139.2500 C   0  0  2  0  0  3  0  0  0  0  0  0
  190.4090  176.1230  138.4440 C   0  0  0  0  0  2  0  0  0  0  0  0
  189.4420  177.7170  140.6620 C   0  0  0  0  0  0  0  0  0  0  0  0
  187.6350  177.7730  138.9000 C   0  0  0  0  0  2  0  0  0  0  0  0
  188.0750  176.7810  137.9180 N   0  0  0  0  0  0  0  0  0  0  0  0
  189.4460  177.2510  138.0930 C   0  0  1  0  0  3  0  0  0  0  0  0
  191.6830  176.7510  138.8740 C   0  0  0  0  0  3  0  0  0  0  0  0
  191.7900  177.3330  140.0260 N   0  0  0  0  0  0  0  0  0  0  0  0
  190.7320  177.4240  141.0120 C   0  0  0  0  0  0  0  0  0  0  0  0
  192.2460  176.0720  148.0340 N   0  0  0  0  0  1  0  0  0  0  0  0
  191.9780  176.2760  146.6580 C   0  0  0  0  0  0  0  0  0  0  0  0
  191.5450  177.3730  144.8020 C   0  0  0  0  0  0  0  0  0  0  0  0
  191.6800  177.5030  146.1360 N   0  0  0  0  0  0  0  0  0  0  0  0
  191.6920  176.1390  144.2790 C   0  0  0  0  0  0  0  0  0  0  0  0
  191.1490  177.2120  142.4250 C   0  0  0  0  0  0  0  0  0  0  0  0
  191.0980  178.4540  143.6150 S   0  0  0  0  0  0  0  0  0  0  0  0
  192.0460  175.0230  145.4840 S   0  0  0  0  0  0  0  0  0  0  0  0
  191.4740  175.9950  142.9550 N   0  0  0  0  0  0  0  0  0  0  0  0
  187.3510  176.7530  143.6640 C   0  0  0  0  0  3  0  0  0  0  0  0
  188.3210  176.7090  142.6520 C   0  0  0  0  0  3  0  0  0  0  0  0
  186.5030  178.8310  142.7420 C   0  0  0  0  0  3  0  0  0  0  0  0
  187.4740  178.7940  141.7440 C   0  0  0  0  0  3  0  0  0  0  0  0
  188.3710  177.7180  141.6800 C   0  0  0  0  0  0  0  0  0  0  0  0
  186.4220  177.8130  143.6990 C   0  0  0  0  0  0  0  0  0  0  0  0
  185.5650  178.6810  145.8440 C   0  0  0  0  0  1  0  0  0  0  0  0
  185.4280  177.8780  144.6780 O   0  0  0  0  0  0  0  0  0  0  0  0
  187.5770  177.0810  136.5590 C   0  0  0  0  0  3  0  0  0  0  0  0
  187.9270  175.9500  135.5940 C   0  0  0  0  0  1  0  0  0  0  0  0
  186.0710  177.3830  136.4710 C   0  0  0  0  0  1  0  0  0  0  0  0
  1  4  1  1  0  0  0
  1  3  1  0  0  0  0
  2  7  1  0  0  0  0
  3  9  2  0  0  0  0
  3 23  1  0  0  0  0
  5  6  1  0  0  0  0
  5  4  1  0  0  0  0
  6  2  1  1  0  0  0
  6  1  1  0  0  0  0
  7  8  2  0  0  0  0
  8  9  1  0  0  0  0
  9 15  1  0  0  0  0
 11 10  1  0  0  0  0
 12 13  1  0  0  0  0
 13 11  2  0  0  0  0
 14 12  2  0  0  0  0
 14 17  1  0  0  0  0
 15 18  2  0  0  0  0
 15 16  1  0  0  0  0
 16 12  1  0  0  0  0
 17 11  1  0  0  0  0
 18 14  1  0  0  0  0
 19 24  1  0  0  0  0
 20 19  2  0  0  0  0
 21 24  2  0  0  0  0
 22 21  1  0  0  0  0
 23 22  2  0  0  0  0
 23 20  1  0  0  0  0
 24 26  1  0  0  0  0
 26 25  1  0  0  0  0
 27  5  1  0  0  0  0
 28 27  1  0  0  0  0
 29 27  1  0  0  0  0
M  END
>  <MODEL>
3

>  <REMARK>
 VINA RESULT:      -6.8      3.564      6.658
  Name = 
  4 active torsions:
  status: ('A' for Active; 'I' for Inactive)
    1  A    between atoms: C_7  and  N_19
    2  A    between atoms: C_13  and  C_21
    3  A    between atoms: C_16  and  C_26
    4  A    between atoms: C_28  and  O_29
                            x       y       z     vdW  Elec       q    Type
                         _______ _______ _______ _____ _____    ______ ____

>  <TORSDO>
F 4

$$$$
=
 OpenBabel11042411013D

 29 33  0  0  1  0  0  0  0  0999 V2000
  186.5180  177.0380  144.3230 C   0  0  2  0  0  3  0  0  0  0  0  0
  185.7110  179.0570  145.7330 C   0  0  0  0  0  2  0  0  0  0  0  0
  187.8790  177.2820  144.9910 C   0  0  0  0  0  0  0  0  0  0  0  0
  186.4880  177.6210  142.9110 C   0  0  0  0  0  2  0  0  0  0  0  0
  185.5580  178.6890  143.2840 N   0  0  0  0  0  0  0  0  0  0  0  0
  185.4220  178.0770  144.6030 C   0  0  1  0  0  3  0  0  0  0  0  0
  185.8240  178.2650  146.9830 C   0  0  0  0  0  3  0  0  0  0  0  0
  186.8640  177.5310  147.2210 N   0  0  0  0  0  0  0  0  0  0  0  0
  188.0130  177.4090  146.3470 C   0  0  0  0  0  0  0  0  0  0  0  0
  194.3330  176.8390  149.9740 N   0  0  0  0  0  1  0  0  0  0  0  0
  193.1320  176.9070  149.2270 C   0  0  0  0  0  0  0  0  0  0  0  0
  191.2160  177.7130  148.5110 C   0  0  0  0  0  0  0  0  0  0  0  0
  192.2010  177.8900  149.4110 N   0  0  0  0  0  0  0  0  0  0  0  0
  191.3170  176.6590  147.6760 C   0  0  0  0  0  0  0  0  0  0  0  0
  189.3390  177.3960  147.0240 C   0  0  0  0  0  0  0  0  0  0  0  0
  189.7660  178.4990  148.2740 S   0  0  0  0  0  0  0  0  0  0  0  0
  192.7310  175.8010  147.9750 S   0  0  0  0  0  0  0  0  0  0  0  0
  190.2900  176.4350  146.8300 N   0  0  0  0  0  0  0  0  0  0  0  0
  190.4600  176.0860  142.4970 C   0  0  0  0  0  3  0  0  0  0  0  0
  189.3730  176.0920  143.3830 C   0  0  0  0  0  3  0  0  0  0  0  0
  190.9220  178.3990  143.0680 C   0  0  0  0  0  3  0  0  0  0  0  0
  189.8340  178.4090  143.9390 C   0  0  0  0  0  3  0  0  0  0  0  0
  189.0710  177.2470  144.1190 C   0  0  0  0  0  0  0  0  0  0  0  0
  191.2520  177.2430  142.3520 C   0  0  0  0  0  0  0  0  0  0  0  0
  192.2230  177.4630  140.0940 C   0  0  0  0  0  1  0  0  0  0  0  0
  192.3570  177.2660  141.4970 O   0  0  0  0  0  0  0  0  0  0  0  0
  184.2910  178.6140  142.5270 C   0  0  0  0  0  3  0  0  0  0  0  0
  183.1760  179.3510  143.2680 C   0  0  0  0  0  1  0  0  0  0  0  0
  184.3690  179.1260  141.0780 C   0  0  0  0  0  1  0  0  0  0  0  0
  1  4  1  6  0  0  0
  1  6  1  0  0  0  0
  1  3  1  0  0  0  0
  2  7  1  0  0  0  0
  3  9  2  0  0  0  0
  4  5  1  0  0  0  0
  5  6  1  0  0  0  0
  6  2  1  1  0  0  0
  7  8  2  0  0  0  0
  9 15  1  0  0  0  0
  9  8  1  0  0  0  0
 11 13  2  0  0  0  0
 11 10  1  0  0  0  0
 12 13  1  0  0  0  0
 14 17  1  0  0  0  0
 14 12  2  0  0  0  0
 15 16  1  0  0  0  0
 16 12  1  0  0  0  0
 17 11  1  0  0  0  0
 18 15  2  0  0  0  0
 18 14  1  0  0  0  0
 19 20  1  0  0  0  0
 20 23  2  0  0  0  0
 21 22  2  0  0  0  0
 22 23  1  0  0  0  0
 23  3  1  0  0  0  0
 24 19  2  0  0  0  0
 24 21  1  0  0  0  0
 25 26  1  0  0  0  0
 26 24  1  0  0  0  0
 27 28  1  0  0  0  0
 27  5  1  0  0  0  0
 29 27  1  0  0  0  0
M  END
>  <MODEL>
4

>  <REMARK>
 VINA RESULT:      -6.7      4.599      6.981
  Name = 
  4 active torsions:
  status: ('A' for Active; 'I' for Inactive)
    1  A    between atoms: C_7  and  N_19
    2  A    between atoms: C_13  and  C_21
    3  A    between atoms: C_16  and  C_26
    4  A    between atoms: C_28  and  O_29
                            x       y       z     vdW  Elec       q    Type
                         _______ _______ _______ _____ _____    ______ ____

>  <TORSDO>
F 4

$$$$
=
 OpenBabel11042411013D

 29 33  0  0  1  0  0  0  0  0999 V2000
  188.7010  176.6520  144.9940 C   0  0  2  0  0  3  0  0  0  0  0  0
  191.1150  177.4760  145.4570 C   0  0  0  0  0  2  0  0  0  0  0  0
  189.0000  177.0090  143.5310 C   0  0  0  0  0  0  0  0  0  0  0  0
  187.8720  177.7450  145.6660 C   0  0  0  0  0  2  0  0  0  0  0  0
  188.9830  178.1790  146.5150 N   0  0  0  0  0  0  0  0  0  0  0  0
  189.7670  177.0490  146.0270 C   0  0  1  0  0  3  0  0  0  0  0  0
  191.6810  176.3040  144.7440 C   0  0  0  0  0  3  0  0  0  0  0  0
  191.2080  175.9200  143.6010 N   0  0  0  0  0  0  0  0  0  0  0  0
  190.1260  176.5700  142.8890 C   0  0  0  0  0  0  0  0  0  0  0  0
  191.0930  176.5690  135.6440 N   0  0  0  0  0  1  0  0  0  0  0  0
  190.8420  176.5560  137.0380 C   0  0  0  0  0  0  0  0  0  0  0  0
  191.1610  176.9680  139.1740 C   0  0  0  0  0  0  0  0  0  0  0  0
  191.7150  177.0750  137.9510 N   0  0  0  0  0  0  0  0  0  0  0  0
  189.9470  176.3860  139.2580 C   0  0  0  0  0  0  0  0  0  0  0  0
  190.3070  176.6950  141.4170 C   0  0  0  0  0  0  0  0  0  0  0  0
  191.7390  177.3190  140.6970 S   0  0  0  0  0  0  0  0  0  0  0  0
  189.3990  175.9380  137.7350 S   0  0  0  0  0  0  0  0  0  0  0  0
  189.4290  176.2040  140.4910 N   0  0  0  0  0  0  0  0  0  0  0  0
  187.3060  179.2450  140.9930 C   0  0  0  0  0  3  0  0  0  0  0  0
  188.3040  178.6080  141.7440 C   0  0  0  0  0  3  0  0  0  0  0  0
  185.6100  178.1280  142.3210 C   0  0  0  0  0  3  0  0  0  0  0  0
  186.6020  177.4860  143.0600 C   0  0  0  0  0  3  0  0  0  0  0  0
  187.9530  177.7440  142.7910 C   0  0  0  0  0  0  0  0  0  0  0  0
  185.9480  179.0180  141.2950 C   0  0  0  0  0  0  0  0  0  0  0  0
  184.3560  179.0840  139.4110 C   0  0  0  0  0  1  0  0  0  0  0  0
  184.9280  179.6530  140.5830 O   0  0  0  0  0  0  0  0  0  0  0  0
  188.6770  178.0340  147.9540 C   0  0  0  0  0  3  0  0  0  0  0  0
  189.7960  178.6280  148.8070 C   0  0  0  0  0  1  0  0  0  0  0  0
  187.3270  178.6280  148.3930 C   0  0  0  0  0  1  0  0  0  0  0  0
  1  4  1  1  0  0  0
  1  6  1  0  0  0  0
  3  1  1  0  0  0  0
  4  5  1  0  0  0  0
  5 27  1  0  0  0  0
  6  2  1  6  0  0  0
  6  5  1  0  0  0  0
  7  2  1  0  0  0  0
  8  7  2  0  0  0  0
  9  3  2  0  0  0  0
  9  8  1  0  0  0  0
 10 11  1  0  0  0  0
 11 17  1  0  0  0  0
 11 13  2  0  0  0  0
 12 14  2  0  0  0  0
 12 16  1  0  0  0  0
 13 12  1  0  0  0  0
 14 18  1  0  0  0  0
 15  9  1  0  0  0  0
 16 15  1  0  0  0  0
 17 14  1  0  0  0  0
 18 15  2  0  0  0  0
 19 24  2  0  0  0  0
 19 20  1  0  0  0  0
 20 23  2  0  0  0  0
 21 22  2  0  0  0  0
 23 22  1  0  0  0  0
 23  3  1  0  0  0  0
 24 21  1  0  0  0  0
 25 26  1  0  0  0  0
 26 24  1  0  0  0  0
 27 29  1  0  0  0  0
 27 28  1  0  0  0  0
M  END
>  <MODEL>
5

>  <REMARK>
 VINA RESULT:      -5.7      2.923      5.153
  Name = 
  4 active torsions:
  status: ('A' for Active; 'I' for Inactive)
    1  A    between atoms: C_7  and  N_19
    2  A    between atoms: C_13  and  C_21
    3  A    between atoms: C_16  and  C_26
    4  A    between atoms: C_28  and  O_29
                            x       y       z     vdW  Elec       q    Type
                         _______ _______ _______ _____ _____    ______ ____

>  <TORSDO>
F 4

$$$$
=
 OpenBabel11042411013D

 29 33  0  0  1  0  0  0  0  0999 V2000
  189.4220  178.3230  145.6230 C   0  0  2  0  0  3  0  0  0  0  0  0
  188.2870  176.7320  147.3250 C   0  0  0  0  0  2  0  0  0  0  0  0
  188.1660  178.0950  144.7700 C   0  0  0  0  0  0  0  0  0  0  0  0
  190.5830  177.4620  145.1290 C   0  0  0  0  0  2  0  0  0  0  0  0
  190.5450  176.5910  146.3050 N   0  0  0  0  0  0  0  0  0  0  0  0
  189.5470  177.4760  146.8990 C   0  0  1  0  0  3  0  0  0  0  0  0
  187.2580  177.7550  147.6360 C   0  0  0  0  0  3  0  0  0  0  0  0
  186.6650  178.4190  146.6960 N   0  0  0  0  0  0  0  0  0  0  0  0
  186.9030  178.2440  145.2770 C   0  0  0  0  0  0  0  0  0  0  0  0
  181.2220  178.8480  140.7190 N   0  0  0  0  0  1  0  0  0  0  0  0
  182.3520  178.6930  141.5580 C   0  0  0  0  0  0  0  0  0  0  0  0
  183.5340  178.6890  143.4120 C   0  0  0  0  0  0  0  0  0  0  0  0
  182.3360  179.0110  142.8870 N   0  0  0  0  0  0  0  0  0  0  0  0
  184.4620  178.1760  142.5790 C   0  0  0  0  0  0  0  0  0  0  0  0
  185.6930  178.2710  144.4120 C   0  0  0  0  0  0  0  0  0  0  0  0
  184.1820  178.9100  144.9320 S   0  0  0  0  0  0  0  0  0  0  0  0
  183.8490  178.0420  141.0210 S   0  0  0  0  0  0  0  0  0  0  0  0
  185.6870  177.9310  143.0890 N   0  0  0  0  0  0  0  0  0  0  0  0
  188.5760  178.6470  141.0500 C   0  0  0  0  0  3  0  0  0  0  0  0
  188.3060  178.8840  142.4050 C   0  0  0  0  0  3  0  0  0  0  0  0
  189.0000  176.3110  141.5560 C   0  0  0  0  0  3  0  0  0  0  0  0
  188.7430  176.5500  142.9060 C   0  0  0  0  0  3  0  0  0  0  0  0
  188.3690  177.8320  143.3310 C   0  0  0  0  0  0  0  0  0  0  0  0
  188.9080  177.3460  140.6180 C   0  0  0  0  0  0  0  0  0  0  0  0
  189.3880  178.0960  138.3170 C   0  0  0  0  0  1  0  0  0  0  0  0
  189.1600  177.0680  139.2730 O   0  0  0  0  0  0  0  0  0  0  0  0
  191.8100  176.6260  147.0680 C   0  0  0  0  0  3  0  0  0  0  0  0
  191.5960  177.2630  148.4390 C   0  0  0  0  0  1  0  0  0  0  0  0
  192.5030  175.2630  147.2380 C   0  0  0  0  0  1  0  0  0  0  0  0
  1  4  1  6  0  0  0
  1  6  1  0  0  0  0
  2  7  1  0  0  0  0
  3  9  2  0  0  0  0
  3  1  1  0  0  0  0
  4  5  1  0  0  0  0
  5  6  1  0  0  0  0
  5 27  1  0  0  0  0
  6  2  1  6  0  0  0
  8  7  2  0  0  0  0
  9  8  1  0  0  0  0
 10 11  1  0  0  0  0
 11 13  2  0  0  0  0
 12 16  1  0  0  0  0
 13 12  1  0  0  0  0
 14 18  1  0  0  0  0
 14 12  2  0  0  0  0
 15 16  1  0  0  0  0
 15  9  1  0  0  0  0
 17 11  1  0  0  0  0
 17 14  1  0  0  0  0
 18 15  2  0  0  0  0
 19 20  1  0  0  0  0
 20 23  2  0  0  0  0
 21 22  2  0  0  0  0
 22 23  1  0  0  0  0
 23  3  1  0  0  0  0
 24 19  2  0  0  0  0
 24 21  1  0  0  0  0
 25 26  1  0  0  0  0
 26 24  1  0  0  0  0
 27 29  1  0  0  0  0
 27 28  1  0  0  0  0
M  END
>  <MODEL>
6

>  <REMARK>
 VINA RESULT:      -5.7      3.671      7.086
  Name = 
  4 active torsions:
  status: ('A' for Active; 'I' for Inactive)
    1  A    between atoms: C_7  and  N_19
    2  A    between atoms: C_13  and  C_21
    3  A    between atoms: C_16  and  C_26
    4  A    between atoms: C_28  and  O_29
                            x       y       z     vdW  Elec       q    Type
                         _______ _______ _______ _____ _____    ______ ____

>  <TORSDO>
F 4

$$$$
=
 OpenBabel11042411013D

 29 33  0  0  1  0  0  0  0  0999 V2000
  187.3380  179.0500  141.2400 C   0  0  2  0  0  3  0  0  0  0  0  0
  185.8660  177.7700  139.5330 C   0  0  0  0  0  2  0  0  0  0  0  0
  188.4660  178.1260  140.7630 C   0  0  0  0  0  0  0  0  0  0  0  0
  186.7560  178.5660  142.5670 C   0  0  0  0  0  2  0  0  0  0  0  0
  185.4910  178.1540  141.9550 N   0  0  0  0  0  0  0  0  0  0  0  0
  185.9310  178.7500  140.6980 C   0  0  1  0  0  3  0  0  0  0  0  0
  186.5970  178.3880  138.3980 C   0  0  0  0  0  3  0  0  0  0  0  0
  187.8900  178.4620  138.3920 N   0  0  0  0  0  0  0  0  0  0  0  0
  188.7560  177.9530  139.4370 C   0  0  0  0  0  0  0  0  0  0  0  0
  194.6690  174.1040  137.5280 N   0  0  0  0  0  1  0  0  0  0  0  0
  193.4900  174.8170  137.8530 C   0  0  0  0  0  0  0  0  0  0  0  0
  192.2380  176.4320  138.6650 C   0  0  0  0  0  0  0  0  0  0  0  0
  193.5000  175.9680  138.5880 N   0  0  0  0  0  0  0  0  0  0  0  0
  191.2710  175.7080  138.0650 C   0  0  0  0  0  0  0  0  0  0  0  0
  189.9910  177.2660  138.9710 C   0  0  0  0  0  0  0  0  0  0  0  0
  191.5690  177.7200  139.4850 S   0  0  0  0  0  0  0  0  0  0  0  0
  191.9240  174.3520  137.3190 S   0  0  0  0  0  0  0  0  0  0  0  0
  189.9970  176.1290  138.2130 N   0  0  0  0  0  0  0  0  0  0  0  0
  190.1390  175.5570  142.9800 C   0  0  0  0  0  3  0  0  0  0  0  0
  189.2700  176.1420  142.0480 C   0  0  0  0  0  3  0  0  0  0  0  0
  191.1330  177.7310  143.3970 C   0  0  0  0  0  3  0  0  0  0  0  0
  190.2770  178.3100  142.4620 C   0  0  0  0  0  3  0  0  0  0  0  0
  189.3240  177.5210  141.8030 C   0  0  0  0  0  0  0  0  0  0  0  0
  191.0660  176.3610  143.6740 C   0  0  0  0  0  0  0  0  0  0  0  0
  191.8490  176.1570  146.0050 C   0  0  0  0  0  1  0  0  0  0  0  0
  191.9320  175.8170  144.6260 O   0  0  0  0  0  0  0  0  0  0  0  0
  184.3350  178.8840  142.5170 C   0  0  0  0  0  3  0  0  0  0  0  0
  183.0380  178.4390  141.8450 C   0  0  0  0  0  1  0  0  0  0  0  0
  184.1830  178.7830  144.0450 C   0  0  0  0  0  1  0  0  0  0  0  0
  1  4  1  1  0  0  0
  3  1  1  0  0  0  0
  3 23  1  0  0  0  0
  5 27  1  0  0  0  0
  5  4  1  0  0  0  0
  6  2  1  6  0  0  0
  6  1  1  0  0  0  0
  6  5  1  0  0  0  0
  7  2  1  0  0  0  0
  8  7  2  0  0  0  0
  8  9  1  0  0  0  0
  9  3  2  0  0  0  0
 10 11  1  0  0  0  0
 11 13  2  0  0  0  0
 12 16  1  0  0  0  0
 13 12  1  0  0  0  0
 14 18  1  0  0  0  0
 14 12  2  0  0  0  0
 15  9  1  0  0  0  0
 15 16  1  0  0  0  0
 17 11  1  0  0  0  0
 17 14  1  0  0  0  0
 18 15  2  0  0  0  0
 19 24  1  0  0  0  0
 20 19  2  0  0  0  0
 21 24  2  0  0  0  0
 22 21  1  0  0  0  0
 23 20  1  0  0  0  0
 23 22  2  0  0  0  0
 24 26  1  0  0  0  0
 26 25  1  0  0  0  0
 27 29  1  0  0  0  0
 28 27  1  0  0  0  0
M  END
>  <MODEL>
7

>  <REMARK>
 VINA RESULT:      -5.6      1.596      2.178
  Name = 
  4 active torsions:
  status: ('A' for Active; 'I' for Inactive)
    1  A    between atoms: C_7  and  N_19
    2  A    between atoms: C_13  and  C_21
    3  A    between atoms: C_16  and  C_26
    4  A    between atoms: C_28  and  O_29
                            x       y       z     vdW  Elec       q    Type
                         _______ _______ _______ _____ _____    ______ ____

>  <TORSDO>
F 4

$$$$
=
 OpenBabel11042411013D

 29 33  0  0  1  0  0  0  0  0999 V2000
  188.9430  178.5820  141.7070 C   0  0  2  0  0  3  0  0  0  0  0  0
  187.4960  177.0530  143.2190 C   0  0  0  0  0  2  0  0  0  0  0  0
  187.8150  178.4130  140.6790 C   0  0  0  0  0  0  0  0  0  0  0  0
  190.1200  177.6630  141.3840 C   0  0  0  0  0  2  0  0  0  0  0  0
  189.8680  176.7980  142.5380 N   0  0  0  0  0  0  0  0  0  0  0  0
  188.8390  177.7330  142.9830 C   0  0  1  0  0  3  0  0  0  0  0  0
  186.4830  178.1260  143.3810 C   0  0  0  0  0  3  0  0  0  0  0  0
  186.0670  178.8160  142.3670 N   0  0  0  0  0  0  0  0  0  0  0  0
  186.5010  178.6260  140.9980 C   0  0  0  0  0  0  0  0  0  0  0  0
  180.8380  178.9820  136.3910 N   0  0  0  0  0  1  0  0  0  0  0  0
  181.9290  178.9770  137.2940 C   0  0  0  0  0  0  0  0  0  0  0  0
  183.7640  178.2680  138.2760 C   0  0  0  0  0  0  0  0  0  0  0  0
  182.8140  177.9400  137.3780 N   0  0  0  0  0  0  0  0  0  0  0  0
  183.6510  179.4610  138.8940 C   0  0  0  0  0  0  0  0  0  0  0  0
  185.4320  178.7100  139.9660 C   0  0  0  0  0  0  0  0  0  0  0  0
  185.0530  177.4150  138.8980 S   0  0  0  0  0  0  0  0  0  0  0  0
  182.2950  180.2870  138.3440 S   0  0  0  0  0  0  0  0  0  0  0  0
  184.5560  179.7530  139.8520 N   0  0  0  0  0  0  0  0  0  0  0  0
  189.0560  178.9150  137.1400 C   0  0  0  0  0  3  0  0  0  0  0  0
  188.6040  179.1860  138.4400 C   0  0  0  0  0  3  0  0  0  0  0  0
  188.7500  176.5410  137.5440 C   0  0  0  0  0  3  0  0  0  0  0  0
  188.3120  176.8110  138.8400 C   0  0  0  0  0  3  0  0  0  0  0  0
  188.2130  178.1370  139.2830 C   0  0  0  0  0  0  0  0  0  0  0  0
  189.1120  177.5830  136.6820 C   0  0  0  0  0  0  0  0  0  0  0  0
  190.2770  176.0990  135.0920 C   0  0  0  0  0  1  0  0  0  0  0  0
  189.5340  177.2760  135.3860 O   0  0  0  0  0  0  0  0  0  0  0  0
  191.0090  176.7730  143.4770 C   0  0  0  0  0  3  0  0  0  0  0  0
  190.5940  177.3100  144.8440 C   0  0  0  0  0  1  0  0  0  0  0  0
  191.6790  175.3980  143.6470 C   0  0  0  0  0  1  0  0  0  0  0  0
  1  4  1  6  0  0  0
  1  6  1  0  0  0  0
  2  7  1  0  0  0  0
  3  9  2  0  0  0  0
  3  1  1  0  0  0  0
  4  5  1  0  0  0  0
  5  6  1  0  0  0  0
  5 27  1  0  0  0  0
  6  2  1  6  0  0  0
  8  7  2  0  0  0  0
  9  8  1  0  0  0  0
 10 11  1  0  0  0  0
 11 13  2  0  0  0  0
 11 17  1  0  0  0  0
 12 14  2  0  0  0  0
 12 16  1  0  0  0  0
 13 12  1  0  0  0  0
 14 18  1  0  0  0  0
 15  9  1  0  0  0  0
 16 15  1  0  0  0  0
 17 14  1  0  0  0  0
 18 15  2  0  0  0  0
 19 20  1  0  0  0  0
 20 23  2  0  0  0  0
 21 22  2  0  0  0  0
 22 23  1  0  0  0  0
 23  3  1  0  0  0  0
 24 19  2  0  0  0  0
 24 21  1  0  0  0  0
 25 26  1  0  0  0  0
 26 24  1  0  0  0  0
 27 29  1  0  0  0  0
 27 28  1  0  0  0  0
M  END
>  <MODEL>
8

>  <REMARK>
 VINA RESULT:      -5.2      3.255      6.470
  Name = 
  4 active torsions:
  status: ('A' for Active; 'I' for Inactive)
    1  A    between atoms: C_7  and  N_19
    2  A    between atoms: C_13  and  C_21
    3  A    between atoms: C_16  and  C_26
    4  A    between atoms: C_28  and  O_29
                            x       y       z     vdW  Elec       q    Type
                         _______ _______ _______ _____ _____    ______ ____

>  <TORSDO>
F 4

$$$$
=
 OpenBabel11042411013D

 29 33  0  0  1  0  0  0  0  0999 V2000
  188.1980  178.8230  140.8880 C   0  0  2  0  0  3  0  0  0  0  0  0
  186.9960  177.6220  142.8450 C   0  0  0  0  0  2  0  0  0  0  0  0
  186.8940  178.5880  140.1140 C   0  0  0  0  0  0  0  0  0  0  0  0
  189.2580  177.7910  140.5030 C   0  0  0  0  0  2  0  0  0  0  0  0
  189.1890  177.1160  141.7990 N   0  0  0  0  0  0  0  0  0  0  0  0
  188.2990  178.1700  142.2750 C   0  0  1  0  0  3  0  0  0  0  0  0
  186.0750  178.7720  143.0210 C   0  0  0  0  0  3  0  0  0  0  0  0
  185.5060  179.3390  142.0050 N   0  0  0  0  0  0  0  0  0  0  0  0
  185.6710  178.9300  140.6250 C   0  0  0  0  0  0  0  0  0  0  0  0
  179.3300  179.3220  137.0120 N   0  0  0  0  0  1  0  0  0  0  0  0
  180.5750  179.3030  137.6850 C   0  0  0  0  0  0  0  0  0  0  0  0
  182.3060  178.4700  138.7560 C   0  0  0  0  0  0  0  0  0  0  0  0
  181.0900  178.1750  138.2580 N   0  0  0  0  0  0  0  0  0  0  0  0
  182.7400  179.7410  138.6260 C   0  0  0  0  0  0  0  0  0  0  0  0
  184.4340  178.9400  139.7980 C   0  0  0  0  0  0  0  0  0  0  0  0
  183.3950  177.5770  139.6460 S   0  0  0  0  0  0  0  0  0  0  0  0
  181.6020  180.6740  137.8150 S   0  0  0  0  0  0  0  0  0  0  0  0
  183.9210  180.0550  139.1970 N   0  0  0  0  0  0  0  0  0  0  0  0
  187.5730  178.4800  136.3940 C   0  0  0  0  0  3  0  0  0  0  0  0
  187.3830  178.9670  137.6950 C   0  0  0  0  0  3  0  0  0  0  0  0
  187.0540  176.2400  137.1700 C   0  0  0  0  0  3  0  0  0  0  0  0
  186.8770  176.7220  138.4660 C   0  0  0  0  0  3  0  0  0  0  0  0
  187.0150  178.0920  138.7270 C   0  0  0  0  0  0  0  0  0  0  0  0
  187.3900  177.1080  136.1250 C   0  0  0  0  0  0  0  0  0  0  0  0
  187.7120  175.1990  134.5950 C   0  0  0  0  0  1  0  0  0  0  0  0
  187.5480  176.5910  134.8370 O   0  0  0  0  0  0  0  0  0  0  0  0
  190.4820  177.1460  142.5140 C   0  0  0  0  0  3  0  0  0  0  0  0
  190.7170  175.8360  143.2620 C   0  0  0  0  0  1  0  0  0  0  0  0
  191.7040  177.4600  141.6330 C   0  0  0  0  0  1  0  0  0  0  0  0
  1  4  1  6  0  0  0
  1  6  1  0  0  0  0
  2  7  1  0  0  0  0
  3  9  2  0  0  0  0
  3  1  1  0  0  0  0
  4  5  1  0  0  0  0
  5  6  1  0  0  0  0
  5 27  1  0  0  0  0
  6  2  1  6  0  0  0
  8  7  2  0  0  0  0
  9  8  1  0  0  0  0
 10 11  1  0  0  0  0
 11 17  1  0  0  0  0
 11 13  2  0  0  0  0
 12 16  1  0  0  0  0
 13 12  1  0  0  0  0
 14 12  2  0  0  0  0
 14 18  1  0  0  0  0
 15  9  1  0  0  0  0
 16 15  1  0  0  0  0
 17 14  1  0  0  0  0
 18 15  2  0  0  0  0
 19 20  1  0  0  0  0
 20 23  2  0  0  0  0
 21 22  2  0  0  0  0
 22 23  1  0  0  0  0
 23  3  1  0  0  0  0
 24 19  2  0  0  0  0
 24 21  1  0  0  0  0
 25 26  1  0  0  0  0
 26 24  1  0  0  0  0
 27 28  1  0  0  0  0
 29 27  1  0  0  0  0
M  END
>  <MODEL>
9

>  <REMARK>
 VINA RESULT:      -5.1      3.615      7.113
  Name = 
  4 active torsions:
  status: ('A' for Active; 'I' for Inactive)
    1  A    between atoms: C_7  and  N_19
    2  A    between atoms: C_13  and  C_21
    3  A    between atoms: C_16  and  C_26
    4  A    between atoms: C_28  and  O_29
                            x       y       z     vdW  Elec       q    Type
                         _______ _______ _______ _____ _____    ______ ____

>  <TORSDO>
F 4

$$$$
