=
 OpenBabel11032421213D

 43 48  0  0  1  0  0  0  0  0999 V2000
  186.4470  178.0460  142.0000 C   0  0  1  0  0  3  0  0  0  0  0  0
  186.5730  177.2240  143.2970 C   0  0  0  0  0  2  0  0  0  0  0  0
  191.0830  176.6940  147.3880 C   0  0  0  0  0  0  0  0  0  0  0  0
  187.7030  177.7350  144.1830 C   0  0  1  0  0  3  0  0  0  0  0  0
  190.6410  176.4020  146.0920 C   0  0  0  0  0  3  0  0  0  0  0  0
  187.0520  178.1560  145.8450 S   0  0  0  0  0  0  0  0  0  0  0  0
  189.0520  177.9630  147.8080 C   0  0  0  0  0  3  0  0  0  0  0  0
  188.6170  177.6520  146.5210 C   0  0  0  0  0  0  0  0  0  0  0  0
  192.3930  176.1720  147.8540 C   0  0  0  0  0  1  0  0  0  0  0  0
  189.7660  176.8210  143.3000 O   0  0  0  0  0  1  0  0  0  0  0  0
  190.3010  177.4910  148.2430 C   0  0  0  0  0  3  0  0  0  0  0  0
  189.4090  176.9070  145.6590 C   0  0  0  0  0  0  0  0  0  0  0  0
  188.8120  176.6790  144.3220 C   0  0  1  0  0  3  0  0  0  0  0  0
  185.2250  178.9940  141.9820 C   0  0  2  0  0  3  0  0  0  0  0  0
  184.9340  179.5730  143.3750 C   0  0  0  0  0  2  0  0  0  0  0  0
  183.5250  179.1250  145.2810 O   0  0  0  0  0  1  0  0  0  0  0  0
  183.5290  179.2650  143.8820 C   0  0  0  0  0  2  0  0  0  0  0  0
  183.9720  178.3380  141.3850 C   0  0  0  0  0  2  0  0  0  0  0  0
  184.3380  179.9060  139.4250 O   0  0  0  0  0  1  0  0  0  0  0  0
  182.7170  178.0500  139.2240 C   0  0  1  0  0  3  0  0  0  0  0  0
  183.5000  179.0120  140.1060 C   0  0  1  0  0  0  0  0  0  0  0  0
  182.0300  179.2400  139.8920 C   0  0  0  0  0  2  0  0  0  0  0  0
  183.0700  178.2630  137.8110 N   0  0  0  0  0  0  0  0  0  0  0  0
  184.0390  177.2190  137.4610 C   0  0  0  0  0  1  0  0  0  0  0  0
  181.7540  176.7440  136.6190 O   0  0  0  0  0  1  0  0  0  0  0  0
  181.9160  178.1100  136.9140 C   0  0  0  0  0  2  0  0  0  0  0  0
  187.7610  178.7440  141.6440 C   0  0  0  0  0  2  0  0  0  0  0  0
  189.3470  177.7060  140.0130 C   0  0  0  0  0  3  0  0  0  0  0  0
  188.1190  178.1590  138.1350 C   0  0  0  0  0  0  0  0  0  0  0  0
  189.4390  177.5980  138.5280 C   0  0  2  0  0  3  0  0  0  0  0  0
  189.6510  176.2090  137.9810 C   0  0  0  0  0  0  0  0  0  0  0  0
  187.4610  178.6400  139.1300 N   0  0  0  0  0  0  0  0  0  0  0  0
  188.2610  178.4210  140.2800 C   0  0  0  0  0  0  0  0  0  0  0  0
  187.4810  177.7590  136.9300 N   0  0  0  0  0  0  0  0  0  0  0  0
  189.0170  175.8160  136.8690 C   0  0  0  0  0  3  0  0  0  0  0  0
  187.9790  176.6170  136.2740 N   0  0  0  0  0  0  0  0  0  0  0  0
  190.8060  175.3880  138.4670 C   0  0  0  0  0  2  0  0  0  0  0  0
  192.9950  176.6130  138.2550 N   0  0  0  0  0  0  0  0  0  0  0  0
  192.0530  175.7930  137.7490 C   0  0  0  0  0  0  0  0  0  0  0  0
  193.0220  177.2010  139.5910 C   0  0  0  0  0  1  0  0  0  0  0  0
  192.3330  175.5320  136.4200 C   0  0  0  0  0  3  0  0  0  0  0  0
  193.9030  176.8520  137.3290 N   0  0  0  0  0  0  0  0  0  0  0  0
  193.5250  176.2110  136.1990 C   0  0  0  0  0  3  0  0  0  0  0  0
  1 27  1  1  0  0  0
  1  2  1  0  0  0  0
  3  9  1  0  0  0  0
  3 11  1  0  0  0  0
  4  2  1  6  0  0  0
  4 13  1  0  0  0  0
  4  6  1  0  0  0  0
  5  3  2  0  0  0  0
  6  8  1  0  0  0  0
  7 11  2  0  0  0  0
  8  7  1  0  0  0  0
 12  5  1  0  0  0  0
 12  8  2  0  0  0  0
 13 10  1  6  0  0  0
 13 12  1  0  0  0  0
 14 18  1  1  0  0  0
 14  1  1  0  0  0  0
 14 15  1  0  0  0  0
 15 17  1  0  0  0  0
 17 16  1  0  0  0  0
 20 23  1  6  0  0  0
 20 22  1  0  0  0  0
 20 21  1  0  0  0  0
 21 19  1  6  0  0  0
 21 18  1  0  0  0  0
 22 21  1  0  0  0  0
 24 23  1  0  0  0  0
 25 26  1  0  0  0  0
 26 23  1  0  0  0  0
 28 33  2  0  0  0  0
 29 30  1  0  0  0  0
 29 32  2  0  0  0  0
 30 28  1  1  0  0  0
 31 37  1  0  0  0  0
 31 30  1  0  0  0  0
 32 33  1  0  0  0  0
 33 27  1  0  0  0  0
 34 29  1  0  0  0  0
 35 31  2  0  0  0  0
 36 35  1  0  0  0  0
 36 34  2  0  0  0  0
 38 40  1  0  0  0  0
 39 38  1  0  0  0  0
 39 37  1  0  0  0  0
 41 39  2  0  0  0  0
 42 38  1  0  0  0  0
 43 41  1  0  0  0  0
 43 42  2  0  0  0  0
M  END
>  <MODEL>
1

>  <REMARK>
 VINA RESULT:      -8.3      0.000      0.000
  Name = 
  13 active torsions:
  status: ('A' for Active; 'I' for Inactive)
    1  A    between atoms: C_3  and  C_25
    2  A    between atoms: C_3  and  C_27
    3  A    between atoms: C_4  and  C_13
    4  A    between atoms: C_4  and  C_21
    5  A    between atoms: C_8  and  C_22
    6  A    between atoms: C_9  and  C_22
    7  A    between atoms: C_14  and  N_37
    8  A    between atoms: C_19  and  C_26
    9  A    between atoms: C_19  and  C_27
   10  A    between atoms: C_21  and  C_27
   11  A    between atoms: C_21  and  C_35
   12  A    between atoms: C_23  and  C_35
   13  A    between atoms: C_36  and  N_37
                            x       y       z     vdW  Elec       q    Type
                         _______ _______ _______ _____ _____    ______ ____

>  <TORSDO>
F 13

$$$$
=
 OpenBabel11032421213D

 43 48  0  0  1  0  0  0  0  0999 V2000
  190.0540  176.6130  138.7680 C   0  0  1  0  0  3  0  0  0  0  0  0
  189.9950  178.1180  138.4360 C   0  0  0  0  0  2  0  0  0  0  0  0
  184.4190  177.0680  136.1630 C   0  0  0  0  0  0  0  0  0  0  0  0
  188.7070  178.4850  137.7080 C   0  0  1  0  0  3  0  0  0  0  0  0
  185.2040  177.2100  137.3140 C   0  0  0  0  0  3  0  0  0  0  0  0
  188.8570  178.0710  135.9270 S   0  0  0  0  0  0  0  0  0  0  0  0
  186.3440  177.5860  134.7710 C   0  0  0  0  0  3  0  0  0  0  0  0
  187.1180  177.7090  135.9240 C   0  0  0  0  0  0  0  0  0  0  0  0
  182.9830  176.7130  136.2910 C   0  0  0  0  0  1  0  0  0  0  0  0
  186.9300  178.4710  139.3550 O   0  0  0  0  0  1  0  0  0  0  0  0
  184.9800  177.2750  134.8900 C   0  0  0  0  0  3  0  0  0  0  0  0
  186.5540  177.5530  137.1830 C   0  0  0  0  0  0  0  0  0  0  0  0
  187.5050  177.7340  138.3050 C   0  0  1  0  0  3  0  0  0  0  0  0
  190.5370  175.7370  137.5900 C   0  0  2  0  0  3  0  0  0  0  0  0
  189.4630  174.7270  137.1550 C   0  0  0  0  0  2  0  0  0  0  0  0
  190.0660  174.6890  134.8200 O   0  0  0  0  0  1  0  0  0  0  0  0
  189.8730  173.8810  135.9540 C   0  0  0  0  0  2  0  0  0  0  0  0
  191.8700  175.0330  137.8790 C   0  0  0  0  0  2  0  0  0  0  0  0
  193.6180  176.8530  138.1270 O   0  0  0  0  0  1  0  0  0  0  0  0
  194.0890  174.8860  136.7030 C   0  0  1  0  0  3  0  0  0  0  0  0
  193.0750  175.8060  137.3680 C   0  0  1  0  0  0  0  0  0  0  0  0
  193.3080  175.9150  135.8870 C   0  0  0  0  0  2  0  0  0  0  0  0
  195.4550  175.3010  137.0630 N   0  0  0  0  0  0  0  0  0  0  0  0
  195.9260  174.3510  138.0780 C   0  0  0  0  0  1  0  0  0  0  0  0
  197.2970  176.2890  136.0180 O   0  0  0  0  0  1  0  0  0  0  0  0
  196.3820  175.2240  135.9260 C   0  0  0  0  0  2  0  0  0  0  0  0
  190.8150  176.3520  140.0700 C   0  0  0  0  0  2  0  0  0  0  0  0
  189.0530  177.0860  141.6850 C   0  0  0  0  0  3  0  0  0  0  0  0
  190.4460  178.2640  143.0680 C   0  0  0  0  0  0  0  0  0  0  0  0
  188.9990  177.9790  142.8790 C   0  0  2  0  0  3  0  0  0  0  0  0
  188.3700  177.3870  144.1160 C   0  0  0  0  0  0  0  0  0  0  0  0
  191.1780  177.7940  142.1220 N   0  0  0  0  0  0  0  0  0  0  0  0
  190.3000  177.1280  141.2310 C   0  0  0  0  0  0  0  0  0  0  0  0
  190.9730  178.5660  144.3530 N   0  0  0  0  0  0  0  0  0  0  0  0
  188.8910  177.6360  145.3240 C   0  0  0  0  0  3  0  0  0  0  0  0
  190.1600  178.3010  145.4720 N   0  0  0  0  0  0  0  0  0  0  0  0
  186.9900  176.8100  144.0430 C   0  0  0  0  0  2  0  0  0  0  0  0
  185.3390  178.5510  144.8070 N   0  0  0  0  0  0  0  0  0  0  0  0
  185.9950  177.9040  143.8230 C   0  0  0  0  0  0  0  0  0  0  0  0
  185.5100  178.3670  146.2450 C   0  0  0  0  0  1  0  0  0  0  0  0
  185.4810  178.2840  142.5980 C   0  0  0  0  0  3  0  0  0  0  0  0
  184.4600  179.3750  144.2720 N   0  0  0  0  0  0  0  0  0  0  0  0
  184.5180  179.2320  142.9280 C   0  0  0  0  0  3  0  0  0  0  0  0
  1  2  1  6  0  0  0
  1 27  1  0  0  0  0
  3  9  1  0  0  0  0
  3  5  1  0  0  0  0
  4 13  1  0  0  0  0
  4  2  1  1  0  0  0
  6  4  1  0  0  0  0
  7 11  1  0  0  0  0
  7  8  2  0  0  0  0
  8  6  1  0  0  0  0
  8 12  1  0  0  0  0
 11  3  2  0  0  0  0
 12  5  2  0  0  0  0
 12 13  1  0  0  0  0
 13 10  1  1  0  0  0
 14 15  1  1  0  0  0
 14 18  1  0  0  0  0
 14  1  1  0  0  0  0
 16 17  1  0  0  0  0
 17 15  1  0  0  0  0
 20 23  1  1  0  0  0
 20 21  1  0  0  0  0
 21 18  1  0  0  0  0
 21 19  1  1  0  0  0
 22 20  1  0  0  0  0
 22 21  1  0  0  0  0
 23 24  1  0  0  0  0
 26 25  1  0  0  0  0
 26 23  1  0  0  0  0
 27 33  1  0  0  0  0
 29 34  1  0  0  0  0
 30 28  1  6  0  0  0
 30 29  1  0  0  0  0
 30 31  1  0  0  0  0
 31 35  2  0  0  0  0
 32 29  2  0  0  0  0
 33 28  2  0  0  0  0
 33 32  1  0  0  0  0
 34 36  2  0  0  0  0
 35 36  1  0  0  0  0
 37 31  1  0  0  0  0
 38 40  1  0  0  0  0
 39 37  1  0  0  0  0
 39 38  1  0  0  0  0
 41 43  1  0  0  0  0
 41 39  2  0  0  0  0
 42 38  1  0  0  0  0
 43 42  2  0  0  0  0
M  END
>  <MODEL>
2

>  <REMARK>
 VINA RESULT:      -8.0      3.828      9.933
  Name = 
  13 active torsions:
  status: ('A' for Active; 'I' for Inactive)
    1  A    between atoms: C_3  and  C_25
    2  A    between atoms: C_3  and  C_27
    3  A    between atoms: C_4  and  C_13
    4  A    between atoms: C_4  and  C_21
    5  A    between atoms: C_8  and  C_22
    6  A    between atoms: C_9  and  C_22
    7  A    between atoms: C_14  and  N_37
    8  A    between atoms: C_19  and  C_26
    9  A    between atoms: C_19  and  C_27
   10  A    between atoms: C_21  and  C_27
   11  A    between atoms: C_21  and  C_35
   12  A    between atoms: C_23  and  C_35
   13  A    between atoms: C_36  and  N_37
                            x       y       z     vdW  Elec       q    Type
                         _______ _______ _______ _____ _____    ______ ____

>  <TORSDO>
F 13

$$$$
=
 OpenBabel11032421213D

 43 48  0  0  1  0  0  0  0  0999 V2000
  186.7170  178.8280  142.5060 C   0  0  1  0  0  3  0  0  0  0  0  0
  187.7190  179.0770  141.3620 C   0  0  0  0  0  2  0  0  0  0  0  0
  190.7630  175.4220  137.5240 C   0  0  0  0  0  0  0  0  0  0  0  0
  187.9210  177.8320  140.5060 C   0  0  1  0  0  3  0  0  0  0  0  0
  190.6970  175.9690  138.8110 C   0  0  0  0  0  3  0  0  0  0  0  0
  187.3430  178.1520  138.7950 S   0  0  0  0  0  0  0  0  0  0  0  0
  188.6670  176.5070  136.9420 C   0  0  0  0  0  3  0  0  0  0  0  0
  188.6210  177.0580  138.2220 C   0  0  0  0  0  0  0  0  0  0  0  0
  191.9120  174.5590  137.1490 C   0  0  0  0  0  1  0  0  0  0  0  0
  189.6970  176.5440  141.5330 O   0  0  0  0  0  1  0  0  0  0  0  0
  189.7400  175.6720  136.5920 C   0  0  0  0  0  3  0  0  0  0  0  0
  189.6050  176.7730  139.1580 C   0  0  0  0  0  0  0  0  0  0  0  0
  189.4020  177.4210  140.4750 C   0  0  1  0  0  3  0  0  0  0  0  0
  185.2970  179.3670  142.2150 C   0  0  2  0  0  3  0  0  0  0  0  0
  184.6120  179.8830  143.4900 C   0  0  0  0  0  2  0  0  0  0  0  0
  183.3350  179.0440  145.3560 O   0  0  0  0  0  1  0  0  0  0  0  0
  183.4530  179.0090  143.9550 C   0  0  0  0  0  2  0  0  0  0  0  0
  184.4110  178.3470  141.4880 C   0  0  0  0  0  2  0  0  0  0  0  0
  184.3470  179.8900  139.4760 O   0  0  0  0  0  1  0  0  0  0  0  0
  182.9270  177.8650  139.5140 C   0  0  1  0  0  3  0  0  0  0  0  0
  183.7060  178.9300  140.2720 C   0  0  1  0  0  0  0  0  0  0  0  0
  182.2050  178.9930  140.2490 C   0  0  0  0  0  2  0  0  0  0  0  0
  183.0710  178.0760  138.0640 N   0  0  0  0  0  0  0  0  0  0  0  0
  184.0260  177.0690  137.5890 C   0  0  0  0  0  1  0  0  0  0  0  0
  181.5130  179.0230  136.6020 O   0  0  0  0  0  1  0  0  0  0  0  0
  181.8110  177.8620  137.3390 C   0  0  0  0  0  2  0  0  0  0  0  0
  186.7290  177.3660  142.9590 C   0  0  0  0  0  2  0  0  0  0  0  0
  188.3460  176.7380  144.7590 C   0  0  0  0  0  3  0  0  0  0  0  0
  187.0820  177.4870  146.5140 C   0  0  0  0  0  0  0  0  0  0  0  0
  188.3490  176.7530  146.2510 C   0  0  2  0  0  3  0  0  0  0  0  0
  189.5360  177.4190  146.9000 C   0  0  0  0  0  0  0  0  0  0  0  0
  186.4000  177.7120  145.4480 N   0  0  0  0  0  0  0  0  0  0  0  0
  187.1560  177.1800  144.3730 C   0  0  0  0  0  0  0  0  0  0  0  0
  186.9120  178.2570  147.6960 N   0  0  0  0  0  0  0  0  0  0  0  0
  189.3720  178.1810  147.9890 C   0  0  0  0  0  3  0  0  0  0  0  0
  188.0600  178.5490  148.4580 N   0  0  0  0  0  0  0  0  0  0  0  0
  190.9220  176.9720  146.5490 C   0  0  0  0  0  2  0  0  0  0  0  0
  191.7360  176.6180  144.1930 N   0  0  0  0  0  0  0  0  0  0  0  0
  191.2640  177.4240  145.1660 C   0  0  0  0  0  0  0  0  0  0  0  0
  191.9390  175.1740  144.2700 C   0  0  0  0  0  1  0  0  0  0  0  0
  191.3130  178.7380  144.7410 C   0  0  0  0  0  3  0  0  0  0  0  0
  192.0370  177.3470  143.1360 N   0  0  0  0  0  0  0  0  0  0  0  0
  191.7950  178.6430  143.4400 C   0  0  0  0  0  3  0  0  0  0  0  0
  1  2  1  6  0  0  0
  1 27  1  0  0  0  0
  3  5  1  0  0  0  0
  4  2  1  1  0  0  0
  5 12  2  0  0  0  0
  6  4  1  0  0  0  0
  7  8  2  0  0  0  0
  8  6  1  0  0  0  0
  8 12  1  0  0  0  0
  9  3  1  0  0  0  0
 11  7  1  0  0  0  0
 11  3  2  0  0  0  0
 12 13  1  0  0  0  0
 13  4  1  0  0  0  0
 13 10  1  1  0  0  0
 14 18  1  1  0  0  0
 14  1  1  0  0  0  0
 14 15  1  0  0  0  0
 15 17  1  0  0  0  0
 17 16  1  0  0  0  0
 20 23  1  6  0  0  0
 20 22  1  0  0  0  0
 20 21  1  0  0  0  0
 21 19  1  6  0  0  0
 21 18  1  0  0  0  0
 22 21  1  0  0  0  0
 24 23  1  0  0  0  0
 25 26  1  0  0  0  0
 26 23  1  0  0  0  0
 27 33  1  0  0  0  0
 29 34  1  0  0  0  0
 30 28  1  6  0  0  0
 30 29  1  0  0  0  0
 30 31  1  0  0  0  0
 31 35  2  0  0  0  0
 32 29  2  0  0  0  0
 33 28  2  0  0  0  0
 33 32  1  0  0  0  0
 34 36  2  0  0  0  0
 35 36  1  0  0  0  0
 37 31  1  0  0  0  0
 38 40  1  0  0  0  0
 38 39  1  0  0  0  0
 39 37  1  0  0  0  0
 41 39  2  0  0  0  0
 42 43  2  0  0  0  0
 42 38  1  0  0  0  0
 43 41  1  0  0  0  0
M  END
>  <MODEL>
3

>  <REMARK>
 VINA RESULT:      -8.0      2.932      6.491
  Name = 
  13 active torsions:
  status: ('A' for Active; 'I' for Inactive)
    1  A    between atoms: C_3  and  C_25
    2  A    between atoms: C_3  and  C_27
    3  A    between atoms: C_4  and  C_13
    4  A    between atoms: C_4  and  C_21
    5  A    between atoms: C_8  and  C_22
    6  A    between atoms: C_9  and  C_22
    7  A    between atoms: C_14  and  N_37
    8  A    between atoms: C_19  and  C_26
    9  A    between atoms: C_19  and  C_27
   10  A    between atoms: C_21  and  C_27
   11  A    between atoms: C_21  and  C_35
   12  A    between atoms: C_23  and  C_35
   13  A    between atoms: C_36  and  N_37
                            x       y       z     vdW  Elec       q    Type
                         _______ _______ _______ _____ _____    ______ ____

>  <TORSDO>
F 13

$$$$
=
 OpenBabel11032421213D

 43 48  0  0  1  0  0  0  0  0999 V2000
  183.6210  178.6250  140.9570 C   0  0  1  0  0  3  0  0  0  0  0  0
  184.0320  179.3470  142.2550 C   0  0  0  0  0  2  0  0  0  0  0  0
  187.5560  177.8950  147.0330 C   0  0  0  0  0  0  0  0  0  0  0  0
  184.6990  178.3970  143.2430 C   0  0  1  0  0  3  0  0  0  0  0  0
  186.3710  178.5000  146.5960 C   0  0  0  0  0  3  0  0  0  0  0  0
  186.3660  177.9330  142.6350 S   0  0  0  0  0  0  0  0  0  0  0  0
  188.0700  177.2270  144.7530 C   0  0  0  0  0  3  0  0  0  0  0  0
  186.8950  177.8470  144.3290 C   0  0  0  0  0  0  0  0  0  0  0  0
  187.9130  177.9330  148.4730 C   0  0  0  0  0  1  0  0  0  0  0  0
  183.6820  178.7930  145.4060 O   0  0  0  0  0  1  0  0  0  0  0  0
  188.3990  177.2390  146.1180 C   0  0  0  0  0  3  0  0  0  0  0  0
  186.0390  178.4520  145.2370 C   0  0  0  0  0  0  0  0  0  0  0  0
  184.8260  179.0480  144.6300 C   0  0  1  0  0  3  0  0  0  0  0  0
  182.1190  178.2620  140.8980 C   0  0  2  0  0  3  0  0  0  0  0  0
  181.3660  178.7500  142.1450 C   0  0  0  0  0  2  0  0  0  0  0  0
  180.0370  180.7580  142.2820 O   0  0  0  0  0  1  0  0  0  0  0  0
  180.0370  179.4270  141.8290 C   0  0  0  0  0  2  0  0  0  0  0  0
  181.8780  176.7650  140.6600 C   0  0  0  0  0  2  0  0  0  0  0  0
  180.4670  177.2430  138.6070 O   0  0  0  0  0  1  0  0  0  0  0  0
  180.4070  174.9970  139.6400 C   0  0  1  0  0  3  0  0  0  0  0  0
  180.6750  176.4890  139.7710 C   0  0  1  0  0  0  0  0  0  0  0  0
  179.4270  175.9100  140.3760 C   0  0  0  0  0  2  0  0  0  0  0  0
  180.0200  174.6760  138.2560 N   0  0  0  0  0  0  0  0  0  0  0  0
  181.2410  174.2380  137.5720 C   0  0  0  0  0  1  0  0  0  0  0  0
  179.6940  172.4520  137.6170 O   0  0  0  0  0  1  0  0  0  0  0  0
  179.0550  173.5700  138.1850 C   0  0  0  0  0  2  0  0  0  0  0  0
  184.1130  179.3710  139.7150 C   0  0  0  0  0  2  0  0  0  0  0  0
  185.9220  178.5890  138.1770 C   0  0  0  0  0  3  0  0  0  0  0  0
  184.8620  176.6830  137.4800 C   0  0  0  0  0  0  0  0  0  0  0  0
  186.0920  177.4720  137.2020 C   0  0  2  0  0  3  0  0  0  0  0  0
  187.3440  176.6460  137.3580 C   0  0  0  0  0  0  0  0  0  0  0  0
  184.0650  177.2680  138.3020 N   0  0  0  0  0  0  0  0  0  0  0  0
  184.6960  178.4820  138.6730 C   0  0  0  0  0  0  0  0  0  0  0  0
  184.8260  175.2800  137.2610 N   0  0  0  0  0  0  0  0  0  0  0  0
  187.3020  175.3180  137.1950 C   0  0  0  0  0  3  0  0  0  0  0  0
  186.0510  174.6170  137.0600 N   0  0  0  0  0  0  0  0  0  0  0  0
  188.6820  177.3190  137.3610 C   0  0  0  0  0  2  0  0  0  0  0  0
  190.3850  176.3220  138.9250 N   0  0  0  0  0  0  0  0  0  0  0  0
  189.3370  177.1380  138.6920 C   0  0  0  0  0  0  0  0  0  0  0  0
  191.1120  175.5250  137.9420 C   0  0  0  0  0  1  0  0  0  0  0  0
  188.8650  177.6370  139.8920 C   0  0  0  0  0  3  0  0  0  0  0  0
  190.6460  176.3130  140.2180 N   0  0  0  0  0  0  0  0  0  0  0  0
  189.7350  177.1000  140.8340 C   0  0  0  0  0  3  0  0  0  0  0  0
  1 27  1  6  0  0  0
  1  2  1  0  0  0  0
  3  9  1  0  0  0  0
  4  2  1  6  0  0  0
  4 13  1  0  0  0  0
  5  3  1  0  0  0  0
  6  4  1  0  0  0  0
  6  8  1  0  0  0  0
  7 11  1  0  0  0  0
  8  7  2  0  0  0  0
  8 12  1  0  0  0  0
 11  3  2  0  0  0  0
 12  5  2  0  0  0  0
 13 12  1  0  0  0  0
 13 10  1  1  0  0  0
 14 18  1  1  0  0  0
 14  1  1  0  0  0  0
 14 15  1  0  0  0  0
 17 15  1  0  0  0  0
 17 16  1  0  0  0  0
 20 23  1  6  0  0  0
 20 21  1  0  0  0  0
 20 22  1  0  0  0  0
 21 19  1  6  0  0  0
 21 22  1  0  0  0  0
 21 18  1  0  0  0  0
 24 23  1  0  0  0  0
 25 26  1  0  0  0  0
 26 23  1  0  0  0  0
 28 33  2  0  0  0  0
 29 32  2  0  0  0  0
 30 31  1  0  0  0  0
 30 29  1  0  0  0  0
 30 28  1  1  0  0  0
 31 37  1  0  0  0  0
 32 33  1  0  0  0  0
 33 27  1  0  0  0  0
 34 29  1  0  0  0  0
 35 31  2  0  0  0  0
 36 35  1  0  0  0  0
 36 34  2  0  0  0  0
 37 39  1  0  0  0  0
 38 42  1  0  0  0  0
 39 38  1  0  0  0  0
 39 41  2  0  0  0  0
 40 38  1  0  0  0  0
 41 43  1  0  0  0  0
 42 43  2  0  0  0  0
M  END
>  <MODEL>
4

>  <REMARK>
 VINA RESULT:      -7.9      2.535      4.001
  Name = 
  13 active torsions:
  status: ('A' for Active; 'I' for Inactive)
    1  A    between atoms: C_3  and  C_25
    2  A    between atoms: C_3  and  C_27
    3  A    between atoms: C_4  and  C_13
    4  A    between atoms: C_4  and  C_21
    5  A    between atoms: C_8  and  C_22
    6  A    between atoms: C_9  and  C_22
    7  A    between atoms: C_14  and  N_37
    8  A    between atoms: C_19  and  C_26
    9  A    between atoms: C_19  and  C_27
   10  A    between atoms: C_21  and  C_27
   11  A    between atoms: C_21  and  C_35
   12  A    between atoms: C_23  and  C_35
   13  A    between atoms: C_36  and  N_37
                            x       y       z     vdW  Elec       q    Type
                         _______ _______ _______ _____ _____    ______ ____

>  <TORSDO>
F 13

$$$$
=
 OpenBabel11032421213D

 43 48  0  0  1  0  0  0  0  0999 V2000
  183.9480  178.2700  140.1360 C   0  0  1  0  0  3  0  0  0  0  0  0
  184.1610  179.0430  141.4520 C   0  0  0  0  0  2  0  0  0  0  0  0
  187.2910  177.9950  146.5960 C   0  0  0  0  0  0  0  0  0  0  0  0
  184.8170  178.1740  142.5180 C   0  0  1  0  0  3  0  0  0  0  0  0
  186.1010  178.4660  146.0280 C   0  0  0  0  0  3  0  0  0  0  0  0
  186.5810  177.8940  142.0970 S   0  0  0  0  0  0  0  0  0  0  0  0
  188.1150  177.3830  144.3930 C   0  0  0  0  0  3  0  0  0  0  0  0
  186.9320  177.8690  143.8380 C   0  0  0  0  0  0  0  0  0  0  0  0
  187.4860  178.0740  148.0660 C   0  0  0  0  0  1  0  0  0  0  0  0
  183.5380  178.4600  144.5560 O   0  0  0  0  0  1  0  0  0  0  0  0
  188.2930  177.4340  145.7850 C   0  0  0  0  0  3  0  0  0  0  0  0
  185.9230  178.3790  144.6430 C   0  0  0  0  0  0  0  0  0  0  0  0
  184.7240  178.8370  143.9030 C   0  0  1  0  0  3  0  0  0  0  0  0
  182.4820  177.8400  139.9000 C   0  0  2  0  0  3  0  0  0  0  0  0
  182.3380  176.3110  139.8450 C   0  0  0  0  0  2  0  0  0  0  0  0
  180.5800  174.7860  139.2170 O   0  0  0  0  0  1  0  0  0  0  0  0
  181.4010  175.8250  138.7460 C   0  0  0  0  0  2  0  0  0  0  0  0
  181.8630  178.4950  138.6570 C   0  0  0  0  0  2  0  0  0  0  0  0
  179.3560  178.8580  138.5250 O   0  0  0  0  0  1  0  0  0  0  0  0
  180.6440  179.8600  140.3840 C   0  0  1  0  0  3  0  0  0  0  0  0
  180.6110  179.3000  138.9690 C   0  0  1  0  0  0  0  0  0  0  0  0
  180.7190  180.7860  139.1710 C   0  0  0  0  0  2  0  0  0  0  0  0
  179.3080  179.7620  140.9940 N   0  0  0  0  0  0  0  0  0  0  0  0
  179.2780  178.4930  141.7300 C   0  0  0  0  0  1  0  0  0  0  0  0
  180.0560  180.8040  142.9470 O   0  0  0  0  0  1  0  0  0  0  0  0
  179.0520  180.8380  141.9610 C   0  0  0  0  0  2  0  0  0  0  0  0
  184.5640  179.0040  138.9440 C   0  0  0  0  0  2  0  0  0  0  0  0
  186.5920  178.3530  137.6340 C   0  0  0  0  0  3  0  0  0  0  0  0
  185.8500  176.2740  137.0280 C   0  0  0  0  0  0  0  0  0  0  0  0
  186.9910  177.1970  136.7800 C   0  0  2  0  0  3  0  0  0  0  0  0
  188.3180  176.5610  137.1120 C   0  0  0  0  0  0  0  0  0  0  0  0
  184.9140  176.8100  137.7260 N   0  0  0  0  0  0  0  0  0  0  0  0
  185.3490  178.1230  138.0370 C   0  0  0  0  0  0  0  0  0  0  0  0
  186.0130  174.8660  136.9330 N   0  0  0  0  0  0  0  0  0  0  0  0
  188.4600  175.2300  137.0650 C   0  0  0  0  0  3  0  0  0  0  0  0
  187.3260  174.3590  136.8930 N   0  0  0  0  0  0  0  0  0  0  0  0
  189.5540  177.4050  137.1630 C   0  0  0  0  0  2  0  0  0  0  0  0
  191.3570  176.9150  138.8510 N   0  0  0  0  0  0  0  0  0  0  0  0
  190.1290  177.3780  138.5430 C   0  0  0  0  0  0  0  0  0  0  0  0
  192.3680  176.4230  137.9210 C   0  0  0  0  0  1  0  0  0  0  0  0
  189.4350  177.6560  139.7050 C   0  0  0  0  0  3  0  0  0  0  0  0
  191.5090  176.9320  140.1610 N   0  0  0  0  0  0  0  0  0  0  0  0
  190.3540  177.3730  140.7100 C   0  0  0  0  0  3  0  0  0  0  0  0
  1 27  1  6  0  0  0
  1  2  1  0  0  0  0
  3  9  1  0  0  0  0
  4  2  1  6  0  0  0
  4 13  1  0  0  0  0
  5  3  1  0  0  0  0
  6  4  1  0  0  0  0
  6  8  1  0  0  0  0
  7 11  1  0  0  0  0
  8  7  2  0  0  0  0
  8 12  1  0  0  0  0
 11  3  2  0  0  0  0
 12  5  2  0  0  0  0
 13 10  1  1  0  0  0
 13 12  1  0  0  0  0
 14 18  1  6  0  0  0
 14  1  1  0  0  0  0
 15 14  1  0  0  0  0
 17 16  1  0  0  0  0
 17 15  1  0  0  0  0
 18 21  1  0  0  0  0
 20 23  1  6  0  0  0
 21 19  1  6  0  0  0
 21 22  1  0  0  0  0
 21 20  1  0  0  0  0
 22 20  1  0  0  0  0
 23 24  1  0  0  0  0
 23 26  1  0  0  0  0
 26 25  1  0  0  0  0
 28 33  2  0  0  0  0
 29 32  2  0  0  0  0
 30 29  1  0  0  0  0
 30 31  1  0  0  0  0
 30 28  1  1  0  0  0
 31 37  1  0  0  0  0
 32 33  1  0  0  0  0
 33 27  1  0  0  0  0
 34 29  1  0  0  0  0
 35 31  2  0  0  0  0
 36 34  2  0  0  0  0
 36 35  1  0  0  0  0
 37 39  1  0  0  0  0
 38 42  1  0  0  0  0
 39 38  1  0  0  0  0
 39 41  2  0  0  0  0
 40 38  1  0  0  0  0
 41 43  1  0  0  0  0
 42 43  2  0  0  0  0
M  END
>  <MODEL>
5

>  <REMARK>
 VINA RESULT:      -7.9      2.374      4.307
  Name = 
  13 active torsions:
  status: ('A' for Active; 'I' for Inactive)
    1  A    between atoms: C_3  and  C_25
    2  A    between atoms: C_3  and  C_27
    3  A    between atoms: C_4  and  C_13
    4  A    between atoms: C_4  and  C_21
    5  A    between atoms: C_8  and  C_22
    6  A    between atoms: C_9  and  C_22
    7  A    between atoms: C_14  and  N_37
    8  A    between atoms: C_19  and  C_26
    9  A    between atoms: C_19  and  C_27
   10  A    between atoms: C_21  and  C_27
   11  A    between atoms: C_21  and  C_35
   12  A    between atoms: C_23  and  C_35
   13  A    between atoms: C_36  and  N_37
                            x       y       z     vdW  Elec       q    Type
                         _______ _______ _______ _____ _____    ______ ____

>  <TORSDO>
F 13

$$$$
=
 OpenBabel11032421213D

 43 48  0  0  1  0  0  0  0  0999 V2000
  183.4880  178.6320  140.7420 C   0  0  1  0  0  3  0  0  0  0  0  0
  184.0080  179.2940  142.0340 C   0  0  0  0  0  2  0  0  0  0  0  0
  187.6230  177.6290  146.6720 C   0  0  0  0  0  0  0  0  0  0  0  0
  184.7560  178.3010  142.9160 C   0  0  1  0  0  3  0  0  0  0  0  0
  186.3880  178.1660  146.2880 C   0  0  0  0  0  3  0  0  0  0  0  0
  186.4650  178.0730  142.2880 S   0  0  0  0  0  0  0  0  0  0  0  0
  188.2140  177.2860  144.3390 C   0  0  0  0  0  3  0  0  0  0  0  0
  186.9880  177.8380  143.9700 C   0  0  0  0  0  0  0  0  0  0  0  0
  187.9650  177.5300  148.1140 C   0  0  0  0  0  1  0  0  0  0  0  0
  183.6910  178.3400  145.0920 O   0  0  0  0  0  1  0  0  0  0  0  0
  188.5310  177.1690  145.7020 C   0  0  0  0  0  3  0  0  0  0  0  0
  186.0710  178.2470  144.9270 C   0  0  0  0  0  0  0  0  0  0  0  0
  184.8100  178.7930  144.3720 C   0  0  1  0  0  3  0  0  0  0  0  0
  181.9610  178.3930  140.7390 C   0  0  2  0  0  3  0  0  0  0  0  0
  181.3440  178.6290  142.1270 C   0  0  0  0  0  2  0  0  0  0  0  0
  180.2500  180.6480  142.8640 O   0  0  0  0  0  1  0  0  0  0  0  0
  180.0820  179.4820  142.0960 C   0  0  0  0  0  2  0  0  0  0  0  0
  181.5760  177.0100  140.1940 C   0  0  0  0  0  2  0  0  0  0  0  0
  179.0700  177.0240  139.8030 O   0  0  0  0  0  1  0  0  0  0  0  0
  180.5810  178.0080  138.1100 C   0  0  1  0  0  3  0  0  0  0  0  0
  180.3680  177.0480  139.2710 C   0  0  1  0  0  0  0  0  0  0  0  0
  180.4870  176.5020  137.8760 C   0  0  0  0  0  2  0  0  0  0  0  0
  179.3380  178.7470  137.8350 N   0  0  0  0  0  0  0  0  0  0  0  0
  179.4740  180.0520  138.4920 C   0  0  0  0  0  1  0  0  0  0  0  0
  180.0900  179.9410  135.9710 O   0  0  0  0  0  1  0  0  0  0  0  0
  179.1390  178.9960  136.4000 C   0  0  0  0  0  2  0  0  0  0  0  0
  183.9910  179.3590  139.4930 C   0  0  0  0  0  2  0  0  0  0  0  0
  185.8880  178.6140  138.0450 C   0  0  0  0  0  3  0  0  0  0  0  0
  184.9450  176.6350  137.3840 C   0  0  0  0  0  0  0  0  0  0  0  0
  186.1450  177.4740  137.1170 C   0  0  2  0  0  3  0  0  0  0  0  0
  187.4290  176.7170  137.3450 C   0  0  0  0  0  0  0  0  0  0  0  0
  184.0940  177.2080  138.1570 N   0  0  0  0  0  0  0  0  0  0  0  0
  184.6520  178.4640  138.5040 C   0  0  0  0  0  0  0  0  0  0  0  0
  184.9840  175.2250  137.2140 N   0  0  0  0  0  0  0  0  0  0  0  0
  187.4570  175.3830  137.2280 C   0  0  0  0  0  3  0  0  0  0  0  0
  186.2470  174.6170  137.0780 N   0  0  0  0  0  0  0  0  0  0  0  0
  188.7320  177.4550  137.3670 C   0  0  0  0  0  2  0  0  0  0  0  0
  190.4920  176.4540  138.8660 N   0  0  0  0  0  0  0  0  0  0  0  0
  189.4120  177.2410  138.6810 C   0  0  0  0  0  0  0  0  0  0  0  0
  191.2330  175.7270  137.8400 C   0  0  0  0  0  1  0  0  0  0  0  0
  188.9400  177.6710  139.9070 C   0  0  0  0  0  3  0  0  0  0  0  0
  190.7720  176.4000  140.1530 N   0  0  0  0  0  0  0  0  0  0  0  0
  189.8420  177.1260  140.8140 C   0  0  0  0  0  3  0  0  0  0  0  0
  1 27  1  6  0  0  0
  1  2  1  0  0  0  0
  3  9  1  0  0  0  0
  4  2  1  6  0  0  0
  4 13  1  0  0  0  0
  5  3  1  0  0  0  0
  6  4  1  0  0  0  0
  6  8  1  0  0  0  0
  7 11  1  0  0  0  0
  8  7  2  0  0  0  0
  8 12  1  0  0  0  0
 11  3  2  0  0  0  0
 12  5  2  0  0  0  0
 13 12  1  0  0  0  0
 13 10  1  1  0  0  0
 14 18  1  1  0  0  0
 14  1  1  0  0  0  0
 14 15  1  0  0  0  0
 17 15  1  0  0  0  0
 17 16  1  0  0  0  0
 20 23  1  6  0  0  0
 20 21  1  0  0  0  0
 21 19  1  1  0  0  0
 21 18  1  0  0  0  0
 22 20  1  0  0  0  0
 22 21  1  0  0  0  0
 23 24  1  0  0  0  0
 25 26  1  0  0  0  0
 26 23  1  0  0  0  0
 28 33  2  0  0  0  0
 29 32  2  0  0  0  0
 30 31  1  0  0  0  0
 30 29  1  0  0  0  0
 30 28  1  1  0  0  0
 31 37  1  0  0  0  0
 32 33  1  0  0  0  0
 33 27  1  0  0  0  0
 34 29  1  0  0  0  0
 35 31  2  0  0  0  0
 36 34  2  0  0  0  0
 36 35  1  0  0  0  0
 37 39  1  0  0  0  0
 38 42  1  0  0  0  0
 39 38  1  0  0  0  0
 39 41  2  0  0  0  0
 40 38  1  0  0  0  0
 41 43  1  0  0  0  0
 42 43  2  0  0  0  0
M  END
>  <MODEL>
6

>  <REMARK>
 VINA RESULT:      -7.7      2.432      3.907
  Name = 
  13 active torsions:
  status: ('A' for Active; 'I' for Inactive)
    1  A    between atoms: C_3  and  C_25
    2  A    between atoms: C_3  and  C_27
    3  A    between atoms: C_4  and  C_13
    4  A    between atoms: C_4  and  C_21
    5  A    between atoms: C_8  and  C_22
    6  A    between atoms: C_9  and  C_22
    7  A    between atoms: C_14  and  N_37
    8  A    between atoms: C_19  and  C_26
    9  A    between atoms: C_19  and  C_27
   10  A    between atoms: C_21  and  C_27
   11  A    between atoms: C_21  and  C_35
   12  A    between atoms: C_23  and  C_35
   13  A    between atoms: C_36  and  N_37
                            x       y       z     vdW  Elec       q    Type
                         _______ _______ _______ _____ _____    ______ ____

>  <TORSDO>
F 13

$$$$
=
 OpenBabel11032421213D

 43 48  0  0  1  0  0  0  0  0999 V2000
  182.7640  178.7740  139.8270 C   0  0  1  0  0  3  0  0  0  0  0  0
  182.8480  177.9550  141.1300 C   0  0  0  0  0  2  0  0  0  0  0  0
  186.7310  178.2150  145.8430 C   0  0  0  0  0  0  0  0  0  0  0  0
  183.6990  178.6550  142.1830 C   0  0  1  0  0  3  0  0  0  0  0  0
  186.5550  177.8970  144.4900 C   0  0  0  0  0  3  0  0  0  0  0  0
  182.7410  178.8440  143.7360 S   0  0  0  0  0  0  0  0  0  0  0  0
  184.4320  178.9930  145.9730 C   0  0  0  0  0  3  0  0  0  0  0  0
  184.2650  178.6580  144.6300 C   0  0  0  0  0  0  0  0  0  0  0  0
  188.0440  177.9660  146.4910 C   0  0  0  0  0  1  0  0  0  0  0  0
  186.0180  178.2530  141.6060 O   0  0  0  0  0  1  0  0  0  0  0  0
  185.6790  178.7810  146.5830 C   0  0  0  0  0  3  0  0  0  0  0  0
  185.3170  178.1440  143.8860 C   0  0  0  0  0  0  0  0  0  0  0  0
  184.9830  177.8580  142.4710 C   0  0  1  0  0  3  0  0  0  0  0  0
  181.5930  179.7820  139.8020 C   0  0  2  0  0  3  0  0  0  0  0  0
  180.3560  179.2360  140.5320 C   0  0  0  0  0  2  0  0  0  0  0  0
  180.0980  180.5920  142.5100 O   0  0  0  0  0  1  0  0  0  0  0  0
  179.5460  180.3110  141.2480 C   0  0  0  0  0  2  0  0  0  0  0  0
  181.2350  180.2440  138.3830 C   0  0  0  0  0  2  0  0  0  0  0  0
  182.2020  182.5880  138.3300 O   0  0  0  0  0  1  0  0  0  0  0  0
  180.0390  182.1280  137.2220 C   0  0  1  0  0  3  0  0  0  0  0  0
  181.0770  181.7520  138.2690 C   0  0  1  0  0  0  0  0  0  0  0  0
  179.7910  182.3950  138.7050 C   0  0  0  0  0  2  0  0  0  0  0  0
  180.4970  183.3010  136.4590 N   0  0  0  0  0  0  0  0  0  0  0  0
  180.8040  182.8260  135.1060 C   0  0  0  0  0  1  0  0  0  0  0  0
  179.8690  185.4740  137.0510 O   0  0  0  0  0  1  0  0  0  0  0  0
  179.4570  184.3320  136.3370 C   0  0  0  0  0  2  0  0  0  0  0  0
  184.1130  179.4020  139.4660 C   0  0  0  0  0  2  0  0  0  0  0  0
  186.1680  178.8240  138.1660 C   0  0  0  0  0  3  0  0  0  0  0  0
  185.3490  176.9030  137.2290 C   0  0  0  0  0  0  0  0  0  0  0  0
  186.5490  177.7800  137.1700 C   0  0  2  0  0  3  0  0  0  0  0  0
  187.8200  177.0230  137.4630 C   0  0  0  0  0  0  0  0  0  0  0  0
  184.4070  177.3880  137.9560 N   0  0  0  0  0  0  0  0  0  0  0  0
  184.8950  178.6140  138.4760 C   0  0  0  0  0  0  0  0  0  0  0  0
  185.4400  175.5160  136.9350 N   0  0  0  0  0  0  0  0  0  0  0  0
  187.8930  175.7070  137.2280 C   0  0  0  0  0  3  0  0  0  0  0  0
  186.7240  174.9410  136.8800 N   0  0  0  0  0  0  0  0  0  0  0  0
  189.0960  177.7750  137.6920 C   0  0  0  0  0  2  0  0  0  0  0  0
  190.6680  176.6690  139.3200 N   0  0  0  0  0  0  0  0  0  0  0  0
  189.6200  177.4770  139.0600 C   0  0  0  0  0  0  0  0  0  0  0  0
  191.5190  175.9960  138.3430 C   0  0  0  0  0  1  0  0  0  0  0  0
  189.0110  177.8380  140.2480 C   0  0  0  0  0  3  0  0  0  0  0  0
  190.7990  176.5360  140.6250 N   0  0  0  0  0  0  0  0  0  0  0  0
  189.8010  177.2310  141.2180 C   0  0  0  0  0  3  0  0  0  0  0  0
  1 27  1  1  0  0  0
  1  2  1  0  0  0  0
  3  9  1  0  0  0  0
  3 11  1  0  0  0  0
  4  2  1  6  0  0  0
  4 13  1  0  0  0  0
  4  6  1  0  0  0  0
  5  3  2  0  0  0  0
  6  8  1  0  0  0  0
  7 11  2  0  0  0  0
  8  7  1  0  0  0  0
 12  5  1  0  0  0  0
 12  8  2  0  0  0  0
 13 10  1  6  0  0  0
 13 12  1  0  0  0  0
 14 18  1  6  0  0  0
 14  1  1  0  0  0  0
 14 15  1  0  0  0  0
 15 17  1  0  0  0  0
 17 16  1  0  0  0  0
 20 23  1  6  0  0  0
 20 21  1  0  0  0  0
 20 22  1  0  0  0  0
 21 19  1  1  0  0  0
 21 18  1  0  0  0  0
 21 22  1  0  0  0  0
 24 23  1  0  0  0  0
 26 23  1  0  0  0  0
 26 25  1  0  0  0  0
 28 33  2  0  0  0  0
 29 32  2  0  0  0  0
 30 29  1  0  0  0  0
 30 31  1  0  0  0  0
 30 28  1  1  0  0  0
 31 37  1  0  0  0  0
 32 33  1  0  0  0  0
 33 27  1  0  0  0  0
 34 29  1  0  0  0  0
 35 31  2  0  0  0  0
 36 34  2  0  0  0  0
 36 35  1  0  0  0  0
 37 39  1  0  0  0  0
 38 42  1  0  0  0  0
 39 38  1  0  0  0  0
 39 41  2  0  0  0  0
 40 38  1  0  0  0  0
 41 43  1  0  0  0  0
 42 43  2  0  0  0  0
M  END
>  <MODEL>
7

>  <REMARK>
 VINA RESULT:      -7.6      2.959      4.583
  Name = 
  13 active torsions:
  status: ('A' for Active; 'I' for Inactive)
    1  A    between atoms: C_3  and  C_25
    2  A    between atoms: C_3  and  C_27
    3  A    between atoms: C_4  and  C_13
    4  A    between atoms: C_4  and  C_21
    5  A    between atoms: C_8  and  C_22
    6  A    between atoms: C_9  and  C_22
    7  A    between atoms: C_14  and  N_37
    8  A    between atoms: C_19  and  C_26
    9  A    between atoms: C_19  and  C_27
   10  A    between atoms: C_21  and  C_27
   11  A    between atoms: C_21  and  C_35
   12  A    between atoms: C_23  and  C_35
   13  A    between atoms: C_36  and  N_37
                            x       y       z     vdW  Elec       q    Type
                         _______ _______ _______ _____ _____    ______ ____

>  <TORSDO>
F 13

$$$$
=
 OpenBabel11032421213D

 43 48  0  0  1  0  0  0  0  0999 V2000
  189.8060  177.5960  138.3920 C   0  0  1  0  0  3  0  0  0  0  0  0
  189.1790  176.8310  139.5750 C   0  0  0  0  0  2  0  0  0  0  0  0
  190.6070  177.0070  145.5150 C   0  0  0  0  0  0  0  0  0  0  0  0
  189.4720  177.5120  140.9070 C   0  0  1  0  0  3  0  0  0  0  0  0
  191.0450  176.7210  144.2160 C   0  0  0  0  0  3  0  0  0  0  0  0
  187.9280  177.6570  141.8870 S   0  0  0  0  0  0  0  0  0  0  0  0
  188.4690  177.7650  144.6410 C   0  0  0  0  0  3  0  0  0  0  0  0
  188.9110  177.4610  143.3540 C   0  0  0  0  0  0  0  0  0  0  0  0
  191.5080  176.7530  146.6680 C   0  0  0  0  0  1  0  0  0  0  0  0
  191.8160  177.1410  141.3940 O   0  0  0  0  0  1  0  0  0  0  0  0
  189.3270  177.5480  145.7310 C   0  0  0  0  0  3  0  0  0  0  0  0
  190.1920  176.9730  143.1360 C   0  0  0  0  0  0  0  0  0  0  0  0
  190.5140  176.7180  141.7120 C   0  0  1  0  0  3  0  0  0  0  0  0
  190.7340  176.7260  137.5130 C   0  0  2  0  0  3  0  0  0  0  0  0
  189.9350  175.8410  136.5440 C   0  0  0  0  0  2  0  0  0  0  0  0
  188.9750  173.6460  136.8240 O   0  0  0  0  0  1  0  0  0  0  0  0
  190.1890  174.3490  136.7310 C   0  0  0  0  0  2  0  0  0  0  0  0
  191.7210  175.8880  138.3380 C   0  0  0  0  0  2  0  0  0  0  0  0
  193.9510  176.8950  139.0060 O   0  0  0  0  0  1  0  0  0  0  0  0
  193.8770  175.0910  137.3160 C   0  0  1  0  0  3  0  0  0  0  0  0
  193.1750  176.2250  138.0480 C   0  0  1  0  0  0  0  0  0  0  0  0
  193.6170  176.4290  136.6260 C   0  0  0  0  0  2  0  0  0  0  0  0
  195.2450  174.9280  137.8360 N   0  0  0  0  0  0  0  0  0  0  0  0
  195.2200  173.7530  138.7150 C   0  0  0  0  0  1  0  0  0  0  0  0
  197.2420  175.6270  136.8440 O   0  0  0  0  0  1  0  0  0  0  0  0
  196.2220  174.6600  136.7720 C   0  0  0  0  0  2  0  0  0  0  0  0
  188.7500  178.3580  137.5900 C   0  0  0  0  0  2  0  0  0  0  0  0
  186.4670  178.4880  138.6010 C   0  0  0  0  0  3  0  0  0  0  0  0
  185.5540  176.7680  137.3980 C   0  0  0  0  0  0  0  0  0  0  0  0
  185.2070  177.6950  138.5080 C   0  0  2  0  0  3  0  0  0  0  0  0
  183.9540  178.4830  138.2190 C   0  0  0  0  0  0  0  0  0  0  0  0
  186.7800  176.8670  137.0260 N   0  0  0  0  0  0  0  0  0  0  0  0
  187.3590  177.8840  137.8260 C   0  0  0  0  0  0  0  0  0  0  0  0
  184.5480  176.2270  136.5530 N   0  0  0  0  0  0  0  0  0  0  0  0
  183.0240  177.9940  137.3880 C   0  0  0  0  0  3  0  0  0  0  0  0
  183.2690  176.8130  136.6000 N   0  0  0  0  0  0  0  0  0  0  0  0
  183.5810  179.6360  139.1000 C   0  0  0  0  0  2  0  0  0  0  0  0
  182.0340  178.9610  140.9690 N   0  0  0  0  0  0  0  0  0  0  0  0
  183.2770  179.1420  140.4780 C   0  0  0  0  0  0  0  0  0  0  0  0
  180.7740  179.1410  140.2550 C   0  0  0  0  0  1  0  0  0  0  0  0
  184.2030  178.9690  141.4900 C   0  0  0  0  0  3  0  0  0  0  0  0
  182.1170  178.6250  142.2410 N   0  0  0  0  0  0  0  0  0  0  0  0
  183.4240  178.6260  142.5900 C   0  0  0  0  0  3  0  0  0  0  0  0
  1 27  1  6  0  0  0
  1  2  1  0  0  0  0
  3 11  1  0  0  0  0
  3  9  1  0  0  0  0
  4  2  1  6  0  0  0
  4 13  1  0  0  0  0
  4  6  1  0  0  0  0
  5  3  2  0  0  0  0
  6  8  1  0  0  0  0
  7 11  2  0  0  0  0
  8  7  1  0  0  0  0
 12  8  2  0  0  0  0
 12  5  1  0  0  0  0
 13 10  1  6  0  0  0
 13 12  1  0  0  0  0
 14 15  1  1  0  0  0
 14 18  1  0  0  0  0
 14  1  1  0  0  0  0
 15 17  1  0  0  0  0
 17 16  1  0  0  0  0
 20 23  1  1  0  0  0
 20 21  1  0  0  0  0
 21 18  1  0  0  0  0
 21 19  1  1  0  0  0
 22 20  1  0  0  0  0
 22 21  1  0  0  0  0
 23 24  1  0  0  0  0
 26 25  1  0  0  0  0
 26 23  1  0  0  0  0
 27 33  1  0  0  0  0
 29 30  1  0  0  0  0
 30 28  1  6  0  0  0
 31 30  1  0  0  0  0
 31 37  1  0  0  0  0
 32 29  2  0  0  0  0
 32 33  1  0  0  0  0
 33 28  2  0  0  0  0
 34 36  2  0  0  0  0
 34 29  1  0  0  0  0
 35 31  2  0  0  0  0
 36 35  1  0  0  0  0
 37 39  1  0  0  0  0
 38 42  1  0  0  0  0
 39 38  1  0  0  0  0
 39 41  2  0  0  0  0
 40 38  1  0  0  0  0
 41 43  1  0  0  0  0
 42 43  2  0  0  0  0
M  END
>  <MODEL>
8

>  <REMARK>
 VINA RESULT:      -7.5      2.798      8.231
  Name = 
  13 active torsions:
  status: ('A' for Active; 'I' for Inactive)
    1  A    between atoms: C_3  and  C_25
    2  A    between atoms: C_3  and  C_27
    3  A    between atoms: C_4  and  C_13
    4  A    between atoms: C_4  and  C_21
    5  A    between atoms: C_8  and  C_22
    6  A    between atoms: C_9  and  C_22
    7  A    between atoms: C_14  and  N_37
    8  A    between atoms: C_19  and  C_26
    9  A    between atoms: C_19  and  C_27
   10  A    between atoms: C_21  and  C_27
   11  A    between atoms: C_21  and  C_35
   12  A    between atoms: C_23  and  C_35
   13  A    between atoms: C_36  and  N_37
                            x       y       z     vdW  Elec       q    Type
                         _______ _______ _______ _____ _____    ______ ____

>  <TORSDO>
F 13

$$$$
=
 OpenBabel11032421213D

 43 48  0  0  1  0  0  0  0  0999 V2000
  189.7490  177.4170  138.3760 C   0  0  1  0  0  3  0  0  0  0  0  0
  188.8430  176.9620  139.5380 C   0  0  0  0  0  2  0  0  0  0  0  0
  190.6430  176.9950  145.3780 C   0  0  0  0  0  0  0  0  0  0  0  0
  189.2470  177.6110  140.8560 C   0  0  1  0  0  3  0  0  0  0  0  0
  190.9870  176.7090  144.0520 C   0  0  0  0  0  3  0  0  0  0  0  0
  187.7740  177.8060  141.9330 S   0  0  0  0  0  0  0  0  0  0  0  0
  188.4890  177.8530  144.6480 C   0  0  0  0  0  3  0  0  0  0  0  0
  188.8370  177.5490  143.3330 C   0  0  0  0  0  0  0  0  0  0  0  0
  191.6020  176.6880  146.4690 C   0  0  0  0  0  1  0  0  0  0  0  0
  191.5990  177.1360  141.1920 O   0  0  0  0  0  1  0  0  0  0  0  0
  189.4030  177.5860  145.6800 C   0  0  0  0  0  3  0  0  0  0  0  0
  190.0800  177.0120  143.0300 C   0  0  0  0  0  0  0  0  0  0  0  0
  190.3020  176.7640  141.5860 C   0  0  1  0  0  3  0  0  0  0  0  0
  190.3880  176.2470  137.5930 C   0  0  2  0  0  3  0  0  0  0  0  0
  189.3520  175.1730  137.2270 C   0  0  0  0  0  2  0  0  0  0  0  0
  190.2590  173.6100  135.6300 O   0  0  0  0  0  1  0  0  0  0  0  0
  189.9600  173.7950  136.9920 C   0  0  0  0  0  2  0  0  0  0  0  0
  191.5880  175.6280  138.3240 C   0  0  0  0  0  2  0  0  0  0  0  0
  193.6220  177.1220  138.5780 O   0  0  0  0  0  1  0  0  0  0  0  0
  193.7790  175.0560  137.2280 C   0  0  1  0  0  3  0  0  0  0  0  0
  192.9250  176.1610  137.8320 C   0  0  1  0  0  0  0  0  0  0  0  0
  193.2150  176.1770  136.3570 C   0  0  0  0  0  2  0  0  0  0  0  0
  195.1860  175.2380  137.6210 N   0  0  0  0  0  0  0  0  0  0  0  0
  195.4380  174.2970  138.7190 C   0  0  0  0  0  1  0  0  0  0  0  0
  197.3740  175.4700  136.8330 O   0  0  0  0  0  1  0  0  0  0  0  0
  196.1200  174.9060  136.5360 C   0  0  0  0  0  2  0  0  0  0  0  0
  189.0440  178.4350  137.4770 C   0  0  0  0  0  2  0  0  0  0  0  0
  186.9570  177.4330  136.5340 C   0  0  0  0  0  3  0  0  0  0  0  0
  185.5270  178.2970  138.1000 C   0  0  0  0  0  0  0  0  0  0  0  0
  185.4970  177.5200  136.8320 C   0  0  2  0  0  3  0  0  0  0  0  0
  184.7790  176.2030  136.9900 C   0  0  0  0  0  0  0  0  0  0  0  0
  186.7030  178.7180  138.4030 N   0  0  0  0  0  0  0  0  0  0  0  0
  187.5720  178.2400  137.3900 C   0  0  0  0  0  0  0  0  0  0  0  0
  184.5010  178.1540  139.0720 N   0  0  0  0  0  0  0  0  0  0  0  0
  183.8420  176.0530  137.9340 C   0  0  0  0  0  3  0  0  0  0  0  0
  183.6260  177.0580  138.9440 N   0  0  0  0  0  0  0  0  0  0  0  0
  184.8570  175.1790  135.8990 C   0  0  0  0  0  2  0  0  0  0  0  0
  184.8810  172.9280  137.0290 N   0  0  0  0  0  0  0  0  0  0  0  0
  184.2310  173.9010  136.3590 C   0  0  0  0  0  0  0  0  0  0  0  0
  186.2680  172.9520  137.4850 C   0  0  0  0  0  1  0  0  0  0  0  0
  182.9650  173.4620  136.0190 C   0  0  0  0  0  3  0  0  0  0  0  0
  184.0730  171.8980  137.1850 N   0  0  0  0  0  0  0  0  0  0  0  0
  182.9010  172.1900  136.5770 C   0  0  0  0  0  3  0  0  0  0  0  0
  1 27  1  6  0  0  0
  1  2  1  0  0  0  0
  3 11  1  0  0  0  0
  3  9  1  0  0  0  0
  4  2  1  6  0  0  0
  4 13  1  0  0  0  0
  4  6  1  0  0  0  0
  5  3  2  0  0  0  0
  6  8  1  0  0  0  0
  7 11  2  0  0  0  0
  8  7  1  0  0  0  0
 12  8  2  0  0  0  0
 12  5  1  0  0  0  0
 13 10  1  6  0  0  0
 13 12  1  0  0  0  0
 14 15  1  1  0  0  0
 14 18  1  0  0  0  0
 14  1  1  0  0  0  0
 16 17  1  0  0  0  0
 17 15  1  0  0  0  0
 20 23  1  1  0  0  0
 20 21  1  0  0  0  0
 21 18  1  0  0  0  0
 21 19  1  1  0  0  0
 22 20  1  0  0  0  0
 22 21  1  0  0  0  0
 23 24  1  0  0  0  0
 26 25  1  0  0  0  0
 26 23  1  0  0  0  0
 28 33  2  0  0  0  0
 29 32  2  0  0  0  0
 29 34  1  0  0  0  0
 30 28  1  1  0  0  0
 30 31  1  0  0  0  0
 30 29  1  0  0  0  0
 31 35  2  0  0  0  0
 33 27  1  0  0  0  0
 33 32  1  0  0  0  0
 35 36  1  0  0  0  0
 36 34  2  0  0  0  0
 37 39  1  0  0  0  0
 37 31  1  0  0  0  0
 38 42  1  0  0  0  0
 38 40  1  0  0  0  0
 39 38  1  0  0  0  0
 41 39  2  0  0  0  0
 41 43  1  0  0  0  0
 43 42  2  0  0  0  0
M  END
>  <MODEL>
9

>  <REMARK>
 VINA RESULT:      -7.5      3.252      7.818
  Name = 
  13 active torsions:
  status: ('A' for Active; 'I' for Inactive)
    1  A    between atoms: C_3  and  C_25
    2  A    between atoms: C_3  and  C_27
    3  A    between atoms: C_4  and  C_13
    4  A    between atoms: C_4  and  C_21
    5  A    between atoms: C_8  and  C_22
    6  A    between atoms: C_9  and  C_22
    7  A    between atoms: C_14  and  N_37
    8  A    between atoms: C_19  and  C_26
    9  A    between atoms: C_19  and  C_27
   10  A    between atoms: C_21  and  C_27
   11  A    between atoms: C_21  and  C_35
   12  A    between atoms: C_23  and  C_35
   13  A    between atoms: C_36  and  N_37
                            x       y       z     vdW  Elec       q    Type
                         _______ _______ _______ _____ _____    ______ ____

>  <TORSDO>
F 13

$$$$
