=
 OpenBabel11032420413D

 45 50  0  0  1  0  0  0  0  0999 V2000
  181.5130  178.9140  141.2310 C   0  0  0  0  0  3  0  0  0  0  0  0
  183.8040  178.1620  141.4150 C   0  0  0  0  0  3  0  0  0  0  0  0
  183.8000  178.4500  142.7850 C   0  0  0  0  0  0  0  0  0  0  0  0
  181.4920  179.2110  142.6010 C   0  0  0  0  0  0  0  0  0  0  0  0
  182.6390  178.9740  143.3700 C   0  0  0  0  0  3  0  0  0  0  0  0
  182.6620  178.3900  140.6340 C   0  0  0  0  0  0  0  0  0  0  0  0
  191.0400  176.9550  147.2880 C   0  0  0  0  0  3  0  0  0  0  0  0
  186.9940  178.1400  147.7850 O   0  0  0  0  0  1  0  0  0  0  0  0
  188.5090  177.2410  143.9400 C   0  0  0  0  0  3  0  0  0  0  0  0
  187.1850  177.6360  144.1230 C   0  0  0  0  0  0  0  0  0  0  0  0
  187.5090  177.8390  146.5280 C   0  0  0  0  0  0  0  0  0  0  0  0
  191.5230  176.6610  146.0090 C   0  0  0  0  0  3  0  0  0  0  0  0
  184.9990  178.1940  143.6010 C   0  0  0  0  0  0  0  0  0  0  0  0
  189.3480  177.1430  145.0620 C   0  0  0  0  0  0  0  0  0  0  0  0
  186.7050  177.9260  145.3920 C   0  0  0  0  0  0  0  0  0  0  0  0
  189.7100  177.3450  147.4660 C   0  0  0  0  0  3  0  0  0  0  0  0
  188.8500  177.4430  146.3640 C   0  0  0  0  0  0  0  0  0  0  0  0
  190.6800  176.7530  144.8990 C   0  0  0  0  0  3  0  0  0  0  0  0
  186.2390  177.7810  143.1030 C   0  0  0  0  0  3  0  0  0  0  0  0
  185.0910  178.3720  145.2850 S   0  0  0  0  0  0  0  0  0  0  0  0
  179.6330  179.0660  144.2870 N   0  0  0  0  0  1  0  0  0  0  0  0
  180.2770  179.7610  143.2240 C   0  0  0  0  0  0  0  0  0  0  0  0
  179.7930  180.8510  142.8190 O   0  0  0  0  0  0  0  0  0  0  0  0
  182.6490  178.0940  139.2340 N   0  0  0  0  0  2  0  0  0  0  0  0
  181.7410  175.8480  139.4870 C   0  0  0  0  0  1  0  0  0  0  0  0
  182.6780  176.7390  138.6940 C   0  0  1  0  0  3  0  0  0  0  0  0
  182.2320  176.7580  137.2450 C   0  0  0  0  0  2  0  0  0  0  0  0
  183.1760  176.0150  136.4240 N   0  0  0  0  0  2  0  0  0  0  0  0
  185.1640  177.3810  136.0000 C   0  0  0  0  0  3  0  0  0  0  0  0
  187.3830  176.6250  136.6250 C   0  0  0  0  0  0  0  0  0  0  0  0
  184.5940  176.2000  136.4970 C   0  0  0  0  0  0  0  0  0  0  0  0
  186.8150  175.4440  137.1230 C   0  0  0  0  0  3  0  0  0  0  0  0
  185.4360  175.2110  137.0680 C   0  0  0  0  0  0  0  0  0  0  0  0
  186.5410  177.5920  136.0610 C   0  0  0  0  0  3  0  0  0  0  0  0
  189.9420  176.9800  139.3230 C   0  0  0  0  0  2  0  0  0  0  0  0
  189.5100  178.2670  138.6160 C   0  0  2  0  0  3  0  0  0  0  0  0
  190.7990  176.1810  135.3870 C   0  0  0  0  0  1  0  0  0  0  0  0
  189.7420  175.7580  136.3960 C   0  0  2  0  0  3  0  0  0  0  0  0
  188.3290  178.7390  139.1880 O   0  0  0  0  0  1  0  0  0  0  0  0
  189.3480  178.1490  137.0970 C   0  0  0  0  0  2  0  0  0  0  0  0
  188.8060  176.8470  136.6950 N   0  0  0  0  0  0  0  0  0  0  0  0
  190.3700  175.1710  137.6620 C   0  0  0  0  0  2  0  0  0  0  0  0
  191.0190  176.2200  138.5600 C   0  0  0  0  0  2  0  0  0  0  0  0
  184.9790  173.9900  137.5890 O   0  0  0  0  0  0  0  0  0  0  0  0
  185.6020  172.7290  137.3900 C   0  0  0  0  0  1  0  0  0  0  0  0
  1  4  1  0  0  0  0
  2  3  2  0  0  0  0
  3  5  1  0  0  0  0
  3 13  1  0  0  0  0
  4 22  1  0  0  0  0
  4  5  2  0  0  0  0
  6  1  2  0  0  0  0
  6  2  1  0  0  0  0
  7 16  1  0  0  0  0
  9 10  2  0  0  0  0
  9 14  1  0  0  0  0
 10 15  1  0  0  0  0
 11  8  1  0  0  0  0
 12  7  2  0  0  0  0
 13 20  1  0  0  0  0
 14 17  1  0  0  0  0
 15 11  2  0  0  0  0
 17 11  1  0  0  0  0
 17 16  2  0  0  0  0
 18 14  2  0  0  0  0
 18 12  1  0  0  0  0
 19 13  2  0  0  0  0
 19 10  1  0  0  0  0
 20 15  1  0  0  0  0
 22 21  1  0  0  0  0
 23 22  2  0  0  0  0
 24  6  1  0  0  0  0
 26 24  1  0  0  0  0
 26 25  1  1  0  0  0
 27 26  1  0  0  0  0
 28 31  1  0  0  0  0
 28 27  1  0  0  0  0
 29 34  2  0  0  0  0
 29 31  1  0  0  0  0
 30 41  1  0  0  0  0
 30 32  2  0  0  0  0
 31 33  2  0  0  0  0
 33 32  1  0  0  0  0
 33 44  1  0  0  0  0
 34 30  1  0  0  0  0
 36 39  1  1  0  0  0
 36 35  1  0  0  0  0
 38 37  1  6  0  0  0
 38 41  1  0  0  0  0
 38 42  1  0  0  0  0
 40 36  1  0  0  0  0
 41 40  1  0  0  0  0
 42 43  1  0  0  0  0
 43 35  1  0  0  0  0
 45 44  1  0  0  0  0
M  END
>  <MODEL>
1

>  <REMARK>
 VINA RESULT:     -10.5      0.000      0.000
  Name = 
  9 active torsions:
  status: ('A' for Active; 'I' for Inactive)
    1  A    between atoms: N_7  and  C_31
    2  A    between atoms: N_7  and  C_43
    3  A    between atoms: N_9  and  C_23
    4  A    between atoms: N_9  and  C_26
    5  A    between atoms: C_11  and  C_16
    6  A    between atoms: C_18  and  C_34
    7  A    between atoms: C_20  and  N_38
    8  A    between atoms: O_22  and  C_39
    9  A    between atoms: C_26  and  C_43
                            x       y       z     vdW  Elec       q    Type
                         _______ _______ _______ _____ _____    ______ ____

>  <TORSDO>
F 9

$$$$
=
 OpenBabel11032420413D

 45 50  0  0  1  0  0  0  0  0999 V2000
  189.2890  177.3840  146.9480 C   0  0  0  0  0  3  0  0  0  0  0  0
  188.2050  177.7680  144.8220 C   0  0  0  0  0  3  0  0  0  0  0  0
  189.3470  177.3210  144.1460 C   0  0  0  0  0  0  0  0  0  0  0  0
  190.4420  176.9370  146.2890 C   0  0  0  0  0  0  0  0  0  0  0  0
  190.4620  176.9070  144.8880 C   0  0  0  0  0  3  0  0  0  0  0  0
  188.1700  177.8000  146.2230 C   0  0  0  0  0  0  0  0  0  0  0  0
  189.2640  177.3440  135.4900 C   0  0  0  0  0  3  0  0  0  0  0  0
  191.4220  175.7830  138.7960 O   0  0  0  0  0  1  0  0  0  0  0  0
  188.0260  178.2280  139.4130 C   0  0  0  0  0  3  0  0  0  0  0  0
  188.7510  177.7100  140.4840 C   0  0  0  0  0  0  0  0  0  0  0  0
  190.3020  176.5870  138.9790 C   0  0  0  0  0  0  0  0  0  0  0  0
  188.1430  178.1500  135.7130 C   0  0  0  0  0  3  0  0  0  0  0  0
  189.3700  177.2790  142.6740 C   0  0  0  0  0  0  0  0  0  0  0  0
  188.4410  177.9260  138.1050 C   0  0  0  0  0  0  0  0  0  0  0  0
  189.8610  176.9090  140.2630 C   0  0  0  0  0  0  0  0  0  0  0  0
  189.9830  176.8230  136.5690 C   0  0  0  0  0  3  0  0  0  0  0  0
  189.5840  177.1020  137.8830 C   0  0  0  0  0  0  0  0  0  0  0  0
  187.7320  178.4390  137.0170 C   0  0  0  0  0  3  0  0  0  0  0  0
  188.4590  177.9280  141.8350 C   0  0  0  0  0  3  0  0  0  0  0  0
  190.5150  176.4480  141.7380 S   0  0  0  0  0  0  0  0  0  0  0  0
  192.3610  175.3530  146.6530 N   0  0  0  0  0  1  0  0  0  0  0  0
  191.6170  176.4980  147.0600 C   0  0  0  0  0  0  0  0  0  0  0  0
  191.9730  177.1300  148.0900 O   0  0  0  0  0  0  0  0  0  0  0  0
  187.0080  178.2480  146.9270 N   0  0  0  0  0  2  0  0  0  0  0  0
  184.7070  177.8200  147.6030 C   0  0  0  0  0  1  0  0  0  0  0  0
  185.6460  178.0650  146.4370 C   0  0  1  0  0  3  0  0  0  0  0  0
  185.1980  179.3110  145.6980 C   0  0  0  0  0  2  0  0  0  0  0  0
  183.8100  179.1720  145.2840 N   0  0  0  0  0  2  0  0  0  0  0  0
  184.4010  178.6010  142.9770 C   0  0  0  0  0  3  0  0  0  0  0  0
  182.7060  178.2970  141.2680 C   0  0  0  0  0  0  0  0  0  0  0  0
  183.4190  178.8840  143.9370 C   0  0  0  0  0  0  0  0  0  0  0  0
  181.7220  178.5790  142.2260 C   0  0  0  0  0  3  0  0  0  0  0  0
  182.0530  178.8750  143.5540 C   0  0  0  0  0  0  0  0  0  0  0  0
  184.0510  178.3130  141.6590 C   0  0  0  0  0  3  0  0  0  0  0  0
  184.5090  177.6810  138.0550 C   0  0  0  0  0  2  0  0  0  0  0  0
  183.8300  179.0440  138.2070 C   0  0  2  0  0  3  0  0  0  0  0  0
  180.5930  176.6650  138.7630 C   0  0  0  0  0  1  0  0  0  0  0  0
  181.9000  176.6410  139.5430 C   0  0  2  0  0  3  0  0  0  0  0  0
  184.6650  179.9040  138.9190 O   0  0  0  0  0  1  0  0  0  0  0  0
  182.4400  179.0070  138.8530 C   0  0  0  0  0  2  0  0  0  0  0  0
  182.3440  177.9910  139.9060 N   0  0  0  0  0  0  0  0  0  0  0  0
  182.9860  175.8550  138.8050 C   0  0  0  0  0  2  0  0  0  0  0  0
  183.5500  176.5910  137.5930 C   0  0  0  0  0  2  0  0  0  0  0  0
  180.9870  179.1500  144.4250 O   0  0  0  0  0  0  0  0  0  0  0  0
  179.6450  178.7240  144.2380 C   0  0  0  0  0  1  0  0  0  0  0  0
  2  6  1  0  0  0  0
  3  2  2  0  0  0  0
  3  5  1  0  0  0  0
  4  1  1  0  0  0  0
  4 22  1  0  0  0  0
  5  4  2  0  0  0  0
  6 24  1  0  0  0  0
  6  1  2  0  0  0  0
  7 12  2  0  0  0  0
  7 16  1  0  0  0  0
  8 11  1  0  0  0  0
  9 10  2  0  0  0  0
 10 19  1  0  0  0  0
 11 15  2  0  0  0  0
 12 18  1  0  0  0  0
 13  3  1  0  0  0  0
 14  9  1  0  0  0  0
 15 10  1  0  0  0  0
 15 20  1  0  0  0  0
 16 17  2  0  0  0  0
 17 14  1  0  0  0  0
 17 11  1  0  0  0  0
 18 14  2  0  0  0  0
 19 13  2  0  0  0  0
 20 13  1  0  0  0  0
 21 22  1  0  0  0  0
 22 23  2  0  0  0  0
 26 24  1  0  0  0  0
 26 25  1  1  0  0  0
 27 26  1  0  0  0  0
 28 27  1  0  0  0  0
 29 31  1  0  0  0  0
 30 34  1  0  0  0  0
 30 32  2  0  0  0  0
 31 28  1  0  0  0  0
 32 33  1  0  0  0  0
 33 31  2  0  0  0  0
 33 44  1  0  0  0  0
 34 29  2  0  0  0  0
 35 36  1  0  0  0  0
 36 40  1  0  0  0  0
 36 39  1  1  0  0  0
 38 37  1  6  0  0  0
 38 41  1  0  0  0  0
 40 41  1  0  0  0  0
 41 30  1  0  0  0  0
 42 38  1  0  0  0  0
 43 35  1  0  0  0  0
 43 42  1  0  0  0  0
 45 44  1  0  0  0  0
M  END
>  <MODEL>
2

>  <REMARK>
 VINA RESULT:     -10.3      2.913      8.480
  Name = 
  9 active torsions:
  status: ('A' for Active; 'I' for Inactive)
    1  A    between atoms: N_7  and  C_31
    2  A    between atoms: N_7  and  C_43
    3  A    between atoms: N_9  and  C_23
    4  A    between atoms: N_9  and  C_26
    5  A    between atoms: C_11  and  C_16
    6  A    between atoms: C_18  and  C_34
    7  A    between atoms: C_20  and  N_38
    8  A    between atoms: O_22  and  C_39
    9  A    between atoms: C_26  and  C_43
                            x       y       z     vdW  Elec       q    Type
                         _______ _______ _______ _____ _____    ______ ____

>  <TORSDO>
F 9

$$$$
=
 OpenBabel11032420413D

 45 50  0  0  1  0  0  0  0  0999 V2000
  190.7290  176.7980  137.2610 C   0  0  0  0  0  3  0  0  0  0  0  0
  189.2980  177.4150  139.1100 C   0  0  0  0  0  3  0  0  0  0  0  0
  190.2950  177.0420  140.0200 C   0  0  0  0  0  0  0  0  0  0  0  0
  191.7360  176.4170  138.1580 C   0  0  0  0  0  0  0  0  0  0  0  0
  191.5110  176.5450  139.5350 C   0  0  0  0  0  3  0  0  0  0  0  0
  189.5110  177.2970  137.7290 C   0  0  0  0  0  0  0  0  0  0  0  0
  188.6180  177.8200  148.4770 C   0  0  0  0  0  3  0  0  0  0  0  0
  191.8200  177.1930  145.7600 O   0  0  0  0  0  1  0  0  0  0  0  0
  187.8670  177.6920  144.3400 C   0  0  0  0  0  3  0  0  0  0  0  0
  188.9310  177.4810  143.4640 C   0  0  0  0  0  0  0  0  0  0  0  0
  190.5140  177.3610  145.3110 C   0  0  0  0  0  0  0  0  0  0  0  0
  187.3180  177.9840  147.9890 C   0  0  0  0  0  3  0  0  0  0  0  0
  190.0680  177.1830  141.4680 C   0  0  0  0  0  0  0  0  0  0  0  0
  188.1240  177.7390  145.7200 C   0  0  0  0  0  0  0  0  0  0  0  0
  190.2210  177.3200  143.9480 C   0  0  0  0  0  0  0  0  0  0  0  0
  189.6820  177.6140  147.5940 C   0  0  0  0  0  3  0  0  0  0  0  0
  189.4520  177.5720  146.2120 C   0  0  0  0  0  0  0  0  0  0  0  0
  187.0720  177.9440  146.6140 C   0  0  0  0  0  3  0  0  0  0  0  0
  188.8260  177.4070  142.0720 C   0  0  0  0  0  3  0  0  0  0  0  0
  191.2700  177.0810  142.6600 S   0  0  0  0  0  0  0  0  0  0  0  0
  193.9030  176.7350  136.9210 N   0  0  0  0  0  1  0  0  0  0  0  0
  193.0190  175.8950  137.6570 C   0  0  0  0  0  0  0  0  0  0  0  0
  193.3440  174.6970  137.8730 O   0  0  0  0  0  0  0  0  0  0  0  0
  188.5040  177.6800  136.7880 N   0  0  0  0  0  2  0  0  0  0  0  0
  187.4360  175.5210  137.1520 C   0  0  0  0  0  1  0  0  0  0  0  0
  187.4670  176.7760  136.3000 C   0  0  1  0  0  3  0  0  0  0  0  0
  186.1170  177.4590  136.3810 C   0  0  0  0  0  2  0  0  0  0  0  0
  185.7870  177.7480  137.7690 N   0  0  0  0  0  2  0  0  0  0  0  0
  183.3570  177.5680  137.5200 C   0  0  0  0  0  3  0  0  0  0  0  0
  181.8370  178.7010  139.0340 C   0  0  0  0  0  0  0  0  0  0  0  0
  184.4660  178.0840  138.2070 C   0  0  0  0  0  0  0  0  0  0  0  0
  182.9440  179.2180  139.7230 C   0  0  0  0  0  3  0  0  0  0  0  0
  184.2550  178.9270  139.3290 C   0  0  0  0  0  0  0  0  0  0  0  0
  182.0590  177.8730  137.9270 C   0  0  0  0  0  3  0  0  0  0  0  0
  179.5720  177.6800  141.8240 C   0  0  0  0  0  2  0  0  0  0  0  0
  179.2800  177.0740  140.4490 C   0  0  2  0  0  3  0  0  0  0  0  0
  179.0220  181.0010  139.4720 C   0  0  0  0  0  1  0  0  0  0  0  0
  180.2000  180.2870  140.1180 C   0  0  2  0  0  3  0  0  0  0  0  0
  180.1040  175.9680  140.2420 O   0  0  0  0  0  1  0  0  0  0  0  0
  179.4040  178.0480  139.2720 C   0  0  0  0  0  2  0  0  0  0  0  0
  180.4940  179.0100  139.4590 N   0  0  0  0  0  0  0  0  0  0  0  0
  180.0060  180.1270  141.6280 C   0  0  0  0  0  2  0  0  0  0  0  0
  178.9710  179.0680  141.9980 C   0  0  0  0  0  2  0  0  0  0  0  0
  185.2860  179.5050  140.0860 O   0  0  0  0  0  0  0  0  0  0  0  0
  185.7300  179.0430  141.3540 C   0  0  0  0  0  1  0  0  0  0  0  0
  1  6  2  0  0  0  0
  1  4  1  0  0  0  0
  2  3  2  0  0  0  0
  3 13  1  0  0  0  0
  4  5  2  0  0  0  0
  5  3  1  0  0  0  0
  6  2  1  0  0  0  0
  9 14  1  0  0  0  0
 10 15  1  0  0  0  0
 10  9  2  0  0  0  0
 11  8  1  0  0  0  0
 11 17  1  0  0  0  0
 12  7  1  0  0  0  0
 13 19  2  0  0  0  0
 13 20  1  0  0  0  0
 14 17  2  0  0  0  0
 14 18  1  0  0  0  0
 15 11  2  0  0  0  0
 16  7  2  0  0  0  0
 17 16  1  0  0  0  0
 18 12  2  0  0  0  0
 19 10  1  0  0  0  0
 20 15  1  0  0  0  0
 21 22  1  0  0  0  0
 22 23  2  0  0  0  0
 22  4  1  0  0  0  0
 24  6  1  0  0  0  0
 26 27  1  0  0  0  0
 26 24  1  0  0  0  0
 26 25  1  1  0  0  0
 27 28  1  0  0  0  0
 28 31  1  0  0  0  0
 29 34  2  0  0  0  0
 29 31  1  0  0  0  0
 30 41  1  0  0  0  0
 30 32  2  0  0  0  0
 31 33  2  0  0  0  0
 33 32  1  0  0  0  0
 33 44  1  0  0  0  0
 34 30  1  0  0  0  0
 35 43  1  0  0  0  0
 36 39  1  6  0  0  0
 36 35  1  0  0  0  0
 38 37  1  6  0  0  0
 38 42  1  0  0  0  0
 40 41  1  0  0  0  0
 40 36  1  0  0  0  0
 41 38  1  0  0  0  0
 42 43  1  0  0  0  0
 44 45  1  0  0  0  0
M  END
>  <MODEL>
3

>  <REMARK>
 VINA RESULT:     -10.0      2.599      7.968
  Name = 
  9 active torsions:
  status: ('A' for Active; 'I' for Inactive)
    1  A    between atoms: N_7  and  C_31
    2  A    between atoms: N_7  and  C_43
    3  A    between atoms: N_9  and  C_23
    4  A    between atoms: N_9  and  C_26
    5  A    between atoms: C_11  and  C_16
    6  A    between atoms: C_18  and  C_34
    7  A    between atoms: C_20  and  N_38
    8  A    between atoms: O_22  and  C_39
    9  A    between atoms: C_26  and  C_43
                            x       y       z     vdW  Elec       q    Type
                         _______ _______ _______ _____ _____    ______ ____

>  <TORSDO>
F 9

$$$$
=
 OpenBabel11032420413D

 45 50  0  0  1  0  0  0  0  0999 V2000
  180.6010  178.8750  140.8630 C   0  0  0  0  0  3  0  0  0  0  0  0
  182.8170  177.9660  141.1960 C   0  0  0  0  0  3  0  0  0  0  0  0
  182.8940  178.5850  142.4500 C   0  0  0  0  0  0  0  0  0  0  0  0
  180.6620  179.5040  142.1140 C   0  0  0  0  0  0  0  0  0  0  0  0
  181.8110  179.3520  142.9010 C   0  0  0  0  0  3  0  0  0  0  0  0
  181.6710  178.1060  140.4000 C   0  0  0  0  0  0  0  0  0  0  0  0
  189.7470  177.6220  147.6500 C   0  0  0  0  0  3  0  0  0  0  0  0
  188.5870  177.3160  143.5780 O   0  0  0  0  0  1  0  0  0  0  0  0
  185.7860  178.4850  146.5240 C   0  0  0  0  0  3  0  0  0  0  0  0
  185.4240  178.3750  145.1830 C   0  0  0  0  0  0  0  0  0  0  0  0
  187.6800  177.7010  144.5600 C   0  0  0  0  0  0  0  0  0  0  0  0
  188.8070  178.0110  148.6100 C   0  0  0  0  0  3  0  0  0  0  0  0
  184.0940  178.4220  143.2870 C   0  0  0  0  0  0  0  0  0  0  0  0
  187.1110  178.2000  146.8940 C   0  0  0  0  0  0  0  0  0  0  0  0
  186.3560  177.9910  144.2300 C   0  0  0  0  0  0  0  0  0  0  0  0
  189.3790  177.5180  146.3060 C   0  0  0  0  0  3  0  0  0  0  0  0
  188.0650  177.8050  145.9110 C   0  0  0  0  0  0  0  0  0  0  0  0
  187.4930  178.3000  148.2330 C   0  0  0  0  0  3  0  0  0  0  0  0
  184.1470  178.6210  144.6700 C   0  0  0  0  0  3  0  0  0  0  0  0
  185.6220  177.9460  142.7220 S   0  0  0  0  0  0  0  0  0  0  0  0
  178.9310  181.2920  141.7550 N   0  0  0  0  0  1  0  0  0  0  0  0
  179.5290  180.3110  142.5960 C   0  0  0  0  0  0  0  0  0  0  0  0
  179.0800  180.1420  143.7610 O   0  0  0  0  0  0  0  0  0  0  0  0
  181.5760  177.4740  139.1200 N   0  0  0  0  0  2  0  0  0  0  0  0
  181.8710  179.6180  138.0000 C   0  0  0  0  0  1  0  0  0  0  0  0
  181.3450  178.2000  137.8750 C   0  0  1  0  0  3  0  0  0  0  0  0
  182.0670  177.5060  136.7380 C   0  0  0  0  0  2  0  0  0  0  0  0
  182.9710  176.4940  137.2660 N   0  0  0  0  0  2  0  0  0  0  0  0
  185.0060  177.8550  137.2020 C   0  0  0  0  0  3  0  0  0  0  0  0
  187.2040  176.8460  137.0140 C   0  0  0  0  0  0  0  0  0  0  0  0
  184.3960  176.5920  137.1760 C   0  0  0  0  0  0  0  0  0  0  0  0
  186.5970  175.5820  136.9890 C   0  0  0  0  0  3  0  0  0  0  0  0
  185.2070  175.4330  137.0650 C   0  0  0  0  0  0  0  0  0  0  0  0
  186.3920  177.9820  137.1210 C   0  0  0  0  0  3  0  0  0  0  0  0
  190.0580  176.8540  139.4240 C   0  0  0  0  0  2  0  0  0  0  0  0
  189.6400  178.2110  138.8550 C   0  0  2  0  0  3  0  0  0  0  0  0
  190.4290  176.2890  135.3730 C   0  0  0  0  0  1  0  0  0  0  0  0
  189.4610  175.8580  136.4650 C   0  0  2  0  0  3  0  0  0  0  0  0
  188.5620  178.7100  139.5860 O   0  0  0  0  0  1  0  0  0  0  0  0
  189.3060  178.2120  137.3590 C   0  0  0  0  0  2  0  0  0  0  0  0
  188.6380  176.9770  136.9380 N   0  0  0  0  0  0  0  0  0  0  0  0
  190.1810  175.1460  137.6120 C   0  0  0  0  0  2  0  0  0  0  0  0
  190.9930  176.0870  138.4970 C   0  0  0  0  0  2  0  0  0  0  0  0
  184.7080  174.1220  137.0230 O   0  0  0  0  0  0  0  0  0  0  0  0
  185.2960  173.0000  137.6660 C   0  0  0  0  0  1  0  0  0  0  0  0
  1  4  1  0  0  0  0
  2  3  2  0  0  0  0
  3  5  1  0  0  0  0
  3 13  1  0  0  0  0
  4 22  1  0  0  0  0
  4  5  2  0  0  0  0
  6  1  2  0  0  0  0
  6  2  1  0  0  0  0
  7 12  1  0  0  0  0
  8 11  1  0  0  0  0
  9 14  1  0  0  0  0
 10  9  2  0  0  0  0
 11 17  1  0  0  0  0
 13 19  2  0  0  0  0
 14 18  1  0  0  0  0
 15 11  2  0  0  0  0
 15 10  1  0  0  0  0
 16  7  2  0  0  0  0
 17 16  1  0  0  0  0
 17 14  2  0  0  0  0
 18 12  2  0  0  0  0
 19 10  1  0  0  0  0
 20 13  1  0  0  0  0
 20 15  1  0  0  0  0
 21 22  1  0  0  0  0
 22 23  2  0  0  0  0
 24  6  1  0  0  0  0
 26 25  1  1  0  0  0
 26 24  1  0  0  0  0
 27 28  1  0  0  0  0
 27 26  1  0  0  0  0
 30 34  1  0  0  0  0
 31 29  1  0  0  0  0
 31 28  1  0  0  0  0
 32 30  2  0  0  0  0
 32 33  1  0  0  0  0
 33 31  2  0  0  0  0
 34 29  2  0  0  0  0
 36 35  1  0  0  0  0
 36 39  1  1  0  0  0
 38 37  1  6  0  0  0
 38 41  1  0  0  0  0
 38 42  1  0  0  0  0
 40 36  1  0  0  0  0
 41 30  1  0  0  0  0
 41 40  1  0  0  0  0
 42 43  1  0  0  0  0
 43 35  1  0  0  0  0
 44 33  1  0  0  0  0
 44 45  1  0  0  0  0
M  END
>  <MODEL>
4

>  <REMARK>
 VINA RESULT:      -9.9      1.386      1.927
  Name = 
  9 active torsions:
  status: ('A' for Active; 'I' for Inactive)
    1  A    between atoms: N_7  and  C_31
    2  A    between atoms: N_7  and  C_43
    3  A    between atoms: N_9  and  C_23
    4  A    between atoms: N_9  and  C_26
    5  A    between atoms: C_11  and  C_16
    6  A    between atoms: C_18  and  C_34
    7  A    between atoms: C_20  and  N_38
    8  A    between atoms: O_22  and  C_39
    9  A    between atoms: C_26  and  C_43
                            x       y       z     vdW  Elec       q    Type
                         _______ _______ _______ _____ _____    ______ ____

>  <TORSDO>
F 9

$$$$
=
 OpenBabel11032420413D

 45 50  0  0  1  0  0  0  0  0999 V2000
  189.1480  177.4600  146.7170 C   0  0  0  0  0  3  0  0  0  0  0  0
  188.1180  177.8380  144.5630 C   0  0  0  0  0  3  0  0  0  0  0  0
  189.2740  177.3790  143.9180 C   0  0  0  0  0  0  0  0  0  0  0  0
  190.3140  177.0010  146.0890 C   0  0  0  0  0  0  0  0  0  0  0  0
  190.3670  176.9620  144.6890 C   0  0  0  0  0  3  0  0  0  0  0  0
  188.0500  177.8780  145.9620 C   0  0  0  0  0  0  0  0  0  0  0  0
  189.3640  177.3150  135.2620 C   0  0  0  0  0  3  0  0  0  0  0  0
  191.6400  176.0780  138.6250 O   0  0  0  0  0  1  0  0  0  0  0  0
  187.9430  178.0640  139.1500 C   0  0  0  0  0  3  0  0  0  0  0  0
  188.7060  177.6540  140.2410 C   0  0  0  0  0  0  0  0  0  0  0  0
  190.4210  176.7310  138.7790 C   0  0  0  0  0  0  0  0  0  0  0  0
  188.1440  177.9690  135.4550 C   0  0  0  0  0  3  0  0  0  0  0  0
  189.3320  177.3270  142.4470 C   0  0  0  0  0  0  0  0  0  0  0  0
  188.4200  177.8070  137.8540 C   0  0  0  0  0  0  0  0  0  0  0  0
  189.9160  177.0030  140.0500 C   0  0  0  0  0  0  0  0  0  0  0  0
  190.1230  176.9010  136.3600 C   0  0  0  0  0  3  0  0  0  0  0  0
  189.6640  177.1380  137.6630 C   0  0  0  0  0  0  0  0  0  0  0  0
  187.6720  178.2140  136.7470 C   0  0  0  0  0  3  0  0  0  0  0  0
  188.3620  177.8450  141.5830 C   0  0  0  0  0  3  0  0  0  0  0  0
  190.5950  176.6450  141.5430 S   0  0  0  0  0  0  0  0  0  0  0  0
  192.2490  175.4440  146.4770 N   0  0  0  0  0  1  0  0  0  0  0  0
  191.4670  176.5590  146.8910 C   0  0  0  0  0  0  0  0  0  0  0  0
  191.7690  177.1630  147.9540 O   0  0  0  0  0  0  0  0  0  0  0  0
  186.8740  178.3380  146.6350 N   0  0  0  0  0  2  0  0  0  0  0  0
  184.5290  178.0390  147.2240 C   0  0  0  0  0  1  0  0  0  0  0  0
  185.5270  178.2010  146.0920 C   0  0  1  0  0  3  0  0  0  0  0  0
  185.1690  179.4390  145.2940 C   0  0  0  0  0  2  0  0  0  0  0  0
  183.8410  179.2910  144.7160 N   0  0  0  0  0  2  0  0  0  0  0  0
  184.6830  178.3040  142.6390 C   0  0  0  0  0  3  0  0  0  0  0  0
  183.2260  177.8990  140.7410 C   0  0  0  0  0  0  0  0  0  0  0  0
  183.6150  178.8320  143.3790 C   0  0  0  0  0  0  0  0  0  0  0  0
  182.1570  178.4260  141.4790 C   0  0  0  0  0  3  0  0  0  0  0  0
  182.3270  178.8960  142.7870 C   0  0  0  0  0  0  0  0  0  0  0  0
  184.4930  177.8440  141.3370 C   0  0  0  0  0  3  0  0  0  0  0  0
  180.3150  177.2630  138.4900 C   0  0  0  0  0  2  0  0  0  0  0  0
  180.9760  176.0330  139.1160 C   0  0  2  0  0  3  0  0  0  0  0  0
  184.2090  177.5920  137.2290 C   0  0  0  0  0  1  0  0  0  0  0  0
  183.3160  178.2820  138.2490 C   0  0  2  0  0  3  0  0  0  0  0  0
  180.4750  175.8380  140.4020 O   0  0  0  0  0  1  0  0  0  0  0  0
  182.5080  176.0680  139.1490 C   0  0  0  0  0  2  0  0  0  0  0  0
  183.0280  177.4160  139.3980 N   0  0  0  0  0  0  0  0  0  0  0  0
  182.0400  178.8300  137.6060 C   0  0  0  0  0  2  0  0  0  0  0  0
  181.0320  177.7460  137.2360 C   0  0  0  0  0  2  0  0  0  0  0  0
  181.1890  179.4100  143.4280 O   0  0  0  0  0  0  0  0  0  0  0  0
  180.1680  178.6310  144.0350 C   0  0  0  0  0  1  0  0  0  0  0  0
  2  6  1  0  0  0  0
  3  2  2  0  0  0  0
  3  5  1  0  0  0  0
  4  1  1  0  0  0  0
  4 22  1  0  0  0  0
  5  4  2  0  0  0  0
  6 24  1  0  0  0  0
  6  1  2  0  0  0  0
  7 12  2  0  0  0  0
  7 16  1  0  0  0  0
  8 11  1  0  0  0  0
  9 10  2  0  0  0  0
 10 19  1  0  0  0  0
 11 15  2  0  0  0  0
 12 18  1  0  0  0  0
 13  3  1  0  0  0  0
 14  9  1  0  0  0  0
 15 10  1  0  0  0  0
 15 20  1  0  0  0  0
 16 17  2  0  0  0  0
 17 14  1  0  0  0  0
 17 11  1  0  0  0  0
 18 14  2  0  0  0  0
 19 13  2  0  0  0  0
 20 13  1  0  0  0  0
 21 22  1  0  0  0  0
 22 23  2  0  0  0  0
 26 24  1  0  0  0  0
 26 25  1  1  0  0  0
 27 26  1  0  0  0  0
 28 27  1  0  0  0  0
 29 31  1  0  0  0  0
 30 34  1  0  0  0  0
 30 32  2  0  0  0  0
 31 28  1  0  0  0  0
 32 33  1  0  0  0  0
 33 31  2  0  0  0  0
 33 44  1  0  0  0  0
 34 29  2  0  0  0  0
 35 36  1  0  0  0  0
 36 40  1  0  0  0  0
 36 39  1  1  0  0  0
 38 37  1  6  0  0  0
 38 41  1  0  0  0  0
 40 41  1  0  0  0  0
 41 30  1  0  0  0  0
 42 38  1  0  0  0  0
 43 42  1  0  0  0  0
 43 35  1  0  0  0  0
 44 45  1  0  0  0  0
M  END
>  <MODEL>
5

>  <REMARK>
 VINA RESULT:      -9.9      2.921      8.530
  Name = 
  9 active torsions:
  status: ('A' for Active; 'I' for Inactive)
    1  A    between atoms: N_7  and  C_31
    2  A    between atoms: N_7  and  C_43
    3  A    between atoms: N_9  and  C_23
    4  A    between atoms: N_9  and  C_26
    5  A    between atoms: C_11  and  C_16
    6  A    between atoms: C_18  and  C_34
    7  A    between atoms: C_20  and  N_38
    8  A    between atoms: O_22  and  C_39
    9  A    between atoms: C_26  and  C_43
                            x       y       z     vdW  Elec       q    Type
                         _______ _______ _______ _____ _____    ______ ____

>  <TORSDO>
F 9

$$$$
=
 OpenBabel11032420413D

 45 50  0  0  1  0  0  0  0  0999 V2000
  188.6820  177.0880  146.9230 C   0  0  0  0  0  3  0  0  0  0  0  0
  187.7240  177.3190  144.7150 C   0  0  0  0  0  3  0  0  0  0  0  0
  188.9940  177.1900  144.1380 C   0  0  0  0  0  0  0  0  0  0  0  0
  189.9600  176.9600  146.3640 C   0  0  0  0  0  0  0  0  0  0  0  0
  190.1070  177.0100  144.9710 C   0  0  0  0  0  3  0  0  0  0  0  0
  187.5630  177.2670  146.1060 C   0  0  0  0  0  0  0  0  0  0  0  0
  190.1620  177.1750  135.5610 C   0  0  0  0  0  3  0  0  0  0  0  0
  187.5320  178.6260  138.5620 O   0  0  0  0  0  1  0  0  0  0  0  0
  190.9410  176.3520  139.6130 C   0  0  0  0  0  3  0  0  0  0  0  0
  190.0630  176.8330  140.5830 C   0  0  0  0  0  0  0  0  0  0  0  0
  188.6590  177.8780  138.8890 C   0  0  0  0  0  0  0  0  0  0  0  0
  191.2850  176.4260  135.9280 C   0  0  0  0  0  3  0  0  0  0  0  0
  189.1540  177.2320  142.6750 C   0  0  0  0  0  0  0  0  0  0  0  0
  190.6790  176.6340  138.2620 C   0  0  0  0  0  0  0  0  0  0  0  0
  188.9510  177.5780  140.2200 C   0  0  0  0  0  0  0  0  0  0  0  0
  189.2890  177.6600  136.5390 C   0  0  0  0  0  3  0  0  0  0  0  0
  189.5340  177.3990  137.8940 C   0  0  0  0  0  0  0  0  0  0  0  0
  191.5430  176.1570  137.2740 C   0  0  0  0  0  3  0  0  0  0  0  0
  190.1930  176.6290  141.9600 C   0  0  0  0  0  3  0  0  0  0  0  0
  188.0950  178.0050  141.5990 S   0  0  0  0  0  0  0  0  0  0  0  0
  191.7440  175.4860  147.3490 N   0  0  0  0  0  1  0  0  0  0  0  0
  191.1350  176.7690  147.2300 C   0  0  0  0  0  0  0  0  0  0  0  0
  191.6110  177.7390  147.8790 O   0  0  0  0  0  0  0  0  0  0  0  0
  186.2710  177.3920  146.7080 N   0  0  0  0  0  2  0  0  0  0  0  0
  186.5570  179.5650  147.7730 C   0  0  0  0  0  1  0  0  0  0  0  0
  185.6240  178.6720  146.9770 C   0  0  1  0  0  3  0  0  0  0  0  0
  185.2870  179.3580  145.6670 C   0  0  0  0  0  2  0  0  0  0  0  0
  183.9040  179.0850  145.3040 N   0  0  0  0  0  2  0  0  0  0  0  0
  184.4400  178.5210  142.9830 C   0  0  0  0  0  3  0  0  0  0  0  0
  182.7090  178.2890  141.2980 C   0  0  0  0  0  0  0  0  0  0  0  0
  183.4820  178.8240  143.9620 C   0  0  0  0  0  0  0  0  0  0  0  0
  181.7500  178.5910  142.2760 C   0  0  0  0  0  3  0  0  0  0  0  0
  182.1110  178.8630  143.6010 C   0  0  0  0  0  0  0  0  0  0  0  0
  184.0600  178.2570  141.6670 C   0  0  0  0  0  3  0  0  0  0  0  0
  184.4230  177.9060  138.0020 C   0  0  0  0  0  2  0  0  0  0  0  0
  183.6650  179.2160  138.2310 C   0  0  2  0  0  3  0  0  0  0  0  0
  180.6100  176.6130  138.8100 C   0  0  0  0  0  1  0  0  0  0  0  0
  181.9440  176.6470  139.5410 C   0  0  2  0  0  3  0  0  0  0  0  0
  184.4700  180.1020  138.9450 O   0  0  0  0  0  1  0  0  0  0  0  0
  182.3060  179.0650  138.9240 C   0  0  0  0  0  2  0  0  0  0  0  0
  182.3150  178.0090  139.9400 N   0  0  0  0  0  0  0  0  0  0  0  0
  183.0490  175.9600  138.7350 C   0  0  0  0  0  2  0  0  0  0  0  0
  183.5190  176.7740  137.5330 C   0  0  0  0  0  2  0  0  0  0  0  0
  181.0680  179.1610  144.4920 O   0  0  0  0  0  0  0  0  0  0  0  0
  179.7120  178.7750  144.3260 C   0  0  0  0  0  1  0  0  0  0  0  0
  2  6  1  0  0  0  0
  3  2  2  0  0  0  0
  3  5  1  0  0  0  0
  4  1  1  0  0  0  0
  4 22  1  0  0  0  0
  5  4  2  0  0  0  0
  6 24  1  0  0  0  0
  6  1  2  0  0  0  0
  7 12  2  0  0  0  0
  7 16  1  0  0  0  0
  8 11  1  0  0  0  0
  9 10  2  0  0  0  0
 10 19  1  0  0  0  0
 11 15  2  0  0  0  0
 12 18  1  0  0  0  0
 13  3  1  0  0  0  0
 14  9  1  0  0  0  0
 15 10  1  0  0  0  0
 15 20  1  0  0  0  0
 16 17  2  0  0  0  0
 17 14  1  0  0  0  0
 17 11  1  0  0  0  0
 18 14  2  0  0  0  0
 19 13  2  0  0  0  0
 20 13  1  0  0  0  0
 22 21  1  0  0  0  0
 22 23  2  0  0  0  0
 24 26  1  0  0  0  0
 26 25  1  1  0  0  0
 27 26  1  0  0  0  0
 28 27  1  0  0  0  0
 29 31  1  0  0  0  0
 30 34  1  0  0  0  0
 30 32  2  0  0  0  0
 31 28  1  0  0  0  0
 32 33  1  0  0  0  0
 33 31  2  0  0  0  0
 33 44  1  0  0  0  0
 34 29  2  0  0  0  0
 35 36  1  0  0  0  0
 36 40  1  0  0  0  0
 36 39  1  1  0  0  0
 38 37  1  6  0  0  0
 38 41  1  0  0  0  0
 40 41  1  0  0  0  0
 41 30  1  0  0  0  0
 42 38  1  0  0  0  0
 43 35  1  0  0  0  0
 43 42  1  0  0  0  0
 45 44  1  0  0  0  0
M  END
>  <MODEL>
6

>  <REMARK>
 VINA RESULT:      -9.8      2.714      8.334
  Name = 
  9 active torsions:
  status: ('A' for Active; 'I' for Inactive)
    1  A    between atoms: N_7  and  C_31
    2  A    between atoms: N_7  and  C_43
    3  A    between atoms: N_9  and  C_23
    4  A    between atoms: N_9  and  C_26
    5  A    between atoms: C_11  and  C_16
    6  A    between atoms: C_18  and  C_34
    7  A    between atoms: C_20  and  N_38
    8  A    between atoms: O_22  and  C_39
    9  A    between atoms: C_26  and  C_43
                            x       y       z     vdW  Elec       q    Type
                         _______ _______ _______ _____ _____    ______ ____

>  <TORSDO>
F 9

$$$$
=
 OpenBabel11032420413D

 45 50  0  0  1  0  0  0  0  0999 V2000
  187.9800  177.5190  145.4950 C   0  0  0  0  0  3  0  0  0  0  0  0
  187.0370  177.3510  143.2750 C   0  0  0  0  0  3  0  0  0  0  0  0
  185.8770  178.0060  143.7060 C   0  0  0  0  0  0  0  0  0  0  0  0
  186.8250  178.1730  145.9450 C   0  0  0  0  0  0  0  0  0  0  0  0
  185.7800  178.4140  145.0430 C   0  0  0  0  0  3  0  0  0  0  0  0
  188.0920  177.1070  144.1650 C   0  0  0  0  0  0  0  0  0  0  0  0
  179.6190  179.4240  137.8960 C   0  0  0  0  0  3  0  0  0  0  0  0
  180.3040  179.2720  142.0830 O   0  0  0  0  0  1  0  0  0  0  0  0
  183.4700  178.5790  139.3650 C   0  0  0  0  0  3  0  0  0  0  0  0
  183.6730  178.5300  140.7430 C   0  0  0  0  0  0  0  0  0  0  0  0
  181.3340  179.0490  141.1740 C   0  0  0  0  0  0  0  0  0  0  0  0
  180.6780  179.1930  137.0120 C   0  0  0  0  0  3  0  0  0  0  0  0
  184.7790  178.2710  142.7610 C   0  0  0  0  0  0  0  0  0  0  0  0
  182.1830  178.8660  138.8800 C   0  0  0  0  0  0  0  0  0  0  0  0
  182.6240  178.7610  141.6190 C   0  0  0  0  0  0  0  0  0  0  0  0
  179.8310  179.3780  139.2770 C   0  0  0  0  0  3  0  0  0  0  0  0
  181.1070  179.1020  139.7850 C   0  0  0  0  0  0  0  0  0  0  0  0
  181.9570  178.9160  137.5030 C   0  0  0  0  0  3  0  0  0  0  0  0
  184.8940  178.2530  141.3670 C   0  0  0  0  0  3  0  0  0  0  0  0
  183.1790  178.6280  143.1970 S   0  0  0  0  0  0  0  0  0  0  0  0
  187.7040  178.2290  148.3000 N   0  0  0  0  0  1  0  0  0  0  0  0
  186.7150  178.6070  147.3470 C   0  0  0  0  0  0  0  0  0  0  0  0
  185.7400  179.3150  147.7190 O   0  0  0  0  0  0  0  0  0  0  0  0
  189.2860  176.4440  143.7380 N   0  0  0  0  0  2  0  0  0  0  0  0
  191.6660  175.9260  143.6940 C   0  0  0  0  0  1  0  0  0  0  0  0
  190.6230  177.0110  143.8860 C   0  0  1  0  0  3  0  0  0  0  0  0
  190.8380  178.0900  142.8430 C   0  0  0  0  0  2  0  0  0  0  0  0
  191.3620  177.5020  141.6190 N   0  0  0  0  0  2  0  0  0  0  0  0
  189.1950  177.5700  140.4810 C   0  0  0  0  0  3  0  0  0  0  0  0
  188.9680  176.9660  138.1410 C   0  0  0  0  0  0  0  0  0  0  0  0
  190.5730  177.3120  140.4400 C   0  0  0  0  0  0  0  0  0  0  0  0
  190.3460  176.7070  138.0990 C   0  0  0  0  0  3  0  0  0  0  0  0
  191.1600  176.8690  139.2260 C   0  0  0  0  0  0  0  0  0  0  0  0
  188.4020  177.3990  139.3470 C   0  0  0  0  0  3  0  0  0  0  0  0
  186.5370  174.4280  136.8750 C   0  0  0  0  0  2  0  0  0  0  0  0
  187.9250  174.4280  136.2290 C   0  0  2  0  0  3  0  0  0  0  0  0
  186.8660  178.2620  135.4400 C   0  0  0  0  0  1  0  0  0  0  0  0
  186.9220  177.5820  136.8000 C   0  0  2  0  0  3  0  0  0  0  0  0
  188.8090  173.7010  137.0250 O   0  0  0  0  0  1  0  0  0  0  0  0
  188.5030  175.8170  135.9350 C   0  0  0  0  0  2  0  0  0  0  0  0
  188.1490  176.7960  136.9680 N   0  0  0  0  0  0  0  0  0  0  0  0
  185.6640  176.7550  137.0720 C   0  0  0  0  0  2  0  0  0  0  0  0
  185.6010  175.4620  136.2630 C   0  0  0  0  0  2  0  0  0  0  0  0
  192.5230  176.5730  139.0700 O   0  0  0  0  0  0  0  0  0  0  0  0
  193.1800  176.3670  137.8280 C   0  0  0  0  0  1  0  0  0  0  0  0
  1  4  1  0  0  0  0
  2  3  2  0  0  0  0
  2  6  1  0  0  0  0
  3  5  1  0  0  0  0
  4 22  1  0  0  0  0
  5  4  2  0  0  0  0
  6  1  2  0  0  0  0
  7 16  1  0  0  0  0
  9 10  2  0  0  0  0
 10 19  1  0  0  0  0
 10 15  1  0  0  0  0
 11 15  2  0  0  0  0
 11  8  1  0  0  0  0
 12 18  1  0  0  0  0
 12  7  2  0  0  0  0
 13 20  1  0  0  0  0
 13  3  1  0  0  0  0
 14  9  1  0  0  0  0
 14 17  1  0  0  0  0
 15 20  1  0  0  0  0
 16 17  2  0  0  0  0
 17 11  1  0  0  0  0
 18 14  2  0  0  0  0
 19 13  2  0  0  0  0
 22 23  2  0  0  0  0
 22 21  1  0  0  0  0
 24 26  1  0  0  0  0
 24  6  1  0  0  0  0
 26 25  1  6  0  0  0
 27 26  1  0  0  0  0
 28 27  1  0  0  0  0
 30 34  1  0  0  0  0
 31 29  1  0  0  0  0
 31 28  1  0  0  0  0
 32 30  2  0  0  0  0
 32 33  1  0  0  0  0
 33 31  2  0  0  0  0
 34 29  2  0  0  0  0
 36 35  1  0  0  0  0
 36 39  1  1  0  0  0
 38 37  1  6  0  0  0
 38 41  1  0  0  0  0
 38 42  1  0  0  0  0
 40 36  1  0  0  0  0
 40 41  1  0  0  0  0
 41 30  1  0  0  0  0
 43 35  1  0  0  0  0
 43 42  1  0  0  0  0
 44 33  1  0  0  0  0
 45 44  1  0  0  0  0
M  END
>  <MODEL>
7

>  <REMARK>
 VINA RESULT:      -9.6      2.600      7.504
  Name = 
  9 active torsions:
  status: ('A' for Active; 'I' for Inactive)
    1  A    between atoms: N_7  and  C_31
    2  A    between atoms: N_7  and  C_43
    3  A    between atoms: N_9  and  C_23
    4  A    between atoms: N_9  and  C_26
    5  A    between atoms: C_11  and  C_16
    6  A    between atoms: C_18  and  C_34
    7  A    between atoms: C_20  and  N_38
    8  A    between atoms: O_22  and  C_39
    9  A    between atoms: C_26  and  C_43
                            x       y       z     vdW  Elec       q    Type
                         _______ _______ _______ _____ _____    ______ ____

>  <TORSDO>
F 9

$$$$
=
 OpenBabel11032420413D

 45 50  0  0  1  0  0  0  0  0999 V2000
  183.2140  178.8820  139.9580 C   0  0  0  0  0  3  0  0  0  0  0  0
  185.5080  178.4390  140.5810 C   0  0  0  0  0  3  0  0  0  0  0  0
  185.1380  178.3640  141.9300 C   0  0  0  0  0  0  0  0  0  0  0  0
  182.8270  178.8140  141.3030 C   0  0  0  0  0  0  0  0  0  0  0  0
  183.7950  178.5520  142.2820 C   0  0  0  0  0  3  0  0  0  0  0  0
  184.5490  178.6960  139.5910 C   0  0  0  0  0  0  0  0  0  0  0  0
  191.3270  176.6920  147.7470 C   0  0  0  0  0  3  0  0  0  0  0  0
  187.3040  178.0150  147.4510 O   0  0  0  0  0  1  0  0  0  0  0  0
  189.4950  177.0170  143.9740 C   0  0  0  0  0  3  0  0  0  0  0  0
  188.1750  177.4570  143.8970 C   0  0  0  0  0  0  0  0  0  0  0  0
  188.0400  177.6800  146.3180 C   0  0  0  0  0  0  0  0  0  0  0  0
  192.0360  176.3660  146.5860 C   0  0  0  0  0  3  0  0  0  0  0  0
  186.1490  178.0800  142.9620 C   0  0  0  0  0  0  0  0  0  0  0  0
  190.1000  176.9060  145.2360 C   0  0  0  0  0  0  0  0  0  0  0  0
  187.4710  177.7790  145.0480 C   0  0  0  0  0  0  0  0  0  0  0  0
  190.0020  177.1280  147.6640 C   0  0  0  0  0  3  0  0  0  0  0  0
  189.3730  177.2390  146.4170 C   0  0  0  0  0  0  0  0  0  0  0  0
  191.4240  176.4710  145.3340 C   0  0  0  0  0  3  0  0  0  0  0  0
  187.4470  177.6200  142.7140 C   0  0  0  0  0  3  0  0  0  0  0  0
  185.9240  178.2760  144.6320 S   0  0  0  0  0  0  0  0  0  0  0  0
  180.3730  178.6990  140.7640 N   0  0  0  0  0  1  0  0  0  0  0  0
  181.4170  179.0090  141.6820 C   0  0  0  0  0  0  0  0  0  0  0  0
  181.1220  179.4560  142.8230 O   0  0  0  0  0  0  0  0  0  0  0  0
  184.9100  178.7690  138.2090 N   0  0  0  0  0  2  0  0  0  0  0  0
  184.4660  177.1570  136.4370 C   0  0  0  0  0  1  0  0  0  0  0  0
  185.4730  177.6500  137.4600 C   0  0  1  0  0  3  0  0  0  0  0  0
  186.7280  178.0990  136.7390 C   0  0  0  0  0  2  0  0  0  0  0  0
  187.8950  177.8600  137.5750 N   0  0  0  0  0  2  0  0  0  0  0  0
  189.2230  176.8520  135.7820 C   0  0  0  0  0  3  0  0  0  0  0  0
  191.2260  175.5660  136.2510 C   0  0  0  0  0  0  0  0  0  0  0  0
  189.0190  177.0830  137.1500 C   0  0  0  0  0  0  0  0  0  0  0  0
  191.0250  175.7960  137.6190 C   0  0  0  0  0  3  0  0  0  0  0  0
  189.9370  176.5420  138.0880 C   0  0  0  0  0  0  0  0  0  0  0  0
  190.3110  176.1030  135.3360 C   0  0  0  0  0  3  0  0  0  0  0  0
  194.7020  174.8770  137.4340 C   0  0  0  0  0  2  0  0  0  0  0  0
  194.5580  175.8590  136.2680 C   0  0  2  0  0  3  0  0  0  0  0  0
  192.7130  172.6480  134.6160 C   0  0  0  0  0  1  0  0  0  0  0  0
  192.3650  173.3380  135.9270 C   0  0  2  0  0  3  0  0  0  0  0  0
  194.2640  177.1290  136.7620 O   0  0  0  0  0  1  0  0  0  0  0  0
  193.5280  175.4570  135.2060 C   0  0  0  0  0  2  0  0  0  0  0  0
  192.3560  174.7980  135.7900 N   0  0  0  0  0  0  0  0  0  0  0  0
  193.2680  172.8700  137.0700 C   0  0  0  0  0  2  0  0  0  0  0  0
  194.6890  173.4220  136.9860 C   0  0  0  0  0  2  0  0  0  0  0  0
  189.8300  176.7010  139.4780 O   0  0  0  0  0  0  0  0  0  0  0  0
  190.8400  177.2340  140.3220 C   0  0  0  0  0  1  0  0  0  0  0  0
  1  4  1  0  0  0  0
  2  3  2  0  0  0  0
  3  5  1  0  0  0  0
  3 13  1  0  0  0  0
  4 22  1  0  0  0  0
  4  5  2  0  0  0  0
  6  1  2  0  0  0  0
  6  2  1  0  0  0  0
  9 14  1  0  0  0  0
 10  9  2  0  0  0  0
 10 15  1  0  0  0  0
 11 17  1  0  0  0  0
 11  8  1  0  0  0  0
 12  7  2  0  0  0  0
 13 20  1  0  0  0  0
 14 18  2  0  0  0  0
 14 17  1  0  0  0  0
 15 11  2  0  0  0  0
 16  7  1  0  0  0  0
 17 16  2  0  0  0  0
 18 12  1  0  0  0  0
 19 13  2  0  0  0  0
 19 10  1  0  0  0  0
 20 15  1  0  0  0  0
 21 22  1  0  0  0  0
 22 23  2  0  0  0  0
 24  6  1  0  0  0  0
 26 25  1  6  0  0  0
 26 24  1  0  0  0  0
 27 26  1  0  0  0  0
 27 28  1  0  0  0  0
 29 31  1  0  0  0  0
 30 32  2  0  0  0  0
 31 28  1  0  0  0  0
 31 33  2  0  0  0  0
 32 33  1  0  0  0  0
 33 44  1  0  0  0  0
 34 29  2  0  0  0  0
 34 30  1  0  0  0  0
 36 39  1  1  0  0  0
 36 35  1  0  0  0  0
 38 37  1  6  0  0  0
 38 42  1  0  0  0  0
 40 41  1  0  0  0  0
 40 36  1  0  0  0  0
 41 38  1  0  0  0  0
 41 30  1  0  0  0  0
 43 42  1  0  0  0  0
 43 35  1  0  0  0  0
 44 45  1  0  0  0  0
M  END
>  <MODEL>
8

>  <REMARK>
 VINA RESULT:      -9.1      2.232      3.544
  Name = 
  9 active torsions:
  status: ('A' for Active; 'I' for Inactive)
    1  A    between atoms: N_7  and  C_31
    2  A    between atoms: N_7  and  C_43
    3  A    between atoms: N_9  and  C_23
    4  A    between atoms: N_9  and  C_26
    5  A    between atoms: C_11  and  C_16
    6  A    between atoms: C_18  and  C_34
    7  A    between atoms: C_20  and  N_38
    8  A    between atoms: O_22  and  C_39
    9  A    between atoms: C_26  and  C_43
                            x       y       z     vdW  Elec       q    Type
                         _______ _______ _______ _____ _____    ______ ____

>  <TORSDO>
F 9

$$$$
=
 OpenBabel11032420413D

 45 50  0  0  1  0  0  0  0  0999 V2000
  190.5270  177.0100  137.2950 C   0  0  0  0  0  3  0  0  0  0  0  0
  188.9180  177.7020  138.9610 C   0  0  0  0  0  3  0  0  0  0  0  0
  189.7590  177.2380  139.9810 C   0  0  0  0  0  0  0  0  0  0  0  0
  191.3800  176.5380  138.3020 C   0  0  0  0  0  0  0  0  0  0  0  0
  190.9890  176.6580  139.6420 C   0  0  0  0  0  3  0  0  0  0  0  0
  189.2990  177.5920  137.6170 C   0  0  0  0  0  0  0  0  0  0  0  0
  187.7390  178.0380  148.3600 C   0  0  0  0  0  3  0  0  0  0  0  0
  186.0150  178.2300  144.4860 O   0  0  0  0  0  1  0  0  0  0  0  0
  190.1250  177.3520  144.9640 C   0  0  0  0  0  3  0  0  0  0  0  0
  189.5410  177.4240  143.7000 C   0  0  0  0  0  0  0  0  0  0  0  0
  187.3640  177.9410  144.6620 C   0  0  0  0  0  0  0  0  0  0  0  0
  189.0990  177.7460  148.4990 C   0  0  0  0  0  3  0  0  0  0  0  0
  189.3580  177.3700  141.3920 C   0  0  0  0  0  0  0  0  0  0  0  0
  189.3220  177.5770  146.0940 C   0  0  0  0  0  0  0  0  0  0  0  0
  188.1910  177.7120  143.5620 C   0  0  0  0  0  0  0  0  0  0  0  0
  187.1580  178.1030  147.0910 C   0  0  0  0  0  3  0  0  0  0  0  0
  187.9360  177.8740  145.9470 C   0  0  0  0  0  0  0  0  0  0  0  0
  189.8890  177.5150  147.3690 C   0  0  0  0  0  3  0  0  0  0  0  0
  190.2130  177.2280  142.4900 C   0  0  0  0  0  3  0  0  0  0  0  0
  187.7920  177.7330  141.9330 S   0  0  0  0  0  0  0  0  0  0  0  0
  193.7840  176.7450  137.5930 N   0  0  0  0  0  1  0  0  0  0  0  0
  192.6740  175.9280  137.9550 C   0  0  0  0  0  0  0  0  0  0  0  0
  192.8120  174.6760  137.9710 O   0  0  0  0  0  0  0  0  0  0  0  0
  188.4530  178.0660  136.5650 N   0  0  0  0  0  2  0  0  0  0  0  0
  187.4370  175.8520  136.5090 C   0  0  0  0  0  1  0  0  0  0  0  0
  187.4230  177.2540  135.9270 C   0  0  1  0  0  3  0  0  0  0  0  0
  186.0610  177.8730  136.1720 C   0  0  0  0  0  2  0  0  0  0  0  0
  185.6570  177.6580  137.5530 N   0  0  0  0  0  2  0  0  0  0  0  0
  184.2020  179.0350  138.9610 C   0  0  0  0  0  3  0  0  0  0  0  0
  181.8040  178.6720  139.0510 C   0  0  0  0  0  0  0  0  0  0  0  0
  184.3530  177.9810  138.0480 C   0  0  0  0  0  0  0  0  0  0  0  0
  181.9530  177.6180  138.1380 C   0  0  0  0  0  3  0  0  0  0  0  0
  183.2070  177.2570  137.6300 C   0  0  0  0  0  0  0  0  0  0  0  0
  182.9450  179.3760  139.4580 C   0  0  0  0  0  3  0  0  0  0  0  0
  179.6910  177.7470  141.9890 C   0  0  0  0  0  2  0  0  0  0  0  0
  179.2900  177.1440  140.6410 C   0  0  2  0  0  3  0  0  0  0  0  0
  179.1050  181.0710  139.6500 C   0  0  0  0  0  1  0  0  0  0  0  0
  180.2970  180.3210  140.2250 C   0  0  2  0  0  3  0  0  0  0  0  0
  180.0600  176.0080  140.3910 O   0  0  0  0  0  1  0  0  0  0  0  0
  179.3710  178.1060  139.4510 C   0  0  0  0  0  2  0  0  0  0  0  0
  180.5040  179.0300  139.5590 N   0  0  0  0  0  0  0  0  0  0  0  0
  180.1960  180.1760  141.7450 C   0  0  0  0  0  2  0  0  0  0  0  0
  179.1500  179.1570  142.1900 C   0  0  0  0  0  2  0  0  0  0  0  0
  183.2380  176.1810  136.7290 O   0  0  0  0  0  0  0  0  0  0  0  0
  183.4380  174.8200  137.0830 C   0  0  0  0  0  1  0  0  0  0  0  0
  1  6  2  0  0  0  0
  1  4  1  0  0  0  0
  2  3  2  0  0  0  0
  3 13  1  0  0  0  0
  4  5  2  0  0  0  0
  5  3  1  0  0  0  0
  6  2  1  0  0  0  0
  7 12  1  0  0  0  0
  8 11  1  0  0  0  0
  9 14  1  0  0  0  0
 10  9  2  0  0  0  0
 11 17  1  0  0  0  0
 13 20  1  0  0  0  0
 13 19  2  0  0  0  0
 14 18  1  0  0  0  0
 15 10  1  0  0  0  0
 15 11  2  0  0  0  0
 16  7  2  0  0  0  0
 17 14  2  0  0  0  0
 17 16  1  0  0  0  0
 18 12  2  0  0  0  0
 19 10  1  0  0  0  0
 20 15  1  0  0  0  0
 21 22  1  0  0  0  0
 22 23  2  0  0  0  0
 22  4  1  0  0  0  0
 24  6  1  0  0  0  0
 26 27  1  0  0  0  0
 26 25  1  1  0  0  0
 26 24  1  0  0  0  0
 27 28  1  0  0  0  0
 28 31  1  0  0  0  0
 29 34  1  0  0  0  0
 30 34  2  0  0  0  0
 30 41  1  0  0  0  0
 31 29  2  0  0  0  0
 32 30  1  0  0  0  0
 33 31  1  0  0  0  0
 33 32  2  0  0  0  0
 35 43  1  0  0  0  0
 36 39  1  6  0  0  0
 36 35  1  0  0  0  0
 38 37  1  6  0  0  0
 38 42  1  0  0  0  0
 40 41  1  0  0  0  0
 40 36  1  0  0  0  0
 41 38  1  0  0  0  0
 42 43  1  0  0  0  0
 44 45  1  0  0  0  0
 44 33  1  0  0  0  0
M  END
>  <MODEL>
9

>  <REMARK>
 VINA RESULT:      -8.8      2.343      7.655
  Name = 
  9 active torsions:
  status: ('A' for Active; 'I' for Inactive)
    1  A    between atoms: N_7  and  C_31
    2  A    between atoms: N_7  and  C_43
    3  A    between atoms: N_9  and  C_23
    4  A    between atoms: N_9  and  C_26
    5  A    between atoms: C_11  and  C_16
    6  A    between atoms: C_18  and  C_34
    7  A    between atoms: C_20  and  N_38
    8  A    between atoms: O_22  and  C_39
    9  A    between atoms: C_26  and  C_43
                            x       y       z     vdW  Elec       q    Type
                         _______ _______ _______ _____ _____    ______ ____

>  <TORSDO>
F 9

$$$$
