=
 OpenBabel11042411203D

 25 28  0  0  1  0  0  0  0  0999 V2000
  189.8680  176.7240  142.8320 C   0  0  0  0  0  2  0  0  0  0  0  0
  188.4260  177.5360  141.2180 C   0  0  0  0  0  2  0  0  0  0  0  0
  188.6410  177.4840  142.6570 N   0  0  0  0  0  0  0  0  0  0  0  0
  189.7830  177.4690  140.5360 C   0  0  1  0  0  3  0  0  0  0  0  0
  190.7210  176.9350  141.6020 C   0  0  1  0  0  3  0  0  0  0  0  0
  191.6980  177.8920  141.8750 O   0  0  0  0  0  1  0  0  0  0  0  0
  189.5750  177.3810  138.1680 C   0  0  2  0  0  3  0  0  0  0  0  0
  190.5420  176.9430  137.1870 N   0  0  0  0  0  2  0  0  0  0  0  0
  191.5620  176.3020  137.9830 C   0  0  0  0  0  2  0  0  0  0  0  0
  190.9820  175.9280  139.2640 N   0  0  0  0  0  2  0  0  0  0  0  0
  189.7330  176.5710  139.3740 N   0  0  1  0  0  0  0  0  0  0  0  0
  186.2200  176.4120  137.0690 N   0  0  0  0  0  0  0  0  0  0  0  0
  187.7370  179.5840  136.8720 N   0  0  0  0  0  1  0  0  0  0  0  0
  186.1990  177.6950  136.7340 N   0  0  0  0  0  0  0  0  0  0  0  0
  188.1900  177.2470  137.6160 C   0  0  0  0  0  0  0  0  0  0  0  0
  187.3890  178.2160  137.0630 C   0  0  0  0  0  0  0  0  0  0  0  0
  187.4180  176.1030  137.6150 C   0  0  0  0  0  2  0  0  0  0  0  0
  187.5680  176.6860  143.2330 C   0  0  0  0  0  2  0  0  0  0  0  0
  185.6570  178.8570  146.4120 C   0  0  0  0  0  3  0  0  0  0  0  0
  187.4590  177.4570  145.6070 C   0  0  0  0  0  3  0  0  0  0  0  0
  185.0790  178.8450  145.1410 C   0  0  0  0  0  3  0  0  0  0  0  0
  186.8850  177.4420  144.3300 C   0  0  0  0  0  0  0  0  0  0  0  0
  184.9150  178.1450  142.5180 Cl  0  0  0  0  0  0  0  0  0  0  0  0
  186.8470  178.1620  146.6460 C   0  0  0  0  0  3  0  0  0  0  0  0
  185.6870  178.1410  144.0970 C   0  0  0  0  0  0  0  0  0  0  0  0
  2  3  1  0  0  0  0
  3  1  1  0  0  0  0
  3 18  1  0  0  0  0
  4  2  1  1  0  0  0
  4  5  1  0  0  0  0
  5  6  1  1  0  0  0
  5  1  1  0  0  0  0
  7 15  1  6  0  0  0
  7 11  1  0  0  0  0
  8  9  1  0  0  0  0
  8  7  1  0  0  0  0
  9 10  1  0  0  0  0
 11 10  1  6  0  0  0
 11  4  1  0  0  0  0
 12 17  1  0  0  0  0
 13 16  1  0  0  0  0
 14 16  1  0  0  0  0
 14 12  2  0  0  0  0
 16 15  2  0  0  0  0
 17 15  1  0  0  0  0
 18 22  1  0  0  0  0
 19 24  1  0  0  0  0
 20 24  2  0  0  0  0
 21 19  2  0  0  0  0
 22 20  1  0  0  0  0
 23 25  1  0  0  0  0
 25 22  2  0  0  0  0
 25 21  1  0  0  0  0
M  END
>  <MODEL>
1

>  <REMARK>
 VINA RESULT:      -8.0      0.000      0.000
  Name = 
  4 active torsions:
  status: ('A' for Active; 'I' for Inactive)
    1  A    between atoms: C_2  and  C_18
    2  A    between atoms: N_6  and  C_11
    3  A    between atoms: C_11  and  C_19
    4  A    between atoms: C_12  and  N_15
                            x       y       z     vdW  Elec       q    Type
                         _______ _______ _______ _____ _____    ______ ____

>  <TORSDO>
F 4

$$$$
=
 OpenBabel11042411203D

 25 28  0  0  1  0  0  0  0  0999 V2000
  190.1620  176.6430  142.6710 C   0  0  0  0  0  2  0  0  0  0  0  0
  188.6000  177.4350  141.1620 C   0  0  0  0  0  2  0  0  0  0  0  0
  188.9130  177.3820  142.5830 N   0  0  0  0  0  0  0  0  0  0  0  0
  189.9090  177.3940  140.3890 C   0  0  1  0  0  3  0  0  0  0  0  0
  190.9270  176.8740  141.3870 C   0  0  1  0  0  3  0  0  0  0  0  0
  191.9030  177.8470  141.5980 O   0  0  0  0  0  1  0  0  0  0  0  0
  189.5950  177.3130  138.0330 C   0  0  2  0  0  3  0  0  0  0  0  0
  190.5130  176.8650  137.0090 N   0  0  0  0  0  2  0  0  0  0  0  0
  191.5580  176.2090  137.7590 C   0  0  0  0  0  2  0  0  0  0  0  0
  191.0310  175.8410  139.0630 N   0  0  0  0  0  2  0  0  0  0  0  0
  189.7960  176.4990  139.2300 N   0  0  1  0  0  0  0  0  0  0  0  0
  186.1910  176.3820  137.0630 N   0  0  0  0  0  0  0  0  0  0  0  0
  187.7050  179.5560  136.8900 N   0  0  0  0  0  1  0  0  0  0  0  0
  186.1570  177.6740  136.7670 N   0  0  0  0  0  0  0  0  0  0  0  0
  188.1860  177.1970  137.5420 C   0  0  0  0  0  0  0  0  0  0  0  0
  187.3630  178.1840  137.0570 C   0  0  0  0  0  0  0  0  0  0  0  0
  187.4120  176.0550  137.5430 C   0  0  0  0  0  2  0  0  0  0  0  0
  187.8960  176.5630  143.2270 C   0  0  0  0  0  2  0  0  0  0  0  0
  185.3720  178.9670  145.7410 C   0  0  0  0  0  3  0  0  0  0  0  0
  185.8470  177.9430  143.6010 C   0  0  0  0  0  3  0  0  0  0  0  0
  186.5530  178.4330  146.2600 C   0  0  0  0  0  3  0  0  0  0  0  0
  187.0330  177.4040  144.1140 C   0  0  0  0  0  0  0  0  0  0  0  0
  188.8690  177.0100  146.1480 Cl  0  0  0  0  0  0  0  0  0  0  0  0
  185.0190  178.7230  144.4110 C   0  0  0  0  0  3  0  0  0  0  0  0
  187.3870  177.6510  145.4530 C   0  0  0  0  0  0  0  0  0  0  0  0
  2  3  1  0  0  0  0
  3  1  1  0  0  0  0
  3 18  1  0  0  0  0
  4  2  1  1  0  0  0
  4  5  1  0  0  0  0
  5  6  1  1  0  0  0
  5  1  1  0  0  0  0
  7 15  1  6  0  0  0
  7 11  1  0  0  0  0
  8  9  1  0  0  0  0
  8  7  1  0  0  0  0
  9 10  1  0  0  0  0
 11 10  1  6  0  0  0
 11  4  1  0  0  0  0
 12 17  1  0  0  0  0
 13 16  1  0  0  0  0
 14 16  1  0  0  0  0
 14 12  2  0  0  0  0
 15 17  1  0  0  0  0
 16 15  2  0  0  0  0
 18 22  1  0  0  0  0
 19 21  1  0  0  0  0
 20 22  2  0  0  0  0
 20 24  1  0  0  0  0
 22 25  1  0  0  0  0
 24 19  2  0  0  0  0
 25 23  1  0  0  0  0
 25 21  2  0  0  0  0
M  END
>  <MODEL>
2

>  <REMARK>
 VINA RESULT:      -8.0      1.144      1.492
  Name = 
  4 active torsions:
  status: ('A' for Active; 'I' for Inactive)
    1  A    between atoms: C_2  and  C_18
    2  A    between atoms: N_6  and  C_11
    3  A    between atoms: C_11  and  C_19
    4  A    between atoms: C_12  and  N_15
                            x       y       z     vdW  Elec       q    Type
                         _______ _______ _______ _____ _____    ______ ____

>  <TORSDO>
F 4

$$$$
=
 OpenBabel11042411203D

 25 28  0  0  1  0  0  0  0  0999 V2000
  188.0880  178.7110  142.0430 C   0  0  0  0  0  2  0  0  0  0  0  0
  189.3920  176.9550  141.2950 C   0  0  0  0  0  2  0  0  0  0  0  0
  188.7010  177.4640  142.4710 N   0  0  0  0  0  0  0  0  0  0  0  0
  188.6500  177.4490  140.0620 C   0  0  1  0  0  3  0  0  0  0  0  0
  187.7980  178.6000  140.5630 C   0  0  1  0  0  3  0  0  0  0  0  0
  186.4510  178.2890  140.3770 O   0  0  0  0  0  1  0  0  0  0  0  0
  189.5580  176.9530  137.9200 C   0  0  2  0  0  3  0  0  0  0  0  0
  189.4340  177.6970  136.6870 N   0  0  0  0  0  2  0  0  0  0  0  0
  188.8740  178.9580  137.1110 C   0  0  0  0  0  2  0  0  0  0  0  0
  189.1450  179.1320  138.5300 N   0  0  0  0  0  2  0  0  0  0  0  0
  189.5990  177.8970  139.0350 N   0  0  1  0  0  0  0  0  0  0  0  0
  192.9010  175.4700  138.0760 N   0  0  0  0  0  0  0  0  0  0  0  0
  189.8530  173.8760  137.3220 N   0  0  0  0  0  1  0  0  0  0  0  0
  192.1980  174.3930  137.7530 N   0  0  0  0  0  0  0  0  0  0  0  0
  190.7970  176.1140  137.8890 C   0  0  0  0  0  0  0  0  0  0  0  0
  190.9160  174.7690  137.6390 C   0  0  0  0  0  0  0  0  0  0  0  0
  192.0790  176.5390  138.1720 C   0  0  0  0  0  2  0  0  0  0  0  0
  189.7120  177.8120  143.4590 C   0  0  0  0  0  2  0  0  0  0  0  0
  188.1550  177.1760  147.4140 C   0  0  0  0  0  3  0  0  0  0  0  0
  187.8330  177.8210  145.1040 C   0  0  0  0  0  3  0  0  0  0  0  0
  189.5100  176.9460  147.1610 C   0  0  0  0  0  3  0  0  0  0  0  0
  189.1890  177.5920  144.8430 C   0  0  0  0  0  0  0  0  0  0  0  0
  191.7450  176.8590  145.6130 Cl  0  0  0  0  0  0  0  0  0  0  0  0
  187.3170  177.6150  146.3850 C   0  0  0  0  0  3  0  0  0  0  0  0
  190.0320  177.1510  145.8800 C   0  0  0  0  0  0  0  0  0  0  0  0
  1  3  1  0  0  0  0
  2  3  1  0  0  0  0
  3 18  1  0  0  0  0
  4  5  1  0  0  0  0
  4  2  1  1  0  0  0
  5  6  1  1  0  0  0
  5  1  1  0  0  0  0
  7 15  1  6  0  0  0
  7 11  1  0  0  0  0
  8  9  1  0  0  0  0
  8  7  1  0  0  0  0
  9 10  1  0  0  0  0
 11 10  1  6  0  0  0
 11  4  1  0  0  0  0
 12 17  1  0  0  0  0
 13 16  1  0  0  0  0
 14 12  2  0  0  0  0
 15 17  1  0  0  0  0
 16 14  1  0  0  0  0
 16 15  2  0  0  0  0
 18 22  1  0  0  0  0
 20 24  1  0  0  0  0
 21 19  1  0  0  0  0
 22 20  2  0  0  0  0
 22 25  1  0  0  0  0
 23 25  1  0  0  0  0
 24 19  2  0  0  0  0
 25 21  2  0  0  0  0
M  END
>  <MODEL>
3

>  <REMARK>
 VINA RESULT:      -7.7      2.583      4.020
  Name = 
  4 active torsions:
  status: ('A' for Active; 'I' for Inactive)
    1  A    between atoms: C_2  and  C_18
    2  A    between atoms: N_6  and  C_11
    3  A    between atoms: C_11  and  C_19
    4  A    between atoms: C_12  and  N_15
                            x       y       z     vdW  Elec       q    Type
                         _______ _______ _______ _____ _____    ______ ____

>  <TORSDO>
F 4

$$$$
=
 OpenBabel11042411203D

 25 28  0  0  1  0  0  0  0  0999 V2000
  190.3830  177.0070  141.3250 C   0  0  0  0  0  2  0  0  0  0  0  0
  188.1450  177.5460  141.5290 C   0  0  0  0  0  2  0  0  0  0  0  0
  189.1570  177.1570  140.5580 N   0  0  0  0  0  0  0  0  0  0  0  0
  188.5330  176.9580  142.8770 C   0  0  1  0  0  3  0  0  0  0  0  0
  190.0020  176.6070  142.7320 C   0  0  1  0  0  3  0  0  0  0  0  0
  190.1630  175.2300  142.8820 O   0  0  0  0  0  1  0  0  0  0  0  0
  187.3450  177.3990  144.8890 C   0  0  2  0  0  3  0  0  0  0  0  0
  187.8590  177.5540  146.2320 N   0  0  0  0  0  2  0  0  0  0  0  0
  189.2850  177.6660  146.0340 C   0  0  0  0  0  2  0  0  0  0  0  0
  189.5320  178.0740  144.6600 N   0  0  0  0  0  2  0  0  0  0  0  0
  188.3230  177.9400  143.9480 N   0  0  1  0  0  0  0  0  0  0  0  0
  184.1210  178.8500  143.9430 N   0  0  0  0  0  0  0  0  0  0  0  0
  185.7400  179.0120  147.0650 N   0  0  0  0  0  1  0  0  0  0  0  0
  184.1770  179.2460  145.2070 N   0  0  0  0  0  2  0  0  0  0  0  0
  186.0340  178.1080  144.7590 C   0  0  0  0  0  0  0  0  0  0  0  0
  185.3330  178.8000  145.7170 C   0  0  0  0  0  0  0  0  0  0  0  0
  185.2350  178.1480  143.6350 C   0  0  0  0  0  3  0  0  0  0  0  0
  189.3600  178.2840  139.6590 C   0  0  0  0  0  2  0  0  0  0  0  0
  188.0650  177.3120  135.6780 C   0  0  0  0  0  3  0  0  0  0  0  0
  187.6320  178.2750  137.8550 C   0  0  0  0  0  3  0  0  0  0  0  0
  189.3550  176.9660  136.0870 C   0  0  0  0  0  3  0  0  0  0  0  0
  188.9240  177.9310  138.2710 C   0  0  0  0  0  0  0  0  0  0  0  0
  191.4180  176.8060  137.8530 Cl  0  0  0  0  0  0  0  0  0  0  0  0
  187.2030  177.9660  136.5620 C   0  0  0  0  0  3  0  0  0  0  0  0
  189.7900  177.2720  137.3800 C   0  0  0  0  0  0  0  0  0  0  0  0
  1  5  1  0  0  0  0
  3  1  1  0  0  0  0
  3  2  1  0  0  0  0
  4  2  1  6  0  0  0
  4 11  1  0  0  0  0
  5  4  1  0  0  0  0
  5  6  1  6  0  0  0
  7 15  1  1  0  0  0
  7  8  1  0  0  0  0
  9  8  1  0  0  0  0
 10  9  1  0  0  0  0
 11 10  1  1  0  0  0
 11  7  1  0  0  0  0
 12 14  1  0  0  0  0
 14 16  1  0  0  0  0
 15 16  2  0  0  0  0
 16 13  1  0  0  0  0
 17 12  2  0  0  0  0
 17 15  1  0  0  0  0
 18  3  1  0  0  0  0
 19 21  2  0  0  0  0
 19 24  1  0  0  0  0
 20 22  1  0  0  0  0
 21 25  1  0  0  0  0
 22 18  1  0  0  0  0
 24 20  2  0  0  0  0
 25 23  1  0  0  0  0
 25 22  2  0  0  0  0
M  END
>  <MODEL>
4

>  <REMARK>
 VINA RESULT:      -7.3      2.833      7.218
  Name = 
  4 active torsions:
  status: ('A' for Active; 'I' for Inactive)
    1  A    between atoms: C_2  and  C_18
    2  A    between atoms: N_6  and  C_11
    3  A    between atoms: C_11  and  C_19
    4  A    between atoms: C_12  and  N_15
                            x       y       z     vdW  Elec       q    Type
                         _______ _______ _______ _____ _____    ______ ____

>  <TORSDO>
F 4

$$$$
=
 OpenBabel11042411203D

 25 28  0  0  1  0  0  0  0  0999 V2000
  190.1660  176.9650  141.4710 C   0  0  0  0  0  2  0  0  0  0  0  0
  188.1450  177.6460  142.3620 C   0  0  0  0  0  2  0  0  0  0  0  0
  188.8010  177.3050  141.1070 N   0  0  0  0  0  0  0  0  0  0  0  0
  188.8240  176.8650  143.4770 C   0  0  1  0  0  3  0  0  0  0  0  0
  190.1480  176.4230  142.8830 C   0  0  1  0  0  3  0  0  0  0  0  0
  190.1910  175.0290  142.8430 O   0  0  0  0  0  1  0  0  0  0  0  0
  188.3150  177.1270  145.7850 C   0  0  2  0  0  3  0  0  0  0  0  0
  189.2060  177.0830  146.9220 N   0  0  0  0  0  2  0  0  0  0  0  0
  190.5180  177.1270  146.3220 C   0  0  0  0  0  2  0  0  0  0  0  0
  190.3970  177.6870  144.9850 N   0  0  0  0  0  2  0  0  0  0  0  0
  189.0280  177.7180  144.6540 N   0  0  1  0  0  0  0  0  0  0  0  0
  185.1030  178.8720  145.9970 N   0  0  0  0  0  0  0  0  0  0  0  0
  187.5980  178.6090  148.4690 N   0  0  0  0  0  1  0  0  0  0  0  0
  185.5750  179.1320  147.2090 N   0  0  0  0  0  2  0  0  0  0  0  0
  187.0960  177.9290  146.1220 C   0  0  0  0  0  0  0  0  0  0  0  0
  186.7850  178.5620  147.3000 C   0  0  0  0  0  0  0  0  0  0  0  0
  186.0030  178.1350  145.3060 C   0  0  0  0  0  3  0  0  0  0  0  0
  188.8700  178.5160  140.3040 C   0  0  0  0  0  2  0  0  0  0  0  0
  187.7080  177.6810  136.2510 C   0  0  0  0  0  3  0  0  0  0  0  0
  189.4240  177.9400  137.9370 C   0  0  0  0  0  3  0  0  0  0  0  0
  186.7280  177.9750  137.2020 C   0  0  0  0  0  3  0  0  0  0  0  0
  188.4470  178.2350  138.8960 C   0  0  0  0  0  0  0  0  0  0  0  0
  185.8230  178.6280  139.6830 Cl  0  0  0  0  0  0  0  0  0  0  0  0
  189.0560  177.6650  136.6180 C   0  0  0  0  0  3  0  0  0  0  0  0
  187.0910  178.2520  138.5250 C   0  0  0  0  0  0  0  0  0  0  0  0
  1  5  1  0  0  0  0
  3  1  1  0  0  0  0
  3  2  1  0  0  0  0
  4  2  1  6  0  0  0
  4 11  1  0  0  0  0
  5  6  1  6  0  0  0
  5  4  1  0  0  0  0
  7 15  1  1  0  0  0
  7  8  1  0  0  0  0
  9  8  1  0  0  0  0
 10  9  1  0  0  0  0
 11 10  1  1  0  0  0
 11  7  1  0  0  0  0
 12 14  1  0  0  0  0
 14 16  1  0  0  0  0
 15 16  2  0  0  0  0
 16 13  1  0  0  0  0
 17 12  2  0  0  0  0
 17 15  1  0  0  0  0
 18  3  1  0  0  0  0
 19 24  2  0  0  0  0
 19 21  1  0  0  0  0
 20 22  2  0  0  0  0
 21 25  2  0  0  0  0
 22 18  1  0  0  0  0
 24 20  1  0  0  0  0
 25 22  1  0  0  0  0
 25 23  1  0  0  0  0
M  END
>  <MODEL>
5

>  <REMARK>
 VINA RESULT:      -7.3      2.655      7.306
  Name = 
  4 active torsions:
  status: ('A' for Active; 'I' for Inactive)
    1  A    between atoms: C_2  and  C_18
    2  A    between atoms: N_6  and  C_11
    3  A    between atoms: C_11  and  C_19
    4  A    between atoms: C_12  and  N_15
                            x       y       z     vdW  Elec       q    Type
                         _______ _______ _______ _____ _____    ______ ____

>  <TORSDO>
F 4

$$$$
=
 OpenBabel11042411203D

 25 28  0  0  1  0  0  0  0  0999 V2000
  189.5910  176.5460  142.1180 C   0  0  0  0  0  2  0  0  0  0  0  0
  187.9590  178.0000  141.3670 C   0  0  0  0  0  2  0  0  0  0  0  0
  188.5670  177.4680  142.5790 N   0  0  0  0  0  0  0  0  0  0  0  0
  189.0080  177.9830  140.2670 C   0  0  1  0  0  3  0  0  0  0  0  0
  190.0740  177.0270  140.7690 C   0  0  1  0  0  3  0  0  0  0  0  0
  191.2750  177.7180  140.9260 O   0  0  0  0  0  1  0  0  0  0  0  0
  187.5760  178.5720  138.4620 C   0  0  2  0  0  3  0  0  0  0  0  0
  187.9040  178.7570  137.0660 N   0  0  0  0  0  2  0  0  0  0  0  0
  189.2420  178.2260  136.9620 C   0  0  0  0  0  2  0  0  0  0  0  0
  189.4710  177.3250  138.0810 N   0  0  0  0  0  2  0  0  0  0  0  0
  188.4240  177.5130  139.0040 N   0  0  1  0  0  0  0  0  0  0  0  0
  184.0150  178.2440  139.2440 N   0  0  0  0  0  0  0  0  0  0  0  0
  185.8930  176.4330  136.8800 N   0  0  0  0  0  1  0  0  0  0  0  0
  184.1190  177.3170  138.3020 N   0  0  0  0  0  0  0  0  0  0  0  0
  186.1290  178.2190  138.6040 C   0  0  0  0  0  0  0  0  0  0  0  0
  185.3980  177.2930  137.9010 C   0  0  0  0  0  0  0  0  0  0  0  0
  185.2210  178.8200  139.4520 C   0  0  0  0  0  2  0  0  0  0  0  0
  187.5600  176.6700  143.2630 C   0  0  0  0  0  2  0  0  0  0  0  0
  186.1850  178.7260  146.7780 C   0  0  0  0  0  3  0  0  0  0  0  0
  187.8400  177.3720  145.6440 C   0  0  0  0  0  3  0  0  0  0  0  0
  185.4050  178.7430  145.6200 C   0  0  0  0  0  3  0  0  0  0  0  0
  187.0630  177.3860  144.4800 C   0  0  0  0  0  0  0  0  0  0  0  0
  184.8150  178.1170  143.0390 Cl  0  0  0  0  0  0  0  0  0  0  0  0
  187.4030  178.0390  146.7910 C   0  0  0  0  0  3  0  0  0  0  0  0
  185.8370  178.0770  144.4690 C   0  0  0  0  0  0  0  0  0  0  0  0
  1  3  1  0  0  0  0
  2  3  1  0  0  0  0
  3 18  1  0  0  0  0
  4  5  1  0  0  0  0
  4  2  1  1  0  0  0
  5  6  1  1  0  0  0
  5  1  1  0  0  0  0
  7 15  1  6  0  0  0
  7 11  1  0  0  0  0
  8  7  1  0  0  0  0
  9  8  1  0  0  0  0
  9 10  1  0  0  0  0
 11 10  1  6  0  0  0
 11  4  1  0  0  0  0
 12 17  1  0  0  0  0
 13 16  1  0  0  0  0
 14 12  2  0  0  0  0
 15 17  1  0  0  0  0
 16 14  1  0  0  0  0
 16 15  2  0  0  0  0
 18 22  1  0  0  0  0
 19 24  1  0  0  0  0
 20 24  2  0  0  0  0
 21 19  2  0  0  0  0
 22 20  1  0  0  0  0
 23 25  1  0  0  0  0
 25 22  2  0  0  0  0
 25 21  1  0  0  0  0
M  END
>  <MODEL>
6

>  <REMARK>
 VINA RESULT:      -7.2      1.466      2.008
  Name = 
  4 active torsions:
  status: ('A' for Active; 'I' for Inactive)
    1  A    between atoms: C_2  and  C_18
    2  A    between atoms: N_6  and  C_11
    3  A    between atoms: C_11  and  C_19
    4  A    between atoms: C_12  and  N_15
                            x       y       z     vdW  Elec       q    Type
                         _______ _______ _______ _____ _____    ______ ____

>  <TORSDO>
F 4

$$$$
=
 OpenBabel11042411203D

 25 28  0  0  1  0  0  0  0  0999 V2000
  189.6300  176.2730  141.6960 C   0  0  0  0  0  2  0  0  0  0  0  0
  189.1650  178.5120  142.0340 C   0  0  0  0  0  2  0  0  0  0  0  0
  189.2430  177.4900  141.0000 N   0  0  0  0  0  0  0  0  0  0  0  0
  188.7980  177.8320  143.3430 C   0  0  1  0  0  3  0  0  0  0  0  0
  189.1070  176.3640  143.1110 C   0  0  1  0  0  3  0  0  0  0  0  0
  187.9290  175.6250  143.2180 O   0  0  0  0  0  1  0  0  0  0  0  0
  189.7820  177.3250  145.4480 C   0  0  2  0  0  3  0  0  0  0  0  0
  191.1820  177.2670  145.8060 N   0  0  0  0  0  2  0  0  0  0  0  0
  191.8440  177.8660  144.6710 C   0  0  0  0  0  2  0  0  0  0  0  0
  190.8800  178.6830  143.9510 N   0  0  0  0  0  2  0  0  0  0  0  0
  189.5980  178.3750  144.4480 N   0  0  1  0  0  0  0  0  0  0  0  0
  188.3640  178.1100  148.7300 N   0  0  0  0  0  0  0  0  0  0  0  0
  186.6500  177.5030  145.7140 N   0  0  0  0  0  1  0  0  0  0  0  0
  187.2440  177.9950  148.0290 N   0  0  0  0  0  2  0  0  0  0  0  0
  188.9550  177.5980  146.6650 C   0  0  0  0  0  0  0  0  0  0  0  0
  187.5880  177.6870  146.7700 C   0  0  0  0  0  0  0  0  0  0  0  0
  189.4290  177.8790  147.9290 C   0  0  0  0  0  3  0  0  0  0  0  0
  190.3490  177.8380  140.1190 C   0  0  0  0  0  2  0  0  0  0  0  0
  189.0940  177.7040  136.0110 C   0  0  0  0  0  3  0  0  0  0  0  0
  188.9680  178.6870  138.2190 C   0  0  0  0  0  3  0  0  0  0  0  0
  190.0430  176.7890  136.4720 C   0  0  0  0  0  3  0  0  0  0  0  0
  189.9190  177.7720  138.6870 C   0  0  0  0  0  0  0  0  0  0  0  0
  191.6460  175.6380  138.3440 Cl  0  0  0  0  0  0  0  0  0  0  0  0
  188.5560  178.6530  136.8850 C   0  0  0  0  0  3  0  0  0  0  0  0
  190.4590  176.8170  137.8070 C   0  0  0  0  0  0  0  0  0  0  0  0
  1  5  1  0  0  0  0
  3  1  1  0  0  0  0
  3  2  1  0  0  0  0
  4  2  1  6  0  0  0
  4 11  1  0  0  0  0
  5  6  1  6  0  0  0
  5  4  1  0  0  0  0
  7  8  1  0  0  0  0
  7 15  1  1  0  0  0
  9  8  1  0  0  0  0
 10  9  1  0  0  0  0
 11 10  1  6  0  0  0
 11  7  1  0  0  0  0
 13 16  1  0  0  0  0
 14 12  1  0  0  0  0
 15 16  2  0  0  0  0
 15 17  1  0  0  0  0
 16 14  1  0  0  0  0
 17 12  2  0  0  0  0
 18  3  1  0  0  0  0
 19 21  2  0  0  0  0
 19 24  1  0  0  0  0
 20 22  1  0  0  0  0
 21 25  1  0  0  0  0
 22 18  1  0  0  0  0
 24 20  2  0  0  0  0
 25 23  1  0  0  0  0
 25 22  2  0  0  0  0
M  END
>  <MODEL>
7

>  <REMARK>
 VINA RESULT:      -7.2      3.186      7.740
  Name = 
  4 active torsions:
  status: ('A' for Active; 'I' for Inactive)
    1  A    between atoms: C_2  and  C_18
    2  A    between atoms: N_6  and  C_11
    3  A    between atoms: C_11  and  C_19
    4  A    between atoms: C_12  and  N_15
                            x       y       z     vdW  Elec       q    Type
                         _______ _______ _______ _____ _____    ______ ____

>  <TORSDO>
F 4

$$$$
=
 OpenBabel11042411203D

 25 28  0  0  1  0  0  0  0  0999 V2000
  191.6710  177.6490  144.1060 C   0  0  0  0  0  2  0  0  0  0  0  0
  189.4130  177.2400  143.8260 C   0  0  0  0  0  2  0  0  0  0  0  0
  190.6920  177.2000  143.1300 N   0  0  0  0  0  0  0  0  0  0  0  0
  189.6740  177.0080  145.3060 C   0  0  1  0  0  3  0  0  0  0  0  0
  191.1570  177.2790  145.4800 C   0  0  1  0  0  3  0  0  0  0  0  0
  191.7890  176.1130  145.9120 O   0  0  0  0  0  1  0  0  0  0  0  0
  187.5680  177.3040  146.3700 C   0  0  2  0  0  3  0  0  0  0  0  0
  187.2700  177.4040  147.7810 N   0  0  0  0  0  2  0  0  0  0  0  0
  188.5690  177.5710  148.3880 C   0  0  0  0  0  2  0  0  0  0  0  0
  189.4940  178.0590  147.3770 N   0  0  0  0  0  2  0  0  0  0  0  0
  188.8680  177.9250  146.1220 N   0  0  1  0  0  0  0  0  0  0  0  0
  185.0750  178.4620  143.9530 N   0  0  0  0  0  0  0  0  0  0  0  0
  185.6690  179.6720  147.2060 N   0  0  0  0  0  1  0  0  0  0  0  0
  184.8080  179.2870  144.9560 N   0  0  0  0  0  2  0  0  0  0  0  0
  186.4960  177.9780  145.5720 C   0  0  0  0  0  0  0  0  0  0  0  0
  185.6630  179.0030  145.9490 C   0  0  0  0  0  0  0  0  0  0  0  0
  186.0970  177.6450  144.2950 C   0  0  0  0  0  3  0  0  0  0  0  0
  190.6530  178.2090  142.0820 C   0  0  0  0  0  2  0  0  0  0  0  0
  189.7640  176.3700  138.3000 C   0  0  0  0  0  3  0  0  0  0  0  0
  191.3270  176.8830  140.0750 C   0  0  0  0  0  3  0  0  0  0  0  0
  188.7620  177.0660  138.9810 C   0  0  0  0  0  3  0  0  0  0  0  0
  190.3270  177.5810  140.7630 C   0  0  0  0  0  0  0  0  0  0  0  0
  187.7460  178.5460  141.0240 Cl  0  0  0  0  0  0  0  0  0  0  0  0
  191.0470  176.2800  138.8460 C   0  0  0  0  0  3  0  0  0  0  0  0
  189.0360  177.6720  140.2110 C   0  0  0  0  0  0  0  0  0  0  0  0
  1  5  1  0  0  0  0
  3  2  1  0  0  0  0
  3  1  1  0  0  0  0
  4  2  1  6  0  0  0
  4  5  1  0  0  0  0
  4 11  1  0  0  0  0
  5  6  1  6  0  0  0
  7 15  1  6  0  0  0
  7  8  1  0  0  0  0
  8  9  1  0  0  0  0
 10  9  1  0  0  0  0
 11  7  1  0  0  0  0
 11 10  1  1  0  0  0
 12 17  2  0  0  0  0
 12 14  1  0  0  0  0
 14 16  1  0  0  0  0
 15 16  2  0  0  0  0
 16 13  1  0  0  0  0
 17 15  1  0  0  0  0
 18  3  1  0  0  0  0
 19 24  2  0  0  0  0
 19 21  1  0  0  0  0
 20 22  2  0  0  0  0
 21 25  2  0  0  0  0
 22 18  1  0  0  0  0
 24 20  1  0  0  0  0
 25 22  1  0  0  0  0
 25 23  1  0  0  0  0
M  END
>  <MODEL>
8

>  <REMARK>
 VINA RESULT:      -7.1      3.412      7.184
  Name = 
  4 active torsions:
  status: ('A' for Active; 'I' for Inactive)
    1  A    between atoms: C_2  and  C_18
    2  A    between atoms: N_6  and  C_11
    3  A    between atoms: C_11  and  C_19
    4  A    between atoms: C_12  and  N_15
                            x       y       z     vdW  Elec       q    Type
                         _______ _______ _______ _____ _____    ______ ____

>  <TORSDO>
F 4

$$$$
=
 OpenBabel11042411203D

 25 28  0  0  1  0  0  0  0  0999 V2000
  189.1340  178.8500  138.8810 C   0  0  0  0  0  2  0  0  0  0  0  0
  188.4050  176.6570  138.8510 C   0  0  0  0  0  2  0  0  0  0  0  0
  188.3660  177.8780  139.6430 N   0  0  0  0  0  0  0  0  0  0  0  0
  188.5390  177.0470  137.3870 C   0  0  1  0  0  3  0  0  0  0  0  0
  189.0180  178.4870  137.4180 C   0  0  1  0  0  3  0  0  0  0  0  0
  188.0610  179.3020  136.8130 O   0  0  0  0  0  1  0  0  0  0  0  0
  190.3020  175.4860  137.7220 C   0  0  2  0  0  3  0  0  0  0  0  0
  190.3430  174.0790  137.3950 N   0  0  0  0  0  2  0  0  0  0  0  0
  189.1800  173.8950  136.5590 C   0  0  0  0  0  2  0  0  0  0  0  0
  188.7950  175.1860  136.0110 N   0  0  0  0  0  2  0  0  0  0  0  0
  189.5090  176.1790  136.7080 N   0  0  1  0  0  0  0  0  0  0  0  0
  193.5640  176.9390  138.5280 N   0  0  0  0  0  0  0  0  0  0  0  0
  192.5150  175.5140  135.4830 N   0  0  0  0  0  1  0  0  0  0  0  0
  193.7850  176.5870  137.2690 N   0  0  0  0  0  0  0  0  0  0  0  0
  191.6920  176.0380  137.7790 C   0  0  0  0  0  0  0  0  0  0  0  0
  192.6570  176.0350  136.8010 C   0  0  0  0  0  0  0  0  0  0  0  0
  192.2980  176.6150  138.8760 C   0  0  0  0  0  2  0  0  0  0  0  0
  189.1070  177.6290  140.8710 C   0  0  0  0  0  2  0  0  0  0  0  0
  186.4090  177.6490  144.2170 C   0  0  0  0  0  3  0  0  0  0  0  0
  186.9570  178.3010  141.9510 C   0  0  0  0  0  3  0  0  0  0  0  0
  187.6310  176.9800  144.3200 C   0  0  0  0  0  3  0  0  0  0  0  0
  188.1830  177.6320  142.0490 C   0  0  0  0  0  0  0  0  0  0  0  0
  190.0510  176.1220  143.4230 Cl  0  0  0  0  0  0  0  0  0  0  0  0
  186.0720  178.3110  143.0330 C   0  0  0  0  0  3  0  0  0  0  0  0
  188.5210  176.9670  143.2410 C   0  0  0  0  0  0  0  0  0  0  0  0
  1  3  1  0  0  0  0
  2  3  1  0  0  0  0
  3 18  1  0  0  0  0
  4  5  1  0  0  0  0
  4  2  1  1  0  0  0
  5  6  1  6  0  0  0
  5  1  1  0  0  0  0
  7 15  1  6  0  0  0
  8  7  1  0  0  0  0
  9  8  1  0  0  0  0
 10  9  1  0  0  0  0
 11 10  1  1  0  0  0
 11  4  1  0  0  0  0
 11  7  1  0  0  0  0
 12 17  1  0  0  0  0
 13 16  1  0  0  0  0
 14 12  2  0  0  0  0
 15 17  1  0  0  0  0
 16 14  1  0  0  0  0
 16 15  2  0  0  0  0
 18 22  1  0  0  0  0
 19 21  1  0  0  0  0
 20 22  2  0  0  0  0
 20 24  1  0  0  0  0
 22 25  1  0  0  0  0
 24 19  2  0  0  0  0
 25 23  1  0  0  0  0
 25 21  2  0  0  0  0
M  END
>  <MODEL>
9

>  <REMARK>
 VINA RESULT:      -7.0      2.553      4.438
  Name = 
  4 active torsions:
  status: ('A' for Active; 'I' for Inactive)
    1  A    between atoms: C_2  and  C_18
    2  A    between atoms: N_6  and  C_11
    3  A    between atoms: C_11  and  C_19
    4  A    between atoms: C_12  and  N_15
                            x       y       z     vdW  Elec       q    Type
                         _______ _______ _______ _____ _____    ______ ____

>  <TORSDO>
F 4

$$$$
