=
 OpenBabel11032419583D

 52 57  0  0  1  0  0  0  0  0999 V2000
  191.5720  177.5510  140.2040 C   0  0  0  0  0  3  0  0  0  0  0  0
  192.6110  175.1690  137.9940 O   0  0  0  0  0  0  0  0  0  0  0  0
  193.3090  176.1110  137.2450 N   0  0  0  0  0  0  0  0  0  0  0  0
  188.3320  177.3540  138.3830 C   0  0  2  0  0  3  0  0  0  0  0  0
  189.0010  177.9880  140.4320 C   0  0  0  0  0  0  0  0  0  0  0  0
  190.1780  177.5040  139.7500 C   0  0  0  0  0  0  0  0  0  0  0  0
  187.9550  177.9210  139.6770 N   0  0  0  0  0  0  0  0  0  0  0  0
  192.1810  176.4510  138.0910 C   0  0  2  0  0  0  0  0  0  0  0  0
  189.8060  177.1230  138.5400 C   0  0  0  0  0  0  0  0  0  0  0  0
  192.5390  177.0640  139.4170 C   0  0  0  0  0  3  0  0  0  0  0  0
  190.7750  176.6790  137.4770 C   0  0  0  0  0  2  0  0  0  0  0  0
  192.8670  175.8070  135.5550 S   0  0  0  0  0  0  0  0  0  0  0  0
  194.4170  176.2830  134.9900 O   0  0  0  0  0  0  0  0  0  0  0  0
  195.2170  176.1250  136.0240 O   0  0  0  0  0  0  0  0  0  0  0  0
  196.4480  175.7360  135.4850 C   0  0  1  0  0  3  0  0  0  0  0  0
  196.8810  174.3500  135.8580 C   0  0  2  0  0  3  0  0  0  0  0  0
  196.2490  174.6360  134.6300 O   0  0  0  0  0  0  0  0  0  0  0  0
  195.9660  173.4930  136.7090 C   0  0  0  0  0  0  0  0  0  0  0  0
  194.8710  173.1220  136.3150 O   0  0  0  0  0  0  0  0  0  0  0  0
  196.4220  173.1380  138.0910 C   0  0  2  0  0  3  0  0  0  0  0  0
  195.4310  172.3040  138.7540 N   0  0  0  0  0  1  0  0  0  0  0  0
  195.7670  175.0980  139.2190 O   0  0  0  0  0  0  0  0  0  0  0  0
  196.6910  174.3670  138.9020 C   0  0  0  0  0  0  0  0  0  0  0  0
  197.9560  174.6660  139.3000 F   0  0  0  0  0  0  0  0  0  0  0  0
  188.9670  178.4230  141.7600 O   0  0  0  0  0  0  0  0  0  0  0  0
  188.8990  177.5570  142.8550 C   0  0  0  0  0  0  0  0  0  0  0  0
  188.4240  176.3970  142.6920 O   0  0  0  0  0  0  0  0  0  0  0  0
  189.4440  177.9810  144.1890 C   0  0  1  0  0  3  0  0  0  0  0  0
  189.1850  176.9180  145.2460 C   0  0  0  0  0  1  0  0  0  0  0  0
  191.2970  179.7280  144.0390 N   0  0  0  0  0  1  0  0  0  0  0  0
  190.8960  178.3610  144.0910 C   0  0  0  0  0  0  0  0  0  0  0  0
  191.7780  177.4650  144.1890 O   0  0  0  0  0  0  0  0  0  0  0  0
  188.0490  178.3460  137.2650 C   0  0  0  0  0  2  0  0  0  0  0  0
  187.4650  177.6190  136.0600 C   0  0  0  0  0  2  0  0  0  0  0  0
  186.0120  177.6560  136.1220 N   0  0  0  0  0  2  0  0  0  0  0  0
  185.5700  176.2990  136.3950 C   0  0  0  0  0  2  0  0  0  0  0  0
  182.4920  176.3540  139.3900 C   0  0  0  0  0  3  0  0  0  0  0  0
  182.6800  175.2090  138.6040 C   0  0  0  0  0  3  0  0  0  0  0  0
  184.3130  177.4500  138.2230 C   0  0  0  0  0  3  0  0  0  0  0  0
  183.6840  175.1860  137.6270 C   0  0  0  0  0  3  0  0  0  0  0  0
  184.5040  176.3070  137.4390 C   0  0  0  0  0  0  0  0  0  0  0  0
  183.3070  177.4760  139.2010 C   0  0  0  0  0  0  0  0  0  0  0  0
  184.1690  179.1160  140.8440 C   0  0  0  0  0  0  0  0  0  0  0  0
  181.8790  179.1830  140.1100 O   0  0  0  0  0  1  0  0  0  0  0  0
  183.1150  178.6410  140.0050 N   0  0  0  0  0  0  0  0  0  0  0  0
  185.1000  179.8010  140.3380 O   0  0  0  0  0  0  0  0  0  0  0  0
  183.1300  179.0430  143.0540 C   0  0  0  0  0  3  0  0  0  0  0  0
  183.1310  178.7320  144.5260 C   0  0  0  0  0  2  0  0  0  0  0  0
  184.1900  178.7780  142.2780 C   0  0  0  0  0  0  0  0  0  0  0  0
  185.5190  178.1250  144.2070 C   0  0  0  0  0  3  0  0  0  0  0  0
  184.4610  178.5440  145.0250 O   0  0  0  0  0  0  0  0  0  0  0  0
  185.4130  178.2160  142.8820 C   0  0  0  0  0  3  0  0  0  0  0  0
  2  8  1  0  0  0  0
  3  2  1  0  0  0  0
  3  8  1  0  0  0  0
  4 33  1  6  0  0  0
  4  9  1  0  0  0  0
  4  7  1  0  0  0  0
  5 25  1  0  0  0  0
  6  1  1  0  0  0  0
  6  5  1  0  0  0  0
  7  5  2  0  0  0  0
  8 11  1  6  0  0  0
  8 10  1  0  0  0  0
  9  6  2  0  0  0  0
 10  1  2  0  0  0  0
 11  9  1  0  0  0  0
 12  3  1  0  0  0  0
 13 12  1  0  0  0  0
 13 14  1  0  0  0  0
 15 16  1  0  0  0  0
 15 14  1  1  0  0  0
 16 18  1  1  0  0  0
 17 15  1  0  0  0  0
 17 16  1  0  0  0  0
 18 20  1  0  0  0  0
 19 18  2  0  0  0  0
 20 21  1  1  0  0  0
 20 23  1  0  0  0  0
 23 22  2  0  0  0  0
 23 24  1  0  0  0  0
 25 26  1  0  0  0  0
 26 28  1  0  0  0  0
 27 26  2  0  0  0  0
 28 29  1  1  0  0  0
 30 31  1  0  0  0  0
 31 32  2  0  0  0  0
 31 28  1  0  0  0  0
 34 35  1  0  0  0  0
 34 33  1  0  0  0  0
 35 36  1  0  0  0  0
 36 41  1  0  0  0  0
 38 37  2  0  0  0  0
 39 42  2  0  0  0  0
 40 38  1  0  0  0  0
 41 40  2  0  0  0  0
 41 39  1  0  0  0  0
 42 37  1  0  0  0  0
 42 45  1  0  0  0  0
 43 49  1  0  0  0  0
 45 44  1  0  0  0  0
 45 43  1  0  0  0  0
 46 43  2  0  0  0  0
 47 48  1  0  0  0  0
 48 51  1  0  0  0  0
 49 52  1  0  0  0  0
 49 47  2  0  0  0  0
 50 51  1  0  0  0  0
 52 50  2  0  0  0  0
M  END
>  <MODEL>
1

>  <REMARK>
 VINA RESULT:      -7.8      0.000      0.000
  Name = 
  18 active torsions:
  status: ('A' for Active; 'I' for Inactive)
    1  A    between atoms: S_1  and  N_11
    2  A    between atoms: S_1  and  O_21
    3  A    between atoms: C_3  and  O_47
    4  A    between atoms: C_9  and  C_32
    5  A    between atoms: C_12  and  C_38
    6  A    between atoms: C_13  and  C_18
    7  A    between atoms: C_14  and  O_30
    8  A    between atoms: C_17  and  C_18
    9  A    between atoms: C_17  and  C_25
   10  A    between atoms: C_19  and  C_34
   11  A    between atoms: C_19  and  C_43
   12  A    between atoms: O_21  and  O_47
   13  A    between atoms: C_22  and  C_52
   14  A    between atoms: N_29  and  C_40
   15  A    between atoms: O_30  and  C_43
   16  A    between atoms: C_38  and  C_41
   17  A    between atoms: C_41  and  N_49
   18  A    between atoms: N_49  and  C_52
                            x       y       z     vdW  Elec       q    Type
                         _______ _______ _______ _____ _____    ______ ____

>  <TORSDO>
F 18

$$$$
=
 OpenBabel11032419583D

 52 57  0  0  1  0  0  0  0  0999 V2000
  189.3100  177.8240  136.3180 C   0  0  0  0  0  3  0  0  0  0  0  0
  186.1190  177.2600  137.3810 O   0  0  0  0  0  0  0  0  0  0  0  0
  185.9350  178.6080  137.6720 N   0  0  0  0  0  0  0  0  0  0  0  0
  190.3040  176.4440  139.6290 C   0  0  2  0  0  3  0  0  0  0  0  0
  191.2680  176.6610  137.6110 C   0  0  0  0  0  0  0  0  0  0  0  0
  189.9190  177.1560  137.4740 C   0  0  0  0  0  0  0  0  0  0  0  0
  191.5070  176.2650  138.8170 N   0  0  0  0  0  0  0  0  0  0  0  0
  187.2410  177.9780  137.6360 C   0  0  2  0  0  0  0  0  0  0  0  0
  189.3310  177.0360  138.6530 C   0  0  0  0  0  0  0  0  0  0  0  0
  188.0380  178.2330  136.3860 C   0  0  0  0  0  3  0  0  0  0  0  0
  187.9540  177.5650  138.9500 C   0  0  0  0  0  2  0  0  0  0  0  0
  185.2120  178.6580  139.2900 S   0  0  0  0  0  0  0  0  0  0  0  0
  184.4520  180.1670  138.9810 O   0  0  0  0  0  0  0  0  0  0  0  0
  183.2740  180.0790  139.5650 O   0  0  0  0  0  0  0  0  0  0  0  0
  182.8470  178.7650  139.3420 C   0  0  1  0  0  3  0  0  0  0  0  0
  181.3910  178.5310  139.6050 C   0  0  2  0  0  3  0  0  0  0  0  0
  181.8940  178.7600  138.3080 O   0  0  0  0  0  0  0  0  0  0  0  0
  180.5170  179.6960  140.0210 C   0  0  0  0  0  0  0  0  0  0  0  0
  180.4410  180.7210  139.3600 O   0  0  0  0  0  0  0  0  0  0  0  0
  179.7640  179.5840  141.3110 C   0  0  2  0  0  3  0  0  0  0  0  0
  179.8500  180.8290  142.0600 N   0  0  0  0  0  1  0  0  0  0  0  0
  179.6300  177.4130  142.2110 O   0  0  0  0  0  0  0  0  0  0  0  0
  180.2760  178.4450  142.1370 C   0  0  0  0  0  0  0  0  0  0  0  0
  181.4640  178.5480  142.7910 F   0  0  0  0  0  0  0  0  0  0  0  0
  192.1930  176.5610  136.5680 O   0  0  0  0  0  0  0  0  0  0  0  0
  192.8190  175.3660  136.2020 C   0  0  0  0  0  0  0  0  0  0  0  0
  192.1180  174.3240  136.0610 O   0  0  0  0  0  0  0  0  0  0  0  0
  194.2940  175.3410  135.9190 C   0  0  1  0  0  3  0  0  0  0  0  0
  194.7520  176.6530  135.2970 C   0  0  0  0  0  1  0  0  0  0  0  0
  196.5060  174.9640  137.1320 N   0  0  0  0  0  1  0  0  0  0  0  0
  195.0800  174.9750  137.1470 C   0  0  0  0  0  0  0  0  0  0  0  0
  194.4760  174.8050  138.2410 O   0  0  0  0  0  0  0  0  0  0  0  0
  190.5760  177.4010  140.7790 C   0  0  0  0  0  2  0  0  0  0  0  0
  190.5230  176.6510  142.1030 C   0  0  0  0  0  2  0  0  0  0  0  0
  191.7370  176.9110  142.8640 N   0  0  0  0  0  2  0  0  0  0  0  0
  191.4730  178.0780  143.6870 C   0  0  0  0  0  2  0  0  0  0  0  0
  189.7390  176.8710  147.4260 C   0  0  0  0  0  3  0  0  0  0  0  0
  191.0590  176.5120  147.1210 C   0  0  0  0  0  3  0  0  0  0  0  0
  189.5610  178.0170  145.2960 C   0  0  0  0  0  3  0  0  0  0  0  0
  191.6290  176.9050  145.9040 C   0  0  0  0  0  3  0  0  0  0  0  0
  190.8810  177.6620  144.9920 C   0  0  0  0  0  0  0  0  0  0  0  0
  188.9880  177.6220  146.5140 C   0  0  0  0  0  0  0  0  0  0  0  0
  186.5570  177.4510  146.0690 C   0  0  0  0  0  0  0  0  0  0  0  0
  187.4110  178.9790  147.7200 O   0  0  0  0  0  1  0  0  0  0  0  0
  187.6430  177.9880  146.8280 N   0  0  0  0  0  0  0  0  0  0  0  0
  186.1430  176.2870  146.3230 O   0  0  0  0  0  0  0  0  0  0  0  0
  184.9360  179.0700  145.2210 C   0  0  0  0  0  3  0  0  0  0  0  0
  184.2830  179.8620  144.1230 C   0  0  0  0  0  2  0  0  0  0  0  0
  185.9540  178.2340  144.9770 C   0  0  0  0  0  0  0  0  0  0  0  0
  185.7310  178.5630  142.5780 C   0  0  0  0  0  3  0  0  0  0  0  0
  184.5760  179.3160  142.8310 O   0  0  0  0  0  0  0  0  0  0  0  0
  186.4200  178.0380  143.5910 C   0  0  0  0  0  3  0  0  0  0  0  0
  1 10  2  0  0  0  0
  1  6  1  0  0  0  0
  2  8  1  0  0  0  0
  2  3  1  0  0  0  0
  3 12  1  0  0  0  0
  4 33  1  1  0  0  0
  5  7  2  0  0  0  0
  6  5  1  0  0  0  0
  6  9  2  0  0  0  0
  7  4  1  0  0  0  0
  8 10  1  6  0  0  0
  8  3  1  0  0  0  0
  8 11  1  0  0  0  0
  9 11  1  0  0  0  0
  9  4  1  0  0  0  0
 13 12  1  0  0  0  0
 13 14  1  0  0  0  0
 15 14  1  1  0  0  0
 15 16  1  0  0  0  0
 16 18  1  1  0  0  0
 17 15  1  0  0  0  0
 17 16  1  0  0  0  0
 18 20  1  0  0  0  0
 19 18  2  0  0  0  0
 20 21  1  1  0  0  0
 20 23  1  0  0  0  0
 23 22  2  0  0  0  0
 23 24  1  0  0  0  0
 25  5  1  0  0  0  0
 26 25  1  0  0  0  0
 27 26  2  0  0  0  0
 28 29  1  1  0  0  0
 28 26  1  0  0  0  0
 28 31  1  0  0  0  0
 30 31  1  0  0  0  0
 31 32  2  0  0  0  0
 33 34  1  0  0  0  0
 34 35  1  0  0  0  0
 35 36  1  0  0  0  0
 36 41  1  0  0  0  0
 38 37  1  0  0  0  0
 39 42  1  0  0  0  0
 40 38  2  0  0  0  0
 41 39  2  0  0  0  0
 41 40  1  0  0  0  0
 42 45  1  0  0  0  0
 42 37  2  0  0  0  0
 43 46  2  0  0  0  0
 43 45  1  0  0  0  0
 45 44  1  0  0  0  0
 48 47  1  0  0  0  0
 49 47  2  0  0  0  0
 49 43  1  0  0  0  0
 50 51  1  0  0  0  0
 50 52  2  0  0  0  0
 51 48  1  0  0  0  0
 52 49  1  0  0  0  0
M  END
>  <MODEL>
2

>  <REMARK>
 VINA RESULT:      -7.5      3.614     10.016
  Name = 
  18 active torsions:
  status: ('A' for Active; 'I' for Inactive)
    1  A    between atoms: S_1  and  N_11
    2  A    between atoms: S_1  and  O_21
    3  A    between atoms: C_3  and  O_47
    4  A    between atoms: C_9  and  C_32
    5  A    between atoms: C_12  and  C_38
    6  A    between atoms: C_13  and  C_18
    7  A    between atoms: C_14  and  O_30
    8  A    between atoms: C_17  and  C_18
    9  A    between atoms: C_17  and  C_25
   10  A    between atoms: C_19  and  C_34
   11  A    between atoms: C_19  and  C_43
   12  A    between atoms: O_21  and  O_47
   13  A    between atoms: C_22  and  C_52
   14  A    between atoms: N_29  and  C_40
   15  A    between atoms: O_30  and  C_43
   16  A    between atoms: C_38  and  C_41
   17  A    between atoms: C_41  and  N_49
   18  A    between atoms: N_49  and  C_52
                            x       y       z     vdW  Elec       q    Type
                         _______ _______ _______ _____ _____    ______ ____

>  <TORSDO>
F 18

$$$$
=
 OpenBabel11032419583D

 52 57  0  0  1  0  0  0  0  0999 V2000
  192.6790  176.8440  139.2880 C   0  0  0  0  0  3  0  0  0  0  0  0
  191.6710  174.9480  136.6370 O   0  0  0  0  0  0  0  0  0  0  0  0
  191.8940  175.9970  135.7510 N   0  0  0  0  0  0  0  0  0  0  0  0
  189.0410  177.1850  140.0010 C   0  0  2  0  0  3  0  0  0  0  0  0
  190.9440  177.3350  141.1870 C   0  0  0  0  0  0  0  0  0  0  0  0
  191.3270  176.9570  139.8470 C   0  0  0  0  0  0  0  0  0  0  0  0
  189.6640  177.4770  141.2910 N   0  0  0  0  0  0  0  0  0  0  0  0
  191.6260  176.1970  137.1630 C   0  0  2  0  0  0  0  0  0  0  0  0
  190.2190  176.8610  139.1310 C   0  0  0  0  0  0  0  0  0  0  0  0
  192.8350  176.4950  138.0060 C   0  0  0  0  0  3  0  0  0  0  0  0
  190.2120  176.6130  137.6460 C   0  0  0  0  0  2  0  0  0  0  0  0
  190.4450  176.0820  134.7320 S   0  0  0  0  0  0  0  0  0  0  0  0
  190.2710  174.3730  134.7160 O   0  0  0  0  0  0  0  0  0  0  0  0
  188.9870  174.1620  134.9250 O   0  0  0  0  0  0  0  0  0  0  0  0
  188.9260  173.0230  135.7360 C   0  0  1  0  0  3  0  0  0  0  0  0
  187.8530  173.0600  136.7820 C   0  0  2  0  0  3  0  0  0  0  0  0
  187.6810  172.3940  135.5510 O   0  0  0  0  0  0  0  0  0  0  0  0
  186.9210  174.2530  136.8450 C   0  0  0  0  0  0  0  0  0  0  0  0
  187.2670  175.3240  137.3210 O   0  0  0  0  0  0  0  0  0  0  0  0
  185.5220  174.0790  136.3400 C   0  0  2  0  0  3  0  0  0  0  0  0
  185.0130  175.3330  135.8070 N   0  0  0  0  0  1  0  0  0  0  0  0
  184.5970  172.3780  137.6810 O   0  0  0  0  0  0  0  0  0  0  0  0
  184.6190  173.5700  137.4210 C   0  0  0  0  0  0  0  0  0  0  0  0
  183.8350  174.4300  138.1250 F   0  0  0  0  0  0  0  0  0  0  0  0
  191.8260  177.4760  142.2620 O   0  0  0  0  0  0  0  0  0  0  0  0
  191.5820  176.9550  143.5360 C   0  0  0  0  0  0  0  0  0  0  0  0
  191.7540  175.7190  143.7370 O   0  0  0  0  0  0  0  0  0  0  0  0
  191.1840  177.8660  144.6610 C   0  0  1  0  0  3  0  0  0  0  0  0
  191.2860  179.3260  144.2430 C   0  0  0  0  0  1  0  0  0  0  0  0
  189.6590  177.0670  146.5440 N   0  0  0  0  0  1  0  0  0  0  0  0
  189.8260  177.5100  145.1990 C   0  0  0  0  0  0  0  0  0  0  0  0
  188.8030  177.7320  144.4940 O   0  0  0  0  0  0  0  0  0  0  0  0
  188.2950  178.4050  139.4810 C   0  0  0  0  0  2  0  0  0  0  0  0
  186.7960  178.1370  139.4830 C   0  0  0  0  0  2  0  0  0  0  0  0
  186.1250  179.1120  140.3300 N   0  0  0  0  0  2  0  0  0  0  0  0
  186.1970  178.6060  141.6900 C   0  0  0  0  0  2  0  0  0  0  0  0
  182.3890  179.0380  143.6270 C   0  0  0  0  0  3  0  0  0  0  0  0
  183.5670  179.2770  144.3450 C   0  0  0  0  0  3  0  0  0  0  0  0
  183.6990  178.5250  141.6520 C   0  0  0  0  0  3  0  0  0  0  0  0
  184.8120  179.1400  143.7170 C   0  0  0  0  0  3  0  0  0  0  0  0
  184.8780  178.7670  142.3680 C   0  0  0  0  0  0  0  0  0  0  0  0
  182.4520  178.6610  142.2800 C   0  0  0  0  0  0  0  0  0  0  0  0
  181.3090  178.0140  140.1800 C   0  0  0  0  0  0  0  0  0  0  0  0
  180.0570  178.7520  142.0980 O   0  0  0  0  0  1  0  0  0  0  0  0
  181.2480  178.4200  141.5490 N   0  0  0  0  0  0  0  0  0  0  0  0
  181.5430  176.8060  139.9040 O   0  0  0  0  0  0  0  0  0  0  0  0
  181.0220  178.6080  137.8270 C   0  0  0  0  0  3  0  0  0  0  0  0
  180.8720  179.5960  136.7040 C   0  0  0  0  0  2  0  0  0  0  0  0
  181.1380  179.0040  139.1020 C   0  0  0  0  0  0  0  0  0  0  0  0
  181.2520  181.3390  138.4320 C   0  0  0  0  0  3  0  0  0  0  0  0
  181.2820  180.9120  137.0980 O   0  0  0  0  0  0  0  0  0  0  0  0
  181.1730  180.4450  139.4170 C   0  0  0  0  0  3  0  0  0  0  0  0
  1  6  1  0  0  0  0
  2  8  1  0  0  0  0
  3  2  1  0  0  0  0
  3  8  1  0  0  0  0
  4 33  1  6  0  0  0
  4  7  1  0  0  0  0
  5  7  2  0  0  0  0
  5 25  1  0  0  0  0
  6  5  1  0  0  0  0
  8 11  1  1  0  0  0
  8 10  1  0  0  0  0
  9  6  2  0  0  0  0
  9  4  1  0  0  0  0
 10  1  2  0  0  0  0
 11  9  1  0  0  0  0
 12  3  1  0  0  0  0
 13 12  1  0  0  0  0
 13 14  1  0  0  0  0
 15 14  1  6  0  0  0
 15 16  1  0  0  0  0
 16 18  1  6  0  0  0
 17 15  1  0  0  0  0
 17 16  1  0  0  0  0
 18 19  2  0  0  0  0
 20 21  1  1  0  0  0
 20 18  1  0  0  0  0
 20 23  1  0  0  0  0
 23 22  2  0  0  0  0
 23 24  1  0  0  0  0
 25 26  1  0  0  0  0
 26 27  2  0  0  0  0
 26 28  1  0  0  0  0
 28 29  1  6  0  0  0
 28 31  1  0  0  0  0
 31 30  1  0  0  0  0
 32 31  2  0  0  0  0
 33 34  1  0  0  0  0
 34 35  1  0  0  0  0
 35 36  1  0  0  0  0
 36 41  1  0  0  0  0
 37 38  1  0  0  0  0
 39 42  1  0  0  0  0
 39 41  2  0  0  0  0
 40 38  2  0  0  0  0
 41 40  1  0  0  0  0
 42 37  2  0  0  0  0
 43 45  1  0  0  0  0
 45 44  1  0  0  0  0
 45 42  1  0  0  0  0
 46 43  2  0  0  0  0
 47 49  2  0  0  0  0
 48 51  1  0  0  0  0
 48 47  1  0  0  0  0
 49 52  1  0  0  0  0
 49 43  1  0  0  0  0
 50 52  2  0  0  0  0
 51 50  1  0  0  0  0
M  END
>  <MODEL>
3

>  <REMARK>
 VINA RESULT:      -7.3      3.464      6.004
  Name = 
  18 active torsions:
  status: ('A' for Active; 'I' for Inactive)
    1  A    between atoms: S_1  and  N_11
    2  A    between atoms: S_1  and  O_21
    3  A    between atoms: C_3  and  O_47
    4  A    between atoms: C_9  and  C_32
    5  A    between atoms: C_12  and  C_38
    6  A    between atoms: C_13  and  C_18
    7  A    between atoms: C_14  and  O_30
    8  A    between atoms: C_17  and  C_18
    9  A    between atoms: C_17  and  C_25
   10  A    between atoms: C_19  and  C_34
   11  A    between atoms: C_19  and  C_43
   12  A    between atoms: O_21  and  O_47
   13  A    between atoms: C_22  and  C_52
   14  A    between atoms: N_29  and  C_40
   15  A    between atoms: O_30  and  C_43
   16  A    between atoms: C_38  and  C_41
   17  A    between atoms: C_41  and  N_49
   18  A    between atoms: N_49  and  C_52
                            x       y       z     vdW  Elec       q    Type
                         _______ _______ _______ _____ _____    ______ ____

>  <TORSDO>
F 18

$$$$
=
 OpenBabel11032419583D

 52 57  0  0  1  0  0  0  0  0999 V2000
  191.4250  177.6570  141.7710 C   0  0  0  0  0  3  0  0  0  0  0  0
  190.9420  175.7560  138.9800 O   0  0  0  0  0  0  0  0  0  0  0  0
  191.1770  176.8460  138.1480 N   0  0  0  0  0  0  0  0  0  0  0  0
  187.7100  177.6530  142.0130 C   0  0  2  0  0  3  0  0  0  0  0  0
  189.4250  177.9380  143.4370 C   0  0  0  0  0  0  0  0  0  0  0  0
  190.0080  177.6340  142.1520 C   0  0  0  0  0  0  0  0  0  0  0  0
  188.1350  177.9620  143.3770 N   0  0  0  0  0  0  0  0  0  0  0  0
  190.7150  176.9810  139.5160 C   0  0  2  0  0  0  0  0  0  0  0  0
  189.0140  177.4600  141.2970 C   0  0  0  0  0  0  0  0  0  0  0  0
  191.7750  177.3610  140.5130 C   0  0  0  0  0  3  0  0  0  0  0  0
  189.2190  177.2550  139.8190 C   0  0  0  0  0  2  0  0  0  0  0  0
  189.8690  176.8300  136.9510 S   0  0  0  0  0  0  0  0  0  0  0  0
  190.5400  175.4790  136.1310 O   0  0  0  0  0  0  0  0  0  0  0  0
  191.7380  175.8740  135.7520 O   0  0  0  0  0  0  0  0  0  0  0  0
  192.2450  174.8280  134.9730 C   0  0  1  0  0  3  0  0  0  0  0  0
  193.6770  174.4830  135.2490 C   0  0  2  0  0  3  0  0  0  0  0  0
  192.6070  173.7610  135.8160 O   0  0  0  0  0  0  0  0  0  0  0  0
  194.4190  175.2260  136.3420 C   0  0  0  0  0  0  0  0  0  0  0  0
  195.0890  176.2210  136.1110 O   0  0  0  0  0  0  0  0  0  0  0  0
  194.3520  174.6780  137.7340 C   0  0  2  0  0  3  0  0  0  0  0  0
  194.4650  175.7520  138.7090 N   0  0  0  0  0  1  0  0  0  0  0  0
  195.4510  173.0360  139.0150 O   0  0  0  0  0  0  0  0  0  0  0  0
  195.4210  173.6550  137.9640 C   0  0  0  0  0  0  0  0  0  0  0  0
  196.3480  173.4000  137.0030 F   0  0  0  0  0  0  0  0  0  0  0  0
  190.1460  178.1250  144.6190 O   0  0  0  0  0  0  0  0  0  0  0  0
  190.7760  177.0890  145.3140 C   0  0  0  0  0  0  0  0  0  0  0  0
  191.8260  176.5760  144.8310 O   0  0  0  0  0  0  0  0  0  0  0  0
  190.2470  176.6400  146.6450 C   0  0  1  0  0  3  0  0  0  0  0  0
  191.3730  176.4880  147.6570 C   0  0  0  0  0  1  0  0  0  0  0  0
  187.7930  177.3330  146.7460 N   0  0  0  0  0  1  0  0  0  0  0  0
  189.1490  177.5470  147.1310 C   0  0  0  0  0  0  0  0  0  0  0  0
  189.4110  178.4270  147.9970 O   0  0  0  0  0  0  0  0  0  0  0  0
  186.9280  178.8160  141.4220 C   0  0  0  0  0  2  0  0  0  0  0  0
  185.5170  178.8370  141.9940 C   0  0  0  0  0  2  0  0  0  0  0  0
  184.5910  179.3560  140.9980 N   0  0  0  0  0  2  0  0  0  0  0  0
  183.5140  178.3880  140.8830 C   0  0  0  0  0  2  0  0  0  0  0  0
  181.8140  178.5680  136.9440 C   0  0  0  0  0  3  0  0  0  0  0  0
  182.8720  177.6880  137.2070 C   0  0  0  0  0  3  0  0  0  0  0  0
  181.8680  179.3190  139.2490 C   0  0  0  0  0  3  0  0  0  0  0  0
  183.4290  177.6250  138.4910 C   0  0  0  0  0  3  0  0  0  0  0  0
  182.9230  178.4390  139.5140 C   0  0  0  0  0  0  0  0  0  0  0  0
  181.3110  179.3850  137.9630 C   0  0  0  0  0  0  0  0  0  0  0  0
  180.1870  181.0000  136.4580 C   0  0  0  0  0  0  0  0  0  0  0  0
  179.3510  180.5820  138.6760 O   0  0  0  0  0  1  0  0  0  0  0  0
  180.2310  180.2800  137.6920 N   0  0  0  0  0  0  0  0  0  0  0  0
  179.7710  180.4190  135.4190 O   0  0  0  0  0  0  0  0  0  0  0  0
  181.1780  182.9880  137.4770 C   0  0  0  0  0  3  0  0  0  0  0  0
  181.6450  184.4170  137.4470 C   0  0  0  0  0  2  0  0  0  0  0  0
  180.6600  182.3940  136.3930 C   0  0  0  0  0  0  0  0  0  0  0  0
  180.6970  184.4840  135.1520 C   0  0  0  0  0  3  0  0  0  0  0  0
  181.0970  185.1290  136.3300 O   0  0  0  0  0  0  0  0  0  0  0  0
  180.4890  183.1690  135.1490 C   0  0  0  0  0  3  0  0  0  0  0  0
  1  6  1  0  0  0  0
  2  8  1  0  0  0  0
  3  2  1  0  0  0  0
  3  8  1  0  0  0  0
  4 33  1  6  0  0  0
  4  7  1  0  0  0  0
  5 25  1  0  0  0  0
  6  5  1  0  0  0  0
  7  5  2  0  0  0  0
  8 11  1  1  0  0  0
  8 10  1  0  0  0  0
  9  4  1  0  0  0  0
  9  6  2  0  0  0  0
 10  1  2  0  0  0  0
 11  9  1  0  0  0  0
 12  3  1  0  0  0  0
 13 12  1  0  0  0  0
 14 13  1  0  0  0  0
 15 16  1  0  0  0  0
 15 14  1  1  0  0  0
 15 17  1  0  0  0  0
 16 17  1  0  0  0  0
 16 18  1  1  0  0  0
 18 20  1  0  0  0  0
 19 18  2  0  0  0  0
 20 23  1  0  0  0  0
 20 21  1  1  0  0  0
 23 22  2  0  0  0  0
 24 23  1  0  0  0  0
 25 26  1  0  0  0  0
 26 28  1  0  0  0  0
 27 26  2  0  0  0  0
 28 31  1  0  0  0  0
 28 29  1  1  0  0  0
 30 31  1  0  0  0  0
 31 32  2  0  0  0  0
 33 34  1  0  0  0  0
 35 34  1  0  0  0  0
 36 35  1  0  0  0  0
 37 38  2  0  0  0  0
 37 42  1  0  0  0  0
 38 40  1  0  0  0  0
 39 41  1  0  0  0  0
 40 41  2  0  0  0  0
 41 36  1  0  0  0  0
 42 39  2  0  0  0  0
 43 45  1  0  0  0  0
 45 42  1  0  0  0  0
 45 44  1  0  0  0  0
 46 43  2  0  0  0  0
 48 47  1  0  0  0  0
 49 43  1  0  0  0  0
 49 47  2  0  0  0  0
 50 51  1  0  0  0  0
 51 48  1  0  0  0  0
 52 50  2  0  0  0  0
 52 49  1  0  0  0  0
M  END
>  <MODEL>
4

>  <REMARK>
 VINA RESULT:      -7.2      3.420      4.808
  Name = 
  18 active torsions:
  status: ('A' for Active; 'I' for Inactive)
    1  A    between atoms: S_1  and  N_11
    2  A    between atoms: S_1  and  O_21
    3  A    between atoms: C_3  and  O_47
    4  A    between atoms: C_9  and  C_32
    5  A    between atoms: C_12  and  C_38
    6  A    between atoms: C_13  and  C_18
    7  A    between atoms: C_14  and  O_30
    8  A    between atoms: C_17  and  C_18
    9  A    between atoms: C_17  and  C_25
   10  A    between atoms: C_19  and  C_34
   11  A    between atoms: C_19  and  C_43
   12  A    between atoms: O_21  and  O_47
   13  A    between atoms: C_22  and  C_52
   14  A    between atoms: N_29  and  C_40
   15  A    between atoms: O_30  and  C_43
   16  A    between atoms: C_38  and  C_41
   17  A    between atoms: C_41  and  N_49
   18  A    between atoms: N_49  and  C_52
                            x       y       z     vdW  Elec       q    Type
                         _______ _______ _______ _____ _____    ______ ____

>  <TORSDO>
F 18

$$$$
=
 OpenBabel11032419583D

 52 57  0  0  1  0  0  0  0  0999 V2000
  190.3740  176.9520  139.8630 C   0  0  0  0  0  3  0  0  0  0  0  0
  188.1920  179.3460  140.9320 O   0  0  0  0  0  0  0  0  0  0  0  0
  187.3660  178.3900  141.5150 N   0  0  0  0  0  0  0  0  0  0  0  0
  188.7700  177.4440  136.5410 C   0  0  2  0  0  3  0  0  0  0  0  0
  190.7480  176.6820  137.2860 C   0  0  0  0  0  0  0  0  0  0  0  0
  190.0120  177.1120  138.4510 C   0  0  0  0  0  0  0  0  0  0  0  0
  190.0640  176.8510  136.2040 N   0  0  0  0  0  0  0  0  0  0  0  0
  188.2690  178.0930  140.4190 C   0  0  2  0  0  0  0  0  0  0  0  0
  188.8420  177.5670  138.0340 C   0  0  0  0  0  0  0  0  0  0  0  0
  189.5460  177.4030  140.8120 C   0  0  0  0  0  3  0  0  0  0  0  0
  187.7370  177.9870  138.9660 C   0  0  0  0  0  2  0  0  0  0  0  0
  185.7200  178.7930  140.9930 S   0  0  0  0  0  0  0  0  0  0  0  0
  185.0900  178.5790  142.5760 O   0  0  0  0  0  0  0  0  0  0  0  0
  186.1400  178.3020  143.3230 O   0  0  0  0  0  0  0  0  0  0  0  0
  185.6300  178.0600  144.6040 C   0  0  1  0  0  3  0  0  0  0  0  0
  186.6220  177.4880  145.5710 C   0  0  2  0  0  3  0  0  0  0  0  0
  186.3170  178.8640  145.5320 O   0  0  0  0  0  0  0  0  0  0  0  0
  188.0540  177.2760  145.1240 C   0  0  0  0  0  0  0  0  0  0  0  0
  188.3500  176.4760  144.2490 O   0  0  0  0  0  0  0  0  0  0  0  0
  189.1300  178.0500  145.8210 C   0  0  2  0  0  3  0  0  0  0  0  0
  190.4010  177.8870  145.1330 N   0  0  0  0  0  1  0  0  0  0  0  0
  189.9040  176.6330  147.5340 O   0  0  0  0  0  0  0  0  0  0  0  0
  189.2570  177.6280  147.2520 C   0  0  0  0  0  0  0  0  0  0  0  0
  188.6680  178.3550  148.2390 F   0  0  0  0  0  0  0  0  0  0  0  0
  192.0590  176.1960  137.3020 O   0  0  0  0  0  0  0  0  0  0  0  0
  192.3810  174.8400  137.3980 C   0  0  0  0  0  0  0  0  0  0  0  0
  191.4780  174.0170  137.7240 O   0  0  0  0  0  0  0  0  0  0  0  0
  193.7630  174.3640  137.0560 C   0  0  1  0  0  3  0  0  0  0  0  0
  194.3660  175.2020  135.9370 C   0  0  0  0  0  1  0  0  0  0  0  0
  195.2190  173.0790  138.7110 N   0  0  0  0  0  1  0  0  0  0  0  0
  194.6400  174.3080  138.2760 C   0  0  0  0  0  0  0  0  0  0  0  0
  194.9770  175.3820  138.8470 O   0  0  0  0  0  0  0  0  0  0  0  0
  187.6370  176.5210  136.1210 C   0  0  0  0  0  2  0  0  0  0  0  0
  188.1990  175.2920  135.4190 C   0  0  0  0  0  2  0  0  0  0  0  0
  187.3930  174.1260  135.7500 N   0  0  0  0  0  2  0  0  0  0  0  0
  186.7150  174.4270  136.9990 C   0  0  0  0  0  2  0  0  0  0  0  0
  182.8240  172.6090  137.0330 C   0  0  0  0  0  3  0  0  0  0  0  0
  183.9580  171.8240  136.7920 C   0  0  0  0  0  3  0  0  0  0  0  0
  184.2330  174.5710  137.2550 C   0  0  0  0  0  3  0  0  0  0  0  0
  185.2300  172.4110  136.7820 C   0  0  0  0  0  3  0  0  0  0  0  0
  185.3670  173.7860  137.0170 C   0  0  0  0  0  0  0  0  0  0  0  0
  182.9580  173.9840  137.2640 C   0  0  0  0  0  0  0  0  0  0  0  0
  181.8090  176.1770  137.1970 C   0  0  0  0  0  0  0  0  0  0  0  0
  180.7650  174.2590  138.2080 O   0  0  0  0  0  1  0  0  0  0  0  0
  181.8000  174.7820  137.5110 N   0  0  0  0  0  0  0  0  0  0  0  0
  181.6240  176.5420  136.0040 O   0  0  0  0  0  0  0  0  0  0  0  0
  181.6460  176.9670  139.5030 C   0  0  0  0  0  3  0  0  0  0  0  0
  181.8750  177.9790  140.5920 C   0  0  0  0  0  2  0  0  0  0  0  0
  182.0700  177.1750  138.2490 C   0  0  0  0  0  0  0  0  0  0  0  0
  182.7620  179.4420  138.7910 C   0  0  0  0  0  3  0  0  0  0  0  0
  182.1830  179.2720  140.0560 O   0  0  0  0  0  0  0  0  0  0  0  0
  182.7320  178.4480  137.9050 C   0  0  0  0  0  3  0  0  0  0  0  0
  1 10  2  0  0  0  0
  2  3  1  0  0  0  0
  4 33  1  1  0  0  0
  4  9  1  0  0  0  0
  5 25  1  0  0  0  0
  5  6  1  0  0  0  0
  6  1  1  0  0  0  0
  7  4  1  0  0  0  0
  7  5  2  0  0  0  0
  8 11  1  6  0  0  0
  8 10  1  0  0  0  0
  8  2  1  0  0  0  0
  8  3  1  0  0  0  0
  9  6  2  0  0  0  0
  9 11  1  0  0  0  0
 12  3  1  0  0  0  0
 12 13  1  0  0  0  0
 13 14  1  0  0  0  0
 15 14  1  6  0  0  0
 15 17  1  0  0  0  0
 15 16  1  0  0  0  0
 16 18  1  6  0  0  0
 17 16  1  0  0  0  0
 18 20  1  0  0  0  0
 19 18  2  0  0  0  0
 20 21  1  6  0  0  0
 20 23  1  0  0  0  0
 23 22  2  0  0  0  0
 23 24  1  0  0  0  0
 25 26  1  0  0  0  0
 26 27  2  0  0  0  0
 28 29  1  6  0  0  0
 28 26  1  0  0  0  0
 28 31  1  0  0  0  0
 31 30  1  0  0  0  0
 31 32  2  0  0  0  0
 34 35  1  0  0  0  0
 34 33  1  0  0  0  0
 35 36  1  0  0  0  0
 36 41  1  0  0  0  0
 37 42  1  0  0  0  0
 38 37  2  0  0  0  0
 39 42  2  0  0  0  0
 40 38  1  0  0  0  0
 40 41  2  0  0  0  0
 41 39  1  0  0  0  0
 42 45  1  0  0  0  0
 43 45  1  0  0  0  0
 43 49  1  0  0  0  0
 45 44  1  0  0  0  0
 46 43  2  0  0  0  0
 47 48  1  0  0  0  0
 49 47  2  0  0  0  0
 50 51  1  0  0  0  0
 51 48  1  0  0  0  0
 52 49  1  0  0  0  0
 52 50  2  0  0  0  0
M  END
>  <MODEL>
5

>  <REMARK>
 VINA RESULT:      -7.1      3.186      7.663
  Name = 
  18 active torsions:
  status: ('A' for Active; 'I' for Inactive)
    1  A    between atoms: S_1  and  N_11
    2  A    between atoms: S_1  and  O_21
    3  A    between atoms: C_3  and  O_47
    4  A    between atoms: C_9  and  C_32
    5  A    between atoms: C_12  and  C_38
    6  A    between atoms: C_13  and  C_18
    7  A    between atoms: C_14  and  O_30
    8  A    between atoms: C_17  and  C_18
    9  A    between atoms: C_17  and  C_25
   10  A    between atoms: C_19  and  C_34
   11  A    between atoms: C_19  and  C_43
   12  A    between atoms: O_21  and  O_47
   13  A    between atoms: C_22  and  C_52
   14  A    between atoms: N_29  and  C_40
   15  A    between atoms: O_30  and  C_43
   16  A    between atoms: C_38  and  C_41
   17  A    between atoms: C_41  and  N_49
   18  A    between atoms: N_49  and  C_52
                            x       y       z     vdW  Elec       q    Type
                         _______ _______ _______ _____ _____    ______ ____

>  <TORSDO>
F 18

$$$$
=
 OpenBabel11032419583D

 52 57  0  0  1  0  0  0  0  0999 V2000
  192.7260  177.1940  140.5960 C   0  0  0  0  0  3  0  0  0  0  0  0
  192.2350  175.1690  137.8950 O   0  0  0  0  0  0  0  0  0  0  0  0
  192.5590  176.1970  137.0150 N   0  0  0  0  0  0  0  0  0  0  0  0
  189.0110  177.4010  140.6990 C   0  0  2  0  0  3  0  0  0  0  0  0
  190.6880  177.6730  142.1690 C   0  0  0  0  0  0  0  0  0  0  0  0
  191.2980  177.2670  140.9250 C   0  0  0  0  0  0  0  0  0  0  0  0
  189.4040  177.7620  142.0600 N   0  0  0  0  0  0  0  0  0  0  0  0
  192.0580  176.4320  138.3560 C   0  0  2  0  0  0  0  0  0  0  0  0
  190.3260  177.0990  140.0440 C   0  0  0  0  0  0  0  0  0  0  0  0
  193.1020  176.8100  139.3700 C   0  0  0  0  0  3  0  0  0  0  0  0
  190.5700  176.8020  138.5880 C   0  0  0  0  0  2  0  0  0  0  0  0
  191.2930  176.1850  135.7730 S   0  0  0  0  0  0  0  0  0  0  0  0
  192.1470  175.0450  134.8130 O   0  0  0  0  0  0  0  0  0  0  0  0
  193.3900  175.1020  135.2470 O   0  0  0  0  0  0  0  0  0  0  0  0
  194.0120  173.9540  134.7430 C   0  0  1  0  0  3  0  0  0  0  0  0
  195.3870  173.7020  135.2830 C   0  0  2  0  0  3  0  0  0  0  0  0
  194.2460  173.0550  135.8000 O   0  0  0  0  0  0  0  0  0  0  0  0
  195.9540  174.6390  136.3300 C   0  0  0  0  0  0  0  0  0  0  0  0
  195.8440  175.8530  136.2440 O   0  0  0  0  0  0  0  0  0  0  0  0
  196.7070  174.0380  137.4760 C   0  0  2  0  0  3  0  0  0  0  0  0
  197.3210  172.7810  137.0780 N   0  0  0  0  0  1  0  0  0  0  0  0
  195.3630  172.7150  138.8850 O   0  0  0  0  0  0  0  0  0  0  0  0
  195.8110  173.8260  138.6580 C   0  0  0  0  0  0  0  0  0  0  0  0
  195.5080  174.8600  139.4870 F   0  0  0  0  0  0  0  0  0  0  0  0
  191.3780  177.8870  143.3660 O   0  0  0  0  0  0  0  0  0  0  0  0
  191.2260  177.0860  144.5000 C   0  0  0  0  0  0  0  0  0  0  0  0
  191.7120  175.9180  144.4970 O   0  0  0  0  0  0  0  0  0  0  0  0
  190.5520  177.6310  145.7260 C   0  0  1  0  0  3  0  0  0  0  0  0
  189.0720  177.8770  145.4710 C   0  0  0  0  0  1  0  0  0  0  0  0
  192.0540  176.7520  147.5920 N   0  0  0  0  0  1  0  0  0  0  0  0
  190.7960  176.7510  146.9210 C   0  0  0  0  0  0  0  0  0  0  0  0
  189.8350  176.1020  147.4190 O   0  0  0  0  0  0  0  0  0  0  0  0
  188.3140  178.5680  140.0180 C   0  0  0  0  0  2  0  0  0  0  0  0
  186.8840  178.1850  139.6610 C   0  0  0  0  0  2  0  0  0  0  0  0
  185.9520  179.0020  140.4220 N   0  0  0  0  0  2  0  0  0  0  0  0
  186.1600  178.6810  141.8230 C   0  0  0  0  0  2  0  0  0  0  0  0
  182.4420  178.9620  143.9540 C   0  0  0  0  0  3  0  0  0  0  0  0
  183.6440  178.8330  144.6620 C   0  0  0  0  0  3  0  0  0  0  0  0
  183.6720  178.9110  141.8650 C   0  0  0  0  0  3  0  0  0  0  0  0
  184.8600  178.7430  143.9720 C   0  0  0  0  0  3  0  0  0  0  0  0
  184.8740  178.7860  142.5710 C   0  0  0  0  0  0  0  0  0  0  0  0
  182.4540  179.0000  142.5540 C   0  0  0  0  0  0  0  0  0  0  0  0
  180.9370  178.2580  140.7420 C   0  0  0  0  0  0  0  0  0  0  0  0
  180.4280  180.2000  142.0680 O   0  0  0  0  0  1  0  0  0  0  0  0
  181.2270  179.1330  141.8340 N   0  0  0  0  0  0  0  0  0  0  0  0
  180.5000  177.0990  140.9790 O   0  0  0  0  0  0  0  0  0  0  0  0
  180.4090  179.6260  138.7880 C   0  0  0  0  0  3  0  0  0  0  0  0
  180.6190  180.0690  137.3670 C   0  0  0  0  0  2  0  0  0  0  0  0
  181.1830  178.6910  139.3560 C   0  0  0  0  0  0  0  0  0  0  0  0
  182.3110  178.2550  137.2460 C   0  0  0  0  0  3  0  0  0  0  0  0
  181.4020  179.1230  136.6280 O   0  0  0  0  0  0  0  0  0  0  0  0
  182.2370  178.0350  138.5580 C   0  0  0  0  0  3  0  0  0  0  0  0
  1  6  1  0  0  0  0
  2  8  1  0  0  0  0
  3  2  1  0  0  0  0
  3  8  1  0  0  0  0
  4 33  1  6  0  0  0
  4  7  1  0  0  0  0
  5 25  1  0  0  0  0
  6  5  1  0  0  0  0
  7  5  2  0  0  0  0
  8 11  1  1  0  0  0
  8 10  1  0  0  0  0
  9  4  1  0  0  0  0
  9  6  2  0  0  0  0
 10  1  2  0  0  0  0
 11  9  1  0  0  0  0
 12  3  1  0  0  0  0
 13 14  1  0  0  0  0
 13 12  1  0  0  0  0
 15 14  1  1  0  0  0
 15 16  1  0  0  0  0
 15 17  1  0  0  0  0
 16 17  1  0  0  0  0
 16 18  1  1  0  0  0
 18 20  1  0  0  0  0
 19 18  2  0  0  0  0
 20 21  1  6  0  0  0
 20 23  1  0  0  0  0
 23 22  2  0  0  0  0
 23 24  1  0  0  0  0
 25 26  1  0  0  0  0
 26 28  1  0  0  0  0
 27 26  2  0  0  0  0
 28 29  1  6  0  0  0
 28 31  1  0  0  0  0
 31 32  2  0  0  0  0
 31 30  1  0  0  0  0
 34 33  1  0  0  0  0
 34 35  1  0  0  0  0
 35 36  1  0  0  0  0
 36 41  1  0  0  0  0
 37 38  1  0  0  0  0
 39 42  1  0  0  0  0
 39 41  2  0  0  0  0
 40 38  2  0  0  0  0
 41 40  1  0  0  0  0
 42 37  2  0  0  0  0
 43 46  2  0  0  0  0
 43 45  1  0  0  0  0
 45 44  1  0  0  0  0
 45 42  1  0  0  0  0
 47 49  2  0  0  0  0
 48 47  1  0  0  0  0
 49 43  1  0  0  0  0
 50 52  2  0  0  0  0
 51 50  1  0  0  0  0
 51 48  1  0  0  0  0
 52 49  1  0  0  0  0
M  END
>  <MODEL>
6

>  <REMARK>
 VINA RESULT:      -7.0      2.224      3.865
  Name = 
  18 active torsions:
  status: ('A' for Active; 'I' for Inactive)
    1  A    between atoms: S_1  and  N_11
    2  A    between atoms: S_1  and  O_21
    3  A    between atoms: C_3  and  O_47
    4  A    between atoms: C_9  and  C_32
    5  A    between atoms: C_12  and  C_38
    6  A    between atoms: C_13  and  C_18
    7  A    between atoms: C_14  and  O_30
    8  A    between atoms: C_17  and  C_18
    9  A    between atoms: C_17  and  C_25
   10  A    between atoms: C_19  and  C_34
   11  A    between atoms: C_19  and  C_43
   12  A    between atoms: O_21  and  O_47
   13  A    between atoms: C_22  and  C_52
   14  A    between atoms: N_29  and  C_40
   15  A    between atoms: O_30  and  C_43
   16  A    between atoms: C_38  and  C_41
   17  A    between atoms: C_41  and  N_49
   18  A    between atoms: N_49  and  C_52
                            x       y       z     vdW  Elec       q    Type
                         _______ _______ _______ _____ _____    ______ ____

>  <TORSDO>
F 18

$$$$
=
 OpenBabel11032419583D

 52 57  0  0  1  0  0  0  0  0999 V2000
  183.4950  177.4150  136.8140 C   0  0  0  0  0  3  0  0  0  0  0  0
  186.7320  177.9090  135.8560 O   0  0  0  0  0  0  0  0  0  0  0  0
  187.0690  176.5990  136.1770 N   0  0  0  0  0  0  0  0  0  0  0  0
  184.4770  179.2490  139.9010 C   0  0  2  0  0  3  0  0  0  0  0  0
  182.5610  178.8450  138.7980 C   0  0  0  0  0  0  0  0  0  0  0  0
  183.6170  178.2560  138.0100 C   0  0  0  0  0  0  0  0  0  0  0  0
  183.0230  179.4000  139.8700 N   0  0  0  0  0  0  0  0  0  0  0  0
  185.9510  177.2980  136.7810 C   0  0  2  0  0  0  0  0  0  0  0  0
  184.7570  178.4840  138.6410 C   0  0  0  0  0  0  0  0  0  0  0  0
  184.5990  176.9410  136.2250 C   0  0  0  0  0  3  0  0  0  0  0  0
  186.0770  177.9120  138.1990 C   0  0  0  0  0  2  0  0  0  0  0  0
  188.5680  176.7040  137.1190 S   0  0  0  0  0  0  0  0  0  0  0  0
  188.9500  175.0550  136.8260 O   0  0  0  0  0  0  0  0  0  0  0  0
  189.5970  175.0570  135.6780 O   0  0  0  0  0  0  0  0  0  0  0  0
  190.0570  173.7460  135.5110 C   0  0  1  0  0  3  0  0  0  0  0  0
  191.5440  173.5910  135.6130 C   0  0  2  0  0  3  0  0  0  0  0  0
  190.6840  173.3230  136.6980 O   0  0  0  0  0  0  0  0  0  0  0  0
  192.3950  174.8040  135.9300 C   0  0  0  0  0  0  0  0  0  0  0  0
  192.8010  175.5590  135.0600 O   0  0  0  0  0  0  0  0  0  0  0  0
  192.7760  175.0400  137.3600 C   0  0  2  0  0  3  0  0  0  0  0  0
  192.5240  176.4230  137.7310 N   0  0  0  0  0  1  0  0  0  0  0  0
  194.8370  175.2680  138.4750 O   0  0  0  0  0  0  0  0  0  0  0  0
  194.2130  174.6920  137.5990 C   0  0  0  0  0  0  0  0  0  0  0  0
  194.8210  173.7270  136.8590 F   0  0  0  0  0  0  0  0  0  0  0  0
  181.2120  178.8740  138.4350 O   0  0  0  0  0  0  0  0  0  0  0  0
  180.1800  178.4080  139.2540 C   0  0  0  0  0  0  0  0  0  0  0  0
  179.7220  179.1680  140.1550 O   0  0  0  0  0  0  0  0  0  0  0  0
  179.5830  177.0500  139.0210 C   0  0  1  0  0  3  0  0  0  0  0  0
  179.9100  176.5440  137.6240 C   0  0  0  0  0  1  0  0  0  0  0  0
  179.3010  176.0420  141.3480 N   0  0  0  0  0  1  0  0  0  0  0  0
  179.9880  176.0830  140.0990 C   0  0  0  0  0  0  0  0  0  0  0  0
  180.8580  175.2050  139.8480 O   0  0  0  0  0  0  0  0  0  0  0  0
  184.9040  178.4590  141.1280 C   0  0  0  0  0  2  0  0  0  0  0  0
  185.6200  179.3740  142.1130 C   0  0  0  0  0  2  0  0  0  0  0  0
  184.8030  179.5460  143.3050 N   0  0  0  0  0  2  0  0  0  0  0  0
  184.7510  178.2540  143.9670 C   0  0  0  0  0  2  0  0  0  0  0  0
  187.8160  178.0380  146.9670 C   0  0  0  0  0  3  0  0  0  0  0  0
  186.4940  178.3170  147.3390 C   0  0  0  0  0  3  0  0  0  0  0  0
  187.1290  177.8960  144.6460 C   0  0  0  0  0  3  0  0  0  0  0  0
  185.4910  178.3870  146.3650 C   0  0  0  0  0  3  0  0  0  0  0  0
  185.8080  178.1720  145.0160 C   0  0  0  0  0  0  0  0  0  0  0  0
  188.1360  177.8270  145.6210 C   0  0  0  0  0  0  0  0  0  0  0  0
  190.1660  178.3870  144.3170 C   0  0  0  0  0  0  0  0  0  0  0  0
  190.0480  176.3700  145.6230 O   0  0  0  0  0  1  0  0  0  0  0  0
  189.4840  177.5400  145.2450 N   0  0  0  0  0  0  0  0  0  0  0  0
  190.6660  179.4710  144.7230 O   0  0  0  0  0  0  0  0  0  0  0  0
  189.1380  177.9110  142.1520 C   0  0  0  0  0  3  0  0  0  0  0  0
  189.1900  177.5090  140.7030 C   0  0  0  0  0  2  0  0  0  0  0  0
  190.2490  178.0170  142.8930 C   0  0  0  0  0  0  0  0  0  0  0  0
  191.6140  177.1270  141.0880 C   0  0  0  0  0  3  0  0  0  0  0  0
  190.4340  176.8790  140.3740 O   0  0  0  0  0  0  0  0  0  0  0  0
  191.5570  177.6820  142.2980 C   0  0  0  0  0  3  0  0  0  0  0  0
  1  6  1  0  0  0  0
  2  3  1  0  0  0  0
  2  8  1  0  0  0  0
  3  8  1  0  0  0  0
  3 12  1  0  0  0  0
  4 33  1  1  0  0  0
  5  7  2  0  0  0  0
  6  9  2  0  0  0  0
  6  5  1  0  0  0  0
  7  4  1  0  0  0  0
  8 10  1  6  0  0  0
  8 11  1  0  0  0  0
  9  4  1  0  0  0  0
 10  1  2  0  0  0  0
 11  9  1  0  0  0  0
 13 12  1  0  0  0  0
 14 13  1  0  0  0  0
 15 16  1  0  0  0  0
 15 14  1  1  0  0  0
 15 17  1  0  0  0  0
 16 18  1  1  0  0  0
 16 17  1  0  0  0  0
 18 20  1  0  0  0  0
 19 18  2  0  0  0  0
 20 23  1  0  0  0  0
 20 21  1  6  0  0  0
 23 22  2  0  0  0  0
 24 23  1  0  0  0  0
 25  5  1  0  0  0  0
 25 26  1  0  0  0  0
 26 27  2  0  0  0  0
 28 29  1  6  0  0  0
 28 26  1  0  0  0  0
 28 31  1  0  0  0  0
 31 30  1  0  0  0  0
 32 31  2  0  0  0  0
 33 34  1  0  0  0  0
 34 35  1  0  0  0  0
 35 36  1  0  0  0  0
 36 41  1  0  0  0  0
 37 38  1  0  0  0  0
 39 41  2  0  0  0  0
 39 42  1  0  0  0  0
 40 38  2  0  0  0  0
 41 40  1  0  0  0  0
 42 37  2  0  0  0  0
 43 46  2  0  0  0  0
 43 45  1  0  0  0  0
 45 42  1  0  0  0  0
 45 44  1  0  0  0  0
 47 49  2  0  0  0  0
 48 47  1  0  0  0  0
 49 43  1  0  0  0  0
 50 52  2  0  0  0  0
 51 48  1  0  0  0  0
 51 50  1  0  0  0  0
 52 49  1  0  0  0  0
M  END
>  <MODEL>
7

>  <REMARK>
 VINA RESULT:      -6.9      2.533      7.499
  Name = 
  18 active torsions:
  status: ('A' for Active; 'I' for Inactive)
    1  A    between atoms: S_1  and  N_11
    2  A    between atoms: S_1  and  O_21
    3  A    between atoms: C_3  and  O_47
    4  A    between atoms: C_9  and  C_32
    5  A    between atoms: C_12  and  C_38
    6  A    between atoms: C_13  and  C_18
    7  A    between atoms: C_14  and  O_30
    8  A    between atoms: C_17  and  C_18
    9  A    between atoms: C_17  and  C_25
   10  A    between atoms: C_19  and  C_34
   11  A    between atoms: C_19  and  C_43
   12  A    between atoms: O_21  and  O_47
   13  A    between atoms: C_22  and  C_52
   14  A    between atoms: N_29  and  C_40
   15  A    between atoms: O_30  and  C_43
   16  A    between atoms: C_38  and  C_41
   17  A    between atoms: C_41  and  N_49
   18  A    between atoms: N_49  and  C_52
                            x       y       z     vdW  Elec       q    Type
                         _______ _______ _______ _____ _____    ______ ____

>  <TORSDO>
F 18

$$$$
=
 OpenBabel11032419583D

 52 57  0  0  1  0  0  0  0  0999 V2000
  190.3870  177.0520  142.1800 C   0  0  0  0  0  3  0  0  0  0  0  0
  189.8640  176.3510  138.8830 O   0  0  0  0  0  0  0  0  0  0  0  0
  190.3640  177.5910  138.4990 N   0  0  0  0  0  0  0  0  0  0  0  0
  186.7220  177.6930  142.2840 C   0  0  2  0  0  3  0  0  0  0  0  0
  188.3100  177.1330  143.7720 C   0  0  0  0  0  0  0  0  0  0  0  0
  188.9570  177.1770  142.4820 C   0  0  0  0  0  0  0  0  0  0  0  0
  187.0560  177.4280  143.6830 N   0  0  0  0  0  0  0  0  0  0  0  0
  189.7990  177.3380  139.8100 C   0  0  2  0  0  0  0  0  0  0  0  0
  188.0380  177.5040  141.5890 C   0  0  0  0  0  0  0  0  0  0  0  0
  190.8040  177.1400  140.9120 C   0  0  0  0  0  3  0  0  0  0  0  0
  188.3500  177.7800  140.1430 C   0  0  0  0  0  2  0  0  0  0  0  0
  189.1980  178.2410  137.3320 S   0  0  0  0  0  0  0  0  0  0  0  0
  189.3320  176.8590  136.3210 O   0  0  0  0  0  0  0  0  0  0  0  0
  190.5880  176.8520  135.9230 O   0  0  0  0  0  0  0  0  0  0  0  0
  190.7800  175.6030  135.3220 C   0  0  1  0  0  3  0  0  0  0  0  0
  192.1630  175.0460  135.4710 C   0  0  2  0  0  3  0  0  0  0  0  0
  191.1020  174.6600  136.3140 O   0  0  0  0  0  0  0  0  0  0  0  0
  193.1900  175.8200  136.2730 C   0  0  0  0  0  0  0  0  0  0  0  0
  193.9420  176.6310  135.7560 O   0  0  0  0  0  0  0  0  0  0  0  0
  193.2980  175.5310  137.7390 C   0  0  2  0  0  3  0  0  0  0  0  0
  193.5370  176.7580  138.4830 N   0  0  0  0  0  1  0  0  0  0  0  0
  195.4230  174.9070  138.5380 O   0  0  0  0  0  0  0  0  0  0  0  0
  194.3850  174.5380  138.0140 C   0  0  0  0  0  0  0  0  0  0  0  0
  194.2150  173.2260  137.6980 F   0  0  0  0  0  0  0  0  0  0  0  0
  188.9320  176.7610  144.9670 O   0  0  0  0  0  0  0  0  0  0  0  0
  189.6950  177.6340  145.7470 C   0  0  0  0  0  0  0  0  0  0  0  0
  190.2310  178.6380  145.1960 O   0  0  0  0  0  0  0  0  0  0  0  0
  189.8180  177.4150  147.2270 C   0  0  1  0  0  3  0  0  0  0  0  0
  188.6040  176.6770  147.7720 C   0  0  0  0  0  1  0  0  0  0  0  0
  191.4040  175.4200  147.1050 N   0  0  0  0  0  1  0  0  0  0  0  0
  191.1140  176.7350  147.5730 C   0  0  0  0  0  0  0  0  0  0  0  0
  192.0140  177.3860  148.1730 O   0  0  0  0  0  0  0  0  0  0  0  0
  186.2130  179.1160  142.1180 C   0  0  0  0  0  2  0  0  0  0  0  0
  184.9700  179.3270  142.9720 C   0  0  0  0  0  2  0  0  0  0  0  0
  183.8470  178.6060  142.3900 N   0  0  0  0  0  2  0  0  0  0  0  0
  183.7580  179.0190  141.0010 C   0  0  0  0  0  2  0  0  0  0  0  0
  180.8680  176.6080  138.9330 C   0  0  0  0  0  3  0  0  0  0  0  0
  180.4940  177.3080  140.0880 C   0  0  0  0  0  3  0  0  0  0  0  0
  183.1180  177.4890  139.1310 C   0  0  0  0  0  3  0  0  0  0  0  0
  181.4330  178.0970  140.7650 C   0  0  0  0  0  3  0  0  0  0  0  0
  182.7460  178.1910  140.2830 C   0  0  0  0  0  0  0  0  0  0  0  0
  182.1800  176.6970  138.4520 C   0  0  0  0  0  0  0  0  0  0  0  0
  183.0080  174.6320  137.3650 C   0  0  0  0  0  0  0  0  0  0  0  0
  182.6620  176.6470  136.0980 O   0  0  0  0  0  1  0  0  0  0  0  0
  182.5570  175.9850  137.2730 N   0  0  0  0  0  0  0  0  0  0  0  0
  182.1600  173.7050  137.4750 O   0  0  0  0  0  0  0  0  0  0  0  0
  185.3460  175.2670  137.0460 C   0  0  0  0  0  3  0  0  0  0  0  0
  186.8210  174.9780  137.0180 C   0  0  0  0  0  2  0  0  0  0  0  0
  184.4500  174.3260  137.3720 C   0  0  0  0  0  0  0  0  0  0  0  0
  186.1770  172.6170  137.4430 C   0  0  0  0  0  3  0  0  0  0  0  0
  187.0830  173.5700  136.9580 O   0  0  0  0  0  0  0  0  0  0  0  0
  184.9070  172.9530  137.6610 C   0  0  0  0  0  3  0  0  0  0  0  0
  1  6  1  0  0  0  0
  2  8  1  0  0  0  0
  3  2  1  0  0  0  0
  3  8  1  0  0  0  0
  4 33  1  1  0  0  0
  4  7  1  0  0  0  0
  5 25  1  0  0  0  0
  6  5  1  0  0  0  0
  7  5  2  0  0  0  0
  8 11  1  1  0  0  0
  8 10  1  0  0  0  0
  9  4  1  0  0  0  0
  9  6  2  0  0  0  0
 10  1  2  0  0  0  0
 11  9  1  0  0  0  0
 12  3  1  0  0  0  0
 13 12  1  0  0  0  0
 14 13  1  0  0  0  0
 15 16  1  0  0  0  0
 15 14  1  1  0  0  0
 15 17  1  0  0  0  0
 16 18  1  1  0  0  0
 16 17  1  0  0  0  0
 18 20  1  0  0  0  0
 19 18  2  0  0  0  0
 20 23  1  0  0  0  0
 20 21  1  1  0  0  0
 23 22  2  0  0  0  0
 24 23  1  0  0  0  0
 25 26  1  0  0  0  0
 26 28  1  0  0  0  0
 27 26  2  0  0  0  0
 28 31  1  0  0  0  0
 28 29  1  6  0  0  0
 30 31  1  0  0  0  0
 31 32  2  0  0  0  0
 33 34  1  0  0  0  0
 35 34  1  0  0  0  0
 36 35  1  0  0  0  0
 37 38  1  0  0  0  0
 38 40  2  0  0  0  0
 39 41  2  0  0  0  0
 41 40  1  0  0  0  0
 41 36  1  0  0  0  0
 42 37  2  0  0  0  0
 42 39  1  0  0  0  0
 43 49  1  0  0  0  0
 43 46  2  0  0  0  0
 44 45  1  0  0  0  0
 45 43  1  0  0  0  0
 45 42  1  0  0  0  0
 47 49  2  0  0  0  0
 48 47  1  0  0  0  0
 49 52  1  0  0  0  0
 50 52  2  0  0  0  0
 51 48  1  0  0  0  0
 51 50  1  0  0  0  0
M  END
>  <MODEL>
8

>  <REMARK>
 VINA RESULT:      -6.9      2.735      4.886
  Name = 
  18 active torsions:
  status: ('A' for Active; 'I' for Inactive)
    1  A    between atoms: S_1  and  N_11
    2  A    between atoms: S_1  and  O_21
    3  A    between atoms: C_3  and  O_47
    4  A    between atoms: C_9  and  C_32
    5  A    between atoms: C_12  and  C_38
    6  A    between atoms: C_13  and  C_18
    7  A    between atoms: C_14  and  O_30
    8  A    between atoms: C_17  and  C_18
    9  A    between atoms: C_17  and  C_25
   10  A    between atoms: C_19  and  C_34
   11  A    between atoms: C_19  and  C_43
   12  A    between atoms: O_21  and  O_47
   13  A    between atoms: C_22  and  C_52
   14  A    between atoms: N_29  and  C_40
   15  A    between atoms: O_30  and  C_43
   16  A    between atoms: C_38  and  C_41
   17  A    between atoms: C_41  and  N_49
   18  A    between atoms: N_49  and  C_52
                            x       y       z     vdW  Elec       q    Type
                         _______ _______ _______ _____ _____    ______ ____

>  <TORSDO>
F 18

$$$$
=
 OpenBabel11032419583D

 52 57  0  0  1  0  0  0  0  0999 V2000
  187.3630  177.1160  144.4140 C   0  0  0  0  0  3  0  0  0  0  0  0
  185.1910  179.4760  143.2510 O   0  0  0  0  0  0  0  0  0  0  0  0
  184.3330  178.5000  142.7560 N   0  0  0  0  0  0  0  0  0  0  0  0
  189.3840  177.9730  141.4080 C   0  0  2  0  0  3  0  0  0  0  0  0
  189.7880  177.0740  143.4280 C   0  0  0  0  0  0  0  0  0  0  0  0
  188.3860  177.4200  143.4080 C   0  0  0  0  0  0  0  0  0  0  0  0
  190.3640  177.3690  142.3100 N   0  0  0  0  0  0  0  0  0  0  0  0
  185.7510  178.2750  142.9630 C   0  0  2  0  0  0  0  0  0  0  0  0
  188.1270  177.9540  142.2260 C   0  0  0  0  0  0  0  0  0  0  0  0
  186.0990  177.5060  144.2080 C   0  0  0  0  0  3  0  0  0  0  0  0
  186.7400  178.3240  141.7710 C   0  0  0  0  0  2  0  0  0  0  0  0
  183.9260  179.0090  141.1060 S   0  0  0  0  0  0  0  0  0  0  0  0
  182.7110  177.8040  140.9590 O   0  0  0  0  0  0  0  0  0  0  0  0
  183.1690  176.9720  140.0450 O   0  0  0  0  0  0  0  0  0  0  0  0
  183.2440  177.7210  138.8660 C   0  0  1  0  0  3  0  0  0  0  0  0
  183.0150  176.9320  137.6120 C   0  0  2  0  0  3  0  0  0  0  0  0
  181.9940  177.6910  138.2210 O   0  0  0  0  0  0  0  0  0  0  0  0
  182.6780  175.4590  137.7160 C   0  0  0  0  0  0  0  0  0  0  0  0
  181.5370  175.0640  137.8970 O   0  0  0  0  0  0  0  0  0  0  0  0
  183.8040  174.4740  137.6340 C   0  0  2  0  0  3  0  0  0  0  0  0
  184.9790  175.0930  137.0410 N   0  0  0  0  0  1  0  0  0  0  0  0
  183.9200  173.0450  135.7660 O   0  0  0  0  0  0  0  0  0  0  0  0
  183.4040  173.2620  136.8510 C   0  0  0  0  0  0  0  0  0  0  0  0
  182.4820  172.3950  137.3460 F   0  0  0  0  0  0  0  0  0  0  0  0
  190.4660  176.5430  144.5290 O   0  0  0  0  0  0  0  0  0  0  0  0
  191.2110  177.3150  145.4240 C   0  0  0  0  0  0  0  0  0  0  0  0
  191.9300  178.2530  144.9750 O   0  0  0  0  0  0  0  0  0  0  0  0
  191.1040  177.0720  146.9020 C   0  0  1  0  0  3  0  0  0  0  0  0
  189.6680  176.7640  147.3020 C   0  0  0  0  0  1  0  0  0  0  0  0
  192.4470  174.9430  146.4900 N   0  0  0  0  0  1  0  0  0  0  0  0
  192.0720  176.0130  147.3540 C   0  0  0  0  0  0  0  0  0  0  0  0
  192.6630  176.1460  148.4610 O   0  0  0  0  0  0  0  0  0  0  0  0
  189.2320  177.1340  140.1490 C   0  0  0  0  0  2  0  0  0  0  0  0
  189.0850  178.0420  138.9340 C   0  0  0  0  0  2  0  0  0  0  0  0
  188.5170  177.2900  137.8250 N   0  0  0  0  0  2  0  0  0  0  0  0
  189.4980  177.3160  136.7550 C   0  0  0  0  0  2  0  0  0  0  0  0
  192.2050  174.0070  137.1660 C   0  0  0  0  0  3  0  0  0  0  0  0
  190.8430  173.7700  136.9380 C   0  0  0  0  0  3  0  0  0  0  0  0
  191.7940  176.3960  137.1180 C   0  0  0  0  0  3  0  0  0  0  0  0
  189.9560  174.8460  136.8020 C   0  0  0  0  0  3  0  0  0  0  0  0
  190.4330  176.1610  136.8880 C   0  0  0  0  0  0  0  0  0  0  0  0
  192.6830  175.3200  137.2570 C   0  0  0  0  0  0  0  0  0  0  0  0
  194.9950  175.5340  136.3960 C   0  0  0  0  0  0  0  0  0  0  0  0
  194.5370  175.6260  138.7560 O   0  0  0  0  0  1  0  0  0  0  0  0
  194.0720  175.5590  137.4870 N   0  0  0  0  0  0  0  0  0  0  0  0
  195.0970  176.5460  135.6500 O   0  0  0  0  0  0  0  0  0  0  0  0
  195.2880  173.3340  135.3730 C   0  0  0  0  0  3  0  0  0  0  0  0
  196.0670  172.0780  135.0980 C   0  0  0  0  0  2  0  0  0  0  0  0
  195.7920  174.3250  136.1220 C   0  0  0  0  0  0  0  0  0  0  0  0
  197.7430  172.9900  136.6890 C   0  0  0  0  0  3  0  0  0  0  0  0
  197.1440  171.9090  136.0290 O   0  0  0  0  0  0  0  0  0  0  0  0
  197.1220  174.1680  136.7410 C   0  0  0  0  0  3  0  0  0  0  0  0
  3  8  1  0  0  0  0
  3  2  1  0  0  0  0
  4 33  1  6  0  0  0
  4  9  1  0  0  0  0
  4  7  1  0  0  0  0
  5 25  1  0  0  0  0
  6  5  1  0  0  0  0
  6  1  1  0  0  0  0
  7  5  2  0  0  0  0
  8 11  1  6  0  0  0
  8  2  1  0  0  0  0
  8 10  1  0  0  0  0
  9  6  2  0  0  0  0
 10  1  2  0  0  0  0
 11  9  1  0  0  0  0
 12  3  1  0  0  0  0
 13 12  1  0  0  0  0
 14 13  1  0  0  0  0
 15 14  1  1  0  0  0
 16 18  1  1  0  0  0
 16 17  1  0  0  0  0
 16 15  1  0  0  0  0
 17 15  1  0  0  0  0
 18 19  2  0  0  0  0
 20 21  1  6  0  0  0
 20 18  1  0  0  0  0
 22 23  2  0  0  0  0
 23 24  1  0  0  0  0
 23 20  1  0  0  0  0
 25 26  1  0  0  0  0
 26 28  1  0  0  0  0
 27 26  2  0  0  0  0
 28 29  1  6  0  0  0
 28 31  1  0  0  0  0
 30 31  1  0  0  0  0
 31 32  2  0  0  0  0
 34 33  1  0  0  0  0
 35 34  1  0  0  0  0
 36 41  1  0  0  0  0
 36 35  1  0  0  0  0
 37 42  1  0  0  0  0
 38 37  2  0  0  0  0
 39 42  2  0  0  0  0
 40 41  2  0  0  0  0
 40 38  1  0  0  0  0
 41 39  1  0  0  0  0
 42 45  1  0  0  0  0
 43 45  1  0  0  0  0
 45 44  1  0  0  0  0
 46 43  2  0  0  0  0
 47 49  2  0  0  0  0
 48 47  1  0  0  0  0
 48 51  1  0  0  0  0
 49 43  1  0  0  0  0
 49 52  1  0  0  0  0
 50 52  2  0  0  0  0
 51 50  1  0  0  0  0
M  END
>  <MODEL>
9

>  <REMARK>
 VINA RESULT:      -6.8      3.563     10.209
  Name = 
  18 active torsions:
  status: ('A' for Active; 'I' for Inactive)
    1  A    between atoms: S_1  and  N_11
    2  A    between atoms: S_1  and  O_21
    3  A    between atoms: C_3  and  O_47
    4  A    between atoms: C_9  and  C_32
    5  A    between atoms: C_12  and  C_38
    6  A    between atoms: C_13  and  C_18
    7  A    between atoms: C_14  and  O_30
    8  A    between atoms: C_17  and  C_18
    9  A    between atoms: C_17  and  C_25
   10  A    between atoms: C_19  and  C_34
   11  A    between atoms: C_19  and  C_43
   12  A    between atoms: O_21  and  O_47
   13  A    between atoms: C_22  and  C_52
   14  A    between atoms: N_29  and  C_40
   15  A    between atoms: O_30  and  C_43
   16  A    between atoms: C_38  and  C_41
   17  A    between atoms: C_41  and  N_49
   18  A    between atoms: N_49  and  C_52
                            x       y       z     vdW  Elec       q    Type
                         _______ _______ _______ _____ _____    ______ ____

>  <TORSDO>
F 18

$$$$
