=
 OpenBabel11042410433D

 38 41  0  0  1  0  0  0  0  0999 V2000
  189.1480  178.1170  139.5880 O   0  0  0  0  0  0  0  0  0  0  0  0
  188.0250  178.5440  140.3220 C   0  0  0  0  0  2  0  0  0  0  0  0
  185.8500  180.0750  142.6600 C   0  0  0  0  0  1  0  0  0  0  0  0
  190.0390  177.4890  140.4910 C   0  0  1  0  0  3  0  0  0  0  0  0
  190.0360  177.5640  142.8680 O   0  0  0  0  0  1  0  0  0  0  0  0
  189.3110  177.1050  141.7680 C   0  0  1  0  0  3  0  0  0  0  0  0
  185.4720  177.9220  144.0360 C   0  0  2  0  0  3  0  0  0  0  0  0
  186.8260  177.3070  143.9060 C   0  0  0  0  0  2  0  0  0  0  0  0
  187.0880  177.9010  142.5320 C   0  0  0  0  0  0  0  0  0  0  0  0
  185.7160  178.5400  142.6770 C   0  0  2  0  0  0  0  0  0  0  0  0
  188.0720  177.8650  141.6280 C   0  0  0  0  0  0  0  0  0  0  0  0
  184.7390  177.9340  141.6440 C   0  0  2  0  0  3  0  0  0  0  0  0
  184.5780  178.7780  140.3860 C   0  0  2  0  0  3  0  0  0  0  0  0
  182.7750  177.8350  139.3990 C   0  0  1  0  0  3  0  0  0  0  0  0
  183.4980  178.7920  141.4520 C   0  0  1  0  0  3  0  0  0  0  0  0
  184.1720  177.9610  139.3120 O   0  0  0  0  0  0  0  0  0  0  0  0
  182.3830  177.9900  140.8490 C   0  0  0  0  0  2  0  0  0  0  0  0
  182.1610  178.8320  138.6330 O   0  0  0  0  0  0  0  0  0  0  0  0
  180.8290  178.8380  139.0550 C   0  0  0  0  0  2  0  0  0  0  0  0
  180.2360  180.2290  138.8810 C   0  0  0  0  0  2  0  0  0  0  0  0
  181.2390  181.9720  137.6400 O   0  0  0  0  0  0  0  0  0  0  0  0
  181.3080  181.2380  138.6130 C   0  0  0  0  0  3  0  0  0  0  0  0
  190.6130  176.3050  139.8700 N   0  0  0  0  0  2  0  0  0  0  0  0
  189.9530  176.1190  138.5880 C   0  0  0  0  0  2  0  0  0  0  0  0
  190.6360  175.0830  137.8300 N   0  0  0  0  0  2  0  0  0  0  0  0
  190.1910  176.5480  135.9430 C   0  0  0  0  0  1  0  0  0  0  0  0
  191.2350  175.7260  136.6720 C   0  0  0  0  0  2  0  0  0  0  0  0
  185.4620  178.8940  145.2140 C   0  0  0  0  0  2  0  0  0  0  0  0
  184.5710  178.2760  147.3440 O   0  0  0  0  0  1  0  0  0  0  0  0
  185.6900  178.1470  146.5210 C   0  0  2  0  0  3  0  0  0  0  0  0
  186.9080  178.7130  147.2410 C   0  0  0  0  0  2  0  0  0  0  0  0
  188.3060  178.2600  149.1470 O   0  0  0  0  0  1  0  0  0  0  0  0
  187.6520  177.6610  148.0690 C   0  0  2  0  0  3  0  0  0  0  0  0
  188.6490  176.8620  147.2360 C   0  0  0  0  0  2  0  0  0  0  0  0
  189.4510  177.7690  146.3150 C   0  0  0  0  0  2  0  0  0  0  0  0
  190.7480  177.2800  146.1670 O   0  0  0  0  0  0  0  0  0  0  0  0
  190.9430  176.4620  147.2790 C   0  0  0  0  0  2  0  0  0  0  0  0
  192.2550  175.7200  147.1360 C   0  0  0  0  0  1  0  0  0  0  0  0
  1  2  1  0  0  0  0
  1  4  1  0  0  0  0
  2 11  1  0  0  0  0
  4 23  1  6  0  0  0
  4  6  1  0  0  0  0
  6  5  1  1  0  0  0
  7 28  1  1  0  0  0
  8  7  1  0  0  0  0
  9 10  1  0  0  0  0
  9  8  1  0  0  0  0
 10  3  1  1  0  0  0
 10  7  1  0  0  0  0
 11  6  1  0  0  0  0
 11  9  2  0  0  0  0
 12 10  1  1  0  0  0
 13 16  1  6  0  0  0
 13 15  1  0  0  0  0
 13 12  1  0  0  0  0
 14 18  1  6  0  0  0
 14 17  1  0  0  0  0
 15 17  1  6  0  0  0
 15 12  1  0  0  0  0
 16 14  1  0  0  0  0
 18 19  1  0  0  0  0
 20 19  1  0  0  0  0
 21 22  2  0  0  0  0
 22 20  1  0  0  0  0
 24 23  1  0  0  0  0
 25 24  1  0  0  0  0
 26 27  1  0  0  0  0
 27 25  1  0  0  0  0
 28 30  1  0  0  0  0
 30 31  1  0  0  0  0
 30 29  1  1  0  0  0
 31 33  1  0  0  0  0
 33 32  1  1  0  0  0
 34 33  1  0  0  0  0
 35 34  1  0  0  0  0
 36 35  1  0  0  0  0
 36 37  1  0  0  0  0
 38 37  1  0  0  0  0
M  END
>  <MODEL>
1

>  <REMARK>
 VINA RESULT:      -6.5      0.000      0.000
  Name = 
  17 active torsions:
  status: ('A' for Active; 'I' for Inactive)
    1  A    between atoms: C_3  and  C_5
    2  A    between atoms: C_3  and  C_30
    3  A    between atoms: C_4  and  N_31
    4  A    between atoms: C_4  and  N_33
    5  A    between atoms: C_5  and  O_11
    6  A    between atoms: C_6  and  C_20
    7  A    between atoms: C_6  and  C_24
    8  A    between atoms: C_9  and  C_37
    9  A    between atoms: C_10  and  C_35
   10  A    between atoms: O_11  and  C_15
   11  A    between atoms: C_16  and  O_26
   12  A    between atoms: C_16  and  C_35
   13  A    between atoms: C_17  and  N_33
   14  A    between atoms: C_23  and  O_26
   15  A    between atoms: C_24  and  C_34
   16  A    between atoms: C_28  and  N_31
   17  A    between atoms: C_30  and  C_34
                            x       y       z     vdW  Elec       q    Type
                         _______ _______ _______ _____ _____    ______ ____

>  <TORSDO>
F 17

$$$$
=
 OpenBabel11042410433D

 38 41  0  0  1  0  0  0  0  0999 V2000
  183.0980  178.6290  144.5280 O   0  0  0  0  0  0  0  0  0  0  0  0
  182.9030  178.4970  143.1390 C   0  0  0  0  0  2  0  0  0  0  0  0
  182.8140  177.3340  139.7960 C   0  0  0  0  0  1  0  0  0  0  0  0
  184.4800  178.4600  144.7850 C   0  0  1  0  0  3  0  0  0  0  0  0
  186.1560  177.5710  143.3520 O   0  0  0  0  0  1  0  0  0  0  0  0
  185.2810  178.6470  143.5090 C   0  0  1  0  0  3  0  0  0  0  0  0
  184.7780  178.8140  139.0060 C   0  0  2  0  0  3  0  0  0  0  0  0
  185.6130  178.7950  140.2440 C   0  0  0  0  0  2  0  0  0  0  0  0
  184.4220  178.6650  141.1800 C   0  0  0  0  0  0  0  0  0  0  0  0
  183.5780  178.6670  139.9160 C   0  0  2  0  0  0  0  0  0  0  0  0
  184.2260  178.5890  142.5000 C   0  0  0  0  0  0  0  0  0  0  0  0
  182.7170  179.9490  139.8570 C   0  0  2  0  0  3  0  0  0  0  0  0
  181.3120  179.7180  139.3150 C   0  0  2  0  0  3  0  0  0  0  0  0
  180.5840  181.8270  138.9460 C   0  0  1  0  0  3  0  0  0  0  0  0
  182.3720  180.3480  138.4300 C   0  0  1  0  0  3  0  0  0  0  0  0
  180.4440  180.7180  139.7990 O   0  0  0  0  0  0  0  0  0  0  0  0
  181.9750  181.7930  138.3620 C   0  0  0  0  0  2  0  0  0  0  0  0
  179.6360  181.7590  137.9200 O   0  0  0  0  0  0  0  0  0  0  0  0
  179.5700  183.0560  137.4060 C   0  0  0  0  0  2  0  0  0  0  0  0
  179.9240  183.0470  135.9260 C   0  0  0  0  0  2  0  0  0  0  0  0
  181.5320  184.6880  136.4780 O   0  0  0  0  0  0  0  0  0  0  0  0
  180.8790  184.1520  135.5980 C   0  0  0  0  0  3  0  0  0  0  0  0
  184.9130  179.4190  145.7900 N   0  0  0  0  0  2  0  0  0  0  0  0
  185.6540  178.6870  146.8040 C   0  0  0  0  0  2  0  0  0  0  0  0
  187.0450  178.5590  146.4010 N   0  0  0  0  0  2  0  0  0  0  0  0
  187.9910  177.9770  148.5630 C   0  0  0  0  0  1  0  0  0  0  0  0
  187.6160  177.4750  147.1820 C   0  0  0  0  0  2  0  0  0  0  0  0
  185.1110  177.5980  138.1450 C   0  0  0  0  0  2  0  0  0  0  0  0
  185.8710  177.5520  135.8800 O   0  0  0  0  0  1  0  0  0  0  0  0
  186.2350  177.9260  137.1730 C   0  0  2  0  0  3  0  0  0  0  0  0
  187.5040  177.1820  137.5700 C   0  0  0  0  0  2  0  0  0  0  0  0
  188.5980  179.3260  137.5850 O   0  0  0  0  0  1  0  0  0  0  0  0
  188.5460  178.0890  138.2310 C   0  0  2  0  0  3  0  0  0  0  0  0
  189.9340  177.4600  138.2590 C   0  0  0  0  0  2  0  0  0  0  0  0
  190.2240  176.8210  139.6090 C   0  0  0  0  0  2  0  0  0  0  0  0
  191.1600  177.5820  140.3100 O   0  0  0  0  0  0  0  0  0  0  0  0
  191.0040  177.1920  141.6390 C   0  0  0  0  0  2  0  0  0  0  0  0
  189.5360  176.9630  141.9280 C   0  0  0  0  0  1  0  0  0  0  0  0
  1  4  1  0  0  0  0
  2  1  1  0  0  0  0
  4 23  1  1  0  0  0
  6  5  1  6  0  0  0
  6  4  1  0  0  0  0
  7 28  1  6  0  0  0
  7 10  1  0  0  0  0
  7  8  1  0  0  0  0
  8  9  1  0  0  0  0
  9 11  2  0  0  0  0
 10  3  1  6  0  0  0
 10  9  1  0  0  0  0
 11  2  1  0  0  0  0
 11  6  1  0  0  0  0
 12 10  1  6  0  0  0
 13 16  1  1  0  0  0
 13 12  1  0  0  0  0
 14 18  1  6  0  0  0
 14 16  1  0  0  0  0
 15 17  1  1  0  0  0
 15 13  1  0  0  0  0
 15 12  1  0  0  0  0
 17 14  1  0  0  0  0
 19 18  1  0  0  0  0
 20 19  1  0  0  0  0
 22 20  1  0  0  0  0
 22 21  2  0  0  0  0
 23 24  1  0  0  0  0
 25 24  1  0  0  0  0
 25 27  1  0  0  0  0
 27 26  1  0  0  0  0
 30 29  1  6  0  0  0
 30 31  1  0  0  0  0
 30 28  1  0  0  0  0
 31 33  1  0  0  0  0
 33 32  1  6  0  0  0
 33 34  1  0  0  0  0
 34 35  1  0  0  0  0
 35 36  1  0  0  0  0
 36 37  1  0  0  0  0
 37 38  1  0  0  0  0
M  END
>  <MODEL>
2

>  <REMARK>
 VINA RESULT:      -5.8      3.110      7.006
  Name = 
  17 active torsions:
  status: ('A' for Active; 'I' for Inactive)
    1  A    between atoms: C_3  and  C_5
    2  A    between atoms: C_3  and  C_30
    3  A    between atoms: C_4  and  N_31
    4  A    between atoms: C_4  and  N_33
    5  A    between atoms: C_5  and  O_11
    6  A    between atoms: C_6  and  C_20
    7  A    between atoms: C_6  and  C_24
    8  A    between atoms: C_9  and  C_37
    9  A    between atoms: C_10  and  C_35
   10  A    between atoms: O_11  and  C_15
   11  A    between atoms: C_16  and  O_26
   12  A    between atoms: C_16  and  C_35
   13  A    between atoms: C_17  and  N_33
   14  A    between atoms: C_23  and  O_26
   15  A    between atoms: C_24  and  C_34
   16  A    between atoms: C_28  and  N_31
   17  A    between atoms: C_30  and  C_34
                            x       y       z     vdW  Elec       q    Type
                         _______ _______ _______ _____ _____    ______ ____

>  <TORSDO>
F 17

$$$$
=
 OpenBabel11042410433D

 38 41  0  0  1  0  0  0  0  0999 V2000
  193.5840  175.0610  137.5780 O   0  0  0  0  0  0  0  0  0  0  0  0
  192.2500  175.3230  137.9460 C   0  0  0  0  0  2  0  0  0  0  0  0
  188.7160  175.4410  138.1320 C   0  0  0  0  0  1  0  0  0  0  0  0
  193.7500  175.4820  136.2370 C   0  0  1  0  0  3  0  0  0  0  0  0
  192.0770  176.0150  134.6330 O   0  0  0  0  0  1  0  0  0  0  0  0
  192.6350  176.4350  135.8410 C   0  0  1  0  0  3  0  0  0  0  0  0
  188.5340  177.8340  137.1770 C   0  0  2  0  0  3  0  0  0  0  0  0
  189.6680  177.7970  136.2060 C   0  0  0  0  0  2  0  0  0  0  0  0
  190.4920  176.8220  137.0320 C   0  0  0  0  0  0  0  0  0  0  0  0
  189.3270  176.8500  138.0090 C   0  0  2  0  0  0  0  0  0  0  0  0
  191.6860  176.2290  136.9330 C   0  0  0  0  0  0  0  0  0  0  0  0
  189.7640  177.5160  139.3330 C   0  0  2  0  0  3  0  0  0  0  0  0
  190.3250  176.5370  140.3550 C   0  0  2  0  0  3  0  0  0  0  0  0
  190.3800  177.7840  142.2410 C   0  0  1  0  0  3  0  0  0  0  0  0
  188.9130  177.0690  140.5120 C   0  0  1  0  0  3  0  0  0  0  0  0
  191.1880  177.2140  141.2410 O   0  0  0  0  0  0  0  0  0  0  0  0
  189.0180  178.0450  141.6460 C   0  0  0  0  0  2  0  0  0  0  0  0
  190.2650  176.9000  143.3190 O   0  0  0  0  0  0  0  0  0  0  0  0
  189.2300  177.4190  144.0990 C   0  0  0  0  0  2  0  0  0  0  0  0
  189.7980  178.0500  145.3630 C   0  0  0  0  0  2  0  0  0  0  0  0
  191.8830  177.0800  145.9060 O   0  0  0  0  0  0  0  0  0  0  0  0
  190.6760  177.0850  146.0950 C   0  0  0  0  0  3  0  0  0  0  0  0
  195.0400  176.1360  136.0850 N   0  0  0  0  0  2  0  0  0  0  0  0
  196.0630  175.1050  136.1340 C   0  0  0  0  0  2  0  0  0  0  0  0
  197.3050  175.6660  136.6420 N   0  0  0  0  0  2  0  0  0  0  0  0
  197.0030  173.4630  137.6240 C   0  0  0  0  0  1  0  0  0  0  0  0
  197.9540  174.6270  137.4230 C   0  0  0  0  0  2  0  0  0  0  0  0
  187.2750  177.2790  136.5150 C   0  0  0  0  0  2  0  0  0  0  0  0
  184.8970  177.3930  136.7200 O   0  0  0  0  0  1  0  0  0  0  0  0
  186.0830  177.4040  137.4540 C   0  0  2  0  0  3  0  0  0  0  0  0
  186.1710  178.7040  138.2430 C   0  0  0  0  0  2  0  0  0  0  0  0
  184.3780  180.0920  139.0500 O   0  0  0  0  0  1  0  0  0  0  0  0
  185.0270  178.8720  139.2460 C   0  0  2  0  0  3  0  0  0  0  0  0
  185.4980  178.7610  140.6920 C   0  0  0  0  0  2  0  0  0  0  0  0
  184.3430  178.4300  141.6260 C   0  0  0  0  0  2  0  0  0  0  0  0
  184.8250  178.1250  142.8980 O   0  0  0  0  0  0  0  0  0  0  0  0
  184.3800  179.1720  143.7030 C   0  0  0  0  0  2  0  0  0  0  0  0
  183.0030  178.8440  144.2400 C   0  0  0  0  0  1  0  0  0  0  0  0
  1  2  1  0  0  0  0
  4 23  1  1  0  0  0
  4  1  1  0  0  0  0
  6  5  1  6  0  0  0
  6  4  1  0  0  0  0
  6 11  1  0  0  0  0
  7 28  1  6  0  0  0
  7 10  1  0  0  0  0
  8  9  1  0  0  0  0
  8  7  1  0  0  0  0
  9 10  1  0  0  0  0
 10  3  1  1  0  0  0
 11  9  2  0  0  0  0
 11  2  1  0  0  0  0
 12 10  1  6  0  0  0
 12 13  1  0  0  0  0
 12 15  1  0  0  0  0
 13 15  1  0  0  0  0
 13 16  1  1  0  0  0
 14 18  1  1  0  0  0
 15 17  1  1  0  0  0
 16 14  1  0  0  0  0
 17 14  1  0  0  0  0
 18 19  1  0  0  0  0
 19 20  1  0  0  0  0
 20 22  1  0  0  0  0
 21 22  2  0  0  0  0
 23 24  1  0  0  0  0
 24 25  1  0  0  0  0
 25 27  1  0  0  0  0
 27 26  1  0  0  0  0
 28 30  1  0  0  0  0
 30 29  1  6  0  0  0
 30 31  1  0  0  0  0
 31 33  1  0  0  0  0
 33 32  1  1  0  0  0
 33 34  1  0  0  0  0
 34 35  1  0  0  0  0
 35 36  1  0  0  0  0
 36 37  1  0  0  0  0
 37 38  1  0  0  0  0
M  END
>  <MODEL>
3

>  <REMARK>
 VINA RESULT:      -5.7      3.098      8.259
  Name = 
  17 active torsions:
  status: ('A' for Active; 'I' for Inactive)
    1  A    between atoms: C_3  and  C_5
    2  A    between atoms: C_3  and  C_30
    3  A    between atoms: C_4  and  N_31
    4  A    between atoms: C_4  and  N_33
    5  A    between atoms: C_5  and  O_11
    6  A    between atoms: C_6  and  C_20
    7  A    between atoms: C_6  and  C_24
    8  A    between atoms: C_9  and  C_37
    9  A    between atoms: C_10  and  C_35
   10  A    between atoms: O_11  and  C_15
   11  A    between atoms: C_16  and  O_26
   12  A    between atoms: C_16  and  C_35
   13  A    between atoms: C_17  and  N_33
   14  A    between atoms: C_23  and  O_26
   15  A    between atoms: C_24  and  C_34
   16  A    between atoms: C_28  and  N_31
   17  A    between atoms: C_30  and  C_34
                            x       y       z     vdW  Elec       q    Type
                         _______ _______ _______ _____ _____    ______ ____

>  <TORSDO>
F 17

$$$$
=
 OpenBabel11042410433D

 38 41  0  0  1  0  0  0  0  0999 V2000
  184.3410  178.4590  138.5980 O   0  0  0  0  0  0  0  0  0  0  0  0
  185.7480  178.4250  138.5330 C   0  0  0  0  0  2  0  0  0  0  0  0
  189.1280  178.6600  137.5060 C   0  0  0  0  0  1  0  0  0  0  0  0
  183.8430  177.6610  137.5410 C   0  0  1  0  0  3  0  0  0  0  0  0
  185.0010  176.8340  135.6350 O   0  0  0  0  0  1  0  0  0  0  0  0
  184.9280  176.7310  137.0250 C   0  0  1  0  0  3  0  0  0  0  0  0
  189.4180  176.1180  137.1520 C   0  0  2  0  0  3  0  0  0  0  0  0
  188.0510  175.7820  136.6560 C   0  0  0  0  0  2  0  0  0  0  0  0
  187.3680  176.8790  137.4560 C   0  0  0  0  0  0  0  0  0  0  0  0
  188.7640  177.2290  137.9450 C   0  0  2  0  0  0  0  0  0  0  0  0
  186.1180  177.3170  137.6370 C   0  0  0  0  0  0  0  0  0  0  0  0
  188.8840  176.9330  139.4570 C   0  0  2  0  0  3  0  0  0  0  0  0
  188.7450  178.1700  140.3350 C   0  0  2  0  0  3  0  0  0  0  0  0
  189.4440  177.4140  142.3490 C   0  0  1  0  0  3  0  0  0  0  0  0
  190.1170  177.5750  140.0740 C   0  0  1  0  0  3  0  0  0  0  0  0
  188.3040  177.7960  141.6200 O   0  0  0  0  0  0  0  0  0  0  0  0
  190.4740  176.9070  141.3690 C   0  0  0  0  0  2  0  0  0  0  0  0
  189.9520  178.5150  143.0450 O   0  0  0  0  0  0  0  0  0  0  0  0
  190.4390  177.9880  144.2430 C   0  0  0  0  0  2  0  0  0  0  0  0
  189.3710  177.1260  144.9030 C   0  0  0  0  0  2  0  0  0  0  0  0
  187.7570  177.9280  146.4320 O   0  0  0  0  0  0  0  0  0  0  0  0
  188.9390  177.7160  146.2090 C   0  0  0  0  0  3  0  0  0  0  0  0
  182.7040  176.8850  138.0070 N   0  0  0  0  0  2  0  0  0  0  0  0
  182.6740  176.9770  139.4570 C   0  0  0  0  0  2  0  0  0  0  0  0
  181.3250  177.2860  139.9030 N   0  0  0  0  0  2  0  0  0  0  0  0
  182.5220  178.5840  141.5740 C   0  0  0  0  0  1  0  0  0  0  0  0
  181.3830  178.5740  140.5740 C   0  0  0  0  0  2  0  0  0  0  0  0
  190.2930  176.5640  135.9830 C   0  0  0  0  0  2  0  0  0  0  0  0
  191.7010  174.8060  135.1860 O   0  0  0  0  0  1  0  0  0  0  0  0
  191.6580  175.8950  136.0560 C   0  0  2  0  0  3  0  0  0  0  0  0
  191.9300  175.4120  137.4750 C   0  0  0  0  0  2  0  0  0  0  0  0
  193.9380  176.7170  137.2330 O   0  0  0  0  0  1  0  0  0  0  0  0
  193.3810  175.6320  137.9130 C   0  0  2  0  0  3  0  0  0  0  0  0
  194.2460  174.3930  137.7080 C   0  0  0  0  0  2  0  0  0  0  0  0
  195.3090  174.2770  138.7900 C   0  0  0  0  0  2  0  0  0  0  0  0
  196.3740  173.4980  138.3370 O   0  0  0  0  0  0  0  0  0  0  0  0
  197.4180  174.4030  138.1570 C   0  0  0  0  0  2  0  0  0  0  0  0
  198.1440  174.0850  136.8670 C   0  0  0  0  0  1  0  0  0  0  0  0
  2  1  1  0  0  0  0
  4 23  1  1  0  0  0
  4  1  1  0  0  0  0
  6  5  1  6  0  0  0
  6  4  1  0  0  0  0
  6 11  1  0  0  0  0
  7 28  1  6  0  0  0
  7 10  1  0  0  0  0
  8  7  1  0  0  0  0
  8  9  1  0  0  0  0
  9 11  2  0  0  0  0
  9 10  1  0  0  0  0
 10  3  1  6  0  0  0
 11  2  1  0  0  0  0
 12 10  1  6  0  0  0
 12 15  1  0  0  0  0
 12 13  1  0  0  0  0
 13 16  1  1  0  0  0
 14 18  1  6  0  0  0
 15 13  1  0  0  0  0
 15 17  1  1  0  0  0
 16 14  1  0  0  0  0
 17 14  1  0  0  0  0
 18 19  1  0  0  0  0
 19 20  1  0  0  0  0
 20 22  1  0  0  0  0
 22 21  2  0  0  0  0
 23 24  1  0  0  0  0
 24 25  1  0  0  0  0
 25 27  1  0  0  0  0
 27 26  1  0  0  0  0
 28 30  1  0  0  0  0
 30 29  1  6  0  0  0
 30 31  1  0  0  0  0
 31 33  1  0  0  0  0
 33 32  1  6  0  0  0
 34 33  1  0  0  0  0
 34 35  1  0  0  0  0
 36 35  1  0  0  0  0
 37 36  1  0  0  0  0
 38 37  1  0  0  0  0
M  END
>  <MODEL>
4

>  <REMARK>
 VINA RESULT:      -5.5      3.763      9.222
  Name = 
  17 active torsions:
  status: ('A' for Active; 'I' for Inactive)
    1  A    between atoms: C_3  and  C_5
    2  A    between atoms: C_3  and  C_30
    3  A    between atoms: C_4  and  N_31
    4  A    between atoms: C_4  and  N_33
    5  A    between atoms: C_5  and  O_11
    6  A    between atoms: C_6  and  C_20
    7  A    between atoms: C_6  and  C_24
    8  A    between atoms: C_9  and  C_37
    9  A    between atoms: C_10  and  C_35
   10  A    between atoms: O_11  and  C_15
   11  A    between atoms: C_16  and  O_26
   12  A    between atoms: C_16  and  C_35
   13  A    between atoms: C_17  and  N_33
   14  A    between atoms: C_23  and  O_26
   15  A    between atoms: C_24  and  C_34
   16  A    between atoms: C_28  and  N_31
   17  A    between atoms: C_30  and  C_34
                            x       y       z     vdW  Elec       q    Type
                         _______ _______ _______ _____ _____    ______ ____

>  <TORSDO>
F 17

$$$$
=
 OpenBabel11042410433D

 38 41  0  0  1  0  0  0  0  0999 V2000
  188.2780  176.8410  147.0460 O   0  0  0  0  0  0  0  0  0  0  0  0
  188.5580  176.7190  145.6710 C   0  0  0  0  0  2  0  0  0  0  0  0
  189.8610  175.7670  142.5200 C   0  0  0  0  0  1  0  0  0  0  0  0
  189.4930  177.1460  147.7050 C   0  0  1  0  0  3  0  0  0  0  0  0
  191.7150  176.9650  146.8780 O   0  0  0  0  0  1  0  0  0  0  0  0
  190.5180  177.6630  146.7110 C   0  0  1  0  0  3  0  0  0  0  0  0
  191.3350  177.8720  142.2560 C   0  0  2  0  0  3  0  0  0  0  0  0
  191.7220  178.0800  143.6830 C   0  0  0  0  0  2  0  0  0  0  0  0
  190.4300  177.5000  144.2360 C   0  0  0  0  0  0  0  0  0  0  0  0
  190.0480  177.2740  142.7820 C   0  0  2  0  0  0  0  0  0  0  0  0
  189.8930  177.2950  145.4430 C   0  0  0  0  0  0  0  0  0  0  0  0
  188.8560  178.1800  142.4010 C   0  0  2  0  0  3  0  0  0  0  0  0
  187.4980  177.5800  142.7410 C   0  0  2  0  0  3  0  0  0  0  0  0
  186.0760  178.9390  141.6240 C   0  0  1  0  0  3  0  0  0  0  0  0
  187.9940  177.5700  141.3070 C   0  0  1  0  0  3  0  0  0  0  0  0
  186.5490  178.6100  142.9070 O   0  0  0  0  0  0  0  0  0  0  0  0
  187.1660  178.6230  140.6300 C   0  0  0  0  0  2  0  0  0  0  0  0
  184.9340  178.1850  141.3330 O   0  0  0  0  0  0  0  0  0  0  0  0
  183.9710  178.6280  142.2420 C   0  0  0  0  0  2  0  0  0  0  0  0
  182.5770  178.3820  141.6830 C   0  0  0  0  0  2  0  0  0  0  0  0
  181.4060  178.9180  143.6640 O   0  0  0  0  0  0  0  0  0  0  0  0
  181.5450  179.1270  142.4690 C   0  0  0  0  0  3  0  0  0  0  0  0
  189.2540  178.1450  148.7370 N   0  0  0  0  0  2  0  0  0  0  0  0
  187.8140  178.2930  148.8780 C   0  0  0  0  0  2  0  0  0  0  0  0
  187.3310  179.3100  147.9590 N   0  0  0  0  0  2  0  0  0  0  0  0
  185.6760  179.0130  146.2040 C   0  0  0  0  0  1  0  0  0  0  0  0
  185.9320  179.0190  147.6980 C   0  0  0  0  0  2  0  0  0  0  0  0
  192.3030  176.8900  141.6010 C   0  0  0  0  0  2  0  0  0  0  0  0
  193.3910  178.0560  139.8210 O   0  0  0  0  0  1  0  0  0  0  0  0
  192.3780  177.1390  140.1010 C   0  0  2  0  0  3  0  0  0  0  0  0
  191.0510  177.6900  139.5950 C   0  0  0  0  0  2  0  0  0  0  0  0
  190.9420  175.4570  138.7040 O   0  0  0  0  0  1  0  0  0  0  0  0
  190.2500  176.6660  138.7850 C   0  0  2  0  0  3  0  0  0  0  0  0
  189.9140  177.1660  137.3840 C   0  0  0  0  0  2  0  0  0  0  0  0
  189.0350  178.4070  137.4360 C   0  0  0  0  0  2  0  0  0  0  0  0
  188.0450  178.3370  136.4560 O   0  0  0  0  0  0  0  0  0  0  0  0
  187.2050  177.3090  136.8780 C   0  0  0  0  0  2  0  0  0  0  0  0
  185.8880  177.8920  137.3440 C   0  0  0  0  0  1  0  0  0  0  0  0
  1  4  1  0  0  0  0
  2  1  1  0  0  0  0
  4 23  1  1  0  0  0
  6  5  1  1  0  0  0
  6  4  1  0  0  0  0
  7 28  1  1  0  0  0
  7 10  1  0  0  0  0
  7  8  1  0  0  0  0
  8  9  1  0  0  0  0
  9 11  2  0  0  0  0
 10  3  1  6  0  0  0
 10  9  1  0  0  0  0
 11  2  1  0  0  0  0
 11  6  1  0  0  0  0
 12 13  1  0  0  0  0
 12 10  1  1  0  0  0
 13 16  1  6  0  0  0
 14 18  1  6  0  0  0
 14 16  1  0  0  0  0
 15 17  1  6  0  0  0
 15 12  1  0  0  0  0
 15 13  1  0  0  0  0
 17 14  1  0  0  0  0
 18 19  1  0  0  0  0
 20 19  1  0  0  0  0
 20 22  1  0  0  0  0
 22 21  2  0  0  0  0
 23 24  1  0  0  0  0
 25 24  1  0  0  0  0
 26 27  1  0  0  0  0
 27 25  1  0  0  0  0
 30 29  1  1  0  0  0
 30 28  1  0  0  0  0
 31 30  1  0  0  0  0
 33 32  1  6  0  0  0
 33 31  1  0  0  0  0
 34 35  1  0  0  0  0
 34 33  1  0  0  0  0
 36 37  1  0  0  0  0
 36 35  1  0  0  0  0
 37 38  1  0  0  0  0
M  END
>  <MODEL>
5

>  <REMARK>
 VINA RESULT:      -5.4      3.328      7.808
  Name = 
  17 active torsions:
  status: ('A' for Active; 'I' for Inactive)
    1  A    between atoms: C_3  and  C_5
    2  A    between atoms: C_3  and  C_30
    3  A    between atoms: C_4  and  N_31
    4  A    between atoms: C_4  and  N_33
    5  A    between atoms: C_5  and  O_11
    6  A    between atoms: C_6  and  C_20
    7  A    between atoms: C_6  and  C_24
    8  A    between atoms: C_9  and  C_37
    9  A    between atoms: C_10  and  C_35
   10  A    between atoms: O_11  and  C_15
   11  A    between atoms: C_16  and  O_26
   12  A    between atoms: C_16  and  C_35
   13  A    between atoms: C_17  and  N_33
   14  A    between atoms: C_23  and  O_26
   15  A    between atoms: C_24  and  C_34
   16  A    between atoms: C_28  and  N_31
   17  A    between atoms: C_30  and  C_34
                            x       y       z     vdW  Elec       q    Type
                         _______ _______ _______ _____ _____    ______ ____

>  <TORSDO>
F 17

$$$$
=
 OpenBabel11042410433D

 38 41  0  0  1  0  0  0  0  0999 V2000
  186.7800  178.4440  142.5450 O   0  0  0  0  0  0  0  0  0  0  0  0
  185.9950  178.6700  141.3980 C   0  0  0  0  0  2  0  0  0  0  0  0
  183.8030  180.0220  138.9680 C   0  0  0  0  0  1  0  0  0  0  0  0
  185.9180  178.4820  143.6680 C   0  0  1  0  0  3  0  0  0  0  0  0
  183.6910  179.3060  143.8000 O   0  0  0  0  0  1  0  0  0  0  0  0
  184.4750  178.3000  143.2320 C   0  0  1  0  0  3  0  0  0  0  0  0
  181.8500  178.4300  139.5370 C   0  0  2  0  0  3  0  0  0  0  0  0
  182.0540  178.3090  141.0110 C   0  0  0  0  0  2  0  0  0  0  0  0
  183.5620  178.4860  140.9310 C   0  0  0  0  0  0  0  0  0  0  0  0
  183.3470  178.6260  139.4330 C   0  0  2  0  0  0  0  0  0  0  0  0
  184.5870  178.5030  141.7900 C   0  0  0  0  0  0  0  0  0  0  0  0
  183.9820  177.4260  138.6930 C   0  0  2  0  0  3  0  0  0  0  0  0
  185.1800  177.8030  137.8320 C   0  0  2  0  0  3  0  0  0  0  0  0
  185.4910  175.9350  136.5940 C   0  0  1  0  0  3  0  0  0  0  0  0
  183.8330  177.5350  137.1840 C   0  0  1  0  0  3  0  0  0  0  0  0
  186.0170  176.6820  137.6630 O   0  0  0  0  0  0  0  0  0  0  0  0
  184.0050  176.1950  136.5330 C   0  0  0  0  0  2  0  0  0  0  0  0
  186.0920  176.3350  135.3960 O   0  0  0  0  0  0  0  0  0  0  0  0
  187.4440  176.0190  135.5510 C   0  0  0  0  0  2  0  0  0  0  0  0
  187.6430  174.5150  135.4350 C   0  0  0  0  0  2  0  0  0  0  0  0
  188.5560  173.0260  137.0270 O   0  0  0  0  0  0  0  0  0  0  0  0
  188.7120  174.0430  136.3690 C   0  0  0  0  0  3  0  0  0  0  0  0
  186.2900  177.4350  144.6070 N   0  0  0  0  0  2  0  0  0  0  0  0
  187.7020  177.1500  144.4100 C   0  0  0  0  0  2  0  0  0  0  0  0
  188.4980  177.9490  145.3270 N   0  0  0  0  0  2  0  0  0  0  0  0
  188.2290  177.3050  147.6560 C   0  0  0  0  0  1  0  0  0  0  0  0
  188.9820  177.0530  146.3640 C   0  0  0  0  0  2  0  0  0  0  0  0
  180.9980  179.6600  139.2370 C   0  0  0  0  0  2  0  0  0  0  0  0
  179.8820  178.0960  137.8170 O   0  0  0  0  0  1  0  0  0  0  0  0
  180.1880  179.4490  137.9660 C   0  0  2  0  0  3  0  0  0  0  0  0
  180.9850  179.9160  136.7540 C   0  0  0  0  0  2  0  0  0  0  0  0
  180.7200  181.0840  134.6660 O   0  0  0  0  0  1  0  0  0  0  0  0
  180.3040  181.0610  135.9980 C   0  0  2  0  0  3  0  0  0  0  0  0
  180.5580  182.4180  136.6440 C   0  0  0  0  0  2  0  0  0  0  0  0
  180.8740  183.4770  135.5980 C   0  0  0  0  0  2  0  0  0  0  0  0
  181.4060  184.6130  136.2090 O   0  0  0  0  0  0  0  0  0  0  0  0
  180.6620  184.7640  137.3770 C   0  0  0  0  0  2  0  0  0  0  0  0
  179.6170  185.8400  137.1740 C   0  0  0  0  0  1  0  0  0  0  0  0
  1  4  1  0  0  0  0
  2 11  1  0  0  0  0
  2  1  1  0  0  0  0
  4 23  1  1  0  0  0
  6  4  1  0  0  0  0
  6  5  1  1  0  0  0
  7 28  1  1  0  0  0
  7  8  1  0  0  0  0
  9  8  1  0  0  0  0
  9 11  2  0  0  0  0
 10  3  1  6  0  0  0
 10  7  1  0  0  0  0
 10  9  1  0  0  0  0
 11  6  1  0  0  0  0
 12 10  1  1  0  0  0
 13 16  1  6  0  0  0
 13 12  1  0  0  0  0
 14 18  1  6  0  0  0
 14 16  1  0  0  0  0
 15 17  1  6  0  0  0
 15 13  1  0  0  0  0
 15 12  1  0  0  0  0
 17 14  1  0  0  0  0
 18 19  1  0  0  0  0
 20 19  1  0  0  0  0
 20 22  1  0  0  0  0
 22 21  2  0  0  0  0
 24 23  1  0  0  0  0
 24 25  1  0  0  0  0
 25 27  1  0  0  0  0
 27 26  1  0  0  0  0
 30 29  1  6  0  0  0
 30 28  1  0  0  0  0
 31 30  1  0  0  0  0
 33 32  1  6  0  0  0
 33 34  1  0  0  0  0
 33 31  1  0  0  0  0
 35 36  1  0  0  0  0
 35 34  1  0  0  0  0
 36 37  1  0  0  0  0
 38 37  1  0  0  0  0
M  END
>  <MODEL>
6

>  <REMARK>
 VINA RESULT:      -5.2      3.097      9.432
  Name = 
  17 active torsions:
  status: ('A' for Active; 'I' for Inactive)
    1  A    between atoms: C_3  and  C_5
    2  A    between atoms: C_3  and  C_30
    3  A    between atoms: C_4  and  N_31
    4  A    between atoms: C_4  and  N_33
    5  A    between atoms: C_5  and  O_11
    6  A    between atoms: C_6  and  C_20
    7  A    between atoms: C_6  and  C_24
    8  A    between atoms: C_9  and  C_37
    9  A    between atoms: C_10  and  C_35
   10  A    between atoms: O_11  and  C_15
   11  A    between atoms: C_16  and  O_26
   12  A    between atoms: C_16  and  C_35
   13  A    between atoms: C_17  and  N_33
   14  A    between atoms: C_23  and  O_26
   15  A    between atoms: C_24  and  C_34
   16  A    between atoms: C_28  and  N_31
   17  A    between atoms: C_30  and  C_34
                            x       y       z     vdW  Elec       q    Type
                         _______ _______ _______ _____ _____    ______ ____

>  <TORSDO>
F 17

$$$$
=
 OpenBabel11042410433D

 38 41  0  0  1  0  0  0  0  0999 V2000
  186.6620  178.5400  142.4920 O   0  0  0  0  0  0  0  0  0  0  0  0
  185.8800  178.7640  141.3430 C   0  0  0  0  0  2  0  0  0  0  0  0
  183.6610  180.0900  138.9230 C   0  0  0  0  0  1  0  0  0  0  0  0
  185.7910  178.5250  143.6080 C   0  0  1  0  0  3  0  0  0  0  0  0
  183.5360  179.2680  143.7370 O   0  0  0  0  0  1  0  0  0  0  0  0
  184.3580  178.3030  143.1550 C   0  0  1  0  0  3  0  0  0  0  0  0
  181.7610  178.4190  139.4410 C   0  0  2  0  0  3  0  0  0  0  0  0
  181.9570  178.2740  140.9140 C   0  0  0  0  0  2  0  0  0  0  0  0
  183.4580  178.5050  140.8510 C   0  0  0  0  0  0  0  0  0  0  0  0
  183.2510  178.6690  139.3540 C   0  0  2  0  0  0  0  0  0  0  0  0
  184.4740  178.5400  141.7190 C   0  0  0  0  0  0  0  0  0  0  0  0
  183.9320  177.5080  138.5950 C   0  0  2  0  0  3  0  0  0  0  0  0
  185.2250  177.9090  137.8980 C   0  0  2  0  0  3  0  0  0  0  0  0
  185.6240  176.1300  136.5590 C   0  0  1  0  0  3  0  0  0  0  0  0
  183.9520  177.7350  137.0920 C   0  0  1  0  0  3  0  0  0  0  0  0
  186.0490  176.7770  137.7330 O   0  0  0  0  0  0  0  0  0  0  0  0
  184.1600  176.4420  136.3600 C   0  0  0  0  0  2  0  0  0  0  0  0
  186.3610  176.5990  135.4660 O   0  0  0  0  0  0  0  0  0  0  0  0
  187.6970  176.4490  135.8460 C   0  0  0  0  0  2  0  0  0  0  0  0
  188.4770  177.7120  135.5100 C   0  0  0  0  0  2  0  0  0  0  0  0
  188.4630  179.3630  137.2020 O   0  0  0  0  0  0  0  0  0  0  0  0
  189.0010  178.3630  136.7520 C   0  0  0  0  0  3  0  0  0  0  0  0
  186.1910  177.4710  144.5280 N   0  0  0  0  0  2  0  0  0  0  0  0
  187.6290  177.5770  144.7170 C   0  0  0  0  0  2  0  0  0  0  0  0
  187.9250  177.8160  146.1200 N   0  0  0  0  0  2  0  0  0  0  0  0
  190.1110  177.8250  145.0570 C   0  0  0  0  0  1  0  0  0  0  0  0
  189.3310  177.5080  146.3180 C   0  0  0  0  0  2  0  0  0  0  0  0
  180.8680  179.6260  139.1600 C   0  0  0  0  0  2  0  0  0  0  0  0
  179.3170  180.5290  137.5820 O   0  0  0  0  0  1  0  0  0  0  0  0
  180.2820  179.5370  137.7580 C   0  0  2  0  0  3  0  0  0  0  0  0
  179.6390  178.1720  137.5450 C   0  0  0  0  0  2  0  0  0  0  0  0
  179.6830  177.5190  135.2280 O   0  0  0  0  0  1  0  0  0  0  0  0
  180.3310  177.3510  136.4530 C   0  0  2  0  0  3  0  0  0  0  0  0
  180.4080  175.8680  136.8000 C   0  0  0  0  0  2  0  0  0  0  0  0
  179.7350  175.5770  138.1330 C   0  0  0  0  0  2  0  0  0  0  0  0
  180.5350  174.7300  138.9010 O   0  0  0  0  0  0  0  0  0  0  0  0
  179.7800  174.4770  140.0450 C   0  0  0  0  0  2  0  0  0  0  0  0
  179.2240  175.7780  140.5810 C   0  0  0  0  0  1  0  0  0  0  0  0
  1  4  1  0  0  0  0
  2 11  1  0  0  0  0
  2  1  1  0  0  0  0
  4 23  1  1  0  0  0
  6  4  1  0  0  0  0
  6  5  1  1  0  0  0
  7 28  1  1  0  0  0
  7  8  1  0  0  0  0
  9  8  1  0  0  0  0
  9 11  2  0  0  0  0
 10  3  1  6  0  0  0
 10  7  1  0  0  0  0
 10  9  1  0  0  0  0
 11  6  1  0  0  0  0
 12 10  1  1  0  0  0
 13 16  1  6  0  0  0
 13 12  1  0  0  0  0
 14 18  1  6  0  0  0
 14 16  1  0  0  0  0
 15 17  1  6  0  0  0
 15 13  1  0  0  0  0
 15 12  1  0  0  0  0
 17 14  1  0  0  0  0
 18 19  1  0  0  0  0
 20 19  1  0  0  0  0
 20 22  1  0  0  0  0
 22 21  2  0  0  0  0
 23 24  1  0  0  0  0
 24 25  1  0  0  0  0
 25 27  1  0  0  0  0
 26 27  1  0  0  0  0
 30 29  1  1  0  0  0
 30 28  1  0  0  0  0
 31 30  1  0  0  0  0
 33 32  1  6  0  0  0
 33 34  1  0  0  0  0
 33 31  1  0  0  0  0
 34 35  1  0  0  0  0
 35 36  1  0  0  0  0
 36 37  1  0  0  0  0
 37 38  1  0  0  0  0
M  END
>  <MODEL>
7

>  <REMARK>
 VINA RESULT:      -5.2      3.153      8.606
  Name = 
  17 active torsions:
  status: ('A' for Active; 'I' for Inactive)
    1  A    between atoms: C_3  and  C_5
    2  A    between atoms: C_3  and  C_30
    3  A    between atoms: C_4  and  N_31
    4  A    between atoms: C_4  and  N_33
    5  A    between atoms: C_5  and  O_11
    6  A    between atoms: C_6  and  C_20
    7  A    between atoms: C_6  and  C_24
    8  A    between atoms: C_9  and  C_37
    9  A    between atoms: C_10  and  C_35
   10  A    between atoms: O_11  and  C_15
   11  A    between atoms: C_16  and  O_26
   12  A    between atoms: C_16  and  C_35
   13  A    between atoms: C_17  and  N_33
   14  A    between atoms: C_23  and  O_26
   15  A    between atoms: C_24  and  C_34
   16  A    between atoms: C_28  and  N_31
   17  A    between atoms: C_30  and  C_34
                            x       y       z     vdW  Elec       q    Type
                         _______ _______ _______ _____ _____    ______ ____

>  <TORSDO>
F 17

$$$$
=
 OpenBabel11042410433D

 38 41  0  0  1  0  0  0  0  0999 V2000
  191.6020  177.5210  141.4760 O   0  0  0  0  0  0  0  0  0  0  0  0
  191.1940  177.4290  140.1320 C   0  0  0  0  0  2  0  0  0  0  0  0
  189.8060  178.0380  136.9320 C   0  0  0  0  0  1  0  0  0  0  0  0
  190.4440  177.7260  142.2640 C   0  0  1  0  0  3  0  0  0  0  0  0
  188.2660  178.3680  141.5570 O   0  0  0  0  0  1  0  0  0  0  0  0
  189.2000  177.3340  141.4850 C   0  0  1  0  0  3  0  0  0  0  0  0
  187.8000  176.4460  137.2660 C   0  0  2  0  0  3  0  0  0  0  0  0
  187.5550  176.6620  138.7230 C   0  0  0  0  0  2  0  0  0  0  0  0
  189.0150  176.9440  139.0410 C   0  0  0  0  0  0  0  0  0  0  0  0
  189.2560  176.7410  137.5540 C   0  0  2  0  0  0  0  0  0  0  0  0
  189.7350  177.2310  140.1300 C   0  0  0  0  0  0  0  0  0  0  0  0
  190.1030  175.4680  137.3250 C   0  0  2  0  0  3  0  0  0  0  0  0
  191.6020  175.6990  137.4560 C   0  0  2  0  0  3  0  0  0  0  0  0
  192.4620  173.7910  136.5980 C   0  0  1  0  0  3  0  0  0  0  0  0
  190.9720  175.5710  136.0810 C   0  0  1  0  0  3  0  0  0  0  0  0
  192.2430  174.4910  137.7980 O   0  0  0  0  0  0  0  0  0  0  0  0
  191.3970  174.2100  135.6140 C   0  0  0  0  0  2  0  0  0  0  0  0
  193.7270  174.1050  136.0910 O   0  0  0  0  0  0  0  0  0  0  0  0
  194.5620  173.0860  136.5560 C   0  0  0  0  0  2  0  0  0  0  0  0
  195.7770  173.6860  137.2490 C   0  0  0  0  0  2  0  0  0  0  0  0
  195.8060  174.8780  139.2900 O   0  0  0  0  0  0  0  0  0  0  0  0
  195.5370  173.8330  138.7190 C   0  0  0  0  0  3  0  0  0  0  0  0
  190.5350  176.9400  143.4850 N   0  0  0  0  0  2  0  0  0  0  0  0
  190.4800  177.8630  144.6060 C   0  0  0  0  0  2  0  0  0  0  0  0
  191.6800  177.7270  145.4150 N   0  0  0  0  0  2  0  0  0  0  0  0
  191.0720  176.3780  147.3440 C   0  0  0  0  0  1  0  0  0  0  0  0
  191.6800  176.3780  145.9550 C   0  0  0  0  0  2  0  0  0  0  0  0
  187.0560  177.5070  136.4590 C   0  0  0  0  0  2  0  0  0  0  0  0
  184.9630  177.4900  135.3050 O   0  0  0  0  0  1  0  0  0  0  0  0
  185.5520  177.2890  136.5540 C   0  0  2  0  0  3  0  0  0  0  0  0
  184.9440  178.2640  137.5550 C   0  0  0  0  0  2  0  0  0  0  0  0
  182.5620  177.9880  137.7650 O   0  0  0  0  0  1  0  0  0  0  0  0
  183.7850  177.6550  138.3500 C   0  0  2  0  0  3  0  0  0  0  0  0
  183.7930  178.0830  139.8140 C   0  0  0  0  0  2  0  0  0  0  0  0
  184.9680  179.0030  140.1130 C   0  0  0  0  0  2  0  0  0  0  0  0
  184.9410  179.3970  141.4510 O   0  0  0  0  0  0  0  0  0  0  0  0
  184.5550  178.2530  142.1460 C   0  0  0  0  0  2  0  0  0  0  0  0
  184.6750  178.5020  143.6350 C   0  0  0  0  0  1  0  0  0  0  0  0
  1  4  1  0  0  0  0
  2  1  1  0  0  0  0
  4 23  1  1  0  0  0
  6  5  1  6  0  0  0
  6  4  1  0  0  0  0
  7 28  1  6  0  0  0
  7 10  1  0  0  0  0
  7  8  1  0  0  0  0
  8  9  1  0  0  0  0
  9 11  2  0  0  0  0
 10  3  1  6  0  0  0
 10  9  1  0  0  0  0
 11  2  1  0  0  0  0
 11  6  1  0  0  0  0
 12 13  1  0  0  0  0
 12 10  1  6  0  0  0
 13 16  1  1  0  0  0
 14 18  1  6  0  0  0
 14 16  1  0  0  0  0
 15 17  1  1  0  0  0
 15 12  1  0  0  0  0
 15 13  1  0  0  0  0
 17 14  1  0  0  0  0
 18 19  1  0  0  0  0
 19 20  1  0  0  0  0
 20 22  1  0  0  0  0
 22 21  2  0  0  0  0
 23 24  1  0  0  0  0
 24 25  1  0  0  0  0
 25 27  1  0  0  0  0
 27 26  1  0  0  0  0
 28 30  1  0  0  0  0
 30 29  1  6  0  0  0
 30 31  1  0  0  0  0
 31 33  1  0  0  0  0
 33 32  1  6  0  0  0
 33 34  1  0  0  0  0
 34 35  1  0  0  0  0
 35 36  1  0  0  0  0
 36 37  1  0  0  0  0
 37 38  1  0  0  0  0
M  END
>  <MODEL>
8

>  <REMARK>
 VINA RESULT:      -5.1      3.087      9.384
  Name = 
  17 active torsions:
  status: ('A' for Active; 'I' for Inactive)
    1  A    between atoms: C_3  and  C_5
    2  A    between atoms: C_3  and  C_30
    3  A    between atoms: C_4  and  N_31
    4  A    between atoms: C_4  and  N_33
    5  A    between atoms: C_5  and  O_11
    6  A    between atoms: C_6  and  C_20
    7  A    between atoms: C_6  and  C_24
    8  A    between atoms: C_9  and  C_37
    9  A    between atoms: C_10  and  C_35
   10  A    between atoms: O_11  and  C_15
   11  A    between atoms: C_16  and  O_26
   12  A    between atoms: C_16  and  C_35
   13  A    between atoms: C_17  and  N_33
   14  A    between atoms: C_23  and  O_26
   15  A    between atoms: C_24  and  C_34
   16  A    between atoms: C_28  and  N_31
   17  A    between atoms: C_30  and  C_34
                            x       y       z     vdW  Elec       q    Type
                         _______ _______ _______ _____ _____    ______ ____

>  <TORSDO>
F 17

$$$$
=
 OpenBabel11042410433D

 38 41  0  0  1  0  0  0  0  0999 V2000
  188.8970  177.0160  142.5000 O   0  0  0  0  0  0  0  0  0  0  0  0
  189.3010  176.6500  141.2010 C   0  0  0  0  0  2  0  0  0  0  0  0
  190.7450  175.0420  138.3970 C   0  0  0  0  0  1  0  0  0  0  0  0
  190.0660  177.1970  143.2780 C   0  0  1  0  0  3  0  0  0  0  0  0
  192.2910  176.5140  142.7910 O   0  0  0  0  0  1  0  0  0  0  0  0
  191.2760  177.3780  142.3780 C   0  0  1  0  0  3  0  0  0  0  0  0
  192.6130  176.7980  138.0850 C   0  0  2  0  0  3  0  0  0  0  0  0
  192.8700  177.1400  139.5160 C   0  0  0  0  0  2  0  0  0  0  0  0
  191.4370  176.8780  139.9530 C   0  0  0  0  0  0  0  0  0  0  0  0
  191.1850  176.5150  138.4980 C   0  0  2  0  0  0  0  0  0  0  0  0
  190.7390  176.9460  141.0900 C   0  0  0  0  0  0  0  0  0  0  0  0
  190.2380  177.5510  137.8510 C   0  0  2  0  0  3  0  0  0  0  0  0
  188.7760  177.3690  138.2380 C   0  0  2  0  0  3  0  0  0  0  0  0
  187.7140  178.7100  136.7580 C   0  0  1  0  0  3  0  0  0  0  0  0
  189.2630  176.9100  136.8750 C   0  0  1  0  0  3  0  0  0  0  0  0
  188.0920  178.5940  138.1080 O   0  0  0  0  0  0  0  0  0  0  0  0
  188.7060  177.9320  135.9290 C   0  0  0  0  0  2  0  0  0  0  0  0
  186.4300  178.1850  136.5800 O   0  0  0  0  0  0  0  0  0  0  0  0
  186.0040  177.8370  137.8640 C   0  0  0  0  0  2  0  0  0  0  0  0
  184.5810  178.3290  138.0900 C   0  0  0  0  0  2  0  0  0  0  0  0
  184.1780  180.4290  139.0960 O   0  0  0  0  0  0  0  0  0  0  0  0
  184.5170  179.2670  139.2540 C   0  0  0  0  0  3  0  0  0  0  0  0
  189.9070  178.3590  144.1380 N   0  0  0  0  0  2  0  0  0  0  0  0
  189.7830  177.8800  145.5050 C   0  0  0  0  0  2  0  0  0  0  0  0
  188.3780  177.7390  145.8520 N   0  0  0  0  0  2  0  0  0  0  0  0
  188.3960  178.2190  148.2340 C   0  0  0  0  0  1  0  0  0  0  0  0
  188.3230  177.1380  147.1730 C   0  0  0  0  0  2  0  0  0  0  0  0
  193.4440  175.5790  137.6920 C   0  0  0  0  0  2  0  0  0  0  0  0
  192.9460  176.3630  135.4900 O   0  0  0  0  0  1  0  0  0  0  0  0
  193.9100  175.6970  136.2480 C   0  0  2  0  0  3  0  0  0  0  0  0
  194.1400  174.3110  135.6580 C   0  0  0  0  0  2  0  0  0  0  0  0
  196.0860  172.9010  135.5210 O   0  0  0  0  0  1  0  0  0  0  0  0
  195.5570  174.1250  135.1080 C   0  0  2  0  0  3  0  0  0  0  0  0
  196.4930  175.2580  135.5130 C   0  0  0  0  0  2  0  0  0  0  0  0
  197.5970  174.7590  136.4330 C   0  0  0  0  0  2  0  0  0  0  0  0
  197.4880  175.3640  137.6860 O   0  0  0  0  0  0  0  0  0  0  0  0
  197.1710  174.3190  138.5530 C   0  0  0  0  0  2  0  0  0  0  0  0
  196.5100  174.8780  139.7950 C   0  0  0  0  0  1  0  0  0  0  0  0
  1  4  1  0  0  0  0
  2  1  1  0  0  0  0
  4 23  1  6  0  0  0
  6  5  1  1  0  0  0
  6  4  1  0  0  0  0
  7 28  1  1  0  0  0
  7 10  1  0  0  0  0
  7  8  1  0  0  0  0
  8  9  1  0  0  0  0
  9 11  2  0  0  0  0
 10  3  1  6  0  0  0
 10  9  1  0  0  0  0
 11  2  1  0  0  0  0
 11  6  1  0  0  0  0
 12 13  1  0  0  0  0
 12 10  1  1  0  0  0
 13 16  1  6  0  0  0
 14 18  1  1  0  0  0
 14 16  1  0  0  0  0
 15 17  1  6  0  0  0
 15 12  1  0  0  0  0
 15 13  1  0  0  0  0
 17 14  1  0  0  0  0
 18 19  1  0  0  0  0
 19 20  1  0  0  0  0
 20 22  1  0  0  0  0
 21 22  2  0  0  0  0
 23 24  1  0  0  0  0
 24 25  1  0  0  0  0
 25 27  1  0  0  0  0
 27 26  1  0  0  0  0
 30 29  1  6  0  0  0
 30 28  1  0  0  0  0
 31 30  1  0  0  0  0
 33 34  1  0  0  0  0
 33 32  1  1  0  0  0
 33 31  1  0  0  0  0
 34 35  1  0  0  0  0
 35 36  1  0  0  0  0
 36 37  1  0  0  0  0
 37 38  1  0  0  0  0
M  END
>  <MODEL>
9

>  <REMARK>
 VINA RESULT:      -5.1      3.877      8.943
  Name = 
  17 active torsions:
  status: ('A' for Active; 'I' for Inactive)
    1  A    between atoms: C_3  and  C_5
    2  A    between atoms: C_3  and  C_30
    3  A    between atoms: C_4  and  N_31
    4  A    between atoms: C_4  and  N_33
    5  A    between atoms: C_5  and  O_11
    6  A    between atoms: C_6  and  C_20
    7  A    between atoms: C_6  and  C_24
    8  A    between atoms: C_9  and  C_37
    9  A    between atoms: C_10  and  C_35
   10  A    between atoms: O_11  and  C_15
   11  A    between atoms: C_16  and  O_26
   12  A    between atoms: C_16  and  C_35
   13  A    between atoms: C_17  and  N_33
   14  A    between atoms: C_23  and  O_26
   15  A    between atoms: C_24  and  C_34
   16  A    between atoms: C_28  and  N_31
   17  A    between atoms: C_30  and  C_34
                            x       y       z     vdW  Elec       q    Type
                         _______ _______ _______ _____ _____    ______ ____

>  <TORSDO>
F 17

$$$$
