=
 OpenBabel11042410483D

 31 35  0  0  1  0  0  0  0  0999 V2000
  190.5140  178.8240  143.6050 C   0  0  0  0  0  1  0  0  0  0  0  0
  188.6940  177.8900  139.2550 C   0  0  0  0  0  0  0  0  0  0  0  0
  186.4010  178.0580  140.2150 C   0  0  0  0  0  2  0  0  0  0  0  0
  188.8030  178.5200  137.9060 C   0  0  0  0  0  2  0  0  0  0  0  0
  185.6740  178.7890  141.3220 C   0  0  2  0  0  3  0  0  0  0  0  0
  188.4590  177.3170  141.4830 C   0  0  0  0  0  0  0  0  0  0  0  0
  187.9590  177.1150  142.8920 C   0  0  0  0  0  2  0  0  0  0  0  0
  191.5540  175.9940  138.6690 O   0  0  0  0  0  0  0  0  0  0  0  0
  185.6410  177.9850  142.6230 C   0  0  1  0  0  3  0  0  0  0  0  0
  190.5550  176.7450  138.5290 C   0  0  0  0  0  0  0  0  0  0  0  0
  183.9890  178.3520  144.3760 O   0  0  0  0  0  0  0  0  0  0  0  0
  186.6900  177.8340  144.8460 N   0  0  0  0  0  2  0  0  0  0  0  0
  190.4650  175.6260  143.0150 C   0  0  0  0  0  2  0  0  0  0  0  0
  187.4580  179.4290  143.3360 O   0  0  0  0  0  1  0  0  0  0  0  0
  186.9470  178.1310  143.4360 C   0  0  1  0  0  0  0  0  0  0  0  0
  190.1930  177.6630  137.0370 S   0  0  0  0  0  0  0  0  0  0  0  0
  190.1810  177.1980  145.5500 C   0  0  0  0  0  3  0  0  0  0  0  0
  191.5770  176.5240  143.5510 C   0  0  0  0  0  2  0  0  0  0  0  0
  184.3990  178.5340  143.2000 C   0  0  0  0  0  0  0  0  0  0  0  0
  187.6540  177.7910  145.9140 C   0  0  0  0  0  0  0  0  0  0  0  0
  191.0690  177.6720  144.4280 C   0  0  1  0  0  3  0  0  0  0  0  0
  190.3600  175.7530  141.6010 O   0  0  0  0  0  0  0  0  0  0  0  0
  183.6440  179.2000  142.2140 N   0  0  0  0  0  2  0  0  0  0  0  0
  189.5950  177.0140  139.5640 C   0  0  0  0  0  0  0  0  0  0  0  0
  189.4960  176.6510  140.9580 C   0  0  0  0  0  0  0  0  0  0  0  0
  184.2970  179.1510  140.9730 N   0  0  0  0  0  2  0  0  0  0  0  0
  187.8890  178.2720  140.4490 C   0  0  1  0  0  3  0  0  0  0  0  0
  188.9200  177.5220  145.7010 C   0  0  0  0  0  0  0  0  0  0  0  0
  188.3060  178.2820  148.2450 C   0  0  0  0  0  1  0  0  0  0  0  0
  187.1790  177.8490  147.3290 C   0  0  0  0  0  3  0  0  0  0  0  0
  186.0090  178.8060  147.4640 C   0  0  0  0  0  1  0  0  0  0  0  0
  2 24  2  0  0  0  0
  2 27  1  0  0  0  0
  4  2  1  0  0  0  0
  5  3  1  6  0  0  0
  5  9  1  0  0  0  0
  6  7  1  0  0  0  0
  7 15  1  0  0  0  0
  9 19  1  1  0  0  0
  9 15  1  0  0  0  0
 10  8  2  0  0  0  0
 10 24  1  0  0  0  0
 12 20  1  0  0  0  0
 13 18  1  0  0  0  0
 15 14  1  6  0  0  0
 15 12  1  0  0  0  0
 16  4  1  0  0  0  0
 16 10  1  0  0  0  0
 17 28  2  0  0  0  0
 18 21  1  0  0  0  0
 19 11  2  0  0  0  0
 20 30  1  0  0  0  0
 21  1  1  6  0  0  0
 21 17  1  0  0  0  0
 22 13  1  0  0  0  0
 23 19  1  0  0  0  0
 24 25  1  0  0  0  0
 25  6  2  0  0  0  0
 25 22  1  0  0  0  0
 26  5  1  0  0  0  0
 26 23  1  0  0  0  0
 27  3  1  6  0  0  0
 27  6  1  0  0  0  0
 28 20  2  0  0  0  0
 30 31  1  0  0  0  0
 30 29  1  0  0  0  0
M  END
>  <MODEL>
1

>  <REMARK>
 VINA RESULT:      -8.7      0.000      0.000
  Name = 
  1 active torsions:
  status: ('A' for Active; 'I' for Inactive)
    1  A    between atoms: C_21  and  C_30
                            x       y       z     vdW  Elec       q    Type
                         _______ _______ _______ _____ _____    ______ ____

>  <TORSDO>
F 1

$$$$
=
 OpenBabel11042410483D

 31 35  0  0  1  0  0  0  0  0999 V2000
  190.0570  175.8210  142.6050 C   0  0  0  0  0  1  0  0  0  0  0  0
  187.3670  177.6820  146.1280 C   0  0  0  0  0  0  0  0  0  0  0  0
  185.8280  178.6240  144.4090 C   0  0  0  0  0  2  0  0  0  0  0  0
  186.6440  177.1290  147.3110 C   0  0  0  0  0  2  0  0  0  0  0  0
  185.3340  178.3030  143.0160 C   0  0  2  0  0  3  0  0  0  0  0  0
  188.3010  178.2160  144.0800 C   0  0  0  0  0  0  0  0  0  0  0  0
  188.5380  178.5860  142.6380 C   0  0  0  0  0  2  0  0  0  0  0  0
  190.3050  177.9550  147.9750 O   0  0  0  0  0  0  0  0  0  0  0  0
  186.1810  178.9730  141.9320 C   0  0  1  0  0  3  0  0  0  0  0  0
  189.1050  177.7940  147.6330 C   0  0  0  0  0  0  0  0  0  0  0  0
  185.3660  179.3990  139.6760 O   0  0  0  0  0  0  0  0  0  0  0  0
  187.9420  178.5110  140.2740 N   0  0  0  0  0  2  0  0  0  0  0  0
  191.2760  178.6520  143.6420 C   0  0  0  0  0  2  0  0  0  0  0  0
  187.2340  176.7990  141.6830 O   0  0  0  0  0  1  0  0  0  0  0  0
  187.4670  178.1770  141.6190 C   0  0  1  0  0  0  0  0  0  0  0  0
  187.8170  177.2250  148.7370 S   0  0  0  0  0  0  0  0  0  0  0  0
  191.2930  177.3300  140.9530 C   0  0  0  0  0  3  0  0  0  0  0  0
  191.9520  177.3060  143.3940 C   0  0  0  0  0  2  0  0  0  0  0  0
  185.1560  179.0820  140.8770 C   0  0  0  0  0  0  0  0  0  0  0  0
  189.1410  178.0380  139.6350 C   0  0  0  0  0  0  0  0  0  0  0  0
  191.3510  176.5230  142.2240 C   0  0  1  0  0  3  0  0  0  0  0  0
  190.5900  178.6440  144.8890 O   0  0  0  0  0  0  0  0  0  0  0  0
  183.8650  178.9070  141.4150 N   0  0  0  0  0  2  0  0  0  0  0  0
  188.6120  177.9930  146.2990 C   0  0  0  0  0  0  0  0  0  0  0  0
  189.2370  178.3080  145.0350 C   0  0  0  0  0  0  0  0  0  0  0  0
  183.9330  178.6750  142.7970 N   0  0  0  0  0  2  0  0  0  0  0  0
  187.0060  177.7010  144.6820 C   0  0  1  0  0  3  0  0  0  0  0  0
  190.1940  177.6600  140.3180 C   0  0  0  0  0  0  0  0  0  0  0  0
  190.0020  176.9650  137.5830 C   0  0  0  0  0  1  0  0  0  0  0  0
  189.2780  178.1690  138.1530 C   0  0  0  0  0  3  0  0  0  0  0  0
  187.9170  178.3100  137.4980 C   0  0  0  0  0  1  0  0  0  0  0  0
  2 24  2  0  0  0  0
  2  4  1  0  0  0  0
  4 16  1  0  0  0  0
  5  3  1  1  0  0  0
  6 27  1  0  0  0  0
  6 25  2  0  0  0  0
  7  6  1  0  0  0  0
  9 19  1  6  0  0  0
  9  5  1  0  0  0  0
 10  8  2  0  0  0  0
 10 16  1  0  0  0  0
 11 19  2  0  0  0  0
 12 15  1  0  0  0  0
 13 22  1  0  0  0  0
 15 14  1  1  0  0  0
 15  9  1  0  0  0  0
 15  7  1  0  0  0  0
 17 21  1  0  0  0  0
 18 13  1  0  0  0  0
 19 23  1  0  0  0  0
 20 12  1  0  0  0  0
 20 28  2  0  0  0  0
 21  1  1  1  0  0  0
 21 18  1  0  0  0  0
 22 25  1  0  0  0  0
 23 26  1  0  0  0  0
 24 10  1  0  0  0  0
 25 24  1  0  0  0  0
 26  5  1  0  0  0  0
 27  3  1  1  0  0  0
 27  2  1  0  0  0  0
 28 17  2  0  0  0  0
 29 30  1  0  0  0  0
 30 20  1  0  0  0  0
 31 30  1  0  0  0  0
M  END
>  <MODEL>
2

>  <REMARK>
 VINA RESULT:      -8.3      2.885      5.977
  Name = 
  1 active torsions:
  status: ('A' for Active; 'I' for Inactive)
    1  A    between atoms: C_21  and  C_30
                            x       y       z     vdW  Elec       q    Type
                         _______ _______ _______ _____ _____    ______ ____

>  <TORSDO>
F 1

$$$$
=
 OpenBabel11042410483D

 31 35  0  0  1  0  0  0  0  0999 V2000
  185.4200  180.1950  144.8980 C   0  0  0  0  0  1  0  0  0  0  0  0
  189.4320  178.1080  143.2660 C   0  0  0  0  0  0  0  0  0  0  0  0
  188.3580  177.8700  141.0310 C   0  0  0  0  0  2  0  0  0  0  0  0
  190.8690  178.5020  143.1790 C   0  0  0  0  0  2  0  0  0  0  0  0
  187.3360  178.5800  140.1700 C   0  0  2  0  0  3  0  0  0  0  0  0
  187.1300  177.8870  143.2400 C   0  0  0  0  0  0  0  0  0  0  0  0
  185.6760  177.8140  142.8440 C   0  0  0  0  0  2  0  0  0  0  0  0
  189.8970  176.9000  146.4990 O   0  0  0  0  0  0  0  0  0  0  0  0
  185.9240  178.0280  140.3750 C   0  0  1  0  0  3  0  0  0  0  0  0
  190.0880  177.3470  145.3380 C   0  0  0  0  0  0  0  0  0  0  0  0
  184.1450  178.2750  138.7280 O   0  0  0  0  0  0  0  0  0  0  0  0
  183.7820  178.5250  141.4830 N   0  0  0  0  0  2  0  0  0  0  0  0
  185.4860  177.0310  145.6470 C   0  0  0  0  0  2  0  0  0  0  0  0
  185.5760  179.9750  141.7830 O   0  0  0  0  0  1  0  0  0  0  0  0
  185.2360  178.6280  141.6210 C   0  0  1  0  0  0  0  0  0  0  0  0
  191.6810  177.8780  144.7180 S   0  0  0  0  0  0  0  0  0  0  0  0
  183.2230  178.8970  145.0370 C   0  0  0  0  0  3  0  0  0  0  0  0
  185.1760  178.2530  146.5080 C   0  0  0  0  0  2  0  0  0  0  0  0
  185.3610  178.3460  139.0490 C   0  0  0  0  0  0  0  0  0  0  0  0
  182.7890  178.9050  142.4520 C   0  0  0  0  0  0  0  0  0  0  0  0
  184.4630  179.3740  145.7480 C   0  0  1  0  0  3  0  0  0  0  0  0
  186.8910  176.8820  145.4780 O   0  0  0  0  0  0  0  0  0  0  0  0
  186.3880  178.6270  138.1240 N   0  0  0  0  0  2  0  0  0  0  0  0
  189.0480  177.5470  144.3680 C   0  0  0  0  0  0  0  0  0  0  0  0
  187.6100  177.4160  144.3990 C   0  0  0  0  0  0  0  0  0  0  0  0
  187.6460  178.5260  138.7380 N   0  0  0  0  0  2  0  0  0  0  0  0
  188.2630  178.4800  142.4210 C   0  0  1  0  0  3  0  0  0  0  0  0
  183.0400  178.9230  143.7390 C   0  0  0  0  0  0  0  0  0  0  0  0
  181.1150  178.3140  140.7340 C   0  0  0  0  0  1  0  0  0  0  0  0
  181.3730  179.0870  142.0130 C   0  0  0  0  0  3  0  0  0  0  0  0
  180.4120  178.6280  143.0940 C   0  0  0  0  0  1  0  0  0  0  0  0
  2 24  2  0  0  0  0
  4  2  1  0  0  0  0
  4 16  1  0  0  0  0
  5  9  1  0  0  0  0
  5  3  1  1  0  0  0
  6 25  2  0  0  0  0
  7  6  1  0  0  0  0
  9 19  1  6  0  0  0
  9 15  1  0  0  0  0
 10  8  2  0  0  0  0
 11 19  2  0  0  0  0
 12 15  1  0  0  0  0
 12 20  1  0  0  0  0
 13 18  1  0  0  0  0
 15 14  1  1  0  0  0
 15  7  1  0  0  0  0
 16 10  1  0  0  0  0
 17 21  1  0  0  0  0
 20 28  2  0  0  0  0
 21  1  1  6  0  0  0
 21 18  1  0  0  0  0
 22 13  1  0  0  0  0
 23 26  1  0  0  0  0
 23 19  1  0  0  0  0
 24 25  1  0  0  0  0
 24 10  1  0  0  0  0
 25 22  1  0  0  0  0
 26  5  1  0  0  0  0
 27  3  1  6  0  0  0
 27  6  1  0  0  0  0
 27  2  1  0  0  0  0
 28 17  2  0  0  0  0
 29 30  1  0  0  0  0
 30 20  1  0  0  0  0
 30 31  1  0  0  0  0
M  END
>  <MODEL>
3

>  <REMARK>
 VINA RESULT:      -7.9      2.896      5.559
  Name = 
  1 active torsions:
  status: ('A' for Active; 'I' for Inactive)
    1  A    between atoms: C_21  and  C_30
                            x       y       z     vdW  Elec       q    Type
                         _______ _______ _______ _____ _____    ______ ____

>  <TORSDO>
F 1

$$$$
=
 OpenBabel11042410483D

 31 35  0  0  1  0  0  0  0  0999 V2000
  186.0910  176.3780  145.6310 C   0  0  0  0  0  1  0  0  0  0  0  0
  184.3180  178.3050  141.6000 C   0  0  0  0  0  0  0  0  0  0  0  0
  186.6250  178.3790  140.6610 C   0  0  0  0  0  2  0  0  0  0  0  0
  183.2960  177.8940  140.5920 C   0  0  0  0  0  2  0  0  0  0  0  0
  187.9260  177.6140  140.7590 C   0  0  2  0  0  3  0  0  0  0  0  0
  186.0480  178.5390  143.1170 C   0  0  0  0  0  0  0  0  0  0  0  0
  187.3910  178.5930  143.8000 C   0  0  0  0  0  2  0  0  0  0  0  0
  181.8570  179.7510  143.5930 O   0  0  0  0  0  0  0  0  0  0  0  0
  188.8570  178.1900  141.8270 C   0  0  1  0  0  3  0  0  0  0  0  0
  182.4750  179.2150  142.6380 C   0  0  0  0  0  0  0  0  0  0  0  0
  191.2670  177.8320  141.8270 O   0  0  0  0  0  0  0  0  0  0  0  0
  189.6730  177.7950  144.1170 N   0  0  0  0  0  2  0  0  0  0  0  0
  185.6840  179.5880  145.9450 C   0  0  0  0  0  2  0  0  0  0  0  0
  188.0790  176.3580  143.2180 O   0  0  0  0  0  1  0  0  0  0  0  0
  188.5010  177.6920  143.2450 C   0  0  1  0  0  0  0  0  0  0  0  0
  181.6910  178.6280  141.1410 S   0  0  0  0  0  0  0  0  0  0  0  0
  187.6810  177.6980  147.1350 C   0  0  0  0  0  3  0  0  0  0  0  0
  185.2790  178.4380  146.8620 C   0  0  0  0  0  2  0  0  0  0  0  0
  190.1500  177.7760  141.2490 C   0  0  0  0  0  0  0  0  0  0  0  0
  189.7390  177.4970  145.5230 C   0  0  0  0  0  0  0  0  0  0  0  0
  186.2660  177.2670  146.8520 C   0  0  1  0  0  3  0  0  0  0  0  0
  184.7660  179.7140  144.8650 O   0  0  0  0  0  0  0  0  0  0  0  0
  189.9990  177.4190  139.8940 N   0  0  0  0  0  2  0  0  0  0  0  0
  183.8880  178.9510  142.6360 C   0  0  0  0  0  0  0  0  0  0  0  0
  184.9360  179.0940  143.6190 C   0  0  0  0  0  0  0  0  0  0  0  0
  188.6620  177.5560  139.4930 N   0  0  0  0  0  2  0  0  0  0  0  0
  185.7330  177.8780  141.7870 C   0  0  1  0  0  3  0  0  0  0  0  0
  188.6870  177.5750  146.3030 C   0  0  0  0  0  0  0  0  0  0  0  0
  190.9020  176.7530  147.5710 C   0  0  0  0  0  1  0  0  0  0  0  0
  191.0720  177.2930  146.1640 C   0  0  0  0  0  3  0  0  0  0  0  0
  191.9210  176.3380  145.3460 C   0  0  0  0  0  1  0  0  0  0  0  0
  2 27  1  0  0  0  0
  2 24  2  0  0  0  0
  4 16  1  0  0  0  0
  4  2  1  0  0  0  0
  5  3  1  6  0  0  0
  5  9  1  0  0  0  0
  6 25  2  0  0  0  0
  6  7  1  0  0  0  0
  9 19  1  6  0  0  0
  9 15  1  0  0  0  0
 10  8  2  0  0  0  0
 12 20  1  0  0  0  0
 13 18  1  0  0  0  0
 15 14  1  6  0  0  0
 15  7  1  0  0  0  0
 15 12  1  0  0  0  0
 16 10  1  0  0  0  0
 19 11  2  0  0  0  0
 20 30  1  0  0  0  0
 20 28  2  0  0  0  0
 21  1  1  6  0  0  0
 21 18  1  0  0  0  0
 21 17  1  0  0  0  0
 22 13  1  0  0  0  0
 23 19  1  0  0  0  0
 24 10  1  0  0  0  0
 24 25  1  0  0  0  0
 25 22  1  0  0  0  0
 26 23  1  0  0  0  0
 26  5  1  0  0  0  0
 27  3  1  6  0  0  0
 27  6  1  0  0  0  0
 28 17  2  0  0  0  0
 30 29  1  0  0  0  0
 31 30  1  0  0  0  0
M  END
>  <MODEL>
4

>  <REMARK>
 VINA RESULT:      -7.3      2.822      5.642
  Name = 
  1 active torsions:
  status: ('A' for Active; 'I' for Inactive)
    1  A    between atoms: C_21  and  C_30
                            x       y       z     vdW  Elec       q    Type
                         _______ _______ _______ _____ _____    ______ ____

>  <TORSDO>
F 1

$$$$
=
 OpenBabel11042410483D

 31 35  0  0  1  0  0  0  0  0999 V2000
  184.9480  179.8380  139.1570 C   0  0  0  0  0  1  0  0  0  0  0  0
  181.5540  179.0440  142.4680 C   0  0  0  0  0  0  0  0  0  0  0  0
  183.3410  178.5900  144.1430 C   0  0  0  0  0  2  0  0  0  0  0  0
  180.4200  179.8350  143.0310 C   0  0  0  0  0  2  0  0  0  0  0  0
  184.7640  179.0090  144.4410 C   0  0  2  0  0  3  0  0  0  0  0  0
  183.5390  178.1760  141.6570 C   0  0  0  0  0  0  0  0  0  0  0  0
  184.9610  177.7060  141.4820 C   0  0  0  0  0  2  0  0  0  0  0  0
  179.5430  177.9040  139.8640 O   0  0  0  0  0  0  0  0  0  0  0  0
  185.7900  178.0710  143.8020 C   0  0  1  0  0  3  0  0  0  0  0  0
  179.9530  178.4280  140.9320 C   0  0  0  0  0  0  0  0  0  0  0  0
  188.0820  177.8590  144.6020 O   0  0  0  0  0  0  0  0  0  0  0  0
  187.3540  177.8950  141.9090 N   0  0  0  0  0  2  0  0  0  0  0  0
  183.8060  176.8000  138.9610 C   0  0  0  0  0  2  0  0  0  0  0  0
  186.0110  179.7850  142.0970 O   0  0  0  0  0  1  0  0  0  0  0  0
  186.0430  178.4040  142.3150 C   0  0  1  0  0  0  0  0  0  0  0  0
  178.9310  179.4130  142.0210 S   0  0  0  0  0  0  0  0  0  0  0  0
  186.5080  177.9630  138.3920 C   0  0  0  0  0  3  0  0  0  0  0  0
  184.0340  177.8510  137.8780 C   0  0  0  0  0  2  0  0  0  0  0  0
  186.8990  178.2620  144.7560 C   0  0  0  0  0  0  0  0  0  0  0  0
  187.9330  177.9400  140.5920 C   0  0  0  0  0  0  0  0  0  0  0  0
  185.2470  178.7490  138.1400 C   0  0  1  0  0  3  0  0  0  0  0  0
  182.5990  177.0650  139.6680 O   0  0  0  0  0  0  0  0  0  0  0  0
  186.4360  178.8570  145.9470 N   0  0  0  0  0  2  0  0  0  0  0  0
  181.3100  178.3570  141.3980 C   0  0  0  0  0  0  0  0  0  0  0  0
  182.5320  177.8200  140.8470 C   0  0  0  0  0  0  0  0  0  0  0  0
  185.0560  179.0980  145.8750 N   0  0  0  0  0  2  0  0  0  0  0  0
  183.0160  179.0970  142.7460 C   0  0  1  0  0  3  0  0  0  0  0  0
  187.1980  177.9830  139.5070 C   0  0  0  0  0  0  0  0  0  0  0  0
  189.9560  176.9690  141.6240 C   0  0  0  0  0  1  0  0  0  0  0  0
  189.4030  177.7260  140.4330 C   0  0  0  0  0  3  0  0  0  0  0  0
  189.7000  176.9640  139.1550 C   0  0  0  0  0  1  0  0  0  0  0  0
  2 27  1  0  0  0  0
  2  4  1  0  0  0  0
  5  3  1  1  0  0  0
  5 26  1  0  0  0  0
  6 27  1  0  0  0  0
  7  6  1  0  0  0  0
  7 15  1  0  0  0  0
  8 10  2  0  0  0  0
  9  5  1  0  0  0  0
  9 19  1  1  0  0  0
 10 24  1  0  0  0  0
 10 16  1  0  0  0  0
 11 19  2  0  0  0  0
 12 15  1  0  0  0  0
 13 22  1  0  0  0  0
 15 14  1  6  0  0  0
 15  9  1  0  0  0  0
 16  4  1  0  0  0  0
 17 28  2  0  0  0  0
 18 21  1  0  0  0  0
 18 13  1  0  0  0  0
 19 23  1  0  0  0  0
 20 12  1  0  0  0  0
 21 17  1  0  0  0  0
 21  1  1  1  0  0  0
 22 25  1  0  0  0  0
 24  2  2  0  0  0  0
 25 24  1  0  0  0  0
 25  6  2  0  0  0  0
 26 23  1  0  0  0  0
 27  3  1  1  0  0  0
 28 20  2  0  0  0  0
 30 20  1  0  0  0  0
 30 29  1  0  0  0  0
 31 30  1  0  0  0  0
M  END
>  <MODEL>
5

>  <REMARK>
 VINA RESULT:      -6.9      3.477      7.110
  Name = 
  1 active torsions:
  status: ('A' for Active; 'I' for Inactive)
    1  A    between atoms: C_21  and  C_30
                            x       y       z     vdW  Elec       q    Type
                         _______ _______ _______ _____ _____    ______ ____

>  <TORSDO>
F 1

$$$$
=
 OpenBabel11042410483D

 31 35  0  0  1  0  0  0  0  0999 V2000
  185.9670  176.6920  143.9350 C   0  0  0  0  0  1  0  0  0  0  0  0
  185.8990  178.2410  139.3840 C   0  0  0  0  0  0  0  0  0  0  0  0
  188.3890  178.1520  139.3530 C   0  0  0  0  0  2  0  0  0  0  0  0
  185.2870  177.7570  138.1120 C   0  0  0  0  0  2  0  0  0  0  0  0
  189.5150  177.3640  139.9860 C   0  0  2  0  0  3  0  0  0  0  0  0
  186.9750  178.5820  141.4040 C   0  0  0  0  0  0  0  0  0  0  0  0
  187.9810  178.6680  142.5230 C   0  0  0  0  0  2  0  0  0  0  0  0
  182.9830  179.9560  140.2070 O   0  0  0  0  0  0  0  0  0  0  0  0
  190.0320  178.0200  141.2670 C   0  0  1  0  0  3  0  0  0  0  0  0
  183.8690  179.3070  139.5940 C   0  0  0  0  0  0  0  0  0  0  0  0
  192.2510  177.5950  142.1800 O   0  0  0  0  0  0  0  0  0  0  0  0
  189.9380  177.8410  143.7210 N   0  0  0  0  0  2  0  0  0  0  0  0
  185.6820  179.9280  143.8010 C   0  0  0  0  0  2  0  0  0  0  0  0
  188.6870  176.3660  142.4290 O   0  0  0  0  0  1  0  0  0  0  0  0
  189.1560  177.6820  142.4940 C   0  0  1  0  0  0  0  0  0  0  0  0
  183.6420  178.5900  137.9700 S   0  0  0  0  0  0  0  0  0  0  0  0
  186.9880  178.1150  145.7970 C   0  0  0  0  0  3  0  0  0  0  0  0
  184.8990  178.8910  144.6010 C   0  0  0  0  0  2  0  0  0  0  0  0
  191.4170  177.5120  141.2410 C   0  0  0  0  0  0  0  0  0  0  0  0
  189.4710  177.6890  145.0740 C   0  0  0  0  0  0  0  0  0  0  0  0
  185.7450  177.6980  145.0540 C   0  0  1  0  0  3  0  0  0  0  0  0
  185.2270  179.9670  142.4530 O   0  0  0  0  0  0  0  0  0  0  0  0
  191.7440  177.0210  139.9600 N   0  0  0  0  0  2  0  0  0  0  0  0
  185.1660  179.0030  140.1310 C   0  0  0  0  0  0  0  0  0  0  0  0
  185.7950  179.2170  141.4140 C   0  0  0  0  0  0  0  0  0  0  0  0
  190.6530  177.1540  139.0870 N   0  0  0  0  0  2  0  0  0  0  0  0
  187.1200  177.7950  140.1130 C   0  0  1  0  0  3  0  0  0  0  0  0
  188.2160  177.8780  145.4050 C   0  0  0  0  0  0  0  0  0  0  0  0
  189.8350  176.7850  147.3430 C   0  0  0  0  0  1  0  0  0  0  0  0
  190.4660  177.5140  146.1740 C   0  0  0  0  0  3  0  0  0  0  0  0
  191.6800  176.7470  145.6830 C   0  0  0  0  0  1  0  0  0  0  0  0
  2 27  1  0  0  0  0
  2 24  2  0  0  0  0
  4  2  1  0  0  0  0
  5  3  1  6  0  0  0
  5  9  1  0  0  0  0
  6 25  2  0  0  0  0
  6  7  1  0  0  0  0
  9 19  1  1  0  0  0
  9 15  1  0  0  0  0
 10 24  1  0  0  0  0
 10  8  2  0  0  0  0
 12 20  1  0  0  0  0
 13 18  1  0  0  0  0
 15 14  1  6  0  0  0
 15  7  1  0  0  0  0
 15 12  1  0  0  0  0
 16  4  1  0  0  0  0
 16 10  1  0  0  0  0
 18 21  1  0  0  0  0
 19 11  2  0  0  0  0
 20 28  2  0  0  0  0
 20 30  1  0  0  0  0
 21  1  1  6  0  0  0
 21 17  1  0  0  0  0
 22 13  1  0  0  0  0
 23 19  1  0  0  0  0
 24 25  1  0  0  0  0
 25 22  1  0  0  0  0
 26 23  1  0  0  0  0
 26  5  1  0  0  0  0
 27  3  1  6  0  0  0
 27  6  1  0  0  0  0
 28 17  2  0  0  0  0
 30 29  1  0  0  0  0
 31 30  1  0  0  0  0
M  END
>  <MODEL>
6

>  <REMARK>
 VINA RESULT:      -6.7      2.803      5.241
  Name = 
  1 active torsions:
  status: ('A' for Active; 'I' for Inactive)
    1  A    between atoms: C_21  and  C_30
                            x       y       z     vdW  Elec       q    Type
                         _______ _______ _______ _____ _____    ______ ____

>  <TORSDO>
F 1

$$$$
=
 OpenBabel11042410483D

 31 35  0  0  1  0  0  0  0  0999 V2000
  186.0560  180.2560  144.1000 C   0  0  0  0  0  1  0  0  0  0  0  0
  189.8670  177.4870  145.0610 C   0  0  0  0  0  0  0  0  0  0  0  0
  190.1070  177.0310  142.6230 C   0  0  0  0  0  2  0  0  0  0  0  0
  191.1790  177.6940  145.7420 C   0  0  0  0  0  2  0  0  0  0  0  0
  189.8400  177.7120  141.2990 C   0  0  2  0  0  3  0  0  0  0  0  0
  187.9280  177.5350  143.8010 C   0  0  0  0  0  0  0  0  0  0  0  0
  186.9150  177.5710  142.6840 C   0  0  0  0  0  2  0  0  0  0  0  0
  188.3350  176.7520  148.0990 O   0  0  0  0  0  0  0  0  0  0  0  0
  188.4580  177.3680  140.7390 C   0  0  1  0  0  3  0  0  0  0  0  0
  189.1840  176.9880  147.2020 C   0  0  0  0  0  0  0  0  0  0  0  0
  187.8910  177.5610  138.3770 O   0  0  0  0  0  0  0  0  0  0  0  0
  186.1860  178.2770  140.4660 N   0  0  0  0  0  2  0  0  0  0  0  0
  185.1400  177.2610  144.9780 C   0  0  0  0  0  2  0  0  0  0  0  0
  187.7830  179.5380  141.5950 O   0  0  0  0  0  1  0  0  0  0  0  0
  187.3400  178.2300  141.3660 C   0  0  1  0  0  0  0  0  0  0  0  0
  190.9300  177.2260  147.5140 S   0  0  0  0  0  0  0  0  0  0  0  0
  183.9200  179.2610  143.1090 C   0  0  0  0  0  3  0  0  0  0  0  0
  184.6530  178.6300  145.4460 C   0  0  0  0  0  2  0  0  0  0  0  0
  188.7450  177.5390  139.3020 C   0  0  0  0  0  0  0  0  0  0  0  0
  184.9200  178.9160  140.7110 C   0  0  0  0  0  0  0  0  0  0  0  0
  184.6640  179.6950  144.3450 C   0  0  1  0  0  3  0  0  0  0  0  0
  186.3700  176.9250  145.6110 O   0  0  0  0  0  0  0  0  0  0  0  0
  190.1350  177.5500  139.0690 N   0  0  0  0  0  2  0  0  0  0  0  0
  188.8660  177.1530  145.8110 C   0  0  0  0  0  0  0  0  0  0  0  0
  187.6310  177.1970  145.0630 C   0  0  0  0  0  0  0  0  0  0  0  0
  190.8400  177.4010  140.2730 N   0  0  0  0  0  2  0  0  0  0  0  0
  189.4080  177.8570  143.6920 C   0  0  1  0  0  3  0  0  0  0  0  0
  184.4560  179.1050  141.9230 C   0  0  0  0  0  0  0  0  0  0  0  0
  184.4430  178.4010  138.3430 C   0  0  0  0  0  1  0  0  0  0  0  0
  184.0070  179.1910  139.5610 C   0  0  0  0  0  3  0  0  0  0  0  0
  182.5750  178.8400  139.9160 C   0  0  0  0  0  1  0  0  0  0  0  0
  2  4  1  0  0  0  0
  2 24  2  0  0  0  0
  4 16  1  0  0  0  0
  5  3  1  1  0  0  0
  6 25  2  0  0  0  0
  7  6  1  0  0  0  0
  9 19  1  6  0  0  0
  9  5  1  0  0  0  0
  9 15  1  0  0  0  0
 10 16  1  0  0  0  0
 10  8  2  0  0  0  0
 11 19  2  0  0  0  0
 12 20  1  0  0  0  0
 12 15  1  0  0  0  0
 13 18  1  0  0  0  0
 13 22  1  0  0  0  0
 15 14  1  1  0  0  0
 15  7  1  0  0  0  0
 17 21  1  0  0  0  0
 20 28  2  0  0  0  0
 21  1  1  6  0  0  0
 21 18  1  0  0  0  0
 23 19  1  0  0  0  0
 23 26  1  0  0  0  0
 24 10  1  0  0  0  0
 25 22  1  0  0  0  0
 25 24  1  0  0  0  0
 26  5  1  0  0  0  0
 27  3  1  6  0  0  0
 27  6  1  0  0  0  0
 27  2  1  0  0  0  0
 28 17  2  0  0  0  0
 29 30  1  0  0  0  0
 30 31  1  0  0  0  0
 30 20  1  0  0  0  0
M  END
>  <MODEL>
7

>  <REMARK>
 VINA RESULT:      -6.4      3.189      6.486
  Name = 
  1 active torsions:
  status: ('A' for Active; 'I' for Inactive)
    1  A    between atoms: C_21  and  C_30
                            x       y       z     vdW  Elec       q    Type
                         _______ _______ _______ _____ _____    ______ ____

>  <TORSDO>
F 1

$$$$
=
 OpenBabel11042410483D

 31 35  0  0  1  0  0  0  0  0999 V2000
  183.7860  176.1980  138.7220 C   0  0  0  0  0  1  0  0  0  0  0  0
  185.4720  178.0590  142.8220 C   0  0  0  0  0  0  0  0  0  0  0  0
  183.2240  179.0410  143.2600 C   0  0  0  0  0  2  0  0  0  0  0  0
  186.1100  177.5030  144.0510 C   0  0  0  0  0  2  0  0  0  0  0  0
  181.7690  178.7420  142.9750 C   0  0  2  0  0  3  0  0  0  0  0  0
  184.1980  178.6020  140.9690 C   0  0  0  0  0  0  0  0  0  0  0  0
  183.0850  178.9840  140.0260 C   0  0  0  0  0  2  0  0  0  0  0  0
  188.5650  178.2690  141.2380 O   0  0  0  0  0  0  0  0  0  0  0  0
  181.2810  179.4120  141.6890 C   0  0  1  0  0  3  0  0  0  0  0  0
  187.6550  178.1300  142.0960 C   0  0  0  0  0  0  0  0  0  0  0  0
  178.9320  179.8740  141.2340 O   0  0  0  0  0  0  0  0  0  0  0  0
  180.7480  178.9430  139.3310 N   0  0  0  0  0  2  0  0  0  0  0  0
  185.3480  178.9990  138.1850 C   0  0  0  0  0  2  0  0  0  0  0  0
  181.5680  177.2260  140.6700 O   0  0  0  0  0  1  0  0  0  0  0  0
  181.6550  178.6020  140.4280 C   0  0  1  0  0  0  0  0  0  0  0  0
  187.9360  177.5670  143.7710 S   0  0  0  0  0  0  0  0  0  0  0  0
  183.0230  177.7070  136.8050 C   0  0  0  0  0  3  0  0  0  0  0  0
  185.4580  177.6470  137.4860 C   0  0  0  0  0  2  0  0  0  0  0  0
  179.8520  179.5470  142.0290 C   0  0  0  0  0  0  0  0  0  0  0  0
  180.8020  178.4600  137.9770 C   0  0  0  0  0  0  0  0  0  0  0  0
  184.1320  176.8860  137.4100 C   0  0  1  0  0  3  0  0  0  0  0  0
  186.0690  178.9880  139.4110 O   0  0  0  0  0  0  0  0  0  0  0  0
  179.6520  179.3850  143.4160 N   0  0  0  0  0  2  0  0  0  0  0  0
  186.2590  178.3500  141.8370 C   0  0  0  0  0  0  0  0  0  0  0  0
  185.4980  178.6700  140.6520 C   0  0  0  0  0  0  0  0  0  0  0  0
  180.8710  179.1360  144.0650 N   0  0  0  0  0  2  0  0  0  0  0  0
  184.0450  178.0980  142.3940 C   0  0  1  0  0  3  0  0  0  0  0  0
  181.9220  178.0590  137.4230 C   0  0  0  0  0  0  0  0  0  0  0  0
  179.8700  179.6170  136.0040 C   0  0  0  0  0  1  0  0  0  0  0  0
  179.6010  178.6050  137.1010 C   0  0  0  0  0  3  0  0  0  0  0  0
  179.2190  177.2710  136.4880 C   0  0  0  0  0  1  0  0  0  0  0  0
  2  4  1  0  0  0  0
  5  3  1  1  0  0  0
  5 26  1  0  0  0  0
  6 27  1  0  0  0  0
  7 15  1  0  0  0  0
  7  6  1  0  0  0  0
  8 10  2  0  0  0  0
  9 19  1  1  0  0  0
  9  5  1  0  0  0  0
 10 16  1  0  0  0  0
 11 19  2  0  0  0  0
 12 15  1  0  0  0  0
 13 22  1  0  0  0  0
 15 14  1  1  0  0  0
 15  9  1  0  0  0  0
 16  4  1  0  0  0  0
 17 21  1  0  0  0  0
 17 28  2  0  0  0  0
 18 13  1  0  0  0  0
 19 23  1  0  0  0  0
 20 12  1  0  0  0  0
 21 18  1  0  0  0  0
 21  1  1  1  0  0  0
 22 25  1  0  0  0  0
 23 26  1  0  0  0  0
 24 10  1  0  0  0  0
 24  2  2  0  0  0  0
 25  6  2  0  0  0  0
 25 24  1  0  0  0  0
 27  2  1  0  0  0  0
 27  3  1  1  0  0  0
 28 20  2  0  0  0  0
 29 30  1  0  0  0  0
 30 20  1  0  0  0  0
 31 30  1  0  0  0  0
M  END
>  <MODEL>
8

>  <REMARK>
 VINA RESULT:      -6.3      4.267      7.706
  Name = 
  1 active torsions:
  status: ('A' for Active; 'I' for Inactive)
    1  A    between atoms: C_21  and  C_30
                            x       y       z     vdW  Elec       q    Type
                         _______ _______ _______ _____ _____    ______ ____

>  <TORSDO>
F 1

$$$$
=
 OpenBabel11042410483D

 31 35  0  0  1  0  0  0  0  0999 V2000
  185.6760  177.0370  142.8650 C   0  0  0  0  0  1  0  0  0  0  0  0
  189.6420  176.9840  140.1490 C   0  0  0  0  0  0  0  0  0  0  0  0
  191.0150  176.7790  142.2180 C   0  0  0  0  0  2  0  0  0  0  0  0
  190.1480  176.1320  139.0320 C   0  0  0  0  0  2  0  0  0  0  0  0
  190.9080  176.1980  143.6100 C   0  0  2  0  0  3  0  0  0  0  0  0
  188.7690  177.9300  142.0710 C   0  0  0  0  0  0  0  0  0  0  0  0
  188.4800  178.3380  143.4930 C   0  0  0  0  0  2  0  0  0  0  0  0
  187.9080  179.0030  137.9040 O   0  0  0  0  0  0  0  0  0  0  0  0
  190.3950  177.2190  144.6270 C   0  0  1  0  0  3  0  0  0  0  0  0
  188.6790  178.1480  138.4110 C   0  0  0  0  0  0  0  0  0  0  0  0
  190.7820  177.0240  147.0240 O   0  0  0  0  0  0  0  0  0  0  0  0
  188.3810  177.8720  145.8850 N   0  0  0  0  0  2  0  0  0  0  0  0
  186.5960  180.0540  142.0730 C   0  0  0  0  0  2  0  0  0  0  0  0
  188.2510  176.1070  144.3740 O   0  0  0  0  0  1  0  0  0  0  0  0
  188.8550  177.3480  144.6030 C   0  0  1  0  0  0  0  0  0  0  0  0
  189.6010  176.9420  137.4630 S   0  0  0  0  0  0  0  0  0  0  0  0
  185.2200  178.9520  144.4950 C   0  0  0  0  0  3  0  0  0  0  0  0
  185.2290  179.3780  142.0030 C   0  0  0  0  0  2  0  0  0  0  0  0
  191.0270  176.6700  145.8410 C   0  0  0  0  0  0  0  0  0  0  0  0
  187.0260  178.2000  146.2410 C   0  0  0  0  0  0  0  0  0  0  0  0
  184.9860  178.3670  143.1270 C   0  0  1  0  0  3  0  0  0  0  0  0
  187.4040  179.6620  140.9690 O   0  0  0  0  0  0  0  0  0  0  0  0
  192.0550  175.7670  145.5030 N   0  0  0  0  0  2  0  0  0  0  0  0
  188.8860  177.9830  139.8230 C   0  0  0  0  0  0  0  0  0  0  0  0
  188.3010  178.5840  140.9990 C   0  0  0  0  0  0  0  0  0  0  0  0
  192.1720  175.6500  144.1100 N   0  0  0  0  0  2  0  0  0  0  0  0
  189.6170  176.7530  141.6200 C   0  0  1  0  0  3  0  0  0  0  0  0
  186.1320  178.5430  145.3440 C   0  0  0  0  0  0  0  0  0  0  0  0
  187.8610  178.0330  148.5590 C   0  0  0  0  0  1  0  0  0  0  0  0
  186.6680  178.3570  147.6820 C   0  0  0  0  0  3  0  0  0  0  0  0
  186.1880  179.7690  147.9660 C   0  0  0  0  0  1  0  0  0  0  0  0
  2 27  1  0  0  0  0
  4  2  1  0  0  0  0
  5  3  1  6  0  0  0
  5 26  1  0  0  0  0
  5  9  1  0  0  0  0
  6  7  1  0  0  0  0
  7 15  1  0  0  0  0
  8 10  2  0  0  0  0
  9 19  1  1  0  0  0
 10 24  1  0  0  0  0
 12 20  1  0  0  0  0
 15 14  1  6  0  0  0
 15  9  1  0  0  0  0
 15 12  1  0  0  0  0
 16 10  1  0  0  0  0
 16  4  1  0  0  0  0
 17 28  2  0  0  0  0
 18 13  1  0  0  0  0
 18 21  1  0  0  0  0
 19 11  2  0  0  0  0
 20 30  1  0  0  0  0
 21  1  1  6  0  0  0
 21 17  1  0  0  0  0
 22 25  1  0  0  0  0
 22 13  1  0  0  0  0
 23 19  1  0  0  0  0
 24  2  2  0  0  0  0
 24 25  1  0  0  0  0
 25  6  2  0  0  0  0
 26 23  1  0  0  0  0
 27  6  1  0  0  0  0
 27  3  1  1  0  0  0
 28 20  2  0  0  0  0
 30 31  1  0  0  0  0
 30 29  1  0  0  0  0
M  END
>  <MODEL>
9

>  <REMARK>
 VINA RESULT:      -6.3      2.371      4.674
  Name = 
  1 active torsions:
  status: ('A' for Active; 'I' for Inactive)
    1  A    between atoms: C_21  and  C_30
                            x       y       z     vdW  Elec       q    Type
                         _______ _______ _______ _____ _____    ______ ____

>  <TORSDO>
F 1

$$$$
