=
 OpenBabel11042410143D

 65 71  0  0  1  0  0  0  0  0999 V2000
  189.6460  177.0060  137.8630 C   0  0  1  0  0  3  0  0  0  0  0  0
  191.7580  176.1800  138.1790 C   0  0  1  0  0  3  0  0  0  0  0  0
  191.2530  176.4690  139.5990 C   0  0  1  0  0  3  0  0  0  0  0  0
  191.9990  177.4630  140.2450 O   0  0  0  0  0  1  0  0  0  0  0  0
  189.0120  177.2730  140.1980 N   0  0  0  0  0  0  0  0  0  0  0  0
  189.9000  176.9630  139.3170 C   0  0  0  0  0  0  0  0  0  0  0  0
  190.8190  176.5900  137.2000 O   0  0  0  0  0  0  0  0  0  0  0  0
  187.6140  173.9560  136.8310 C   0  0  0  0  0  3  0  0  0  0  0  0
  186.1040  175.8330  137.0610 C   0  0  0  0  0  3  0  0  0  0  0  0
  186.3220  174.4820  136.7790 C   0  0  0  0  0  3  0  0  0  0  0  0
  188.4820  176.1370  137.4690 C   0  0  0  0  0  0  0  0  0  0  0  0
  188.6890  174.7790  137.1750 C   0  0  0  0  0  3  0  0  0  0  0  0
  187.1760  176.6680  137.4010 C   0  0  0  0  0  0  0  0  0  0  0  0
  186.8960  178.1230  137.6390 C   0  0  0  0  0  2  0  0  0  0  0  0
  185.4010  178.4390  137.5760 C   0  0  0  0  0  2  0  0  0  0  0  0
  184.7980  178.6470  138.9620 C   0  0  1  0  0  3  0  0  0  0  0  0
  183.8940  179.7490  138.9240 O   0  0  0  0  0  0  0  0  0  0  0  0
  182.6520  177.9820  139.4090 C   0  0  0  0  0  0  0  0  0  0  0  0
  183.9580  177.5420  139.3000 O   0  0  0  0  0  0  0  0  0  0  0  0
  182.6180  179.2780  139.2010 C   0  0  0  0  0  0  0  0  0  0  0  0
  181.5020  177.1240  139.7030 C   0  0  0  0  0  3  0  0  0  0  0  0
  181.4930  175.8550  139.3180 C   0  0  0  0  0  3  0  0  0  0  0  0
  180.3220  174.9900  139.6140 C   0  0  0  0  0  2  0  0  0  0  0  0
  179.7710  174.4370  138.3170 C   0  0  0  0  0  1  0  0  0  0  0  0
  181.4430  180.0880  139.2370 N   0  0  0  0  0  2  0  0  0  0  0  0
  179.8290  180.3540  137.2290 C   0  0  0  0  0  2  0  0  0  0  0  0
  179.5920  181.3090  138.3670 C   0  0  1  0  0  3  0  0  0  0  0  0
  181.4800  182.1410  137.9270 O   0  0  0  0  0  0  0  0  0  0  0  0
  180.9980  180.8300  138.0690 C   0  0  1  0  0  0  0  0  0  0  0  0
  180.1950  182.6620  138.1200 C   0  0  0  0  0  2  0  0  0  0  0  0
  193.1600  176.7030  137.8520 C   0  0  0  0  0  2  0  0  0  0  0  0
  193.8430  175.8500  136.7890 C   0  0  0  0  0  2  0  0  0  0  0  0
  195.8360  174.4020  137.3820 C   0  0  0  0  0  2  0  0  0  0  0  0
  195.7570  173.5200  135.0750 O   0  0  0  0  0  0  0  0  0  0  0  0
  196.4920  174.3030  135.9920 C   0  0  0  0  0  2  0  0  0  0  0  0
  195.6470  172.2240  135.6110 C   0  0  0  0  0  2  0  0  0  0  0  0
  193.5020  170.9950  135.9000 C   0  0  0  0  0  1  0  0  0  0  0  0
  193.5820  173.3780  136.6070 C   0  0  0  0  0  2  0  0  0  0  0  0
  194.3880  172.0760  136.4860 C   0  0  2  0  0  3  0  0  0  0  0  0
  194.3010  174.5150  137.3560 C   0  0  2  0  0  3  0  0  0  0  0  0
  189.2710  177.2180  141.6140 C   0  0  0  0  0  2  0  0  0  0  0  0
  187.9720  177.3370  142.3930 C   0  0  0  0  0  2  0  0  0  0  0  0
  188.1180  176.8020  143.8140 C   0  0  0  0  0  2  0  0  0  0  0  0
  186.8940  177.1150  144.6630 C   0  0  0  0  0  2  0  0  0  0  0  0
  187.2860  177.8270  145.9490 C   0  0  2  0  0  3  0  0  0  0  0  0
  186.3650  179.0170  146.1870 C   0  0  0  0  0  2  0  0  0  0  0  0
  185.0060  178.5470  146.6840 C   0  0  0  0  0  2  0  0  0  0  0  0
  184.1990  177.9480  145.5420 C   0  0  0  0  0  2  0  0  0  0  0  0
  183.3550  179.0100  144.8540 C   0  0  0  0  0  2  0  0  0  0  0  0
  183.2630  178.7390  143.3860 C   0  0  0  0  0  0  0  0  0  0  0  0
  182.0860  179.0630  142.6430 N   0  0  0  0  0  2  0  0  0  0  0  0
  184.2310  178.1900  142.8000 O   0  0  0  0  0  0  0  0  0  0  0  0
  178.9310  179.1040  144.5850 C   0  0  0  0  0  1  0  0  0  0  0  0
  180.9180  179.6860  143.2420 C   0  0  2  0  0  3  0  0  0  0  0  0
  179.8610  178.6260  143.4890 C   0  0  2  0  0  3  0  0  0  0  0  0
  179.7420  179.5520  142.2980 C   0  0  0  0  0  2  0  0  0  0  0  0
  188.6180  178.2660  145.8530 O   0  0  0  0  0  0  0  0  0  0  0  0
  189.3460  177.8120  146.9770 C   0  0  1  0  0  0  0  0  0  0  0  0
  189.2120  178.6680  148.0640 F   0  0  0  0  0  0  0  0  0  0  0  0
  188.8950  176.4160  147.3780 C   0  0  0  0  0  1  0  0  0  0  0  0
  190.8210  177.7280  146.6090 C   0  0  0  0  0  2  0  0  0  0  0  0
  191.2530  176.2940  146.3470 C   0  0  0  0  0  2  0  0  0  0  0  0
  191.7440  177.2580  144.1020 O   0  0  0  0  0  0  0  0  0  0  0  0
  191.7540  176.1610  144.9540 C   0  0  0  0  0  0  0  0  0  0  0  0
  192.1630  175.0460  144.5380 O   0  0  0  0  0  1  0  0  0  0  0  0
  1 11  1  1  0  0  0
  1  6  1  0  0  0  0
  2 31  1  6  0  0  0
  2  3  1  0  0  0  0
  3  4  1  6  0  0  0
  5 41  1  0  0  0  0
  6  3  1  0  0  0  0
  6  5  2  0  0  0  0
  7  1  1  0  0  0  0
  7  2  1  0  0  0  0
  8 12  1  0  0  0  0
  9 13  2  0  0  0  0
 10  8  2  0  0  0  0
 10  9  1  0  0  0  0
 12 11  2  0  0  0  0
 13 11  1  0  0  0  0
 13 14  1  0  0  0  0
 15 14  1  0  0  0  0
 16 15  1  6  0  0  0
 16 19  1  0  0  0  0
 17 16  1  0  0  0  0
 17 20  1  0  0  0  0
 18 21  1  0  0  0  0
 19 18  1  0  0  0  0
 20 25  1  0  0  0  0
 20 18  2  0  0  0  0
 22 23  1  0  0  0  0
 22 21  2  0  0  0  0
 24 23  1  0  0  0  0
 26 29  1  0  0  0  0
 27 26  1  6  0  0  0
 28 29  1  0  0  0  0
 28 30  1  0  0  0  0
 29 27  1  0  0  0  0
 29 25  1  1  0  0  0
 30 27  1  0  0  0  0
 32 31  1  0  0  0  0
 34 36  1  0  0  0  0
 34 35  1  0  0  0  0
 35 33  1  0  0  0  0
 36 39  1  0  0  0  0
 38 40  1  0  0  0  0
 39 37  1  6  0  0  0
 39 38  1  0  0  0  0
 40 32  1  6  0  0  0
 40 33  1  0  0  0  0
 41 42  1  0  0  0  0
 42 43  1  0  0  0  0
 43 44  1  0  0  0  0
 45 44  1  6  0  0  0
 45 46  1  0  0  0  0
 46 47  1  0  0  0  0
 48 47  1  0  0  0  0
 49 48  1  0  0  0  0
 50 49  1  0  0  0  0
 51 50  1  0  0  0  0
 52 50  2  0  0  0  0
 54 51  1  6  0  0  0
 54 55  1  0  0  0  0
 55 53  1  1  0  0  0
 56 54  1  0  0  0  0
 56 55  1  0  0  0  0
 57 45  1  0  0  0  0
 57 58  1  0  0  0  0
 58 60  1  1  0  0  0
 58 59  1  0  0  0  0
 61 58  1  0  0  0  0
 62 61  1  0  0  0  0
 63 64  2  0  0  0  0
 64 62  1  0  0  0  0
 65 64  1  0  0  0  0
M  END
>  <MODEL>
1

>  <REMARK>
 VINA RESULT:      -7.1      0.000      0.000
  Name = 
  27 active torsions:
  status: ('A' for Active; 'I' for Inactive)
    1  A    between atoms: C_1  and  C_5
    2  A    between atoms: C_1  and  C_52
    3  A    between atoms: C_3  and  C_21
    4  A    between atoms: O_4  and  C_7
    5  A    between atoms: O_4  and  C_20
    6  A    between atoms: C_5  and  C_12
    7  A    between atoms: C_6  and  C_16
    8  A    between atoms: C_7  and  C_61
    9  A    between atoms: C_7  and  C_65
   10  A    between atoms: C_8  and  C_25
   11  A    between atoms: C_9  and  C_33
   12  A    between atoms: C_10  and  C_30
   13  A    between atoms: C_11  and  C_27
   14  A    between atoms: C_11  and  N_40
   15  A    between atoms: C_12  and  C_65
   16  A    between atoms: C_20  and  C_60
   17  A    between atoms: C_21  and  C_58
   18  A    between atoms: C_23  and  C_28
   19  A    between atoms: C_26  and  N_54
   20  A    between atoms: C_27  and  C_29
   21  A    between atoms: C_28  and  C_60
   22  A    between atoms: C_29  and  C_61
   23  A    between atoms: C_33  and  C_35
   24  A    between atoms: C_35  and  C_63
   25  A    between atoms: C_43  and  N_49
   26  A    between atoms: N_49  and  C_50
   27  A    between atoms: C_55  and  C_58
                            x       y       z     vdW  Elec       q    Type
                         _______ _______ _______ _____ _____    ______ ____

>  <TORSDO>
F 27

$$$$
=
 OpenBabel11042410143D

 65 71  0  0  1  0  0  0  0  0999 V2000
  189.1360  178.2280  138.7600 C   0  0  1  0  0  3  0  0  0  0  0  0
  189.9190  176.3080  137.7880 C   0  0  1  0  0  3  0  0  0  0  0  0
  190.5950  176.3330  139.1660 C   0  0  1  0  0  3  0  0  0  0  0  0
  191.9880  176.4440  139.0810 O   0  0  0  0  0  1  0  0  0  0  0  0
  190.2200  178.0020  140.9280 N   0  0  0  0  0  0  0  0  0  0  0  0
  190.0280  177.5630  139.7310 C   0  0  0  0  0  0  0  0  0  0  0  0
  189.1480  177.4760  137.5660 O   0  0  0  0  0  0  0  0  0  0  0  0
  186.2200  178.8070  141.1380 C   0  0  0  0  0  3  0  0  0  0  0  0
  185.3270  178.3650  138.9330 C   0  0  0  0  0  3  0  0  0  0  0  0
  185.1260  178.6660  140.2820 C   0  0  0  0  0  3  0  0  0  0  0  0
  187.7320  178.3620  139.2850 C   0  0  0  0  0  0  0  0  0  0  0  0
  187.5170  178.6560  140.6420 C   0  0  0  0  0  3  0  0  0  0  0  0
  186.6230  178.2060  138.4270 C   0  0  0  0  0  0  0  0  0  0  0  0
  186.7820  177.8270  136.9830 C   0  0  0  0  0  2  0  0  0  0  0  0
  186.3000  176.4020  136.7070 C   0  0  0  0  0  2  0  0  0  0  0  0
  185.2630  176.3520  135.5890 C   0  0  1  0  0  3  0  0  0  0  0  0
  185.0840  175.0010  135.1700 O   0  0  0  0  0  0  0  0  0  0  0  0
  183.1330  175.6220  136.0100 C   0  0  0  0  0  0  0  0  0  0  0  0
  183.9790  176.7130  136.0980 O   0  0  0  0  0  0  0  0  0  0  0  0
  183.7790  174.6250  135.4540 C   0  0  0  0  0  0  0  0  0  0  0  0
  181.7440  175.6010  136.4750 C   0  0  0  0  0  3  0  0  0  0  0  0
  181.4500  175.1830  137.6990 C   0  0  0  0  0  3  0  0  0  0  0  0
  180.0390  175.1580  138.1640 C   0  0  0  0  0  2  0  0  0  0  0  0
  179.9070  174.1710  139.3030 C   0  0  0  0  0  1  0  0  0  0  0  0
  183.2310  173.3330  135.1900 N   0  0  0  0  0  2  0  0  0  0  0  0
  182.0510  171.6420  136.7600 C   0  0  0  0  0  2  0  0  0  0  0  0
  182.6810  171.0400  135.5330 C   0  0  1  0  0  3  0  0  0  0  0  0
  184.5450  171.6260  136.3280 O   0  0  0  0  0  0  0  0  0  0  0  0
  183.3030  172.2640  136.1730 C   0  0  1  0  0  0  0  0  0  0  0  0
  184.0250  170.4330  135.8150 C   0  0  0  0  0  2  0  0  0  0  0  0
  190.8410  176.0220  136.5990 C   0  0  0  0  0  2  0  0  0  0  0  0
  191.3000  174.5690  136.5830 C   0  0  0  0  0  2  0  0  0  0  0  0
  192.8930  173.7190  134.8040 C   0  0  0  0  0  2  0  0  0  0  0  0
  192.9650  171.5760  136.0310 O   0  0  0  0  0  0  0  0  0  0  0  0
  192.5380  172.2210  134.8500 C   0  0  0  0  0  2  0  0  0  0  0  0
  194.3630  171.7070  136.1100 C   0  0  0  0  0  2  0  0  0  0  0  0
  195.5870  172.6050  138.0820 C   0  0  0  0  0  1  0  0  0  0  0  0
  193.5710  173.8360  137.3040 C   0  0  0  0  0  2  0  0  0  0  0  0
  194.7720  172.9870  136.8630 C   0  0  2  0  0  3  0  0  0  0  0  0
  192.7540  174.4490  136.1520 C   0  0  2  0  0  3  0  0  0  0  0  0
  191.0870  177.3360  141.8680 C   0  0  0  0  0  2  0  0  0  0  0  0
  190.3700  176.1530  142.4970 C   0  0  0  0  0  2  0  0  0  0  0  0
  189.8720  176.4810  143.9010 C   0  0  0  0  0  2  0  0  0  0  0  0
  188.5630  177.2560  143.8680 C   0  0  0  0  0  2  0  0  0  0  0  0
  188.0680  177.5560  145.2740 C   0  0  2  0  0  3  0  0  0  0  0  0
  186.8680  178.4930  145.2160 C   0  0  0  0  0  2  0  0  0  0  0  0
  185.5910  177.7050  144.9600 C   0  0  0  0  0  2  0  0  0  0  0  0
  184.4020  178.6450  144.8290 C   0  0  0  0  0  2  0  0  0  0  0  0
  183.6470  178.3930  143.5330 C   0  0  0  0  0  2  0  0  0  0  0  0
  182.2730  178.9790  143.6030 C   0  0  0  0  0  0  0  0  0  0  0  0
  181.4310  179.0400  142.4490 N   0  0  0  0  0  2  0  0  0  0  0  0
  181.8610  179.4530  144.6920 O   0  0  0  0  0  0  0  0  0  0  0  0
  181.5580  179.0200  138.7460 C   0  0  0  0  0  1  0  0  0  0  0  0
  181.8320  178.5280  141.1490 C   0  0  2  0  0  3  0  0  0  0  0  0
  180.8690  179.0410  140.0950 C   0  0  2  0  0  3  0  0  0  0  0  0
  180.7420  177.6250  140.6120 C   0  0  0  0  0  2  0  0  0  0  0  0
  189.1020  178.1520  146.0170 O   0  0  0  0  0  0  0  0  0  0  0  0
  188.9590  177.8130  147.3820 C   0  0  1  0  0  0  0  0  0  0  0  0
  188.3760  178.8410  148.1140 F   0  0  0  0  0  0  0  0  0  0  0  0
  188.1230  176.5520  147.5350 C   0  0  0  0  0  1  0  0  0  0  0  0
  190.3340  177.5240  147.9670 C   0  0  0  0  0  2  0  0  0  0  0  0
  191.1520  176.6230  147.0570 C   0  0  0  0  0  2  0  0  0  0  0  0
  192.8080  176.8130  148.9100 O   0  0  0  0  0  1  0  0  0  0  0  0
  192.3700  176.1530  147.7690 C   0  0  0  0  0  0  0  0  0  0  0  0
  193.0190  175.1720  147.3220 O   0  0  0  0  0  0  0  0  0  0  0  0
  1 11  1  1  0  0  0
  1  6  1  0  0  0  0
  2 31  1  6  0  0  0
  2  3  1  0  0  0  0
  3  4  1  6  0  0  0
  3  6  1  0  0  0  0
  5 41  1  0  0  0  0
  6  5  2  0  0  0  0
  7  2  1  0  0  0  0
  7  1  1  0  0  0  0
  9 10  1  0  0  0  0
 10  8  2  0  0  0  0
 11 12  2  0  0  0  0
 12  8  1  0  0  0  0
 13  9  2  0  0  0  0
 13 11  1  0  0  0  0
 14 13  1  0  0  0  0
 15 14  1  0  0  0  0
 16 19  1  0  0  0  0
 16 15  1  1  0  0  0
 17 20  1  0  0  0  0
 17 16  1  0  0  0  0
 18 19  1  0  0  0  0
 18 21  1  0  0  0  0
 20 18  2  0  0  0  0
 21 22  2  0  0  0  0
 22 23  1  0  0  0  0
 23 24  1  0  0  0  0
 25 20  1  0  0  0  0
 27 30  1  1  0  0  0
 27 29  1  0  0  0  0
 27 26  1  0  0  0  0
 29 25  1  6  0  0  0
 29 28  1  0  0  0  0
 29 26  1  0  0  0  0
 30 28  1  0  0  0  0
 32 31  1  0  0  0  0
 33 35  1  0  0  0  0
 33 40  1  0  0  0  0
 34 36  1  0  0  0  0
 35 34  1  0  0  0  0
 36 39  1  0  0  0  0
 39 38  1  0  0  0  0
 39 37  1  1  0  0  0
 40 32  1  1  0  0  0
 40 38  1  0  0  0  0
 41 42  1  0  0  0  0
 42 43  1  0  0  0  0
 44 43  1  0  0  0  0
 45 44  1  6  0  0  0
 45 57  1  0  0  0  0
 46 45  1  0  0  0  0
 47 46  1  0  0  0  0
 48 47  1  0  0  0  0
 49 50  1  0  0  0  0
 49 48  1  0  0  0  0
 50 52  2  0  0  0  0
 51 50  1  0  0  0  0
 54 51  1  1  0  0  0
 55 53  1  6  0  0  0
 55 56  1  0  0  0  0
 55 54  1  0  0  0  0
 56 54  1  0  0  0  0
 57 58  1  0  0  0  0
 58 60  1  1  0  0  0
 58 61  1  0  0  0  0
 58 59  1  0  0  0  0
 62 64  1  0  0  0  0
 62 61  1  0  0  0  0
 64 63  1  0  0  0  0
 65 64  2  0  0  0  0
M  END
>  <MODEL>
2

>  <REMARK>
 VINA RESULT:      -6.3      2.497      4.242
  Name = 
  27 active torsions:
  status: ('A' for Active; 'I' for Inactive)
    1  A    between atoms: C_1  and  C_5
    2  A    between atoms: C_1  and  C_52
    3  A    between atoms: C_3  and  C_21
    4  A    between atoms: O_4  and  C_7
    5  A    between atoms: O_4  and  C_20
    6  A    between atoms: C_5  and  C_12
    7  A    between atoms: C_6  and  C_16
    8  A    between atoms: C_7  and  C_61
    9  A    between atoms: C_7  and  C_65
   10  A    between atoms: C_8  and  C_25
   11  A    between atoms: C_9  and  C_33
   12  A    between atoms: C_10  and  C_30
   13  A    between atoms: C_11  and  C_27
   14  A    between atoms: C_11  and  N_40
   15  A    between atoms: C_12  and  C_65
   16  A    between atoms: C_20  and  C_60
   17  A    between atoms: C_21  and  C_58
   18  A    between atoms: C_23  and  C_28
   19  A    between atoms: C_26  and  N_54
   20  A    between atoms: C_27  and  C_29
   21  A    between atoms: C_28  and  C_60
   22  A    between atoms: C_29  and  C_61
   23  A    between atoms: C_33  and  C_35
   24  A    between atoms: C_35  and  C_63
   25  A    between atoms: C_43  and  N_49
   26  A    between atoms: N_49  and  C_50
   27  A    between atoms: C_55  and  C_58
                            x       y       z     vdW  Elec       q    Type
                         _______ _______ _______ _____ _____    ______ ____

>  <TORSDO>
F 27

$$$$
=
 OpenBabel11042410143D

 65 71  0  0  1  0  0  0  0  0999 V2000
  190.1180  176.4920  137.1320 C   0  0  1  0  0  3  0  0  0  0  0  0
  192.2720  175.7220  137.0320 C   0  0  1  0  0  3  0  0  0  0  0  0
  192.0700  176.0790  138.5110 C   0  0  1  0  0  3  0  0  0  0  0  0
  192.9080  177.1200  138.9330 O   0  0  0  0  0  1  0  0  0  0  0  0
  189.9840  176.8760  139.5320 N   0  0  0  0  0  0  0  0  0  0  0  0
  190.6750  176.5330  138.4990 C   0  0  0  0  0  0  0  0  0  0  0  0
  191.1360  176.0610  136.2560 O   0  0  0  0  0  0  0  0  0  0  0  0
  188.0040  173.3510  136.7410 C   0  0  0  0  0  3  0  0  0  0  0  0
  186.5200  175.2230  137.1290 C   0  0  0  0  0  3  0  0  0  0  0  0
  186.7130  173.8570  136.9070 C   0  0  0  0  0  3  0  0  0  0  0  0
  188.9220  175.5830  137.0380 C   0  0  0  0  0  0  0  0  0  0  0  0
  189.1030  174.2090  136.8070 C   0  0  0  0  0  3  0  0  0  0  0  0
  187.6150  176.0930  137.1910 C   0  0  0  0  0  0  0  0  0  0  0  0
  187.3500  177.5590  137.3750 C   0  0  0  0  0  2  0  0  0  0  0  0
  185.8740  177.9050  137.1740 C   0  0  0  0  0  2  0  0  0  0  0  0
  185.2070  178.3510  138.4720 C   0  0  1  0  0  3  0  0  0  0  0  0
  184.1420  179.2510  138.1720 O   0  0  0  0  0  0  0  0  0  0  0  0
  183.1800  177.4840  139.0960 C   0  0  1  0  0  3  0  0  0  0  0  0
  184.5420  177.2450  139.0850 O   0  0  0  0  0  0  0  0  0  0  0  0
  182.9490  178.6660  138.5720 C   0  0  0  0  0  0  0  0  0  0  0  0
  182.1720  176.5540  139.6080 C   0  0  0  0  0  3  0  0  0  0  0  0
  181.4990  175.7670  138.7790 C   0  0  0  0  0  3  0  0  0  0  0  0
  180.4730  174.8280  139.3030 C   0  0  0  0  0  2  0  0  0  0  0  0
  179.7090  175.5000  140.4240 C   0  0  0  0  0  1  0  0  0  0  0  0
  181.6610  179.2610  138.4200 N   0  0  0  0  0  0  0  0  0  0  0  0
  180.6510  180.6600  136.4880 C   0  0  0  0  0  2  0  0  0  0  0  0
  180.0200  180.8860  137.8340 C   0  0  1  0  0  3  0  0  0  0  0  0
  181.8700  181.6880  138.4530 O   0  0  0  0  0  0  0  0  0  0  0  0
  181.4910  180.5370  137.7440 C   0  0  1  0  0  0  0  0  0  0  0  0
  180.5400  182.1200  138.5150 C   0  0  0  0  0  2  0  0  0  0  0  0
  193.5580  176.2500  136.3890 C   0  0  0  0  0  2  0  0  0  0  0  0
  193.7500  175.6960  134.9820 C   0  0  0  0  0  2  0  0  0  0  0  0
  194.8020  173.4230  134.5940 C   0  0  0  0  0  2  0  0  0  0  0  0
  194.6780  173.0570  137.0340 O   0  0  0  0  0  0  0  0  0  0  0  0
  194.1790  172.6570  135.7760 C   0  0  0  0  0  2  0  0  0  0  0  0
  196.0650  172.8300  137.0370 C   0  0  0  0  0  2  0  0  0  0  0  0
  197.7740  174.5430  137.6210 C   0  0  0  0  0  1  0  0  0  0  0  0
  195.9280  175.2140  136.0950 C   0  0  0  0  0  2  0  0  0  0  0  0
  196.8430  174.0590  136.5280 C   0  0  2  0  0  3  0  0  0  0  0  0
  195.0520  174.9180  134.8640 C   0  0  2  0  0  3  0  0  0  0  0  0
  190.5390  176.9030  140.8620 C   0  0  0  0  0  2  0  0  0  0  0  0
  189.4400  176.7130  141.8940 C   0  0  0  0  0  2  0  0  0  0  0  0
  188.8850  178.0490  142.3750 C   0  0  0  0  0  2  0  0  0  0  0  0
  187.4150  178.2130  142.0150 C   0  0  0  0  0  2  0  0  0  0  0  0
  186.5390  178.1750  143.2580 C   0  0  2  0  0  3  0  0  0  0  0  0
  187.1720  177.2800  144.3160 C   0  0  0  0  0  2  0  0  0  0  0  0
  186.9550  177.8650  145.7040 C   0  0  0  0  0  2  0  0  0  0  0  0
  186.6510  176.7620  146.7060 C   0  0  0  0  0  2  0  0  0  0  0  0
  187.3280  177.0340  148.0410 C   0  0  0  0  0  2  0  0  0  0  0  0
  188.2730  178.1890  147.9250 C   0  0  0  0  0  0  0  0  0  0  0  0
  189.6160  178.0080  147.4720 N   0  0  0  0  0  2  0  0  0  0  0  0
  187.8850  179.3360  148.2610 O   0  0  0  0  0  0  0  0  0  0  0  0
  192.1720  175.3280  147.3570 C   0  0  0  0  0  1  0  0  0  0  0  0
  190.1500  176.7160  147.0760 C   0  0  2  0  0  3  0  0  0  0  0  0
  191.6630  176.7450  147.1970 C   0  0  2  0  0  3  0  0  0  0  0  0
  191.0080  176.8880  145.8400 C   0  0  0  0  0  2  0  0  0  0  0  0
  185.2660  177.6850  142.9180 O   0  0  0  0  0  0  0  0  0  0  0  0
  184.2730  178.5100  143.4950 C   0  0  1  0  0  0  0  0  0  0  0  0
  183.8370  178.0180  144.7200 F   0  0  0  0  0  0  0  0  0  0  0  0
  184.7950  179.9260  143.6800 C   0  0  0  0  0  1  0  0  0  0  0  0
  183.0800  178.5810  142.5520 C   0  0  0  0  0  2  0  0  0  0  0  0
  181.9510  179.4130  143.1380 C   0  0  0  0  0  2  0  0  0  0  0  0
  179.9230  178.0370  142.6830 O   0  0  0  0  0  1  0  0  0  0  0  0
  180.6910  179.1570  142.3910 C   0  0  0  0  0  0  0  0  0  0  0  0
  180.3340  179.9430  141.4760 O   0  0  0  0  0  0  0  0  0  0  0  0
  1 11  1  1  0  0  0
  1  6  1  0  0  0  0
  2 31  1  6  0  0  0
  2  3  1  0  0  0  0
  3  4  1  6  0  0  0
  5 41  1  0  0  0  0
  6  3  1  0  0  0  0
  6  5  2  0  0  0  0
  7  2  1  0  0  0  0
  7  1  1  0  0  0  0
  8 12  2  0  0  0  0
  8 10  1  0  0  0  0
  9 13  1  0  0  0  0
 10  9  2  0  0  0  0
 11 13  2  0  0  0  0
 12 11  1  0  0  0  0
 13 14  1  0  0  0  0
 15 14  1  0  0  0  0
 16 15  1  6  0  0  0
 16 19  1  0  0  0  0
 17 16  1  0  0  0  0
 17 20  1  0  0  0  0
 18 21  1  6  0  0  0
 19 18  1  0  0  0  0
 20 18  1  0  0  0  0
 22 23  1  0  0  0  0
 22 21  2  0  0  0  0
 23 24  1  0  0  0  0
 25 20  2  0  0  0  0
 26 29  1  0  0  0  0
 27 26  1  6  0  0  0
 27 30  1  0  0  0  0
 28 30  1  0  0  0  0
 29 27  1  0  0  0  0
 29 25  1  1  0  0  0
 29 28  1  0  0  0  0
 32 31  1  0  0  0  0
 33 40  1  0  0  0  0
 33 35  1  0  0  0  0
 34 36  1  0  0  0  0
 35 34  1  0  0  0  0
 38 39  1  0  0  0  0
 39 36  1  0  0  0  0
 39 37  1  1  0  0  0
 40 32  1  1  0  0  0
 40 38  1  0  0  0  0
 41 42  1  0  0  0  0
 42 43  1  0  0  0  0
 44 43  1  0  0  0  0
 45 44  1  6  0  0  0
 45 46  1  0  0  0  0
 46 47  1  0  0  0  0
 47 48  1  0  0  0  0
 48 49  1  0  0  0  0
 50 49  1  0  0  0  0
 50 52  2  0  0  0  0
 51 50  1  0  0  0  0
 54 55  1  0  0  0  0
 54 51  1  1  0  0  0
 55 53  1  6  0  0  0
 56 54  1  0  0  0  0
 56 55  1  0  0  0  0
 57 45  1  0  0  0  0
 57 58  1  0  0  0  0
 58 60  1  1  0  0  0
 58 59  1  0  0  0  0
 61 62  1  0  0  0  0
 61 58  1  0  0  0  0
 64 63  1  0  0  0  0
 64 62  1  0  0  0  0
 65 64  2  0  0  0  0
M  END
>  <MODEL>
3

>  <REMARK>
 VINA RESULT:      -6.2      1.845      5.203
  Name = 
  27 active torsions:
  status: ('A' for Active; 'I' for Inactive)
    1  A    between atoms: C_1  and  C_5
    2  A    between atoms: C_1  and  C_52
    3  A    between atoms: C_3  and  C_21
    4  A    between atoms: O_4  and  C_7
    5  A    between atoms: O_4  and  C_20
    6  A    between atoms: C_5  and  C_12
    7  A    between atoms: C_6  and  C_16
    8  A    between atoms: C_7  and  C_61
    9  A    between atoms: C_7  and  C_65
   10  A    between atoms: C_8  and  C_25
   11  A    between atoms: C_9  and  C_33
   12  A    between atoms: C_10  and  C_30
   13  A    between atoms: C_11  and  C_27
   14  A    between atoms: C_11  and  N_40
   15  A    between atoms: C_12  and  C_65
   16  A    between atoms: C_20  and  C_60
   17  A    between atoms: C_21  and  C_58
   18  A    between atoms: C_23  and  C_28
   19  A    between atoms: C_26  and  N_54
   20  A    between atoms: C_27  and  C_29
   21  A    between atoms: C_28  and  C_60
   22  A    between atoms: C_29  and  C_61
   23  A    between atoms: C_33  and  C_35
   24  A    between atoms: C_35  and  C_63
   25  A    between atoms: C_43  and  N_49
   26  A    between atoms: N_49  and  C_50
   27  A    between atoms: C_55  and  C_58
                            x       y       z     vdW  Elec       q    Type
                         _______ _______ _______ _____ _____    ______ ____

>  <TORSDO>
F 27

$$$$
=
 OpenBabel11042410143D

 65 71  0  0  1  0  0  0  0  0999 V2000
  188.7970  178.6450  138.9140 C   0  0  1  0  0  3  0  0  0  0  0  0
  186.9490  178.1710  140.1800 C   0  0  1  0  0  3  0  0  0  0  0  0
  186.4390  178.1070  138.7340 C   0  0  1  0  0  3  0  0  0  0  0  0
  185.4790  179.0880  138.4570 O   0  0  0  0  0  1  0  0  0  0  0  0
  187.8030  178.3740  136.7090 N   0  0  0  0  0  0  0  0  0  0  0  0
  187.6730  178.3910  137.9920 C   0  0  0  0  0  0  0  0  0  0  0  0
  188.3070  178.5730  140.2350 O   0  0  0  0  0  0  0  0  0  0  0  0
  191.2520  176.2740  137.2280 C   0  0  0  0  0  3  0  0  0  0  0  0
  191.7750  176.3550  139.5900 C   0  0  0  0  0  3  0  0  0  0  0  0
  192.0440  175.8730  138.3060 C   0  0  0  0  0  3  0  0  0  0  0  0
  189.9220  177.6650  138.7150 C   0  0  0  0  0  0  0  0  0  0  0  0
  190.1970  177.1660  137.4310 C   0  0  0  0  0  3  0  0  0  0  0  0
  190.7150  177.2460  139.8040 C   0  0  0  0  0  0  0  0  0  0  0  0
  190.4330  177.6890  141.2110 C   0  0  0  0  0  2  0  0  0  0  0  0
  191.5550  177.2980  142.1730 C   0  0  0  0  0  2  0  0  0  0  0  0
  191.4440  178.0210  143.5110 C   0  0  1  0  0  3  0  0  0  0  0  0
  190.0870  178.0010  143.9480 O   0  0  0  0  0  0  0  0  0  0  0  0
  191.2120  176.8360  145.4590 C   0  0  0  0  0  0  0  0  0  0  0  0
  192.1290  177.2830  144.5240 O   0  0  0  0  0  0  0  0  0  0  0  0
  190.0180  177.2690  145.1260 C   0  0  0  0  0  0  0  0  0  0  0  0
  191.5380  176.0090  146.6220 C   0  0  0  0  0  3  0  0  0  0  0  0
  192.5140  176.3620  147.4470 C   0  0  0  0  0  3  0  0  0  0  0  0
  192.8450  175.5160  148.6230 C   0  0  0  0  0  2  0  0  0  0  0  0
  193.6060  176.3460  149.6350 C   0  0  0  0  0  1  0  0  0  0  0  0
  188.8170  177.0160  145.8560 N   0  0  0  0  0  2  0  0  0  0  0  0
  186.7810  178.1670  146.9690 C   0  0  0  0  0  2  0  0  0  0  0  0
  187.5370  177.2140  147.8550 C   0  0  1  0  0  3  0  0  0  0  0  0
  189.1680  178.5440  147.7200 O   0  0  0  0  0  0  0  0  0  0  0  0
  188.2760  177.9930  146.7860 C   0  0  1  0  0  0  0  0  0  0  0  0
  188.4940  177.9170  148.7740 C   0  0  0  0  0  2  0  0  0  0  0  0
  186.0920  178.9880  141.1520 C   0  0  0  0  0  2  0  0  0  0  0  0
  184.7130  178.3680  141.3410 C   0  0  0  0  0  2  0  0  0  0  0  0
  184.4580  180.0320  143.2350 C   0  0  0  0  0  2  0  0  0  0  0  0
  183.8200  178.1350  144.6850 O   0  0  0  0  0  0  0  0  0  0  0  0
  184.8050  179.1120  144.4210 C   0  0  0  0  0  2  0  0  0  0  0  0
  182.6190  178.8060  144.9760 C   0  0  0  0  0  2  0  0  0  0  0  0
  180.4460  178.3640  143.8460 C   0  0  0  0  0  1  0  0  0  0  0  0
  182.4770  178.5670  142.4250 C   0  0  0  0  0  2  0  0  0  0  0  0
  181.7850  179.0580  143.7050 C   0  0  2  0  0  3  0  0  0  0  0  0
  183.7680  179.3210  142.0570 C   0  0  2  0  0  3  0  0  0  0  0  0
  186.6970  178.1150  135.8220 C   0  0  0  0  0  2  0  0  0  0  0  0
  186.5600  176.6220  135.5750 C   0  0  0  0  0  2  0  0  0  0  0  0
  185.0970  176.1970  135.5060 C   0  0  0  0  0  2  0  0  0  0  0  0
  184.2050  177.1080  136.3380 C   0  0  0  0  0  2  0  0  0  0  0  0
  182.7460  176.6910  136.2350 C   0  0  2  0  0  3  0  0  0  0  0  0
  182.0150  177.5900  135.2460 C   0  0  0  0  0  2  0  0  0  0  0  0
  180.8000  178.2250  135.9040 C   0  0  0  0  0  2  0  0  0  0  0  0
  180.9740  179.7330  136.0020 C   0  0  0  0  0  2  0  0  0  0  0  0
  180.5030  180.2500  137.3530 C   0  0  0  0  0  2  0  0  0  0  0  0
  181.5860  181.0360  138.0220 C   0  0  0  0  0  0  0  0  0  0  0  0
  181.5920  182.4650  137.9960 N   0  0  0  0  0  2  0  0  0  0  0  0
  182.5240  180.4250  138.5940 O   0  0  0  0  0  0  0  0  0  0  0  0
  180.0180  184.2470  135.1550 C   0  0  0  0  0  1  0  0  0  0  0  0
  180.5550  183.2490  137.3470 C   0  0  2  0  0  3  0  0  0  0  0  0
  181.1390  183.9290  136.1220 C   0  0  2  0  0  3  0  0  0  0  0  0
  180.9330  184.7150  137.3990 C   0  0  0  0  0  2  0  0  0  0  0  0
  182.1420  176.7860  137.5010 O   0  0  0  0  0  0  0  0  0  0  0  0
  181.9600  175.4900  138.0360 C   0  0  1  0  0  0  0  0  0  0  0  0
  183.0070  175.1220  138.8740 F   0  0  0  0  0  0  0  0  0  0  0  0
  180.6500  175.4080  138.8040 C   0  0  0  0  0  1  0  0  0  0  0  0
  181.8830  174.4890  136.8920 C   0  0  0  0  0  2  0  0  0  0  0  0
  180.4850  173.9100  136.7470 C   0  0  0  0  0  2  0  0  0  0  0  0
  180.7370  171.7080  137.8860 O   0  0  0  0  0  1  0  0  0  0  0  0
  180.5510  172.4260  136.7120 C   0  0  0  0  0  0  0  0  0  0  0  0
  180.4640  171.8200  135.6120 O   0  0  0  0  0  0  0  0  0  0  0  0
  1 11  1  1  0  0  0
  1  7  1  0  0  0  0
  2  7  1  0  0  0  0
  2 31  1  1  0  0  0
  3  4  1  1  0  0  0
  3  2  1  0  0  0  0
  5  6  2  0  0  0  0
  6  3  1  0  0  0  0
  6  1  1  0  0  0  0
  8 12  2  0  0  0  0
  8 10  1  0  0  0  0
  9 13  1  0  0  0  0
 10  9  2  0  0  0  0
 11 13  2  0  0  0  0
 12 11  1  0  0  0  0
 13 14  1  0  0  0  0
 14 15  1  0  0  0  0
 16 15  1  6  0  0  0
 16 17  1  0  0  0  0
 16 19  1  0  0  0  0
 17 20  1  0  0  0  0
 18 21  1  0  0  0  0
 19 18  1  0  0  0  0
 20 18  2  0  0  0  0
 20 25  1  0  0  0  0
 21 22  2  0  0  0  0
 22 23  1  0  0  0  0
 23 24  1  0  0  0  0
 27 26  1  1  0  0  0
 27 30  1  0  0  0  0
 28 30  1  0  0  0  0
 29 25  1  6  0  0  0
 29 26  1  0  0  0  0
 29 28  1  0  0  0  0
 29 27  1  0  0  0  0
 31 32  1  0  0  0  0
 33 35  1  0  0  0  0
 34 36  1  0  0  0  0
 35 34  1  0  0  0  0
 38 39  1  0  0  0  0
 39 37  1  1  0  0  0
 39 36  1  0  0  0  0
 40 32  1  1  0  0  0
 40 38  1  0  0  0  0
 40 33  1  0  0  0  0
 41  5  1  0  0  0  0
 42 41  1  0  0  0  0
 43 42  1  0  0  0  0
 43 44  1  0  0  0  0
 45 46  1  6  0  0  0
 45 44  1  0  0  0  0
 45 57  1  0  0  0  0
 46 47  1  0  0  0  0
 47 48  1  0  0  0  0
 48 49  1  0  0  0  0
 49 50  1  0  0  0  0
 50 52  2  0  0  0  0
 51 50  1  0  0  0  0
 54 56  1  0  0  0  0
 54 51  1  1  0  0  0
 55 53  1  6  0  0  0
 55 54  1  0  0  0  0
 55 56  1  0  0  0  0
 57 58  1  0  0  0  0
 58 60  1  1  0  0  0
 58 59  1  0  0  0  0
 61 58  1  0  0  0  0
 62 61  1  0  0  0  0
 64 62  1  0  0  0  0
 64 63  1  0  0  0  0
 65 64  2  0  0  0  0
M  END
>  <MODEL>
4

>  <REMARK>
 VINA RESULT:      -5.8      3.132     10.697
  Name = 
  27 active torsions:
  status: ('A' for Active; 'I' for Inactive)
    1  A    between atoms: C_1  and  C_5
    2  A    between atoms: C_1  and  C_52
    3  A    between atoms: C_3  and  C_21
    4  A    between atoms: O_4  and  C_7
    5  A    between atoms: O_4  and  C_20
    6  A    between atoms: C_5  and  C_12
    7  A    between atoms: C_6  and  C_16
    8  A    between atoms: C_7  and  C_61
    9  A    between atoms: C_7  and  C_65
   10  A    between atoms: C_8  and  C_25
   11  A    between atoms: C_9  and  C_33
   12  A    between atoms: C_10  and  C_30
   13  A    between atoms: C_11  and  C_27
   14  A    between atoms: C_11  and  N_40
   15  A    between atoms: C_12  and  C_65
   16  A    between atoms: C_20  and  C_60
   17  A    between atoms: C_21  and  C_58
   18  A    between atoms: C_23  and  C_28
   19  A    between atoms: C_26  and  N_54
   20  A    between atoms: C_27  and  C_29
   21  A    between atoms: C_28  and  C_60
   22  A    between atoms: C_29  and  C_61
   23  A    between atoms: C_33  and  C_35
   24  A    between atoms: C_35  and  C_63
   25  A    between atoms: C_43  and  N_49
   26  A    between atoms: N_49  and  C_50
   27  A    between atoms: C_55  and  C_58
                            x       y       z     vdW  Elec       q    Type
                         _______ _______ _______ _____ _____    ______ ____

>  <TORSDO>
F 27

$$$$
=
 OpenBabel11042410143D

 65 71  0  0  1  0  0  0  0  0999 V2000
  188.2880  177.9140  138.5310 C   0  0  1  0  0  3  0  0  0  0  0  0
  189.0140  175.7870  138.0950 C   0  0  1  0  0  3  0  0  0  0  0  0
  189.5600  176.0890  139.4980 C   0  0  1  0  0  3  0  0  0  0  0  0
  190.9600  176.1070  139.5380 O   0  0  0  0  0  1  0  0  0  0  0  0
  189.1480  178.1310  140.7980 N   0  0  0  0  0  0  0  0  0  0  0  0
  189.0350  177.4430  139.7140 C   0  0  0  0  0  0  0  0  0  0  0  0
  188.3540  176.9120  137.5410 O   0  0  0  0  0  0  0  0  0  0  0  0
  185.1850  178.9440  140.4810 C   0  0  0  0  0  3  0  0  0  0  0  0
  184.5310  178.4960  138.1940 C   0  0  0  0  0  3  0  0  0  0  0  0
  184.1990  178.8860  139.4940 C   0  0  0  0  0  3  0  0  0  0  0  0
  186.8550  178.2350  138.8610 C   0  0  0  0  0  0  0  0  0  0  0  0
  186.5060  178.6210  140.1660 C   0  0  0  0  0  3  0  0  0  0  0  0
  185.8530  178.1640  137.8700 C   0  0  0  0  0  0  0  0  0  0  0  0
  186.1470  177.6960  136.4740 C   0  0  0  0  0  2  0  0  0  0  0  0
  185.5330  176.3250  136.1860 C   0  0  0  0  0  2  0  0  0  0  0  0
  184.5150  176.3780  135.0510 C   0  0  1  0  0  3  0  0  0  0  0  0
  183.5470  175.3470  135.2360 O   0  0  0  0  0  0  0  0  0  0  0  0
  182.4260  177.2490  135.4010 C   0  0  0  0  0  0  0  0  0  0  0  0
  183.7440  177.5770  135.1420 O   0  0  0  0  0  0  0  0  0  0  0  0
  182.3110  175.9420  135.4430 C   0  0  0  0  0  0  0  0  0  0  0  0
  181.3460  178.2180  135.6020 C   0  0  0  0  0  3  0  0  0  0  0  0
  181.4200  179.1160  136.5750 C   0  0  0  0  0  3  0  0  0  0  0  0
  180.3200  180.0950  136.7780 C   0  0  0  0  0  2  0  0  0  0  0  0
  180.5650  181.3070  135.9060 C   0  0  0  0  0  1  0  0  0  0  0  0
  181.0970  175.2290  135.6820 N   0  0  0  0  0  2  0  0  0  0  0  0
  179.5950  173.7900  137.2260 C   0  0  0  0  0  2  0  0  0  0  0  0
  180.4840  173.0100  136.2950 C   0  0  1  0  0  3  0  0  0  0  0  0
  182.1220  173.7980  137.3650 O   0  0  0  0  0  0  0  0  0  0  0  0
  180.9470  174.3500  136.8300 C   0  0  1  0  0  0  0  0  0  0  0  0
  181.7310  172.5140  136.9700 C   0  0  0  0  0  2  0  0  0  0  0  0
  190.0180  175.1920  137.1040 C   0  0  0  0  0  2  0  0  0  0  0  0
  191.1130  176.1910  136.7470 C   0  0  0  0  0  2  0  0  0  0  0  0
  192.6860  174.2510  136.3140 C   0  0  0  0  0  2  0  0  0  0  0  0
  194.4250  175.5180  137.5290 O   0  0  0  0  0  0  0  0  0  0  0  0
  193.5880  174.3820  137.5570 C   0  0  0  0  0  2  0  0  0  0  0  0
  195.2450  175.4190  136.3910 C   0  0  0  0  0  2  0  0  0  0  0  0
  195.4880  177.1980  134.6680 C   0  0  0  0  0  1  0  0  0  0  0  0
  193.1940  176.6440  135.4520 C   0  0  0  0  0  2  0  0  0  0  0  0
  194.5930  176.0800  135.1620 C   0  0  2  0  0  3  0  0  0  0  0  0
  192.1280  175.5860  135.7890 C   0  0  2  0  0  3  0  0  0  0  0  0
  189.8730  177.6530  141.9480 C   0  0  0  0  0  2  0  0  0  0  0  0
  189.3350  176.3000  142.3840 C   0  0  0  0  0  2  0  0  0  0  0  0
  188.3850  176.4290  143.5700 C   0  0  0  0  0  2  0  0  0  0  0  0
  187.3550  177.5280  143.3510 C   0  0  0  0  0  2  0  0  0  0  0  0
  186.7170  177.9510  144.6650 C   0  0  2  0  0  3  0  0  0  0  0  0
  185.6010  178.9560  144.4030 C   0  0  0  0  0  2  0  0  0  0  0  0
  184.3370  178.2390  143.9510 C   0  0  0  0  0  2  0  0  0  0  0  0
  183.2030  179.2330  143.7540 C   0  0  0  0  0  2  0  0  0  0  0  0
  182.2890  178.8010  142.6170 C   0  0  0  0  0  2  0  0  0  0  0  0
  180.8880  178.6220  143.1080 C   0  0  0  0  0  0  0  0  0  0  0  0
  179.8010  178.4300  142.2000 N   0  0  0  0  0  2  0  0  0  0  0  0
  180.6580  178.6700  144.3430 O   0  0  0  0  0  0  0  0  0  0  0  0
  179.1760  177.1110  138.7940 C   0  0  0  0  0  1  0  0  0  0  0  0
  179.9740  178.3750  140.7580 C   0  0  2  0  0  3  0  0  0  0  0  0
  179.5490  177.0060  140.2580 C   0  0  2  0  0  3  0  0  0  0  0  0
  181.0180  177.3300  140.4220 C   0  0  0  0  0  2  0  0  0  0  0  0
  187.6930  178.5290  145.4950 O   0  0  0  0  0  0  0  0  0  0  0  0
  187.3870  178.2520  146.8470 C   0  0  1  0  0  0  0  0  0  0  0  0
  186.7000  179.3000  147.4490 F   0  0  0  0  0  0  0  0  0  0  0  0
  186.5600  176.9810  146.9590 C   0  0  0  0  0  1  0  0  0  0  0  0
  188.6830  178.0240  147.6110 C   0  0  0  0  0  2  0  0  0  0  0  0
  189.3410  176.7110  147.2190 C   0  0  0  0  0  2  0  0  0  0  0  0
  191.2010  177.2110  145.6390 O   0  0  0  0  0  0  0  0  0  0  0  0
  190.7830  176.9310  146.9330 C   0  0  0  0  0  0  0  0  0  0  0  0
  191.6280  176.8370  147.8610 O   0  0  0  0  0  1  0  0  0  0  0  0
  1 11  1  1  0  0  0
  1  6  1  0  0  0  0
  2 31  1  6  0  0  0
  2  3  1  0  0  0  0
  3  4  1  6  0  0  0
  3  6  1  0  0  0  0
  5 41  1  0  0  0  0
  6  5  2  0  0  0  0
  7  2  1  0  0  0  0
  7  1  1  0  0  0  0
  9 10  1  0  0  0  0
 10  8  2  0  0  0  0
 11 12  2  0  0  0  0
 12  8  1  0  0  0  0
 13  9  2  0  0  0  0
 13 11  1  0  0  0  0
 14 13  1  0  0  0  0
 15 14  1  0  0  0  0
 16 19  1  0  0  0  0
 16 17  1  0  0  0  0
 16 15  1  1  0  0  0
 17 20  1  0  0  0  0
 18 20  2  0  0  0  0
 18 21  1  0  0  0  0
 19 18  1  0  0  0  0
 20 25  1  0  0  0  0
 21 22  2  0  0  0  0
 22 23  1  0  0  0  0
 24 23  1  0  0  0  0
 27 29  1  0  0  0  0
 27 30  1  1  0  0  0
 27 26  1  0  0  0  0
 29 25  1  6  0  0  0
 29 26  1  0  0  0  0
 29 28  1  0  0  0  0
 30 28  1  0  0  0  0
 32 31  1  0  0  0  0
 33 35  1  0  0  0  0
 34 35  1  0  0  0  0
 36 34  1  0  0  0  0
 38 40  1  0  0  0  0
 39 37  1  1  0  0  0
 39 38  1  0  0  0  0
 39 36  1  0  0  0  0
 40 33  1  0  0  0  0
 40 32  1  1  0  0  0
 41 42  1  0  0  0  0
 42 43  1  0  0  0  0
 44 43  1  0  0  0  0
 45 44  1  6  0  0  0
 45 57  1  0  0  0  0
 46 45  1  0  0  0  0
 47 46  1  0  0  0  0
 48 47  1  0  0  0  0
 49 50  1  0  0  0  0
 49 48  1  0  0  0  0
 50 52  2  0  0  0  0
 51 50  1  0  0  0  0
 54 51  1  1  0  0  0
 55 53  1  6  0  0  0
 55 56  1  0  0  0  0
 55 54  1  0  0  0  0
 56 54  1  0  0  0  0
 57 58  1  0  0  0  0
 58 60  1  1  0  0  0
 58 59  1  0  0  0  0
 58 61  1  0  0  0  0
 62 61  1  0  0  0  0
 63 64  2  0  0  0  0
 64 62  1  0  0  0  0
 64 65  1  0  0  0  0
M  END
>  <MODEL>
5

>  <REMARK>
 VINA RESULT:      -5.3      2.227      4.113
  Name = 
  27 active torsions:
  status: ('A' for Active; 'I' for Inactive)
    1  A    between atoms: C_1  and  C_5
    2  A    between atoms: C_1  and  C_52
    3  A    between atoms: C_3  and  C_21
    4  A    between atoms: O_4  and  C_7
    5  A    between atoms: O_4  and  C_20
    6  A    between atoms: C_5  and  C_12
    7  A    between atoms: C_6  and  C_16
    8  A    between atoms: C_7  and  C_61
    9  A    between atoms: C_7  and  C_65
   10  A    between atoms: C_8  and  C_25
   11  A    between atoms: C_9  and  C_33
   12  A    between atoms: C_10  and  C_30
   13  A    between atoms: C_11  and  C_27
   14  A    between atoms: C_11  and  N_40
   15  A    between atoms: C_12  and  C_65
   16  A    between atoms: C_20  and  C_60
   17  A    between atoms: C_21  and  C_58
   18  A    between atoms: C_23  and  C_28
   19  A    between atoms: C_26  and  N_54
   20  A    between atoms: C_27  and  C_29
   21  A    between atoms: C_28  and  C_60
   22  A    between atoms: C_29  and  C_61
   23  A    between atoms: C_33  and  C_35
   24  A    between atoms: C_35  and  C_63
   25  A    between atoms: C_43  and  N_49
   26  A    between atoms: N_49  and  C_50
   27  A    between atoms: C_55  and  C_58
                            x       y       z     vdW  Elec       q    Type
                         _______ _______ _______ _____ _____    ______ ____

>  <TORSDO>
F 27

$$$$
=
 OpenBabel11042410143D

 65 71  0  0  1  0  0  0  0  0999 V2000
  189.6580  176.9630  138.6030 C   0  0  1  0  0  3  0  0  0  0  0  0
  189.5500  176.7530  140.8800 C   0  0  1  0  0  3  0  0  0  0  0  0
  188.2900  177.5520  140.5170 C   0  0  1  0  0  3  0  0  0  0  0  0
  188.2970  178.8430  141.0580 O   0  0  0  0  0  1  0  0  0  0  0  0
  187.5510  178.1290  138.2490 N   0  0  0  0  0  0  0  0  0  0  0  0
  188.4160  177.6200  139.0570 C   0  0  0  0  0  0  0  0  0  0  0  0
  190.3570  176.5100  139.7410 O   0  0  0  0  0  0  0  0  0  0  0  0
  187.8020  174.5460  136.3220 C   0  0  0  0  0  3  0  0  0  0  0  0
  190.1450  173.9390  136.3260 C   0  0  0  0  0  3  0  0  0  0  0  0
  188.8400  173.7250  135.8760 C   0  0  0  0  0  3  0  0  0  0  0  0
  189.3800  175.8200  137.6640 C   0  0  0  0  0  0  0  0  0  0  0  0
  188.0700  175.5880  137.2110 C   0  0  0  0  0  3  0  0  0  0  0  0
  190.4230  174.9790  137.2230 C   0  0  0  0  0  0  0  0  0  0  0  0
  191.8320  175.1310  137.7200 C   0  0  0  0  0  2  0  0  0  0  0  0
  192.5440  176.3200  137.0730 C   0  0  0  0  0  2  0  0  0  0  0  0
  193.4540  175.8900  135.9270 C   0  0  1  0  0  3  0  0  0  0  0  0
  194.7990  176.2560  136.2270 O   0  0  0  0  0  0  0  0  0  0  0  0
  194.7950  174.0450  136.1340 C   0  0  0  0  0  0  0  0  0  0  0  0
  193.5080  174.4650  135.8530 O   0  0  0  0  0  0  0  0  0  0  0  0
  195.5530  175.0970  136.3400 C   0  0  0  0  0  0  0  0  0  0  0  0
  195.2240  172.6460  136.1940 C   0  0  0  0  0  3  0  0  0  0  0  0
  194.4010  171.6720  135.8270 C   0  0  0  0  0  3  0  0  0  0  0  0
  194.8390  170.2540  135.8950 C   0  0  0  0  0  2  0  0  0  0  0  0
  194.4660  169.6820  137.2450 C   0  0  0  0  0  1  0  0  0  0  0  0
  196.9460  175.0600  136.6500 N   0  0  0  0  0  2  0  0  0  0  0  0
  198.5480  173.2780  137.6340 C   0  0  0  0  0  2  0  0  0  0  0  0
  198.9020  174.7020  137.9630 C   0  0  1  0  0  3  0  0  0  0  0  0
  197.1060  174.7860  139.0660 O   0  0  0  0  0  0  0  0  0  0  0  0
  197.4490  174.3100  137.7890 C   0  0  1  0  0  0  0  0  0  0  0  0
  198.4410  175.1090  139.3330 C   0  0  0  0  0  2  0  0  0  0  0  0
  190.3830  177.3130  142.0370 C   0  0  0  0  0  2  0  0  0  0  0  0
  189.9250  176.7550  143.3790 C   0  0  0  0  0  2  0  0  0  0  0  0
  191.2380  177.9590  145.1820 C   0  0  0  0  0  2  0  0  0  0  0  0
  190.4760  176.2180  146.7610 O   0  0  0  0  0  0  0  0  0  0  0  0
  191.5880  176.7550  146.0780 C   0  0  0  0  0  2  0  0  0  0  0  0
  189.9380  177.2340  147.5700 C   0  0  0  0  0  2  0  0  0  0  0  0
  187.5490  177.9310  147.5570 C   0  0  0  0  0  1  0  0  0  0  0  0
  188.6760  177.5970  145.3650 C   0  0  0  0  0  2  0  0  0  0  0  0
  188.8670  178.0500  146.8200 C   0  0  2  0  0  3  0  0  0  0  0  0
  189.8900  177.8360  144.4490 C   0  0  2  0  0  3  0  0  0  0  0  0
  186.3380  178.7580  138.7070 C   0  0  0  0  0  2  0  0  0  0  0  0
  185.2590  177.7140  138.9410 C   0  0  0  0  0  2  0  0  0  0  0  0
  183.8860  178.2210  138.5150 C   0  0  0  0  0  2  0  0  0  0  0  0
  182.8740  177.0880  138.4100 C   0  0  0  0  0  2  0  0  0  0  0  0
  181.5170  177.6050  137.9550 C   0  0  2  0  0  3  0  0  0  0  0  0
  181.3010  177.2760  136.4840 C   0  0  0  0  0  2  0  0  0  0  0  0
  182.4470  176.4270  135.9550 C   0  0  0  0  0  2  0  0  0  0  0  0
  182.1080  174.9480  136.0600 C   0  0  0  0  0  2  0  0  0  0  0  0
  183.3680  174.1090  136.2110 C   0  0  0  0  0  2  0  0  0  0  0  0
  183.0180  172.6930  136.5450 C   0  0  0  0  0  0  0  0  0  0  0  0
  181.6950  172.3280  136.9420 N   0  0  0  0  0  2  0  0  0  0  0  0
  183.9140  171.8120  136.5020 O   0  0  0  0  0  0  0  0  0  0  0  0
  179.2080  174.4240  138.7180 C   0  0  0  0  0  1  0  0  0  0  0  0
  180.6030  173.2830  137.0310 C   0  0  2  0  0  3  0  0  0  0  0  0
  179.9170  173.1290  138.3760 C   0  0  2  0  0  3  0  0  0  0  0  0
  179.2920  172.5330  137.1340 C   0  0  0  0  0  2  0  0  0  0  0  0
  181.4580  178.9960  138.1470 O   0  0  0  0  0  0  0  0  0  0  0  0
  180.3420  179.3150  138.9530 C   0  0  1  0  0  0  0  0  0  0  0  0
  179.4810  180.2040  138.3200 F   0  0  0  0  0  0  0  0  0  0  0  0
  179.5760  178.0560  139.3280 C   0  0  0  0  0  1  0  0  0  0  0  0
  180.8300  179.9550  140.2450 C   0  0  0  0  0  2  0  0  0  0  0  0
  181.0840  178.9150  141.3250 C   0  0  0  0  0  2  0  0  0  0  0  0
  180.0870  180.6400  142.8230 O   0  0  0  0  0  0  0  0  0  0  0  0
  180.8990  179.5230  142.6690 C   0  0  0  0  0  0  0  0  0  0  0  0
  181.4990  179.0400  143.6640 O   0  0  0  0  0  1  0  0  0  0  0  0
  1 11  1  6  0  0  0
  1  6  1  0  0  0  0
  1  7  1  0  0  0  0
  2 31  1  1  0  0  0
  3  2  1  0  0  0  0
  3  4  1  1  0  0  0
  5 41  1  0  0  0  0
  5  6  2  0  0  0  0
  6  3  1  0  0  0  0
  7  2  1  0  0  0  0
  8 12  1  0  0  0  0
  9 13  2  0  0  0  0
 10  8  2  0  0  0  0
 10  9  1  0  0  0  0
 12 11  2  0  0  0  0
 13 11  1  0  0  0  0
 13 14  1  0  0  0  0
 15 14  1  0  0  0  0
 16 17  1  0  0  0  0
 16 15  1  1  0  0  0
 17 20  1  0  0  0  0
 18 21  1  0  0  0  0
 18 20  2  0  0  0  0
 19 16  1  0  0  0  0
 19 18  1  0  0  0  0
 20 25  1  0  0  0  0
 22 23  1  0  0  0  0
 22 21  2  0  0  0  0
 23 24  1  0  0  0  0
 26 29  1  0  0  0  0
 27 26  1  1  0  0  0
 27 30  1  0  0  0  0
 28 30  1  0  0  0  0
 29 25  1  6  0  0  0
 29 27  1  0  0  0  0
 29 28  1  0  0  0  0
 31 32  1  0  0  0  0
 33 35  1  0  0  0  0
 34 36  1  0  0  0  0
 35 34  1  0  0  0  0
 38 39  1  0  0  0  0
 39 37  1  1  0  0  0
 39 36  1  0  0  0  0
 40 32  1  6  0  0  0
 40 33  1  0  0  0  0
 40 38  1  0  0  0  0
 41 42  1  0  0  0  0
 43 42  1  0  0  0  0
 44 43  1  0  0  0  0
 45 46  1  6  0  0  0
 45 57  1  0  0  0  0
 45 44  1  0  0  0  0
 47 48  1  0  0  0  0
 47 46  1  0  0  0  0
 48 49  1  0  0  0  0
 49 50  1  0  0  0  0
 50 51  1  0  0  0  0
 52 50  2  0  0  0  0
 54 51  1  1  0  0  0
 54 56  1  0  0  0  0
 54 55  1  0  0  0  0
 55 53  1  6  0  0  0
 56 55  1  0  0  0  0
 57 58  1  0  0  0  0
 58 60  1  1  0  0  0
 58 61  1  0  0  0  0
 59 58  1  0  0  0  0
 61 62  1  0  0  0  0
 62 64  1  0  0  0  0
 64 63  2  0  0  0  0
 64 65  1  0  0  0  0
M  END
>  <MODEL>
6

>  <REMARK>
 VINA RESULT:      -4.9      3.199     10.865
  Name = 
  27 active torsions:
  status: ('A' for Active; 'I' for Inactive)
    1  A    between atoms: C_1  and  C_5
    2  A    between atoms: C_1  and  C_52
    3  A    between atoms: C_3  and  C_21
    4  A    between atoms: O_4  and  C_7
    5  A    between atoms: O_4  and  C_20
    6  A    between atoms: C_5  and  C_12
    7  A    between atoms: C_6  and  C_16
    8  A    between atoms: C_7  and  C_61
    9  A    between atoms: C_7  and  C_65
   10  A    between atoms: C_8  and  C_25
   11  A    between atoms: C_9  and  C_33
   12  A    between atoms: C_10  and  C_30
   13  A    between atoms: C_11  and  C_27
   14  A    between atoms: C_11  and  N_40
   15  A    between atoms: C_12  and  C_65
   16  A    between atoms: C_20  and  C_60
   17  A    between atoms: C_21  and  C_58
   18  A    between atoms: C_23  and  C_28
   19  A    between atoms: C_26  and  N_54
   20  A    between atoms: C_27  and  C_29
   21  A    between atoms: C_28  and  C_60
   22  A    between atoms: C_29  and  C_61
   23  A    between atoms: C_33  and  C_35
   24  A    between atoms: C_35  and  C_63
   25  A    between atoms: C_43  and  N_49
   26  A    between atoms: N_49  and  C_50
   27  A    between atoms: C_55  and  C_58
                            x       y       z     vdW  Elec       q    Type
                         _______ _______ _______ _____ _____    ______ ____

>  <TORSDO>
F 27

$$$$
=
 OpenBabel11042410143D

 65 71  0  0  1  0  0  0  0  0999 V2000
  189.4190  177.0230  139.0610 C   0  0  1  0  0  3  0  0  0  0  0  0
  189.6680  176.4540  141.2650 C   0  0  1  0  0  3  0  0  0  0  0  0
  188.4200  177.3480  141.2470 C   0  0  1  0  0  3  0  0  0  0  0  0
  188.5960  178.5350  141.9690 O   0  0  0  0  0  1  0  0  0  0  0  0
  187.3620  178.3100  139.2510 N   0  0  0  0  0  0  0  0  0  0  0  0
  188.3120  177.6450  139.8140 C   0  0  0  0  0  0  0  0  0  0  0  0
  190.2620  176.3660  139.9820 O   0  0  0  0  0  0  0  0  0  0  0  0
  187.0680  175.0760  136.7870 C   0  0  0  0  0  3  0  0  0  0  0  0
  189.3360  174.3860  136.3040 C   0  0  0  0  0  3  0  0  0  0  0  0
  187.9650  174.2980  136.0530 C   0  0  0  0  0  3  0  0  0  0  0  0
  188.9200  176.0560  138.0210 C   0  0  0  0  0  0  0  0  0  0  0  0
  187.5430  175.9510  137.7660 C   0  0  0  0  0  3  0  0  0  0  0  0
  189.8220  175.2570  137.2870 C   0  0  0  0  0  0  0  0  0  0  0  0
  191.2990  175.2730  137.5560 C   0  0  0  0  0  2  0  0  0  0  0  0
  191.9900  176.4690  136.9000 C   0  0  0  0  0  2  0  0  0  0  0  0
  193.0180  176.0390  135.8580 C   0  0  1  0  0  3  0  0  0  0  0  0
  194.2460  175.7190  136.5070 O   0  0  0  0  0  0  0  0  0  0  0  0
  193.5510  173.8260  135.5930 C   0  0  0  0  0  0  0  0  0  0  0  0
  192.6240  174.8000  135.2660 O   0  0  0  0  0  0  0  0  0  0  0  0
  194.5060  174.3700  136.3090 C   0  0  0  0  0  0  0  0  0  0  0  0
  193.4590  172.4190  135.1990 C   0  0  0  0  0  3  0  0  0  0  0  0
  193.0610  171.5010  136.0700 C   0  0  0  0  0  3  0  0  0  0  0  0
  192.9750  170.0730  135.6670 C   0  0  0  0  0  2  0  0  0  0  0  0
  194.2670  169.6680  134.9910 C   0  0  0  0  0  1  0  0  0  0  0  0
  195.6430  173.6780  136.8260 N   0  0  0  0  0  2  0  0  0  0  0  0
  197.3150  174.1600  138.7460 C   0  0  0  0  0  2  0  0  0  0  0  0
  197.8750  173.3630  137.5990 C   0  0  1  0  0  3  0  0  0  0  0  0
  197.5930  175.0770  136.4030 O   0  0  0  0  0  0  0  0  0  0  0  0
  196.7980  174.3960  137.3400 C   0  0  1  0  0  0  0  0  0  0  0  0
  198.6630  174.2070  136.6400 C   0  0  0  0  0  2  0  0  0  0  0  0
  190.7110  176.7890  142.3350 C   0  0  0  0  0  2  0  0  0  0  0  0
  190.2350  176.3890  143.7270 C   0  0  0  0  0  2  0  0  0  0  0  0
  190.5670  178.1030  145.5640 C   0  0  0  0  0  2  0  0  0  0  0  0
  189.5810  176.4680  147.1320 O   0  0  0  0  0  0  0  0  0  0  0  0
  190.7590  177.1500  146.7590 C   0  0  0  0  0  2  0  0  0  0  0  0
  188.6190  177.4330  147.4800 C   0  0  0  0  0  2  0  0  0  0  0  0
  186.3230  177.5440  146.5270 C   0  0  0  0  0  1  0  0  0  0  0  0
  188.2180  177.1830  144.9580 C   0  0  0  0  0  2  0  0  0  0  0  0
  187.7800  177.8640  146.2620 C   0  0  2  0  0  3  0  0  0  0  0  0
  189.6260  177.5690  144.4680 C   0  0  2  0  0  3  0  0  0  0  0  0
  186.2820  178.9030  139.9980 C   0  0  0  0  0  2  0  0  0  0  0  0
  185.0220  178.0650  139.8580 C   0  0  0  0  0  2  0  0  0  0  0  0
  184.1060  178.6070  138.7660 C   0  0  0  0  0  2  0  0  0  0  0  0
  182.8030  177.8250  138.6830 C   0  0  0  0  0  2  0  0  0  0  0  0
  181.8230  178.4920  137.7290 C   0  0  2  0  0  3  0  0  0  0  0  0
  181.9450  177.8760  136.3410 C   0  0  0  0  0  2  0  0  0  0  0  0
  183.3260  177.2650  136.1510 C   0  0  0  0  0  2  0  0  0  0  0  0
  183.3590  175.8440  136.6910 C   0  0  0  0  0  2  0  0  0  0  0  0
  183.3280  174.8280  135.5600 C   0  0  0  0  0  2  0  0  0  0  0  0
  183.3730  173.4350  136.1030 C   0  0  0  0  0  0  0  0  0  0  0  0
  182.2640  172.8770  136.8120 N   0  0  0  0  0  2  0  0  0  0  0  0
  184.4180  172.7510  135.9570 O   0  0  0  0  0  0  0  0  0  0  0  0
  179.2050  173.7850  138.6950 C   0  0  0  0  0  1  0  0  0  0  0  0
  181.0240  173.6010  137.0380 C   0  0  2  0  0  3  0  0  0  0  0  0
  180.1710  172.8280  138.0270 C   0  0  2  0  0  3  0  0  0  0  0  0
  179.8620  172.7630  136.5470 C   0  0  0  0  0  2  0  0  0  0  0  0
  182.0970  179.8690  137.6650 O   0  0  0  0  0  0  0  0  0  0  0  0
  180.8990  180.5970  137.8530 C   0  0  1  0  0  0  0  0  0  0  0  0
  179.7800  179.7740  137.8200 F   0  0  0  0  0  0  0  0  0  0  0  0
  180.9310  181.3480  139.1750 C   0  0  0  0  0  1  0  0  0  0  0  0
  180.7700  181.6310  136.7430 C   0  0  0  0  0  2  0  0  0  0  0  0
  180.1940  182.9400  137.2590 C   0  0  0  0  0  2  0  0  0  0  0  0
  180.3180  184.3210  135.1890 O   0  0  0  0  0  0  0  0  0  0  0  0
  180.7520  184.0800  136.4860 C   0  0  0  0  0  0  0  0  0  0  0  0
  181.6370  184.8120  137.0000 O   0  0  0  0  0  1  0  0  0  0  0  0
  1 11  1  6  0  0  0
  1  6  1  0  0  0  0
  1  7  1  0  0  0  0
  2 31  1  1  0  0  0
  3  2  1  0  0  0  0
  3  4  1  1  0  0  0
  5  6  2  0  0  0  0
  5 41  1  0  0  0  0
  6  3  1  0  0  0  0
  7  2  1  0  0  0  0
  8 12  1  0  0  0  0
  9 13  2  0  0  0  0
 10  9  1  0  0  0  0
 10  8  2  0  0  0  0
 12 11  2  0  0  0  0
 13 14  1  0  0  0  0
 13 11  1  0  0  0  0
 15 14  1  0  0  0  0
 16 17  1  0  0  0  0
 16 15  1  1  0  0  0
 18 20  2  0  0  0  0
 19 18  1  0  0  0  0
 19 16  1  0  0  0  0
 20 17  1  0  0  0  0
 20 25  1  0  0  0  0
 21 18  1  0  0  0  0
 21 22  2  0  0  0  0
 23 22  1  0  0  0  0
 24 23  1  0  0  0  0
 27 30  1  6  0  0  0
 27 26  1  0  0  0  0
 28 30  1  0  0  0  0
 28 29  1  0  0  0  0
 29 25  1  6  0  0  0
 29 27  1  0  0  0  0
 29 26  1  0  0  0  0
 31 32  1  0  0  0  0
 33 35  1  0  0  0  0
 34 36  1  0  0  0  0
 35 34  1  0  0  0  0
 38 39  1  0  0  0  0
 39 37  1  1  0  0  0
 39 36  1  0  0  0  0
 40 32  1  1  0  0  0
 40 38  1  0  0  0  0
 40 33  1  0  0  0  0
 42 41  1  0  0  0  0
 43 42  1  0  0  0  0
 44 43  1  0  0  0  0
 45 46  1  6  0  0  0
 45 44  1  0  0  0  0
 47 46  1  0  0  0  0
 47 48  1  0  0  0  0
 49 50  1  0  0  0  0
 49 48  1  0  0  0  0
 50 51  1  0  0  0  0
 52 50  2  0  0  0  0
 54 51  1  6  0  0  0
 54 55  1  0  0  0  0
 55 53  1  1  0  0  0
 56 54  1  0  0  0  0
 56 55  1  0  0  0  0
 57 45  1  0  0  0  0
 57 58  1  0  0  0  0
 58 60  1  1  0  0  0
 59 58  1  0  0  0  0
 61 62  1  0  0  0  0
 61 58  1  0  0  0  0
 63 64  2  0  0  0  0
 64 65  1  0  0  0  0
 64 62  1  0  0  0  0
M  END
>  <MODEL>
7

>  <REMARK>
 VINA RESULT:      -4.5      3.010     11.070
  Name = 
  27 active torsions:
  status: ('A' for Active; 'I' for Inactive)
    1  A    between atoms: C_1  and  C_5
    2  A    between atoms: C_1  and  C_52
    3  A    between atoms: C_3  and  C_21
    4  A    between atoms: O_4  and  C_7
    5  A    between atoms: O_4  and  C_20
    6  A    between atoms: C_5  and  C_12
    7  A    between atoms: C_6  and  C_16
    8  A    between atoms: C_7  and  C_61
    9  A    between atoms: C_7  and  C_65
   10  A    between atoms: C_8  and  C_25
   11  A    between atoms: C_9  and  C_33
   12  A    between atoms: C_10  and  C_30
   13  A    between atoms: C_11  and  C_27
   14  A    between atoms: C_11  and  N_40
   15  A    between atoms: C_12  and  C_65
   16  A    between atoms: C_20  and  C_60
   17  A    between atoms: C_21  and  C_58
   18  A    between atoms: C_23  and  C_28
   19  A    between atoms: C_26  and  N_54
   20  A    between atoms: C_27  and  C_29
   21  A    between atoms: C_28  and  C_60
   22  A    between atoms: C_29  and  C_61
   23  A    between atoms: C_33  and  C_35
   24  A    between atoms: C_35  and  C_63
   25  A    between atoms: C_43  and  N_49
   26  A    between atoms: N_49  and  C_50
   27  A    between atoms: C_55  and  C_58
                            x       y       z     vdW  Elec       q    Type
                         _______ _______ _______ _____ _____    ______ ____

>  <TORSDO>
F 27

$$$$
=
 OpenBabel11042410143D

 65 71  0  0  1  0  0  0  0  0999 V2000
  183.7460  178.7160  140.0450 C   0  0  1  0  0  3  0  0  0  0  0  0
  183.4070  176.8470  138.7670 C   0  0  1  0  0  3  0  0  0  0  0  0
  184.9000  177.1580  138.5880 C   0  0  1  0  0  3  0  0  0  0  0  0
  185.2270  177.4890  137.2670 O   0  0  0  0  0  1  0  0  0  0  0  0
  186.1460  178.9490  139.7130 N   0  0  0  0  0  0  0  0  0  0  0  0
  185.0430  178.3370  139.4500 C   0  0  0  0  0  0  0  0  0  0  0  0
  182.7620  177.8330  139.5540 O   0  0  0  0  0  0  0  0  0  0  0  0
  185.0590  178.4520  143.6080 C   0  0  0  0  0  3  0  0  0  0  0  0
  182.6760  178.8590  143.7050 C   0  0  0  0  0  3  0  0  0  0  0  0
  183.8960  178.6530  144.3540 C   0  0  0  0  0  3  0  0  0  0  0  0
  183.7850  178.6790  141.5490 C   0  0  0  0  0  0  0  0  0  0  0  0
  185.0050  178.4650  142.2130 C   0  0  0  0  0  3  0  0  0  0  0  0
  182.6100  178.8680  142.3060 C   0  0  0  0  0  0  0  0  0  0  0  0
  181.2650  179.0360  141.6590 C   0  0  0  0  0  2  0  0  0  0  0  0
  180.5440  177.7000  141.4780 C   0  0  0  0  0  2  0  0  0  0  0  0
  179.2320  177.8540  140.7140 C   0  0  1  0  0  3  0  0  0  0  0  0
  179.2560  179.0720  139.9730 O   0  0  0  0  0  0  0  0  0  0  0  0
  179.1470  177.4620  138.4580 C   0  0  0  0  0  0  0  0  0  0  0  0
  179.1370  176.8520  139.7000 O   0  0  0  0  0  0  0  0  0  0  0  0
  179.2030  178.7630  138.6210 C   0  0  0  0  0  0  0  0  0  0  0  0
  179.1060  176.7520  137.1780 C   0  0  0  0  0  3  0  0  0  0  0  0
  178.9670  175.4330  137.1430 C   0  0  0  0  0  3  0  0  0  0  0  0
  178.9320  174.7170  135.8410 C   0  0  0  0  0  2  0  0  0  0  0  0
  179.3550  173.2800  136.0520 C   0  0  0  0  0  1  0  0  0  0  0  0
  179.2230  179.7250  137.5670 N   0  0  0  0  0  2  0  0  0  0  0  0
  180.7980  180.9910  135.9460 C   0  0  0  0  0  2  0  0  0  0  0  0
  179.8560  181.8640  136.7300 C   0  0  1  0  0  3  0  0  0  0  0  0
  180.8960  181.2540  138.4610 O   0  0  0  0  0  0  0  0  0  0  0  0
  180.3770  180.5800  137.3430 C   0  0  1  0  0  0  0  0  0  0  0  0
  180.5120  182.4890  137.9280 C   0  0  0  0  0  2  0  0  0  0  0  0
  182.6250  176.5720  137.4790 C   0  0  0  0  0  2  0  0  0  0  0  0
  183.4670  176.8580  136.2400 C   0  0  0  0  0  2  0  0  0  0  0  0
  182.9270  174.3940  135.9980 C   0  0  0  0  0  2  0  0  0  0  0  0
  184.9330  173.9210  137.3610 O   0  0  0  0  0  0  0  0  0  0  0  0
  183.5220  173.8790  137.3220 C   0  0  0  0  0  2  0  0  0  0  0  0
  185.4140  173.1170  136.3120 C   0  0  0  0  0  2  0  0  0  0  0  0
  187.0500  173.8700  134.5950 C   0  0  0  0  0  1  0  0  0  0  0  0
  185.1660  175.3940  135.1540 C   0  0  0  0  0  2  0  0  0  0  0  0
  185.5950  173.9260  135.0130 C   0  0  2  0  0  3  0  0  0  0  0  0
  183.6610  175.6070  135.3980 C   0  0  2  0  0  3  0  0  0  0  0  0
  187.4060  178.5610  139.1310 C   0  0  0  0  0  2  0  0  0  0  0  0
  187.9620  177.3390  139.8440 C   0  0  0  0  0  2  0  0  0  0  0  0
  188.0830  177.5720  141.3460 C   0  0  0  0  0  2  0  0  0  0  0  0
  189.4720  178.0610  141.7300 C   0  0  0  0  0  2  0  0  0  0  0  0
  190.5530  177.2110  141.0800 C   0  0  2  0  0  3  0  0  0  0  0  0
  191.7710  177.1280  141.9910 C   0  0  0  0  0  2  0  0  0  0  0  0
  191.4700  176.2550  143.2010 C   0  0  0  0  0  2  0  0  0  0  0  0
  191.3640  177.1050  144.4580 C   0  0  0  0  0  2  0  0  0  0  0  0
  190.4300  176.4640  145.4730 C   0  0  0  0  0  2  0  0  0  0  0  0
  190.7000  176.9960  146.8450 C   0  0  0  0  0  0  0  0  0  0  0  0
  189.7860  177.8850  147.4910 N   0  0  0  0  0  2  0  0  0  0  0  0
  191.7660  176.6770  147.4290 O   0  0  0  0  0  0  0  0  0  0  0  0
  186.3090  179.1670  147.5160 C   0  0  0  0  0  1  0  0  0  0  0  0
  188.5380  178.3150  146.8830 C   0  0  2  0  0  3  0  0  0  0  0  0
  187.4260  178.2230  147.9120 C   0  0  2  0  0  3  0  0  0  0  0  0
  187.5700  177.1510  146.8540 C   0  0  0  0  0  2  0  0  0  0  0  0
  190.9170  177.7800  139.8470 O   0  0  0  0  0  0  0  0  0  0  0  0
  191.3130  176.7580  138.9540 C   0  0  1  0  0  0  0  0  0  0  0  0
  190.6820  175.5510  139.2320 F   0  0  0  0  0  0  0  0  0  0  0  0
  191.0170  177.1600  137.5170 C   0  0  0  0  0  1  0  0  0  0  0  0
  192.8170  176.5540  139.0710 C   0  0  0  0  0  2  0  0  0  0  0  0
  193.4770  176.4460  137.7060 C   0  0  0  0  0  2  0  0  0  0  0  0
  193.0030  174.1540  136.8500 O   0  0  0  0  0  0  0  0  0  0  0  0
  193.8880  175.0400  137.4510 C   0  0  0  0  0  0  0  0  0  0  0  0
  195.0300  174.6470  137.8040 O   0  0  0  0  0  1  0  0  0  0  0  0
  1 11  1  1  0  0  0
  2 31  1  6  0  0  0
  2  7  1  0  0  0  0
  3  4  1  6  0  0  0
  3  2  1  0  0  0  0
  3  6  1  0  0  0  0
  6  5  2  0  0  0  0
  6  1  1  0  0  0  0
  7  1  1  0  0  0  0
  8 10  1  0  0  0  0
  9 10  2  0  0  0  0
 11 12  1  0  0  0  0
 11 13  2  0  0  0  0
 12  8  2  0  0  0  0
 13  9  1  0  0  0  0
 14 13  1  0  0  0  0
 15 14  1  0  0  0  0
 16 15  1  6  0  0  0
 17 16  1  0  0  0  0
 18 20  2  0  0  0  0
 18 19  1  0  0  0  0
 19 16  1  0  0  0  0
 20 17  1  0  0  0  0
 21 18  1  0  0  0  0
 22 21  2  0  0  0  0
 23 24  1  0  0  0  0
 23 22  1  0  0  0  0
 25 20  1  0  0  0  0
 26 29  1  0  0  0  0
 27 26  1  6  0  0  0
 27 29  1  0  0  0  0
 27 30  1  0  0  0  0
 29 25  1  1  0  0  0
 29 28  1  0  0  0  0
 30 28  1  0  0  0  0
 32 31  1  0  0  0  0
 33 35  1  0  0  0  0
 35 34  1  0  0  0  0
 36 34  1  0  0  0  0
 38 40  1  0  0  0  0
 39 37  1  1  0  0  0
 39 38  1  0  0  0  0
 39 36  1  0  0  0  0
 40 33  1  0  0  0  0
 40 32  1  1  0  0  0
 41  5  1  0  0  0  0
 41 42  1  0  0  0  0
 42 43  1  0  0  0  0
 43 44  1  0  0  0  0
 45 44  1  1  0  0  0
 45 46  1  0  0  0  0
 46 47  1  0  0  0  0
 47 48  1  0  0  0  0
 48 49  1  0  0  0  0
 49 50  1  0  0  0  0
 50 52  2  0  0  0  0
 50 51  1  0  0  0  0
 54 51  1  1  0  0  0
 54 55  1  0  0  0  0
 55 53  1  6  0  0  0
 56 54  1  0  0  0  0
 56 55  1  0  0  0  0
 57 45  1  0  0  0  0
 58 60  1  6  0  0  0
 58 61  1  0  0  0  0
 58 59  1  0  0  0  0
 58 57  1  0  0  0  0
 62 61  1  0  0  0  0
 63 64  2  0  0  0  0
 64 62  1  0  0  0  0
 64 65  1  0  0  0  0
M  END
>  <MODEL>
8

>  <REMARK>
 VINA RESULT:      -4.1      2.593      7.354
  Name = 
  27 active torsions:
  status: ('A' for Active; 'I' for Inactive)
    1  A    between atoms: C_1  and  C_5
    2  A    between atoms: C_1  and  C_52
    3  A    between atoms: C_3  and  C_21
    4  A    between atoms: O_4  and  C_7
    5  A    between atoms: O_4  and  C_20
    6  A    between atoms: C_5  and  C_12
    7  A    between atoms: C_6  and  C_16
    8  A    between atoms: C_7  and  C_61
    9  A    between atoms: C_7  and  C_65
   10  A    between atoms: C_8  and  C_25
   11  A    between atoms: C_9  and  C_33
   12  A    between atoms: C_10  and  C_30
   13  A    between atoms: C_11  and  C_27
   14  A    between atoms: C_11  and  N_40
   15  A    between atoms: C_12  and  C_65
   16  A    between atoms: C_20  and  C_60
   17  A    between atoms: C_21  and  C_58
   18  A    between atoms: C_23  and  C_28
   19  A    between atoms: C_26  and  N_54
   20  A    between atoms: C_27  and  C_29
   21  A    between atoms: C_28  and  C_60
   22  A    between atoms: C_29  and  C_61
   23  A    between atoms: C_33  and  C_35
   24  A    between atoms: C_35  and  C_63
   25  A    between atoms: C_43  and  N_49
   26  A    between atoms: N_49  and  C_50
   27  A    between atoms: C_55  and  C_58
                            x       y       z     vdW  Elec       q    Type
                         _______ _______ _______ _____ _____    ______ ____

>  <TORSDO>
F 27

$$$$
