=
 OpenBabel11042410523D

 26 30  0  0  1  0  0  0  0  0999 V2000
  185.0690  178.4330  143.5020 C   0  0  0  0  0  0  0  0  0  0  0  0
  187.3930  177.8410  143.7350 C   0  0  0  0  0  0  0  0  0  0  0  0
  185.2750  178.5680  142.1220 C   0  0  0  0  0  0  0  0  0  0  0  0
  186.5150  178.3340  141.6110 N   0  0  0  0  0  0  0  0  0  0  0  0
  186.1420  178.0680  144.3120 C   0  0  0  0  0  3  0  0  0  0  0  0
  183.7370  178.6710  144.1290 C   0  0  0  0  0  1  0  0  0  0  0  0
  187.5390  177.9840  142.3910 N   0  0  0  0  0  0  0  0  0  0  0  0
  190.4170  176.8420  145.1670 C   0  0  0  0  0  0  0  0  0  0  0  0
  191.6730  176.4390  145.3920 N   0  0  0  0  0  0  0  0  0  0  0  0
  188.5420  177.4550  144.5650 C   0  0  0  0  0  0  0  0  0  0  0  0
  188.5040  177.4350  145.9340 N   0  0  0  0  0  0  0  0  0  0  0  0
  190.4460  176.7860  147.3130 C   0  0  0  0  0  3  0  0  0  0  0  0
  189.7190  177.0390  146.2270 N   0  0  0  0  0  0  0  0  0  0  0  0
  189.7530  177.0810  144.0290 N   0  0  0  0  0  2  0  0  0  0  0  0
  191.6900  176.4040  146.7650 C   0  0  0  0  0  3  0  0  0  0  0  0
  183.4160  177.7250  140.7130 C   0  0  0  0  0  2  0  0  0  0  0  0
  184.6650  179.6700  140.0460 N   0  0  0  0  0  2  0  0  0  0  0  0
  183.1390  177.9910  139.2520 C   0  0  1  0  0  3  0  0  0  0  0  0
  183.7630  179.3420  138.9520 C   0  0  0  0  0  2  0  0  0  0  0  0
  184.1530  178.9530  141.2050 C   0  0  2  0  0  3  0  0  0  0  0  0
  184.6110  174.9700  136.7250 O   0  0  0  0  0  0  0  0  0  0  0  0
  183.6580  174.6640  137.7040 C   0  0  0  0  0  3  0  0  0  0  0  0
  183.7270  176.9480  138.4190 N   0  0  0  0  0  0  0  0  0  0  0  0
  183.2040  175.6170  138.5170 C   0  0  0  0  0  3  0  0  0  0  0  0
  184.9340  177.1960  137.6230 C   0  0  0  0  0  2  0  0  0  0  0  0
  184.9140  176.3220  136.3730 C   0  0  0  0  0  2  0  0  0  0  0  0
  1  6  1  0  0  0  0
  1  5  1  0  0  0  0
  2  5  2  0  0  0  0
  2 10  1  0  0  0  0
  3  1  2  0  0  0  0
  4  3  1  0  0  0  0
  4  7  2  0  0  0  0
  7  2  1  0  0  0  0
  8  9  2  0  0  0  0
  8 13  1  0  0  0  0
  9 15  1  0  0  0  0
 10 11  2  0  0  0  0
 11 13  1  0  0  0  0
 13 12  1  0  0  0  0
 14 10  1  0  0  0  0
 14  8  1  0  0  0  0
 15 12  2  0  0  0  0
 16 20  1  0  0  0  0
 17 20  1  0  0  0  0
 18 23  1  6  0  0  0
 18 16  1  0  0  0  0
 19 18  1  0  0  0  0
 19 17  1  0  0  0  0
 20  3  1  1  0  0  0
 21 22  1  0  0  0  0
 22 24  2  0  0  0  0
 23 24  1  0  0  0  0
 25 23  1  0  0  0  0
 26 21  1  0  0  0  0
 26 25  1  0  0  0  0
M  END
>  <MODEL>
1

>  <REMARK>
 VINA RESULT:      -8.2      0.000      0.000
  Name = 
  3 active torsions:
  status: ('A' for Active; 'I' for Inactive)
    1  A    between atoms: C_6  and  C_10
    2  A    between atoms: C_7  and  C_26
    3  A    between atoms: N_11  and  C_14
                            x       y       z     vdW  Elec       q    Type
                         _______ _______ _______ _____ _____    ______ ____

>  <TORSDO>
F 3

$$$$
=
 OpenBabel11042410523D

 26 30  0  0  1  0  0  0  0  0999 V2000
  186.3830  177.9430  144.6800 C   0  0  0  0  0  0  0  0  0  0  0  0
  184.4410  178.3530  143.3160 C   0  0  0  0  0  0  0  0  0  0  0  0
  187.1310  177.7690  143.5070 C   0  0  0  0  0  0  0  0  0  0  0  0
  186.5120  177.8960  142.3020 N   0  0  0  0  0  0  0  0  0  0  0  0
  185.0250  178.2360  144.5770 C   0  0  0  0  0  3  0  0  0  0  0  0
  186.9980  177.8210  146.0330 C   0  0  0  0  0  1  0  0  0  0  0  0
  185.2100  178.1770  142.2090 N   0  0  0  0  0  0  0  0  0  0  0  0
  181.0210  179.0020  143.6010 C   0  0  0  0  0  0  0  0  0  0  0  0
  179.7710  179.1950  144.0380 N   0  0  0  0  0  0  0  0  0  0  0  0
  183.0110  178.6620  143.1780 C   0  0  0  0  0  0  0  0  0  0  0  0
  182.4220  178.9580  141.9760 N   0  0  0  0  0  0  0  0  0  0  0  0
  180.0190  179.4780  141.7630 C   0  0  0  0  0  3  0  0  0  0  0  0
  181.1770  179.1560  142.3350 N   0  0  0  0  0  0  0  0  0  0  0  0
  182.1480  178.6800  144.2490 N   0  0  0  0  0  2  0  0  0  0  0  0
  179.1310  179.4990  142.8620 C   0  0  0  0  0  3  0  0  0  0  0  0
  189.3650  178.3190  142.5780 C   0  0  0  0  0  2  0  0  0  0  0  0
  188.8360  176.0620  143.2250 N   0  0  0  0  0  2  0  0  0  0  0  0
  190.3880  177.3940  141.9620 C   0  0  1  0  0  3  0  0  0  0  0  0
  190.1410  176.0310  142.5830 C   0  0  0  0  0  2  0  0  0  0  0  0
  188.5970  177.4590  143.5600 C   0  0  2  0  0  3  0  0  0  0  0  0
  189.9410  176.9940  137.8000 O   0  0  0  0  0  0  0  0  0  0  0  0
  191.1790  176.7360  138.4010 C   0  0  0  0  0  3  0  0  0  0  0  0
  190.2280  177.3440  140.5120 N   0  0  0  0  0  0  0  0  0  0  0  0
  191.3270  176.8790  139.7170 C   0  0  0  0  0  3  0  0  0  0  0  0
  189.0450  177.9110  139.8550 C   0  0  0  0  0  2  0  0  0  0  0  0
  188.7480  177.1360  138.5750 C   0  0  0  0  0  2  0  0  0  0  0  0
  1  6  1  0  0  0  0
  2  5  2  0  0  0  0
  3  1  2  0  0  0  0
  4  3  1  0  0  0  0
  5  1  1  0  0  0  0
  7  4  2  0  0  0  0
  7  2  1  0  0  0  0
  8  9  2  0  0  0  0
  8 14  1  0  0  0  0
 10  2  1  0  0  0  0
 10 14  1  0  0  0  0
 11 13  1  0  0  0  0
 11 10  2  0  0  0  0
 12 13  1  0  0  0  0
 12 15  2  0  0  0  0
 13  8  1  0  0  0  0
 15  9  1  0  0  0  0
 16 20  1  0  0  0  0
 17 20  1  0  0  0  0
 18 23  1  6  0  0  0
 18 16  1  0  0  0  0
 18 19  1  0  0  0  0
 19 17  1  0  0  0  0
 20  3  1  6  0  0  0
 21 22  1  0  0  0  0
 21 26  1  0  0  0  0
 22 24  2  0  0  0  0
 24 23  1  0  0  0  0
 25 23  1  0  0  0  0
 26 25  1  0  0  0  0
M  END
>  <MODEL>
2

>  <REMARK>
 VINA RESULT:      -8.0      3.529      7.191
  Name = 
  3 active torsions:
  status: ('A' for Active; 'I' for Inactive)
    1  A    between atoms: C_6  and  C_10
    2  A    between atoms: C_7  and  C_26
    3  A    between atoms: N_11  and  C_14
                            x       y       z     vdW  Elec       q    Type
                         _______ _______ _______ _____ _____    ______ ____

>  <TORSDO>
F 3

$$$$
=
 OpenBabel11042410523D

 26 30  0  0  1  0  0  0  0  0999 V2000
  187.7020  178.2360  141.2410 C   0  0  0  0  0  0  0  0  0  0  0  0
  189.4620  177.4890  142.7060 C   0  0  0  0  0  0  0  0  0  0  0  0
  188.5240  177.9270  140.1480 C   0  0  0  0  0  0  0  0  0  0  0  0
  189.7640  177.4160  140.3760 N   0  0  0  0  0  0  0  0  0  0  0  0
  188.1810  178.0140  142.5300 C   0  0  0  0  0  3  0  0  0  0  0  0
  186.3310  178.7960  141.0640 C   0  0  0  0  0  1  0  0  0  0  0  0
  190.2190  177.2050  141.6130 N   0  0  0  0  0  0  0  0  0  0  0  0
  191.2480  176.7540  145.6160 C   0  0  0  0  0  0  0  0  0  0  0  0
  192.1800  176.4080  146.5110 N   0  0  0  0  0  0  0  0  0  0  0  0
  189.9930  177.2440  144.0540 C   0  0  0  0  0  0  0  0  0  0  0  0
  189.2540  177.4230  145.1940 N   0  0  0  0  0  0  0  0  0  0  0  0
  190.1640  177.0110  147.4510 C   0  0  0  0  0  3  0  0  0  0  0  0
  190.1170  177.0920  146.1230 N   0  0  0  0  0  0  0  0  0  0  0  0
  191.2810  176.8150  144.2780 N   0  0  0  0  0  2  0  0  0  0  0  0
  191.4860  176.5720  147.6840 C   0  0  0  0  0  3  0  0  0  0  0  0
  188.1730  176.8640  137.9350 C   0  0  0  0  0  2  0  0  0  0  0  0
  188.8540  179.1670  138.0860 N   0  0  0  0  0  2  0  0  0  0  0  0
  188.6900  177.2980  136.5830 C   0  0  1  0  0  3  0  0  0  0  0  0
  188.8860  178.8000  136.6780 C   0  0  0  0  0  2  0  0  0  0  0  0
  188.0550  178.1400  138.7400 C   0  0  2  0  0  3  0  0  0  0  0  0
  192.4050  175.5850  135.6110 O   0  0  0  0  0  0  0  0  0  0  0  0
  191.5340  175.9970  134.5950 C   0  0  0  0  0  3  0  0  0  0  0  0
  189.9470  176.6250  136.2730 N   0  0  0  0  0  0  0  0  0  0  0  0
  190.3490  176.5230  134.9010 C   0  0  0  0  0  3  0  0  0  0  0  0
  190.7070  175.9140  137.3070 C   0  0  0  0  0  2  0  0  0  0  0  0
  192.1960  175.9620  136.9740 C   0  0  0  0  0  2  0  0  0  0  0  0
  1  5  1  0  0  0  0
  2 10  1  0  0  0  0
  3  4  1  0  0  0  0
  3  1  2  0  0  0  0
  4  7  2  0  0  0  0
  5  2  2  0  0  0  0
  6  1  1  0  0  0  0
  7  2  1  0  0  0  0
  8 13  1  0  0  0  0
  8  9  2  0  0  0  0
  9 15  1  0  0  0  0
 10 14  1  0  0  0  0
 10 11  2  0  0  0  0
 11 13  1  0  0  0  0
 12 15  2  0  0  0  0
 13 12  1  0  0  0  0
 14  8  1  0  0  0  0
 16 20  1  0  0  0  0
 17 20  1  0  0  0  0
 18 23  1  1  0  0  0
 18 19  1  0  0  0  0
 18 16  1  0  0  0  0
 19 17  1  0  0  0  0
 20  3  1  1  0  0  0
 21 26  1  0  0  0  0
 22 24  2  0  0  0  0
 22 21  1  0  0  0  0
 23 25  1  0  0  0  0
 24 23  1  0  0  0  0
 26 25  1  0  0  0  0
M  END
>  <MODEL>
3

>  <REMARK>
 VINA RESULT:      -7.9      3.925      4.659
  Name = 
  3 active torsions:
  status: ('A' for Active; 'I' for Inactive)
    1  A    between atoms: C_6  and  C_10
    2  A    between atoms: C_7  and  C_26
    3  A    between atoms: N_11  and  C_14
                            x       y       z     vdW  Elec       q    Type
                         _______ _______ _______ _____ _____    ______ ____

>  <TORSDO>
F 3

$$$$
=
 OpenBabel11042410523D

 26 30  0  0  1  0  0  0  0  0999 V2000
  187.8450  178.1960  140.6640 C   0  0  0  0  0  0  0  0  0  0  0  0
  185.5000  178.7240  140.8260 C   0  0  0  0  0  0  0  0  0  0  0  0
  187.8550  177.9590  142.0460 C   0  0  0  0  0  0  0  0  0  0  0  0
  186.7010  178.1100  142.7520 N   0  0  0  0  0  0  0  0  0  0  0  0
  186.6540  178.5830  140.0540 C   0  0  0  0  0  3  0  0  0  0  0  0
  189.0710  178.0460  139.8290 C   0  0  0  0  0  1  0  0  0  0  0  0
  185.5630  178.4810  142.1620 N   0  0  0  0  0  0  0  0  0  0  0  0
  182.8340  180.0540  139.0040 C   0  0  0  0  0  0  0  0  0  0  0  0
  182.0600  180.7300  138.1470 N   0  0  0  0  0  0  0  0  0  0  0  0
  184.2300  179.1310  140.2100 C   0  0  0  0  0  0  0  0  0  0  0  0
  183.0150  178.6330  140.6010 N   0  0  0  0  0  0  0  0  0  0  0  0
  180.8910  179.3240  139.5510 C   0  0  0  0  0  3  0  0  0  0  0  0
  182.1980  179.2660  139.7940 N   0  0  0  0  0  0  0  0  0  0  0  0
  184.1610  180.0460  139.1850 N   0  0  0  0  0  2  0  0  0  0  0  0
  180.8180  180.2640  138.4980 C   0  0  0  0  0  3  0  0  0  0  0  0
  188.7890  176.5900  143.8900 C   0  0  0  0  0  2  0  0  0  0  0  0
  189.8020  178.6900  143.2990 N   0  0  0  0  0  2  0  0  0  0  0  0
  189.6980  177.0160  145.0200 C   0  0  1  0  0  3  0  0  0  0  0  0
  190.4720  178.2120  144.4990 C   0  0  0  0  0  2  0  0  0  0  0  0
  189.1080  177.5340  142.7500 C   0  0  2  0  0  3  0  0  0  0  0  0
  187.5610  178.2730  148.4160 O   0  0  0  0  0  0  0  0  0  0  0  0
  188.9350  178.0160  148.5060 C   0  0  0  0  0  3  0  0  0  0  0  0
  188.9180  177.3720  146.2000 N   0  0  0  0  0  0  0  0  0  0  0  0
  189.6090  177.6000  147.4350 C   0  0  0  0  0  3  0  0  0  0  0  0
  187.4520  177.3340  146.1860 C   0  0  0  0  0  2  0  0  0  0  0  0
  186.9010  178.3790  147.1520 C   0  0  0  0  0  2  0  0  0  0  0  0
  1  3  1  0  0  0  0
  2  7  2  0  0  0  0
  3  4  2  0  0  0  0
  5  1  2  0  0  0  0
  5  2  1  0  0  0  0
  6  1  1  0  0  0  0
  7  4  1  0  0  0  0
  8 14  1  0  0  0  0
  8 13  1  0  0  0  0
  9 15  1  0  0  0  0
  9  8  2  0  0  0  0
 10 11  2  0  0  0  0
 10  2  1  0  0  0  0
 12 13  1  0  0  0  0
 13 11  1  0  0  0  0
 14 10  1  0  0  0  0
 15 12  2  0  0  0  0
 17 19  1  0  0  0  0
 18 16  1  6  0  0  0
 18 23  1  0  0  0  0
 19 18  1  0  0  0  0
 20  3  1  1  0  0  0
 20 17  1  0  0  0  0
 20 16  1  0  0  0  0
 21 22  1  0  0  0  0
 23 24  1  0  0  0  0
 24 22  2  0  0  0  0
 25 23  1  0  0  0  0
 25 26  1  0  0  0  0
 26 21  1  0  0  0  0
M  END
>  <MODEL>
4

>  <REMARK>
 VINA RESULT:      -7.8      3.432      8.754
  Name = 
  3 active torsions:
  status: ('A' for Active; 'I' for Inactive)
    1  A    between atoms: C_6  and  C_10
    2  A    between atoms: C_7  and  C_26
    3  A    between atoms: N_11  and  C_14
                            x       y       z     vdW  Elec       q    Type
                         _______ _______ _______ _____ _____    ______ ____

>  <TORSDO>
F 3

$$$$
=
 OpenBabel11042410523D

 26 30  0  0  1  0  0  0  0  0999 V2000
  186.7490  178.3990  140.9620 C   0  0  0  0  0  0  0  0  0  0  0  0
  187.9880  177.8260  142.9470 C   0  0  0  0  0  0  0  0  0  0  0  0
  187.8590  178.0170  140.1970 C   0  0  0  0  0  0  0  0  0  0  0  0
  188.9730  177.5570  140.8290 N   0  0  0  0  0  0  0  0  0  0  0  0
  186.8200  178.3020  142.3500 C   0  0  0  0  0  3  0  0  0  0  0  0
  185.4950  178.9080  140.3350 C   0  0  0  0  0  1  0  0  0  0  0  0
  189.0360  177.4660  142.1590 N   0  0  0  0  0  0  0  0  0  0  0  0
  187.6630  177.7970  146.4240 C   0  0  0  0  0  0  0  0  0  0  0  0
  187.2340  177.9140  147.6860 N   0  0  0  0  0  0  0  0  0  0  0  0
  188.0920  177.7120  144.4080 C   0  0  0  0  0  0  0  0  0  0  0  0
  189.1980  177.2130  145.0430 N   0  0  0  0  0  0  0  0  0  0  0  0
  189.3530  177.0260  147.5000 C   0  0  0  0  0  3  0  0  0  0  0  0
  188.8430  177.3040  146.3020 N   0  0  0  0  0  0  0  0  0  0  0  0
  187.0800  178.1000  145.2560 N   0  0  0  0  0  2  0  0  0  0  0  0
  188.3150  177.4220  148.3730 C   0  0  0  0  0  3  0  0  0  0  0  0
  188.2710  176.7820  138.0850 C   0  0  0  0  0  2  0  0  0  0  0  0
  188.7300  179.1400  138.2270 N   0  0  0  0  0  2  0  0  0  0  0  0
  189.1500  177.1680  136.9190 C   0  0  1  0  0  3  0  0  0  0  0  0
  189.2150  178.6840  136.9330 C   0  0  0  0  0  2  0  0  0  0  0  0
  187.8320  178.0940  138.7000 C   0  0  2  0  0  3  0  0  0  0  0  0
  193.0750  175.6860  137.1950 O   0  0  0  0  0  0  0  0  0  0  0  0
  192.3820  175.6150  135.9800 C   0  0  0  0  0  3  0  0  0  0  0  0
  190.4800  176.5860  137.0630 N   0  0  0  0  0  0  0  0  0  0  0  0
  191.1320  176.0680  135.8960 C   0  0  0  0  0  3  0  0  0  0  0  0
  191.0800  176.3720  138.3840 C   0  0  0  0  0  2  0  0  0  0  0  0
  192.5980  176.4810  138.2830 C   0  0  0  0  0  2  0  0  0  0  0  0
  1  5  1  0  0  0  0
  2 10  1  0  0  0  0
  3  4  1  0  0  0  0
  3  1  2  0  0  0  0
  4  7  2  0  0  0  0
  5  2  2  0  0  0  0
  6  1  1  0  0  0  0
  7  2  1  0  0  0  0
  8  9  2  0  0  0  0
  9 15  1  0  0  0  0
 10 11  2  0  0  0  0
 10 14  1  0  0  0  0
 11 13  1  0  0  0  0
 12 15  2  0  0  0  0
 13  8  1  0  0  0  0
 13 12  1  0  0  0  0
 14  8  1  0  0  0  0
 16 20  1  0  0  0  0
 17 20  1  0  0  0  0
 18 19  1  1  0  0  0
 18 23  1  0  0  0  0
 18 16  1  0  0  0  0
 19 17  1  0  0  0  0
 20  3  1  1  0  0  0
 21 26  1  0  0  0  0
 22 21  1  0  0  0  0
 23 25  1  0  0  0  0
 24 22  2  0  0  0  0
 24 23  1  0  0  0  0
 26 25  1  0  0  0  0
M  END
>  <MODEL>
5

>  <REMARK>
 VINA RESULT:      -7.8      4.044      4.955
  Name = 
  3 active torsions:
  status: ('A' for Active; 'I' for Inactive)
    1  A    between atoms: C_6  and  C_10
    2  A    between atoms: C_7  and  C_26
    3  A    between atoms: N_11  and  C_14
                            x       y       z     vdW  Elec       q    Type
                         _______ _______ _______ _____ _____    ______ ____

>  <TORSDO>
F 3

$$$$
=
 OpenBabel11042410523D

 26 30  0  0  1  0  0  0  0  0999 V2000
  190.9910  177.4410  141.4630 C   0  0  0  0  0  0  0  0  0  0  0  0
  189.3450  177.5470  143.2190 C   0  0  0  0  0  0  0  0  0  0  0  0
  189.9460  177.3590  140.5320 C   0  0  0  0  0  0  0  0  0  0  0  0
  188.6600  177.3780  140.9770 N   0  0  0  0  0  0  0  0  0  0  0  0
  190.6820  177.5350  142.8180 C   0  0  0  0  0  3  0  0  0  0  0  0
  192.4230  177.4300  141.0460 C   0  0  0  0  0  1  0  0  0  0  0  0
  188.3700  177.4670  142.2760 N   0  0  0  0  0  0  0  0  0  0  0  0
  187.9170  177.8130  146.3950 C   0  0  0  0  0  0  0  0  0  0  0  0
  187.0820  177.9240  147.4340 N   0  0  0  0  0  0  0  0  0  0  0  0
  188.9900  177.6450  144.6410 C   0  0  0  0  0  0  0  0  0  0  0  0
  189.9190  177.6240  145.6480 N   0  0  0  0  0  0  0  0  0  0  0  0
  189.3040  177.7860  148.0330 C   0  0  0  0  0  3  0  0  0  0  0  0
  189.1590  177.7360  146.7110 N   0  0  0  0  0  0  0  0  0  0  0  0
  187.6900  177.7640  145.0760 N   0  0  0  0  0  2  0  0  0  0  0  0
  187.9700  177.9070  148.4810 C   0  0  0  0  0  3  0  0  0  0  0  0
  189.3150  178.1910  138.2820 C   0  0  0  0  0  2  0  0  0  0  0  0
  190.0020  175.9060  138.5870 N   0  0  0  0  0  2  0  0  0  0  0  0
  188.9000  177.4020  137.0630 C   0  0  1  0  0  3  0  0  0  0  0  0
  189.5530  176.0400  137.2100 C   0  0  0  0  0  2  0  0  0  0  0  0
  190.2240  177.2650  139.0620 C   0  0  2  0  0  3  0  0  0  0  0  0
  184.7040  177.3010  136.8150 O   0  0  0  0  0  0  0  0  0  0  0  0
  185.3290  177.9630  137.8800 C   0  0  0  0  0  3  0  0  0  0  0  0
  187.4480  177.2810  136.9980 N   0  0  0  0  0  0  0  0  0  0  0  0
  186.6580  177.9800  137.9690 C   0  0  0  0  0  3  0  0  0  0  0  0
  186.8000  176.3380  136.0800 C   0  0  0  0  0  2  0  0  0  0  0  0
  185.4370  176.8800  135.6630 C   0  0  0  0  0  2  0  0  0  0  0  0
  1  5  1  0  0  0  0
  2 10  1  0  0  0  0
  3  4  1  0  0  0  0
  3  1  2  0  0  0  0
  4  7  2  0  0  0  0
  5  2  2  0  0  0  0
  6  1  1  0  0  0  0
  7  2  1  0  0  0  0
  8 13  1  0  0  0  0
  8  9  2  0  0  0  0
  9 15  1  0  0  0  0
 10 14  1  0  0  0  0
 10 11  2  0  0  0  0
 11 13  1  0  0  0  0
 12 15  2  0  0  0  0
 13 12  1  0  0  0  0
 14  8  1  0  0  0  0
 16 20  1  0  0  0  0
 17 20  1  0  0  0  0
 18 23  1  1  0  0  0
 18 19  1  0  0  0  0
 18 16  1  0  0  0  0
 19 17  1  0  0  0  0
 20  3  1  1  0  0  0
 21 22  1  0  0  0  0
 22 24  2  0  0  0  0
 23 24  1  0  0  0  0
 25 23  1  0  0  0  0
 26 25  1  0  0  0  0
 26 21  1  0  0  0  0
M  END
>  <MODEL>
6

>  <REMARK>
 VINA RESULT:      -7.7      3.000      4.516
  Name = 
  3 active torsions:
  status: ('A' for Active; 'I' for Inactive)
    1  A    between atoms: C_6  and  C_10
    2  A    between atoms: C_7  and  C_26
    3  A    between atoms: N_11  and  C_14
                            x       y       z     vdW  Elec       q    Type
                         _______ _______ _______ _____ _____    ______ ____

>  <TORSDO>
F 3

$$$$
=
 OpenBabel11042410523D

 26 30  0  0  1  0  0  0  0  0999 V2000
  183.4700  178.7310  143.2820 C   0  0  0  0  0  0  0  0  0  0  0  0
  185.6740  178.2620  144.1340 C   0  0  0  0  0  0  0  0  0  0  0  0
  183.9630  178.5270  141.9850 C   0  0  0  0  0  0  0  0  0  0  0  0
  185.2730  178.2000  141.8180 N   0  0  0  0  0  0  0  0  0  0  0  0
  184.3390  178.5970  144.3630 C   0  0  0  0  0  3  0  0  0  0  0  0
  182.0460  179.0880  143.5380 C   0  0  0  0  0  1  0  0  0  0  0  0
  186.1010  178.0730  142.8570 N   0  0  0  0  0  0  0  0  0  0  0  0
  187.4230  178.0750  147.1510 C   0  0  0  0  0  0  0  0  0  0  0  0
  187.7950  178.0940  148.4360 N   0  0  0  0  0  0  0  0  0  0  0  0
  186.6130  178.1130  145.2550 C   0  0  0  0  0  0  0  0  0  0  0  0
  187.9200  177.7380  145.0910 N   0  0  0  0  0  0  0  0  0  0  0  0
  189.4820  177.4890  146.9860 C   0  0  0  0  0  3  0  0  0  0  0  0
  188.3520  177.7410  146.3290 N   0  0  0  0  0  0  0  0  0  0  0  0
  186.2500  178.3400  146.5620 N   0  0  0  0  0  2  0  0  0  0  0  0
  189.1120  177.7200  148.3300 C   0  0  0  0  0  3  0  0  0  0  0  0
  182.9570  177.3290  140.0610 C   0  0  0  0  0  2  0  0  0  0  0  0
  183.5980  179.6390  139.8570 N   0  0  0  0  0  2  0  0  0  0  0  0
  183.0120  177.6810  138.5930 C   0  0  1  0  0  3  0  0  0  0  0  0
  183.1940  179.1860  138.5350 C   0  0  0  0  0  2  0  0  0  0  0  0
  183.0690  178.6520  140.7880 C   0  0  2  0  0  3  0  0  0  0  0  0
  186.0620  175.6770  136.5050 O   0  0  0  0  0  0  0  0  0  0  0  0
  184.9390  174.9720  136.9550 C   0  0  0  0  0  3  0  0  0  0  0  0
  184.1210  176.9950  137.9400 N   0  0  0  0  0  0  0  0  0  0  0  0
  183.9800  175.6020  137.6320 C   0  0  0  0  0  3  0  0  0  0  0  0
  185.4200  177.6510  137.7530 C   0  0  0  0  0  2  0  0  0  0  0  0
  186.0950  177.1060  136.4980 C   0  0  0  0  0  2  0  0  0  0  0  0
  1  6  1  0  0  0  0
  1  5  1  0  0  0  0
  2  5  2  0  0  0  0
  2 10  1  0  0  0  0
  3  1  2  0  0  0  0
  4  3  1  0  0  0  0
  4  7  2  0  0  0  0
  7  2  1  0  0  0  0
  8  9  2  0  0  0  0
 10 14  1  0  0  0  0
 11 10  2  0  0  0  0
 11 13  1  0  0  0  0
 12 15  2  0  0  0  0
 13 12  1  0  0  0  0
 13  8  1  0  0  0  0
 14  8  1  0  0  0  0
 15  9  1  0  0  0  0
 16 20  1  0  0  0  0
 17 20  1  0  0  0  0
 18 23  1  1  0  0  0
 18 16  1  0  0  0  0
 19 18  1  0  0  0  0
 19 17  1  0  0  0  0
 20  3  1  1  0  0  0
 21 22  1  0  0  0  0
 22 24  2  0  0  0  0
 24 23  1  0  0  0  0
 25 23  1  0  0  0  0
 26 21  1  0  0  0  0
 26 25  1  0  0  0  0
M  END
>  <MODEL>
7

>  <REMARK>
 VINA RESULT:      -7.6      1.518      2.098
  Name = 
  3 active torsions:
  status: ('A' for Active; 'I' for Inactive)
    1  A    between atoms: C_6  and  C_10
    2  A    between atoms: C_7  and  C_26
    3  A    between atoms: N_11  and  C_14
                            x       y       z     vdW  Elec       q    Type
                         _______ _______ _______ _____ _____    ______ ____

>  <TORSDO>
F 3

$$$$
=
 OpenBabel11042410523D

 26 30  0  0  1  0  0  0  0  0999 V2000
  188.5060  177.8240  139.8180 C   0  0  0  0  0  0  0  0  0  0  0  0
  186.2970  178.4640  140.5350 C   0  0  0  0  0  0  0  0  0  0  0  0
  188.8470  177.6160  141.1620 C   0  0  0  0  0  0  0  0  0  0  0  0
  187.9110  177.8350  142.1240 N   0  0  0  0  0  0  0  0  0  0  0  0
  187.2180  178.2540  139.5070 C   0  0  0  0  0  3  0  0  0  0  0  0
  189.4810  177.6010  138.7120 C   0  0  0  0  0  1  0  0  0  0  0  0
  186.6780  178.2460  141.8210 N   0  0  0  0  0  0  0  0  0  0  0  0
  182.8890  179.1980  140.3170 C   0  0  0  0  0  0  0  0  0  0  0  0
  181.5680  179.2810  140.5060 N   0  0  0  0  0  0  0  0  0  0  0  0
  184.9310  178.9170  140.2370 C   0  0  0  0  0  0  0  0  0  0  0  0
  184.6320  179.7540  139.1940 N   0  0  0  0  0  0  0  0  0  0  0  0
  182.3310  180.5080  138.7110 C   0  0  0  0  0  3  0  0  0  0  0  0
  183.3320  179.8760  139.3190 N   0  0  0  0  0  0  0  0  0  0  0  0
  183.8420  178.5350  140.9850 N   0  0  0  0  0  2  0  0  0  0  0  0
  181.2120  180.1180  139.4780 C   0  0  0  0  0  3  0  0  0  0  0  0
  190.1400  176.1210  142.6600 C   0  0  0  0  0  2  0  0  0  0  0  0
  191.0250  178.2650  142.0200 N   0  0  0  0  0  2  0  0  0  0  0  0
  191.2730  176.4680  143.5970 C   0  0  1  0  0  3  0  0  0  0  0  0
  191.9300  177.7040  143.0110 C   0  0  0  0  0  2  0  0  0  0  0  0
  190.2170  177.1470  141.5500 C   0  0  2  0  0  3  0  0  0  0  0  0
  189.6620  177.0250  147.4410 O   0  0  0  0  0  0  0  0  0  0  0  0
  188.8820  177.2870  146.3090 C   0  0  0  0  0  3  0  0  0  0  0  0
  190.7660  176.7330  144.9400 N   0  0  0  0  0  0  0  0  0  0  0  0
  189.3970  177.1280  145.0900 C   0  0  0  0  0  3  0  0  0  0  0  0
  191.6620  176.7660  146.1010 C   0  0  0  0  0  2  0  0  0  0  0  0
  190.9040  176.3240  147.3480 C   0  0  0  0  0  2  0  0  0  0  0  0
  1  3  1  0  0  0  0
  2  7  2  0  0  0  0
  3  4  2  0  0  0  0
  5  1  2  0  0  0  0
  5  2  1  0  0  0  0
  6  1  1  0  0  0  0
  7  4  1  0  0  0  0
  8  9  2  0  0  0  0
  8 14  1  0  0  0  0
 10  2  1  0  0  0  0
 10 14  1  0  0  0  0
 11 13  1  0  0  0  0
 11 10  2  0  0  0  0
 12 13  1  0  0  0  0
 12 15  2  0  0  0  0
 13  8  1  0  0  0  0
 15  9  1  0  0  0  0
 17 19  1  0  0  0  0
 18 16  1  6  0  0  0
 18 23  1  0  0  0  0
 19 18  1  0  0  0  0
 20  3  1  1  0  0  0
 20 17  1  0  0  0  0
 20 16  1  0  0  0  0
 22 21  1  0  0  0  0
 23 24  1  0  0  0  0
 23 25  1  0  0  0  0
 24 22  2  0  0  0  0
 25 26  1  0  0  0  0
 26 21  1  0  0  0  0
M  END
>  <MODEL>
8

>  <REMARK>
 VINA RESULT:      -7.6      3.390      8.660
  Name = 
  3 active torsions:
  status: ('A' for Active; 'I' for Inactive)
    1  A    between atoms: C_6  and  C_10
    2  A    between atoms: C_7  and  C_26
    3  A    between atoms: N_11  and  C_14
                            x       y       z     vdW  Elec       q    Type
                         _______ _______ _______ _____ _____    ______ ____

>  <TORSDO>
F 3

$$$$
=
 OpenBabel11042410523D

 26 30  0  0  1  0  0  0  0  0999 V2000
  191.4370  177.2090  140.1020 C   0  0  0  0  0  0  0  0  0  0  0  0
  189.2620  177.2350  139.0650 C   0  0  0  0  0  0  0  0  0  0  0  0
  190.8060  177.2780  141.3520 C   0  0  0  0  0  0  0  0  0  0  0  0
  189.4470  177.3190  141.4080 N   0  0  0  0  0  0  0  0  0  0  0  0
  190.6520  177.1890  138.9510 C   0  0  0  0  0  3  0  0  0  0  0  0
  192.9210  177.1590  139.9680 C   0  0  0  0  0  1  0  0  0  0  0  0
  188.7000  177.3000  140.3020 N   0  0  0  0  0  0  0  0  0  0  0  0
  187.0450  176.6370  136.4340 C   0  0  0  0  0  0  0  0  0  0  0  0
  186.1360  176.1240  135.5980 N   0  0  0  0  0  0  0  0  0  0  0  0
  188.4100  177.2150  137.8690 C   0  0  0  0  0  0  0  0  0  0  0  0
  188.3890  178.2290  136.9480 N   0  0  0  0  0  0  0  0  0  0  0  0
  186.9480  178.1800  134.9450 C   0  0  0  0  0  3  0  0  0  0  0  0
  187.5090  177.7830  136.0840 N   0  0  0  0  0  0  0  0  0  0  0  0
  187.5610  176.1710  137.5790 N   0  0  0  0  0  2  0  0  0  0  0  0
  186.0740  177.1110  134.6450 C   0  0  0  0  0  3  0  0  0  0  0  0
  191.0580  176.2890  143.6130 C   0  0  0  0  0  2  0  0  0  0  0  0
  191.5520  178.6140  143.2390 N   0  0  0  0  0  2  0  0  0  0  0  0
  191.1090  176.9870  144.9520 C   0  0  1  0  0  3  0  0  0  0  0  0
  191.6430  178.3800  144.6720 C   0  0  0  0  0  2  0  0  0  0  0  0
  191.6030  177.2960  142.6220 C   0  0  2  0  0  3  0  0  0  0  0  0
  187.3420  177.3910  146.7760 O   0  0  0  0  0  0  0  0  0  0  0  0
  188.4790  177.1540  147.5580 C   0  0  0  0  0  3  0  0  0  0  0  0
  189.7800  177.0480  145.5510 N   0  0  0  0  0  0  0  0  0  0  0  0
  189.6700  177.0080  146.9800 C   0  0  0  0  0  3  0  0  0  0  0  0
  188.5680  176.9790  144.7280 C   0  0  0  0  0  2  0  0  0  0  0  0
  187.4450  177.7640  145.4000 C   0  0  0  0  0  2  0  0  0  0  0  0
  1  3  1  0  0  0  0
  2  7  2  0  0  0  0
  3  4  2  0  0  0  0
  5  2  1  0  0  0  0
  5  1  2  0  0  0  0
  6  1  1  0  0  0  0
  7  4  1  0  0  0  0
  8 14  1  0  0  0  0
  9  8  2  0  0  0  0
 10  2  1  0  0  0  0
 11 10  2  0  0  0  0
 12 13  1  0  0  0  0
 13  8  1  0  0  0  0
 13 11  1  0  0  0  0
 14 10  1  0  0  0  0
 15 12  2  0  0  0  0
 15  9  1  0  0  0  0
 17 19  1  0  0  0  0
 18 16  1  6  0  0  0
 18 23  1  0  0  0  0
 19 18  1  0  0  0  0
 20  3  1  6  0  0  0
 20 17  1  0  0  0  0
 20 16  1  0  0  0  0
 21 22  1  0  0  0  0
 23 24  1  0  0  0  0
 24 22  2  0  0  0  0
 25 26  1  0  0  0  0
 25 23  1  0  0  0  0
 26 21  1  0  0  0  0
M  END
>  <MODEL>
9

>  <REMARK>
 VINA RESULT:      -7.5      3.886      8.992
  Name = 
  3 active torsions:
  status: ('A' for Active; 'I' for Inactive)
    1  A    between atoms: C_6  and  C_10
    2  A    between atoms: C_7  and  C_26
    3  A    between atoms: N_11  and  C_14
                            x       y       z     vdW  Elec       q    Type
                         _______ _______ _______ _____ _____    ______ ____

>  <TORSDO>
F 3

$$$$
