=
 OpenBabel11042413133D

 56 63  0  0  1  0  0  0  0  0999 V2000
  185.9490  177.0520  137.4370 C   0  0  0  0  0  3  0  0  0  0  0  0
  188.8420  177.1110  136.2780 S   0  0  0  0  0  0  0  0  0  0  0  0
  183.4970  178.6820  138.4550 C   0  0  0  0  0  0  0  0  0  0  0  0
  187.8750  178.0190  138.7040 C   0  0  0  0  0  0  0  0  0  0  0  0
  184.4740  178.7700  139.5700 C   0  0  0  0  0  3  0  0  0  0  0  0
  186.4620  177.7870  138.4230 C   0  0  0  0  0  0  0  0  0  0  0  0
  190.3200  177.9710  138.3750 C   0  0  0  0  0  2  0  0  0  0  0  0
  188.9310  177.7870  137.9070 C   0  0  0  0  0  0  0  0  0  0  0  0
  185.7340  178.3170  139.5740 C   0  0  0  0  0  0  0  0  0  0  0  0
  188.0180  178.5540  140.0190 N   0  0  0  0  0  2  0  0  0  0  0  0
  184.5190  176.6230  137.4250 C   0  0  0  0  0  2  0  0  0  0  0  0
  183.5540  177.7650  137.4810 C   0  0  0  0  0  3  0  0  0  0  0  0
  186.7080  178.6800  140.6600 C   0  0  2  0  0  3  0  0  0  0  0  0
  190.4410  176.3180  136.6240 C   0  0  1  0  0  3  0  0  0  0  0  0
  191.1830  177.0120  137.6870 N   0  0  0  0  0  2  0  0  0  0  0  0
  180.0600  180.2860  138.3270 C   0  0  0  0  0  3  0  0  0  0  0  0
  182.4130  179.6830  138.4230 C   0  0  0  0  0  0  0  0  0  0  0  0
  181.7450  182.0230  138.3810 C   0  0  0  0  0  0  0  0  0  0  0  0
  181.0550  179.3060  138.3650 C   0  0  0  0  0  0  0  0  0  0  0  0
  180.6820  177.9660  138.3490 O   0  0  0  0  0  1  0  0  0  0  0  0
  180.3940  181.6420  138.3390 C   0  0  0  0  0  0  0  0  0  0  0  0
  182.7420  181.0450  138.4270 C   0  0  0  0  0  3  0  0  0  0  0  0
  182.0960  183.3300  138.3370 F   0  0  0  0  0  0  0  0  0  0  0  0
  179.2940  182.6570  138.2620 C   0  0  0  0  0  2  0  0  0  0  0  0
  179.3120  184.5060  136.8270 C   0  0  0  0  0  2  0  0  0  0  0  0
  180.6530  183.4930  135.1480 C   0  0  0  0  0  2  0  0  0  0  0  0
  180.0470  182.4300  136.0320 C   0  0  0  0  0  2  0  0  0  0  0  0
  180.5450  184.7380  135.9760 C   0  0  0  0  0  2  0  0  0  0  0  0
  179.0490  183.0710  136.8840 N   0  0  0  0  0  0  0  0  0  0  0  0
  190.2580  174.8340  136.9380 C   0  0  2  0  0  3  0  0  0  0  0  0
  190.9610  174.4730  138.0910 O   0  0  0  0  0  1  0  0  0  0  0  0
  190.7180  174.0310  135.8120 N   0  0  0  0  0  2  0  0  0  0  0  0
  194.1570  173.3130  134.9030 C   0  0  2  0  0  3  0  0  0  0  0  0
  192.2750  172.1110  135.8720 C   0  0  1  0  0  3  0  0  0  0  0  0
  193.7500  171.9960  135.5490 C   0  0  0  0  0  2  0  0  0  0  0  0
  192.0740  173.5990  136.1250 C   0  0  1  0  0  3  0  0  0  0  0  0
  194.4280  174.3590  135.9710 C   0  0  2  0  0  3  0  0  0  0  0  0
  191.5350  171.6960  134.7570 O   0  0  0  0  0  1  0  0  0  0  0  0
  193.0840  174.3270  135.2600 C   0  0  1  0  0  3  0  0  0  0  0  0
  194.8290  176.8210  135.5870 N   0  0  0  0  0  2  0  0  0  0  0  0
  195.6140  177.9470  135.1090 C   0  0  0  0  0  1  0  0  0  0  0  0
  196.3610  175.2140  134.8600 O   0  0  0  0  0  0  0  0  0  0  0  0
  195.2610  175.4690  135.4210 C   0  0  0  0  0  0  0  0  0  0  0  0
  185.7300  178.2650  142.9520 C   0  0  0  0  0  1  0  0  0  0  0  0
  186.6170  177.7140  141.8490 C   0  0  2  0  0  3  0  0  0  0  0  0
  188.7740  178.3880  142.7790 N   0  0  0  0  0  0  0  0  0  0  0  0
  190.0580  177.8220  143.1780 C   0  0  2  0  0  3  0  0  0  0  0  0
  188.5140  176.1180  142.5030 N   0  0  0  0  0  2  0  0  0  0  0  0
  187.9700  177.4340  142.4200 C   0  0  0  0  0  0  0  0  0  0  0  0
  189.8180  176.3660  142.9930 C   0  0  0  0  0  0  0  0  0  0  0  0
  190.6690  175.4580  143.1840 O   0  0  0  0  0  0  0  0  0  0  0  0
  191.8280  178.4340  144.6590 O   0  0  0  0  0  1  0  0  0  0  0  0
  190.4470  178.2180  144.6130 C   0  0  2  0  0  3  0  0  0  0  0  0
  191.2700  176.6810  146.4190 C   0  0  0  0  0  1  0  0  0  0  0  0
  190.0400  177.1970  145.6880 C   0  0  1  0  0  3  0  0  0  0  0  0
  189.1780  177.7820  146.6190 O   0  0  0  0  0  1  0  0  0  0  0  0
  1  6  2  0  0  0  0
  2 14  1  0  0  0  0
  2  8  1  0  0  0  0
  3  5  1  0  0  0  0
  4 10  1  0  0  0  0
  5  9  2  0  0  0  0
  6  4  1  0  0  0  0
  6  9  1  0  0  0  0
  8  7  1  0  0  0  0
  8  4  2  0  0  0  0
  9 13  1  0  0  0  0
 10 13  1  0  0  0  0
 11  1  1  0  0  0  0
 11 12  1  0  0  0  0
 12  3  2  0  0  0  0
 13 45  1  1  0  0  0
 14 30  1  1  0  0  0
 14 15  1  0  0  0  0
 15  7  1  0  0  0  0
 16 21  2  0  0  0  0
 16 19  1  0  0  0  0
 17 22  1  0  0  0  0
 17  3  1  0  0  0  0
 18 22  2  0  0  0  0
 19 17  2  0  0  0  0
 20 19  1  0  0  0  0
 21 18  1  0  0  0  0
 23 18  1  0  0  0  0
 24 21  1  0  0  0  0
 25 29  1  0  0  0  0
 26 28  1  0  0  0  0
 26 27  1  0  0  0  0
 27 29  1  0  0  0  0
 28 25  1  0  0  0  0
 29 24  1  0  0  0  0
 30 31  1  1  0  0  0
 32 30  1  0  0  0  0
 33 39  1  0  0  0  0
 33 35  1  1  0  0  0
 33 37  1  0  0  0  0
 34 38  1  6  0  0  0
 34 36  1  0  0  0  0
 35 34  1  0  0  0  0
 36 32  1  6  0  0  0
 37 43  1  6  0  0  0
 39 37  1  0  0  0  0
 39 36  1  0  0  0  0
 41 40  1  0  0  0  0
 42 43  2  0  0  0  0
 43 40  1  0  0  0  0
 45 49  1  0  0  0  0
 45 44  1  0  0  0  0
 46 47  1  0  0  0  0
 47 53  1  0  0  0  0
 48 50  1  0  0  0  0
 49 48  1  0  0  0  0
 49 46  2  0  0  0  0
 50 47  1  0  0  0  0
 50 51  2  0  0  0  0
 53 52  1  0  0  0  0
 53 55  1  0  0  0  0
 55 54  1  0  0  0  0
 55 56  1  0  0  0  0
M  END
>  <MODEL>
1

>  <REMARK>
 VINA RESULT:      -8.2      0.000      0.000
  Name = 
  11 active torsions:
  status: ('A' for Active; 'I' for Inactive)
    1  A    between atoms: C_4  and  C_41
    2  A    between atoms: C_4  and  N_56
    3  A    between atoms: C_7  and  C_22
    4  A    between atoms: C_9  and  C_47
    5  A    between atoms: C_9  and  N_48
    6  A    between atoms: C_10  and  C_32
    7  A    between atoms: C_23  and  N_48
    8  A    between atoms: C_29  and  C_32
    9  A    between atoms: C_31  and  C_37
   10  A    between atoms: C_37  and  C_45
   11  A    between atoms: C_39  and  C_52
                            x       y       z     vdW  Elec       q    Type
                         _______ _______ _______ _____ _____    ______ ____

>  <TORSDO>
F 11

$$$$
=
 OpenBabel11042413133D

 56 63  0  0  1  0  0  0  0  0999 V2000
  183.7570  179.0550  138.9280 C   0  0  0  0  0  3  0  0  0  0  0  0
  181.5570  181.2270  138.5330 S   0  0  0  0  0  0  0  0  0  0  0  0
  186.0440  177.3730  137.6440 C   0  0  0  0  0  0  0  0  0  0  0  0
  181.8340  178.7370  137.3620 C   0  0  0  0  0  0  0  0  0  0  0  0
  184.8030  176.7330  137.1410 C   0  0  0  0  0  3  0  0  0  0  0  0
  183.1460  178.4300  137.9210 C   0  0  0  0  0  0  0  0  0  0  0  0
  179.7260  179.9650  136.9910 C   0  0  0  0  0  2  0  0  0  0  0  0
  181.0930  179.8440  137.5360 C   0  0  1  0  0  3  0  0  0  0  0  0
  183.5460  177.1570  137.3240 C   0  0  0  0  0  0  0  0  0  0  0  0
  181.3920  177.6460  136.5550 N   0  0  0  0  0  0  0  0  0  0  0  0
  184.9410  178.4710  139.6250 C   0  0  0  0  0  2  0  0  0  0  0  0
  186.0890  178.1840  138.7100 C   0  0  0  0  0  3  0  0  0  0  0  0
  182.3880  176.5740  136.5640 C   0  0  2  0  0  3  0  0  0  0  0  0
  179.7890  181.4270  138.9060 C   0  0  1  0  0  3  0  0  0  0  0  0
  178.9340  180.8150  137.8780 N   0  0  0  0  0  2  0  0  0  0  0  0
  189.4370  177.8080  136.0020 C   0  0  0  0  0  3  0  0  0  0  0  0
  187.2940  177.1040  136.9050 C   0  0  0  0  0  0  0  0  0  0  0  0
  188.6640  175.5430  135.6390 C   0  0  0  0  0  0  0  0  0  0  0  0
  188.2730  178.1010  136.7150 C   0  0  0  0  0  0  0  0  0  0  0  0
  188.1030  179.3820  137.2310 O   0  0  0  0  0  1  0  0  0  0  0  0
  189.6430  176.5340  135.4660 C   0  0  0  0  0  0  0  0  0  0  0  0
  187.5020  175.8310  136.3590 C   0  0  0  0  0  3  0  0  0  0  0  0
  188.8150  174.3180  135.0810 F   0  0  0  0  0  0  0  0  0  0  0  0
  190.8920  176.2760  134.6790 C   0  0  0  0  0  2  0  0  0  0  0  0
  191.9570  175.2620  136.5000 C   0  0  0  0  0  2  0  0  0  0  0  0
  194.0590  174.9930  135.4290 C   0  0  0  0  0  2  0  0  0  0  0  0
  193.2450  176.0370  134.7050 C   0  0  0  0  0  2  0  0  0  0  0  0
  193.0340  174.2350  136.2160 C   0  0  0  0  0  2  0  0  0  0  0  0
  192.0780  176.3440  135.5280 N   0  0  0  0  0  0  0  0  0  0  0  0
  179.4620  180.9000  140.3020 C   0  0  2  0  0  3  0  0  0  0  0  0
  179.5550  181.9140  141.2590 O   0  0  0  0  0  1  0  0  0  0  0  0
  180.3730  179.8160  140.6460 N   0  0  0  0  0  2  0  0  0  0  0  0
  181.3300  178.2270  143.7650 C   0  0  2  0  0  3  0  0  0  0  0  0
  179.2730  178.9600  142.6890 C   0  0  1  0  0  3  0  0  0  0  0  0
  179.8340  178.4090  143.9820 C   0  0  0  0  0  2  0  0  0  0  0  0
  180.4300  179.7550  142.1010 C   0  0  1  0  0  3  0  0  0  0  0  0
  182.0520  179.5480  143.9620 C   0  0  2  0  0  3  0  0  0  0  0  0
  178.9350  177.8880  141.8510 O   0  0  0  0  0  1  0  0  0  0  0  0
  181.7040  179.0730  142.5610 C   0  0  1  0  0  3  0  0  0  0  0  0
  183.9370  178.9930  145.5470 N   0  0  0  0  0  2  0  0  0  0  0  0
  185.3300  178.7210  145.8590 C   0  0  0  0  0  1  0  0  0  0  0  0
  184.3320  179.3630  143.2740 O   0  0  0  0  0  0  0  0  0  0  0  0
  183.5050  179.3190  144.2240 C   0  0  0  0  0  0  0  0  0  0  0  0
  182.3440  175.2020  138.6850 C   0  0  0  0  0  1  0  0  0  0  0  0
  181.8130  175.3380  137.2680 C   0  0  2  0  0  3  0  0  0  0  0  0
  183.2960  173.9090  135.9520 N   0  0  0  0  0  0  0  0  0  0  0  0
  183.2810  172.6650  135.1890 C   0  0  2  0  0  3  0  0  0  0  0  0
  181.1760  173.0660  136.2630 N   0  0  0  0  0  2  0  0  0  0  0  0
  182.1390  174.0890  136.5140 C   0  0  0  0  0  0  0  0  0  0  0  0
  181.9020  172.1690  135.4450 C   0  0  0  0  0  0  0  0  0  0  0  0
  181.4040  171.1200  134.9580 O   0  0  0  0  0  0  0  0  0  0  0  0
  183.9540  171.0120  136.7740 O   0  0  0  0  0  1  0  0  0  0  0  0
  184.3900  171.6960  135.6360 C   0  0  2  0  0  3  0  0  0  0  0  0
  185.8790  172.6950  137.3930 C   0  0  0  0  0  1  0  0  0  0  0  0
  185.7460  172.3660  135.9130 C   0  0  1  0  0  3  0  0  0  0  0  0
  186.7960  171.5210  135.5460 O   0  0  0  0  0  1  0  0  0  0  0  0
  1 11  1  0  0  0  0
  2 14  1  0  0  0  0
  3 12  2  0  0  0  0
  4  6  1  0  0  0  0
  5  9  2  0  0  0  0
  5  3  1  0  0  0  0
  6  1  2  0  0  0  0
  7  8  1  0  0  0  0
  7 15  1  0  0  0  0
  8  4  1  1  0  0  0
  8  2  1  0  0  0  0
  9  6  1  0  0  0  0
 10 13  1  0  0  0  0
 10  4  2  0  0  0  0
 12 11  1  0  0  0  0
 13 45  1  1  0  0  0
 13  9  1  0  0  0  0
 14 30  1  1  0  0  0
 15 14  1  0  0  0  0
 16 19  1  0  0  0  0
 17  3  1  0  0  0  0
 18 22  2  0  0  0  0
 19 17  2  0  0  0  0
 19 20  1  0  0  0  0
 21 18  1  0  0  0  0
 21 16  2  0  0  0  0
 22 17  1  0  0  0  0
 23 18  1  0  0  0  0
 24 21  1  0  0  0  0
 24 29  1  0  0  0  0
 26 28  1  0  0  0  0
 27 26  1  0  0  0  0
 27 29  1  0  0  0  0
 28 25  1  0  0  0  0
 29 25  1  0  0  0  0
 30 32  1  0  0  0  0
 30 31  1  1  0  0  0
 33 37  1  0  0  0  0
 33 35  1  1  0  0  0
 34 38  1  6  0  0  0
 34 35  1  0  0  0  0
 36 32  1  6  0  0  0
 36 39  1  0  0  0  0
 36 34  1  0  0  0  0
 37 43  1  6  0  0  0
 39 33  1  0  0  0  0
 39 37  1  0  0  0  0
 40 41  1  0  0  0  0
 42 43  2  0  0  0  0
 43 40  1  0  0  0  0
 45 44  1  0  0  0  0
 46 49  2  0  0  0  0
 47 50  1  0  0  0  0
 47 53  1  0  0  0  0
 47 46  1  0  0  0  0
 48 49  1  0  0  0  0
 49 45  1  0  0  0  0
 50 48  1  0  0  0  0
 51 50  2  0  0  0  0
 53 55  1  0  0  0  0
 53 52  1  0  0  0  0
 55 54  1  0  0  0  0
 56 55  1  0  0  0  0
M  END
>  <MODEL>
2

>  <REMARK>
 VINA RESULT:      -7.7      4.339     11.627
  Name = 
  11 active torsions:
  status: ('A' for Active; 'I' for Inactive)
    1  A    between atoms: C_4  and  C_41
    2  A    between atoms: C_4  and  N_56
    3  A    between atoms: C_7  and  C_22
    4  A    between atoms: C_9  and  C_47
    5  A    between atoms: C_9  and  N_48
    6  A    between atoms: C_10  and  C_32
    7  A    between atoms: C_23  and  N_48
    8  A    between atoms: C_29  and  C_32
    9  A    between atoms: C_31  and  C_37
   10  A    between atoms: C_37  and  C_45
   11  A    between atoms: C_39  and  C_52
                            x       y       z     vdW  Elec       q    Type
                         _______ _______ _______ _____ _____    ______ ____

>  <TORSDO>
F 11

$$$$
=
 OpenBabel11042413133D

 56 63  0  0  1  0  0  0  0  0999 V2000
  188.2450  176.7550  138.4010 C   0  0  0  0  0  3  0  0  0  0  0  0
  185.7760  178.5780  137.8530 S   0  0  0  0  0  0  0  0  0  0  0  0
  190.7820  175.3590  137.2520 C   0  0  0  0  0  0  0  0  0  0  0  0
  186.4330  176.1040  136.8070 C   0  0  0  0  0  0  0  0  0  0  0  0
  189.6580  174.5290  136.7490 C   0  0  0  0  0  3  0  0  0  0  0  0
  187.7580  176.0080  137.4110 C   0  0  0  0  0  0  0  0  0  0  0  0
  184.1870  177.0060  136.3280 C   0  0  0  0  0  2  0  0  0  0  0  0
  185.5400  177.1020  136.9110 C   0  0  0  0  0  0  0  0  0  0  0  0
  188.3490  174.7800  136.8830 C   0  0  0  0  0  0  0  0  0  0  0  0
  186.1720  174.9290  136.0400 N   0  0  0  0  0  2  0  0  0  0  0  0
  189.4770  176.3740  139.1530 C   0  0  0  0  0  2  0  0  0  0  0  0
  190.6810  176.2120  138.2800 C   0  0  0  0  0  3  0  0  0  0  0  0
  187.3070  174.0080  136.1230 C   0  0  2  0  0  3  0  0  0  0  0  0
  183.9870  178.5440  138.1740 C   0  0  1  0  0  3  0  0  0  0  0  0
  183.2570  177.7740  137.1560 N   0  0  0  0  0  2  0  0  0  0  0  0
  193.7650  173.9340  135.3900 C   0  0  0  0  0  3  0  0  0  0  0  0
  192.0780  175.2370  136.5570 C   0  0  0  0  0  0  0  0  0  0  0  0
  194.1360  176.2910  135.7970 C   0  0  0  0  0  0  0  0  0  0  0  0
  192.5280  174.0070  136.0330 C   0  0  0  0  0  0  0  0  0  0  0  0
  191.7550  172.8560  136.1410 O   0  0  0  0  0  1  0  0  0  0  0  0
  194.5720  175.0670  135.2640 C   0  0  0  0  0  0  0  0  0  0  0  0
  192.8950  176.3690  136.4340 C   0  0  0  0  0  3  0  0  0  0  0  0
  194.9240  177.3900  135.7360 F   0  0  0  0  0  0  0  0  0  0  0  0
  195.9060  174.9320  134.5960 C   0  0  0  0  0  2  0  0  0  0  0  0
  198.0650  174.0290  134.6590 C   0  0  0  0  0  2  0  0  0  0  0  0
  198.3880  174.3440  136.9910 C   0  0  0  0  0  2  0  0  0  0  0  0
  196.9150  174.3930  136.6660 C   0  0  0  0  0  2  0  0  0  0  0  0
  199.0460  174.5930  135.6680 C   0  0  0  0  0  2  0  0  0  0  0  0
  196.7470  173.9560  135.2830 N   0  0  0  0  0  0  0  0  0  0  0  0
  183.6950  178.0350  139.5850 C   0  0  2  0  0  3  0  0  0  0  0  0
  183.1760  176.7380  139.5550 O   0  0  0  0  0  1  0  0  0  0  0  0
  182.7500  178.9270  140.2450 N   0  0  0  0  0  2  0  0  0  0  0  0
  184.2580  178.1100  143.4430 C   0  0  2  0  0  3  0  0  0  0  0  0
  182.3030  179.3220  142.6450 C   0  0  1  0  0  3  0  0  0  0  0  0
  183.1060  179.0000  143.8880 C   0  0  0  0  0  2  0  0  0  0  0  0
  183.3370  179.2930  141.5280 C   0  0  1  0  0  3  0  0  0  0  0  0
  185.3870  178.9550  142.8790 C   0  0  2  0  0  3  0  0  0  0  0  0
  181.3430  178.3190  142.4560 O   0  0  0  0  0  1  0  0  0  0  0  0
  184.3940  178.2870  141.9410 C   0  0  1  0  0  3  0  0  0  0  0  0
  187.0090  177.3940  144.0210 N   0  0  0  0  0  2  0  0  0  0  0  0
  188.2230  176.5970  144.0700 C   0  0  0  0  0  1  0  0  0  0  0  0
  187.4180  178.2070  141.8690 O   0  0  0  0  0  0  0  0  0  0  0  0
  186.6690  178.1900  142.8830 C   0  0  0  0  0  0  0  0  0  0  0  0
  187.7610  171.5500  136.4890 C   0  0  0  0  0  1  0  0  0  0  0  0
  186.8890  172.7350  136.8700 C   0  0  2  0  0  3  0  0  0  0  0  0
  184.5020  172.7180  137.3930 N   0  0  0  0  0  0  0  0  0  0  0  0
  183.2470  172.1420  136.9220 C   0  0  2  0  0  3  0  0  0  0  0  0
  185.0740  171.5770  135.4770 N   0  0  0  0  0  2  0  0  0  0  0  0
  185.4630  172.3880  136.5850 C   0  0  0  0  0  0  0  0  0  0  0  0
  183.6810  171.4390  135.6850 C   0  0  0  0  0  0  0  0  0  0  0  0
  182.9350  170.7540  134.9370 O   0  0  0  0  0  0  0  0  0  0  0  0
  182.5940  174.4120  137.2680 O   0  0  0  0  0  1  0  0  0  0  0  0
  182.1660  173.2120  136.6910 C   0  0  2  0  0  3  0  0  0  0  0  0
  179.7580  172.8270  136.0970 C   0  0  0  0  0  1  0  0  0  0  0  0
  180.7740  172.8390  137.2290 C   0  0  1  0  0  3  0  0  0  0  0  0
  180.8000  171.5750  137.8220 O   0  0  0  0  0  1  0  0  0  0  0  0
  1 11  1  0  0  0  0
  2 14  1  0  0  0  0
  3 12  2  0  0  0  0
  4  8  2  0  0  0  0
  4  6  1  0  0  0  0
  5  9  2  0  0  0  0
  5  3  1  0  0  0  0
  6  1  2  0  0  0  0
  7  8  1  0  0  0  0
  7 15  1  0  0  0  0
  8  2  1  0  0  0  0
  9  6  1  0  0  0  0
 10 13  1  0  0  0  0
 10  4  1  0  0  0  0
 12 11  1  0  0  0  0
 13 45  1  1  0  0  0
 13  9  1  0  0  0  0
 14 30  1  1  0  0  0
 15 14  1  0  0  0  0
 16 19  1  0  0  0  0
 17  3  1  0  0  0  0
 18 22  2  0  0  0  0
 19 20  1  0  0  0  0
 19 17  2  0  0  0  0
 21 16  2  0  0  0  0
 21 18  1  0  0  0  0
 22 17  1  0  0  0  0
 23 18  1  0  0  0  0
 24 21  1  0  0  0  0
 24 29  1  0  0  0  0
 25 29  1  0  0  0  0
 25 28  1  0  0  0  0
 27 26  1  0  0  0  0
 28 26  1  0  0  0  0
 29 27  1  0  0  0  0
 30 31  1  6  0  0  0
 30 32  1  0  0  0  0
 33 35  1  1  0  0  0
 34 38  1  6  0  0  0
 34 35  1  0  0  0  0
 36 32  1  6  0  0  0
 36 39  1  0  0  0  0
 36 34  1  0  0  0  0
 37 43  1  6  0  0  0
 37 33  1  0  0  0  0
 39 37  1  0  0  0  0
 39 33  1  0  0  0  0
 40 41  1  0  0  0  0
 42 43  2  0  0  0  0
 43 40  1  0  0  0  0
 44 45  1  0  0  0  0
 47 46  1  0  0  0  0
 48 50  1  0  0  0  0
 48 49  1  0  0  0  0
 49 45  1  0  0  0  0
 49 46  2  0  0  0  0
 50 47  1  0  0  0  0
 51 50  2  0  0  0  0
 53 47  1  0  0  0  0
 53 55  1  0  0  0  0
 53 52  1  0  0  0  0
 54 55  1  0  0  0  0
 55 56  1  0  0  0  0
M  END
>  <MODEL>
3

>  <REMARK>
 VINA RESULT:      -7.3      3.997     12.015
  Name = 
  11 active torsions:
  status: ('A' for Active; 'I' for Inactive)
    1  A    between atoms: C_4  and  C_41
    2  A    between atoms: C_4  and  N_56
    3  A    between atoms: C_7  and  C_22
    4  A    between atoms: C_9  and  C_47
    5  A    between atoms: C_9  and  N_48
    6  A    between atoms: C_10  and  C_32
    7  A    between atoms: C_23  and  N_48
    8  A    between atoms: C_29  and  C_32
    9  A    between atoms: C_31  and  C_37
   10  A    between atoms: C_37  and  C_45
   11  A    between atoms: C_39  and  C_52
                            x       y       z     vdW  Elec       q    Type
                         _______ _______ _______ _____ _____    ______ ____

>  <TORSDO>
F 11

$$$$
=
 OpenBabel11042413133D

 56 63  0  0  1  0  0  0  0  0999 V2000
  187.5460  177.3090  138.7620 C   0  0  0  0  0  3  0  0  0  0  0  0
  184.9700  178.9860  138.2440 S   0  0  0  0  0  0  0  0  0  0  0  0
  190.1440  176.0590  137.5810 C   0  0  0  0  0  0  0  0  0  0  0  0
  185.7540  176.5530  137.1910 C   0  0  0  0  0  0  0  0  0  0  0  0
  189.0630  175.1660  137.0930 C   0  0  0  0  0  3  0  0  0  0  0  0
  187.0900  176.5340  137.7780 C   0  0  0  0  0  0  0  0  0  0  0  0
  183.4540  177.3240  136.7410 C   0  0  0  0  0  2  0  0  0  0  0  0
  184.8070  177.4980  137.3060 C   0  0  0  0  0  0  0  0  0  0  0  0
  187.7440  175.3410  137.2430 C   0  0  0  0  0  0  0  0  0  0  0  0
  185.5520  175.3630  136.4290 N   0  0  0  0  0  2  0  0  0  0  0  0
  188.8080  177.0000  139.4980 C   0  0  0  0  0  2  0  0  0  0  0  0
  190.0080  176.9060  138.6090 C   0  0  0  0  0  3  0  0  0  0  0  0
  186.7380  174.5100  136.4970 C   0  0  2  0  0  3  0  0  0  0  0  0
  183.1900  178.8490  138.5890 C   0  0  1  0  0  3  0  0  0  0  0  0
  182.4930  178.0380  137.5800 N   0  0  0  0  0  2  0  0  0  0  0  0
  192.7630  176.1180  134.8350 C   0  0  0  0  0  3  0  0  0  0  0  0
  191.4360  176.0110  136.8680 C   0  0  0  0  0  0  0  0  0  0  0  0
  193.8480  175.6990  136.9580 C   0  0  0  0  0  0  0  0  0  0  0  0
  191.5210  176.1800  135.4710 C   0  0  0  0  0  0  0  0  0  0  0  0
  190.3830  176.4120  134.7060 O   0  0  0  0  0  1  0  0  0  0  0  0
  193.9290  175.8840  135.5680 C   0  0  0  0  0  0  0  0  0  0  0  0
  192.6080  175.7680  137.5980 C   0  0  0  0  0  3  0  0  0  0  0  0
  194.9560  175.4150  137.6820 F   0  0  0  0  0  0  0  0  0  0  0  0
  195.2340  175.7920  134.8380 C   0  0  0  0  0  2  0  0  0  0  0  0
  196.4560  173.8330  135.2270 C   0  0  0  0  0  2  0  0  0  0  0  0
  198.5930  174.8680  135.1640 C   0  0  0  0  0  2  0  0  0  0  0  0
  197.5270  175.9080  135.4070 C   0  0  0  0  0  2  0  0  0  0  0  0
  197.8290  173.7110  134.5960 C   0  0  0  0  0  2  0  0  0  0  0  0
  196.2740  175.2090  135.6810 N   0  0  0  0  0  0  0  0  0  0  0  0
  182.9460  178.3270  140.0040 C   0  0  2  0  0  3  0  0  0  0  0  0
  183.4650  177.0380  140.1610 O   0  0  0  0  0  1  0  0  0  0  0  0
  181.5160  178.3180  140.2860 N   0  0  0  0  0  2  0  0  0  0  0  0
  181.5470  178.5510  143.9070 C   0  0  2  0  0  3  0  0  0  0  0  0
  179.9310  178.8430  142.1100 C   0  0  1  0  0  3  0  0  0  0  0  0
  180.1270  179.0090  143.6020 C   0  0  0  0  0  2  0  0  0  0  0  0
  181.3270  179.0430  141.5350 C   0  0  1  0  0  3  0  0  0  0  0  0
  182.5330  179.6670  143.6080 C   0  0  2  0  0  3  0  0  0  0  0  0
  179.4750  177.5420  141.8570 O   0  0  0  0  0  1  0  0  0  0  0  0
  182.3030  178.5610  142.5900 C   0  0  1  0  0  3  0  0  0  0  0  0
  183.8080  178.8540  145.6290 N   0  0  0  0  0  2  0  0  0  0  0  0
  185.0300  178.5660  146.3600 C   0  0  0  0  0  1  0  0  0  0  0  0
  184.9170  179.6980  143.7540 O   0  0  0  0  0  0  0  0  0  0  0  0
  183.8230  179.4330  144.3220 C   0  0  0  0  0  0  0  0  0  0  0  0
  187.5570  172.2270  137.2070 C   0  0  0  0  0  1  0  0  0  0  0  0
  186.4040  173.2150  137.2500 C   0  0  2  0  0  3  0  0  0  0  0  0
  184.0220  172.6680  137.2290 N   0  0  0  0  0  0  0  0  0  0  0  0
  183.0640  171.8230  136.5240 C   0  0  2  0  0  3  0  0  0  0  0  0
  185.2510  171.6740  135.5550 N   0  0  0  0  0  2  0  0  0  0  0  0
  185.1910  172.5570  136.6750 C   0  0  0  0  0  0  0  0  0  0  0  0
  183.9120  171.2290  135.4560 C   0  0  0  0  0  0  0  0  0  0  0  0
  183.5230  170.3910  134.6000 O   0  0  0  0  0  0  0  0  0  0  0  0
  182.2920  173.9080  135.6540 O   0  0  0  0  0  1  0  0  0  0  0  0
  181.8590  172.6240  135.9990 C   0  0  2  0  0  3  0  0  0  0  0  0
  179.3690  172.4380  136.2550 C   0  0  0  0  0  1  0  0  0  0  0  0
  180.6780  172.7140  136.9790 C   0  0  1  0  0  3  0  0  0  0  0  0
  180.8240  171.7840  138.0110 O   0  0  0  0  0  1  0  0  0  0  0  0
  1 11  1  0  0  0  0
  2 14  1  0  0  0  0
  3 12  2  0  0  0  0
  4  8  2  0  0  0  0
  4  6  1  0  0  0  0
  5  9  2  0  0  0  0
  5  3  1  0  0  0  0
  6  1  2  0  0  0  0
  7  8  1  0  0  0  0
  7 15  1  0  0  0  0
  8  2  1  0  0  0  0
  9  6  1  0  0  0  0
 10 13  1  0  0  0  0
 10  4  1  0  0  0  0
 12 11  1  0  0  0  0
 13  9  1  0  0  0  0
 13 45  1  1  0  0  0
 14 30  1  1  0  0  0
 15 14  1  0  0  0  0
 16 19  2  0  0  0  0
 16 21  1  0  0  0  0
 17  3  1  0  0  0  0
 17 22  2  0  0  0  0
 18 22  1  0  0  0  0
 18 23  1  0  0  0  0
 19 17  1  0  0  0  0
 20 19  1  0  0  0  0
 21 18  2  0  0  0  0
 24 21  1  0  0  0  0
 24 29  1  0  0  0  0
 25 29  1  0  0  0  0
 26 27  1  0  0  0  0
 27 29  1  0  0  0  0
 28 26  1  0  0  0  0
 28 25  1  0  0  0  0
 30 31  1  6  0  0  0
 30 32  1  0  0  0  0
 33 35  1  6  0  0  0
 34 38  1  1  0  0  0
 34 35  1  0  0  0  0
 36 32  1  6  0  0  0
 36 34  1  0  0  0  0
 36 39  1  0  0  0  0
 37 33  1  0  0  0  0
 37 43  1  1  0  0  0
 39 37  1  0  0  0  0
 39 33  1  0  0  0  0
 40 41  1  0  0  0  0
 42 43  2  0  0  0  0
 43 40  1  0  0  0  0
 44 45  1  0  0  0  0
 47 46  1  0  0  0  0
 48 49  1  0  0  0  0
 49 46  2  0  0  0  0
 49 45  1  0  0  0  0
 50 48  1  0  0  0  0
 50 47  1  0  0  0  0
 51 50  2  0  0  0  0
 52 53  1  0  0  0  0
 53 47  1  0  0  0  0
 53 55  1  0  0  0  0
 54 55  1  0  0  0  0
 55 56  1  0  0  0  0
M  END
>  <MODEL>
4

>  <REMARK>
 VINA RESULT:      -7.0      4.542     12.377
  Name = 
  11 active torsions:
  status: ('A' for Active; 'I' for Inactive)
    1  A    between atoms: C_4  and  C_41
    2  A    between atoms: C_4  and  N_56
    3  A    between atoms: C_7  and  C_22
    4  A    between atoms: C_9  and  C_47
    5  A    between atoms: C_9  and  N_48
    6  A    between atoms: C_10  and  C_32
    7  A    between atoms: C_23  and  N_48
    8  A    between atoms: C_29  and  C_32
    9  A    between atoms: C_31  and  C_37
   10  A    between atoms: C_37  and  C_45
   11  A    between atoms: C_39  and  C_52
                            x       y       z     vdW  Elec       q    Type
                         _______ _______ _______ _____ _____    ______ ____

>  <TORSDO>
F 11

$$$$
=
 OpenBabel11042413133D

 56 63  0  0  1  0  0  0  0  0999 V2000
  189.2470  176.4810  138.1360 C   0  0  0  0  0  3  0  0  0  0  0  0
  186.9970  178.4860  137.3380 S   0  0  0  0  0  0  0  0  0  0  0  0
  191.6890  174.7770  137.2190 C   0  0  0  0  0  0  0  0  0  0  0  0
  187.4600  175.8950  136.4890 C   0  0  0  0  0  0  0  0  0  0  0  0
  190.5150  174.0240  136.7090 C   0  0  0  0  0  3  0  0  0  0  0  0
  188.7380  175.7170  137.1700 C   0  0  0  0  0  0  0  0  0  0  0  0
  185.3380  176.9690  135.8310 C   0  0  0  0  0  2  0  0  0  0  0  0
  186.6640  176.9770  136.4800 C   0  0  0  0  0  0  0  0  0  0  0  0
  189.2320  174.4050  136.7550 C   0  0  0  0  0  0  0  0  0  0  0  0
  187.1230  174.6990  135.7860 N   0  0  0  0  0  2  0  0  0  0  0  0
  190.3990  176.0380  138.9770 C   0  0  0  0  0  2  0  0  0  0  0  0
  191.6220  175.7040  138.1830 C   0  0  0  0  0  3  0  0  0  0  0  0
  188.1580  173.6840  135.9890 C   0  0  2  0  0  3  0  0  0  0  0  0
  185.2000  178.6420  137.5620 C   0  0  1  0  0  3  0  0  0  0  0  0
  184.4490  177.8760  136.5560 N   0  0  0  0  0  2  0  0  0  0  0  0
  195.2640  175.1240  135.9960 C   0  0  0  0  0  3  0  0  0  0  0  0
  192.9990  174.4860  136.6050 C   0  0  0  0  0  0  0  0  0  0  0  0
  194.4270  172.9360  135.3890 C   0  0  0  0  0  0  0  0  0  0  0  0
  194.0420  175.4360  136.5960 C   0  0  0  0  0  0  0  0  0  0  0  0
  193.8780  176.6880  137.1800 O   0  0  0  0  0  1  0  0  0  0  0  0
  195.4660  173.8790  135.3960 C   0  0  0  0  0  0  0  0  0  0  0  0
  193.2050  173.2420  135.9950 C   0  0  0  0  0  3  0  0  0  0  0  0
  194.5800  171.7440  134.7650 F   0  0  0  0  0  0  0  0  0  0  0  0
  196.7820  173.6020  134.7350 C   0  0  0  0  0  2  0  0  0  0  0  0
  198.8100  173.9520  135.8510 C   0  0  0  0  0  2  0  0  0  0  0  0
  197.9880  173.4170  138.0140 C   0  0  0  0  0  2  0  0  0  0  0  0
  197.0650  172.8550  136.9610 C   0  0  0  0  0  2  0  0  0  0  0  0
  198.7620  174.4670  137.2750 C   0  0  0  0  0  2  0  0  0  0  0  0
  197.7260  172.9920  135.6660 N   0  0  0  0  0  0  0  0  0  0  0  0
  184.7910  178.2610  138.9840 C   0  0  2  0  0  3  0  0  0  0  0  0
  183.4670  178.6250  139.2420 O   0  0  0  0  0  1  0  0  0  0  0  0
  185.6750  178.9120  139.9420 N   0  0  0  0  0  2  0  0  0  0  0  0
  185.2200  178.9460  143.5420 C   0  0  2  0  0  3  0  0  0  0  0  0
  186.7820  177.9770  141.9460 C   0  0  1  0  0  3  0  0  0  0  0  0
  186.3990  177.9920  143.4110 C   0  0  0  0  0  2  0  0  0  0  0  0
  185.4700  178.2520  141.2250 C   0  0  1  0  0  3  0  0  0  0  0  0
  183.9290  178.2400  143.1660 C   0  0  2  0  0  3  0  0  0  0  0  0
  187.7000  179.0090  141.7100 O   0  0  0  0  0  1  0  0  0  0  0  0
  184.6390  179.1200  142.1500 C   0  0  1  0  0  3  0  0  0  0  0  0
  181.5840  179.1390  142.9160 N   0  0  0  0  0  2  0  0  0  0  0  0
  180.3910  179.8030  143.4140 C   0  0  0  0  0  1  0  0  0  0  0  0
  182.7690  179.3800  144.9160 O   0  0  0  0  0  0  0  0  0  0  0  0
  182.7510  178.9670  143.7240 C   0  0  0  0  0  0  0  0  0  0  0  0
  188.2990  171.2090  136.4740 C   0  0  0  0  0  1  0  0  0  0  0  0
  187.5820  172.5100  136.7910 C   0  0  2  0  0  3  0  0  0  0  0  0
  185.2140  172.6550  137.3810 N   0  0  0  0  0  0  0  0  0  0  0  0
  183.9010  172.2540  136.8860 C   0  0  2  0  0  3  0  0  0  0  0  0
  185.6380  171.6930  135.3320 N   0  0  0  0  0  2  0  0  0  0  0  0
  186.1240  172.3310  136.5120 C   0  0  0  0  0  0  0  0  0  0  0  0
  184.2430  171.6610  135.5660 C   0  0  0  0  0  0  0  0  0  0  0  0
  183.4200  171.1380  134.7680 O   0  0  0  0  0  0  0  0  0  0  0  0
  183.4070  174.4720  137.6180 O   0  0  0  0  0  1  0  0  0  0  0  0
  182.9230  173.4400  136.8090 C   0  0  2  0  0  3  0  0  0  0  0  0
  180.5350  173.3710  136.0390 C   0  0  0  0  0  1  0  0  0  0  0  0
  181.4760  173.0990  137.2020 C   0  0  1  0  0  3  0  0  0  0  0  0
  181.3700  171.7530  137.5610 O   0  0  0  0  0  1  0  0  0  0  0  0
  1 11  1  0  0  0  0
  2 14  1  0  0  0  0
  3 12  2  0  0  0  0
  4  6  1  0  0  0  0
  5  9  2  0  0  0  0
  5  3  1  0  0  0  0
  6  1  2  0  0  0  0
  7  8  1  0  0  0  0
  7 15  1  0  0  0  0
  8  4  2  0  0  0  0
  8  2  1  0  0  0  0
  9  6  1  0  0  0  0
 10 13  1  0  0  0  0
 10  4  1  0  0  0  0
 12 11  1  0  0  0  0
 13  9  1  0  0  0  0
 13 45  1  1  0  0  0
 14 30  1  1  0  0  0
 15 14  1  0  0  0  0
 16 19  1  0  0  0  0
 17  3  1  0  0  0  0
 18 21  1  0  0  0  0
 18 22  2  0  0  0  0
 19 17  2  0  0  0  0
 19 20  1  0  0  0  0
 21 16  2  0  0  0  0
 22 17  1  0  0  0  0
 23 18  1  0  0  0  0
 24 21  1  0  0  0  0
 24 29  1  0  0  0  0
 25 28  1  0  0  0  0
 27 26  1  0  0  0  0
 28 26  1  0  0  0  0
 29 25  1  0  0  0  0
 29 27  1  0  0  0  0
 30 31  1  1  0  0  0
 30 32  1  0  0  0  0
 33 35  1  6  0  0  0
 34 38  1  1  0  0  0
 34 35  1  0  0  0  0
 36 32  1  6  0  0  0
 36 34  1  0  0  0  0
 36 39  1  0  0  0  0
 37 33  1  0  0  0  0
 37 43  1  1  0  0  0
 39 37  1  0  0  0  0
 39 33  1  0  0  0  0
 40 41  1  0  0  0  0
 40 43  1  0  0  0  0
 43 42  2  0  0  0  0
 44 45  1  0  0  0  0
 47 46  1  0  0  0  0
 48 50  1  0  0  0  0
 48 49  1  0  0  0  0
 49 45  1  0  0  0  0
 49 46  2  0  0  0  0
 50 47  1  0  0  0  0
 51 50  2  0  0  0  0
 53 47  1  0  0  0  0
 53 55  1  0  0  0  0
 53 52  1  0  0  0  0
 54 55  1  0  0  0  0
 55 56  1  0  0  0  0
M  END
>  <MODEL>
5

>  <REMARK>
 VINA RESULT:      -6.5      4.521     12.481
  Name = 
  11 active torsions:
  status: ('A' for Active; 'I' for Inactive)
    1  A    between atoms: C_4  and  C_41
    2  A    between atoms: C_4  and  N_56
    3  A    between atoms: C_7  and  C_22
    4  A    between atoms: C_9  and  C_47
    5  A    between atoms: C_9  and  N_48
    6  A    between atoms: C_10  and  C_32
    7  A    between atoms: C_23  and  N_48
    8  A    between atoms: C_29  and  C_32
    9  A    between atoms: C_31  and  C_37
   10  A    between atoms: C_37  and  C_45
   11  A    between atoms: C_39  and  C_52
                            x       y       z     vdW  Elec       q    Type
                         _______ _______ _______ _____ _____    ______ ____

>  <TORSDO>
F 11

$$$$
=
 OpenBabel11042413133D

 56 63  0  0  1  0  0  0  0  0999 V2000
  189.7790  176.1630  137.7030 C   0  0  0  0  0  3  0  0  0  0  0  0
  187.6500  178.2140  136.7150 S   0  0  0  0  0  0  0  0  0  0  0  0
  192.1990  174.3380  136.9790 C   0  0  0  0  0  0  0  0  0  0  0  0
  188.0570  175.5770  135.9880 C   0  0  0  0  0  0  0  0  0  0  0  0
  191.0250  173.6090  136.4370 C   0  0  0  0  0  3  0  0  0  0  0  0
  189.2920  175.3800  136.7410 C   0  0  0  0  0  0  0  0  0  0  0  0
  186.0140  176.7000  135.1810 C   0  0  0  0  0  2  0  0  0  0  0  0
  187.3040  176.6860  135.8980 C   0  0  0  0  0  0  0  0  0  0  0  0
  189.7570  174.0370  136.4010 C   0  0  0  0  0  0  0  0  0  0  0  0
  187.7120  174.3680  135.3140 N   0  0  0  0  0  2  0  0  0  0  0  0
  190.8700  175.7130  138.6190 C   0  0  0  0  0  2  0  0  0  0  0  0
  192.1180  175.3050  137.9030 C   0  0  0  0  0  3  0  0  0  0  0  0
  188.6960  173.3250  135.6080 C   0  0  2  0  0  3  0  0  0  0  0  0
  185.8510  178.4420  136.8390 C   0  0  1  0  0  3  0  0  0  0  0  0
  185.1230  177.6650  135.8250 N   0  0  0  0  0  2  0  0  0  0  0  0
  195.3310  174.2460  134.8400 C   0  0  0  0  0  3  0  0  0  0  0  0
  193.5270  173.9780  136.4450 C   0  0  0  0  0  0  0  0  0  0  0  0
  195.5060  172.5680  136.5750 C   0  0  0  0  0  0  0  0  0  0  0  0
  194.0750  174.6240  135.3180 C   0  0  0  0  0  0  0  0  0  0  0  0
  193.3850  175.6430  134.6680 O   0  0  0  0  0  1  0  0  0  0  0  0
  196.0540  173.2250  135.4620 C   0  0  0  0  0  0  0  0  0  0  0  0
  194.2530  172.9490  137.0610 C   0  0  0  0  0  3  0  0  0  0  0  0
  196.1620  171.5390  137.1620 F   0  0  0  0  0  0  0  0  0  0  0  0
  197.3830  172.8310  134.8930 C   0  0  0  0  0  2  0  0  0  0  0  0
  197.8190  174.8650  135.9670 C   0  0  0  0  0  2  0  0  0  0  0  0
  199.1610  173.9390  137.6950 C   0  0  0  0  0  2  0  0  0  0  0  0
  199.0750  172.9730  136.5390 C   0  0  0  0  0  2  0  0  0  0  0  0
  197.9940  174.8540  137.4720 C   0  0  0  0  0  2  0  0  0  0  0  0
  198.4560  173.6720  135.4160 N   0  0  0  0  0  0  0  0  0  0  0  0
  185.3570  178.1320  138.2520 C   0  0  2  0  0  3  0  0  0  0  0  0
  184.8380  176.8370  138.3310 O   0  0  0  0  0  1  0  0  0  0  0  0
  184.3340  179.0950  138.6380 N   0  0  0  0  0  2  0  0  0  0  0  0
  184.9120  177.9250  142.0240 C   0  0  2  0  0  3  0  0  0  0  0  0
  183.1600  179.1060  140.8150 C   0  0  1  0  0  3  0  0  0  0  0  0
  183.5910  178.6620  142.1970 C   0  0  0  0  0  2  0  0  0  0  0  0
  184.4740  179.3090  140.0730 C   0  0  1  0  0  3  0  0  0  0  0  0
  186.0580  178.9180  141.9380 C   0  0  2  0  0  3  0  0  0  0  0  0
  182.4130  178.0780  140.2240 O   0  0  0  0  0  1  0  0  0  0  0  0
  185.4650  178.3280  140.6680 C   0  0  1  0  0  3  0  0  0  0  0  0
  187.5280  177.5860  143.4990 N   0  0  0  0  0  2  0  0  0  0  0  0
  188.7540  176.8850  143.8410 C   0  0  0  0  0  1  0  0  0  0  0  0
  188.2750  178.2270  141.3790 O   0  0  0  0  0  0  0  0  0  0  0  0
  187.3580  178.2490  142.2440 C   0  0  0  0  0  0  0  0  0  0  0  0
  188.2130  170.8500  135.7570 C   0  0  0  0  0  1  0  0  0  0  0  0
  188.0360  172.2040  136.4220 C   0  0  2  0  0  3  0  0  0  0  0  0
  185.6870  171.9720  135.7900 N   0  0  0  0  0  0  0  0  0  0  0  0
  184.3680  172.4870  136.1400 C   0  0  2  0  0  3  0  0  0  0  0  0
  186.0640  173.3420  137.6020 N   0  0  0  0  0  2  0  0  0  0  0  0
  186.5740  172.4600  136.6030 C   0  0  0  0  0  0  0  0  0  0  0  0
  184.6780  173.3440  137.3160 C   0  0  0  0  0  0  0  0  0  0  0  0
  183.8420  174.0360  137.9540 O   0  0  0  0  0  0  0  0  0  0  0  0
  183.8700  170.1630  135.9170 O   0  0  0  0  0  1  0  0  0  0  0  0
  183.3620  171.3600  136.4310 C   0  0  2  0  0  3  0  0  0  0  0  0
  182.0080  172.5410  134.6780 C   0  0  0  0  0  1  0  0  0  0  0  0
  181.9480  171.6090  135.8780 C   0  0  1  0  0  3  0  0  0  0  0  0
  181.3560  170.4070  135.4850 O   0  0  0  0  0  1  0  0  0  0  0  0
  1 11  1  0  0  0  0
  2 14  1  0  0  0  0
  3 12  2  0  0  0  0
  4  6  1  0  0  0  0
  5  3  1  0  0  0  0
  6  1  2  0  0  0  0
  7 15  1  0  0  0  0
  7  8  1  0  0  0  0
  8  4  2  0  0  0  0
  8  2  1  0  0  0  0
  9  5  2  0  0  0  0
  9  6  1  0  0  0  0
 10 13  1  0  0  0  0
 10  4  1  0  0  0  0
 12 11  1  0  0  0  0
 13  9  1  0  0  0  0
 13 45  1  1  0  0  0
 14 30  1  1  0  0  0
 15 14  1  0  0  0  0
 16 19  2  0  0  0  0
 16 21  1  0  0  0  0
 17  3  1  0  0  0  0
 17 22  2  0  0  0  0
 18 22  1  0  0  0  0
 18 23  1  0  0  0  0
 19 17  1  0  0  0  0
 20 19  1  0  0  0  0
 21 18  2  0  0  0  0
 24 29  1  0  0  0  0
 24 21  1  0  0  0  0
 25 28  1  0  0  0  0
 27 26  1  0  0  0  0
 28 26  1  0  0  0  0
 29 25  1  0  0  0  0
 29 27  1  0  0  0  0
 30 31  1  6  0  0  0
 30 32  1  0  0  0  0
 33 35  1  6  0  0  0
 34 38  1  6  0  0  0
 34 35  1  0  0  0  0
 36 32  1  6  0  0  0
 36 39  1  0  0  0  0
 36 34  1  0  0  0  0
 37 33  1  0  0  0  0
 37 43  1  1  0  0  0
 39 37  1  0  0  0  0
 39 33  1  0  0  0  0
 40 41  1  0  0  0  0
 42 43  2  0  0  0  0
 43 40  1  0  0  0  0
 44 45  1  0  0  0  0
 45 49  1  0  0  0  0
 46 47  1  0  0  0  0
 46 49  2  0  0  0  0
 47 53  1  0  0  0  0
 47 50  1  0  0  0  0
 49 48  1  0  0  0  0
 50 48  1  0  0  0  0
 50 51  2  0  0  0  0
 52 53  1  0  0  0  0
 54 55  1  0  0  0  0
 55 53  1  0  0  0  0
 56 55  1  0  0  0  0
M  END
>  <MODEL>
6

>  <REMARK>
 VINA RESULT:      -6.2      4.261     12.315
  Name = 
  11 active torsions:
  status: ('A' for Active; 'I' for Inactive)
    1  A    between atoms: C_4  and  C_41
    2  A    between atoms: C_4  and  N_56
    3  A    between atoms: C_7  and  C_22
    4  A    between atoms: C_9  and  C_47
    5  A    between atoms: C_9  and  N_48
    6  A    between atoms: C_10  and  C_32
    7  A    between atoms: C_23  and  N_48
    8  A    between atoms: C_29  and  C_32
    9  A    between atoms: C_31  and  C_37
   10  A    between atoms: C_37  and  C_45
   11  A    between atoms: C_39  and  C_52
                            x       y       z     vdW  Elec       q    Type
                         _______ _______ _______ _____ _____    ______ ____

>  <TORSDO>
F 11

$$$$
=
 OpenBabel11042413133D

 56 63  0  0  1  0  0  0  0  0999 V2000
  188.7950  176.4010  138.1160 C   0  0  0  0  0  3  0  0  0  0  0  0
  186.4570  178.3300  137.3920 S   0  0  0  0  0  0  0  0  0  0  0  0
  191.2750  174.7950  137.1250 C   0  0  0  0  0  0  0  0  0  0  0  0
  186.9920  175.7670  136.5050 C   0  0  0  0  0  0  0  0  0  0  0  0
  190.1170  174.0060  136.6340 C   0  0  0  0  0  3  0  0  0  0  0  0
  188.2920  175.6280  137.1540 C   0  0  0  0  0  0  0  0  0  0  0  0
  184.8190  176.7700  135.9080 C   0  0  0  0  0  2  0  0  0  0  0  0
  186.1590  176.8190  136.5260 C   0  0  1  0  0  3  0  0  0  0  0  0
  188.8230  174.3400  136.7130 C   0  0  0  0  0  0  0  0  0  0  0  0
  186.6830  174.5670  135.7970 N   0  0  0  0  0  0  0  0  0  0  0  0
  189.9820  175.9920  138.9260 C   0  0  0  0  0  2  0  0  0  0  0  0
  191.1970  175.7100  138.1000 C   0  0  0  0  0  3  0  0  0  0  0  0
  187.7580  173.5880  135.9650 C   0  0  2  0  0  3  0  0  0  0  0  0
  184.6610  178.4190  137.6590 C   0  0  1  0  0  3  0  0  0  0  0  0
  183.9140  177.6360  136.6630 N   0  0  0  0  0  2  0  0  0  0  0  0
  194.2180  175.0070  134.7400 C   0  0  0  0  0  3  0  0  0  0  0  0
  192.5800  174.5580  136.4780 C   0  0  0  0  0  0  0  0  0  0  0  0
  194.6750  173.3220  136.4150 C   0  0  0  0  0  0  0  0  0  0  0  0
  192.9780  175.2680  135.3260 C   0  0  0  0  0  0  0  0  0  0  0  0
  192.1540  176.2350  134.7590 O   0  0  0  0  0  1  0  0  0  0  0  0
  195.0720  174.0420  135.2780 C   0  0  0  0  0  0  0  0  0  0  0  0
  193.4380  173.5860  137.0090 C   0  0  0  0  0  3  0  0  0  0  0  0
  195.4610  172.3420  136.9220 F   0  0  0  0  0  0  0  0  0  0  0  0
  196.3780  173.7730  134.5940 C   0  0  0  0  0  2  0  0  0  0  0  0
  196.9980  175.1650  136.3700 C   0  0  0  0  0  2  0  0  0  0  0  0
  199.1800  174.2630  136.6310 C   0  0  0  0  0  2  0  0  0  0  0  0
  198.6420  173.9160  135.2650 C   0  0  0  0  0  2  0  0  0  0  0  0
  197.9500  174.6130  137.4130 C   0  0  0  0  0  2  0  0  0  0  0  0
  197.4190  174.6860  135.0570 N   0  0  0  0  0  0  0  0  0  0  0  0
  184.3000  178.0090  139.0860 C   0  0  2  0  0  3  0  0  0  0  0  0
  183.4680  176.8860  139.0930 O   0  0  0  0  0  1  0  0  0  0  0  0
  183.6360  179.1150  139.7640 N   0  0  0  0  0  2  0  0  0  0  0  0
  180.4930  180.8390  139.1980 C   0  0  2  0  0  3  0  0  0  0  0  0
  181.2330  178.7620  140.2300 C   0  0  1  0  0  3  0  0  0  0  0  0
  180.0000  179.5410  139.8240 C   0  0  0  0  0  2  0  0  0  0  0  0
  182.2860  179.1960  139.2200 C   0  0  1  0  0  3  0  0  0  0  0  0
  180.8790  180.6080  137.7470 C   0  0  2  0  0  3  0  0  0  0  0  0
  181.6030  179.1470  141.5260 O   0  0  0  0  0  1  0  0  0  0  0  0
  181.9490  180.6220  138.8270 C   0  0  1  0  0  3  0  0  0  0  0  0
  181.2730  183.1000  137.6800 N   0  0  0  0  0  2  0  0  0  0  0  0
  181.3540  184.3810  136.9990 C   0  0  0  0  0  1  0  0  0  0  0  0
  180.6510  181.9180  135.7630 O   0  0  0  0  0  0  0  0  0  0  0  0
  180.9040  181.8990  136.9980 C   0  0  0  0  0  0  0  0  0  0  0  0
  188.0040  171.1160  136.4260 C   0  0  0  0  0  1  0  0  0  0  0  0
  187.2430  172.3850  136.7680 C   0  0  2  0  0  3  0  0  0  0  0  0
  184.8790  172.4840  137.3790 N   0  0  0  0  0  0  0  0  0  0  0  0
  183.5740  172.0240  136.9180 C   0  0  2  0  0  3  0  0  0  0  0  0
  185.3100  171.4500  135.3680 N   0  0  0  0  0  2  0  0  0  0  0  0
  185.7880  172.1520  136.5140 C   0  0  0  0  0  0  0  0  0  0  0  0
  183.9180  171.3860  135.6190 C   0  0  0  0  0  0  0  0  0  0  0  0
  183.1040  170.8070  134.8540 O   0  0  0  0  0  0  0  0  0  0  0  0
  183.0420  174.2700  137.5280 O   0  0  0  0  0  1  0  0  0  0  0  0
  182.5590  173.1760  136.8040 C   0  0  2  0  0  3  0  0  0  0  0  0
  180.4160  174.0700  137.7560 C   0  0  0  0  0  1  0  0  0  0  0  0
  181.1380  172.8210  137.2720 C   0  0  1  0  0  3  0  0  0  0  0  0
  180.4040  172.2540  136.2290 O   0  0  0  0  0  1  0  0  0  0  0  0
  1 11  1  0  0  0  0
  2 14  1  0  0  0  0
  3 12  2  0  0  0  0
  4  6  1  0  0  0  0
  5  9  2  0  0  0  0
  5  3  1  0  0  0  0
  6  1  2  0  0  0  0
  7  8  1  0  0  0  0
  7 15  1  0  0  0  0
  8  4  1  1  0  0  0
  8  2  1  0  0  0  0
  9  6  1  0  0  0  0
 10 13  1  0  0  0  0
 10  4  2  0  0  0  0
 12 11  1  0  0  0  0
 13  9  1  0  0  0  0
 13 45  1  1  0  0  0
 14 30  1  1  0  0  0
 15 14  1  0  0  0  0
 16 21  2  0  0  0  0
 16 19  1  0  0  0  0
 17 22  1  0  0  0  0
 17  3  1  0  0  0  0
 18 23  1  0  0  0  0
 18 22  2  0  0  0  0
 19 17  2  0  0  0  0
 20 19  1  0  0  0  0
 21 18  1  0  0  0  0
 24 29  1  0  0  0  0
 24 21  1  0  0  0  0
 25 28  1  0  0  0  0
 26 28  1  0  0  0  0
 27 26  1  0  0  0  0
 29 27  1  0  0  0  0
 29 25  1  0  0  0  0
 30 31  1  6  0  0  0
 30 32  1  0  0  0  0
 33 35  1  1  0  0  0
 34 38  1  1  0  0  0
 35 34  1  0  0  0  0
 36 32  1  1  0  0  0
 36 34  1  0  0  0  0
 37 43  1  6  0  0  0
 37 39  1  0  0  0  0
 37 33  1  0  0  0  0
 39 33  1  0  0  0  0
 39 36  1  0  0  0  0
 41 40  1  0  0  0  0
 42 43  2  0  0  0  0
 43 40  1  0  0  0  0
 44 45  1  0  0  0  0
 47 46  1  0  0  0  0
 48 50  1  0  0  0  0
 48 49  1  0  0  0  0
 49 45  1  0  0  0  0
 49 46  2  0  0  0  0
 50 47  1  0  0  0  0
 51 50  2  0  0  0  0
 53 47  1  0  0  0  0
 53 55  1  0  0  0  0
 53 52  1  0  0  0  0
 55 54  1  0  0  0  0
 56 55  1  0  0  0  0
M  END
>  <MODEL>
7

>  <REMARK>
 VINA RESULT:      -6.1      4.454     12.671
  Name = 
  11 active torsions:
  status: ('A' for Active; 'I' for Inactive)
    1  A    between atoms: C_4  and  C_41
    2  A    between atoms: C_4  and  N_56
    3  A    between atoms: C_7  and  C_22
    4  A    between atoms: C_9  and  C_47
    5  A    between atoms: C_9  and  N_48
    6  A    between atoms: C_10  and  C_32
    7  A    between atoms: C_23  and  N_48
    8  A    between atoms: C_29  and  C_32
    9  A    between atoms: C_31  and  C_37
   10  A    between atoms: C_37  and  C_45
   11  A    between atoms: C_39  and  C_52
                            x       y       z     vdW  Elec       q    Type
                         _______ _______ _______ _____ _____    ______ ____

>  <TORSDO>
F 11

$$$$
=
 OpenBabel11042413133D

 56 63  0  0  1  0  0  0  0  0999 V2000
  187.1500  178.3260  141.5260 C   0  0  0  0  0  3  0  0  0  0  0  0
  188.4880  176.8150  143.9020 S   0  0  0  0  0  0  0  0  0  0  0  0
  185.4900  178.1340  138.8970 C   0  0  0  0  0  0  0  0  0  0  0  0
  188.9950  176.6720  141.1880 C   0  0  0  0  0  0  0  0  0  0  0  0
  186.8480  177.6880  138.4970 C   0  0  0  0  0  3  0  0  0  0  0  0
  187.8860  177.5190  140.7610 C   0  0  0  0  0  0  0  0  0  0  0  0
  190.5580  175.5350  142.7210 C   0  0  0  0  0  2  0  0  0  0  0  0
  189.3350  176.3120  142.4360 C   0  0  0  0  0  0  0  0  0  0  0  0
  187.9010  177.4910  139.3000 C   0  0  0  0  0  0  0  0  0  0  0  0
  189.7330  176.2430  140.0450 N   0  0  0  0  0  2  0  0  0  0  0  0
  186.2600  179.3760  140.9490 C   0  0  0  0  0  2  0  0  0  0  0  0
  185.2290  178.8330  140.0100 C   0  0  0  0  0  3  0  0  0  0  0  0
  189.1490  176.8020  138.8250 C   0  0  2  0  0  3  0  0  0  0  0  0
  190.1060  176.7860  144.7310 C   0  0  1  0  0  3  0  0  0  0  0  0
  191.0660  175.9130  144.0390 N   0  0  0  0  0  2  0  0  0  0  0  0
  182.1340  178.1300  137.1260 C   0  0  0  0  0  3  0  0  0  0  0  0
  184.3660  177.7640  138.0150 C   0  0  0  0  0  0  0  0  0  0  0  0
  183.4260  176.2240  136.3820 C   0  0  0  0  0  0  0  0  0  0  0  0
  183.1770  178.5210  137.9690 C   0  0  0  0  0  0  0  0  0  0  0  0
  183.0210  179.6610  138.7500 O   0  0  0  0  0  1  0  0  0  0  0  0
  182.2510  176.9900  136.3280 C   0  0  0  0  0  0  0  0  0  0  0  0
  184.4740  176.6160  137.2180 C   0  0  0  0  0  3  0  0  0  0  0  0
  183.5410  175.0830  135.6610 F   0  0  0  0  0  0  0  0  0  0  0  0
  181.0920  176.5910  135.4660 C   0  0  0  0  0  2  0  0  0  0  0  0
  178.9900  175.5710  135.3140 C   0  0  0  0  0  2  0  0  0  0  0  0
  179.5570  173.6610  136.6080 C   0  0  0  0  0  2  0  0  0  0  0  0
  180.5420  174.7730  136.8750 C   0  0  0  0  0  2  0  0  0  0  0  0
  178.9310  174.0560  135.3050 C   0  0  0  0  0  2  0  0  0  0  0  0
  180.0230  175.9900  136.2570 N   0  0  0  0  0  0  0  0  0  0  0  0
  190.6540  178.2010  144.9100 C   0  0  2  0  0  3  0  0  0  0  0  0
  192.0510  178.2090  144.8630 O   0  0  0  0  0  1  0  0  0  0  0  0
  190.2020  178.7470  146.1830 N   0  0  0  0  0  2  0  0  0  0  0  0
  187.0560  178.1810  147.9000 C   0  0  2  0  0  3  0  0  0  0  0  0
  189.3570  177.4040  148.0800 C   0  0  1  0  0  3  0  0  0  0  0  0
  187.9590  177.1880  148.6200 C   0  0  0  0  0  2  0  0  0  0  0  0
  189.1240  177.8880  146.6550 C   0  0  1  0  0  3  0  0  0  0  0  0
  186.6620  177.6390  146.5380 C   0  0  2  0  0  3  0  0  0  0  0  0
  189.9850  178.3990  148.8420 O   0  0  0  0  0  1  0  0  0  0  0  0
  187.8040  178.6340  146.6590 C   0  0  1  0  0  3  0  0  0  0  0  0
  185.3210  178.6080  144.6310 N   0  0  0  0  0  2  0  0  0  0  0  0
  184.1430  179.2460  144.0680 C   0  0  0  0  0  1  0  0  0  0  0  0
  184.5060  178.6280  146.8210 O   0  0  0  0  0  0  0  0  0  0  0  0
  185.4420  178.3330  146.0290 C   0  0  0  0  0  0  0  0  0  0  0  0
  189.4360  178.7220  137.2080 C   0  0  0  0  0  1  0  0  0  0  0  0
  190.1330  177.7910  138.1850 C   0  0  2  0  0  3  0  0  0  0  0  0
  192.4540  177.0900  137.8770 N   0  0  0  0  0  0  0  0  0  0  0  0
  193.3100  176.4120  136.9090 C   0  0  2  0  0  3  0  0  0  0  0  0
  191.0170  176.4150  136.2100 N   0  0  0  0  0  2  0  0  0  0  0  0
  191.2250  177.0710  137.4600 C   0  0  0  0  0  0  0  0  0  0  0  0
  192.3250  175.9910  135.8770 C   0  0  0  0  0  0  0  0  0  0  0  0
  192.6050  175.3860  134.8080 O   0  0  0  0  0  0  0  0  0  0  0  0
  194.3260  175.5470  138.8880 O   0  0  0  0  0  1  0  0  0  0  0  0
  194.0950  175.2500  137.5420 C   0  0  2  0  0  3  0  0  0  0  0  0
  195.2610  173.7060  135.9430 C   0  0  0  0  0  1  0  0  0  0  0  0
  195.4240  174.9230  136.8410 C   0  0  1  0  0  3  0  0  0  0  0  0
  195.8460  176.0020  136.0610 O   0  0  0  0  0  1  0  0  0  0  0  0
  2 14  1  0  0  0  0
  3 12  2  0  0  0  0
  4  8  2  0  0  0  0
  5  3  1  0  0  0  0
  5  9  2  0  0  0  0
  6  4  1  0  0  0  0
  6  1  2  0  0  0  0
  7 15  1  0  0  0  0
  8  7  1  0  0  0  0
  8  2  1  0  0  0  0
  9  6  1  0  0  0  0
 10  4  1  0  0  0  0
 11  1  1  0  0  0  0
 12 11  1  0  0  0  0
 13 45  1  1  0  0  0
 13  9  1  0  0  0  0
 13 10  1  0  0  0  0
 14 30  1  6  0  0  0
 15 14  1  0  0  0  0
 16 19  1  0  0  0  0
 17  3  1  0  0  0  0
 18 22  2  0  0  0  0
 19 17  2  0  0  0  0
 19 20  1  0  0  0  0
 21 18  1  0  0  0  0
 21 16  2  0  0  0  0
 22 17  1  0  0  0  0
 23 18  1  0  0  0  0
 24 29  1  0  0  0  0
 24 21  1  0  0  0  0
 25 29  1  0  0  0  0
 26 27  1  0  0  0  0
 28 25  1  0  0  0  0
 28 26  1  0  0  0  0
 29 27  1  0  0  0  0
 30 31  1  1  0  0  0
 30 32  1  0  0  0  0
 33 35  1  1  0  0  0
 34 35  1  0  0  0  0
 34 38  1  1  0  0  0
 36 32  1  1  0  0  0
 36 39  1  0  0  0  0
 36 34  1  0  0  0  0
 37 43  1  6  0  0  0
 37 39  1  0  0  0  0
 37 33  1  0  0  0  0
 39 33  1  0  0  0  0
 40 43  1  0  0  0  0
 41 40  1  0  0  0  0
 43 42  2  0  0  0  0
 44 45  1  0  0  0  0
 47 53  1  0  0  0  0
 47 46  1  0  0  0  0
 48 49  1  0  0  0  0
 49 46  2  0  0  0  0
 49 45  1  0  0  0  0
 50 48  1  0  0  0  0
 50 47  1  0  0  0  0
 51 50  2  0  0  0  0
 53 52  1  0  0  0  0
 54 55  1  0  0  0  0
 55 53  1  0  0  0  0
 56 55  1  0  0  0  0
M  END
>  <MODEL>
8

>  <REMARK>
 VINA RESULT:      -6.1      3.293      8.920
  Name = 
  11 active torsions:
  status: ('A' for Active; 'I' for Inactive)
    1  A    between atoms: C_4  and  C_41
    2  A    between atoms: C_4  and  N_56
    3  A    between atoms: C_7  and  C_22
    4  A    between atoms: C_9  and  C_47
    5  A    between atoms: C_9  and  N_48
    6  A    between atoms: C_10  and  C_32
    7  A    between atoms: C_23  and  N_48
    8  A    between atoms: C_29  and  C_32
    9  A    between atoms: C_31  and  C_37
   10  A    between atoms: C_37  and  C_45
   11  A    between atoms: C_39  and  C_52
                            x       y       z     vdW  Elec       q    Type
                         _______ _______ _______ _____ _____    ______ ____

>  <TORSDO>
F 11

$$$$
=
 OpenBabel11042413133D

 56 63  0  0  1  0  0  0  0  0999 V2000
  189.1110  176.5910  138.4930 C   0  0  0  0  0  3  0  0  0  0  0  0
  186.8980  178.7180  137.9480 S   0  0  0  0  0  0  0  0  0  0  0  0
  191.4080  174.8370  137.3290 C   0  0  0  0  0  0  0  0  0  0  0  0
  187.1890  176.1540  136.9540 C   0  0  0  0  0  0  0  0  0  0  0  0
  190.1700  174.1560  136.8720 C   0  0  0  0  0  3  0  0  0  0  0  0
  188.5030  175.8930  137.5330 C   0  0  0  0  0  0  0  0  0  0  0  0
  185.0750  177.3410  136.4990 C   0  0  0  0  0  2  0  0  0  0  0  0
  186.4420  177.2660  137.0510 C   0  0  1  0  0  3  0  0  0  0  0  0
  188.9110  174.5850  137.0260 C   0  0  0  0  0  0  0  0  0  0  0  0
  186.7540  175.0070  136.2250 N   0  0  0  0  0  0  0  0  0  0  0  0
  190.2980  176.0640  139.2290 C   0  0  0  0  0  2  0  0  0  0  0  0
  191.4480  175.7200  138.3360 C   0  0  0  0  0  3  0  0  0  0  0  0
  187.7560  173.9430  136.3080 C   0  0  2  0  0  3  0  0  0  0  0  0
  185.1290  178.9340  138.3070 C   0  0  1  0  0  3  0  0  0  0  0  0
  184.2770  178.2460  137.3250 N   0  0  0  0  0  2  0  0  0  0  0  0
  193.9530  173.1760  135.0570 C   0  0  0  0  0  3  0  0  0  0  0  0
  192.6590  174.5240  136.6110 C   0  0  0  0  0  0  0  0  0  0  0  0
  195.0020  175.0340  136.1990 C   0  0  0  0  0  0  0  0  0  0  0  0
  192.7470  173.4430  135.7100 C   0  0  0  0  0  0  0  0  0  0  0  0
  191.6470  172.6310  135.4520 O   0  0  0  0  0  1  0  0  0  0  0  0
  195.0810  173.9670  135.2920 C   0  0  0  0  0  0  0  0  0  0  0  0
  193.7950  175.3090  136.8480 C   0  0  0  0  0  3  0  0  0  0  0  0
  196.0960  175.7800  136.4850 F   0  0  0  0  0  0  0  0  0  0  0  0
  196.3610  173.6210  134.5940 C   0  0  0  0  0  2  0  0  0  0  0  0
  198.3500  172.9800  135.6490 C   0  0  0  0  0  2  0  0  0  0  0  0
  197.3130  172.0860  137.5910 C   0  0  0  0  0  2  0  0  0  0  0  0
  196.3080  172.1820  136.4700 C   0  0  0  0  0  2  0  0  0  0  0  0
  198.4020  173.0240  137.1630 C   0  0  0  0  0  2  0  0  0  0  0  0
  197.0330  172.4990  135.2430 N   0  0  0  0  0  0  0  0  0  0  0  0
  184.8050  178.5030  139.7370 C   0  0  2  0  0  3  0  0  0  0  0  0
  183.4580  178.7240  140.0360 O   0  0  0  0  0  1  0  0  0  0  0  0
  185.6440  179.2370  140.6750 N   0  0  0  0  0  2  0  0  0  0  0  0
  187.4120  178.3480  143.7160 C   0  0  2  0  0  3  0  0  0  0  0  0
  187.5740  177.8420  141.3410 C   0  0  1  0  0  3  0  0  0  0  0  0
  188.1370  177.4780  142.6980 C   0  0  0  0  0  2  0  0  0  0  0  0
  186.1440  178.2690  141.6430 C   0  0  1  0  0  3  0  0  0  0  0  0
  186.0650  177.7390  144.0620 C   0  0  2  0  0  3  0  0  0  0  0  0
  188.3110  178.9160  140.8210 O   0  0  0  0  0  1  0  0  0  0  0  0
  186.1530  178.8600  143.0390 C   0  0  1  0  0  3  0  0  0  0  0  0
  186.4670  178.4480  146.4510 N   0  0  0  0  0  2  0  0  0  0  0  0
  186.0470  179.0050  147.7250 C   0  0  0  0  0  1  0  0  0  0  0  0
  184.3550  178.6330  145.4700 O   0  0  0  0  0  0  0  0  0  0  0  0
  185.5600  178.2800  145.3590 C   0  0  0  0  0  0  0  0  0  0  0  0
  187.9600  171.4770  136.8200 C   0  0  0  0  0  1  0  0  0  0  0  0
  187.1880  172.7560  137.0970 C   0  0  2  0  0  3  0  0  0  0  0  0
  184.7930  172.8780  137.5660 N   0  0  0  0  0  0  0  0  0  0  0  0
  183.5140  172.4180  137.0350 C   0  0  2  0  0  3  0  0  0  0  0  0
  185.3350  171.8070  135.6010 N   0  0  0  0  0  2  0  0  0  0  0  0
  185.7490  172.5260  136.7620 C   0  0  0  0  0  0  0  0  0  0  0  0
  183.9310  171.7550  135.7700 C   0  0  0  0  0  0  0  0  0  0  0  0
  183.1590  171.1670  134.9680 O   0  0  0  0  0  0  0  0  0  0  0  0
  182.7670  174.5480  137.8100 O   0  0  0  0  0  1  0  0  0  0  0  0
  182.5150  173.5730  136.8410 C   0  0  2  0  0  3  0  0  0  0  0  0
  180.8770  171.8850  137.7190 C   0  0  0  0  0  1  0  0  0  0  0  0
  181.0370  173.1520  136.8920 C   0  0  1  0  0  3  0  0  0  0  0  0
  180.2580  174.1610  137.4620 O   0  0  0  0  0  1  0  0  0  0  0  0
  1 11  1  0  0  0  0
  2 14  1  0  0  0  0
  3 12  2  0  0  0  0
  4  6  1  0  0  0  0
  5  9  2  0  0  0  0
  5  3  1  0  0  0  0
  6  1  2  0  0  0  0
  7  8  1  0  0  0  0
  7 15  1  0  0  0  0
  8  4  1  1  0  0  0
  8  2  1  0  0  0  0
  9  6  1  0  0  0  0
 10 13  1  0  0  0  0
 10  4  2  0  0  0  0
 12 11  1  0  0  0  0
 13  9  1  0  0  0  0
 13 45  1  1  0  0  0
 14 30  1  1  0  0  0
 15 14  1  0  0  0  0
 16 21  2  0  0  0  0
 16 19  1  0  0  0  0
 17 22  1  0  0  0  0
 17  3  1  0  0  0  0
 18 23  1  0  0  0  0
 18 22  2  0  0  0  0
 19 17  2  0  0  0  0
 20 19  1  0  0  0  0
 21 18  1  0  0  0  0
 24 29  1  0  0  0  0
 24 21  1  0  0  0  0
 25 28  1  0  0  0  0
 27 26  1  0  0  0  0
 28 26  1  0  0  0  0
 29 25  1  0  0  0  0
 29 27  1  0  0  0  0
 30 31  1  1  0  0  0
 30 32  1  0  0  0  0
 33 35  1  6  0  0  0
 33 37  1  0  0  0  0
 34 38  1  1  0  0  0
 34 36  1  0  0  0  0
 34 35  1  0  0  0  0
 36 32  1  6  0  0  0
 36 39  1  0  0  0  0
 37 43  1  1  0  0  0
 39 33  1  0  0  0  0
 39 37  1  0  0  0  0
 40 41  1  0  0  0  0
 43 42  2  0  0  0  0
 43 40  1  0  0  0  0
 44 45  1  0  0  0  0
 47 46  1  0  0  0  0
 48 50  1  0  0  0  0
 48 49  1  0  0  0  0
 49 45  1  0  0  0  0
 49 46  2  0  0  0  0
 50 47  1  0  0  0  0
 51 50  2  0  0  0  0
 53 55  1  0  0  0  0
 53 47  1  0  0  0  0
 53 52  1  0  0  0  0
 55 56  1  0  0  0  0
 55 54  1  0  0  0  0
M  END
>  <MODEL>
9

>  <REMARK>
 VINA RESULT:      -5.9      4.298     12.101
  Name = 
  11 active torsions:
  status: ('A' for Active; 'I' for Inactive)
    1  A    between atoms: C_4  and  C_41
    2  A    between atoms: C_4  and  N_56
    3  A    between atoms: C_7  and  C_22
    4  A    between atoms: C_9  and  C_47
    5  A    between atoms: C_9  and  N_48
    6  A    between atoms: C_10  and  C_32
    7  A    between atoms: C_23  and  N_48
    8  A    between atoms: C_29  and  C_32
    9  A    between atoms: C_31  and  C_37
   10  A    between atoms: C_37  and  C_45
   11  A    between atoms: C_39  and  C_52
                            x       y       z     vdW  Elec       q    Type
                         _______ _______ _______ _____ _____    ______ ____

>  <TORSDO>
F 11

$$$$
