=
 OpenBabel11042410133D

 65 68  0  0  1  0  0  0  0  0999 V2000
  190.6710  177.1670  142.1590 C   0  0  1  0  0  3  0  0  0  0  0  0
  191.8700  177.2200  141.2050 C   0  0  0  0  0  2  0  0  0  0  0  0
  191.4600  177.4320  139.7510 C   0  0  0  0  0  2  0  0  0  0  0  0
  192.5130  176.9010  138.7890 C   0  0  0  0  0  2  0  0  0  0  0  0
  194.0660  174.4140  137.5320 C   0  0  0  0  0  3  0  0  0  0  0  0
  191.3870  171.8820  135.4600 O   0  0  0  0  0  1  0  0  0  0  0  0
  192.2640  172.7420  136.1090 C   0  0  0  0  0  0  0  0  0  0  0  0
  190.5790  174.4620  136.7780 N   0  0  0  0  0  0  0  0  0  0  0  0
  191.9940  175.7680  137.9600 C   0  0  0  0  0  0  0  0  0  0  0  0
  194.5250  173.2490  136.8960 C   0  0  0  0  0  3  0  0  0  0  0  0
  194.1110  171.2580  135.5920 O   0  0  0  0  0  1  0  0  0  0  0  0
  187.3380  173.7470  135.7210 C   0  0  0  0  0  0  0  0  0  0  0  0
  190.6820  175.5760  137.5490 C   0  0  0  0  0  0  0  0  0  0  0  0
  191.8280  173.9300  136.7200 C   0  0  0  0  0  0  0  0  0  0  0  0
  189.3810  174.0360  136.1080 C   0  0  0  0  0  0  0  0  0  0  0  0
  188.0470  173.3450  134.6010 C   0  0  0  0  0  3  0  0  0  0  0  0
  193.6330  172.4150  136.1940 C   0  0  0  0  0  0  0  0  0  0  0  0
  189.3580  173.5290  134.8580 N   0  0  0  0  0  0  0  0  0  0  0  0
  188.1850  174.1760  136.6240 O   0  0  0  0  0  0  0  0  0  0  0  0
  192.7090  174.7160  137.4300 C   0  0  0  0  0  0  0  0  0  0  0  0
  185.3670  175.2030  135.9960 C   0  0  0  0  0  1  0  0  0  0  0  0
  185.1610  173.1140  134.6910 C   0  0  0  0  0  1  0  0  0  0  0  0
  185.8420  173.7670  135.8810 C   0  0  0  0  0  0  0  0  0  0  0  0
  185.4360  173.0150  137.1370 C   0  0  0  0  0  1  0  0  0  0  0  0
  189.5650  176.5360  137.8060 C   0  0  0  0  0  2  0  0  0  0  0  0
  188.5450  178.6630  137.0650 C   0  0  0  0  0  1  0  0  0  0  0  0
  189.4530  177.5210  136.6590 C   0  0  0  0  0  2  0  0  0  0  0  0
  190.7630  178.2280  143.2550 C   0  0  0  0  0  2  0  0  0  0  0  0
  189.4150  178.5230  143.9130 C   0  0  0  0  0  2  0  0  0  0  0  0
  189.0070  177.4340  144.9050 C   0  0  2  0  0  3  0  0  0  0  0  0
  187.6220  176.9040  144.5500 C   0  0  0  0  0  1  0  0  0  0  0  0
  190.3560  177.7850  146.8810 O   0  0  0  0  0  1  0  0  0  0  0  0
  189.0660  177.9170  146.3590 C   0  0  2  0  0  3  0  0  0  0  0  0
  188.0810  177.2090  147.2440 C   0  0  0  0  0  0  0  0  0  0  0  0
  186.7440  177.6850  147.4490 N   0  0  0  0  0  2  0  0  0  0  0  0
  188.4510  176.1620  147.8380 O   0  0  0  0  0  0  0  0  0  0  0  0
  186.1770  178.8690  146.8140 C   0  0  2  0  0  3  0  0  0  0  0  0
  186.2330  180.0270  147.7930 C   0  0  0  0  0  1  0  0  0  0  0  0
  184.8470  178.6240  146.4580 O   0  0  0  0  0  0  0  0  0  0  0  0
  184.7290  179.0910  145.1480 C   0  0  0  0  0  1  0  0  0  0  0  0
  189.3190  177.1660  141.4500 C   0  0  0  0  0  2  0  0  0  0  0  0
  188.8830  178.5320  141.2030 N   0  0  0  0  0  2  0  0  0  0  0  0
  187.5640  178.4680  140.5880 C   0  0  0  0  0  2  0  0  0  0  0  0
  186.5890  178.2590  141.5660 O   0  0  0  0  0  0  0  0  0  0  0  0
  185.6840  179.3070  141.3990 C   0  0  0  0  0  2  0  0  0  0  0  0
  183.2630  179.6900  138.8380 N   0  0  0  0  0  2  0  0  0  0  0  0
  182.2660  179.3800  139.8520 C   0  0  2  0  0  3  0  0  0  0  0  0
  183.0960  178.4810  141.1790 S   0  0  0  0  0  0  0  0  0  0  0  0
  184.4040  180.0070  139.5020 O   0  0  0  0  0  0  0  0  0  0  0  0
  184.6460  178.9260  140.3590 C   0  0  1  0  0  3  0  0  0  0  0  0
  181.1100  178.5660  139.2660 C   0  0  2  0  0  3  0  0  0  0  0  0
  180.1330  181.2340  139.1590 O   0  0  0  0  0  0  0  0  0  0  0  0
  180.5800  179.2190  138.0740 N   0  0  0  0  0  2  0  0  0  0  0  0
  180.1670  180.5880  138.0750 C   0  0  0  0  0  0  0  0  0  0  0  0
  179.8110  181.2500  136.7750 C   0  0  2  0  0  3  0  0  0  0  0  0
  180.3140  179.5130  135.0700 C   0  0  0  0  0  1  0  0  0  0  0  0
  180.7900  180.8130  135.6970 C   0  0  0  0  0  2  0  0  0  0  0  0
  179.8150  182.7740  136.9000 C   0  0  0  0  0  2  0  0  0  0  0  0
  180.4880  183.4320  135.7020 C   0  0  0  0  0  2  0  0  0  0  0  0
  181.8550  184.6830  137.2130 O   0  0  0  0  0  1  0  0  0  0  0  0
  181.0680  184.7890  136.0650 C   0  0  0  0  0  2  0  0  0  0  0  0
  180.3160  178.9850  141.5090 O   0  0  0  0  0  1  0  0  0  0  0  0
  179.9960  178.3600  140.3020 C   0  0  2  0  0  3  0  0  0  0  0  0
  180.7210  175.9710  139.9080 C   0  0  0  0  0  1  0  0  0  0  0  0
  179.6850  176.8840  140.5440 C   0  0  0  0  0  2  0  0  0  0  0  0
  1  2  1  6  0  0  0
  1 28  1  0  0  0  0
  3  2  1  0  0  0  0
  4  3  1  0  0  0  0
  6  7  1  0  0  0  0
  7 17  2  0  0  0  0
  7 14  1  0  0  0  0
  8 13  1  0  0  0  0
  9  4  1  0  0  0  0
 10  5  2  0  0  0  0
 11 17  1  0  0  0  0
 12 23  1  0  0  0  0
 12 19  1  0  0  0  0
 13 25  1  0  0  0  0
 13  9  2  0  0  0  0
 14  8  1  0  0  0  0
 14 20  2  0  0  0  0
 15 19  1  0  0  0  0
 15  8  1  0  0  0  0
 16 18  1  0  0  0  0
 16 12  2  0  0  0  0
 17 10  1  0  0  0  0
 18 15  2  0  0  0  0
 20  5  1  0  0  0  0
 20  9  1  0  0  0  0
 22 23  1  0  0  0  0
 23 21  1  0  0  0  0
 23 24  1  0  0  0  0
 27 26  1  0  0  0  0
 27 25  1  0  0  0  0
 28 29  1  0  0  0  0
 29 30  1  0  0  0  0
 30 31  1  6  0  0  0
 30 33  1  0  0  0  0
 33 32  1  1  0  0  0
 33 34  1  0  0  0  0
 34 35  1  0  0  0  0
 34 36  2  0  0  0  0
 37 35  1  0  0  0  0
 37 38  1  1  0  0  0
 39 37  1  0  0  0  0
 40 39  1  0  0  0  0
 41  1  1  0  0  0  0
 42 41  1  0  0  0  0
 43 42  1  0  0  0  0
 43 44  1  0  0  0  0
 45 44  1  0  0  0  0
 46 49  1  0  0  0  0
 46 47  1  0  0  0  0
 47 51  1  6  0  0  0
 47 48  1  0  0  0  0
 49 50  1  0  0  0  0
 50 48  1  0  0  0  0
 50 45  1  1  0  0  0
 51 53  1  6  0  0  0
 51 63  1  0  0  0  0
 53 54  1  0  0  0  0
 54 52  2  0  0  0  0
 55 57  1  6  0  0  0
 55 58  1  0  0  0  0
 55 54  1  0  0  0  0
 56 57  1  0  0  0  0
 59 61  1  0  0  0  0
 59 58  1  0  0  0  0
 61 60  1  0  0  0  0
 63 65  1  0  0  0  0
 63 62  1  1  0  0  0
 64 65  1  0  0  0  0
M  END
>  <MODEL>
1

>  <REMARK>
 VINA RESULT:      -6.3      0.000      0.000
  Name = 
  29 active torsions:
  status: ('A' for Active; 'I' for Inactive)
    1  A    between atoms: N_1  and  C_23
    2  A    between atoms: N_1  and  C_41
    3  A    between atoms: C_2  and  N_15
    4  A    between atoms: C_2  and  O_25
    5  A    between atoms: C_4  and  C_60
    6  A    between atoms: C_5  and  C_6
    7  A    between atoms: C_5  and  C_12
    8  A    between atoms: C_5  and  C_23
    9  A    between atoms: C_6  and  C_14
   10  A    between atoms: C_11  and  C_49
   11  A    between atoms: C_12  and  C_40
   12  A    between atoms: C_14  and  C_43
   13  A    between atoms: C_19  and  C_21
   14  A    between atoms: C_19  and  C_58
   15  A    between atoms: C_21  and  C_26
   16  A    between atoms: N_22  and  C_49
   17  A    between atoms: C_27  and  C_43
   18  A    between atoms: C_29  and  C_40
   19  A    between atoms: C_29  and  C_60
   20  A    between atoms: C_33  and  C_47
   21  A    between atoms: C_36  and  C_56
   22  A    between atoms: C_37  and  O_46
   23  A    between atoms: C_37  and  C_65
   24  A    between atoms: C_41  and  O_46
   25  A    between atoms: C_45  and  C_56
   26  A    between atoms: C_49  and  C_52
   27  A    between atoms: C_52  and  C_64
   28  A    between atoms: C_58  and  C_61
   29  A    between atoms: C_58  and  C_62
                            x       y       z     vdW  Elec       q    Type
                         _______ _______ _______ _____ _____    ______ ____

>  <TORSDO>
F 29

$$$$
=
 OpenBabel11042410133D

 65 68  0  0  1  0  0  0  0  0999 V2000
  189.8410  176.5230  137.8470 C   0  0  1  0  0  3  0  0  0  0  0  0
  188.5010  176.5980  137.1040 C   0  0  0  0  0  2  0  0  0  0  0  0
  188.5720  177.4530  135.8430 C   0  0  0  0  0  2  0  0  0  0  0  0
  188.2830  176.6330  134.5940 C   0  0  0  0  0  2  0  0  0  0  0  0
  189.0020  173.5660  135.0990 C   0  0  0  0  0  3  0  0  0  0  0  0
  185.5010  171.3280  135.8820 O   0  0  0  0  0  1  0  0  0  0  0  0
  186.6390  172.0650  135.5830 C   0  0  0  0  0  0  0  0  0  0  0  0
  185.5050  174.2600  135.2120 N   0  0  0  0  0  0  0  0  0  0  0  0
  187.3810  175.4730  134.8810 C   0  0  0  0  0  0  0  0  0  0  0  0
  189.0730  172.1880  135.3540 C   0  0  0  0  0  3  0  0  0  0  0  0
  188.0060  170.0820  135.8710 O   0  0  0  0  0  1  0  0  0  0  0  0
  182.0420  174.1380  135.5810 C   0  0  0  0  0  0  0  0  0  0  0  0
  185.9970  175.5050  134.9770 C   0  0  0  0  0  0  0  0  0  0  0  0
  186.5830  173.4390  135.2900 C   0  0  0  0  0  0  0  0  0  0  0  0
  184.1070  173.9280  135.2610 C   0  0  0  0  0  0  0  0  0  0  0  0
  182.2540  172.9360  134.9270 C   0  0  0  0  0  3  0  0  0  0  0  0
  187.9030  171.4410  135.6000 C   0  0  0  0  0  0  0  0  0  0  0  0
  183.5810  172.8050  134.7280 N   0  0  0  0  0  0  0  0  0  0  0  0
  183.1980  174.7280  135.7620 O   0  0  0  0  0  0  0  0  0  0  0  0
  187.7410  174.1590  135.0850 C   0  0  0  0  0  0  0  0  0  0  0  0
  179.9970  175.2180  134.7280 C   0  0  0  0  0  1  0  0  0  0  0  0
  179.8490  173.7010  136.6740 C   0  0  0  0  0  1  0  0  0  0  0  0
  180.7160  174.7310  135.9710 C   0  0  0  0  0  0  0  0  0  0  0  0
  180.9200  175.9070  136.9110 C   0  0  0  0  0  1  0  0  0  0  0  0
  185.1580  176.7150  134.7210 C   0  0  0  0  0  2  0  0  0  0  0  0
  184.7980  177.0080  137.1490 C   0  0  0  0  0  1  0  0  0  0  0  0
  185.2750  177.6840  135.8810 C   0  0  0  0  0  2  0  0  0  0  0  0
  191.0250  176.8180  136.9270 C   0  0  0  0  0  2  0  0  0  0  0  0
  192.0990  175.7320  136.9720 C   0  0  0  0  0  2  0  0  0  0  0  0
  192.8910  175.6500  135.6660 C   0  0  2  0  0  3  0  0  0  0  0  0
  192.0520  174.9610  134.5950 C   0  0  0  0  0  1  0  0  0  0  0  0
  195.1130  175.2610  134.7950 O   0  0  0  0  0  1  0  0  0  0  0  0
  194.2460  174.9550  135.8480 C   0  0  2  0  0  3  0  0  0  0  0  0
  194.1190  173.4660  135.9900 C   0  0  0  0  0  0  0  0  0  0  0  0
  195.0090  172.6870  136.8000 N   0  0  0  0  0  2  0  0  0  0  0  0
  193.1990  172.8790  135.3600 O   0  0  0  0  0  0  0  0  0  0  0  0
  196.1030  173.2340  137.5940 C   0  0  2  0  0  3  0  0  0  0  0  0
  197.3530  172.4120  137.3410 C   0  0  0  0  0  1  0  0  0  0  0  0
  195.7750  173.1780  138.9530 O   0  0  0  0  0  0  0  0  0  0  0  0
  195.8870  174.4920  139.4080 C   0  0  0  0  0  1  0  0  0  0  0  0
  189.8760  177.3410  139.1360 C   0  0  0  0  0  2  0  0  0  0  0  0
  191.2260  177.3560  139.6810 N   0  0  0  0  0  2  0  0  0  0  0  0
  191.1990  176.6280  140.9410 C   0  0  0  0  0  2  0  0  0  0  0  0
  192.4690  176.6310  141.5240 O   0  0  0  0  0  0  0  0  0  0  0  0
  192.5200  177.8100  142.2660 C   0  0  0  0  0  2  0  0  0  0  0  0
  190.1480  179.1600  144.5300 N   0  0  0  0  0  2  0  0  0  0  0  0
  190.2250  177.8880  145.2330 C   0  0  2  0  0  3  0  0  0  0  0  0
  190.8340  176.6520  144.0680 S   0  0  0  0  0  0  0  0  0  0  0  0
  191.2330  179.2150  143.7140 O   0  0  0  0  0  0  0  0  0  0  0  0
  191.1880  178.0370  142.9580 C   0  0  1  0  0  3  0  0  0  0  0  0
  188.8640  177.4880  145.8090 C   0  0  2  0  0  3  0  0  0  0  0  0
  187.8950  176.0570  143.5520 O   0  0  0  0  0  0  0  0  0  0  0  0
  187.7870  177.9340  144.9310 N   0  0  0  0  0  2  0  0  0  0  0  0
  187.3050  177.1310  143.8510 C   0  0  0  0  0  0  0  0  0  0  0  0
  186.0730  177.5620  143.1070 C   0  0  2  0  0  3  0  0  0  0  0  0
  187.6130  179.0020  141.7890 C   0  0  0  0  0  1  0  0  0  0  0  0
  186.4570  178.0190  141.7080 C   0  0  0  0  0  2  0  0  0  0  0  0
  185.3360  178.6820  143.8400 C   0  0  0  0  0  2  0  0  0  0  0  0
  183.8590  178.7190  143.4660 C   0  0  0  0  0  2  0  0  0  0  0  0
  183.3980  178.9720  145.7990 O   0  0  0  0  0  1  0  0  0  0  0  0
  183.0330  179.4240  144.5300 C   0  0  0  0  0  2  0  0  0  0  0  0
  189.7060  177.6530  148.0670 O   0  0  0  0  0  1  0  0  0  0  0  0
  188.6710  178.0570  147.2220 C   0  0  2  0  0  3  0  0  0  0  0  0
  186.2340  178.6810  147.4750 C   0  0  0  0  0  1  0  0  0  0  0  0
  187.3210  177.6770  147.8290 C   0  0  0  0  0  2  0  0  0  0  0  0
  1 28  1  6  0  0  0
  1 41  1  0  0  0  0
  2  1  1  0  0  0  0
  3  2  1  0  0  0  0
  4  9  1  0  0  0  0
  4  3  1  0  0  0  0
  5 10  1  0  0  0  0
  7 17  1  0  0  0  0
  7  6  1  0  0  0  0
  8 15  1  0  0  0  0
  8 14  1  0  0  0  0
  9 13  2  0  0  0  0
  9 20  1  0  0  0  0
 10 17  2  0  0  0  0
 12 19  1  0  0  0  0
 12 23  1  0  0  0  0
 13  8  1  0  0  0  0
 14  7  2  0  0  0  0
 15 19  1  0  0  0  0
 16 12  2  0  0  0  0
 17 11  1  0  0  0  0
 18 16  1  0  0  0  0
 18 15  2  0  0  0  0
 20  5  2  0  0  0  0
 20 14  1  0  0  0  0
 21 23  1  0  0  0  0
 23 22  1  0  0  0  0
 23 24  1  0  0  0  0
 25 13  1  0  0  0  0
 25 27  1  0  0  0  0
 27 26  1  0  0  0  0
 28 29  1  0  0  0  0
 30 31  1  6  0  0  0
 30 33  1  0  0  0  0
 30 29  1  0  0  0  0
 33 32  1  6  0  0  0
 33 34  1  0  0  0  0
 34 35  1  0  0  0  0
 35 37  1  0  0  0  0
 36 34  2  0  0  0  0
 37 38  1  1  0  0  0
 37 39  1  0  0  0  0
 39 40  1  0  0  0  0
 41 42  1  0  0  0  0
 42 43  1  0  0  0  0
 43 44  1  0  0  0  0
 44 45  1  0  0  0  0
 46 47  1  0  0  0  0
 47 51  1  6  0  0  0
 48 47  1  0  0  0  0
 49 46  1  0  0  0  0
 50 45  1  1  0  0  0
 50 49  1  0  0  0  0
 50 48  1  0  0  0  0
 51 53  1  6  0  0  0
 51 63  1  0  0  0  0
 52 54  2  0  0  0  0
 54 53  1  0  0  0  0
 55 57  1  6  0  0  0
 55 58  1  0  0  0  0
 55 54  1  0  0  0  0
 57 56  1  0  0  0  0
 59 58  1  0  0  0  0
 59 61  1  0  0  0  0
 61 60  1  0  0  0  0
 63 65  1  0  0  0  0
 63 62  1  1  0  0  0
 64 65  1  0  0  0  0
M  END
>  <MODEL>
2

>  <REMARK>
 VINA RESULT:      -5.5      3.741      8.709
  Name = 
  29 active torsions:
  status: ('A' for Active; 'I' for Inactive)
    1  A    between atoms: N_1  and  C_23
    2  A    between atoms: N_1  and  C_41
    3  A    between atoms: C_2  and  N_15
    4  A    between atoms: C_2  and  O_25
    5  A    between atoms: C_4  and  C_60
    6  A    between atoms: C_5  and  C_6
    7  A    between atoms: C_5  and  C_12
    8  A    between atoms: C_5  and  C_23
    9  A    between atoms: C_6  and  C_14
   10  A    between atoms: C_11  and  C_49
   11  A    between atoms: C_12  and  C_40
   12  A    between atoms: C_14  and  C_43
   13  A    between atoms: C_19  and  C_21
   14  A    between atoms: C_19  and  C_58
   15  A    between atoms: C_21  and  C_26
   16  A    between atoms: N_22  and  C_49
   17  A    between atoms: C_27  and  C_43
   18  A    between atoms: C_29  and  C_40
   19  A    between atoms: C_29  and  C_60
   20  A    between atoms: C_33  and  C_47
   21  A    between atoms: C_36  and  C_56
   22  A    between atoms: C_37  and  O_46
   23  A    between atoms: C_37  and  C_65
   24  A    between atoms: C_41  and  O_46
   25  A    between atoms: C_45  and  C_56
   26  A    between atoms: C_49  and  C_52
   27  A    between atoms: C_52  and  C_64
   28  A    between atoms: C_58  and  C_61
   29  A    between atoms: C_58  and  C_62
                            x       y       z     vdW  Elec       q    Type
                         _______ _______ _______ _____ _____    ______ ____

>  <TORSDO>
F 29

$$$$
=
 OpenBabel11042410133D

 65 68  0  0  1  0  0  0  0  0999 V2000
  189.3930  176.3710  138.1950 C   0  0  1  0  0  3  0  0  0  0  0  0
  188.0510  176.3470  137.4530 C   0  0  0  0  0  2  0  0  0  0  0  0
  187.7980  177.6180  136.6490 C   0  0  0  0  0  2  0  0  0  0  0  0
  186.7270  177.4050  135.5880 C   0  0  0  0  0  2  0  0  0  0  0  0
  187.4010  174.3270  135.0930 C   0  0  0  0  0  3  0  0  0  0  0  0
  184.2090  171.8780  136.3940 O   0  0  0  0  0  1  0  0  0  0  0  0
  185.2340  172.6940  135.9330 C   0  0  0  0  0  0  0  0  0  0  0  0
  184.1600  174.8840  136.4760 N   0  0  0  0  0  0  0  0  0  0  0  0
  185.9000  176.1880  135.8630 C   0  0  0  0  0  0  0  0  0  0  0  0
  187.4750  172.9300  134.9770 C   0  0  0  0  0  3  0  0  0  0  0  0
  186.5120  170.7350  135.2900 O   0  0  0  0  0  1  0  0  0  0  0  0
  180.9890  174.5880  137.8890 C   0  0  0  0  0  0  0  0  0  0  0  0
  184.6210  176.1600  136.3990 C   0  0  0  0  0  0  0  0  0  0  0  0
  185.1630  174.0960  136.0080 C   0  0  0  0  0  0  0  0  0  0  0  0
  182.8340  174.5140  136.8870 C   0  0  0  0  0  0  0  0  0  0  0  0
  180.9190  173.5870  136.9350 C   0  0  0  0  0  3  0  0  0  0  0  0
  186.4030  172.1160  135.3980 C   0  0  0  0  0  0  0  0  0  0  0  0
  182.1070  173.5420  136.2990 N   0  0  0  0  0  0  0  0  0  0  0  0
  182.1740  175.1460  137.8270 O   0  0  0  0  0  0  0  0  0  0  0  0
  186.2340  174.8730  135.6230 C   0  0  0  0  0  0  0  0  0  0  0  0
  179.1120  176.1630  138.1570 C   0  0  0  0  0  1  0  0  0  0  0  0
  178.9370  173.8900  139.1120 C   0  0  0  0  0  1  0  0  0  0  0  0
  179.8880  175.0350  138.8100 C   0  0  0  0  0  0  0  0  0  0  0  0
  180.4670  175.5350  140.1220 C   0  0  0  0  0  1  0  0  0  0  0  0
  183.8100  177.3750  136.7200 C   0  0  0  0  0  2  0  0  0  0  0  0
  183.1230  178.9380  138.5070 C   0  0  0  0  0  1  0  0  0  0  0  0
  184.0610  177.8050  138.1510 C   0  0  0  0  0  2  0  0  0  0  0  0
  190.4730  177.1070  137.4030 C   0  0  0  0  0  2  0  0  0  0  0  0
  191.8530  176.4640  137.5390 C   0  0  0  0  0  2  0  0  0  0  0  0
  192.3590  175.9000  136.2110 C   0  0  2  0  0  3  0  0  0  0  0  0
  191.2980  176.0850  135.1320 C   0  0  0  0  0  1  0  0  0  0  0  0
  192.9270  174.0520  137.6640 O   0  0  0  0  0  1  0  0  0  0  0  0
  192.7910  174.4330  136.3270 C   0  0  2  0  0  3  0  0  0  0  0  0
  194.0630  174.1440  135.5810 C   0  0  0  0  0  0  0  0  0  0  0  0
  194.8090  172.9340  135.7650 N   0  0  0  0  0  2  0  0  0  0  0  0
  194.4940  175.0070  134.7720 O   0  0  0  0  0  0  0  0  0  0  0  0
  194.4190  171.8440  136.6520 C   0  0  2  0  0  3  0  0  0  0  0  0
  195.5460  171.5830  137.6340 C   0  0  0  0  0  1  0  0  0  0  0  0
  194.1760  170.6880  135.9030 O   0  0  0  0  0  0  0  0  0  0  0  0
  194.5210  169.6300  136.7460 C   0  0  0  0  0  1  0  0  0  0  0  0
  189.2890  176.8520  139.6400 C   0  0  0  0  0  2  0  0  0  0  0  0
  190.6070  177.2050  140.1450 N   0  0  0  0  0  2  0  0  0  0  0  0
  190.8670  176.3750  141.3130 C   0  0  0  0  0  2  0  0  0  0  0  0
  192.1360  176.6550  141.8280 O   0  0  0  0  0  0  0  0  0  0  0  0
  192.0650  177.9830  142.2490 C   0  0  0  0  0  2  0  0  0  0  0  0
  190.1720  178.9700  145.0800 N   0  0  0  0  0  2  0  0  0  0  0  0
  190.1560  177.5640  145.4520 C   0  0  2  0  0  3  0  0  0  0  0  0
  190.4560  176.5970  143.9580 S   0  0  0  0  0  0  0  0  0  0  0  0
  191.1530  179.1130  144.1510 O   0  0  0  0  0  0  0  0  0  0  0  0
  190.8640  178.1690  143.1580 C   0  0  1  0  0  3  0  0  0  0  0  0
  188.8280  177.1770  146.1080 C   0  0  2  0  0  3  0  0  0  0  0  0
  186.5580  177.0500  144.4030 O   0  0  0  0  0  0  0  0  0  0  0  0
  187.8460  178.2410  145.9380 N   0  0  0  0  0  2  0  0  0  0  0  0
  186.6890  178.0840  145.1140 C   0  0  0  0  0  0  0  0  0  0  0  0
  185.6230  179.1430  145.1320 C   0  0  2  0  0  3  0  0  0  0  0  0
  184.7580  178.1510  147.2410 C   0  0  0  0  0  1  0  0  0  0  0  0
  184.3880  178.6090  145.8400 C   0  0  0  0  0  2  0  0  0  0  0  0
  185.2610  179.6010  143.7190 C   0  0  0  0  0  2  0  0  0  0  0  0
  184.4600  178.5400  142.9750 C   0  0  0  0  0  2  0  0  0  0  0  0
  182.4270  178.1690  141.7710 O   0  0  0  0  0  1  0  0  0  0  0  0
  183.0350  179.0010  142.7120 C   0  0  0  0  0  2  0  0  0  0  0  0
  187.9780  177.3910  148.3600 O   0  0  0  0  0  1  0  0  0  0  0  0
  189.0190  176.8580  147.5980 C   0  0  2  0  0  3  0  0  0  0  0  0
  191.5210  176.4970  147.6320 C   0  0  0  0  0  1  0  0  0  0  0  0
  190.3640  177.3460  148.1360 C   0  0  0  0  0  2  0  0  0  0  0  0
  1 28  1  6  0  0  0
  1 41  1  0  0  0  0
  2  1  1  0  0  0  0
  3  2  1  0  0  0  0
  4  9  1  0  0  0  0
  4  3  1  0  0  0  0
  5 20  1  0  0  0  0
  7 14  1  0  0  0  0
  7  6  1  0  0  0  0
  8 15  1  0  0  0  0
  9 13  2  0  0  0  0
 10  5  2  0  0  0  0
 10 17  1  0  0  0  0
 11 17  1  0  0  0  0
 12 23  1  0  0  0  0
 13  8  1  0  0  0  0
 13 25  1  0  0  0  0
 14  8  1  0  0  0  0
 15 19  1  0  0  0  0
 16 12  2  0  0  0  0
 17  7  2  0  0  0  0
 18 15  2  0  0  0  0
 18 16  1  0  0  0  0
 19 12  1  0  0  0  0
 20  9  1  0  0  0  0
 20 14  2  0  0  0  0
 21 23  1  0  0  0  0
 23 22  1  0  0  0  0
 23 24  1  0  0  0  0
 25 27  1  0  0  0  0
 27 26  1  0  0  0  0
 28 29  1  0  0  0  0
 30 31  1  6  0  0  0
 30 33  1  0  0  0  0
 30 29  1  0  0  0  0
 33 32  1  1  0  0  0
 34 35  1  0  0  0  0
 34 33  1  0  0  0  0
 35 37  1  0  0  0  0
 36 34  2  0  0  0  0
 37 38  1  1  0  0  0
 39 37  1  0  0  0  0
 39 40  1  0  0  0  0
 41 42  1  0  0  0  0
 42 43  1  0  0  0  0
 43 44  1  0  0  0  0
 44 45  1  0  0  0  0
 46 47  1  0  0  0  0
 47 51  1  6  0  0  0
 48 47  1  0  0  0  0
 49 46  1  0  0  0  0
 50 45  1  6  0  0  0
 50 48  1  0  0  0  0
 50 49  1  0  0  0  0
 51 53  1  1  0  0  0
 51 63  1  0  0  0  0
 52 54  2  0  0  0  0
 54 55  1  0  0  0  0
 54 53  1  0  0  0  0
 55 58  1  6  0  0  0
 55 57  1  0  0  0  0
 57 56  1  0  0  0  0
 59 58  1  0  0  0  0
 60 61  1  0  0  0  0
 61 59  1  0  0  0  0
 63 65  1  0  0  0  0
 63 62  1  1  0  0  0
 64 65  1  0  0  0  0
M  END
>  <MODEL>
3

>  <REMARK>
 VINA RESULT:      -5.2      3.082      9.185
  Name = 
  29 active torsions:
  status: ('A' for Active; 'I' for Inactive)
    1  A    between atoms: N_1  and  C_23
    2  A    between atoms: N_1  and  C_41
    3  A    between atoms: C_2  and  N_15
    4  A    between atoms: C_2  and  O_25
    5  A    between atoms: C_4  and  C_60
    6  A    between atoms: C_5  and  C_6
    7  A    between atoms: C_5  and  C_12
    8  A    between atoms: C_5  and  C_23
    9  A    between atoms: C_6  and  C_14
   10  A    between atoms: C_11  and  C_49
   11  A    between atoms: C_12  and  C_40
   12  A    between atoms: C_14  and  C_43
   13  A    between atoms: C_19  and  C_21
   14  A    between atoms: C_19  and  C_58
   15  A    between atoms: C_21  and  C_26
   16  A    between atoms: N_22  and  C_49
   17  A    between atoms: C_27  and  C_43
   18  A    between atoms: C_29  and  C_40
   19  A    between atoms: C_29  and  C_60
   20  A    between atoms: C_33  and  C_47
   21  A    between atoms: C_36  and  C_56
   22  A    between atoms: C_37  and  O_46
   23  A    between atoms: C_37  and  C_65
   24  A    between atoms: C_41  and  O_46
   25  A    between atoms: C_45  and  C_56
   26  A    between atoms: C_49  and  C_52
   27  A    between atoms: C_52  and  C_64
   28  A    between atoms: C_58  and  C_61
   29  A    between atoms: C_58  and  C_62
                            x       y       z     vdW  Elec       q    Type
                         _______ _______ _______ _____ _____    ______ ____

>  <TORSDO>
F 29

$$$$
=
 OpenBabel11042410133D

 65 68  0  0  1  0  0  0  0  0999 V2000
  183.4980  178.6540  140.8360 C   0  0  1  0  0  3  0  0  0  0  0  0
  183.7490  177.7440  139.6280 C   0  0  0  0  0  2  0  0  0  0  0  0
  184.8290  178.2850  138.6960 C   0  0  0  0  0  2  0  0  0  0  0  0
  184.4490  178.0990  137.2340 C   0  0  0  0  0  2  0  0  0  0  0  0
  187.0050  176.3040  136.5850 C   0  0  0  0  0  3  0  0  0  0  0  0
  185.8390  172.3660  135.5780 O   0  0  0  0  0  1  0  0  0  0  0  0
  186.2080  173.6730  135.8710 C   0  0  0  0  0  0  0  0  0  0  0  0
  183.9040  174.5860  136.1870 N   0  0  0  0  0  0  0  0  0  0  0  0
  184.5300  176.6650  136.8110 C   0  0  0  0  0  0  0  0  0  0  0  0
  187.9650  175.3310  136.2620 C   0  0  0  0  0  3  0  0  0  0  0  0
  188.5460  173.0760  135.6180 O   0  0  0  0  0  1  0  0  0  0  0  0
  181.3770  172.2400  135.6910 C   0  0  0  0  0  0  0  0  0  0  0  0
  183.4630  175.8040  136.5990 C   0  0  0  0  0  0  0  0  0  0  0  0
  185.2590  174.6690  136.1610 C   0  0  0  0  0  0  0  0  0  0  0  0
  183.0550  173.5000  135.7830 C   0  0  0  0  0  0  0  0  0  0  0  0
  182.2370  171.8820  134.6680 C   0  0  0  0  0  3  0  0  0  0  0  0
  187.5730  174.0240  135.9120 C   0  0  0  0  0  0  0  0  0  0  0  0
  183.3140  172.6920  134.7350 N   0  0  0  0  0  0  0  0  0  0  0  0
  181.9020  173.2430  136.3510 O   0  0  0  0  0  0  0  0  0  0  0  0
  185.6630  175.9330  136.5330 C   0  0  0  0  0  0  0  0  0  0  0  0
  179.7630  171.7020  137.4750 C   0  0  0  0  0  1  0  0  0  0  0  0
  178.9310  172.4080  135.2570 C   0  0  0  0  0  1  0  0  0  0  0  0
  180.0260  171.6460  135.9830 C   0  0  0  0  0  0  0  0  0  0  0  0
  179.9800  170.1960  135.5320 C   0  0  0  0  0  1  0  0  0  0  0  0
  182.0240  176.2010  136.6810 C   0  0  0  0  0  2  0  0  0  0  0  0
  180.7380  175.6440  134.6450 C   0  0  0  0  0  1  0  0  0  0  0  0
  181.5500  176.7180  135.3370 C   0  0  0  0  0  2  0  0  0  0  0  0
  182.0610  179.1710  140.8770 C   0  0  0  0  0  2  0  0  0  0  0  0
  181.0380  178.0690  141.1520 C   0  0  0  0  0  2  0  0  0  0  0  0
  179.9800  177.9770  140.0530 C   0  0  2  0  0  3  0  0  0  0  0  0
  180.1420  176.6680  139.2870 C   0  0  0  0  0  1  0  0  0  0  0  0
  179.4350  180.3080  139.7110 O   0  0  0  0  0  1  0  0  0  0  0  0
  180.0110  179.1850  139.1100 C   0  0  2  0  0  3  0  0  0  0  0  0
  179.3410  178.9090  137.7940 C   0  0  0  0  0  0  0  0  0  0  0  0
  179.1270  179.9270  136.8060 N   0  0  0  0  0  2  0  0  0  0  0  0
  178.9420  177.7390  137.5570 O   0  0  0  0  0  0  0  0  0  0  0  0
  179.5520  181.3150  136.9380 C   0  0  2  0  0  3  0  0  0  0  0  0
  178.9340  182.1270  135.8150 C   0  0  0  0  0  1  0  0  0  0  0  0
  180.9460  181.3940  136.8580 O   0  0  0  0  0  0  0  0  0  0  0  0
  181.2970  182.4740  137.6700 C   0  0  0  0  0  1  0  0  0  0  0  0
  183.9470  178.0510  142.1650 C   0  0  0  0  0  2  0  0  0  0  0  0
  183.4260  178.8390  143.2730 N   0  0  0  0  0  2  0  0  0  0  0  0
  184.5330  179.1050  144.1810 C   0  0  0  0  0  2  0  0  0  0  0  0
  184.0910  179.0460  145.5050 O   0  0  0  0  0  0  0  0  0  0  0  0
  185.0890  178.3500  146.1860 C   0  0  0  0  0  2  0  0  0  0  0  0
  187.6800  176.9360  144.2210 N   0  0  0  0  0  2  0  0  0  0  0  0
  188.5560  177.1750  145.3590 C   0  0  2  0  0  3  0  0  0  0  0  0
  187.8060  178.4730  146.3640 S   0  0  0  0  0  0  0  0  0  0  0  0
  186.4080  177.0300  144.6870 O   0  0  0  0  0  0  0  0  0  0  0  0
  186.3380  178.2740  145.3260 C   0  0  1  0  0  3  0  0  0  0  0  0
  189.9640  177.5660  144.9040 C   0  0  2  0  0  3  0  0  0  0  0  0
  191.7070  178.7890  143.0210 O   0  0  0  0  0  0  0  0  0  0  0  0
  190.2190  177.0760  143.5540 N   0  0  0  0  0  2  0  0  0  0  0  0
  191.1610  177.7040  142.6820 C   0  0  0  0  0  0  0  0  0  0  0  0
  191.5160  177.0400  141.3820 C   0  0  2  0  0  3  0  0  0  0  0  0
  193.4330  176.8710  139.8080 C   0  0  0  0  0  1  0  0  0  0  0  0
  192.6450  177.8060  140.7100 C   0  0  0  0  0  2  0  0  0  0  0  0
  190.3100  176.9550  140.4460 C   0  0  0  0  0  2  0  0  0  0  0  0
  190.6880  177.3080  139.0130 C   0  0  0  0  0  2  0  0  0  0  0  0
  191.3870  176.2310  136.9950 O   0  0  0  0  0  1  0  0  0  0  0  0
  190.5200  176.1170  138.0830 C   0  0  0  0  0  2  0  0  0  0  0  0
  191.6770  175.9200  145.3440 O   0  0  0  0  0  1  0  0  0  0  0  0
  191.0270  177.0350  145.8760 C   0  0  2  0  0  3  0  0  0  0  0  0
  191.1650  177.4440  148.3670 C   0  0  0  0  0  1  0  0  0  0  0  0
  190.4510  176.6980  147.2500 C   0  0  0  0  0  2  0  0  0  0  0  0
  1  2  1  6  0  0  0
  1 28  1  0  0  0  0
  1 41  1  0  0  0  0
  3  2  1  0  0  0  0
  4  3  1  0  0  0  0
  6  7  1  0  0  0  0
  7 17  2  0  0  0  0
  7 14  1  0  0  0  0
  8 13  1  0  0  0  0
  9  4  1  0  0  0  0
 10  5  2  0  0  0  0
 11 17  1  0  0  0  0
 12 23  1  0  0  0  0
 12 19  1  0  0  0  0
 13 25  1  0  0  0  0
 13  9  2  0  0  0  0
 14  8  1  0  0  0  0
 14 20  2  0  0  0  0
 15  8  1  0  0  0  0
 15 19  1  0  0  0  0
 16 18  1  0  0  0  0
 16 12  2  0  0  0  0
 17 10  1  0  0  0  0
 18 15  2  0  0  0  0
 20  5  1  0  0  0  0
 20  9  1  0  0  0  0
 22 23  1  0  0  0  0
 23 21  1  0  0  0  0
 24 23  1  0  0  0  0
 26 27  1  0  0  0  0
 27 25  1  0  0  0  0
 28 29  1  0  0  0  0
 30 31  1  6  0  0  0
 30 29  1  0  0  0  0
 33 32  1  1  0  0  0
 33 30  1  0  0  0  0
 34 33  1  0  0  0  0
 35 37  1  0  0  0  0
 35 34  1  0  0  0  0
 36 34  2  0  0  0  0
 37 38  1  6  0  0  0
 39 37  1  0  0  0  0
 39 40  1  0  0  0  0
 41 42  1  0  0  0  0
 42 43  1  0  0  0  0
 43 44  1  0  0  0  0
 44 45  1  0  0  0  0
 46 49  1  0  0  0  0
 46 47  1  0  0  0  0
 47 51  1  6  0  0  0
 47 48  1  0  0  0  0
 49 50  1  0  0  0  0
 50 45  1  1  0  0  0
 50 48  1  0  0  0  0
 51 53  1  6  0  0  0
 51 63  1  0  0  0  0
 54 52  2  0  0  0  0
 54 53  1  0  0  0  0
 55 58  1  6  0  0  0
 55 54  1  0  0  0  0
 56 57  1  0  0  0  0
 57 55  1  0  0  0  0
 59 58  1  0  0  0  0
 60 61  1  0  0  0  0
 61 59  1  0  0  0  0
 63 62  1  6  0  0  0
 63 65  1  0  0  0  0
 65 64  1  0  0  0  0
M  END
>  <MODEL>
4

>  <REMARK>
 VINA RESULT:      -4.9      2.975      9.452
  Name = 
  29 active torsions:
  status: ('A' for Active; 'I' for Inactive)
    1  A    between atoms: N_1  and  C_23
    2  A    between atoms: N_1  and  C_41
    3  A    between atoms: C_2  and  N_15
    4  A    between atoms: C_2  and  O_25
    5  A    between atoms: C_4  and  C_60
    6  A    between atoms: C_5  and  C_6
    7  A    between atoms: C_5  and  C_12
    8  A    between atoms: C_5  and  C_23
    9  A    between atoms: C_6  and  C_14
   10  A    between atoms: C_11  and  C_49
   11  A    between atoms: C_12  and  C_40
   12  A    between atoms: C_14  and  C_43
   13  A    between atoms: C_19  and  C_21
   14  A    between atoms: C_19  and  C_58
   15  A    between atoms: C_21  and  C_26
   16  A    between atoms: N_22  and  C_49
   17  A    between atoms: C_27  and  C_43
   18  A    between atoms: C_29  and  C_40
   19  A    between atoms: C_29  and  C_60
   20  A    between atoms: C_33  and  C_47
   21  A    between atoms: C_36  and  C_56
   22  A    between atoms: C_37  and  O_46
   23  A    between atoms: C_37  and  C_65
   24  A    between atoms: C_41  and  O_46
   25  A    between atoms: C_45  and  C_56
   26  A    between atoms: C_49  and  C_52
   27  A    between atoms: C_52  and  C_64
   28  A    between atoms: C_58  and  C_61
   29  A    between atoms: C_58  and  C_62
                            x       y       z     vdW  Elec       q    Type
                         _______ _______ _______ _____ _____    ______ ____

>  <TORSDO>
F 29

$$$$
=
 OpenBabel11042410133D

 65 68  0  0  1  0  0  0  0  0999 V2000
  188.8030  177.2800  138.7960 C   0  0  1  0  0  3  0  0  0  0  0  0
  187.6610  178.3030  138.8030 C   0  0  0  0  0  2  0  0  0  0  0  0
  186.2830  177.6510  138.7480 C   0  0  0  0  0  2  0  0  0  0  0  0
  185.2890  178.5090  137.9790 C   0  0  0  0  0  2  0  0  0  0  0  0
  182.6150  179.7940  139.1510 C   0  0  0  0  0  3  0  0  0  0  0  0
  179.3440  177.1700  138.6120 O   0  0  0  0  0  1  0  0  0  0  0  0
  180.4320  178.0060  138.8200 C   0  0  0  0  0  0  0  0  0  0  0  0
  182.1720  176.5110  137.8300 N   0  0  0  0  0  0  0  0  0  0  0  0
  183.9020  177.9480  138.0370 C   0  0  0  0  0  0  0  0  0  0  0  0
  181.3290  180.1500  139.5880 C   0  0  0  0  0  3  0  0  0  0  0  0
  178.9780  179.6550  139.8450 O   0  0  0  0  0  1  0  0  0  0  0  0
  180.9250  173.4690  136.6760 C   0  0  0  0  0  0  0  0  0  0  0  0
  183.4940  176.7020  137.5830 C   0  0  0  0  0  0  0  0  0  0  0  0
  181.7330  177.6510  138.4210 C   0  0  0  0  0  0  0  0  0  0  0  0
  181.4590  175.2880  137.5790 C   0  0  0  0  0  0  0  0  0  0  0  0
  180.1870  173.6020  137.8400 C   0  0  0  0  0  3  0  0  0  0  0  0
  180.2430  179.2680  139.4210 C   0  0  0  0  0  0  0  0  0  0  0  0
  180.5320  174.7730  138.4130 N   0  0  0  0  0  0  0  0  0  0  0  0
  181.7040  174.5150  136.5490 O   0  0  0  0  0  0  0  0  0  0  0  0
  182.7760  178.5410  138.5630 C   0  0  0  0  0  0  0  0  0  0  0  0
  181.8940  172.5550  134.6020 C   0  0  0  0  0  1  0  0  0  0  0  0
  181.2970  171.0190  136.4430 C   0  0  0  0  0  1  0  0  0  0  0  0
  180.9110  172.3010  135.7280 C   0  0  0  0  0  0  0  0  0  0  0  0
  179.5230  172.1200  135.1350 C   0  0  0  0  0  1  0  0  0  0  0  0
  184.4120  175.6610  137.0240 C   0  0  0  0  0  2  0  0  0  0  0  0
  184.6270  174.7900  134.7210 C   0  0  0  0  0  1  0  0  0  0  0  0
  184.7890  176.0130  135.5990 C   0  0  0  0  0  2  0  0  0  0  0  0
  189.9000  177.6500  137.7990 C   0  0  0  0  0  2  0  0  0  0  0  0
  189.6970  177.0120  136.4250 C   0  0  0  0  0  2  0  0  0  0  0  0
  190.7750  175.9770  136.1040 C   0  0  2  0  0  3  0  0  0  0  0  0
  190.8860  175.7950  134.5940 C   0  0  0  0  0  1  0  0  0  0  0  0
  191.3580  174.5000  137.9280 O   0  0  0  0  0  1  0  0  0  0  0  0
  190.5280  174.6390  136.8120 C   0  0  2  0  0  3  0  0  0  0  0  0
  190.6990  173.4600  135.8970 C   0  0  0  0  0  0  0  0  0  0  0  0
  191.9440  172.7600  135.7620 N   0  0  0  0  0  2  0  0  0  0  0  0
  189.7110  173.0820  135.2140 O   0  0  0  0  0  0  0  0  0  0  0  0
  193.1590  173.0760  136.5020 C   0  0  2  0  0  3  0  0  0  0  0  0
  193.8920  174.1970  135.7870 C   0  0  0  0  0  1  0  0  0  0  0  0
  193.9820  171.9470  136.5650 O   0  0  0  0  0  0  0  0  0  0  0  0
  194.8570  172.0730  135.4850 C   0  0  0  0  0  1  0  0  0  0  0  0
  189.3510  176.9590  140.1840 C   0  0  0  0  0  2  0  0  0  0  0  0
  190.8000  176.8370  140.1340 N   0  0  0  0  0  2  0  0  0  0  0  0
  191.3570  177.8500  141.0200 C   0  0  0  0  0  2  0  0  0  0  0  0
  192.0240  177.2400  142.0860 O   0  0  0  0  0  0  0  0  0  0  0  0
  192.3140  178.2800  142.9690 C   0  0  0  0  0  2  0  0  0  0  0  0
  191.0780  176.7220  145.9040 N   0  0  0  0  0  2  0  0  0  0  0  0
  189.8230  176.5600  145.1860 C   0  0  2  0  0  3  0  0  0  0  0  0
  189.7860  177.7850  143.8620 S   0  0  0  0  0  0  0  0  0  0  0  0
  192.0240  177.0010  144.9700 O   0  0  0  0  0  0  0  0  0  0  0  0
  191.5260  178.0950  144.2530 C   0  0  1  0  0  3  0  0  0  0  0  0
  188.6220  176.7150  146.1220 C   0  0  2  0  0  3  0  0  0  0  0  0
  185.8600  176.6950  145.4530 O   0  0  0  0  0  0  0  0  0  0  0  0
  187.8380  177.8900  145.7570 N   0  0  0  0  0  2  0  0  0  0  0  0
  186.4350  177.8170  145.4970 C   0  0  0  0  0  0  0  0  0  0  0  0
  185.6540  179.0870  145.3130 C   0  0  2  0  0  3  0  0  0  0  0  0
  185.6320  178.7540  147.7760 C   0  0  0  0  0  1  0  0  0  0  0  0
  185.4690  179.7700  146.6590 C   0  0  0  0  0  2  0  0  0  0  0  0
  184.2930  178.8230  144.6680 C   0  0  0  0  0  2  0  0  0  0  0  0
  184.4170  178.6190  143.1630 C   0  0  0  0  0  2  0  0  0  0  0  0
  186.2800  179.0360  141.7230 O   0  0  0  0  0  1  0  0  0  0  0  0
  185.3310  179.6590  142.5340 C   0  0  0  0  0  2  0  0  0  0  0  0
  188.1970  176.1070  148.4220 O   0  0  0  0  0  1  0  0  0  0  0  0
  189.0710  176.8070  147.5880 C   0  0  2  0  0  3  0  0  0  0  0  0
  188.2480  178.5680  149.2040 C   0  0  0  0  0  1  0  0  0  0  0  0
  189.2110  178.2490  148.0700 C   0  0  0  0  0  2  0  0  0  0  0  0
  1 28  1  6  0  0  0
  1  2  1  0  0  0  0
  1 41  1  0  0  0  0
  3  2  1  0  0  0  0
  4  9  1  0  0  0  0
  4  3  1  0  0  0  0
  5 10  1  0  0  0  0
  6  7  1  0  0  0  0
  7 17  1  0  0  0  0
  8 14  1  0  0  0  0
  9 20  1  0  0  0  0
 12 16  2  0  0  0  0
 13  8  1  0  0  0  0
 13  9  2  0  0  0  0
 14 20  1  0  0  0  0
 14  7  2  0  0  0  0
 15  8  1  0  0  0  0
 15 18  2  0  0  0  0
 16 18  1  0  0  0  0
 17 10  2  0  0  0  0
 17 11  1  0  0  0  0
 19 12  1  0  0  0  0
 19 15  1  0  0  0  0
 20  5  2  0  0  0  0
 21 23  1  0  0  0  0
 23 22  1  0  0  0  0
 23 12  1  0  0  0  0
 24 23  1  0  0  0  0
 25 13  1  0  0  0  0
 26 27  1  0  0  0  0
 27 25  1  0  0  0  0
 29 28  1  0  0  0  0
 30 31  1  6  0  0  0
 30 29  1  0  0  0  0
 30 33  1  0  0  0  0
 33 32  1  1  0  0  0
 34 33  1  0  0  0  0
 35 34  1  0  0  0  0
 35 37  1  0  0  0  0
 36 34  2  0  0  0  0
 37 38  1  6  0  0  0
 37 39  1  0  0  0  0
 40 39  1  0  0  0  0
 42 41  1  0  0  0  0
 42 43  1  0  0  0  0
 43 44  1  0  0  0  0
 44 45  1  0  0  0  0
 47 46  1  0  0  0  0
 47 51  1  1  0  0  0
 48 50  1  0  0  0  0
 48 47  1  0  0  0  0
 49 46  1  0  0  0  0
 50 45  1  6  0  0  0
 50 49  1  0  0  0  0
 51 53  1  6  0  0  0
 51 63  1  0  0  0  0
 52 54  2  0  0  0  0
 54 53  1  0  0  0  0
 55 58  1  1  0  0  0
 55 54  1  0  0  0  0
 55 57  1  0  0  0  0
 57 56  1  0  0  0  0
 59 58  1  0  0  0  0
 60 61  1  0  0  0  0
 61 59  1  0  0  0  0
 63 65  1  0  0  0  0
 63 62  1  1  0  0  0
 65 64  1  0  0  0  0
M  END
>  <MODEL>
5

>  <REMARK>
 VINA RESULT:      -4.8      2.653     10.038
  Name = 
  29 active torsions:
  status: ('A' for Active; 'I' for Inactive)
    1  A    between atoms: N_1  and  C_23
    2  A    between atoms: N_1  and  C_41
    3  A    between atoms: C_2  and  N_15
    4  A    between atoms: C_2  and  O_25
    5  A    between atoms: C_4  and  C_60
    6  A    between atoms: C_5  and  C_6
    7  A    between atoms: C_5  and  C_12
    8  A    between atoms: C_5  and  C_23
    9  A    between atoms: C_6  and  C_14
   10  A    between atoms: C_11  and  C_49
   11  A    between atoms: C_12  and  C_40
   12  A    between atoms: C_14  and  C_43
   13  A    between atoms: C_19  and  C_21
   14  A    between atoms: C_19  and  C_58
   15  A    between atoms: C_21  and  C_26
   16  A    between atoms: N_22  and  C_49
   17  A    between atoms: C_27  and  C_43
   18  A    between atoms: C_29  and  C_40
   19  A    between atoms: C_29  and  C_60
   20  A    between atoms: C_33  and  C_47
   21  A    between atoms: C_36  and  C_56
   22  A    between atoms: C_37  and  O_46
   23  A    between atoms: C_37  and  C_65
   24  A    between atoms: C_41  and  O_46
   25  A    between atoms: C_45  and  C_56
   26  A    between atoms: C_49  and  C_52
   27  A    between atoms: C_52  and  C_64
   28  A    between atoms: C_58  and  C_61
   29  A    between atoms: C_58  and  C_62
                            x       y       z     vdW  Elec       q    Type
                         _______ _______ _______ _____ _____    ______ ____

>  <TORSDO>
F 29

$$$$
=
 OpenBabel11042410133D

 65 68  0  0  1  0  0  0  0  0999 V2000
  190.2960  177.6610  139.6130 C   0  0  1  0  0  3  0  0  0  0  0  0
  189.7030  176.3280  140.0840 C   0  0  0  0  0  2  0  0  0  0  0  0
  189.5210  176.2630  141.5970 C   0  0  0  0  0  2  0  0  0  0  0  0
  188.4380  177.2220  142.0710 C   0  0  0  0  0  2  0  0  0  0  0  0
  186.0040  177.9670  143.9930 C   0  0  0  0  0  3  0  0  0  0  0  0
  187.2050  177.8070  148.0440 O   0  0  0  0  0  1  0  0  0  0  0  0
  186.8330  177.8960  146.7090 C   0  0  0  0  0  0  0  0  0  0  0  0
  189.0560  177.3230  145.7230 N   0  0  0  0  0  0  0  0  0  0  0  0
  188.3930  177.3210  143.5640 C   0  0  0  0  0  0  0  0  0  0  0  0
  185.0950  178.2550  145.0240 C   0  0  0  0  0  3  0  0  0  0  0  0
  184.5750  178.4860  147.3720 O   0  0  0  0  0  1  0  0  0  0  0  0
  191.5440  176.7510  148.0940 C   0  0  0  0  0  0  0  0  0  0  0  0
  189.4480  177.1110  144.4400 C   0  0  0  0  0  0  0  0  0  0  0  0
  187.7380  177.6460  145.6640 C   0  0  0  0  0  0  0  0  0  0  0  0
  189.9300  177.2910  146.8640 C   0  0  0  0  0  0  0  0  0  0  0  0
  190.8970  177.8240  148.6830 C   0  0  0  0  0  3  0  0  0  0  0  0
  185.5020  178.2160  146.3720 C   0  0  0  0  0  0  0  0  0  0  0  0
  189.8600  178.1630  147.8910 N   0  0  0  0  0  0  0  0  0  0  0  0
  190.9330  176.4550  146.9740 O   0  0  0  0  0  0  0  0  0  0  0  0
  187.3140  177.6570  144.3530 C   0  0  0  0  0  0  0  0  0  0  0  0
  193.5690  177.0150  149.4750 C   0  0  0  0  0  1  0  0  0  0  0  0
  192.4300  174.8230  149.3960 C   0  0  0  0  0  1  0  0  0  0  0  0
  192.7850  176.0630  148.5930 C   0  0  0  0  0  0  0  0  0  0  0  0
  193.6610  175.6430  147.4250 C   0  0  0  0  0  1  0  0  0  0  0  0
  190.8540  176.8250  144.0190 C   0  0  0  0  0  2  0  0  0  0  0  0
  192.0470  178.9800  144.2320 C   0  0  0  0  0  1  0  0  0  0  0  0
  191.4190  178.0070  143.2570 C   0  0  0  0  0  2  0  0  0  0  0  0
  191.3230  177.4710  138.4970 C   0  0  0  0  0  2  0  0  0  0  0  0
  191.5090  176.0070  138.1010 C   0  0  0  0  0  2  0  0  0  0  0  0
  192.4620  175.8470  136.9170 C   0  0  2  0  0  3  0  0  0  0  0  0
  191.7560  175.1170  135.7790 C   0  0  0  0  0  1  0  0  0  0  0  0
  194.1610  175.4950  138.6020 O   0  0  0  0  0  1  0  0  0  0  0  0
  193.7670  175.1420  137.3090 C   0  0  2  0  0  3  0  0  0  0  0  0
  194.8840  175.4130  136.3420 C   0  0  0  0  0  0  0  0  0  0  0  0
  195.8120  174.4010  135.9290 N   0  0  0  0  0  2  0  0  0  0  0  0
  195.0150  176.5800  135.8880 O   0  0  0  0  0  0  0  0  0  0  0  0
  195.7690  173.0090  136.3590 C   0  0  2  0  0  3  0  0  0  0  0  0
  196.2490  172.1270  135.2200 C   0  0  0  0  0  1  0  0  0  0  0  0
  194.4590  172.6580  136.6990 O   0  0  0  0  0  0  0  0  0  0  0  0
  194.1860  171.5070  135.9590 C   0  0  0  0  0  1  0  0  0  0  0  0
  189.2470  178.7170  139.2770 C   0  0  0  0  0  2  0  0  0  0  0  0
  188.5540  178.3600  138.0470 N   0  0  0  0  0  2  0  0  0  0  0  0
  187.2830  177.7560  138.4190 C   0  0  0  0  0  2  0  0  0  0  0  0
  186.2860  178.7330  138.4760 O   0  0  0  0  0  0  0  0  0  0  0  0
  185.7450  178.6180  139.7570 C   0  0  0  0  0  2  0  0  0  0  0  0
  182.3720  178.7710  140.8380 N   0  0  0  0  0  2  0  0  0  0  0  0
  182.1460  177.5910  140.0170 C   0  0  2  0  0  3  0  0  0  0  0  0
  183.4480  177.5320  138.7700 S   0  0  0  0  0  0  0  0  0  0  0  0
  183.7160  178.8770  140.9990 O   0  0  0  0  0  0  0  0  0  0  0  0
  184.2470  178.8600  139.7040 C   0  0  1  0  0  3  0  0  0  0  0  0
  180.7580  177.6190  139.3730 C   0  0  2  0  0  3  0  0  0  0  0  0
  180.1450  174.8440  139.3050 O   0  0  0  0  0  0  0  0  0  0  0  0
  180.7360  176.7930  138.1710 N   0  0  0  0  0  2  0  0  0  0  0  0
  180.3530  175.4160  138.2000 C   0  0  0  0  0  0  0  0  0  0  0  0
  180.1690  174.6760  136.9060 C   0  0  2  0  0  3  0  0  0  0  0  0
  180.2720  176.5420  135.2660 C   0  0  0  0  0  1  0  0  0  0  0  0
  179.3610  175.5300  135.9410 C   0  0  0  0  0  2  0  0  0  0  0  0
  179.4770  173.3300  137.1200 C   0  0  0  0  0  2  0  0  0  0  0  0
  180.4740  172.2430  137.5020 C   0  0  0  0  0  2  0  0  0  0  0  0
  182.4400  171.0790  136.7960 O   0  0  0  0  0  1  0  0  0  0  0  0
  181.4320  171.9410  136.3610 C   0  0  0  0  0  2  0  0  0  0  0  0
  178.9490  179.2110  139.1870 O   0  0  0  0  0  1  0  0  0  0  0  0
  180.3290  179.0550  139.0430 C   0  0  2  0  0  3  0  0  0  0  0  0
  179.6230  180.1450  136.8730 C   0  0  0  0  0  1  0  0  0  0  0  0
  180.7610  179.4900  137.6430 C   0  0  0  0  0  2  0  0  0  0  0  0
  1 28  1  6  0  0  0
  1  2  1  0  0  0  0
  2  3  1  0  0  0  0
  3  4  1  0  0  0  0
  4  9  1  0  0  0  0
  5 20  2  0  0  0  0
  5 10  1  0  0  0  0
  7  6  1  0  0  0  0
  8 15  1  0  0  0  0
  9 20  1  0  0  0  0
  9 13  2  0  0  0  0
 10 17  2  0  0  0  0
 12 23  1  0  0  0  0
 12 16  2  0  0  0  0
 13  8  1  0  0  0  0
 14  8  1  0  0  0  0
 14  7  2  0  0  0  0
 15 19  1  0  0  0  0
 15 18  2  0  0  0  0
 17  7  1  0  0  0  0
 17 11  1  0  0  0  0
 18 16  1  0  0  0  0
 19 12  1  0  0  0  0
 20 14  1  0  0  0  0
 23 22  1  0  0  0  0
 23 21  1  0  0  0  0
 24 23  1  0  0  0  0
 25 13  1  0  0  0  0
 27 25  1  0  0  0  0
 27 26  1  0  0  0  0
 29 28  1  0  0  0  0
 30 31  1  6  0  0  0
 30 33  1  0  0  0  0
 30 29  1  0  0  0  0
 33 32  1  1  0  0  0
 34 33  1  0  0  0  0
 35 34  1  0  0  0  0
 35 37  1  0  0  0  0
 36 34  2  0  0  0  0
 37 38  1  6  0  0  0
 37 39  1  0  0  0  0
 40 39  1  0  0  0  0
 41  1  1  0  0  0  0
 42 43  1  0  0  0  0
 42 41  1  0  0  0  0
 43 44  1  0  0  0  0
 44 45  1  0  0  0  0
 46 49  1  0  0  0  0
 47 51  1  6  0  0  0
 47 46  1  0  0  0  0
 48 50  1  0  0  0  0
 48 47  1  0  0  0  0
 50 45  1  1  0  0  0
 50 49  1  0  0  0  0
 51 53  1  6  0  0  0
 53 54  1  0  0  0  0
 54 52  2  0  0  0  0
 55 57  1  6  0  0  0
 55 58  1  0  0  0  0
 55 54  1  0  0  0  0
 56 57  1  0  0  0  0
 58 59  1  0  0  0  0
 61 60  1  0  0  0  0
 61 59  1  0  0  0  0
 63 62  1  6  0  0  0
 63 51  1  0  0  0  0
 64 65  1  0  0  0  0
 65 63  1  0  0  0  0
M  END
>  <MODEL>
6

>  <REMARK>
 VINA RESULT:      -4.4      2.801      9.910
  Name = 
  29 active torsions:
  status: ('A' for Active; 'I' for Inactive)
    1  A    between atoms: N_1  and  C_23
    2  A    between atoms: N_1  and  C_41
    3  A    between atoms: C_2  and  N_15
    4  A    between atoms: C_2  and  O_25
    5  A    between atoms: C_4  and  C_60
    6  A    between atoms: C_5  and  C_6
    7  A    between atoms: C_5  and  C_12
    8  A    between atoms: C_5  and  C_23
    9  A    between atoms: C_6  and  C_14
   10  A    between atoms: C_11  and  C_49
   11  A    between atoms: C_12  and  C_40
   12  A    between atoms: C_14  and  C_43
   13  A    between atoms: C_19  and  C_21
   14  A    between atoms: C_19  and  C_58
   15  A    between atoms: C_21  and  C_26
   16  A    between atoms: N_22  and  C_49
   17  A    between atoms: C_27  and  C_43
   18  A    between atoms: C_29  and  C_40
   19  A    between atoms: C_29  and  C_60
   20  A    between atoms: C_33  and  C_47
   21  A    between atoms: C_36  and  C_56
   22  A    between atoms: C_37  and  O_46
   23  A    between atoms: C_37  and  C_65
   24  A    between atoms: C_41  and  O_46
   25  A    between atoms: C_45  and  C_56
   26  A    between atoms: C_49  and  C_52
   27  A    between atoms: C_52  and  C_64
   28  A    between atoms: C_58  and  C_61
   29  A    between atoms: C_58  and  C_62
                            x       y       z     vdW  Elec       q    Type
                         _______ _______ _______ _____ _____    ______ ____

>  <TORSDO>
F 29

$$$$
=
 OpenBabel11042410133D

 65 68  0  0  1  0  0  0  0  0999 V2000
  189.4690  177.1550  141.2980 C   0  0  1  0  0  3  0  0  0  0  0  0
  189.1280  177.0850  139.8050 C   0  0  0  0  0  2  0  0  0  0  0  0
  189.2940  178.4260  139.0970 C   0  0  0  0  0  2  0  0  0  0  0  0
  189.3980  178.2540  137.5890 C   0  0  0  0  0  2  0  0  0  0  0  0
  192.2300  176.7940  137.4280 C   0  0  0  0  0  3  0  0  0  0  0  0
  191.7560  172.7510  136.2860 O   0  0  0  0  0  1  0  0  0  0  0  0
  191.9030  174.0900  136.6210 C   0  0  0  0  0  0  0  0  0  0  0  0
  189.4850  174.7100  136.5110 N   0  0  0  0  0  0  0  0  0  0  0  0
  189.7290  176.8450  137.2070 C   0  0  0  0  0  0  0  0  0  0  0  0
  193.3440  175.9500  137.2940 C   0  0  0  0  0  3  0  0  0  0  0  0
  194.3040  173.7890  136.7950 O   0  0  0  0  0  1  0  0  0  0  0  0
  187.3940  172.0730  135.6070 C   0  0  0  0  0  0  0  0  0  0  0  0
  188.8310  175.8600  136.8210 C   0  0  0  0  0  0  0  0  0  0  0  0
  190.8020  174.9590  136.7240 C   0  0  0  0  0  0  0  0  0  0  0  0
  188.8610  173.5300  135.9780 C   0  0  0  0  0  0  0  0  0  0  0  0
  188.4600  171.8330  134.7580 C   0  0  0  0  0  3  0  0  0  0  0  0
  193.1850  174.6070  136.8990 C   0  0  0  0  0  0  0  0  0  0  0  0
  189.4000  172.7680  135.0030 N   0  0  0  0  0  0  0  0  0  0  0  0
  187.6660  173.1280  136.3360 O   0  0  0  0  0  0  0  0  0  0  0  0
  190.9750  176.2600  137.1450 C   0  0  0  0  0  0  0  0  0  0  0  0
  185.0030  172.1380  135.0120 C   0  0  0  0  0  1  0  0  0  0  0  0
  186.2150  169.9860  134.9360 C   0  0  0  0  0  1  0  0  0  0  0  0
  186.0970  171.3140  135.6630 C   0  0  0  0  0  0  0  0  0  0  0  0
  185.7090  171.0370  137.1060 C   0  0  0  0  0  1  0  0  0  0  0  0
  187.3620  176.0760  136.6410 C   0  0  0  0  0  2  0  0  0  0  0  0
  186.2740  177.2170  134.7370 C   0  0  0  0  0  1  0  0  0  0  0  0
  187.1110  177.4170  135.9830 C   0  0  0  0  0  2  0  0  0  0  0  0
  190.9770  177.2030  141.5410 C   0  0  0  0  0  2  0  0  0  0  0  0
  191.3560  178.0110  142.7810 C   0  0  0  0  0  2  0  0  0  0  0  0
  191.3110  177.1680  144.0550 C   0  0  2  0  0  3  0  0  0  0  0  0
  191.3420  175.6860  143.6970 C   0  0  0  0  0  1  0  0  0  0  0  0
  190.0760  178.8650  145.2560 O   0  0  0  0  0  1  0  0  0  0  0  0
  190.1020  177.5050  144.9370 C   0  0  2  0  0  3  0  0  0  0  0  0
  190.0560  176.6840  146.1940 C   0  0  0  0  0  0  0  0  0  0  0  0
  189.1970  177.0050  147.2960 N   0  0  0  0  0  2  0  0  0  0  0  0
  190.8130  175.6820  146.2850 O   0  0  0  0  0  0  0  0  0  0  0  0
  188.2590  178.1210  147.3210 C   0  0  2  0  0  3  0  0  0  0  0  0
  188.0140  178.5250  148.7640 C   0  0  0  0  0  1  0  0  0  0  0  0
  187.0500  177.7380  146.7320 O   0  0  0  0  0  0  0  0  0  0  0  0
  186.0910  178.5890  147.2840 C   0  0  0  0  0  1  0  0  0  0  0  0
  188.7150  178.2480  142.0510 C   0  0  0  0  0  2  0  0  0  0  0  0
  187.3050  177.9010  142.1570 N   0  0  0  0  0  2  0  0  0  0  0  0
  186.7670  178.5950  143.3180 C   0  0  0  0  0  2  0  0  0  0  0  0
  185.4240  178.2580  143.4990 O   0  0  0  0  0  0  0  0  0  0  0  0
  185.0180  177.7310  142.2730 C   0  0  0  0  0  2  0  0  0  0  0  0
  181.6670  178.8610  142.0250 N   0  0  0  0  0  2  0  0  0  0  0  0
  181.5670  178.0320  140.8330 C   0  0  2  0  0  3  0  0  0  0  0  0
  183.2390  177.7640  140.2090 S   0  0  0  0  0  0  0  0  0  0  0  0
  182.7730  178.4430  142.6940 O   0  0  0  0  0  0  0  0  0  0  0  0
  183.8140  178.4990  141.7590 C   0  0  1  0  0  3  0  0  0  0  0  0
  180.6750  178.6860  139.7740 C   0  0  2  0  0  3  0  0  0  0  0  0
  179.3890  176.1690  139.4730 O   0  0  0  0  0  0  0  0  0  0  0  0
  180.6650  177.8890  138.5530 N   0  0  0  0  0  2  0  0  0  0  0  0
  179.9400  176.6610  138.4510 C   0  0  0  0  0  0  0  0  0  0  0  0
  179.8160  175.9890  137.1130 C   0  0  2  0  0  3  0  0  0  0  0  0
  180.8170  173.7470  137.5020 C   0  0  0  0  0  1  0  0  0  0  0  0
  179.5170  174.5110  137.3110 C   0  0  0  0  0  2  0  0  0  0  0  0
  181.0840  176.1610  136.2770 C   0  0  0  0  0  2  0  0  0  0  0  0
  180.9540  177.3190  135.2950 C   0  0  0  0  0  2  0  0  0  0  0  0
  182.6860  178.1050  136.7440 O   0  0  0  0  0  1  0  0  0  0  0  0
  181.9720  178.4100  135.5850 C   0  0  0  0  0  2  0  0  0  0  0  0
  180.4470  181.0400  140.2700 O   0  0  0  0  0  1  0  0  0  0  0  0
  181.1330  180.1200  139.4740 C   0  0  2  0  0  3  0  0  0  0  0  0
  179.8200  181.4470  137.7680 C   0  0  0  0  0  1  0  0  0  0  0  0
  180.9800  180.4890  137.9990 C   0  0  0  0  0  2  0  0  0  0  0  0
  1  2  1  6  0  0  0
  1 28  1  0  0  0  0
  1 41  1  0  0  0  0
  3  2  1  0  0  0  0
  4  3  1  0  0  0  0
  6  7  1  0  0  0  0
  7 14  2  0  0  0  0
  7 17  1  0  0  0  0
  8 14  1  0  0  0  0
  8 13  1  0  0  0  0
  9  4  1  0  0  0  0
 10  5  1  0  0  0  0
 11 17  1  0  0  0  0
 12 23  1  0  0  0  0
 12 19  1  0  0  0  0
 13  9  2  0  0  0  0
 14 20  1  0  0  0  0
 15 19  1  0  0  0  0
 15  8  1  0  0  0  0
 16 18  1  0  0  0  0
 16 12  2  0  0  0  0
 17 10  2  0  0  0  0
 18 15  2  0  0  0  0
 20  9  1  0  0  0  0
 20  5  2  0  0  0  0
 21 23  1  0  0  0  0
 22 23  1  0  0  0  0
 23 24  1  0  0  0  0
 25 13  1  0  0  0  0
 26 27  1  0  0  0  0
 27 25  1  0  0  0  0
 28 29  1  0  0  0  0
 29 30  1  0  0  0  0
 30 31  1  6  0  0  0
 30 33  1  0  0  0  0
 33 32  1  1  0  0  0
 33 34  1  0  0  0  0
 34 36  2  0  0  0  0
 34 35  1  0  0  0  0
 35 37  1  0  0  0  0
 37 38  1  1  0  0  0
 39 40  1  0  0  0  0
 39 37  1  0  0  0  0
 41 42  1  0  0  0  0
 42 43  1  0  0  0  0
 43 44  1  0  0  0  0
 45 44  1  0  0  0  0
 46 49  1  0  0  0  0
 47 51  1  6  0  0  0
 47 46  1  0  0  0  0
 48 47  1  0  0  0  0
 48 50  1  0  0  0  0
 50 45  1  1  0  0  0
 50 49  1  0  0  0  0
 51 53  1  6  0  0  0
 54 53  1  0  0  0  0
 54 52  2  0  0  0  0
 55 58  1  1  0  0  0
 55 57  1  0  0  0  0
 55 54  1  0  0  0  0
 57 56  1  0  0  0  0
 59 61  1  0  0  0  0
 59 58  1  0  0  0  0
 61 60  1  0  0  0  0
 63 51  1  0  0  0  0
 63 62  1  1  0  0  0
 64 65  1  0  0  0  0
 65 63  1  0  0  0  0
M  END
>  <MODEL>
7

>  <REMARK>
 VINA RESULT:      -4.4      1.958      3.244
  Name = 
  29 active torsions:
  status: ('A' for Active; 'I' for Inactive)
    1  A    between atoms: N_1  and  C_23
    2  A    between atoms: N_1  and  C_41
    3  A    between atoms: C_2  and  N_15
    4  A    between atoms: C_2  and  O_25
    5  A    between atoms: C_4  and  C_60
    6  A    between atoms: C_5  and  C_6
    7  A    between atoms: C_5  and  C_12
    8  A    between atoms: C_5  and  C_23
    9  A    between atoms: C_6  and  C_14
   10  A    between atoms: C_11  and  C_49
   11  A    between atoms: C_12  and  C_40
   12  A    between atoms: C_14  and  C_43
   13  A    between atoms: C_19  and  C_21
   14  A    between atoms: C_19  and  C_58
   15  A    between atoms: C_21  and  C_26
   16  A    between atoms: N_22  and  C_49
   17  A    between atoms: C_27  and  C_43
   18  A    between atoms: C_29  and  C_40
   19  A    between atoms: C_29  and  C_60
   20  A    between atoms: C_33  and  C_47
   21  A    between atoms: C_36  and  C_56
   22  A    between atoms: C_37  and  O_46
   23  A    between atoms: C_37  and  C_65
   24  A    between atoms: C_41  and  O_46
   25  A    between atoms: C_45  and  C_56
   26  A    between atoms: C_49  and  C_52
   27  A    between atoms: C_52  and  C_64
   28  A    between atoms: C_58  and  C_61
   29  A    between atoms: C_58  and  C_62
                            x       y       z     vdW  Elec       q    Type
                         _______ _______ _______ _____ _____    ______ ____

>  <TORSDO>
F 29

$$$$
=
 OpenBabel11042410133D

 65 68  0  0  1  0  0  0  0  0999 V2000
  191.0030  177.6980  140.4010 C   0  0  1  0  0  3  0  0  0  0  0  0
  191.8210  176.8170  139.4500 C   0  0  0  0  0  2  0  0  0  0  0  0
  191.1680  176.6610  138.0800 C   0  0  0  0  0  2  0  0  0  0  0  0
  192.2070  176.5260  136.9760 C   0  0  0  0  0  2  0  0  0  0  0  0
  190.0840  174.4090  135.8850 C   0  0  0  0  0  3  0  0  0  0  0  0
  191.9730  170.7320  134.9990 O   0  0  0  0  0  1  0  0  0  0  0  0
  191.3560  171.9310  135.3320 C   0  0  0  0  0  0  0  0  0  0  0  0
  193.3940  173.1090  136.1710 N   0  0  0  0  0  0  0  0  0  0  0  0
  192.4020  175.1010  136.5620 C   0  0  0  0  0  0  0  0  0  0  0  0
  189.3450  173.3250  135.3870 C   0  0  0  0  0  3  0  0  0  0  0  0
  189.2220  171.0460  134.5940 O   0  0  0  0  0  1  0  0  0  0  0  0
  196.2890  171.1740  136.0590 C   0  0  0  0  0  0  0  0  0  0  0  0
  193.5930  174.3890  136.5820 C   0  0  0  0  0  0  0  0  0  0  0  0
  192.0740  173.0160  135.8660 C   0  0  0  0  0  0  0  0  0  0  0  0
  194.3980  172.0810  136.1740 C   0  0  0  0  0  0  0  0  0  0  0  0
  195.3790  170.2160  136.4730 C   0  0  0  0  0  3  0  0  0  0  0  0
  189.9740  172.0950  135.1060 C   0  0  0  0  0  0  0  0  0  0  0  0
  194.1670  170.8040  136.5410 N   0  0  0  0  0  0  0  0  0  0  0  0
  195.6580  172.3110  135.8940 O   0  0  0  0  0  0  0  0  0  0  0  0
  191.4470  174.2200  136.1020 C   0  0  0  0  0  0  0  0  0  0  0  0
  198.0420  169.6440  135.2460 C   0  0  0  0  0  1  0  0  0  0  0  0
  198.3500  172.0840  135.0000 C   0  0  0  0  0  1  0  0  0  0  0  0
  197.7710  170.9930  135.8840 C   0  0  0  0  0  0  0  0  0  0  0  0
  198.4710  171.0460  137.2320 C   0  0  0  0  0  1  0  0  0  0  0  0
  194.8880  174.9180  137.1120 C   0  0  0  0  0  2  0  0  0  0  0  0
  195.9010  173.8040  139.0720 C   0  0  0  0  0  1  0  0  0  0  0  0
  194.8980  174.8460  138.6260 C   0  0  0  0  0  2  0  0  0  0  0  0
  189.7530  178.2630  139.7280 C   0  0  0  0  0  2  0  0  0  0  0  0
  188.8060  177.1750  139.2210 C   0  0  0  0  0  2  0  0  0  0  0  0
  187.7080  177.7410  138.3200 C   0  0  2  0  0  3  0  0  0  0  0  0
  186.4280  177.9380  139.1250 C   0  0  0  0  0  1  0  0  0  0  0  0
  188.5760  176.8720  136.2370 O   0  0  0  0  0  1  0  0  0  0  0  0
  187.4620  176.8710  137.0810 C   0  0  2  0  0  3  0  0  0  0  0  0
  186.2390  177.2870  136.3160 C   0  0  0  0  0  0  0  0  0  0  0  0
  185.2660  176.3460  135.8430 N   0  0  0  0  0  2  0  0  0  0  0  0
  186.0700  178.5110  136.0710 O   0  0  0  0  0  0  0  0  0  0  0  0
  185.3230  174.9070  136.0680 C   0  0  2  0  0  3  0  0  0  0  0  0
  184.2120  174.2400  135.2790 C   0  0  0  0  0  1  0  0  0  0  0  0
  185.1570  174.6330  137.4290 O   0  0  0  0  0  0  0  0  0  0  0  0
  184.4250  173.4460  137.4760 C   0  0  0  0  0  1  0  0  0  0  0  0
  190.7040  177.0390  141.7450 C   0  0  0  0  0  2  0  0  0  0  0  0
  191.3770  177.7600  142.8160 N   0  0  0  0  0  2  0  0  0  0  0  0
  190.4350  177.8870  143.9200 C   0  0  0  0  0  2  0  0  0  0  0  0
  189.1500  178.1280  143.4280 O   0  0  0  0  0  0  0  0  0  0  0  0
  188.3070  177.9490  144.5250 C   0  0  0  0  0  2  0  0  0  0  0  0
  185.6410  177.2500  142.2950 N   0  0  0  0  0  2  0  0  0  0  0  0
  185.0190  178.4680  142.7930 C   0  0  2  0  0  3  0  0  0  0  0  0
  185.7280  178.8210  144.4150 S   0  0  0  0  0  0  0  0  0  0  0  0
  186.9470  177.3040  142.6650 O   0  0  0  0  0  0  0  0  0  0  0  0
  186.9310  177.5210  144.0480 C   0  0  1  0  0  3  0  0  0  0  0  0
  183.4970  178.3250  142.8690 C   0  0  2  0  0  3  0  0  0  0  0  0
  183.0570  176.7090  140.5720 O   0  0  0  0  0  0  0  0  0  0  0  0
  182.8790  178.7800  141.6280 N   0  0  0  0  0  2  0  0  0  0  0  0
  182.6270  177.8940  140.5350 C   0  0  0  0  0  0  0  0  0  0  0  0
  181.8190  178.3810  139.3660 C   0  0  2  0  0  3  0  0  0  0  0  0
  179.4970  178.8080  138.5880 C   0  0  0  0  0  1  0  0  0  0  0  0
  180.3860  178.6350  139.8080 C   0  0  0  0  0  2  0  0  0  0  0  0
  181.8410  177.3800  138.2100 C   0  0  0  0  0  2  0  0  0  0  0  0
  182.1620  178.0620  136.8860 C   0  0  0  0  0  2  0  0  0  0  0  0
  181.4420  178.2870  134.6170 O   0  0  0  0  0  1  0  0  0  0  0  0
  181.3490  177.4710  135.7450 C   0  0  0  0  0  2  0  0  0  0  0  0
  182.8110  178.2730  145.1850 O   0  0  0  0  0  1  0  0  0  0  0  0
  182.9270  179.1000  144.0660 C   0  0  2  0  0  3  0  0  0  0  0  0
  180.4350  178.7550  143.8170 C   0  0  0  0  0  1  0  0  0  0  0  0
  181.5810  179.7530  143.7560 C   0  0  0  0  0  2  0  0  0  0  0  0
  1  2  1  6  0  0  0
  1 41  1  0  0  0  0
  3  2  1  0  0  0  0
  4  3  1  0  0  0  0
  5 20  1  0  0  0  0
  6  7  1  0  0  0  0
  7 14  1  0  0  0  0
  8 15  1  0  0  0  0
  8 13  1  0  0  0  0
  9 13  2  0  0  0  0
  9  4  1  0  0  0  0
 10  5  2  0  0  0  0
 11 17  1  0  0  0  0
 12 16  2  0  0  0  0
 13 25  1  0  0  0  0
 14 20  2  0  0  0  0
 14  8  1  0  0  0  0
 15 18  2  0  0  0  0
 16 18  1  0  0  0  0
 17  7  2  0  0  0  0
 17 10  1  0  0  0  0
 19 12  1  0  0  0  0
 19 15  1  0  0  0  0
 20  9  1  0  0  0  0
 21 23  1  0  0  0  0
 22 23  1  0  0  0  0
 23 12  1  0  0  0  0
 23 24  1  0  0  0  0
 25 27  1  0  0  0  0
 27 26  1  0  0  0  0
 28  1  1  0  0  0  0
 29 28  1  0  0  0  0
 30 31  1  1  0  0  0
 30 29  1  0  0  0  0
 33 32  1  6  0  0  0
 33 30  1  0  0  0  0
 34 33  1  0  0  0  0
 35 37  1  0  0  0  0
 35 34  1  0  0  0  0
 36 34  2  0  0  0  0
 37 38  1  6  0  0  0
 37 39  1  0  0  0  0
 39 40  1  0  0  0  0
 41 42  1  0  0  0  0
 42 43  1  0  0  0  0
 44 43  1  0  0  0  0
 44 45  1  0  0  0  0
 46 49  1  0  0  0  0
 46 47  1  0  0  0  0
 47 51  1  1  0  0  0
 47 48  1  0  0  0  0
 49 50  1  0  0  0  0
 50 48  1  0  0  0  0
 50 45  1  6  0  0  0
 51 53  1  6  0  0  0
 51 63  1  0  0  0  0
 54 52  2  0  0  0  0
 54 53  1  0  0  0  0
 55 58  1  6  0  0  0
 55 57  1  0  0  0  0
 55 54  1  0  0  0  0
 56 57  1  0  0  0  0
 59 58  1  0  0  0  0
 60 61  1  0  0  0  0
 61 59  1  0  0  0  0
 63 62  1  1  0  0  0
 65 64  1  0  0  0  0
 65 63  1  0  0  0  0
M  END
>  <MODEL>
8

>  <REMARK>
 VINA RESULT:      -4.3      2.802      6.866
  Name = 
  29 active torsions:
  status: ('A' for Active; 'I' for Inactive)
    1  A    between atoms: N_1  and  C_23
    2  A    between atoms: N_1  and  C_41
    3  A    between atoms: C_2  and  N_15
    4  A    between atoms: C_2  and  O_25
    5  A    between atoms: C_4  and  C_60
    6  A    between atoms: C_5  and  C_6
    7  A    between atoms: C_5  and  C_12
    8  A    between atoms: C_5  and  C_23
    9  A    between atoms: C_6  and  C_14
   10  A    between atoms: C_11  and  C_49
   11  A    between atoms: C_12  and  C_40
   12  A    between atoms: C_14  and  C_43
   13  A    between atoms: C_19  and  C_21
   14  A    between atoms: C_19  and  C_58
   15  A    between atoms: C_21  and  C_26
   16  A    between atoms: N_22  and  C_49
   17  A    between atoms: C_27  and  C_43
   18  A    between atoms: C_29  and  C_40
   19  A    between atoms: C_29  and  C_60
   20  A    between atoms: C_33  and  C_47
   21  A    between atoms: C_36  and  C_56
   22  A    between atoms: C_37  and  O_46
   23  A    between atoms: C_37  and  C_65
   24  A    between atoms: C_41  and  O_46
   25  A    between atoms: C_45  and  C_56
   26  A    between atoms: C_49  and  C_52
   27  A    between atoms: C_52  and  C_64
   28  A    between atoms: C_58  and  C_61
   29  A    between atoms: C_58  and  C_62
                            x       y       z     vdW  Elec       q    Type
                         _______ _______ _______ _____ _____    ______ ____

>  <TORSDO>
F 29

$$$$
=
 OpenBabel11042410133D

 65 68  0  0  1  0  0  0  0  0999 V2000
  189.4690  177.1550  141.2980 C   0  0  1  0  0  3  0  0  0  0  0  0
  189.1280  177.0850  139.8050 C   0  0  0  0  0  2  0  0  0  0  0  0
  189.3400  178.4150  139.0870 C   0  0  0  0  0  2  0  0  0  0  0  0
  189.3820  178.2350  137.5760 C   0  0  0  0  0  2  0  0  0  0  0  0
  187.4940  175.7510  136.9070 C   0  0  0  0  0  3  0  0  0  0  0  0
  189.8050  172.3640  135.8720 O   0  0  0  0  0  1  0  0  0  0  0  0
  189.0570  173.4710  136.2530 C   0  0  0  0  0  0  0  0  0  0  0  0
  190.9770  175.0010  136.7220 N   0  0  0  0  0  0  0  0  0  0  0  0
  189.7430  176.8340  137.1890 C   0  0  0  0  0  0  0  0  0  0  0  0
  186.8770  174.5370  136.5700 C   0  0  0  0  0  3  0  0  0  0  0  0
  187.0100  172.2220  135.8900 O   0  0  0  0  0  1  0  0  0  0  0  0
  194.0990  173.5360  136.2310 C   0  0  0  0  0  0  0  0  0  0  0  0
  191.0240  176.3190  137.0490 C   0  0  0  0  0  0  0  0  0  0  0  0
  189.6590  174.6850  136.6290 C   0  0  0  0  0  0  0  0  0  0  0  0
  192.1240  174.1440  136.6060 C   0  0  0  0  0  0  0  0  0  0  0  0
  193.4290  172.4750  136.8160 C   0  0  0  0  0  3  0  0  0  0  0  0
  187.6490  173.4050  136.2400 C   0  0  0  0  0  0  0  0  0  0  0  0
  192.1610  172.8700  137.0510 N   0  0  0  0  0  0  0  0  0  0  0  0
  193.2740  174.5480  136.1250 O   0  0  0  0  0  0  0  0  0  0  0  0
  188.8870  175.7900  136.9160 C   0  0  0  0  0  0  0  0  0  0  0  0
  195.9490  175.0080  135.5320 C   0  0  0  0  0  1  0  0  0  0  0  0
  196.4310  173.0420  136.9500 C   0  0  0  0  0  1  0  0  0  0  0  0
  195.5500  173.5770  135.8350 C   0  0  0  0  0  0  0  0  0  0  0  0
  195.7820  172.7310  134.5940 C   0  0  0  0  0  1  0  0  0  0  0  0
  192.2790  177.0740  137.3520 C   0  0  0  0  0  2  0  0  0  0  0  0
  193.8120  176.5840  139.2280 C   0  0  0  0  0  1  0  0  0  0  0  0
  192.4730  177.1800  138.8510 C   0  0  0  0  0  2  0  0  0  0  0  0
  190.9770  177.2030  141.5410 C   0  0  0  0  0  2  0  0  0  0  0  0
  191.3560  178.0110  142.7810 C   0  0  0  0  0  2  0  0  0  0  0  0
  191.6140  177.1190  143.9950 C   0  0  2  0  0  3  0  0  0  0  0  0
  191.8610  175.6840  143.5390 C   0  0  0  0  0  1  0  0  0  0  0  0
  189.8820  178.4540  145.0270 O   0  0  0  0  0  1  0  0  0  0  0  0
  190.4810  177.1910  145.0260 C   0  0  2  0  0  3  0  0  0  0  0  0
  190.9380  176.8400  146.4130 C   0  0  0  0  0  0  0  0  0  0  0  0
  190.1550  177.1260  147.5800 N   0  0  0  0  0  2  0  0  0  0  0  0
  192.0590  176.2840  146.5530 O   0  0  0  0  0  0  0  0  0  0  0  0
  188.8370  177.7480  147.5650 C   0  0  2  0  0  3  0  0  0  0  0  0
  188.7120  178.6660  148.7670 C   0  0  0  0  0  1  0  0  0  0  0  0
  187.8470  176.7610  147.6260 O   0  0  0  0  0  0  0  0  0  0  0  0
  187.9830  176.1880  148.8920 C   0  0  0  0  0  1  0  0  0  0  0  0
  188.7150  178.2480  142.0510 C   0  0  0  0  0  2  0  0  0  0  0  0
  187.3050  177.9010  142.1570 N   0  0  0  0  0  2  0  0  0  0  0  0
  186.7670  178.5950  143.3180 C   0  0  0  0  0  2  0  0  0  0  0  0
  185.4240  178.2580  143.4990 O   0  0  0  0  0  0  0  0  0  0  0  0
  185.0180  177.7310  142.2730 C   0  0  0  0  0  2  0  0  0  0  0  0
  181.6670  178.8610  142.0250 N   0  0  0  0  0  2  0  0  0  0  0  0
  181.5670  178.0320  140.8330 C   0  0  2  0  0  3  0  0  0  0  0  0
  183.2390  177.7640  140.2090 S   0  0  0  0  0  0  0  0  0  0  0  0
  182.7730  178.4430  142.6940 O   0  0  0  0  0  0  0  0  0  0  0  0
  183.8140  178.4990  141.7590 C   0  0  1  0  0  3  0  0  0  0  0  0
  180.6750  178.6860  139.7740 C   0  0  2  0  0  3  0  0  0  0  0  0
  180.5060  175.8610  140.0420 O   0  0  0  0  0  0  0  0  0  0  0  0
  180.4100  177.7540  138.6840 N   0  0  0  0  0  2  0  0  0  0  0  0
  180.2710  176.3470  138.9020 C   0  0  0  0  0  0  0  0  0  0  0  0
  179.8120  175.4700  137.7730 C   0  0  2  0  0  3  0  0  0  0  0  0
  179.7200  172.9860  137.7420 C   0  0  0  0  0  1  0  0  0  0  0  0
  180.6410  174.1950  137.7490 C   0  0  0  0  0  2  0  0  0  0  0  0
  179.9130  176.1860  136.4260 C   0  0  0  0  0  2  0  0  0  0  0  0
  181.3610  176.4890  136.0610 C   0  0  0  0  0  2  0  0  0  0  0  0
  183.2350  175.0040  136.0330 O   0  0  0  0  0  1  0  0  0  0  0  0
  182.0290  175.2960  135.3950 C   0  0  0  0  0  2  0  0  0  0  0  0
  180.8060  181.0950  139.8950 O   0  0  0  0  0  1  0  0  0  0  0  0
  181.3110  179.9740  139.2340 C   0  0  2  0  0  3  0  0  0  0  0  0
  180.2200  181.3000  137.3780 C   0  0  0  0  0  1  0  0  0  0  0  0
  181.1290  180.1310  137.7250 C   0  0  0  0  0  2  0  0  0  0  0  0
  1  2  1  6  0  0  0
  1 28  1  0  0  0  0
  1 41  1  0  0  0  0
  3  2  1  0  0  0  0
  4  3  1  0  0  0  0
  5 20  1  0  0  0  0
  6  7  1  0  0  0  0
  7 14  1  0  0  0  0
  8 13  1  0  0  0  0
  9  4  1  0  0  0  0
 10  5  2  0  0  0  0
 11 17  1  0  0  0  0
 12 16  2  0  0  0  0
 13  9  2  0  0  0  0
 13 25  1  0  0  0  0
 14  8  1  0  0  0  0
 14 20  2  0  0  0  0
 15  8  1  0  0  0  0
 15 18  2  0  0  0  0
 16 18  1  0  0  0  0
 17  7  2  0  0  0  0
 17 10  1  0  0  0  0
 19 12  1  0  0  0  0
 19 15  1  0  0  0  0
 20  9  1  0  0  0  0
 21 23  1  0  0  0  0
 23 12  1  0  0  0  0
 23 22  1  0  0  0  0
 24 23  1  0  0  0  0
 25 27  1  0  0  0  0
 27 26  1  0  0  0  0
 28 29  1  0  0  0  0
 29 30  1  0  0  0  0
 30 31  1  6  0  0  0
 30 33  1  0  0  0  0
 33 32  1  1  0  0  0
 33 34  1  0  0  0  0
 34 36  2  0  0  0  0
 34 35  1  0  0  0  0
 37 35  1  0  0  0  0
 37 39  1  0  0  0  0
 37 38  1  1  0  0  0
 39 40  1  0  0  0  0
 41 42  1  0  0  0  0
 42 43  1  0  0  0  0
 43 44  1  0  0  0  0
 45 44  1  0  0  0  0
 46 49  1  0  0  0  0
 47 51  1  6  0  0  0
 47 46  1  0  0  0  0
 48 47  1  0  0  0  0
 48 50  1  0  0  0  0
 50 45  1  1  0  0  0
 50 49  1  0  0  0  0
 51 53  1  6  0  0  0
 53 54  1  0  0  0  0
 54 52  2  0  0  0  0
 55 58  1  6  0  0  0
 55 54  1  0  0  0  0
 56 57  1  0  0  0  0
 57 55  1  0  0  0  0
 59 58  1  0  0  0  0
 61 60  1  0  0  0  0
 61 59  1  0  0  0  0
 63 51  1  0  0  0  0
 63 62  1  1  0  0  0
 64 65  1  0  0  0  0
 65 63  1  0  0  0  0
M  END
>  <MODEL>
9

>  <REMARK>
 VINA RESULT:      -4.2      2.065      5.031
  Name = 
  29 active torsions:
  status: ('A' for Active; 'I' for Inactive)
    1  A    between atoms: N_1  and  C_23
    2  A    between atoms: N_1  and  C_41
    3  A    between atoms: C_2  and  N_15
    4  A    between atoms: C_2  and  O_25
    5  A    between atoms: C_4  and  C_60
    6  A    between atoms: C_5  and  C_6
    7  A    between atoms: C_5  and  C_12
    8  A    between atoms: C_5  and  C_23
    9  A    between atoms: C_6  and  C_14
   10  A    between atoms: C_11  and  C_49
   11  A    between atoms: C_12  and  C_40
   12  A    between atoms: C_14  and  C_43
   13  A    between atoms: C_19  and  C_21
   14  A    between atoms: C_19  and  C_58
   15  A    between atoms: C_21  and  C_26
   16  A    between atoms: N_22  and  C_49
   17  A    between atoms: C_27  and  C_43
   18  A    between atoms: C_29  and  C_40
   19  A    between atoms: C_29  and  C_60
   20  A    between atoms: C_33  and  C_47
   21  A    between atoms: C_36  and  C_56
   22  A    between atoms: C_37  and  O_46
   23  A    between atoms: C_37  and  C_65
   24  A    between atoms: C_41  and  O_46
   25  A    between atoms: C_45  and  C_56
   26  A    between atoms: C_49  and  C_52
   27  A    between atoms: C_52  and  C_64
   28  A    between atoms: C_58  and  C_61
   29  A    between atoms: C_58  and  C_62
                            x       y       z     vdW  Elec       q    Type
                         _______ _______ _______ _____ _____    ______ ____

>  <TORSDO>
F 29

$$$$
