=
 OpenBabel11032421143D

 50 56  0  0  1  0  0  0  0  0999 V2000
  193.1030  176.2210  138.0150 N   0  0  0  0  0  0  0  0  0  0  0  0
  190.5040  177.6710  141.3060 N   0  0  0  0  0  0  0  0  0  0  0  0
  188.8260  177.5870  139.5480 C   0  0  0  0  0  0  0  0  0  0  0  0
  190.1110  177.3570  139.9480 C   0  0  0  0  0  0  0  0  0  0  0  0
  187.8750  178.3260  140.4610 C   0  0  0  0  0  2  0  0  0  0  0  0
  188.2090  178.1410  141.9330 C   0  0  0  0  0  2  0  0  0  0  0  0
  193.9250  174.4050  137.1370 C   0  0  0  0  0  3  0  0  0  0  0  0
  192.6040  177.1010  139.0530 C   0  0  0  0  0  2  0  0  0  0  0  0
  188.3030  177.3160  138.1760 C   0  0  0  0  0  0  0  0  0  0  0  0
  189.5170  175.2010  137.9340 C   0  0  1  0  0  3  0  0  0  0  0  0
  192.1410  175.4640  137.5400 C   0  0  0  0  0  0  0  0  0  0  0  0
  192.5760  174.3170  136.9950 N   0  0  0  0  0  0  0  0  0  0  0  0
  191.1240  176.7640  139.0360 C   0  0  0  0  0  0  0  0  0  0  0  0
  189.5230  174.0760  136.9160 C   0  0  0  0  0  1  0  0  0  0  0  0
  190.8730  175.7870  138.1600 C   0  0  0  0  0  0  0  0  0  0  0  0
  189.6600  178.5240  142.1370 C   0  0  0  0  0  2  0  0  0  0  0  0
  187.3500  178.2330  137.6270 N   0  0  0  0  0  2  0  0  0  0  0  0
  188.6190  176.2520  137.4870 N   0  0  0  0  0  0  0  0  0  0  0  0
  194.2590  175.5690  137.8320 C   0  0  0  0  0  3  0  0  0  0  0  0
  186.7990  178.0600  136.3470 N   0  0  0  0  0  2  0  0  0  0  0  0
  185.4690  177.4950  136.5100 C   0  0  0  0  0  2  0  0  0  0  0  0
  184.9380  177.8220  137.9040 C   0  0  0  0  0  2  0  0  0  0  0  0
  181.8450  178.8760  140.7740 C   0  0  0  0  0  0  0  0  0  0  0  0
  183.0100  178.8000  140.2300 N   0  0  0  0  0  0  0  0  0  0  0  0
  182.8210  177.7190  136.5680 C   0  0  0  0  0  2  0  0  0  0  0  0
  181.3310  179.1770  138.5760 C   0  0  2  0  0  3  0  0  0  0  0  0
  181.6510  178.7510  142.1780 N   0  0  0  0  0  1  0  0  0  0  0  0
  181.3980  178.2920  136.5050 C   0  0  0  0  0  2  0  0  0  0  0  0
  180.7640  178.1790  137.7560 O   0  0  0  0  0  0  0  0  0  0  0  0
  183.4110  177.7560  137.9900 C   0  0  2  0  0  0  0  0  0  0  0  0
  182.8540  178.9650  138.7890 C   0  0  2  0  0  3  0  0  0  0  0  0
  180.8050  179.0770  139.8880 O   0  0  0  0  0  0  0  0  0  0  0  0
  183.0510  176.4370  138.6660 C   0  0  0  0  0  1  0  0  0  0  0  0
  191.5380  176.8790  141.9690 C   0  0  0  0  0  2  0  0  0  0  0  0
  190.9530  176.0220  143.0480 C   0  0  0  0  0  0  0  0  0  0  0  0
  189.9590  175.3530  142.8260 O   0  0  0  0  0  0  0  0  0  0  0  0
  191.6010  175.9930  144.3910 C   0  0  0  0  0  2  0  0  0  0  0  0
  191.4550  177.3390  145.0820 C   0  0  0  0  0  2  0  0  0  0  0  0
  190.0500  177.7150  145.1460 N   0  0  0  0  0  2  0  0  0  0  0  0
  189.1950  177.3880  146.2500 C   0  0  0  0  0  0  0  0  0  0  0  0
  189.6730  176.8140  147.2680 O   0  0  0  0  0  0  0  0  0  0  0  0
  186.1480  180.0730  147.0860 F   0  0  0  0  0  0  0  0  0  0  0  0
  187.7570  177.7130  146.1950 C   0  0  0  0  0  0  0  0  0  0  0  0
  187.1290  177.7680  145.0110 C   0  0  0  0  0  3  0  0  0  0  0  0
  185.7500  178.7650  147.3110 C   0  0  2  0  0  3  0  0  0  0  0  0
  183.8290  179.1570  145.9230 O   0  0  0  0  0  1  0  0  0  0  0  0
  185.6870  178.0480  144.9110 C   0  0  0  0  0  0  0  0  0  0  0  0
  185.1290  178.0370  143.7820 O   0  0  0  0  0  0  0  0  0  0  0  0
  186.9810  177.8710  147.4810 C   0  0  0  0  0  2  0  0  0  0  0  0
  184.8730  178.2590  146.1600 C   0  0  1  0  0  3  0  0  0  0  0  0
  1  8  1  0  0  0  0
  2 34  1  0  0  0  0
  2 16  1  0  0  0  0
  3  4  2  0  0  0  0
  3  5  1  0  0  0  0
  4  2  1  0  0  0  0
  5  6  1  0  0  0  0
  6 16  1  0  0  0  0
  7 19  2  0  0  0  0
  9  3  1  0  0  0  0
 10 14  1  6  0  0  0
 10 15  1  0  0  0  0
 11  1  1  0  0  0  0
 11 15  1  0  0  0  0
 12  7  1  0  0  0  0
 12 11  2  0  0  0  0
 13  8  1  0  0  0  0
 13  4  1  0  0  0  0
 15 13  2  0  0  0  0
 17  9  1  0  0  0  0
 18 10  1  0  0  0  0
 18  9  2  0  0  0  0
 19  1  1  0  0  0  0
 20 21  1  0  0  0  0
 20 17  1  0  0  0  0
 21 22  1  0  0  0  0
 22 30  1  0  0  0  0
 23 27  1  0  0  0  0
 24 23  2  0  0  0  0
 25 30  1  0  0  0  0
 26 29  1  6  0  0  0
 26 31  1  0  0  0  0
 26 32  1  0  0  0  0
 28 25  1  0  0  0  0
 28 29  1  0  0  0  0
 30 33  1  1  0  0  0
 30 31  1  0  0  0  0
 31 24  1  1  0  0  0
 32 23  1  0  0  0  0
 34 35  1  0  0  0  0
 35 37  1  0  0  0  0
 36 35  2  0  0  0  0
 37 38  1  0  0  0  0
 38 39  1  0  0  0  0
 39 40  1  0  0  0  0
 40 41  2  0  0  0  0
 43 40  1  0  0  0  0
 43 49  1  0  0  0  0
 44 43  2  0  0  0  0
 45 42  1  6  0  0  0
 45 49  1  0  0  0  0
 47 44  1  0  0  0  0
 47 50  1  0  0  0  0
 48 47  2  0  0  0  0
 50 46  1  6  0  0  0
 50 45  1  0  0  0  0
M  END
>  <MODEL>
1

>  <REMARK>
 VINA RESULT:      -9.7      0.000      0.000
  Name = 
  10 active torsions:
  status: ('A' for Active; 'I' for Inactive)
    1  A    between atoms: N_2  and  C_43
    2  A    between atoms: C_7  and  C_18
    3  A    between atoms: C_7  and  N_32
    4  A    between atoms: C_13  and  C_39
    5  A    between atoms: C_15  and  C_31
    6  A    between atoms: C_15  and  N_33
    7  A    between atoms: C_18  and  C_23
    8  A    between atoms: C_23  and  C_43
    9  A    between atoms: C_31  and  C_38
   10  A    between atoms: N_33  and  N_46
                            x       y       z     vdW  Elec       q    Type
                         _______ _______ _______ _____ _____    ______ ____

>  <TORSDO>
F 10

$$$$
=
 OpenBabel11032421143D

 50 56  0  0  1  0  0  0  0  0999 V2000
  193.3040  175.8480  137.9170 N   0  0  0  0  0  0  0  0  0  0  0  0
  190.4870  177.4780  140.9330 N   0  0  0  0  0  0  0  0  0  0  0  0
  188.9290  177.2740  139.0770 C   0  0  0  0  0  0  0  0  0  0  0  0
  190.1860  177.0780  139.5750 C   0  0  0  0  0  0  0  0  0  0  0  0
  187.9180  178.0600  139.8770 C   0  0  0  0  0  2  0  0  0  0  0  0
  188.1540  177.9690  141.3770 C   0  0  0  0  0  2  0  0  0  0  0  0
  194.1880  173.9880  137.2090 C   0  0  0  0  0  3  0  0  0  0  0  0
  192.7340  176.7860  138.8640 C   0  0  0  0  0  2  0  0  0  0  0  0
  188.4990  176.9150  137.6930 C   0  0  0  0  0  0  0  0  0  0  0  0
  189.7340  174.7980  137.6630 C   0  0  1  0  0  3  0  0  0  0  0  0
  192.3780  175.0560  137.4280 C   0  0  0  0  0  0  0  0  0  0  0  0
  192.8520  173.8810  136.9840 N   0  0  0  0  0  0  0  0  0  0  0  0
  191.2590  176.4370  138.7700 C   0  0  0  0  0  0  0  0  0  0  0  0
  189.8120  173.6120  136.7190 C   0  0  0  0  0  1  0  0  0  0  0  0
  191.0710  175.4070  137.9410 C   0  0  0  0  0  0  0  0  0  0  0  0
  189.5870  178.3740  141.6520 C   0  0  0  0  0  2  0  0  0  0  0  0
  187.5820  177.7890  137.0260 N   0  0  0  0  0  2  0  0  0  0  0  0
  188.8640  175.8130  137.0930 N   0  0  0  0  0  0  0  0  0  0  0  0
  194.4710  175.1940  137.8520 C   0  0  0  0  0  3  0  0  0  0  0  0
  187.1180  177.5340  135.7250 N   0  0  0  0  0  2  0  0  0  0  0  0
  185.6700  177.4210  135.7870 C   0  0  0  0  0  2  0  0  0  0  0  0
  185.2770  176.3980  136.8490 C   0  0  0  0  0  2  0  0  0  0  0  0
  181.4360  174.6090  137.8290 C   0  0  0  0  0  0  0  0  0  0  0  0
  182.6460  174.7070  137.4000 N   0  0  0  0  0  0  0  0  0  0  0  0
  184.3630  177.8880  138.6430 C   0  0  0  0  0  2  0  0  0  0  0  0
  182.3680  175.9410  139.4240 C   0  0  2  0  0  3  0  0  0  0  0  0
  180.4450  173.8480  137.1490 N   0  0  0  0  0  1  0  0  0  0  0  0
  183.4130  177.8910  139.8500 C   0  0  0  0  0  2  0  0  0  0  0  0
  182.1690  177.3360  139.5010 O   0  0  0  0  0  0  0  0  0  0  0  0
  184.0140  176.7920  137.6180 C   0  0  2  0  0  0  0  0  0  0  0  0
  183.3920  175.5560  138.3220 C   0  0  2  0  0  3  0  0  0  0  0  0
  181.1770  175.3080  138.9910 O   0  0  0  0  0  0  0  0  0  0  0  0
  183.0410  177.4000  136.6140 C   0  0  0  0  0  1  0  0  0  0  0  0
  191.4770  176.7350  141.7110 C   0  0  0  0  0  2  0  0  0  0  0  0
  190.8470  176.0750  142.8970 C   0  0  0  0  0  0  0  0  0  0  0  0
  189.7900  175.4810  142.7760 O   0  0  0  0  0  0  0  0  0  0  0  0
  191.5270  176.1480  144.2230 C   0  0  0  0  0  2  0  0  0  0  0  0
  191.3730  177.5350  144.8240 C   0  0  0  0  0  2  0  0  0  0  0  0
  189.9630  177.8840  144.9140 N   0  0  0  0  0  2  0  0  0  0  0  0
  189.1070  177.4440  145.9780 C   0  0  0  0  0  0  0  0  0  0  0  0
  189.5890  176.7850  146.9410 O   0  0  0  0  0  0  0  0  0  0  0  0
  186.0290  180.0420  146.9610 F   0  0  0  0  0  0  0  0  0  0  0  0
  187.6640  177.7530  145.9440 C   0  0  0  0  0  0  0  0  0  0  0  0
  187.0320  177.8610  144.7660 C   0  0  0  0  0  3  0  0  0  0  0  0
  185.6490  178.7190  147.1190 C   0  0  2  0  0  3  0  0  0  0  0  0
  183.7170  179.1570  145.7590 O   0  0  0  0  0  1  0  0  0  0  0  0
  185.5860  178.1270  144.6850 C   0  0  0  0  0  0  0  0  0  0  0  0
  185.0240  178.1670  143.5590 O   0  0  0  0  0  0  0  0  0  0  0  0
  186.8920  177.8330  147.2390 C   0  0  0  0  0  2  0  0  0  0  0  0
  184.7740  178.2620  145.9450 C   0  0  1  0  0  3  0  0  0  0  0  0
  1  8  1  0  0  0  0
  2 16  1  0  0  0  0
  2 34  1  0  0  0  0
  3  4  2  0  0  0  0
  3  5  1  0  0  0  0
  4  2  1  0  0  0  0
  5  6  1  0  0  0  0
  6 16  1  0  0  0  0
  7 19  2  0  0  0  0
  9  3  1  0  0  0  0
 10 14  1  6  0  0  0
 10 15  1  0  0  0  0
 11  1  1  0  0  0  0
 11 15  1  0  0  0  0
 12  7  1  0  0  0  0
 12 11  2  0  0  0  0
 13  8  1  0  0  0  0
 13  4  1  0  0  0  0
 15 13  2  0  0  0  0
 17  9  1  0  0  0  0
 18 10  1  0  0  0  0
 18  9  2  0  0  0  0
 19  1  1  0  0  0  0
 20 21  1  0  0  0  0
 20 17  1  0  0  0  0
 21 22  1  0  0  0  0
 22 30  1  0  0  0  0
 23 32  1  0  0  0  0
 24 23  2  0  0  0  0
 25 28  1  0  0  0  0
 26 32  1  6  0  0  0
 26 29  1  0  0  0  0
 27 23  1  0  0  0  0
 29 28  1  0  0  0  0
 30 33  1  6  0  0  0
 30 31  1  0  0  0  0
 30 25  1  0  0  0  0
 31 24  1  6  0  0  0
 31 26  1  0  0  0  0
 34 35  1  0  0  0  0
 35 37  1  0  0  0  0
 36 35  2  0  0  0  0
 37 38  1  0  0  0  0
 38 39  1  0  0  0  0
 39 40  1  0  0  0  0
 40 41  2  0  0  0  0
 43 40  1  0  0  0  0
 43 49  1  0  0  0  0
 44 43  2  0  0  0  0
 45 42  1  6  0  0  0
 45 49  1  0  0  0  0
 47 44  1  0  0  0  0
 47 50  1  0  0  0  0
 48 47  2  0  0  0  0
 50 46  1  6  0  0  0
 50 45  1  0  0  0  0
M  END
>  <MODEL>
2

>  <REMARK>
 VINA RESULT:      -9.7      1.451      1.939
  Name = 
  10 active torsions:
  status: ('A' for Active; 'I' for Inactive)
    1  A    between atoms: N_2  and  C_43
    2  A    between atoms: C_7  and  C_18
    3  A    between atoms: C_7  and  N_32
    4  A    between atoms: C_13  and  C_39
    5  A    between atoms: C_15  and  C_31
    6  A    between atoms: C_15  and  N_33
    7  A    between atoms: C_18  and  C_23
    8  A    between atoms: C_23  and  C_43
    9  A    between atoms: C_31  and  C_38
   10  A    between atoms: N_33  and  N_46
                            x       y       z     vdW  Elec       q    Type
                         _______ _______ _______ _____ _____    ______ ____

>  <TORSDO>
F 10

$$$$
=
 OpenBabel11032421143D

 50 56  0  0  1  0  0  0  0  0999 V2000
  186.1530  178.4300  138.6290 N   0  0  0  0  0  0  0  0  0  0  0  0
  182.5480  178.3220  141.2130 N   0  0  0  0  0  0  0  0  0  0  0  0
  181.4670  177.8390  139.0890 C   0  0  0  0  0  0  0  0  0  0  0  0
  182.6170  178.0660  139.7900 C   0  0  0  0  0  0  0  0  0  0  0  0
  180.1270  178.0300  139.7600 C   0  0  0  0  0  2  0  0  0  0  0  0
  180.1820  177.7920  141.2610 C   0  0  0  0  0  2  0  0  0  0  0  0
  187.8050  177.2000  137.9200 C   0  0  0  0  0  3  0  0  0  0  0  0
  185.1310  178.9040  139.5400 C   0  0  0  0  0  2  0  0  0  0  0  0
  181.4070  177.5750  137.6210 C   0  0  0  0  0  0  0  0  0  0  0  0
  183.3920  176.1370  137.6140 C   0  0  1  0  0  3  0  0  0  0  0  0
  185.7040  177.4330  137.9010 C   0  0  0  0  0  0  0  0  0  0  0  0
  186.6710  176.6230  137.4410 N   0  0  0  0  0  0  0  0  0  0  0  0
  183.9530  178.0330  139.1400 C   0  0  0  0  0  0  0  0  0  0  0  0
  184.0710  175.2470  136.5900 C   0  0  0  0  0  1  0  0  0  0  0  0
  184.3130  177.1610  138.1940 C   0  0  0  0  0  0  0  0  0  0  0  0
  181.2740  178.6690  141.8360 C   0  0  0  0  0  2  0  0  0  0  0  0
  180.3090  178.1230  136.8840 N   0  0  0  0  0  2  0  0  0  0  0  0
  182.2660  176.8150  136.9950 N   0  0  0  0  0  0  0  0  0  0  0  0
  187.4830  178.2990  138.7180 C   0  0  0  0  0  3  0  0  0  0  0  0
  180.1640  177.9250  135.5010 N   0  0  0  0  0  2  0  0  0  0  0  0
  180.1410  179.2330  134.8660 C   0  0  0  0  0  2  0  0  0  0  0  0
  181.0990  180.1740  135.5920 C   0  0  0  0  0  2  0  0  0  0  0  0
  179.6830  182.1710  139.1860 C   0  0  0  0  0  0  0  0  0  0  0  0
  180.2640  181.2950  138.4430 N   0  0  0  0  0  0  0  0  0  0  0  0
  180.7980  182.5540  134.8740 C   0  0  0  0  0  2  0  0  0  0  0  0
  180.6530  183.4960  137.6070 C   0  0  2  0  0  3  0  0  0  0  0  0
  178.9310  181.8150  140.3400 N   0  0  0  0  0  1  0  0  0  0  0  0
  180.7890  183.9920  135.4140 C   0  0  0  0  0  2  0  0  0  0  0  0
  179.9510  184.0920  136.5390 O   0  0  0  0  0  0  0  0  0  0  0  0
  180.4560  181.5140  135.9570 C   0  0  2  0  0  0  0  0  0  0  0  0
  180.9380  181.9910  137.3540 C   0  0  2  0  0  3  0  0  0  0  0  0
  179.8400  183.4780  138.7670 O   0  0  0  0  0  0  0  0  0  0  0  0
  178.9450  181.3140  135.9360 C   0  0  0  0  0  1  0  0  0  0  0  0
  183.6430  177.9040  142.0850 C   0  0  0  0  0  2  0  0  0  0  0  0
  183.9830  178.9720  143.0770 C   0  0  0  0  0  0  0  0  0  0  0  0
  184.6910  179.9080  142.7480 O   0  0  0  0  0  0  0  0  0  0  0  0
  183.4430  178.8820  144.4640 C   0  0  0  0  0  2  0  0  0  0  0  0
  184.5650  179.0060  145.4810 C   0  0  0  0  0  2  0  0  0  0  0  0
  185.7970  178.4570  144.9320 N   0  0  0  0  0  2  0  0  0  0  0  0
  186.8640  177.9470  145.7430 C   0  0  0  0  0  0  0  0  0  0  0  0
  186.7270  177.8830  146.9960 O   0  0  0  0  0  0  0  0  0  0  0  0
  189.5460  178.2680  142.5970 F   0  0  0  0  0  0  0  0  0  0  0  0
  188.1240  177.5030  145.1150 C   0  0  0  0  0  0  0  0  0  0  0  0
  189.2830  177.6370  145.7770 C   0  0  0  0  0  3  0  0  0  0  0  0
  189.3910  176.9520  143.0010 C   0  0  2  0  0  3  0  0  0  0  0  0
  191.7790  176.7750  143.1920 O   0  0  0  0  0  1  0  0  0  0  0  0
  190.5580  177.1710  145.2070 C   0  0  0  0  0  0  0  0  0  0  0  0
  191.6140  177.2680  145.8860 O   0  0  0  0  0  0  0  0  0  0  0  0
  188.0810  176.8000  143.7790 C   0  0  0  0  0  2  0  0  0  0  0  0
  190.5800  176.5040  143.8580 C   0  0  1  0  0  3  0  0  0  0  0  0
  1 19  1  0  0  0  0
  1  8  1  0  0  0  0
  2 16  1  0  0  0  0
  2 34  1  0  0  0  0
  3  5  1  0  0  0  0
  3  4  2  0  0  0  0
  4  2  1  0  0  0  0
  5  6  1  0  0  0  0
  6 16  1  0  0  0  0
  7 19  2  0  0  0  0
  9  3  1  0  0  0  0
 10 14  1  6  0  0  0
 10 15  1  0  0  0  0
 11 15  1  0  0  0  0
 11  1  1  0  0  0  0
 12 11  2  0  0  0  0
 12  7  1  0  0  0  0
 13  8  1  0  0  0  0
 13  4  1  0  0  0  0
 15 13  2  0  0  0  0
 17  9  1  0  0  0  0
 18 10  1  0  0  0  0
 18  9  2  0  0  0  0
 20 17  1  0  0  0  0
 21 20  1  0  0  0  0
 21 22  1  0  0  0  0
 22 30  1  0  0  0  0
 23 27  1  0  0  0  0
 24 23  2  0  0  0  0
 25 28  1  0  0  0  0
 25 30  1  0  0  0  0
 26 29  1  6  0  0  0
 26 32  1  0  0  0  0
 28 29  1  0  0  0  0
 30 33  1  1  0  0  0
 30 31  1  0  0  0  0
 31 26  1  0  0  0  0
 31 24  1  1  0  0  0
 32 23  1  0  0  0  0
 34 35  1  0  0  0  0
 35 37  1  0  0  0  0
 36 35  2  0  0  0  0
 37 38  1  0  0  0  0
 39 38  1  0  0  0  0
 39 40  1  0  0  0  0
 40 41  2  0  0  0  0
 43 40  1  0  0  0  0
 43 44  2  0  0  0  0
 45 42  1  1  0  0  0
 45 49  1  0  0  0  0
 45 50  1  0  0  0  0
 47 44  1  0  0  0  0
 47 48  2  0  0  0  0
 49 43  1  0  0  0  0
 50 46  1  6  0  0  0
 50 47  1  0  0  0  0
M  END
>  <MODEL>
3

>  <REMARK>
 VINA RESULT:      -8.5      3.146      6.293
  Name = 
  10 active torsions:
  status: ('A' for Active; 'I' for Inactive)
    1  A    between atoms: N_2  and  C_43
    2  A    between atoms: C_7  and  C_18
    3  A    between atoms: C_7  and  N_32
    4  A    between atoms: C_13  and  C_39
    5  A    between atoms: C_15  and  C_31
    6  A    between atoms: C_15  and  N_33
    7  A    between atoms: C_18  and  C_23
    8  A    between atoms: C_23  and  C_43
    9  A    between atoms: C_31  and  C_38
   10  A    between atoms: N_33  and  N_46
                            x       y       z     vdW  Elec       q    Type
                         _______ _______ _______ _____ _____    ______ ____

>  <TORSDO>
F 10

$$$$
=
 OpenBabel11032421143D

 50 56  0  0  1  0  0  0  0  0999 V2000
  190.8910  173.0860  136.3300 N   0  0  0  0  0  0  0  0  0  0  0  0
  187.8080  176.1700  137.1520 N   0  0  0  0  0  0  0  0  0  0  0  0
  189.4890  176.9270  138.7380 C   0  0  0  0  0  0  0  0  0  0  0  0
  189.1240  176.0620  137.7470 C   0  0  0  0  0  0  0  0  0  0  0  0
  188.4670  177.8700  139.3270 C   0  0  0  0  0  2  0  0  0  0  0  0
  187.3680  178.2370  138.3420 C   0  0  0  0  0  2  0  0  0  0  0  0
  192.5480  172.6150  134.9980 C   0  0  0  0  0  3  0  0  0  0  0  0
  189.6200  173.6480  136.7410 C   0  0  0  0  0  2  0  0  0  0  0  0
  190.8100  176.9100  139.4350 C   0  0  0  0  0  0  0  0  0  0  0  0
  192.0870  176.4550  137.3930 C   0  0  1  0  0  3  0  0  0  0  0  0
  191.8570  173.9640  136.4710 C   0  0  0  0  0  0  0  0  0  0  0  0
  192.9090  173.7420  135.6660 N   0  0  0  0  0  0  0  0  0  0  0  0
  190.0500  175.0180  137.2340 C   0  0  0  0  0  0  0  0  0  0  0  0
  193.5610  176.4030  137.0360 C   0  0  0  0  0  1  0  0  0  0  0  0
  191.3610  175.1950  137.0470 C   0  0  0  0  0  0  0  0  0  0  0  0
  186.7670  176.9520  137.8100 C   0  0  0  0  0  2  0  0  0  0  0  0
  190.8340  177.2090  140.8350 N   0  0  0  0  0  2  0  0  0  0  0  0
  191.9420  176.7050  138.8170 N   0  0  0  0  0  0  0  0  0  0  0  0
  191.2560  172.2330  135.3640 C   0  0  0  0  0  3  0  0  0  0  0  0
  192.0280  177.2220  141.5750 N   0  0  0  0  0  2  0  0  0  0  0  0
  191.6910  176.9490  142.9630 C   0  0  0  0  0  2  0  0  0  0  0  0
  190.2650  176.4130  143.0510 C   0  0  0  0  0  2  0  0  0  0  0  0
  186.2450  178.0720  143.0320 C   0  0  0  0  0  0  0  0  0  0  0  0
  187.2660  177.3810  142.6600 N   0  0  0  0  0  0  0  0  0  0  0  0
  189.8620  177.0340  145.4430 C   0  0  0  0  0  2  0  0  0  0  0  0
  187.0090  177.2940  145.0320 C   0  0  2  0  0  3  0  0  0  0  0  0
  185.4160  178.7650  142.1060 N   0  0  0  0  0  1  0  0  0  0  0  0
  188.7390  177.2340  146.4720 C   0  0  0  0  0  2  0  0  0  0  0  0
  187.7380  178.0740  145.9540 O   0  0  0  0  0  0  0  0  0  0  0  0
  189.3780  177.2290  143.9940 C   0  0  2  0  0  0  0  0  0  0  0  0
  187.8900  176.8100  143.8480 C   0  0  2  0  0  3  0  0  0  0  0  0
  186.0270  178.0930  144.3950 O   0  0  0  0  0  0  0  0  0  0  0  0
  189.5730  178.7000  143.6430 C   0  0  0  0  0  1  0  0  0  0  0  0
  187.6080  175.8070  135.7510 C   0  0  0  0  0  2  0  0  0  0  0  0
  186.3150  175.0770  135.5610 C   0  0  0  0  0  0  0  0  0  0  0  0
  185.5150  175.4600  134.7260 O   0  0  0  0  0  0  0  0  0  0  0  0
  186.0210  173.8790  136.3990 C   0  0  0  0  0  2  0  0  0  0  0  0
  184.5250  173.7400  136.6250 C   0  0  0  0  0  2  0  0  0  0  0  0
  184.0810  174.7070  137.6180 N   0  0  0  0  0  2  0  0  0  0  0  0
  182.7010  175.0180  137.8540 C   0  0  0  0  0  0  0  0  0  0  0  0
  181.7980  174.3830  137.2410 O   0  0  0  0  0  0  0  0  0  0  0  0
  182.0990  179.0580  138.5680 F   0  0  0  0  0  0  0  0  0  0  0  0
  182.3340  176.0850  138.8050 C   0  0  0  0  0  0  0  0  0  0  0  0
  181.1320  176.0660  139.4000 C   0  0  0  0  0  3  0  0  0  0  0  0
  182.7140  178.4370  139.6430 C   0  0  2  0  0  3  0  0  0  0  0  0
  181.0250  179.3540  141.0840 O   0  0  0  0  0  1  0  0  0  0  0  0
  180.7400  177.0870  140.3870 C   0  0  0  0  0  0  0  0  0  0  0  0
  179.6220  176.9990  140.9600 O   0  0  0  0  0  0  0  0  0  0  0  0
  183.3600  177.1270  139.1840 C   0  0  0  0  0  2  0  0  0  0  0  0
  181.7070  178.1750  140.7680 C   0  0  1  0  0  3  0  0  0  0  0  0
  1 11  1  0  0  0  0
  1  8  1  0  0  0  0
  2  4  1  0  0  0  0
  2 16  1  0  0  0  0
  3  5  1  0  0  0  0
  3  9  1  0  0  0  0
  4  3  2  0  0  0  0
  6  5  1  0  0  0  0
  7 19  2  0  0  0  0
  7 12  1  0  0  0  0
  8 13  1  0  0  0  0
  9 17  1  0  0  0  0
 10 14  1  1  0  0  0
 10 18  1  0  0  0  0
 11 15  1  0  0  0  0
 12 11  2  0  0  0  0
 13  4  1  0  0  0  0
 15 13  2  0  0  0  0
 15 10  1  0  0  0  0
 16  6  1  0  0  0  0
 17 20  1  0  0  0  0
 18  9  2  0  0  0  0
 19  1  1  0  0  0  0
 20 21  1  0  0  0  0
 21 22  1  0  0  0  0
 22 30  1  0  0  0  0
 23 32  1  0  0  0  0
 24 23  2  0  0  0  0
 25 28  1  0  0  0  0
 26 32  1  6  0  0  0
 26 29  1  0  0  0  0
 27 23  1  0  0  0  0
 29 28  1  0  0  0  0
 30 33  1  6  0  0  0
 30 25  1  0  0  0  0
 31 24  1  6  0  0  0
 31 30  1  0  0  0  0
 31 26  1  0  0  0  0
 34  2  1  0  0  0  0
 35 34  1  0  0  0  0
 35 37  1  0  0  0  0
 36 35  2  0  0  0  0
 37 38  1  0  0  0  0
 38 39  1  0  0  0  0
 39 40  1  0  0  0  0
 40 43  1  0  0  0  0
 41 40  2  0  0  0  0
 43 49  1  0  0  0  0
 43 44  2  0  0  0  0
 44 47  1  0  0  0  0
 45 42  1  6  0  0  0
 45 50  1  0  0  0  0
 47 50  1  0  0  0  0
 47 48  2  0  0  0  0
 49 45  1  0  0  0  0
 50 46  1  6  0  0  0
M  END
>  <MODEL>
4

>  <REMARK>
 VINA RESULT:      -8.5      2.547      7.247
  Name = 
  10 active torsions:
  status: ('A' for Active; 'I' for Inactive)
    1  A    between atoms: N_2  and  C_43
    2  A    between atoms: C_7  and  C_18
    3  A    between atoms: C_7  and  N_32
    4  A    between atoms: C_13  and  C_39
    5  A    between atoms: C_15  and  C_31
    6  A    between atoms: C_15  and  N_33
    7  A    between atoms: C_18  and  C_23
    8  A    between atoms: C_23  and  C_43
    9  A    between atoms: C_31  and  C_38
   10  A    between atoms: N_33  and  N_46
                            x       y       z     vdW  Elec       q    Type
                         _______ _______ _______ _____ _____    ______ ____

>  <TORSDO>
F 10

$$$$
=
 OpenBabel11032421143D

 50 56  0  0  1  0  0  0  0  0999 V2000
  191.2300  174.7490  135.3890 N   0  0  0  0  0  0  0  0  0  0  0  0
  189.7460  177.4970  138.5410 N   0  0  0  0  0  0  0  0  0  0  0  0
  187.5950  176.7970  137.6480 C   0  0  0  0  0  0  0  0  0  0  0  0
  188.9560  176.6880  137.6360 C   0  0  0  0  0  0  0  0  0  0  0  0
  186.9340  177.8780  138.4710 C   0  0  0  0  0  2  0  0  0  0  0  0
  187.7560  178.2780  139.6860 C   0  0  0  0  0  2  0  0  0  0  0  0
  191.8880  172.6990  135.0560 C   0  0  0  0  0  3  0  0  0  0  0  0
  191.0210  175.9880  136.1090 C   0  0  0  0  0  2  0  0  0  0  0  0
  186.6740  176.0280  136.7590 C   0  0  0  0  0  0  0  0  0  0  0  0
  187.9410  173.9390  136.9500 C   0  0  1  0  0  3  0  0  0  0  0  0
  190.2450  173.9090  135.6070 C   0  0  0  0  0  0  0  0  0  0  0  0
  190.5840  172.6220  135.4340 N   0  0  0  0  0  0  0  0  0  0  0  0
  189.6610  175.7380  136.7360 C   0  0  0  0  0  0  0  0  0  0  0  0
  187.7200  172.5030  136.5120 C   0  0  0  0  0  1  0  0  0  0  0  0
  189.2310  174.5060  136.4490 C   0  0  0  0  0  0  0  0  0  0  0  0
  189.1470  178.6450  139.2130 C   0  0  0  0  0  2  0  0  0  0  0  0
  185.5070  176.6930  136.2630 N   0  0  0  0  0  2  0  0  0  0  0  0
  186.8460  174.7650  136.4710 N   0  0  0  0  0  0  0  0  0  0  0  0
  192.3170  174.0270  135.0860 C   0  0  0  0  0  3  0  0  0  0  0  0
  184.5810  176.0510  135.4250 N   0  0  0  0  0  2  0  0  0  0  0  0
  183.2620  176.5790  135.7360 C   0  0  0  0  0  2  0  0  0  0  0  0
  183.3680  177.5920  136.8730 C   0  0  0  0  0  2  0  0  0  0  0  0
  183.3320  178.3030  141.1630 C   0  0  0  0  0  0  0  0  0  0  0  0
  183.6830  178.3990  139.9280 N   0  0  0  0  0  0  0  0  0  0  0  0
  181.0440  176.9630  137.5650 C   0  0  0  0  0  2  0  0  0  0  0  0
  181.3060  178.2930  140.1220 C   0  0  2  0  0  3  0  0  0  0  0  0
  184.2790  178.2760  142.2250 N   0  0  0  0  0  1  0  0  0  0  0  0
  179.9780  177.2470  138.6340 C   0  0  0  0  0  2  0  0  0  0  0  0
  180.5290  177.1330  139.9230 O   0  0  0  0  0  0  0  0  0  0  0  0
  182.4730  177.2450  138.0650 C   0  0  2  0  0  0  0  0  0  0  0  0
  182.4770  178.3950  139.1080 C   0  0  2  0  0  3  0  0  0  0  0  0
  181.9700  178.2190  141.3720 O   0  0  0  0  0  0  0  0  0  0  0  0
  183.0060  175.9510  138.6730 C   0  0  0  0  0  1  0  0  0  0  0  0
  191.0140  176.9870  139.0580 C   0  0  0  0  0  2  0  0  0  0  0  0
  190.9650  176.8230  140.5440 C   0  0  0  0  0  0  0  0  0  0  0  0
  190.2220  175.9950  141.0430 O   0  0  0  0  0  0  0  0  0  0  0  0
  191.8340  177.6760  141.4050 C   0  0  0  0  0  2  0  0  0  0  0  0
  191.8740  177.1350  142.8240 C   0  0  0  0  0  2  0  0  0  0  0  0
  190.7090  177.5970  143.5650 N   0  0  0  0  0  2  0  0  0  0  0  0
  190.3540  177.1060  144.8650 C   0  0  0  0  0  0  0  0  0  0  0  0
  191.1130  176.2890  145.4580 O   0  0  0  0  0  0  0  0  0  0  0  0
  186.2510  176.6700  145.2680 F   0  0  0  0  0  0  0  0  0  0  0  0
  189.1010  177.5470  145.5070 C   0  0  0  0  0  0  0  0  0  0  0  0
  188.9780  177.4880  146.8410 C   0  0  0  0  0  3  0  0  0  0  0  0
  186.6260  178.0040  145.2960 C   0  0  2  0  0  3  0  0  0  0  0  0
  185.4000  178.2630  147.3450 O   0  0  0  0  0  1  0  0  0  0  0  0
  187.7620  177.9560  147.5280 C   0  0  0  0  0  0  0  0  0  0  0  0
  187.7110  177.9310  148.7860 O   0  0  0  0  0  0  0  0  0  0  0  0
  188.0120  178.1650  144.6640 C   0  0  0  0  0  2  0  0  0  0  0  0
  186.6250  178.5390  146.7320 C   0  0  1  0  0  3  0  0  0  0  0  0
  1 11  1  0  0  0  0
  1  8  1  0  0  0  0
  2 34  1  0  0  0  0
  2 16  1  0  0  0  0
  3  5  1  0  0  0  0
  4  3  2  0  0  0  0
  4  2  1  0  0  0  0
  5  6  1  0  0  0  0
  7 19  2  0  0  0  0
  7 12  1  0  0  0  0
  8 13  1  0  0  0  0
  9  3  1  0  0  0  0
 10 14  1  6  0  0  0
 11 15  1  0  0  0  0
 12 11  2  0  0  0  0
 13  4  1  0  0  0  0
 15 13  2  0  0  0  0
 15 10  1  0  0  0  0
 16  6  1  0  0  0  0
 17  9  1  0  0  0  0
 18  9  2  0  0  0  0
 18 10  1  0  0  0  0
 19  1  1  0  0  0  0
 20 21  1  0  0  0  0
 20 17  1  0  0  0  0
 21 22  1  0  0  0  0
 22 30  1  0  0  0  0
 23 32  1  0  0  0  0
 23 27  1  0  0  0  0
 24 23  2  0  0  0  0
 25 30  1  0  0  0  0
 25 28  1  0  0  0  0
 26 29  1  6  0  0  0
 26 32  1  0  0  0  0
 28 29  1  0  0  0  0
 30 33  1  1  0  0  0
 30 31  1  0  0  0  0
 31 24  1  1  0  0  0
 31 26  1  0  0  0  0
 34 35  1  0  0  0  0
 35 36  2  0  0  0  0
 35 37  1  0  0  0  0
 37 38  1  0  0  0  0
 38 39  1  0  0  0  0
 39 40  1  0  0  0  0
 40 41  2  0  0  0  0
 40 43  1  0  0  0  0
 43 44  2  0  0  0  0
 44 47  1  0  0  0  0
 45 42  1  1  0  0  0
 45 50  1  0  0  0  0
 47 48  2  0  0  0  0
 49 45  1  0  0  0  0
 49 43  1  0  0  0  0
 50 46  1  1  0  0  0
 50 47  1  0  0  0  0
M  END
>  <MODEL>
5

>  <REMARK>
 VINA RESULT:      -8.3      1.890      2.656
  Name = 
  10 active torsions:
  status: ('A' for Active; 'I' for Inactive)
    1  A    between atoms: N_2  and  C_43
    2  A    between atoms: C_7  and  C_18
    3  A    between atoms: C_7  and  N_32
    4  A    between atoms: C_13  and  C_39
    5  A    between atoms: C_15  and  C_31
    6  A    between atoms: C_15  and  N_33
    7  A    between atoms: C_18  and  C_23
    8  A    between atoms: C_23  and  C_43
    9  A    between atoms: C_31  and  C_38
   10  A    between atoms: N_33  and  N_46
                            x       y       z     vdW  Elec       q    Type
                         _______ _______ _______ _____ _____    ______ ____

>  <TORSDO>
F 10

$$$$
=
 OpenBabel11032421143D

 50 56  0  0  1  0  0  0  0  0999 V2000
  191.6730  175.2600  137.2840 N   0  0  0  0  0  0  0  0  0  0  0  0
  188.3630  177.7140  138.9280 N   0  0  0  0  0  0  0  0  0  0  0  0
  189.6340  177.4260  140.9810 C   0  0  0  0  0  0  0  0  0  0  0  0
  189.5240  177.2180  139.6350 C   0  0  0  0  0  0  0  0  0  0  0  0
  188.4720  178.0090  141.7490 C   0  0  0  0  0  2  0  0  0  0  0  0
  187.5940  178.9090  140.8940 C   0  0  0  0  0  2  0  0  0  0  0  0
  193.5940  175.4120  136.2680 C   0  0  0  0  0  3  0  0  0  0  0  0
  190.3220  175.6280  137.6560 C   0  0  0  0  0  2  0  0  0  0  0  0
  190.7760  176.9550  141.8210 C   0  0  0  0  0  0  0  0  0  0  0  0
  192.4760  177.5110  140.1460 C   0  0  1  0  0  3  0  0  0  0  0  0
  192.5510  175.8670  138.0490 C   0  0  0  0  0  0  0  0  0  0  0  0
  193.7580  176.0080  137.4790 N   0  0  0  0  0  0  0  0  0  0  0  0
  190.5800  176.5170  138.8600 C   0  0  0  0  0  0  0  0  0  0  0  0
  193.9930  177.5380  140.1220 C   0  0  0  0  0  1  0  0  0  0  0  0
  191.8930  176.6640  139.0620 C   0  0  0  0  0  0  0  0  0  0  0  0
  187.1730  178.1270  139.6670 C   0  0  0  0  0  2  0  0  0  0  0  0
  190.4890  176.4940  143.1460 N   0  0  0  0  0  2  0  0  0  0  0  0
  192.0210  177.0090  141.4320 N   0  0  0  0  0  0  0  0  0  0  0  0
  192.2710  174.9960  136.1150 C   0  0  0  0  0  3  0  0  0  0  0  0
  191.4950  176.0370  144.0120 N   0  0  0  0  0  2  0  0  0  0  0  0
  191.3780  176.7770  145.2580 C   0  0  0  0  0  2  0  0  0  0  0  0
  190.1840  176.2580  146.0550 C   0  0  0  0  0  2  0  0  0  0  0  0
  186.3050  177.9570  145.0680 C   0  0  0  0  0  0  0  0  0  0  0  0
  187.3030  177.1440  145.0570 N   0  0  0  0  0  0  0  0  0  0  0  0
  189.6270  177.6720  148.0450 C   0  0  0  0  0  2  0  0  0  0  0  0
  186.8440  177.8810  147.2810 C   0  0  2  0  0  3  0  0  0  0  0  0
  185.6070  178.3230  143.8840 N   0  0  0  0  0  1  0  0  0  0  0  0
  188.4390  178.2530  148.8270 C   0  0  0  0  0  2  0  0  0  0  0  0
  187.5450  178.9010  147.9560 O   0  0  0  0  0  0  0  0  0  0  0  0
  189.2810  177.3790  146.5740 C   0  0  2  0  0  0  0  0  0  0  0  0
  187.7850  176.9910  146.4250 C   0  0  2  0  0  3  0  0  0  0  0  0
  185.9760  178.4510  146.3160 O   0  0  0  0  0  0  0  0  0  0  0  0
  189.6060  178.6330  145.7710 C   0  0  0  0  0  1  0  0  0  0  0  0
  188.4800  178.1350  137.5340 C   0  0  0  0  0  2  0  0  0  0  0  0
  187.3150  177.6580  136.7250 C   0  0  0  0  0  0  0  0  0  0  0  0
  186.9310  178.3040  135.7660 O   0  0  0  0  0  0  0  0  0  0  0  0
  186.6340  176.3860  137.1020 C   0  0  0  0  0  2  0  0  0  0  0  0
  185.2020  176.3780  136.5940 C   0  0  0  0  0  2  0  0  0  0  0  0
  184.3690  177.2180  137.4420 N   0  0  0  0  0  2  0  0  0  0  0  0
  183.2910  176.7110  138.2420 C   0  0  0  0  0  0  0  0  0  0  0  0
  183.0790  175.4680  138.2970 O   0  0  0  0  0  0  0  0  0  0  0  0
  182.4700  178.6690  141.8030 F   0  0  0  0  0  0  0  0  0  0  0  0
  182.4260  177.6400  138.9950 C   0  0  0  0  0  0  0  0  0  0  0  0
  182.2680  178.9010  138.5650 C   0  0  0  0  0  3  0  0  0  0  0  0
  181.3100  178.2400  141.1790 C   0  0  2  0  0  3  0  0  0  0  0  0
  180.4360  180.4700  141.3650 O   0  0  0  0  0  1  0  0  0  0  0  0
  181.3820  179.8500  139.2610 C   0  0  0  0  0  0  0  0  0  0  0  0
  181.2210  181.0070  138.7910 O   0  0  0  0  0  0  0  0  0  0  0  0
  181.6410  177.1290  140.1790 C   0  0  0  0  0  2  0  0  0  0  0  0
  180.6090  179.4070  140.4740 C   0  0  1  0  0  3  0  0  0  0  0  0
  1  8  1  0  0  0  0
  1 11  1  0  0  0  0
  2  4  1  0  0  0  0
  2 16  1  0  0  0  0
  3  5  1  0  0  0  0
  3  9  1  0  0  0  0
  4  3  2  0  0  0  0
  6  5  1  0  0  0  0
  7 12  1  0  0  0  0
  8 13  1  0  0  0  0
  9 17  1  0  0  0  0
 10 14  1  1  0  0  0
 10 18  1  0  0  0  0
 11 15  1  0  0  0  0
 12 11  2  0  0  0  0
 13 15  2  0  0  0  0
 13  4  1  0  0  0  0
 15 10  1  0  0  0  0
 16  6  1  0  0  0  0
 17 20  1  0  0  0  0
 18  9  2  0  0  0  0
 19  7  2  0  0  0  0
 19  1  1  0  0  0  0
 20 21  1  0  0  0  0
 21 22  1  0  0  0  0
 22 30  1  0  0  0  0
 23 32  1  0  0  0  0
 24 23  2  0  0  0  0
 25 28  1  0  0  0  0
 26 32  1  6  0  0  0
 26 29  1  0  0  0  0
 27 23  1  0  0  0  0
 29 28  1  0  0  0  0
 30 33  1  6  0  0  0
 30 25  1  0  0  0  0
 31 24  1  6  0  0  0
 31 30  1  0  0  0  0
 31 26  1  0  0  0  0
 34  2  1  0  0  0  0
 35 37  1  0  0  0  0
 35 34  1  0  0  0  0
 36 35  2  0  0  0  0
 38 37  1  0  0  0  0
 38 39  1  0  0  0  0
 39 40  1  0  0  0  0
 40 41  2  0  0  0  0
 40 43  1  0  0  0  0
 43 49  1  0  0  0  0
 44 43  2  0  0  0  0
 44 47  1  0  0  0  0
 45 42  1  6  0  0  0
 47 50  1  0  0  0  0
 48 47  2  0  0  0  0
 49 45  1  0  0  0  0
 50 45  1  0  0  0  0
 50 46  1  1  0  0  0
M  END
>  <MODEL>
6

>  <REMARK>
 VINA RESULT:      -8.3      2.112      7.466
  Name = 
  10 active torsions:
  status: ('A' for Active; 'I' for Inactive)
    1  A    between atoms: N_2  and  C_43
    2  A    between atoms: C_7  and  C_18
    3  A    between atoms: C_7  and  N_32
    4  A    between atoms: C_13  and  C_39
    5  A    between atoms: C_15  and  C_31
    6  A    between atoms: C_15  and  N_33
    7  A    between atoms: C_18  and  C_23
    8  A    between atoms: C_23  and  C_43
    9  A    between atoms: C_31  and  C_38
   10  A    between atoms: N_33  and  N_46
                            x       y       z     vdW  Elec       q    Type
                         _______ _______ _______ _____ _____    ______ ____

>  <TORSDO>
F 10

$$$$
=
 OpenBabel11032421143D

 50 56  0  0  1  0  0  0  0  0999 V2000
  190.2700  172.8640  136.1620 N   0  0  0  0  0  0  0  0  0  0  0  0
  187.3390  176.1140  136.8900 N   0  0  0  0  0  0  0  0  0  0  0  0
  189.1840  177.0100  138.1960 C   0  0  0  0  0  0  0  0  0  0  0  0
  188.7060  176.0410  137.3620 C   0  0  0  0  0  0  0  0  0  0  0  0
  188.2430  178.0480  138.7600 C   0  0  0  0  0  2  0  0  0  0  0  0
  187.0560  178.3230  137.8500 C   0  0  0  0  0  2  0  0  0  0  0  0
  191.7760  172.1840  134.7420 C   0  0  0  0  0  3  0  0  0  0  0  0
  189.0560  173.5080  136.6210 C   0  0  0  0  0  2  0  0  0  0  0  0
  190.5680  177.0400  138.7570 C   0  0  0  0  0  0  0  0  0  0  0  0
  191.6240  176.3000  136.6730 C   0  0  1  0  0  3  0  0  0  0  0  0
  191.2600  173.7230  136.0960 C   0  0  0  0  0  0  0  0  0  0  0  0
  192.2220  173.3730  135.2270 N   0  0  0  0  0  0  0  0  0  0  0  0
  189.5580  174.9160  136.8950 C   0  0  0  0  0  0  0  0  0  0  0  0
  193.0540  176.1610  136.1820 C   0  0  0  0  0  1  0  0  0  0  0  0
  190.8460  175.0290  136.5600 C   0  0  0  0  0  0  0  0  0  0  0  0
  186.3830  177.0020  137.5440 C   0  0  0  0  0  2  0  0  0  0  0  0
  190.7390  177.5080  140.0990 N   0  0  0  0  0  2  0  0  0  0  0  0
  191.6290  176.7280  138.0620 N   0  0  0  0  0  0  0  0  0  0  0  0
  190.5210  171.8880  135.2790 C   0  0  0  0  0  3  0  0  0  0  0  0
  192.0010  177.5760  140.7120 N   0  0  0  0  0  2  0  0  0  0  0  0
  191.8330  177.2230  142.1120 C   0  0  0  0  0  2  0  0  0  0  0  0
  190.7920  178.1370  142.7530 C   0  0  0  0  0  2  0  0  0  0  0  0
  191.4990  176.5860  146.7540 C   0  0  0  0  0  0  0  0  0  0  0  0
  191.7100  177.2110  145.6480 N   0  0  0  0  0  0  0  0  0  0  0  0
  188.4900  177.7680  143.6670 C   0  0  0  0  0  2  0  0  0  0  0  0
  189.4630  177.5410  146.3830 C   0  0  2  0  0  3  0  0  0  0  0  0
  192.5090  175.8250  147.4050 N   0  0  0  0  0  1  0  0  0  0  0  0
  187.7040  177.7000  144.9850 C   0  0  0  0  0  2  0  0  0  0  0  0
  188.3420  176.8380  145.8950 O   0  0  0  0  0  0  0  0  0  0  0  0
  189.9840  177.4420  143.8500 C   0  0  2  0  0  0  0  0  0  0  0  0
  190.4760  177.8810  145.2560 C   0  0  2  0  0  3  0  0  0  0  0  0
  190.2150  176.7070  147.2480 O   0  0  0  0  0  0  0  0  0  0  0  0
  190.1490  175.9390  143.6550 C   0  0  0  0  0  1  0  0  0  0  0  0
  186.9920  175.5880  135.5710 C   0  0  0  0  0  2  0  0  0  0  0  0
  185.6010  175.0360  135.5590 C   0  0  0  0  0  0  0  0  0  0  0  0
  184.7690  175.4930  134.7950 O   0  0  0  0  0  0  0  0  0  0  0  0
  185.2480  173.9220  136.4850 C   0  0  0  0  0  2  0  0  0  0  0  0
  183.8260  173.4500  136.2320 C   0  0  0  0  0  2  0  0  0  0  0  0
  182.9480  173.9250  137.2920 N   0  0  0  0  0  2  0  0  0  0  0  0
  181.9320  174.9170  137.0890 C   0  0  0  0  0  0  0  0  0  0  0  0
  181.7090  175.3620  135.9290 O   0  0  0  0  0  0  0  0  0  0  0  0
  180.2320  174.1870  140.8000 F   0  0  0  0  0  0  0  0  0  0  0  0
  181.1520  175.4220  138.2350 C   0  0  0  0  0  0  0  0  0  0  0  0
  181.5990  176.4750  138.9360 C   0  0  0  0  0  3  0  0  0  0  0  0
  179.4120  174.9770  140.0110 C   0  0  2  0  0  3  0  0  0  0  0  0
  179.2800  176.5630  141.8110 O   0  0  0  0  0  1  0  0  0  0  0  0
  180.8340  177.0390  140.0600 C   0  0  0  0  0  0  0  0  0  0  0  0
  181.2670  178.0610  140.6550 O   0  0  0  0  0  0  0  0  0  0  0  0
  179.8010  174.8190  138.5390 C   0  0  0  0  0  2  0  0  0  0  0  0
  179.5020  176.4480  140.4360 C   0  0  1  0  0  3  0  0  0  0  0  0
  1  8  1  0  0  0  0
  2  4  1  0  0  0  0
  2 16  1  0  0  0  0
  3  9  1  0  0  0  0
  3  5  1  0  0  0  0
  4  3  2  0  0  0  0
  6  5  1  0  0  0  0
  7 12  1  0  0  0  0
  7 19  2  0  0  0  0
  8 13  1  0  0  0  0
  9 17  1  0  0  0  0
 10 14  1  1  0  0  0
 10 18  1  0  0  0  0
 11  1  1  0  0  0  0
 11 15  1  0  0  0  0
 12 11  2  0  0  0  0
 13  4  1  0  0  0  0
 15 10  1  0  0  0  0
 15 13  2  0  0  0  0
 16  6  1  0  0  0  0
 17 20  1  0  0  0  0
 18  9  2  0  0  0  0
 19  1  1  0  0  0  0
 20 21  1  0  0  0  0
 21 22  1  0  0  0  0
 22 30  1  0  0  0  0
 23 32  1  0  0  0  0
 23 27  1  0  0  0  0
 24 23  2  0  0  0  0
 25 30  1  0  0  0  0
 25 28  1  0  0  0  0
 26 29  1  6  0  0  0
 26 32  1  0  0  0  0
 28 29  1  0  0  0  0
 30 33  1  6  0  0  0
 30 31  1  0  0  0  0
 31 24  1  1  0  0  0
 31 26  1  0  0  0  0
 34  2  1  0  0  0  0
 35 34  1  0  0  0  0
 35 37  1  0  0  0  0
 36 35  2  0  0  0  0
 38 37  1  0  0  0  0
 38 39  1  0  0  0  0
 40 39  1  0  0  0  0
 40 43  1  0  0  0  0
 41 40  2  0  0  0  0
 43 49  1  0  0  0  0
 43 44  2  0  0  0  0
 44 47  1  0  0  0  0
 45 50  1  0  0  0  0
 45 42  1  1  0  0  0
 47 50  1  0  0  0  0
 47 48  2  0  0  0  0
 49 45  1  0  0  0  0
 50 46  1  1  0  0  0
M  END
>  <MODEL>
7

>  <REMARK>
 VINA RESULT:      -7.9      2.839      8.237
  Name = 
  10 active torsions:
  status: ('A' for Active; 'I' for Inactive)
    1  A    between atoms: N_2  and  C_43
    2  A    between atoms: C_7  and  C_18
    3  A    between atoms: C_7  and  N_32
    4  A    between atoms: C_13  and  C_39
    5  A    between atoms: C_15  and  C_31
    6  A    between atoms: C_15  and  N_33
    7  A    between atoms: C_18  and  C_23
    8  A    between atoms: C_23  and  C_43
    9  A    between atoms: C_31  and  C_38
   10  A    between atoms: N_33  and  N_46
                            x       y       z     vdW  Elec       q    Type
                         _______ _______ _______ _____ _____    ______ ____

>  <TORSDO>
F 10

$$$$
=
 OpenBabel11032421143D

 50 56  0  0  1  0  0  0  0  0999 V2000
  180.7210  177.8010  140.7860 N   0  0  0  0  0  0  0  0  0  0  0  0
  184.6820  178.2060  142.7440 N   0  0  0  0  0  0  0  0  0  0  0  0
  185.3940  178.5510  140.4450 C   0  0  0  0  0  0  0  0  0  0  0  0
  184.3790  178.3480  141.3360 C   0  0  0  0  0  0  0  0  0  0  0  0
  186.8290  178.4490  140.9040 C   0  0  0  0  0  2  0  0  0  0  0  0
  187.0040  178.8020  142.3730 C   0  0  0  0  0  2  0  0  0  0  0  0
  178.9310  178.9260  140.2630 C   0  0  0  0  0  3  0  0  0  0  0  0
  181.8920  177.4260  141.5540 C   0  0  0  0  0  2  0  0  0  0  0  0
  185.2110  178.7010  138.9700 C   0  0  0  0  0  0  0  0  0  0  0  0
  183.1960  180.0800  139.1770 C   0  0  1  0  0  3  0  0  0  0  0  0
  181.0100  178.7490  139.9250 C   0  0  0  0  0  0  0  0  0  0  0  0
  179.9520  179.4940  139.5680 N   0  0  0  0  0  0  0  0  0  0  0  0
  182.9570  178.2950  140.9080 C   0  0  0  0  0  0  0  0  0  0  0  0
  182.3300  180.8690  138.2130 C   0  0  0  0  0  1  0  0  0  0  0  0
  182.4180  179.0800  139.9700 C   0  0  0  0  0  0  0  0  0  0  0  0
  186.0500  177.9440  143.1790 C   0  0  0  0  0  2  0  0  0  0  0  0
  186.2000  178.1270  138.1090 N   0  0  0  0  0  2  0  0  0  0  0  0
  184.2360  179.3860  138.4370 N   0  0  0  0  0  0  0  0  0  0  0  0
  179.4180  177.9020  141.0770 C   0  0  0  0  0  3  0  0  0  0  0  0
  186.1170  178.2200  136.7100 N   0  0  0  0  0  2  0  0  0  0  0  0
  186.8510  177.0980  136.1470 C   0  0  0  0  0  2  0  0  0  0  0  0
  187.7440  176.4770  137.2180 C   0  0  0  0  0  2  0  0  0  0  0  0
  191.4220  176.8260  139.5120 C   0  0  0  0  0  0  0  0  0  0  0  0
  190.1800  176.6100  139.2510 N   0  0  0  0  0  0  0  0  0  0  0  0
  189.5480  176.1830  135.5060 C   0  0  0  0  0  2  0  0  0  0  0  0
  191.5700  175.7220  137.5250 C   0  0  2  0  0  3  0  0  0  0  0  0
  191.8470  177.5010  140.6900 N   0  0  0  0  0  1  0  0  0  0  0  0
  191.0040  175.7210  135.3450 C   0  0  0  0  0  2  0  0  0  0  0  0
  191.8300  176.3540  136.2910 O   0  0  0  0  0  0  0  0  0  0  0  0
  189.2360  176.6680  136.9330 C   0  0  2  0  0  0  0  0  0  0  0  0
  190.0960  175.9050  137.9770 C   0  0  2  0  0  3  0  0  0  0  0  0
  192.3030  176.3600  138.5560 O   0  0  0  0  0  0  0  0  0  0  0  0
  189.5200  178.1660  136.9770 C   0  0  0  0  0  1  0  0  0  0  0  0
  183.7220  178.6620  143.7480 C   0  0  0  0  0  2  0  0  0  0  0  0
  184.4150  179.0890  145.0030 C   0  0  0  0  0  0  0  0  0  0  0  0
  185.0810  180.1100  145.0160 O   0  0  0  0  0  0  0  0  0  0  0  0
  184.2780  178.2590  146.2350 C   0  0  0  0  0  2  0  0  0  0  0  0
  185.4040  178.5600  147.2080 C   0  0  0  0  0  2  0  0  0  0  0  0
  186.6470  177.9740  146.7270 N   0  0  0  0  0  2  0  0  0  0  0  0
  187.8960  178.0910  147.4230 C   0  0  0  0  0  0  0  0  0  0  0  0
  187.9380  178.6570  148.5510 O   0  0  0  0  0  0  0  0  0  0  0  0
  190.8430  175.1740  147.4060 F   0  0  0  0  0  0  0  0  0  0  0  0
  189.1330  177.5570  146.8190 C   0  0  0  0  0  0  0  0  0  0  0  0
  189.1490  177.2140  145.5230 C   0  0  0  0  0  3  0  0  0  0  0  0
  191.3680  176.4300  147.1480 C   0  0  2  0  0  3  0  0  0  0  0  0
  192.4250  175.5390  145.1830 O   0  0  0  0  0  1  0  0  0  0  0  0
  190.3710  176.7180  144.8680 C   0  0  0  0  0  0  0  0  0  0  0  0
  190.3540  176.4590  143.6360 O   0  0  0  0  0  0  0  0  0  0  0  0
  190.3980  177.5080  147.6410 C   0  0  0  0  0  2  0  0  0  0  0  0
  191.6510  176.6050  145.6520 C   0  0  1  0  0  3  0  0  0  0  0  0
  1 19  1  0  0  0  0
  1  8  1  0  0  0  0
  2 16  1  0  0  0  0
  2 34  1  0  0  0  0
  3  5  1  0  0  0  0
  3  4  2  0  0  0  0
  4  2  1  0  0  0  0
  5  6  1  0  0  0  0
  6 16  1  0  0  0  0
  7 19  2  0  0  0  0
  9  3  1  0  0  0  0
 10 14  1  6  0  0  0
 10 15  1  0  0  0  0
 11 15  1  0  0  0  0
 11  1  1  0  0  0  0
 12 11  2  0  0  0  0
 12  7  1  0  0  0  0
 13  4  1  0  0  0  0
 13  8  1  0  0  0  0
 15 13  2  0  0  0  0
 17  9  1  0  0  0  0
 18  9  2  0  0  0  0
 18 10  1  0  0  0  0
 20 17  1  0  0  0  0
 21 20  1  0  0  0  0
 21 22  1  0  0  0  0
 23 27  1  0  0  0  0
 24 23  2  0  0  0  0
 25 30  1  0  0  0  0
 26 29  1  6  0  0  0
 26 31  1  0  0  0  0
 26 32  1  0  0  0  0
 28 25  1  0  0  0  0
 28 29  1  0  0  0  0
 30 33  1  1  0  0  0
 30 22  1  0  0  0  0
 30 31  1  0  0  0  0
 31 24  1  1  0  0  0
 32 23  1  0  0  0  0
 34 35  1  0  0  0  0
 35 36  2  0  0  0  0
 35 37  1  0  0  0  0
 37 38  1  0  0  0  0
 39 38  1  0  0  0  0
 39 40  1  0  0  0  0
 40 41  2  0  0  0  0
 43 40  1  0  0  0  0
 43 49  1  0  0  0  0
 44 43  2  0  0  0  0
 45 42  1  6  0  0  0
 45 49  1  0  0  0  0
 47 44  1  0  0  0  0
 47 50  1  0  0  0  0
 48 47  2  0  0  0  0
 50 46  1  6  0  0  0
 50 45  1  0  0  0  0
M  END
>  <MODEL>
8

>  <REMARK>
 VINA RESULT:      -7.9      2.680      7.917
  Name = 
  10 active torsions:
  status: ('A' for Active; 'I' for Inactive)
    1  A    between atoms: N_2  and  C_43
    2  A    between atoms: C_7  and  C_18
    3  A    between atoms: C_7  and  N_32
    4  A    between atoms: C_13  and  C_39
    5  A    between atoms: C_15  and  C_31
    6  A    between atoms: C_15  and  N_33
    7  A    between atoms: C_18  and  C_23
    8  A    between atoms: C_23  and  C_43
    9  A    between atoms: C_31  and  C_38
   10  A    between atoms: N_33  and  N_46
                            x       y       z     vdW  Elec       q    Type
                         _______ _______ _______ _____ _____    ______ ____

>  <TORSDO>
F 10

$$$$
=
 OpenBabel11032421143D

 50 56  0  0  1  0  0  0  0  0999 V2000
  185.7790  179.2690  145.6150 N   0  0  0  0  0  0  0  0  0  0  0  0
  183.3200  178.7600  141.9570 N   0  0  0  0  0  0  0  0  0  0  0  0
  185.5130  178.4850  140.9430 C   0  0  0  0  0  0  0  0  0  0  0  0
  184.7600  178.6680  142.0680 C   0  0  0  0  0  0  0  0  0  0  0  0
  184.8610  178.5580  139.5820 C   0  0  0  0  0  2  0  0  0  0  0  0
  183.3950  178.1540  139.6100 C   0  0  0  0  0  2  0  0  0  0  0  0
  186.5770  178.1790  147.3240 C   0  0  0  0  0  3  0  0  0  0  0  0
  184.8480  179.6060  144.5570 C   0  0  0  0  0  2  0  0  0  0  0  0
  187.0030  178.3860  140.9250 C   0  0  0  0  0  0  0  0  0  0  0  0
  187.1170  177.0210  142.9570 C   0  0  1  0  0  3  0  0  0  0  0  0
  186.6250  178.3470  145.2170 C   0  0  0  0  0  0  0  0  0  0  0  0
  187.1470  177.6240  146.2210 N   0  0  0  0  0  0  0  0  0  0  0  0
  185.3740  178.7490  143.4190 C   0  0  0  0  0  0  0  0  0  0  0  0
  188.2160  176.2720  143.6890 C   0  0  0  0  0  1  0  0  0  0  0  0
  186.4020  178.0010  143.8300 C   0  0  0  0  0  0  0  0  0  0  0  0
  182.6960  178.9940  140.6590 C   0  0  0  0  0  2  0  0  0  0  0  0
  187.7030  178.9790  139.8260 N   0  0  0  0  0  2  0  0  0  0  0  0
  187.6860  177.7290  141.8230 N   0  0  0  0  0  0  0  0  0  0  0  0
  185.6700  179.1700  146.9460 C   0  0  0  0  0  3  0  0  0  0  0  0
  189.1020  178.9340  139.7200 N   0  0  0  0  0  2  0  0  0  0  0  0
  189.4300  178.4690  138.3820 C   0  0  0  0  0  2  0  0  0  0  0  0
  188.9580  177.0280  138.2070 C   0  0  0  0  0  2  0  0  0  0  0  0
  186.0540  174.1910  136.6490 C   0  0  0  0  0  0  0  0  0  0  0  0
  186.8110  174.8000  137.4930 N   0  0  0  0  0  0  0  0  0  0  0  0
  188.0810  178.1430  136.1430 C   0  0  0  0  0  2  0  0  0  0  0  0
  185.8080  176.3580  135.9880 C   0  0  2  0  0  3  0  0  0  0  0  0
  185.8730  172.7800  136.6660 N   0  0  0  0  0  1  0  0  0  0  0  0
  186.8470  178.2060  135.2290 C   0  0  0  0  0  2  0  0  0  0  0  0
  186.4420  176.9130  134.8570 O   0  0  0  0  0  0  0  0  0  0  0  0
  188.1850  176.8090  136.9050 C   0  0  2  0  0  0  0  0  0  0  0  0
  186.7750  176.2280  137.1960 C   0  0  2  0  0  3  0  0  0  0  0  0
  185.4420  175.0140  135.7240 O   0  0  0  0  0  0  0  0  0  0  0  0
  189.0050  175.8550  136.0430 C   0  0  0  0  0  1  0  0  0  0  0  0
  182.4710  178.2800  143.0460 C   0  0  0  0  0  2  0  0  0  0  0  0
  181.1210  178.9230  143.0020 C   0  0  0  0  0  0  0  0  0  0  0  0
  181.0200  180.1370  143.0440 O   0  0  0  0  0  0  0  0  0  0  0  0
  179.9040  178.0650  142.9020 C   0  0  0  0  0  2  0  0  0  0  0  0
  179.0750  178.4560  141.6910 C   0  0  0  0  0  2  0  0  0  0  0  0
  179.5030  177.6920  140.5280 N   0  0  0  0  0  2  0  0  0  0  0  0
  179.4460  176.2610  140.4590 C   0  0  0  0  0  0  0  0  0  0  0  0
  178.9310  175.6050  141.4070 O   0  0  0  0  0  0  0  0  0  0  0  0
  182.7650  175.2010  138.2110 F   0  0  0  0  0  0  0  0  0  0  0  0
  179.9950  175.5530  139.2870 C   0  0  0  0  0  0  0  0  0  0  0  0
  179.8070  174.2320  139.1560 C   0  0  0  0  0  3  0  0  0  0  0  0
  181.6790  175.5020  137.4050 C   0  0  2  0  0  3  0  0  0  0  0  0
  181.9790  173.3990  136.2850 O   0  0  0  0  0  1  0  0  0  0  0  0
  180.3010  173.4910  137.9820 C   0  0  0  0  0  0  0  0  0  0  0  0
  180.0540  172.2610  137.8750 O   0  0  0  0  0  0  0  0  0  0  0  0
  180.6690  176.3430  138.1900 C   0  0  0  0  0  2  0  0  0  0  0  0
  181.0190  174.2220  136.8800 C   0  0  1  0  0  3  0  0  0  0  0  0
  1 19  1  0  0  0  0
  2  4  1  0  0  0  0
  2 34  1  0  0  0  0
  3  4  2  0  0  0  0
  4 13  1  0  0  0  0
  5  6  1  0  0  0  0
  5  3  1  0  0  0  0
  6 16  1  0  0  0  0
  8  1  1  0  0  0  0
  9  3  1  0  0  0  0
  9 18  2  0  0  0  0
 10 14  1  1  0  0  0
 10 15  1  0  0  0  0
 11  1  1  0  0  0  0
 11 12  2  0  0  0  0
 12  7  1  0  0  0  0
 13 15  2  0  0  0  0
 13  8  1  0  0  0  0
 15 11  1  0  0  0  0
 16  2  1  0  0  0  0
 17  9  1  0  0  0  0
 18 10  1  0  0  0  0
 19  7  2  0  0  0  0
 20 17  1  0  0  0  0
 21 20  1  0  0  0  0
 22 21  1  0  0  0  0
 23 27  1  0  0  0  0
 23 24  2  0  0  0  0
 25 30  1  0  0  0  0
 26 29  1  6  0  0  0
 26 31  1  0  0  0  0
 28 25  1  0  0  0  0
 29 28  1  0  0  0  0
 30 33  1  6  0  0  0
 30 31  1  0  0  0  0
 30 22  1  0  0  0  0
 31 24  1  6  0  0  0
 32 26  1  0  0  0  0
 32 23  1  0  0  0  0
 35 36  2  0  0  0  0
 35 34  1  0  0  0  0
 37 35  1  0  0  0  0
 38 37  1  0  0  0  0
 39 38  1  0  0  0  0
 40 39  1  0  0  0  0
 40 41  2  0  0  0  0
 43 40  1  0  0  0  0
 44 43  2  0  0  0  0
 45 49  1  0  0  0  0
 45 42  1  1  0  0  0
 47 44  1  0  0  0  0
 48 47  2  0  0  0  0
 49 43  1  0  0  0  0
 50 46  1  1  0  0  0
 50 45  1  0  0  0  0
 50 47  1  0  0  0  0
M  END
>  <MODEL>
9

>  <REMARK>
 VINA RESULT:      -7.8      3.700      8.677
  Name = 
  10 active torsions:
  status: ('A' for Active; 'I' for Inactive)
    1  A    between atoms: N_2  and  C_43
    2  A    between atoms: C_7  and  C_18
    3  A    between atoms: C_7  and  N_32
    4  A    between atoms: C_13  and  C_39
    5  A    between atoms: C_15  and  C_31
    6  A    between atoms: C_15  and  N_33
    7  A    between atoms: C_18  and  C_23
    8  A    between atoms: C_23  and  C_43
    9  A    between atoms: C_31  and  C_38
   10  A    between atoms: N_33  and  N_46
                            x       y       z     vdW  Elec       q    Type
                         _______ _______ _______ _____ _____    ______ ____

>  <TORSDO>
F 10

$$$$
