=
 OpenBabel11032419183D

 25 28  0  0  1  0  0  0  0  0999 V2000
  190.3830  177.1000  143.7460 C   0  0  2  0  0  3  0  0  0  0  0  0
  191.6890  177.8640  143.6860 C   0  0  0  0  0  2  0  0  0  0  0  0
  190.7200  177.9360  142.5260 C   0  0  1  0  0  3  0  0  0  0  0  0
  189.5020  177.4340  145.9630 C   0  0  0  0  0  3  0  0  0  0  0  0
  184.5570  179.6180  144.9820 C   0  0  0  0  0  2  0  0  0  0  0  0
  186.5370  178.5640  146.1300 C   0  0  0  0  0  0  0  0  0  0  0  0
  184.3950  178.2370  144.3550 C   0  0  0  0  0  2  0  0  0  0  0  0
  186.9500  178.2130  147.3800 C   0  0  0  0  0  3  0  0  0  0  0  0
  185.4660  179.5190  146.1210 N   0  0  0  0  0  2  0  0  0  0  0  0
  188.0500  177.4890  144.2140 O   0  0  0  0  0  0  0  0  0  0  0  0
  185.7560  177.7280  143.9800 C   0  0  0  0  0  3  0  0  0  0  0  0
  186.8090  177.8720  144.7940 C   0  0  0  0  0  0  0  0  0  0  0  0
  189.3820  177.8520  144.6040 C   0  0  2  0  0  3  0  0  0  0  0  0
  189.0060  177.1850  147.0040 C   0  0  0  0  0  3  0  0  0  0  0  0
  187.8750  177.1260  147.8730 C   0  0  0  0  0  2  0  0  0  0  0  0
  190.3260  175.9270  137.9990 C   0  0  0  0  0  2  0  0  0  0  0  0
  190.5140  176.9950  140.1900 C   0  0  0  0  0  0  0  0  0  0  0  0
  190.9240  176.1170  139.3210 N   0  0  0  0  0  0  0  0  0  0  0  0
  191.1620  177.0520  141.4610 N   0  0  0  0  0  2  0  0  0  0  0  0
  189.7180  177.2280  137.4760 C   0  0  2  0  0  3  0  0  0  0  0  0
  188.7300  177.7040  138.5340 C   0  0  0  0  0  2  0  0  0  0  0  0
  189.4620  178.0210  139.8350 C   0  0  0  0  0  2  0  0  0  0  0  0
  188.5610  175.5510  136.0120 C   0  0  0  0  0  1  0  0  0  0  0  0
  187.7710  177.8840  136.0170 C   0  0  0  0  0  1  0  0  0  0  0  0
  189.0020  177.0000  136.1420 C   0  0  0  0  0  3  0  0  0  0  0  0
  1  2  1  1  0  0  0
  1 13  1  0  0  0  0
  3 19  1  6  0  0  0
  3  2  1  0  0  0  0
  3  1  1  0  0  0  0
  4 14  2  0  0  0  0
  5  9  1  0  0  0  0
  6  8  2  0  0  0  0
  7  5  1  0  0  0  0
  8 15  1  0  0  0  0
  9  6  1  0  0  0  0
 10 13  1  0  0  0  0
 10 12  1  0  0  0  0
 11  7  1  0  0  0  0
 11 12  2  0  0  0  0
 12  6  1  0  0  0  0
 13  4  1  1  0  0  0
 14 15  1  0  0  0  0
 16 18  1  0  0  0  0
 17 19  1  0  0  0  0
 18 17  2  0  0  0  0
 20 25  1  6  0  0  0
 20 16  1  0  0  0  0
 20 21  1  0  0  0  0
 21 22  1  0  0  0  0
 22 17  1  0  0  0  0
 23 25  1  0  0  0  0
 24 25  1  0  0  0  0
M  END
>  <MODEL>
1

>  <REMARK>
 VINA RESULT:      -8.4      0.000      0.000
  Name = 
  3 active torsions:
  status: ('A' for Active; 'I' for Inactive)
    1  A    between atoms: C_3  and  C_19
    2  A    between atoms: C_12  and  N_21
    3  A    between atoms: C_18  and  C_23
                            x       y       z     vdW  Elec       q    Type
                         _______ _______ _______ _____ _____    ______ ____

>  <TORSDO>
F 3

$$$$
=
 OpenBabel11032419183D

 25 28  0  0  1  0  0  0  0  0999 V2000
  189.4630  177.9200  139.8840 C   0  0  2  0  0  3  0  0  0  0  0  0
  190.7380  177.1410  139.6310 C   0  0  0  0  0  2  0  0  0  0  0  0
  189.8700  176.7980  140.8220 C   0  0  1  0  0  3  0  0  0  0  0  0
  188.7540  177.6100  137.6040 C   0  0  0  0  0  3  0  0  0  0  0  0
  183.2910  177.2590  138.0750 C   0  0  0  0  0  2  0  0  0  0  0  0
  185.6150  177.4740  137.1260 C   0  0  0  0  0  0  0  0  0  0  0  0
  183.5340  178.6870  138.5550 C   0  0  0  0  0  2  0  0  0  0  0  0
  186.2470  177.5160  135.9200 C   0  0  0  0  0  3  0  0  0  0  0  0
  184.2930  176.9190  137.0690 N   0  0  0  0  0  2  0  0  0  0  0  0
  187.1950  178.2400  139.1340 O   0  0  0  0  0  0  0  0  0  0  0  0
  184.9400  178.7770  139.0690 C   0  0  0  0  0  3  0  0  0  0  0  0
  185.9640  178.2040  138.4240 C   0  0  0  0  0  0  0  0  0  0  0  0
  188.3630  177.4250  138.9630 C   0  0  2  0  0  3  0  0  0  0  0  0
  188.4780  177.8720  136.4870 C   0  0  0  0  0  3  0  0  0  0  0  0
  187.5260  178.1800  135.4680 C   0  0  0  0  0  2  0  0  0  0  0  0
  189.6150  178.2780  145.5580 C   0  0  0  0  0  2  0  0  0  0  0  0
  189.7080  177.4720  143.2520 C   0  0  0  0  0  0  0  0  0  0  0  0
  190.2630  178.0800  144.2610 N   0  0  0  0  0  0  0  0  0  0  0  0
  190.4370  177.3790  142.0270 N   0  0  0  0  0  2  0  0  0  0  0  0
  188.6130  177.1630  145.8520 C   0  0  2  0  0  3  0  0  0  0  0  0
  187.6410  177.1290  144.6790 C   0  0  0  0  0  2  0  0  0  0  0  0
  188.3780  176.7680  143.3920 C   0  0  0  0  0  2  0  0  0  0  0  0
  188.7400  178.2050  148.1300 C   0  0  0  0  0  1  0  0  0  0  0  0
  186.5980  178.2370  146.9150 C   0  0  0  0  0  1  0  0  0  0  0  0
  187.8630  177.4300  147.1590 C   0  0  0  0  0  3  0  0  0  0  0  0
  1  2  1  6  0  0  0
  1  3  1  0  0  0  0
  2  3  1  0  0  0  0
  3 19  1  1  0  0  0
  5  7  1  0  0  0  0
  6 12  1  0  0  0  0
  7 11  1  0  0  0  0
  8  6  2  0  0  0  0
  9  6  1  0  0  0  0
  9  5  1  0  0  0  0
 12 11  2  0  0  0  0
 12 10  1  0  0  0  0
 13  4  1  6  0  0  0
 13 10  1  0  0  0  0
 13  1  1  0  0  0  0
 14  4  2  0  0  0  0
 15  8  1  0  0  0  0
 15 14  1  0  0  0  0
 16 20  1  0  0  0  0
 17 22  1  0  0  0  0
 17 18  2  0  0  0  0
 18 16  1  0  0  0  0
 19 17  1  0  0  0  0
 20 25  1  1  0  0  0
 21 20  1  0  0  0  0
 22 21  1  0  0  0  0
 24 25  1  0  0  0  0
 25 23  1  0  0  0  0
M  END
>  <MODEL>
2

>  <REMARK>
 VINA RESULT:      -8.2      2.710      7.810
  Name = 
  3 active torsions:
  status: ('A' for Active; 'I' for Inactive)
    1  A    between atoms: C_3  and  C_19
    2  A    between atoms: C_12  and  N_21
    3  A    between atoms: C_18  and  C_23
                            x       y       z     vdW  Elec       q    Type
                         _______ _______ _______ _____ _____    ______ ____

>  <TORSDO>
F 3

$$$$
=
 OpenBabel11032419183D

 25 28  0  0  1  0  0  0  0  0999 V2000
  188.2790  177.5720  141.8040 C   0  0  2  0  0  3  0  0  0  0  0  0
  188.9260  178.2990  140.6430 C   0  0  0  0  0  2  0  0  0  0  0  0
  187.7280  178.9070  141.3400 C   0  0  1  0  0  3  0  0  0  0  0  0
  190.2910  177.0040  143.0000 C   0  0  0  0  0  3  0  0  0  0  0  0
  188.9910  178.2190  148.1980 C   0  0  0  0  0  2  0  0  0  0  0  0
  190.1770  177.3340  146.1580 C   0  0  0  0  0  0  0  0  0  0  0  0
  188.0000  177.0970  147.9040 C   0  0  0  0  0  2  0  0  0  0  0  0
  191.3430  176.7190  145.8180 C   0  0  0  0  0  3  0  0  0  0  0  0
  190.2150  177.9810  147.4390 N   0  0  0  0  0  2  0  0  0  0  0  0
  188.3740  177.2660  144.1930 O   0  0  0  0  0  0  0  0  0  0  0  0
  187.7730  177.0460  146.4220 C   0  0  0  0  0  3  0  0  0  0  0  0
  188.7830  177.1650  145.5510 C   0  0  0  0  0  0  0  0  0  0  0  0
  189.0960  177.7810  143.0660 C   0  0  2  0  0  3  0  0  0  0  0  0
  191.1120  176.3430  143.5310 C   0  0  0  0  0  3  0  0  0  0  0  0
  191.6980  175.7690  144.6990 C   0  0  0  0  0  2  0  0  0  0  0  0
  182.8420  178.1510  140.8480 C   0  0  0  0  0  2  0  0  0  0  0  0
  185.2290  178.5940  141.1400 C   0  0  0  0  0  0  0  0  0  0  0  0
  184.2190  178.2990  140.3730 N   0  0  0  0  0  0  0  0  0  0  0  0
  186.5300  178.6710  140.5540 N   0  0  0  0  0  2  0  0  0  0  0  0
  182.5850  179.0250  142.0750 C   0  0  2  0  0  3  0  0  0  0  0  0
  183.6360  178.6440  143.1100 C   0  0  0  0  0  2  0  0  0  0  0  0
  185.0330  178.9710  142.5900 C   0  0  0  0  0  2  0  0  0  0  0  0
  181.2140  178.6750  144.1460 C   0  0  0  0  0  1  0  0  0  0  0  0
  180.2400  179.9260  142.2620 C   0  0  0  0  0  1  0  0  0  0  0  0
  181.1780  178.7880  142.6300 C   0  0  0  0  0  3  0  0  0  0  0  0
  1  2  1  6  0  0  0
  1 13  1  0  0  0  0
  2  3  1  0  0  0  0
  3 19  1  6  0  0  0
  3  1  1  0  0  0  0
  4 14  2  0  0  0  0
  6  9  1  0  0  0  0
  7  5  1  0  0  0  0
  8  6  2  0  0  0  0
  9  5  1  0  0  0  0
 10 12  1  0  0  0  0
 11  7  1  0  0  0  0
 12  6  1  0  0  0  0
 12 11  2  0  0  0  0
 13  4  1  6  0  0  0
 13 10  1  0  0  0  0
 14 15  1  0  0  0  0
 15  8  1  0  0  0  0
 16 20  1  0  0  0  0
 17 22  1  0  0  0  0
 18 16  1  0  0  0  0
 18 17  2  0  0  0  0
 19 17  1  0  0  0  0
 20 25  1  1  0  0  0
 20 21  1  0  0  0  0
 22 21  1  0  0  0  0
 24 25  1  0  0  0  0
 25 23  1  0  0  0  0
M  END
>  <MODEL>
3

>  <REMARK>
 VINA RESULT:      -7.9      2.971      5.987
  Name = 
  3 active torsions:
  status: ('A' for Active; 'I' for Inactive)
    1  A    between atoms: C_3  and  C_19
    2  A    between atoms: C_12  and  N_21
    3  A    between atoms: C_18  and  C_23
                            x       y       z     vdW  Elec       q    Type
                         _______ _______ _______ _____ _____    ______ ____

>  <TORSDO>
F 3

$$$$
=
 OpenBabel11032419183D

 25 28  0  0  1  0  0  0  0  0999 V2000
  189.0550  177.9320  143.0930 C   0  0  2  0  0  3  0  0  0  0  0  0
  189.4900  177.1250  144.2980 C   0  0  0  0  0  2  0  0  0  0  0  0
  188.0700  177.0100  143.7880 C   0  0  1  0  0  3  0  0  0  0  0  0
  190.9700  177.1870  141.8370 C   0  0  0  0  0  3  0  0  0  0  0  0
  189.0240  176.9280  136.7050 C   0  0  0  0  0  2  0  0  0  0  0  0
  190.5730  176.9580  138.6930 C   0  0  0  0  0  0  0  0  0  0  0  0
  188.9000  178.4220  136.9900 C   0  0  0  0  0  2  0  0  0  0  0  0
  191.8890  176.7670  138.9900 C   0  0  0  0  0  3  0  0  0  0  0  0
  190.1770  176.4020  137.4310 N   0  0  0  0  0  2  0  0  0  0  0  0
  189.2290  178.1000  140.6940 O   0  0  0  0  0  0  0  0  0  0  0  0
  188.7990  178.6110  138.4740 C   0  0  0  0  0  3  0  0  0  0  0  0
  189.5720  177.9250  139.3250 C   0  0  0  0  0  0  0  0  0  0  0  0
  189.5450  177.2680  141.8190 C   0  0  2  0  0  3  0  0  0  0  0  0
  192.0040  177.2290  141.2700 C   0  0  0  0  0  3  0  0  0  0  0  0
  192.7750  177.3330  140.0730 C   0  0  0  0  0  2  0  0  0  0  0  0
  183.8860  179.5630  144.6000 C   0  0  0  0  0  2  0  0  0  0  0  0
  185.8960  178.2390  144.1720 C   0  0  0  0  0  0  0  0  0  0  0  0
  185.2010  179.0210  144.9460 N   0  0  0  0  0  0  0  0  0  0  0  0
  187.1840  177.8110  144.6160 N   0  0  0  0  0  2  0  0  0  0  0  0
  183.1320  178.6230  143.6600 C   0  0  2  0  0  3  0  0  0  0  0  0
  184.0370  178.3910  142.4570 C   0  0  0  0  0  2  0  0  0  0  0  0
  185.3200  177.6880  142.8890 C   0  0  0  0  0  2  0  0  0  0  0  0
  181.5760  179.0150  141.7320 C   0  0  0  0  0  1  0  0  0  0  0  0
  180.6320  178.6350  143.9740 C   0  0  0  0  0  1  0  0  0  0  0  0
  181.8030  179.2420  143.2180 C   0  0  0  0  0  3  0  0  0  0  0  0
  1  3  1  0  0  0  0
  1  2  1  1  0  0  0
  3  2  1  0  0  0  0
  3 19  1  1  0  0  0
  5  7  1  0  0  0  0
  5  9  1  0  0  0  0
  6  8  2  0  0  0  0
  6 12  1  0  0  0  0
  7 11  1  0  0  0  0
  8 15  1  0  0  0  0
  9  6  1  0  0  0  0
 10 13  1  0  0  0  0
 11 12  2  0  0  0  0
 12 10  1  0  0  0  0
 13  4  1  1  0  0  0
 13  1  1  0  0  0  0
 14  4  2  0  0  0  0
 15 14  1  0  0  0  0
 16 18  1  0  0  0  0
 17 19  1  0  0  0  0
 17 18  2  0  0  0  0
 20 25  1  6  0  0  0
 20 16  1  0  0  0  0
 21 22  1  0  0  0  0
 21 20  1  0  0  0  0
 22 17  1  0  0  0  0
 23 25  1  0  0  0  0
 25 24  1  0  0  0  0
M  END
>  <MODEL>
4

>  <REMARK>
 VINA RESULT:      -7.8      2.024      7.517
  Name = 
  3 active torsions:
  status: ('A' for Active; 'I' for Inactive)
    1  A    between atoms: C_3  and  C_19
    2  A    between atoms: C_12  and  N_21
    3  A    between atoms: C_18  and  C_23
                            x       y       z     vdW  Elec       q    Type
                         _______ _______ _______ _____ _____    ______ ____

>  <TORSDO>
F 3

$$$$
=
 OpenBabel11032419183D

 25 28  0  0  1  0  0  0  0  0999 V2000
  185.7320  178.9120  144.1190 C   0  0  2  0  0  3  0  0  0  0  0  0
  184.3810  178.2340  144.0140 C   0  0  0  0  0  2  0  0  0  0  0  0
  185.3410  178.1870  142.8450 C   0  0  1  0  0  3  0  0  0  0  0  0
  186.4660  178.2370  146.3110 C   0  0  0  0  0  3  0  0  0  0  0  0
  191.5110  176.2860  145.3460 C   0  0  0  0  0  2  0  0  0  0  0  0
  189.4360  177.1240  146.5050 C   0  0  0  0  0  0  0  0  0  0  0  0
  191.6860  177.7510  144.9590 C   0  0  0  0  0  2  0  0  0  0  0  0
  188.9320  177.2670  147.7620 C   0  0  0  0  0  3  0  0  0  0  0  0
  190.5250  176.1930  146.4190 N   0  0  0  0  0  2  0  0  0  0  0  0
  188.0350  178.4760  144.6820 O   0  0  0  0  0  0  0  0  0  0  0  0
  190.3440  178.2990  144.5750 C   0  0  0  0  0  3  0  0  0  0  0  0
  189.2410  178.0180  145.2790 C   0  0  0  0  0  0  0  0  0  0  0  0
  186.6880  178.0420  144.9150 C   0  0  2  0  0  3  0  0  0  0  0  0
  186.8860  178.3220  147.4110 C   0  0  0  0  0  3  0  0  0  0  0  0
  187.9540  178.2520  148.3550 C   0  0  0  0  0  2  0  0  0  0  0  0
  183.1430  179.5460  138.6010 C   0  0  0  0  0  2  0  0  0  0  0  0
  184.1510  178.8360  140.7130 C   0  0  0  0  0  0  0  0  0  0  0  0
  183.9150  179.7600  139.8270 N   0  0  0  0  0  0  0  0  0  0  0  0
  184.9510  179.1690  141.8480 N   0  0  0  0  0  2  0  0  0  0  0  0
  182.0990  178.4470  138.7910 C   0  0  2  0  0  3  0  0  0  0  0  0
  182.8500  177.2100  139.2690 C   0  0  0  0  0  2  0  0  0  0  0  0
  183.4990  177.4760  140.6240 C   0  0  0  0  0  2  0  0  0  0  0  0
  180.9540  179.4480  136.7970 C   0  0  0  0  0  1  0  0  0  0  0  0
  182.2470  177.3710  136.5180 C   0  0  0  0  0  1  0  0  0  0  0  0
  181.3670  178.1540  137.4790 C   0  0  0  0  0  3  0  0  0  0  0  0
  1  2  1  1  0  0  0
  1 13  1  0  0  0  0
  3 19  1  6  0  0  0
  3  2  1  0  0  0  0
  3  1  1  0  0  0  0
  4 14  2  0  0  0  0
  5  9  1  0  0  0  0
  6  8  2  0  0  0  0
  7  5  1  0  0  0  0
  8 15  1  0  0  0  0
  9  6  1  0  0  0  0
 10 13  1  0  0  0  0
 10 12  1  0  0  0  0
 11  7  1  0  0  0  0
 11 12  2  0  0  0  0
 12  6  1  0  0  0  0
 13  4  1  1  0  0  0
 14 15  1  0  0  0  0
 16 20  1  0  0  0  0
 16 18  1  0  0  0  0
 17 19  1  0  0  0  0
 18 17  2  0  0  0  0
 20 25  1  6  0  0  0
 20 21  1  0  0  0  0
 21 22  1  0  0  0  0
 22 17  1  0  0  0  0
 23 25  1  0  0  0  0
 24 25  1  0  0  0  0
M  END
>  <MODEL>
5

>  <REMARK>
 VINA RESULT:      -7.7      3.978      5.803
  Name = 
  3 active torsions:
  status: ('A' for Active; 'I' for Inactive)
    1  A    between atoms: C_3  and  C_19
    2  A    between atoms: C_12  and  N_21
    3  A    between atoms: C_18  and  C_23
                            x       y       z     vdW  Elec       q    Type
                         _______ _______ _______ _____ _____    ______ ____

>  <TORSDO>
F 3

$$$$
=
 OpenBabel11032419183D

 25 28  0  0  1  0  0  0  0  0999 V2000
  190.0640  175.9770  142.7020 C   0  0  2  0  0  3  0  0  0  0  0  0
  191.3450  176.6360  143.1690 C   0  0  0  0  0  2  0  0  0  0  0  0
  190.4590  177.3390  142.1640 C   0  0  1  0  0  3  0  0  0  0  0  0
  187.8460  176.7930  143.1690 C   0  0  0  0  0  3  0  0  0  0  0  0
  187.9190  177.4360  148.6250 C   0  0  0  0  0  2  0  0  0  0  0  0
  187.2410  177.5300  146.2000 C   0  0  0  0  0  0  0  0  0  0  0  0
  188.9740  178.4520  148.1970 C   0  0  0  0  0  2  0  0  0  0  0  0
  186.1940  177.9320  145.4270 C   0  0  0  0  0  3  0  0  0  0  0  0
  186.9020  177.3400  147.5810 N   0  0  0  0  0  2  0  0  0  0  0  0
  189.4410  177.0480  144.7700 O   0  0  0  0  0  0  0  0  0  0  0  0
  189.5290  178.0240  146.8710 C   0  0  0  0  0  3  0  0  0  0  0  0
  188.7380  177.5680  145.8920 C   0  0  0  0  0  0  0  0  0  0  0  0
  188.9800  176.1500  143.7500 C   0  0  2  0  0  3  0  0  0  0  0  0
  186.9410  177.5450  143.2550 C   0  0  0  0  0  3  0  0  0  0  0  0
  186.1190  178.4380  144.0060 C   0  0  0  0  0  2  0  0  0  0  0  0
  190.0560  177.1660  137.2150 C   0  0  0  0  0  2  0  0  0  0  0  0
  190.2130  177.3290  139.6490 C   0  0  0  0  0  0  0  0  0  0  0  0
  190.7610  177.0830  138.4950 N   0  0  0  0  0  0  0  0  0  0  0  0
  191.0050  177.1740  140.8280 N   0  0  0  0  0  2  0  0  0  0  0  0
  188.9270  178.1950  137.2720 C   0  0  2  0  0  3  0  0  0  0  0  0
  188.0340  177.7980  138.4410 C   0  0  0  0  0  2  0  0  0  0  0  0
  188.8110  177.8840  139.7520 C   0  0  0  0  0  2  0  0  0  0  0  0
  188.8470  177.4030  134.8940 C   0  0  0  0  0  1  0  0  0  0  0  0
  186.7460  177.5980  136.1630 C   0  0  0  0  0  1  0  0  0  0  0  0
  188.1260  178.2030  135.9670 C   0  0  0  0  0  3  0  0  0  0  0  0
  1  2  1  1  0  0  0
  1 13  1  0  0  0  0
  3 19  1  6  0  0  0
  3  1  1  0  0  0  0
  3  2  1  0  0  0  0
  4 14  2  0  0  0  0
  6  9  1  0  0  0  0
  7  5  1  0  0  0  0
  8  6  2  0  0  0  0
  9  5  1  0  0  0  0
 10 12  1  0  0  0  0
 11  7  1  0  0  0  0
 12  6  1  0  0  0  0
 12 11  2  0  0  0  0
 13  4  1  6  0  0  0
 13 10  1  0  0  0  0
 14 15  1  0  0  0  0
 15  8  1  0  0  0  0
 16 20  1  0  0  0  0
 16 18  1  0  0  0  0
 17 22  1  0  0  0  0
 17 19  1  0  0  0  0
 18 17  2  0  0  0  0
 20 25  1  6  0  0  0
 20 21  1  0  0  0  0
 21 22  1  0  0  0  0
 23 25  1  0  0  0  0
 25 24  1  0  0  0  0
M  END
>  <MODEL>
6

>  <REMARK>
 VINA RESULT:      -7.5      1.337      2.710
  Name = 
  3 active torsions:
  status: ('A' for Active; 'I' for Inactive)
    1  A    between atoms: C_3  and  C_19
    2  A    between atoms: C_12  and  N_21
    3  A    between atoms: C_18  and  C_23
                            x       y       z     vdW  Elec       q    Type
                         _______ _______ _______ _____ _____    ______ ____

>  <TORSDO>
F 3

$$$$
=
 OpenBabel11032419183D

 25 28  0  0  1  0  0  0  0  0999 V2000
  183.7120  178.7260  141.4810 C   0  0  2  0  0  3  0  0  0  0  0  0
  185.1880  179.0610  141.4150 C   0  0  0  0  0  2  0  0  0  0  0  0
  184.7110  177.9280  142.2980 C   0  0  1  0  0  3  0  0  0  0  0  0
  183.1990  178.7810  139.1280 C   0  0  0  0  0  3  0  0  0  0  0  0
  180.2770  174.1820  138.4210 C   0  0  0  0  0  2  0  0  0  0  0  0
  181.3590  176.4270  138.0470 C   0  0  0  0  0  0  0  0  0  0  0  0
  179.3680  174.9630  139.3640 C   0  0  0  0  0  2  0  0  0  0  0  0
  181.5280  177.3490  137.0580 C   0  0  0  0  0  3  0  0  0  0  0  0
  180.9970  175.1230  137.5680 N   0  0  0  0  0  2  0  0  0  0  0  0
  181.9930  177.3820  140.4550 O   0  0  0  0  0  0  0  0  0  0  0  0
  180.2120  175.9320  140.1370 C   0  0  0  0  0  3  0  0  0  0  0  0
  181.1820  176.6450  139.5500 C   0  0  0  0  0  0  0  0  0  0  0  0
  183.3090  177.9190  140.2600 C   0  0  2  0  0  3  0  0  0  0  0  0
  182.6640  179.0830  138.1210 C   0  0  0  0  0  3  0  0  0  0  0  0
  181.7040  178.8480  137.0910 C   0  0  0  0  0  2  0  0  0  0  0  0
  186.5170  178.2950  146.9120 C   0  0  0  0  0  2  0  0  0  0  0  0
  185.7050  178.1430  144.6110 C   0  0  0  0  0  0  0  0  0  0  0  0
  185.5330  178.5060  145.8490 N   0  0  0  0  0  0  0  0  0  0  0  0
  184.6480  178.3740  143.6790 N   0  0  0  0  0  2  0  0  0  0  0  0
  187.9390  178.2910  146.3540 C   0  0  2  0  0  3  0  0  0  0  0  0
  187.9770  177.2290  145.2630 C   0  0  0  0  0  2  0  0  0  0  0  0
  187.0310  177.6050  144.1260 C   0  0  0  0  0  2  0  0  0  0  0  0
  188.2830  177.9380  148.8140 C   0  0  0  0  0  1  0  0  0  0  0  0
  189.6100  176.6140  147.2170 C   0  0  0  0  0  1  0  0  0  0  0  0
  188.9570  177.9670  147.4510 C   0  0  0  0  0  3  0  0  0  0  0  0
  1  2  1  6  0  0  0
  1  3  1  0  0  0  0
  2  3  1  0  0  0  0
  3 19  1  1  0  0  0
  5  7  1  0  0  0  0
  6 12  1  0  0  0  0
  7 11  1  0  0  0  0
  8 15  1  0  0  0  0
  8  6  2  0  0  0  0
  9  6  1  0  0  0  0
  9  5  1  0  0  0  0
 12 11  2  0  0  0  0
 12 10  1  0  0  0  0
 13  4  1  6  0  0  0
 13 10  1  0  0  0  0
 13  1  1  0  0  0  0
 14  4  2  0  0  0  0
 15 14  1  0  0  0  0
 17 18  2  0  0  0  0
 18 16  1  0  0  0  0
 19 17  1  0  0  0  0
 20 16  1  0  0  0  0
 20 25  1  1  0  0  0
 21 20  1  0  0  0  0
 22 17  1  0  0  0  0
 22 21  1  0  0  0  0
 24 25  1  0  0  0  0
 25 23  1  0  0  0  0
M  END
>  <MODEL>
7

>  <REMARK>
 VINA RESULT:      -7.4      4.918      9.104
  Name = 
  3 active torsions:
  status: ('A' for Active; 'I' for Inactive)
    1  A    between atoms: C_3  and  C_19
    2  A    between atoms: C_12  and  N_21
    3  A    between atoms: C_18  and  C_23
                            x       y       z     vdW  Elec       q    Type
                         _______ _______ _______ _____ _____    ______ ____

>  <TORSDO>
F 3

$$$$
=
 OpenBabel11032419183D

 25 28  0  0  1  0  0  0  0  0999 V2000
  184.8070  178.8550  142.5470 C   0  0  2  0  0  3  0  0  0  0  0  0
  186.2080  179.0930  142.0210 C   0  0  0  0  0  2  0  0  0  0  0  0
  185.8970  177.8280  142.7920 C   0  0  1  0  0  3  0  0  0  0  0  0
  184.1300  179.1570  140.2560 C   0  0  0  0  0  3  0  0  0  0  0  0
  179.1940  176.7480  140.1270 C   0  0  0  0  0  2  0  0  0  0  0  0
  181.2280  178.1000  139.5080 C   0  0  0  0  0  0  0  0  0  0  0  0
  178.9340  177.8930  141.1010 C   0  0  0  0  0  2  0  0  0  0  0  0
  181.7340  178.7940  138.4510 C   0  0  0  0  0  3  0  0  0  0  0  0
  180.1930  177.1730  139.1500 N   0  0  0  0  0  2  0  0  0  0  0  0
  182.5370  178.5980  141.7790 O   0  0  0  0  0  0  0  0  0  0  0  0
  180.2400  178.2850  141.7260 C   0  0  0  0  0  3  0  0  0  0  0  0
  181.3630  178.3860  141.0040 C   0  0  0  0  0  0  0  0  0  0  0  0
  183.9080  178.3700  141.4250 C   0  0  2  0  0  3  0  0  0  0  0  0
  183.7160  179.6880  139.2860 C   0  0  0  0  0  3  0  0  0  0  0  0
  182.6610  179.9830  138.3700 C   0  0  0  0  0  2  0  0  0  0  0  0
  189.2500  177.1800  146.4000 C   0  0  0  0  0  2  0  0  0  0  0  0
  187.6630  177.5340  144.5750 C   0  0  0  0  0  0  0  0  0  0  0  0
  187.9710  177.6140  145.8370 N   0  0  0  0  0  0  0  0  0  0  0  0
  186.3640  177.9600  144.1610 N   0  0  0  0  0  2  0  0  0  0  0  0
  190.3760  177.3040  145.3750 C   0  0  2  0  0  3  0  0  0  0  0  0
  189.9420  176.5080  144.1510 C   0  0  0  0  0  2  0  0  0  0  0  0
  188.6840  177.1210  143.5410 C   0  0  0  0  0  2  0  0  0  0  0  0
  191.5790  176.5240  147.4320 C   0  0  0  0  0  1  0  0  0  0  0  0
  192.0550  175.4290  145.2790 C   0  0  0  0  0  1  0  0  0  0  0  0
  191.6900  176.7510  145.9340 C   0  0  0  0  0  3  0  0  0  0  0  0
  1  2  1  6  0  0  0
  1  3  1  0  0  0  0
  2  3  1  0  0  0  0
  3 19  1  1  0  0  0
  5  7  1  0  0  0  0
  6 12  1  0  0  0  0
  7 11  1  0  0  0  0
  8  6  2  0  0  0  0
  9  6  1  0  0  0  0
  9  5  1  0  0  0  0
 12 11  2  0  0  0  0
 12 10  1  0  0  0  0
 13  4  1  6  0  0  0
 13 10  1  0  0  0  0
 13  1  1  0  0  0  0
 14  4  2  0  0  0  0
 15  8  1  0  0  0  0
 15 14  1  0  0  0  0
 17 18  2  0  0  0  0
 18 16  1  0  0  0  0
 19 17  1  0  0  0  0
 20 25  1  1  0  0  0
 20 16  1  0  0  0  0
 21 20  1  0  0  0  0
 22 21  1  0  0  0  0
 22 17  1  0  0  0  0
 24 25  1  0  0  0  0
 25 23  1  0  0  0  0
M  END
>  <MODEL>
8

>  <REMARK>
 VINA RESULT:      -7.2      4.346      7.872
  Name = 
  3 active torsions:
  status: ('A' for Active; 'I' for Inactive)
    1  A    between atoms: C_3  and  C_19
    2  A    between atoms: C_12  and  N_21
    3  A    between atoms: C_18  and  C_23
                            x       y       z     vdW  Elec       q    Type
                         _______ _______ _______ _____ _____    ______ ____

>  <TORSDO>
F 3

$$$$
=
 OpenBabel11032419183D

 25 28  0  0  1  0  0  0  0  0999 V2000
  184.0080  178.1930  144.0390 C   0  0  2  0  0  3  0  0  0  0  0  0
  184.3960  178.9470  145.2940 C   0  0  0  0  0  2  0  0  0  0  0  0
  185.3170  178.9590  144.0940 C   0  0  1  0  0  3  0  0  0  0  0  0
  181.6980  178.8390  143.8210 C   0  0  0  0  0  3  0  0  0  0  0  0
  181.3650  180.3760  138.5560 C   0  0  0  0  0  2  0  0  0  0  0  0
  180.7640  179.7190  140.9140 C   0  0  0  0  0  0  0  0  0  0  0  0
  181.7050  178.8960  138.4070 C   0  0  0  0  0  2  0  0  0  0  0  0
  179.6720  179.6330  141.7240 C   0  0  0  0  0  3  0  0  0  0  0  0
  180.5700  180.5610  139.7680 N   0  0  0  0  0  2  0  0  0  0  0  0
  182.8870  178.4550  141.9210 O   0  0  0  0  0  0  0  0  0  0  0  0
  182.4140  178.4490  139.6510 C   0  0  0  0  0  3  0  0  0  0  0  0
  182.0050  178.8260  140.8690 C   0  0  0  0  0  0  0  0  0  0  0  0
  182.9940  178.9970  143.2450 C   0  0  2  0  0  3  0  0  0  0  0  0
  180.5290  178.7370  143.6960 C   0  0  0  0  0  3  0  0  0  0  0  0
  179.3470  178.7360  142.8940 C   0  0  0  0  0  2  0  0  0  0  0  0
  189.2350  176.3260  142.5450 C   0  0  0  0  0  2  0  0  0  0  0  0
  187.3440  177.6930  143.2740 C   0  0  0  0  0  0  0  0  0  0  0  0
  188.2370  176.7770  143.5150 N   0  0  0  0  0  0  0  0  0  0  0  0
  186.4020  178.0150  144.2980 N   0  0  0  0  0  2  0  0  0  0  0  0
  189.5950  177.4400  141.5640 C   0  0  2  0  0  3  0  0  0  0  0  0
  188.2890  177.9030  140.9310 C   0  0  0  0  0  2  0  0  0  0  0  0
  187.3680  178.4960  141.9940 C   0  0  0  0  0  2  0  0  0  0  0  0
  190.0940  177.3650  139.1070 C   0  0  0  0  0  1  0  0  0  0  0  0
  191.9630  177.4740  140.7060 C   0  0  0  0  0  1  0  0  0  0  0  0
  190.5590  176.9330  140.4880 C   0  0  0  0  0  3  0  0  0  0  0  0
  1  3  1  0  0  0  0
  1  2  1  1  0  0  0
  3 19  1  1  0  0  0
  3  2  1  0  0  0  0
  5  9  1  0  0  0  0
  6  8  2  0  0  0  0
  7  5  1  0  0  0  0
  7 11  1  0  0  0  0
  8 15  1  0  0  0  0
  9  6  1  0  0  0  0
 10 13  1  0  0  0  0
 11 12  2  0  0  0  0
 12  6  1  0  0  0  0
 12 10  1  0  0  0  0
 13  4  1  1  0  0  0
 13  1  1  0  0  0  0
 14  4  2  0  0  0  0
 15 14  1  0  0  0  0
 16 18  1  0  0  0  0
 17 18  2  0  0  0  0
 17 19  1  0  0  0  0
 20 25  1  6  0  0  0
 20 16  1  0  0  0  0
 21 20  1  0  0  0  0
 21 22  1  0  0  0  0
 22 17  1  0  0  0  0
 23 25  1  0  0  0  0
 25 24  1  0  0  0  0
M  END
>  <MODEL>
9

>  <REMARK>
 VINA RESULT:      -7.2      3.952      6.473
  Name = 
  3 active torsions:
  status: ('A' for Active; 'I' for Inactive)
    1  A    between atoms: C_3  and  C_19
    2  A    between atoms: C_12  and  N_21
    3  A    between atoms: C_18  and  C_23
                            x       y       z     vdW  Elec       q    Type
                         _______ _______ _______ _____ _____    ______ ____

>  <TORSDO>
F 3

$$$$
