=
 OpenBabel11032420553D

 47 52  0  0  1  0  0  0  0  0999 V2000
  188.7230  177.8770  141.2320 C   0  0  2  0  0  3  0  0  0  0  0  0
  187.9250  176.3580  138.0330 C   0  0  0  0  0  2  0  0  0  0  0  0
  188.2890  177.7130  138.6350 C   0  0  2  0  0  0  0  0  0  0  0  0
  180.6280  180.1990  139.4750 C   0  0  0  0  0  3  0  0  0  0  0  0
  186.8020  176.4510  136.9970 C   0  0  1  0  0  3  0  0  0  0  0  0
  186.6370  178.6460  143.0170 O   0  0  0  0  0  0  0  0  0  0  0  0
  181.3340  180.0550  138.3560 C   0  0  0  0  0  0  0  0  0  0  0  0
  182.8950  178.3040  140.3930 C   0  0  0  0  0  0  0  0  0  0  0  0
  186.8650  175.3840  135.9020 C   0  0  2  0  0  3  0  0  0  0  0  0
  184.4990  175.4390  136.5910 C   0  0  0  0  0  2  0  0  0  0  0  0
  180.7350  179.3670  140.6250 N   0  0  0  0  0  2  0  0  0  0  0  0
  184.1310  177.8730  141.1130 C   0  0  0  0  0  2  0  0  0  0  0  0
  183.7240  177.6390  136.1410 O   0  0  0  0  0  0  0  0  0  0  0  0
  181.9290  178.8030  141.1020 N   0  0  0  0  0  0  0  0  0  0  0  0
  186.3800  178.6500  141.7830 C   0  0  0  0  0  0  0  0  0  0  0  0
  185.0260  179.0790  141.3320 C   0  0  0  0  0  2  0  0  0  0  0  0
  187.3700  178.2320  140.8320 N   0  0  0  0  0  0  0  0  0  0  0  0
  187.1030  178.2740  139.4050 C   0  0  0  0  0  2  0  0  0  0  0  0
  185.9290  175.2060  137.0860 C   0  0  2  0  0  3  0  0  0  0  0  0
  182.1920  178.8970  138.0830 C   0  0  0  0  0  3  0  0  0  0  0  0
  182.8440  178.0940  138.9280 C   0  0  0  0  0  0  0  0  0  0  0  0
  183.9110  176.7500  137.0130 C   0  0  0  0  0  0  0  0  0  0  0  0
  188.6930  178.6900  137.5440 C   0  0  0  0  0  1  0  0  0  0  0  0
  183.6060  176.9940  138.3970 N   0  0  0  0  0  2  0  0  0  0  0  0
  189.7080  177.4810  139.7550 S   0  0  0  0  0  0  0  0  0  0  0  0
  180.8880  180.6050  136.0860 O   0  0  0  0  0  0  0  0  0  0  0  0
  181.1250  181.0150  137.2550 C   0  0  0  0  0  0  0  0  0  0  0  0
  181.1720  182.3880  137.5190 O   0  0  0  0  0  0  0  0  0  0  0  0
  180.2480  183.2980  136.9410 C   0  0  0  0  0  1  0  0  0  0  0  0
  188.7430  176.7780  142.2040 N   0  0  0  0  0  2  0  0  0  0  0  0
  190.0040  176.7570  142.9410 C   0  0  0  0  0  2  0  0  0  0  0  0
  189.9500  177.7690  144.0730 C   0  0  0  0  0  2  0  0  0  0  0  0
  189.0360  177.3110  145.1130 N   0  0  0  0  0  2  0  0  0  0  0  0
  189.6970  177.5030  146.3920 C   0  0  2  0  0  3  0  0  0  0  0  0
  190.8790  176.7640  146.4160 O   0  0  0  0  0  1  0  0  0  0  0  0
  188.5750  178.1690  148.5030 C   0  0  0  0  0  2  0  0  0  0  0  0
  188.7810  177.0370  147.5090 C   0  0  0  0  0  3  0  0  0  0  0  0
  187.5090  177.8560  147.4800 C   0  0  0  0  0  2  0  0  0  0  0  0
  188.0160  174.5010  136.0360 N   0  0  0  0  0  2  0  0  0  0  0  0
  189.0320  175.0070  135.1210 C   0  0  0  0  0  2  0  0  0  0  0  0
  192.2170  173.6490  136.5680 N   0  0  0  0  0  0  0  0  0  0  0  0
  190.3780  174.9350  135.7550 C   0  0  0  0  0  0  0  0  0  0  0  0
  190.9900  173.7020  135.9820 C   0  0  0  0  0  3  0  0  0  0  0  0
  192.8740  174.7760  136.9420 C   0  0  0  0  0  0  0  0  0  0  0  0
  191.0420  176.1050  136.1230 C   0  0  0  0  0  3  0  0  0  0  0  0
  194.2090  174.6770  137.5870 C   0  0  0  0  0  1  0  0  0  0  0  0
  192.2980  176.0280  136.7230 C   0  0  0  0  0  3  0  0  0  0  0  0
  1 30  1  1  0  0  0
  2  3  1  0  0  0  0
  3 23  1  6  0  0  0
  3 18  1  0  0  0  0
  3 25  1  0  0  0  0
  4 11  1  0  0  0  0
  5 19  1  0  0  0  0
  5  2  1  1  0  0  0
  7  4  2  0  0  0  0
  8 14  2  0  0  0  0
  8 12  1  0  0  0  0
  9 39  1  1  0  0  0
  9  5  1  0  0  0  0
  9 19  1  0  0  0  0
 10 22  1  0  0  0  0
 11 14  1  0  0  0  0
 12 16  1  0  0  0  0
 13 22  2  0  0  0  0
 15  6  2  0  0  0  0
 16 15  1  0  0  0  0
 17  1  1  0  0  0  0
 17 15  1  0  0  0  0
 18 17  1  0  0  0  0
 19 10  1  6  0  0  0
 20  7  1  0  0  0  0
 20 21  2  0  0  0  0
 21  8  1  0  0  0  0
 22 24  1  0  0  0  0
 24 21  1  0  0  0  0
 25  1  1  0  0  0  0
 26 27  2  0  0  0  0
 27 28  1  0  0  0  0
 27  7  1  0  0  0  0
 29 28  1  0  0  0  0
 30 31  1  0  0  0  0
 31 32  1  0  0  0  0
 32 33  1  0  0  0  0
 33 34  1  0  0  0  0
 34 35  1  6  0  0  0
 34 37  1  0  0  0  0
 37 36  1  0  0  0  0
 38 37  1  0  0  0  0
 38 36  1  0  0  0  0
 40 42  1  0  0  0  0
 40 39  1  0  0  0  0
 41 44  1  0  0  0  0
 42 43  1  0  0  0  0
 42 45  2  0  0  0  0
 43 41  2  0  0  0  0
 44 46  1  0  0  0  0
 45 47  1  0  0  0  0
 47 44  2  0  0  0  0
M  END
>  <MODEL>
1

>  <REMARK>
 VINA RESULT:      -7.9      0.000      0.000
  Name = 
  11 active torsions:
  status: ('A' for Active; 'I' for Inactive)
    1  A    between atoms: C_2  and  N_24
    2  A    between atoms: C_5  and  N_21
    3  A    between atoms: C_5  and  C_40
    4  A    between atoms: C_7  and  C_42
    5  A    between atoms: C_10  and  C_36
    6  A    between atoms: C_12  and  N_21
    7  A    between atoms: C_12  and  C_43
    8  A    between atoms: C_16  and  N_31
    9  A    between atoms: N_24  and  C_43
   10  A    between atoms: O_25  and  C_36
   11  A    between atoms: N_31  and  C_42
                            x       y       z     vdW  Elec       q    Type
                         _______ _______ _______ _____ _____    ______ ____

>  <TORSDO>
F 11

$$$$
=
 OpenBabel11032420553D

 47 52  0  0  1  0  0  0  0  0999 V2000
  188.6890  177.9630  139.6460 C   0  0  2  0  0  3  0  0  0  0  0  0
  186.5430  176.1850  137.3190 C   0  0  0  0  0  2  0  0  0  0  0  0
  187.0840  177.5870  137.5860 C   0  0  2  0  0  0  0  0  0  0  0  0
  180.6280  180.0500  141.8090 C   0  0  0  0  0  3  0  0  0  0  0  0
  185.0600  176.1820  136.9400 C   0  0  1  0  0  3  0  0  0  0  0  0
  187.6640  178.8500  142.1540 O   0  0  0  0  0  0  0  0  0  0  0  0
  180.7250  179.8240  140.5010 C   0  0  0  0  0  0  0  0  0  0  0  0
  183.1470  178.2590  141.6570 C   0  0  0  0  0  0  0  0  0  0  0  0
  184.6470  175.0320  136.0200 C   0  0  2  0  0  3  0  0  0  0  0  0
  182.8910  175.1160  137.7470 C   0  0  0  0  0  2  0  0  0  0  0  0
  181.3070  179.3140  142.8210 N   0  0  0  0  0  2  0  0  0  0  0  0
  184.5950  177.9000  141.7280 C   0  0  0  0  0  2  0  0  0  0  0  0
  181.8920  177.2640  137.5780 O   0  0  0  0  0  0  0  0  0  0  0  0
  182.6100  178.8030  142.7070 N   0  0  0  0  0  0  0  0  0  0  0  0
  186.8530  178.7530  141.1940 C   0  0  0  0  0  0  0  0  0  0  0  0
  185.4290  179.1300  141.4150 C   0  0  0  0  0  2  0  0  0  0  0  0
  187.2920  178.2710  139.9160 N   0  0  0  0  0  0  0  0  0  0  0  0
  186.3790  178.1950  138.7890 C   0  0  0  0  0  2  0  0  0  0  0  0
  184.3940  174.9380  137.5160 C   0  0  2  0  0  3  0  0  0  0  0  0
  181.4050  178.6570  139.9290 C   0  0  0  0  0  3  0  0  0  0  0  0
  182.4170  177.9320  140.4120 C   0  0  0  0  0  0  0  0  0  0  0  0
  182.5120  176.4500  138.3120 C   0  0  0  0  0  0  0  0  0  0  0  0
  186.8750  178.4780  136.3730 C   0  0  0  0  0  1  0  0  0  0  0  0
  182.8880  176.8010  139.6540 N   0  0  0  0  0  2  0  0  0  0  0  0
  188.8730  177.4610  137.9060 S   0  0  0  0  0  0  0  0  0  0  0  0
  179.1720  181.5580  140.0170 O   0  0  0  0  0  0  0  0  0  0  0  0
  179.9740  180.6910  139.5730 C   0  0  0  0  0  0  0  0  0  0  0  0
  180.1720  180.5610  138.1940 O   0  0  0  0  0  0  0  0  0  0  0  0
  181.0510  181.4140  137.4760 C   0  0  0  0  0  1  0  0  0  0  0  0
  189.2200  176.9460  140.5590 N   0  0  0  0  0  2  0  0  0  0  0  0
  190.6790  176.9860  140.5930 C   0  0  0  0  0  2  0  0  0  0  0  0
  191.1430  177.5910  141.9080 C   0  0  0  0  0  2  0  0  0  0  0  0
  190.6260  176.8140  143.0280 N   0  0  0  0  0  2  0  0  0  0  0  0
  190.4420  177.7240  144.1450 C   0  0  2  0  0  3  0  0  0  0  0  0
  191.6900  178.1090  144.6360 O   0  0  0  0  0  1  0  0  0  0  0  0
  188.7760  178.0410  145.9560 C   0  0  0  0  0  2  0  0  0  0  0  0
  189.6550  177.0280  145.2410 C   0  0  0  0  0  3  0  0  0  0  0  0
  188.1790  177.1160  144.9220 C   0  0  0  0  0  2  0  0  0  0  0  0
  185.7650  174.1740  135.6460 N   0  0  0  0  0  2  0  0  0  0  0  0
  185.6710  172.9870  136.4880 C   0  0  0  0  0  2  0  0  0  0  0  0
  182.6040  170.8620  136.8910 N   0  0  0  0  0  0  0  0  0  0  0  0
  184.4220  172.2350  136.1800 C   0  0  0  0  0  0  0  0  0  0  0  0
  183.7400  171.5510  137.1860 C   0  0  0  0  0  3  0  0  0  0  0  0
  182.1060  170.8220  135.6290 C   0  0  0  0  0  0  0  0  0  0  0  0
  183.9210  172.2150  134.8790 C   0  0  0  0  0  3  0  0  0  0  0  0
  180.8680  170.0520  135.3450 C   0  0  0  0  0  1  0  0  0  0  0  0
  182.7550  171.5020  134.5980 C   0  0  0  0  0  3  0  0  0  0  0  0
  1 17  1  0  0  0  0
  1 30  1  1  0  0  0
  2  3  1  0  0  0  0
  3 23  1  6  0  0  0
  3 25  1  0  0  0  0
  3 18  1  0  0  0  0
  4 11  1  0  0  0  0
  5  2  1  1  0  0  0
  5 19  1  0  0  0  0
  7  4  2  0  0  0  0
  8 12  1  0  0  0  0
  8 14  2  0  0  0  0
  9 39  1  1  0  0  0
  9  5  1  0  0  0  0
  9 19  1  0  0  0  0
 10 22  1  0  0  0  0
 13 22  2  0  0  0  0
 14 11  1  0  0  0  0
 15 16  1  0  0  0  0
 15  6  2  0  0  0  0
 16 12  1  0  0  0  0
 17 15  1  0  0  0  0
 18 17  1  0  0  0  0
 19 10  1  6  0  0  0
 20 21  2  0  0  0  0
 20  7  1  0  0  0  0
 21  8  1  0  0  0  0
 22 24  1  0  0  0  0
 24 21  1  0  0  0  0
 25  1  1  0  0  0  0
 27 26  2  0  0  0  0
 27  7  1  0  0  0  0
 28 27  1  0  0  0  0
 29 28  1  0  0  0  0
 30 31  1  0  0  0  0
 31 32  1  0  0  0  0
 32 33  1  0  0  0  0
 33 34  1  0  0  0  0
 34 35  1  1  0  0  0
 34 37  1  0  0  0  0
 37 36  1  0  0  0  0
 38 37  1  0  0  0  0
 38 36  1  0  0  0  0
 39 40  1  0  0  0  0
 41 43  1  0  0  0  0
 42 40  1  0  0  0  0
 42 43  2  0  0  0  0
 44 41  2  0  0  0  0
 45 42  1  0  0  0  0
 46 44  1  0  0  0  0
 47 45  2  0  0  0  0
 47 44  1  0  0  0  0
M  END
>  <MODEL>
2

>  <REMARK>
 VINA RESULT:      -6.4      2.477      4.398
  Name = 
  11 active torsions:
  status: ('A' for Active; 'I' for Inactive)
    1  A    between atoms: C_2  and  N_24
    2  A    between atoms: C_5  and  N_21
    3  A    between atoms: C_5  and  C_40
    4  A    between atoms: C_7  and  C_42
    5  A    between atoms: C_10  and  C_36
    6  A    between atoms: C_12  and  N_21
    7  A    between atoms: C_12  and  C_43
    8  A    between atoms: C_16  and  N_31
    9  A    between atoms: N_24  and  C_43
   10  A    between atoms: O_25  and  C_36
   11  A    between atoms: N_31  and  C_42
                            x       y       z     vdW  Elec       q    Type
                         _______ _______ _______ _____ _____    ______ ____

>  <TORSDO>
F 11

$$$$
=
 OpenBabel11032420553D

 47 52  0  0  1  0  0  0  0  0999 V2000
  188.5730  178.1400  139.5000 C   0  0  2  0  0  3  0  0  0  0  0  0
  186.9190  176.4960  136.7180 C   0  0  0  0  0  2  0  0  0  0  0  0
  187.3590  177.8860  137.1720 C   0  0  2  0  0  0  0  0  0  0  0  0
  180.1950  179.8940  140.3700 C   0  0  0  0  0  3  0  0  0  0  0  0
  185.5240  176.4920  136.0870 C   0  0  1  0  0  3  0  0  0  0  0  0
  187.1040  178.8160  141.8480 O   0  0  0  0  0  0  0  0  0  0  0  0
  180.5240  179.7680  139.0870 C   0  0  0  0  0  0  0  0  0  0  0  0
  182.7610  178.1710  140.5340 C   0  0  0  0  0  0  0  0  0  0  0  0
  185.3140  175.4050  135.0310 C   0  0  2  0  0  3  0  0  0  0  0  0
  183.2840  175.3240  136.4290 C   0  0  0  0  0  2  0  0  0  0  0  0
  180.7150  179.0990  141.4310 N   0  0  0  0  0  2  0  0  0  0  0  0
  184.1870  177.8380  140.8300 C   0  0  0  0  0  2  0  0  0  0  0  0
  182.2590  177.4580  136.2390 O   0  0  0  0  0  0  0  0  0  0  0  0
  182.0340  178.6250  141.5100 N   0  0  0  0  0  0  0  0  0  0  0  0
  186.4730  178.7740  140.7580 C   0  0  0  0  0  0  0  0  0  0  0  0
  185.0210  179.1050  140.7540 C   0  0  0  0  0  2  0  0  0  0  0  0
  187.1410  178.3980  139.5440 N   0  0  0  0  0  0  0  0  0  0  0  0
  186.4390  178.3880  138.2740 C   0  0  0  0  0  2  0  0  0  0  0  0
  184.8100  175.1950  136.4500 C   0  0  2  0  0  3  0  0  0  0  0  0
  181.3300  178.6620  138.5610 C   0  0  0  0  0  3  0  0  0  0  0  0
  182.2680  177.9230  139.1610 C   0  0  0  0  0  0  0  0  0  0  0  0
  182.7700  176.6040  137.0110 C   0  0  0  0  0  0  0  0  0  0  0  0
  187.3330  178.8610  136.0060 C   0  0  0  0  0  1  0  0  0  0  0  0
  182.8980  176.8620  138.4200 N   0  0  0  0  0  2  0  0  0  0  0  0
  189.0700  177.7730  137.7890 S   0  0  0  0  0  0  0  0  0  0  0  0
  180.0710  181.9350  138.2160 O   0  0  0  0  0  0  0  0  0  0  0  0
  179.9150  180.6870  138.1050 C   0  0  0  0  0  0  0  0  0  0  0  0
  179.1790  180.1650  137.0360 O   0  0  0  0  0  0  0  0  0  0  0  0
  179.2340  180.7330  135.7360 C   0  0  0  0  0  1  0  0  0  0  0  0
  188.9720  177.0680  140.4190 N   0  0  0  0  0  2  0  0  0  0  0  0
  190.4080  176.8160  140.3330 C   0  0  0  0  0  2  0  0  0  0  0  0
  191.1090  177.4440  141.5260 C   0  0  0  0  0  2  0  0  0  0  0  0
  190.8930  176.6330  142.7190 N   0  0  0  0  0  2  0  0  0  0  0  0
  190.6590  177.5410  143.8290 C   0  0  2  0  0  3  0  0  0  0  0  0
  191.8810  177.9080  144.3900 O   0  0  0  0  0  1  0  0  0  0  0  0
  189.3160  177.8720  145.8890 C   0  0  0  0  0  2  0  0  0  0  0  0
  189.8030  176.8490  144.8750 C   0  0  0  0  0  3  0  0  0  0  0  0
  188.3920  177.3890  144.7960 C   0  0  0  0  0  2  0  0  0  0  0  0
  186.5060  174.6010  134.7990 N   0  0  0  0  0  2  0  0  0  0  0  0
  186.2080  173.2680  135.3090 C   0  0  0  0  0  2  0  0  0  0  0  0
  188.2950  170.1730  134.9110 N   0  0  0  0  0  0  0  0  0  0  0  0
  187.3810  172.3690  135.1160 C   0  0  0  0  0  0  0  0  0  0  0  0
  187.2150  170.9840  135.0800 C   0  0  0  0  0  3  0  0  0  0  0  0
  189.5470  170.6790  134.7690 C   0  0  0  0  0  0  0  0  0  0  0  0
  188.6580  172.9080  134.9630 C   0  0  0  0  0  3  0  0  0  0  0  0
  190.7020  169.7610  134.5940 C   0  0  0  0  0  1  0  0  0  0  0  0
  189.7510  172.0590  134.7900 C   0  0  0  0  0  3  0  0  0  0  0  0
  1 17  1  0  0  0  0
  1 30  1  1  0  0  0
  2  3  1  0  0  0  0
  3 23  1  6  0  0  0
  3 25  1  0  0  0  0
  3 18  1  0  0  0  0
  4 11  1  0  0  0  0
  5 19  1  0  0  0  0
  5  2  1  1  0  0  0
  7  4  2  0  0  0  0
  8 12  1  0  0  0  0
  8 14  2  0  0  0  0
  9 39  1  1  0  0  0
  9  5  1  0  0  0  0
  9 19  1  0  0  0  0
 10 22  1  0  0  0  0
 11 14  1  0  0  0  0
 13 22  2  0  0  0  0
 15  6  2  0  0  0  0
 16 15  1  0  0  0  0
 16 12  1  0  0  0  0
 17 15  1  0  0  0  0
 18 17  1  0  0  0  0
 19 10  1  6  0  0  0
 20  7  1  0  0  0  0
 20 21  2  0  0  0  0
 21  8  1  0  0  0  0
 22 24  1  0  0  0  0
 24 21  1  0  0  0  0
 25  1  1  0  0  0  0
 27 26  2  0  0  0  0
 27  7  1  0  0  0  0
 28 27  1  0  0  0  0
 29 28  1  0  0  0  0
 31 30  1  0  0  0  0
 31 32  1  0  0  0  0
 32 33  1  0  0  0  0
 33 34  1  0  0  0  0
 34 35  1  1  0  0  0
 34 37  1  0  0  0  0
 37 36  1  0  0  0  0
 38 37  1  0  0  0  0
 38 36  1  0  0  0  0
 39 40  1  0  0  0  0
 41 43  1  0  0  0  0
 42 40  1  0  0  0  0
 43 42  2  0  0  0  0
 44 47  1  0  0  0  0
 44 41  2  0  0  0  0
 45 42  1  0  0  0  0
 46 44  1  0  0  0  0
 47 45  2  0  0  0  0
M  END
>  <MODEL>
3

>  <REMARK>
 VINA RESULT:      -6.0      2.177      2.687
  Name = 
  11 active torsions:
  status: ('A' for Active; 'I' for Inactive)
    1  A    between atoms: C_2  and  N_24
    2  A    between atoms: C_5  and  N_21
    3  A    between atoms: C_5  and  C_40
    4  A    between atoms: C_7  and  C_42
    5  A    between atoms: C_10  and  C_36
    6  A    between atoms: C_12  and  N_21
    7  A    between atoms: C_12  and  C_43
    8  A    between atoms: C_16  and  N_31
    9  A    between atoms: N_24  and  C_43
   10  A    between atoms: O_25  and  C_36
   11  A    between atoms: N_31  and  C_42
                            x       y       z     vdW  Elec       q    Type
                         _______ _______ _______ _____ _____    ______ ____

>  <TORSDO>
F 11

$$$$
=
 OpenBabel11032420553D

 47 52  0  0  1  0  0  0  0  0999 V2000
  187.9540  178.4890  141.0100 C   0  0  2  0  0  3  0  0  0  0  0  0
  187.9840  176.7540  137.8220 C   0  0  0  0  0  2  0  0  0  0  0  0
  187.9930  178.1700  138.3920 C   0  0  2  0  0  0  0  0  0  0  0  0
  179.9790  179.2040  137.8640 C   0  0  0  0  0  3  0  0  0  0  0  0
  187.0490  176.6040  136.6180 C   0  0  1  0  0  3  0  0  0  0  0  0
  185.4970  178.9070  142.3950 O   0  0  0  0  0  0  0  0  0  0  0  0
  180.8750  179.1610  136.8820 C   0  0  0  0  0  0  0  0  0  0  0  0
  182.3660  177.7940  139.2390 C   0  0  0  0  0  0  0  0  0  0  0  0
  187.4840  175.5360  135.6130 C   0  0  2  0  0  3  0  0  0  0  0  0
  185.0650  175.1680  135.9160 C   0  0  0  0  0  2  0  0  0  0  0  0
  180.0410  178.4420  139.0650 N   0  0  0  0  0  2  0  0  0  0  0  0
  183.5220  177.6230  140.1700 C   0  0  0  0  0  2  0  0  0  0  0  0
  183.9940  177.1700  135.2190 O   0  0  0  0  0  0  0  0  0  0  0  0
  181.2210  178.1250  139.7570 N   0  0  0  0  0  0  0  0  0  0  0  0
  185.4510  178.8270  141.1380 C   0  0  0  0  0  0  0  0  0  0  0  0
  184.1370  178.9820  140.4550 C   0  0  0  0  0  2  0  0  0  0  0  0
  186.6440  178.5730  140.3810 N   0  0  0  0  0  0  0  0  0  0  0  0
  186.6150  178.5220  138.9300 C   0  0  0  0  0  2  0  0  0  0  0  0
  186.4120  175.2210  136.6430 C   0  0  2  0  0  3  0  0  0  0  0  0
  181.9600  178.1770  136.8170 C   0  0  0  0  0  3  0  0  0  0  0  0
  182.5960  177.5350  137.8010 C   0  0  0  0  0  0  0  0  0  0  0  0
  184.1900  176.3580  136.1610 C   0  0  0  0  0  0  0  0  0  0  0  0
  188.3900  179.1730  137.3220 C   0  0  0  0  0  1  0  0  0  0  0  0
  183.6210  176.5820  137.4620 N   0  0  0  0  0  2  0  0  0  0  0  0
  189.2250  178.2410  139.7330 S   0  0  0  0  0  0  0  0  0  0  0  0
  180.3380  179.5410  134.5960 O   0  0  0  0  0  0  0  0  0  0  0  0
  180.6820  180.0330  135.7060 C   0  0  0  0  0  0  0  0  0  0  0  0
  180.8640  181.4140  135.8340 O   0  0  0  0  0  0  0  0  0  0  0  0
  180.8230  182.2860  134.7140 C   0  0  0  0  0  1  0  0  0  0  0  0
  188.0100  177.4420  142.0370 N   0  0  0  0  0  2  0  0  0  0  0  0
  188.2820  178.0160  143.3520 C   0  0  0  0  0  2  0  0  0  0  0  0
  189.7280  177.7490  143.7360 C   0  0  0  0  0  2  0  0  0  0  0  0
  189.7980  176.6660  144.7100 N   0  0  0  0  0  2  0  0  0  0  0  0
  191.1990  176.4470  145.0220 C   0  0  2  0  0  3  0  0  0  0  0  0
  191.7820  175.6840  144.0100 O   0  0  0  0  0  1  0  0  0  0  0  0
  192.0420  176.5910  147.3510 C   0  0  0  0  0  2  0  0  0  0  0  0
  191.3140  175.7130  146.3460 C   0  0  0  0  0  3  0  0  0  0  0  0
  190.5370  176.4700  147.4000 C   0  0  0  0  0  2  0  0  0  0  0  0
  188.7360  174.8870  135.9790 N   0  0  0  0  0  2  0  0  0  0  0  0
  188.4960  173.4520  135.8920 C   0  0  0  0  0  2  0  0  0  0  0  0
  192.1480  172.5900  135.8330 N   0  0  0  0  0  0  0  0  0  0  0  0
  189.7730  172.7310  135.6340 C   0  0  0  0  0  0  0  0  0  0  0  0
  190.9870  173.2540  136.0820 C   0  0  0  0  0  3  0  0  0  0  0  0
  192.1620  171.4140  135.1550 C   0  0  0  0  0  0  0  0  0  0  0  0
  189.7660  171.5190  134.9440 C   0  0  0  0  0  3  0  0  0  0  0  0
  193.4510  170.7220  134.8960 C   0  0  0  0  0  1  0  0  0  0  0  0
  190.9670  170.8540  134.6990 C   0  0  0  0  0  3  0  0  0  0  0  0
  1 30  1  1  0  0  0
  2  3  1  0  0  0  0
  3 23  1  6  0  0  0
  3 18  1  0  0  0  0
  3 25  1  0  0  0  0
  4 11  1  0  0  0  0
  5 19  1  0  0  0  0
  5  2  1  1  0  0  0
  7  4  2  0  0  0  0
  8 14  2  0  0  0  0
  8 12  1  0  0  0  0
  9 39  1  1  0  0  0
  9  5  1  0  0  0  0
  9 19  1  0  0  0  0
 10 22  1  0  0  0  0
 11 14  1  0  0  0  0
 12 16  1  0  0  0  0
 13 22  2  0  0  0  0
 15  6  2  0  0  0  0
 16 15  1  0  0  0  0
 17  1  1  0  0  0  0
 17 15  1  0  0  0  0
 18 17  1  0  0  0  0
 19 10  1  6  0  0  0
 20  7  1  0  0  0  0
 20 21  2  0  0  0  0
 21  8  1  0  0  0  0
 22 24  1  0  0  0  0
 24 21  1  0  0  0  0
 25  1  1  0  0  0  0
 26 27  2  0  0  0  0
 27 28  1  0  0  0  0
 27  7  1  0  0  0  0
 29 28  1  0  0  0  0
 30 31  1  0  0  0  0
 31 32  1  0  0  0  0
 32 33  1  0  0  0  0
 33 34  1  0  0  0  0
 34 35  1  6  0  0  0
 34 37  1  0  0  0  0
 36 38  1  0  0  0  0
 37 36  1  0  0  0  0
 37 38  1  0  0  0  0
 40 39  1  0  0  0  0
 41 43  1  0  0  0  0
 42 40  1  0  0  0  0
 42 43  2  0  0  0  0
 44 41  2  0  0  0  0
 45 42  1  0  0  0  0
 46 44  1  0  0  0  0
 47 45  2  0  0  0  0
 47 44  1  0  0  0  0
M  END
>  <MODEL>
4

>  <REMARK>
 VINA RESULT:      -5.6      1.657      2.138
  Name = 
  11 active torsions:
  status: ('A' for Active; 'I' for Inactive)
    1  A    between atoms: C_2  and  N_24
    2  A    between atoms: C_5  and  N_21
    3  A    between atoms: C_5  and  C_40
    4  A    between atoms: C_7  and  C_42
    5  A    between atoms: C_10  and  C_36
    6  A    between atoms: C_12  and  N_21
    7  A    between atoms: C_12  and  C_43
    8  A    between atoms: C_16  and  N_31
    9  A    between atoms: N_24  and  C_43
   10  A    between atoms: O_25  and  C_36
   11  A    between atoms: N_31  and  C_42
                            x       y       z     vdW  Elec       q    Type
                         _______ _______ _______ _____ _____    ______ ____

>  <TORSDO>
F 11

$$$$
=
 OpenBabel11032420553D

 47 52  0  0  1  0  0  0  0  0999 V2000
  190.4310  177.6410  142.6060 C   0  0  2  0  0  3  0  0  0  0  0  0
  186.8950  178.3980  142.9290 C   0  0  0  0  0  2  0  0  0  0  0  0
  187.8420  177.2020  142.8590 C   0  0  2  0  0  0  0  0  0  0  0  0
  186.9710  176.0660  134.8890 C   0  0  0  0  0  3  0  0  0  0  0  0
  185.6250  178.1990  142.0970 C   0  0  1  0  0  3  0  0  0  0  0  0
  191.6700  177.6360  140.0390 O   0  0  0  0  0  0  0  0  0  0  0  0
  186.0930  175.8270  135.8600 C   0  0  1  0  0  3  0  0  0  0  0  0
  188.0810  177.8070  137.1930 C   0  0  0  0  0  0  0  0  0  0  0  0
  184.3980  178.9370  142.6340 C   0  0  2  0  0  3  0  0  0  0  0  0
  184.3830  179.3770  140.2090 C   0  0  0  0  0  2  0  0  0  0  0  0
  187.9070  177.1390  134.8750 N   0  0  0  0  0  0  0  0  0  0  0  0
  189.0170  178.2350  138.2760 C   0  0  0  0  0  2  0  0  0  0  0  0
  184.1970  177.2610  139.1480 O   0  0  0  0  0  0  0  0  0  0  0  0
  188.5750  177.6380  136.0040 N   0  0  0  0  0  0  0  0  0  0  0  0
  190.4430  177.3560  140.0940 C   0  0  0  0  0  0  0  0  0  0  0  0
  189.7250  177.0130  138.8340 C   0  0  0  0  0  2  0  0  0  0  0  0
  189.7460  177.3830  141.3490 N   0  0  0  0  0  0  0  0  0  0  0  0
  188.3430  177.0190  141.4350 C   0  0  0  0  0  2  0  0  0  0  0  0
  185.2050  179.5330  141.4920 C   0  0  2  0  0  3  0  0  0  0  0  0
  185.8420  176.7520  136.9710 C   0  0  0  0  0  3  0  0  0  0  0  0
  186.6520  177.6460  137.5430 C   0  0  0  0  0  0  0  0  0  0  0  0
  184.8830  178.3070  139.2890 C   0  0  0  0  0  0  0  0  0  0  0  0
  187.1370  175.9360  143.3150 C   0  0  0  0  0  1  0  0  0  0  0  0
  186.1430  178.4630  138.6130 N   0  0  0  0  0  2  0  0  0  0  0  0
  189.2440  177.5150  143.9800 S   0  0  0  0  0  0  0  0  0  0  0  0
  184.0950  174.7570  135.1420 O   0  0  0  0  0  0  0  0  0  0  0  0
  185.2020  174.6570  135.7400 C   0  0  0  0  0  0  0  0  0  0  0  0
  185.6000  173.4280  136.2770 O   0  0  0  0  0  0  0  0  0  0  0  0
  185.2410  173.0280  137.5910 C   0  0  0  0  0  1  0  0  0  0  0  0
  191.1190  178.9370  142.6060 N   0  0  0  0  0  2  0  0  0  0  0  0
  191.4220  179.3660  143.9690 C   0  0  0  0  0  2  0  0  0  0  0  0
  192.2630  178.3070  144.6630 C   0  0  0  0  0  2  0  0  0  0  0  0
  191.5020  177.6900  145.7440 N   0  0  0  0  0  2  0  0  0  0  0  0
  192.0800  176.3820  145.9960 C   0  0  2  0  0  3  0  0  0  0  0  0
  191.6800  175.5000  144.9930 O   0  0  0  0  0  1  0  0  0  0  0  0
  192.8060  175.6270  148.2450 C   0  0  0  0  0  2  0  0  0  0  0  0
  191.6060  175.8710  147.3450 C   0  0  0  0  0  3  0  0  0  0  0  0
  191.9760  176.8770  148.4130 C   0  0  0  0  0  2  0  0  0  0  0  0
  184.6670  179.6620  143.8690 N   0  0  0  0  0  2  0  0  0  0  0  0
  184.2190  178.8010  144.9570 C   0  0  0  0  0  2  0  0  0  0  0  0
  186.6840  179.4210  147.7180 N   0  0  0  0  0  0  0  0  0  0  0  0
  185.3200  178.5990  145.9400 C   0  0  0  0  0  0  0  0  0  0  0  0
  185.6720  179.6150  146.8300 C   0  0  0  0  0  3  0  0  0  0  0  0
  187.3700  178.2500  147.7690 C   0  0  0  0  0  0  0  0  0  0  0  0
  186.0060  177.3850  145.9840 C   0  0  0  0  0  3  0  0  0  0  0  0
  188.4740  178.0790  148.7480 C   0  0  0  0  0  1  0  0  0  0  0  0
  187.0400  177.2070  146.9020 C   0  0  0  0  0  3  0  0  0  0  0  0
  1 30  1  6  0  0  0
  1 25  1  0  0  0  0
  3  2  1  0  0  0  0
  3 23  1  1  0  0  0
  3 25  1  0  0  0  0
  4  7  1  0  0  0  0
  5  9  1  0  0  0  0
  5  2  1  1  0  0  0
  6 15  2  0  0  0  0
  7 27  1  6  0  0  0
  7 20  1  0  0  0  0
  8 21  1  0  0  0  0
  8 12  1  0  0  0  0
  9 39  1  1  0  0  0
 11  4  2  0  0  0  0
 11 14  1  0  0  0  0
 12 16  1  0  0  0  0
 13 22  2  0  0  0  0
 14  8  2  0  0  0  0
 15 17  1  0  0  0  0
 16 15  1  0  0  0  0
 17 18  1  0  0  0  0
 17  1  1  0  0  0  0
 18  3  1  0  0  0  0
 19 10  1  6  0  0  0
 19  5  1  0  0  0  0
 19  9  1  0  0  0  0
 20 21  2  0  0  0  0
 21 24  1  0  0  0  0
 22 10  1  0  0  0  0
 24 22  1  0  0  0  0
 26 27  2  0  0  0  0
 27 28  1  0  0  0  0
 28 29  1  0  0  0  0
 30 31  1  0  0  0  0
 31 32  1  0  0  0  0
 32 33  1  0  0  0  0
 33 34  1  0  0  0  0
 34 35  1  6  0  0  0
 34 37  1  0  0  0  0
 36 38  1  0  0  0  0
 37 36  1  0  0  0  0
 37 38  1  0  0  0  0
 39 40  1  0  0  0  0
 40 42  1  0  0  0  0
 41 44  1  0  0  0  0
 42 45  2  0  0  0  0
 42 43  1  0  0  0  0
 43 41  2  0  0  0  0
 44 46  1  0  0  0  0
 45 47  1  0  0  0  0
 47 44  2  0  0  0  0
M  END
>  <MODEL>
5

>  <REMARK>
 VINA RESULT:      -5.5      3.204      7.386
  Name = 
  11 active torsions:
  status: ('A' for Active; 'I' for Inactive)
    1  A    between atoms: C_2  and  N_24
    2  A    between atoms: C_5  and  N_21
    3  A    between atoms: C_5  and  C_40
    4  A    between atoms: C_7  and  C_42
    5  A    between atoms: C_10  and  C_36
    6  A    between atoms: C_12  and  N_21
    7  A    between atoms: C_12  and  C_43
    8  A    between atoms: C_16  and  N_31
    9  A    between atoms: N_24  and  C_43
   10  A    between atoms: O_25  and  C_36
   11  A    between atoms: N_31  and  C_42
                            x       y       z     vdW  Elec       q    Type
                         _______ _______ _______ _____ _____    ______ ____

>  <TORSDO>
F 11

$$$$
=
 OpenBabel11032420553D

 47 52  0  0  1  0  0  0  0  0999 V2000
  183.3590  175.5780  136.2000 C   0  0  2  0  0  3  0  0  0  0  0  0
  186.9310  176.2170  136.0920 C   0  0  0  0  0  2  0  0  0  0  0  0
  185.9330  175.2010  136.6400 C   0  0  2  0  0  0  0  0  0  0  0  0
  185.4550  178.5620  143.9920 C   0  0  0  0  0  3  0  0  0  0  0  0
  188.0400  176.5600  137.0910 C   0  0  1  0  0  3  0  0  0  0  0  0
  181.7230  176.8890  138.1320 O   0  0  0  0  0  0  0  0  0  0  0  0
  186.4660  177.8830  143.4560 C   0  0  1  0  0  3  0  0  0  0  0  0
  184.8100  178.7380  140.9710 C   0  0  0  0  0  0  0  0  0  0  0  0
  189.3690  176.9540  136.4460 C   0  0  2  0  0  3  0  0  0  0  0  0
  189.0120  178.6270  138.2210 C   0  0  0  0  0  2  0  0  0  0  0  0
  184.5780  179.4270  143.2780 N   0  0  0  0  0  0  0  0  0  0  0  0
  184.0810  178.4710  139.6940 C   0  0  0  0  0  2  0  0  0  0  0  0
  188.9300  177.4220  140.2660 O   0  0  0  0  0  0  0  0  0  0  0  0
  184.1230  179.2090  141.9680 N   0  0  0  0  0  0  0  0  0  0  0  0
  182.9300  176.6840  138.4330 C   0  0  0  0  0  0  0  0  0  0  0  0
  183.4180  177.1070  139.7750 C   0  0  0  0  0  2  0  0  0  0  0  0
  183.8200  176.0680  137.4900 N   0  0  0  0  0  0  0  0  0  0  0  0
  185.2010  175.7850  137.8390 C   0  0  0  0  0  2  0  0  0  0  0  0
  188.4160  178.0290  136.9430 C   0  0  2  0  0  3  0  0  0  0  0  0
  186.9350  178.0790  142.0800 C   0  0  0  0  0  3  0  0  0  0  0  0
  186.2680  178.4860  140.9960 C   0  0  0  0  0  0  0  0  0  0  0  0
  188.3230  178.1940  139.4780 C   0  0  0  0  0  0  0  0  0  0  0  0
  186.6460  173.9240  137.0550 C   0  0  0  0  0  1  0  0  0  0  0  0
  186.9790  178.6250  139.7520 N   0  0  0  0  0  2  0  0  0  0  0  0
  184.7450  174.7930  135.3200 S   0  0  0  0  0  0  0  0  0  0  0  0
  187.1770  177.0890  145.5820 O   0  0  0  0  0  0  0  0  0  0  0  0
  187.2740  177.0060  144.3260 C   0  0  0  0  0  0  0  0  0  0  0  0
  188.1340  176.0660  143.7500 O   0  0  0  0  0  0  0  0  0  0  0  0
  189.5230  176.3150  143.5870 C   0  0  0  0  0  1  0  0  0  0  0  0
  182.7380  176.6350  135.3940 N   0  0  0  0  0  2  0  0  0  0  0  0
  181.6390  176.1020  134.5940 C   0  0  0  0  0  2  0  0  0  0  0  0
  180.4800  175.7290  135.5020 C   0  0  0  0  0  2  0  0  0  0  0  0
  180.1460  174.3190  135.3380 N   0  0  0  0  0  2  0  0  0  0  0  0
  179.3860  173.9100  136.5060 C   0  0  2  0  0  3  0  0  0  0  0  0
  179.0510  175.0370  137.2550 O   0  0  0  0  0  1  0  0  0  0  0  0
  179.8470  171.5290  137.0310 C   0  0  0  0  0  2  0  0  0  0  0  0
  180.2260  172.9670  137.3500 C   0  0  0  0  0  3  0  0  0  0  0  0
  181.0990  172.1320  136.4390 C   0  0  0  0  0  2  0  0  0  0  0  0
  189.3360  176.8890  134.9910 N   0  0  0  0  0  2  0  0  0  0  0  0
  190.0070  175.6490  134.6190 C   0  0  0  0  0  2  0  0  0  0  0  0
  192.2680  174.4260  137.3530 N   0  0  0  0  0  0  0  0  0  0  0  0
  191.2130  175.4420  135.4680 C   0  0  0  0  0  0  0  0  0  0  0  0
  191.1610  174.6020  136.5810 C   0  0  0  0  0  3  0  0  0  0  0  0
  193.4390  175.0490  137.0670 C   0  0  0  0  0  0  0  0  0  0  0  0
  192.4100  176.0830  135.1510 C   0  0  0  0  0  3  0  0  0  0  0  0
  194.6240  174.8380  137.9380 C   0  0  0  0  0  1  0  0  0  0  0  0
  193.5320  175.8890  135.9560 C   0  0  0  0  0  3  0  0  0  0  0  0
  1 30  1  6  0  0  0
  1 17  1  0  0  0  0
  2  3  1  0  0  0  0
  3 23  1  1  0  0  0
  3 18  1  0  0  0  0
  5  2  1  6  0  0  0
  6 15  2  0  0  0  0
  7  4  1  0  0  0  0
  7 27  1  1  0  0  0
  8 21  1  0  0  0  0
  8 14  2  0  0  0  0
  9 39  1  6  0  0  0
  9 19  1  0  0  0  0
  9  5  1  0  0  0  0
 10 22  1  0  0  0  0
 11  4  2  0  0  0  0
 12 16  1  0  0  0  0
 12  8  1  0  0  0  0
 14 11  1  0  0  0  0
 15 16  1  0  0  0  0
 17 18  1  0  0  0  0
 17 15  1  0  0  0  0
 19  5  1  0  0  0  0
 19 10  1  1  0  0  0
 20  7  1  0  0  0  0
 21 20  2  0  0  0  0
 22 24  1  0  0  0  0
 22 13  2  0  0  0  0
 24 21  1  0  0  0  0
 25  1  1  0  0  0  0
 25  3  1  0  0  0  0
 27 26  2  0  0  0  0
 28 27  1  0  0  0  0
 29 28  1  0  0  0  0
 31 30  1  0  0  0  0
 31 32  1  0  0  0  0
 33 32  1  0  0  0  0
 33 34  1  0  0  0  0
 34 35  1  1  0  0  0
 34 37  1  0  0  0  0
 36 37  1  0  0  0  0
 38 36  1  0  0  0  0
 38 37  1  0  0  0  0
 40 39  1  0  0  0  0
 40 42  1  0  0  0  0
 42 43  1  0  0  0  0
 43 41  2  0  0  0  0
 44 41  1  0  0  0  0
 44 46  1  0  0  0  0
 45 42  2  0  0  0  0
 45 47  1  0  0  0  0
 47 44  2  0  0  0  0
M  END
>  <MODEL>
6

>  <REMARK>
 VINA RESULT:      -5.5      2.872      7.793
  Name = 
  11 active torsions:
  status: ('A' for Active; 'I' for Inactive)
    1  A    between atoms: C_2  and  N_24
    2  A    between atoms: C_5  and  N_21
    3  A    between atoms: C_5  and  C_40
    4  A    between atoms: C_7  and  C_42
    5  A    between atoms: C_10  and  C_36
    6  A    between atoms: C_12  and  N_21
    7  A    between atoms: C_12  and  C_43
    8  A    between atoms: C_16  and  N_31
    9  A    between atoms: N_24  and  C_43
   10  A    between atoms: O_25  and  C_36
   11  A    between atoms: N_31  and  C_42
                            x       y       z     vdW  Elec       q    Type
                         _______ _______ _______ _____ _____    ______ ____

>  <TORSDO>
F 11

$$$$
