=
 OpenBabel11032419153D

 30 32  0  0  0  0  0  0  0  0999 V2000
  188.1180  176.6570  143.3910 C   0  0  0  0  0  0  0  0  0  0  0  0
  187.9830  175.4110  143.2530 O   0  0  0  0  0  0  0  0  0  0  0  0
  190.2440  176.7180  142.0450 C   0  0  0  0  0  0  0  0  0  0  0  0
  190.5050  175.5240  142.3520 O   0  0  0  0  0  0  0  0  0  0  0  0
  189.0740  177.3730  142.5800 N   0  0  0  0  0  0  0  0  0  0  0  0
  189.3300  177.4560  147.4640 C   0  0  0  0  0  3  0  0  0  0  0  0
  185.5980  178.7250  146.1470 N   0  0  0  0  0  0  0  0  0  0  0  0
  185.9640  177.7960  143.9750 C   0  0  0  0  0  0  0  0  0  0  0  0
  185.4810  177.5770  142.6530 N   0  0  0  0  0  1  0  0  0  0  0  0
  185.1580  178.4800  144.8860 C   0  0  0  0  0  3  0  0  0  0  0  0
  188.9340  177.1900  146.1510 C   0  0  0  0  0  3  0  0  0  0  0  0
  188.4800  178.1540  148.3250 C   0  0  0  0  0  3  0  0  0  0  0  0
  187.6830  177.6250  145.6830 C   0  0  0  0  0  0  0  0  0  0  0  0
  186.8240  178.3200  146.5660 C   0  0  0  0  0  0  0  0  0  0  0  0
  187.2290  178.5840  147.8770 C   0  0  0  0  0  3  0  0  0  0  0  0
  187.2490  177.3670  144.3630 C   0  0  0  0  0  0  0  0  0  0  0  0
  188.8500  178.7880  142.2760 C   0  0  0  0  0  2  0  0  0  0  0  0
  187.8910  178.9420  141.1380 C   0  0  0  0  0  0  0  0  0  0  0  0
  186.9350  179.6950  141.2540 O   0  0  0  0  0  0  0  0  0  0  0  0
  186.7960  177.9760  139.1220 C   0  0  0  0  0  2  0  0  0  0  0  0
  187.1180  178.1590  137.6490 C   0  0  0  0  0  2  0  0  0  0  0  0
  188.0980  178.1640  139.8750 C   0  0  0  0  0  3  0  0  0  0  0  0
  189.0380  178.8770  138.9310 C   0  0  0  0  0  2  0  0  0  0  0  0
  188.6050  178.4370  137.5510 C   0  0  0  0  0  2  0  0  0  0  0  0
  191.1750  177.4320  141.1160 C   0  0  0  0  0  2  0  0  0  0  0  0
  192.4350  176.9090  139.1130 N   0  0  0  0  0  0  0  0  0  0  0  0
  191.4630  176.6000  139.9120 C   0  0  0  0  0  3  0  0  0  0  0  0
  192.7520  176.1360  137.9510 C   0  0  0  0  0  0  0  0  0  0  0  0
  193.7080  176.4950  137.2160 O   0  0  0  0  0  0  0  0  0  0  0  0
  191.9780  174.9120  137.5890 C   0  0  0  0  0  1  0  0  0  0  0  0
  1 16  1  0  0  0  0
  2  1  2  0  0  0  0
  3  4  2  0  0  0  0
  3  5  1  0  0  0  0
  5  1  1  0  0  0  0
  6 12  1  0  0  0  0
  7 14  1  0  0  0  0
  8 16  2  0  0  0  0
  8 10  1  0  0  0  0
  9  8  1  0  0  0  0
 10  7  2  0  0  0  0
 11  6  2  0  0  0  0
 13 11  1  0  0  0  0
 13 14  2  0  0  0  0
 14 15  1  0  0  0  0
 15 12  2  0  0  0  0
 16 13  1  0  0  0  0
 17  5  1  0  0  0  0
 18 19  2  0  0  0  0
 18 17  1  0  0  0  0
 20 22  1  0  0  0  0
 21 20  1  0  0  0  0
 22 18  1  0  0  0  0
 23 22  1  0  0  0  0
 24 21  1  0  0  0  0
 24 23  1  0  0  0  0
 25  3  1  0  0  0  0
 26 27  2  0  0  0  0
 27 25  1  0  0  0  0
 28 26  1  0  0  0  0
 29 28  2  0  0  0  0
 30 28  1  0  0  0  0
M  END
>  <MODEL>
1

>  <REMARK>
 VINA RESULT:      -7.6      0.000      0.000
  Name = 
  7 active torsions:
  status: ('A' for Active; 'I' for Inactive)
    1  A    between atoms: C_1  and  N_6
    2  A    between atoms: C_5  and  C_29
    3  A    between atoms: C_8  and  C_15
    4  A    between atoms: C_13  and  C_19
    5  A    between atoms: C_13  and  N_30
    6  A    between atoms: C_15  and  C_23
    7  A    between atoms: C_19  and  C_20
                            x       y       z     vdW  Elec       q    Type
                         _______ _______ _______ _____ _____    ______ ____

>  <TORSDO>
F 7

$$$$
=
 OpenBabel11032419153D

 30 32  0  0  0  0  0  0  0  0999 V2000
  188.0920  176.7440  143.3690 C   0  0  0  0  0  0  0  0  0  0  0  0
  187.9350  175.4960  143.2800 O   0  0  0  0  0  0  0  0  0  0  0  0
  190.1480  176.7300  141.9170 C   0  0  0  0  0  0  0  0  0  0  0  0
  190.4100  175.5440  142.2520 O   0  0  0  0  0  0  0  0  0  0  0  0
  189.0150  177.4190  142.4870 N   0  0  0  0  0  0  0  0  0  0  0  0
  184.1020  178.1800  142.5200 C   0  0  0  0  0  3  0  0  0  0  0  0
  185.7880  178.8880  146.2530 N   0  0  0  0  0  0  0  0  0  0  0  0
  187.8170  177.7880  145.6300 C   0  0  0  0  0  0  0  0  0  0  0  0
  189.1220  177.3530  145.9980 N   0  0  0  0  0  1  0  0  0  0  0  0
  187.0460  178.4800  146.5640 C   0  0  0  0  0  3  0  0  0  0  0  0
  185.3950  177.7250  142.7920 C   0  0  0  0  0  3  0  0  0  0  0  0
  183.3780  178.8600  143.5020 C   0  0  0  0  0  3  0  0  0  0  0  0
  185.9760  177.9410  144.0530 C   0  0  0  0  0  0  0  0  0  0  0  0
  185.2390  178.6410  145.0360 C   0  0  0  0  0  0  0  0  0  0  0  0
  183.9460  179.0910  144.7570 C   0  0  0  0  0  3  0  0  0  0  0  0
  187.2830  177.4980  144.3580 C   0  0  0  0  0  0  0  0  0  0  0  0
  188.7930  178.8260  142.1460 C   0  0  0  0  0  2  0  0  0  0  0  0
  187.8030  178.9530  141.0320 C   0  0  0  0  0  0  0  0  0  0  0  0
  186.8260  179.6730  141.1740 O   0  0  0  0  0  0  0  0  0  0  0  0
  186.7020  178.0180  139.0040 C   0  0  0  0  0  2  0  0  0  0  0  0
  187.0270  178.2150  137.5340 C   0  0  0  0  0  2  0  0  0  0  0  0
  188.0050  178.1870  139.7600 C   0  0  0  0  0  3  0  0  0  0  0  0
  188.9510  178.9030  138.8250 C   0  0  0  0  0  2  0  0  0  0  0  0
  188.5170  178.4820  137.4400 C   0  0  0  0  0  2  0  0  0  0  0  0
  191.0400  177.3990  140.9190 C   0  0  0  0  0  2  0  0  0  0  0  0
  190.7010  175.9490  139.0070 N   0  0  0  0  0  0  0  0  0  0  0  0
  191.5160  176.4240  139.8950 C   0  0  0  0  0  3  0  0  0  0  0  0
  191.1150  175.0180  138.0020 C   0  0  0  0  0  0  0  0  0  0  0  0
  190.3120  174.1280  137.6210 O   0  0  0  0  0  0  0  0  0  0  0  0
  192.4770  175.0770  137.3930 C   0  0  0  0  0  1  0  0  0  0  0  0
  1 16  1  0  0  0  0
  2  1  2  0  0  0  0
  3  4  2  0  0  0  0
  3  5  1  0  0  0  0
  5  1  1  0  0  0  0
  6 11  2  0  0  0  0
  6 12  1  0  0  0  0
  7 10  1  0  0  0  0
  8  9  1  0  0  0  0
  8 10  2  0  0  0  0
 11 13  1  0  0  0  0
 12 15  2  0  0  0  0
 13 16  2  0  0  0  0
 13 14  1  0  0  0  0
 14  7  2  0  0  0  0
 15 14  1  0  0  0  0
 16  8  1  0  0  0  0
 17  5  1  0  0  0  0
 18 19  2  0  0  0  0
 18 17  1  0  0  0  0
 20 22  1  0  0  0  0
 21 20  1  0  0  0  0
 22 18  1  0  0  0  0
 23 22  1  0  0  0  0
 24 21  1  0  0  0  0
 24 23  1  0  0  0  0
 25  3  1  0  0  0  0
 26 27  2  0  0  0  0
 27 25  1  0  0  0  0
 28 26  1  0  0  0  0
 29 28  2  0  0  0  0
 30 28  1  0  0  0  0
M  END
>  <MODEL>
2

>  <REMARK>
 VINA RESULT:      -7.4      1.303      2.711
  Name = 
  7 active torsions:
  status: ('A' for Active; 'I' for Inactive)
    1  A    between atoms: C_1  and  N_6
    2  A    between atoms: C_5  and  C_29
    3  A    between atoms: C_8  and  C_15
    4  A    between atoms: C_13  and  C_19
    5  A    between atoms: C_13  and  N_30
    6  A    between atoms: C_15  and  C_23
    7  A    between atoms: C_19  and  C_20
                            x       y       z     vdW  Elec       q    Type
                         _______ _______ _______ _____ _____    ______ ____

>  <TORSDO>
F 7

$$$$
=
 OpenBabel11032419153D

 30 32  0  0  0  0  0  0  0  0999 V2000
  182.4490  179.1210  140.3790 C   0  0  0  0  0  0  0  0  0  0  0  0
  182.3390  180.1760  139.6970 O   0  0  0  0  0  0  0  0  0  0  0  0
  184.9600  179.1080  140.2150 C   0  0  0  0  0  0  0  0  0  0  0  0
  184.9200  179.7340  139.1220 O   0  0  0  0  0  0  0  0  0  0  0  0
  183.7410  178.7190  140.8820 N   0  0  0  0  0  0  0  0  0  0  0  0
  181.6210  175.2770  138.5790 C   0  0  0  0  0  3  0  0  0  0  0  0
  178.9310  176.8880  141.3070 N   0  0  0  0  0  0  0  0  0  0  0  0
  180.2690  178.8500  141.5830 C   0  0  0  0  0  0  0  0  0  0  0  0
  180.4580  180.1070  142.2250 N   0  0  0  0  0  1  0  0  0  0  0  0
  179.1300  178.1020  141.8830 C   0  0  0  0  0  3  0  0  0  0  0  0
  181.8830  176.5230  139.1530 C   0  0  0  0  0  3  0  0  0  0  0  0
  180.4670  174.5730  138.9280 C   0  0  0  0  0  3  0  0  0  0  0  0
  180.9940  177.0770  140.0890 C   0  0  0  0  0  0  0  0  0  0  0  0
  179.8210  176.3620  140.4270 C   0  0  0  0  0  0  0  0  0  0  0  0
  179.5670  175.1150  139.8490 C   0  0  0  0  0  3  0  0  0  0  0  0
  181.2260  178.3370  140.6850 C   0  0  0  0  0  0  0  0  0  0  0  0
  183.8240  177.9120  142.1020 C   0  0  0  0  0  2  0  0  0  0  0  0
  183.9110  178.7880  143.3120 C   0  0  0  0  0  0  0  0  0  0  0  0
  182.9320  179.4290  143.6630 O   0  0  0  0  0  0  0  0  0  0  0  0
  184.9490  179.0510  145.5600 C   0  0  0  0  0  2  0  0  0  0  0  0
  185.9820  178.1920  146.2690 C   0  0  0  0  0  2  0  0  0  0  0  0
  185.1980  178.8860  144.0730 C   0  0  0  0  0  3  0  0  0  0  0  0
  186.0330  177.6370  143.9160 C   0  0  0  0  0  2  0  0  0  0  0  0
  186.8350  177.5450  145.1940 C   0  0  0  0  0  2  0  0  0  0  0  0
  186.3000  178.7830  140.7980 C   0  0  0  0  0  2  0  0  0  0  0  0
  188.4630  178.6950  139.7090 N   0  0  0  0  0  0  0  0  0  0  0  0
  187.2320  178.2920  139.7420 C   0  0  0  0  0  3  0  0  0  0  0  0
  189.3940  178.2450  138.7210 C   0  0  0  0  0  0  0  0  0  0  0  0
  190.4030  177.5850  139.0810 O   0  0  0  0  0  0  0  0  0  0  0  0
  189.1980  178.5370  137.2690 C   0  0  0  0  0  1  0  0  0  0  0  0
  1 16  1  0  0  0  0
  1  5  1  0  0  0  0
  2  1  2  0  0  0  0
  3 25  1  0  0  0  0
  3  5  1  0  0  0  0
  4  3  2  0  0  0  0
  5 17  1  0  0  0  0
  6 12  2  0  0  0  0
  6 11  1  0  0  0  0
  7 10  2  0  0  0  0
  8 10  1  0  0  0  0
  8  9  1  0  0  0  0
 11 13  2  0  0  0  0
 12 15  1  0  0  0  0
 13 14  1  0  0  0  0
 13 16  1  0  0  0  0
 14  7  1  0  0  0  0
 15 14  2  0  0  0  0
 16  8  2  0  0  0  0
 17 18  1  0  0  0  0
 18 19  2  0  0  0  0
 18 22  1  0  0  0  0
 20 21  1  0  0  0  0
 22 20  1  0  0  0  0
 23 22  1  0  0  0  0
 23 24  1  0  0  0  0
 24 21  1  0  0  0  0
 26 27  2  0  0  0  0
 27 25  1  0  0  0  0
 28 29  2  0  0  0  0
 28 26  1  0  0  0  0
 30 28  1  0  0  0  0
M  END
>  <MODEL>
3

>  <REMARK>
 VINA RESULT:      -7.2      4.421      7.361
  Name = 
  7 active torsions:
  status: ('A' for Active; 'I' for Inactive)
    1  A    between atoms: C_1  and  N_6
    2  A    between atoms: C_5  and  C_29
    3  A    between atoms: C_8  and  C_15
    4  A    between atoms: C_13  and  C_19
    5  A    between atoms: C_13  and  N_30
    6  A    between atoms: C_15  and  C_23
    7  A    between atoms: C_19  and  C_20
                            x       y       z     vdW  Elec       q    Type
                         _______ _______ _______ _____ _____    ______ ____

>  <TORSDO>
F 7

$$$$
=
 OpenBabel11032419153D

 30 32  0  0  0  0  0  0  0  0999 V2000
  181.4470  178.2520  140.7840 C   0  0  0  0  0  0  0  0  0  0  0  0
  180.5320  178.2630  141.6510 O   0  0  0  0  0  0  0  0  0  0  0  0
  183.2470  178.7590  142.4680 C   0  0  0  0  0  0  0  0  0  0  0  0
  182.4200  179.3500  143.2140 O   0  0  0  0  0  0  0  0  0  0  0  0
  182.8310  178.2220  141.1940 N   0  0  0  0  0  0  0  0  0  0  0  0
  181.1700  181.8260  138.3650 C   0  0  0  0  0  3  0  0  0  0  0  0
  180.3840  178.1210  136.6510 N   0  0  0  0  0  0  0  0  0  0  0  0
  180.7690  176.9960  138.7240 C   0  0  0  0  0  0  0  0  0  0  0  0
  180.8350  175.7670  139.4420 N   0  0  0  0  0  1  0  0  0  0  0  0
  180.4330  176.9710  137.3700 C   0  0  0  0  0  3  0  0  0  0  0  0
  181.2500  180.6720  139.1480 C   0  0  0  0  0  3  0  0  0  0  0  0
  180.8380  181.7330  137.0120 C   0  0  0  0  0  3  0  0  0  0  0  0
  181.0030  179.4090  138.5830 C   0  0  0  0  0  0  0  0  0  0  0  0
  180.6560  179.3270  137.2140 C   0  0  0  0  0  0  0  0  0  0  0  0
  180.5800  180.4860  136.4380 C   0  0  0  0  0  3  0  0  0  0  0  0
  181.0700  178.2230  139.3480 C   0  0  0  0  0  0  0  0  0  0  0  0
  183.8360  177.6240  140.3130 C   0  0  0  0  0  2  0  0  0  0  0  0
  184.4180  178.6540  139.3960 C   0  0  0  0  0  0  0  0  0  0  0  0
  184.5620  179.8010  139.7930 O   0  0  0  0  0  0  0  0  0  0  0  0
  186.3060  178.1050  137.8690 C   0  0  0  0  0  2  0  0  0  0  0  0
  186.5260  176.8950  136.9780 C   0  0  0  0  0  2  0  0  0  0  0  0
  184.8050  178.2780  137.9980 C   0  0  0  0  0  3  0  0  0  0  0  0
  184.1870  176.9630  137.5850 C   0  0  0  0  0  2  0  0  0  0  0  0
  185.1560  176.3790  136.5820 C   0  0  0  0  0  2  0  0  0  0  0  0
  184.6610  178.6300  142.9390 C   0  0  0  0  0  2  0  0  0  0  0  0
  185.8160  178.3230  145.0470 N   0  0  0  0  0  0  0  0  0  0  0  0
  184.7290  178.6600  144.4290 C   0  0  0  0  0  3  0  0  0  0  0  0
  185.9290  178.3440  146.4740 C   0  0  0  0  0  0  0  0  0  0  0  0
  184.9280  178.6640  147.1650 O   0  0  0  0  0  0  0  0  0  0  0  0
  187.2060  177.9930  147.1640 C   0  0  0  0  0  1  0  0  0  0  0  0
  1  5  1  0  0  0  0
  1  2  2  0  0  0  0
  3 25  1  0  0  0  0
  3  4  2  0  0  0  0
  5  3  1  0  0  0  0
  6 11  1  0  0  0  0
  7 14  1  0  0  0  0
  7 10  2  0  0  0  0
  8 16  2  0  0  0  0
  8  9  1  0  0  0  0
 10  8  1  0  0  0  0
 12  6  2  0  0  0  0
 13 11  2  0  0  0  0
 13 16  1  0  0  0  0
 14 13  1  0  0  0  0
 15 12  1  0  0  0  0
 15 14  2  0  0  0  0
 16  1  1  0  0  0  0
 17  5  1  0  0  0  0
 18 19  2  0  0  0  0
 18 17  1  0  0  0  0
 20 22  1  0  0  0  0
 21 20  1  0  0  0  0
 22 18  1  0  0  0  0
 23 22  1  0  0  0  0
 24 21  1  0  0  0  0
 24 23  1  0  0  0  0
 25 27  1  0  0  0  0
 26 28  1  0  0  0  0
 27 26  2  0  0  0  0
 28 30  1  0  0  0  0
 28 29  2  0  0  0  0
M  END
>  <MODEL>
4

>  <REMARK>
 VINA RESULT:      -6.8      4.792      8.728
  Name = 
  7 active torsions:
  status: ('A' for Active; 'I' for Inactive)
    1  A    between atoms: C_1  and  N_6
    2  A    between atoms: C_5  and  C_29
    3  A    between atoms: C_8  and  C_15
    4  A    between atoms: C_13  and  C_19
    5  A    between atoms: C_13  and  N_30
    6  A    between atoms: C_15  and  C_23
    7  A    between atoms: C_19  and  C_20
                            x       y       z     vdW  Elec       q    Type
                         _______ _______ _______ _____ _____    ______ ____

>  <TORSDO>
F 7

$$$$
=
 OpenBabel11032419153D

 30 32  0  0  0  0  0  0  0  0999 V2000
  183.6050  178.7080  140.4190 C   0  0  0  0  0  0  0  0  0  0  0  0
  183.7490  179.6390  139.5800 O   0  0  0  0  0  0  0  0  0  0  0  0
  186.0630  178.6130  140.9470 C   0  0  0  0  0  0  0  0  0  0  0  0
  186.3550  179.0520  139.8020 O   0  0  0  0  0  0  0  0  0  0  0  0
  184.6890  178.3660  141.3090 N   0  0  0  0  0  0  0  0  0  0  0  0
  180.3430  180.1280  142.8780 C   0  0  0  0  0  3  0  0  0  0  0  0
  179.8470  176.6900  140.5950 N   0  0  0  0  0  0  0  0  0  0  0  0
  182.0840  176.8280  139.7630 C   0  0  0  0  0  0  0  0  0  0  0  0
  183.1010  176.2870  138.9250 N   0  0  0  0  0  1  0  0  0  0  0  0
  180.8460  176.1870  139.8240 C   0  0  0  0  0  3  0  0  0  0  0  0
  181.4000  179.6630  142.0910 C   0  0  0  0  0  3  0  0  0  0  0  0
  179.1250  179.4460  142.8880 C   0  0  0  0  0  3  0  0  0  0  0  0
  181.2460  178.5120  141.3000 C   0  0  0  0  0  0  0  0  0  0  0  0
  180.0120  177.8210  141.3270 C   0  0  0  0  0  0  0  0  0  0  0  0
  178.9600  178.2940  142.1160 C   0  0  0  0  0  3  0  0  0  0  0  0
  182.2960  178.0120  140.4970 C   0  0  0  0  0  0  0  0  0  0  0  0
  184.3930  177.7690  142.6140 C   0  0  0  0  0  2  0  0  0  0  0  0
  184.6740  178.7400  143.7170 C   0  0  0  0  0  0  0  0  0  0  0  0
  184.5800  179.9390  143.5020 O   0  0  0  0  0  0  0  0  0  0  0  0
  186.3860  177.4670  145.0010 C   0  0  0  0  0  2  0  0  0  0  0  0
  187.1880  177.8660  146.2280 C   0  0  0  0  0  2  0  0  0  0  0  0
  185.0820  178.2390  145.0690 C   0  0  0  0  0  3  0  0  0  0  0  0
  185.3090  179.3750  146.0380 C   0  0  0  0  0  2  0  0  0  0  0  0
  186.3440  178.8540  147.0090 C   0  0  0  0  0  2  0  0  0  0  0  0
  187.1780  178.3590  141.9140 C   0  0  0  0  0  2  0  0  0  0  0  0
  189.2300  177.2470  141.2630 N   0  0  0  0  0  0  0  0  0  0  0  0
  188.4910  178.3090  141.2090 C   0  0  0  0  0  3  0  0  0  0  0  0
  190.4920  177.1520  140.5970 C   0  0  0  0  0  0  0  0  0  0  0  0
  190.5280  176.7650  139.4000 O   0  0  0  0  0  0  0  0  0  0  0  0
  191.7700  177.5010  141.2850 C   0  0  0  0  0  1  0  0  0  0  0  0
  1 16  1  0  0  0  0
  1  5  1  0  0  0  0
  2  1  2  0  0  0  0
  3  5  1  0  0  0  0
  3 25  1  0  0  0  0
  4  3  2  0  0  0  0
  5 17  1  0  0  0  0
  6 12  1  0  0  0  0
  7 14  1  0  0  0  0
  8 10  1  0  0  0  0
  8 16  2  0  0  0  0
  9  8  1  0  0  0  0
 10  7  2  0  0  0  0
 11  6  2  0  0  0  0
 13 14  2  0  0  0  0
 13 11  1  0  0  0  0
 14 15  1  0  0  0  0
 15 12  2  0  0  0  0
 16 13  1  0  0  0  0
 17 18  1  0  0  0  0
 18 22  1  0  0  0  0
 19 18  2  0  0  0  0
 20 22  1  0  0  0  0
 20 21  1  0  0  0  0
 21 24  1  0  0  0  0
 22 23  1  0  0  0  0
 23 24  1  0  0  0  0
 27 26  2  0  0  0  0
 27 25  1  0  0  0  0
 28 26  1  0  0  0  0
 28 30  1  0  0  0  0
 29 28  2  0  0  0  0
M  END
>  <MODEL>
5

>  <REMARK>
 VINA RESULT:      -6.7      3.755      6.750
  Name = 
  7 active torsions:
  status: ('A' for Active; 'I' for Inactive)
    1  A    between atoms: C_1  and  N_6
    2  A    between atoms: C_5  and  C_29
    3  A    between atoms: C_8  and  C_15
    4  A    between atoms: C_13  and  C_19
    5  A    between atoms: C_13  and  N_30
    6  A    between atoms: C_15  and  C_23
    7  A    between atoms: C_19  and  C_20
                            x       y       z     vdW  Elec       q    Type
                         _______ _______ _______ _____ _____    ______ ____

>  <TORSDO>
F 7

$$$$
=
 OpenBabel11032419153D

 30 32  0  0  0  0  0  0  0  0999 V2000
  188.6620  178.3270  138.8370 C   0  0  0  0  0  0  0  0  0  0  0  0
  189.1720  179.4370  138.5210 O   0  0  0  0  0  0  0  0  0  0  0  0
  187.1920  178.2610  136.7960 C   0  0  0  0  0  0  0  0  0  0  0  0
  187.1790  179.5200  136.7300 O   0  0  0  0  0  0  0  0  0  0  0  0
  187.8830  177.5900  137.8710 N   0  0  0  0  0  0  0  0  0  0  0  0
  185.8440  178.7400  142.0910 C   0  0  0  0  0  3  0  0  0  0  0  0
  189.4260  176.7270  142.7200 N   0  0  0  0  0  0  0  0  0  0  0  0
  190.1280  177.1160  140.4690 C   0  0  0  0  0  0  0  0  0  0  0  0
  191.1140  176.9310  139.4570 N   0  0  0  0  0  1  0  0  0  0  0  0
  190.3560  176.5900  141.7410 C   0  0  0  0  0  3  0  0  0  0  0  0
  186.7590  178.6140  141.0430 C   0  0  0  0  0  3  0  0  0  0  0  0
  186.1280  178.1820  143.3390 C   0  0  0  0  0  3  0  0  0  0  0  0
  187.9680  177.9240  141.2320 C   0  0  0  0  0  0  0  0  0  0  0  0
  188.2520  177.3740  142.5040 C   0  0  0  0  0  0  0  0  0  0  0  0
  187.3300  177.5020  143.5460 C   0  0  0  0  0  3  0  0  0  0  0  0
  188.9170  177.7840  140.1950 C   0  0  0  0  0  0  0  0  0  0  0  0
  187.7990  176.1310  137.9680 C   0  0  0  0  0  2  0  0  0  0  0  0
  188.6440  175.4800  136.9190 C   0  0  0  0  0  0  0  0  0  0  0  0
  189.7180  175.9780  136.6160 O   0  0  0  0  0  0  0  0  0  0  0  0
  188.9400  173.0180  136.6960 C   0  0  0  0  0  2  0  0  0  0  0  0
  187.9310  171.8930  136.8450 C   0  0  0  0  0  2  0  0  0  0  0  0
  188.1620  174.2360  136.2370 C   0  0  0  0  0  3  0  0  0  0  0  0
  186.7100  173.9580  136.5480 C   0  0  0  0  0  2  0  0  0  0  0  0
  186.5770  172.4550  136.4570 C   0  0  0  0  0  2  0  0  0  0  0  0
  186.4760  177.4880  135.7330 C   0  0  0  0  0  2  0  0  0  0  0  0
  184.6300  177.4280  137.3020 N   0  0  0  0  0  0  0  0  0  0  0  0
  185.0330  177.3280  136.0750 C   0  0  0  0  0  3  0  0  0  0  0  0
  183.2560  177.2900  137.6750 C   0  0  0  0  0  0  0  0  0  0  0  0
  182.3600  177.5830  136.8420 O   0  0  0  0  0  0  0  0  0  0  0  0
  182.8570  176.8040  139.0290 C   0  0  0  0  0  1  0  0  0  0  0  0
  1 16  1  0  0  0  0
  2  1  2  0  0  0  0
  3  5  1  0  0  0  0
  4  3  2  0  0  0  0
  5 17  1  0  0  0  0
  5  1  1  0  0  0  0
  6 12  1  0  0  0  0
  8 10  1  0  0  0  0
  9  8  1  0  0  0  0
 10  7  2  0  0  0  0
 11 13  1  0  0  0  0
 11  6  2  0  0  0  0
 12 15  2  0  0  0  0
 13 14  2  0  0  0  0
 14  7  1  0  0  0  0
 14 15  1  0  0  0  0
 16  8  2  0  0  0  0
 16 13  1  0  0  0  0
 18 17  1  0  0  0  0
 19 18  2  0  0  0  0
 20 21  1  0  0  0  0
 22 23  1  0  0  0  0
 22 20  1  0  0  0  0
 22 18  1  0  0  0  0
 24 23  1  0  0  0  0
 24 21  1  0  0  0  0
 25 27  1  0  0  0  0
 25  3  1  0  0  0  0
 26 28  1  0  0  0  0
 27 26  2  0  0  0  0
 28 30  1  0  0  0  0
 29 28  2  0  0  0  0
M  END
>  <MODEL>
6

>  <REMARK>
 VINA RESULT:      -6.7      3.317      6.526
  Name = 
  7 active torsions:
  status: ('A' for Active; 'I' for Inactive)
    1  A    between atoms: C_1  and  N_6
    2  A    between atoms: C_5  and  C_29
    3  A    between atoms: C_8  and  C_15
    4  A    between atoms: C_13  and  C_19
    5  A    between atoms: C_13  and  N_30
    6  A    between atoms: C_15  and  C_23
    7  A    between atoms: C_19  and  C_20
                            x       y       z     vdW  Elec       q    Type
                         _______ _______ _______ _____ _____    ______ ____

>  <TORSDO>
F 7

$$$$
=
 OpenBabel11032419153D

 30 32  0  0  0  0  0  0  0  0999 V2000
  183.7690  179.2140  139.1560 C   0  0  0  0  0  0  0  0  0  0  0  0
  184.1800  180.4040  139.0930 O   0  0  0  0  0  0  0  0  0  0  0  0
  184.6360  178.8880  141.4960 C   0  0  0  0  0  0  0  0  0  0  0  0
  185.5350  179.7530  141.3130 O   0  0  0  0  0  0  0  0  0  0  0  0
  183.7370  178.5270  140.4260 N   0  0  0  0  0  0  0  0  0  0  0  0
  180.0550  180.3120  137.2320 C   0  0  0  0  0  3  0  0  0  0  0  0
  182.4190  177.3210  135.5750 N   0  0  0  0  0  0  0  0  0  0  0  0
  184.0330  177.5210  137.3270 C   0  0  0  0  0  0  0  0  0  0  0  0
  185.2700  177.0940  137.8910 N   0  0  0  0  0  1  0  0  0  0  0  0
  183.5820  176.9210  136.1510 C   0  0  0  0  0  3  0  0  0  0  0  0
  181.2500  179.9500  137.8580 C   0  0  0  0  0  3  0  0  0  0  0  0
  179.6630  179.6790  136.0510 C   0  0  0  0  0  3  0  0  0  0  0  0
  182.0710  178.9520  137.3050 C   0  0  0  0  0  0  0  0  0  0  0  0
  181.6590  178.3090  136.1150 C   0  0  0  0  0  0  0  0  0  0  0  0
  180.4630  178.6780  135.4940 C   0  0  0  0  0  3  0  0  0  0  0  0
  183.2820  178.5590  137.9160 C   0  0  0  0  0  0  0  0  0  0  0  0
  182.7660  177.4540  140.6450 C   0  0  0  0  0  2  0  0  0  0  0  0
  181.3860  178.0110  140.8060 C   0  0  0  0  0  0  0  0  0  0  0  0
  180.4700  177.5510  140.1410 O   0  0  0  0  0  0  0  0  0  0  0  0
  180.1000  180.0990  141.2320 C   0  0  0  0  0  2  0  0  0  0  0  0
  179.2260  180.4890  142.4120 C   0  0  0  0  0  2  0  0  0  0  0  0
  181.1410  179.1350  141.7660 C   0  0  0  0  0  3  0  0  0  0  0  0
  180.6160  178.6310  143.0900 C   0  0  0  0  0  2  0  0  0  0  0  0
  179.7710  179.7630  143.6270 C   0  0  0  0  0  2  0  0  0  0  0  0
  184.5300  178.2510  142.8460 C   0  0  0  0  0  2  0  0  0  0  0  0
  186.0590  178.0390  144.7140 N   0  0  0  0  0  0  0  0  0  0  0  0
  185.8820  178.0180  143.4310 C   0  0  0  0  0  3  0  0  0  0  0  0
  187.3350  177.8130  145.3190 C   0  0  0  0  0  0  0  0  0  0  0  0
  187.4420  177.8760  146.5710 O   0  0  0  0  0  0  0  0  0  0  0  0
  188.5460  177.5000  144.5020 C   0  0  0  0  0  1  0  0  0  0  0  0
  1  5  1  0  0  0  0
  2  1  2  0  0  0  0
  3 25  1  0  0  0  0
  4  3  2  0  0  0  0
  5 17  1  0  0  0  0
  5  3  1  0  0  0  0
  6 11  1  0  0  0  0
  7 14  1  0  0  0  0
  7 10  2  0  0  0  0
  8  9  1  0  0  0  0
  8 16  2  0  0  0  0
 10  8  1  0  0  0  0
 12  6  2  0  0  0  0
 13 11  2  0  0  0  0
 13 16  1  0  0  0  0
 14 13  1  0  0  0  0
 15 12  1  0  0  0  0
 15 14  2  0  0  0  0
 16  1  1  0  0  0  0
 17 18  1  0  0  0  0
 18 22  1  0  0  0  0
 19 18  2  0  0  0  0
 20 22  1  0  0  0  0
 20 21  1  0  0  0  0
 21 24  1  0  0  0  0
 22 23  1  0  0  0  0
 23 24  1  0  0  0  0
 25 27  1  0  0  0  0
 26 28  1  0  0  0  0
 27 26  2  0  0  0  0
 28 29  2  0  0  0  0
 30 28  1  0  0  0  0
M  END
>  <MODEL>
7

>  <REMARK>
 VINA RESULT:      -6.6      4.892      9.193
  Name = 
  7 active torsions:
  status: ('A' for Active; 'I' for Inactive)
    1  A    between atoms: C_1  and  N_6
    2  A    between atoms: C_5  and  C_29
    3  A    between atoms: C_8  and  C_15
    4  A    between atoms: C_13  and  C_19
    5  A    between atoms: C_13  and  N_30
    6  A    between atoms: C_15  and  C_23
    7  A    between atoms: C_19  and  C_20
                            x       y       z     vdW  Elec       q    Type
                         _______ _______ _______ _____ _____    ______ ____

>  <TORSDO>
F 7

$$$$
=
 OpenBabel11032419153D

 30 32  0  0  0  0  0  0  0  0999 V2000
  189.0320  176.8690  142.0580 C   0  0  0  0  0  0  0  0  0  0  0  0
  189.0580  175.6280  141.8370 O   0  0  0  0  0  0  0  0  0  0  0  0
  188.5800  177.4320  139.6480 C   0  0  0  0  0  0  0  0  0  0  0  0
  189.1520  176.3760  139.2650 O   0  0  0  0  0  0  0  0  0  0  0  0
  188.5290  177.7710  141.0490 N   0  0  0  0  0  0  0  0  0  0  0  0
  186.4290  177.0480  145.5070 C   0  0  0  0  0  3  0  0  0  0  0  0
  190.3810  178.2920  145.8510 N   0  0  0  0  0  0  0  0  0  0  0  0
  190.8070  177.8280  143.5450 C   0  0  0  0  0  0  0  0  0  0  0  0
  191.7350  177.8040  142.4650 N   0  0  0  0  0  1  0  0  0  0  0  0
  191.2340  178.2790  144.7940 C   0  0  0  0  0  3  0  0  0  0  0  0
  187.2680  177.0000  144.3910 C   0  0  0  0  0  3  0  0  0  0  0  0
  186.9200  177.5020  146.7330 C   0  0  0  0  0  3  0  0  0  0  0  0
  188.6110  177.4010  144.4910 C   0  0  0  0  0  0  0  0  0  0  0  0
  189.0950  177.8710  145.7340 C   0  0  0  0  0  0  0  0  0  0  0  0
  188.2500  177.9140  146.8460 C   0  0  0  0  0  3  0  0  0  0  0  0
  189.4840  177.3690  143.3810 C   0  0  0  0  0  0  0  0  0  0  0  0
  187.9390  179.0500  141.4510 C   0  0  0  0  0  2  0  0  0  0  0  0
  186.4470  179.0030  141.3430 C   0  0  0  0  0  0  0  0  0  0  0  0
  185.9110  179.2870  140.2820 O   0  0  0  0  0  0  0  0  0  0  0  0
  185.4580  179.7930  143.4870 C   0  0  0  0  0  2  0  0  0  0  0  0
  184.0210  179.7530  143.9770 C   0  0  0  0  0  2  0  0  0  0  0  0
  185.6220  178.6250  142.5350 C   0  0  0  0  0  3  0  0  0  0  0  0
  184.2280  178.2010  142.1350 C   0  0  0  0  0  2  0  0  0  0  0  0
  183.3620  178.5550  143.3220 C   0  0  0  0  0  2  0  0  0  0  0  0
  187.9600  178.3180  138.6130 C   0  0  0  0  0  2  0  0  0  0  0  0
  186.0340  177.7710  137.2470 N   0  0  0  0  0  0  0  0  0  0  0  0
  187.2600  177.5090  137.5730 C   0  0  0  0  0  3  0  0  0  0  0  0
  185.3260  177.0280  136.2510 C   0  0  0  0  0  0  0  0  0  0  0  0
  185.9740  176.3320  135.4260 O   0  0  0  0  0  0  0  0  0  0  0  0
  183.8360  177.0540  136.1650 C   0  0  0  0  0  1  0  0  0  0  0  0
  1 16  1  0  0  0  0
  2  1  2  0  0  0  0
  3  5  1  0  0  0  0
  4  3  2  0  0  0  0
  5 17  1  0  0  0  0
  5  1  1  0  0  0  0
  6 12  1  0  0  0  0
  8 10  1  0  0  0  0
  9  8  1  0  0  0  0
 10  7  2  0  0  0  0
 11 13  1  0  0  0  0
 11  6  2  0  0  0  0
 12 15  2  0  0  0  0
 13 14  2  0  0  0  0
 14  7  1  0  0  0  0
 14 15  1  0  0  0  0
 16  8  2  0  0  0  0
 16 13  1  0  0  0  0
 18 17  1  0  0  0  0
 18 22  1  0  0  0  0
 19 18  2  0  0  0  0
 20 21  1  0  0  0  0
 22 20  1  0  0  0  0
 23 22  1  0  0  0  0
 23 24  1  0  0  0  0
 24 21  1  0  0  0  0
 25  3  1  0  0  0  0
 26 27  2  0  0  0  0
 27 25  1  0  0  0  0
 28 26  1  0  0  0  0
 29 28  2  0  0  0  0
 30 28  1  0  0  0  0
M  END
>  <MODEL>
8

>  <REMARK>
 VINA RESULT:      -6.6      2.495      4.708
  Name = 
  7 active torsions:
  status: ('A' for Active; 'I' for Inactive)
    1  A    between atoms: C_1  and  N_6
    2  A    between atoms: C_5  and  C_29
    3  A    between atoms: C_8  and  C_15
    4  A    between atoms: C_13  and  C_19
    5  A    between atoms: C_13  and  N_30
    6  A    between atoms: C_15  and  C_23
    7  A    between atoms: C_19  and  C_20
                            x       y       z     vdW  Elec       q    Type
                         _______ _______ _______ _____ _____    ______ ____

>  <TORSDO>
F 7

$$$$
=
 OpenBabel11032419153D

 30 32  0  0  0  0  0  0  0  0999 V2000
  186.0740  179.0300  142.0060 C   0  0  0  0  0  0  0  0  0  0  0  0
  186.3880  180.0120  141.2800 O   0  0  0  0  0  0  0  0  0  0  0  0
  188.1610  177.7500  141.4220 C   0  0  0  0  0  0  0  0  0  0  0  0
  188.2440  178.3380  140.3110 O   0  0  0  0  0  0  0  0  0  0  0  0
  187.0550  178.0150  142.3110 N   0  0  0  0  0  0  0  0  0  0  0  0
  182.6850  177.5710  139.7500 C   0  0  0  0  0  3  0  0  0  0  0  0
  182.1480  178.8420  143.6720 N   0  0  0  0  0  0  0  0  0  0  0  0
  184.4600  179.4100  143.8840 C   0  0  0  0  0  0  0  0  0  0  0  0
  185.5160  179.9040  144.7020 N   0  0  0  0  0  1  0  0  0  0  0  0
  183.1720  179.3310  144.4160 C   0  0  0  0  0  3  0  0  0  0  0  0
  183.7770  178.0510  140.4770 C   0  0  0  0  0  3  0  0  0  0  0  0
  181.4220  177.5080  140.3430 C   0  0  0  0  0  3  0  0  0  0  0  0
  183.6190  178.4710  141.8080 C   0  0  0  0  0  0  0  0  0  0  0  0
  182.3330  178.4150  142.3960 C   0  0  0  0  0  0  0  0  0  0  0  0
  181.2470  177.9310  141.6630 C   0  0  0  0  0  3  0  0  0  0  0  0
  184.7020  178.9670  142.5680 C   0  0  0  0  0  0  0  0  0  0  0  0
  186.9410  177.2470  143.5530 C   0  0  0  0  0  2  0  0  0  0  0  0
  187.9350  177.7230  144.5650 C   0  0  0  0  0  0  0  0  0  0  0  0
  188.7680  178.5580  144.2430 O   0  0  0  0  0  0  0  0  0  0  0  0
  189.3070  177.1010  146.5460 C   0  0  0  0  0  2  0  0  0  0  0  0
  189.1810  177.5270  147.9990 C   0  0  0  0  0  2  0  0  0  0  0  0
  187.9130  177.1660  145.9550 C   0  0  0  0  0  3  0  0  0  0  0  0
  187.0940  178.0280  146.8870 C   0  0  0  0  0  2  0  0  0  0  0  0
  187.7140  177.8210  148.2490 C   0  0  0  0  0  2  0  0  0  0  0  0
  189.2360  176.7760  141.7920 C   0  0  0  0  0  2  0  0  0  0  0  0
  191.3770  177.2010  140.7410 N   0  0  0  0  0  0  0  0  0  0  0  0
  190.2190  176.6250  140.6800 C   0  0  0  0  0  3  0  0  0  0  0  0
  192.3540  177.0780  139.7020 C   0  0  0  0  0  0  0  0  0  0  0  0
  193.5430  177.4180  139.9330 O   0  0  0  0  0  0  0  0  0  0  0  0
  191.9980  176.5530  138.3500 C   0  0  0  0  0  1  0  0  0  0  0  0
  1  5  1  0  0  0  0
  1 16  1  0  0  0  0
  2  1  2  0  0  0  0
  3 25  1  0  0  0  0
  3  5  1  0  0  0  0
  4  3  2  0  0  0  0
  5 17  1  0  0  0  0
  6 12  2  0  0  0  0
  6 11  1  0  0  0  0
  7 10  2  0  0  0  0
  8 10  1  0  0  0  0
  8  9  1  0  0  0  0
 11 13  2  0  0  0  0
 12 15  1  0  0  0  0
 13 14  1  0  0  0  0
 13 16  1  0  0  0  0
 14  7  1  0  0  0  0
 15 14  2  0  0  0  0
 16  8  2  0  0  0  0
 17 18  1  0  0  0  0
 18 22  1  0  0  0  0
 19 18  2  0  0  0  0
 20 21  1  0  0  0  0
 21 24  1  0  0  0  0
 22 20  1  0  0  0  0
 22 23  1  0  0  0  0
 23 24  1  0  0  0  0
 27 26  2  0  0  0  0
 27 25  1  0  0  0  0
 28 29  2  0  0  0  0
 28 26  1  0  0  0  0
 30 28  1  0  0  0  0
M  END
>  <MODEL>
9

>  <REMARK>
 VINA RESULT:      -6.5      2.478      5.758
  Name = 
  7 active torsions:
  status: ('A' for Active; 'I' for Inactive)
    1  A    between atoms: C_1  and  N_6
    2  A    between atoms: C_5  and  C_29
    3  A    between atoms: C_8  and  C_15
    4  A    between atoms: C_13  and  C_19
    5  A    between atoms: C_13  and  N_30
    6  A    between atoms: C_15  and  C_23
    7  A    between atoms: C_19  and  C_20
                            x       y       z     vdW  Elec       q    Type
                         _______ _______ _______ _____ _____    ______ ____

>  <TORSDO>
F 7

$$$$
