=
 OpenBabel11032421193D

 52 58  0  0  1  0  0  0  0  0999 V2000
  189.0000  176.0510  136.5460 C   0  0  0  0  0  0  0  0  0  0  0  0
  187.8700  176.5610  137.1480 C   0  0  0  0  0  0  0  0  0  0  0  0
  186.8300  175.8130  136.6420 C   0  0  0  0  0  0  0  0  0  0  0  0
  188.6020  175.0290  135.7030 C   0  0  0  0  0  3  0  0  0  0  0  0
  187.2910  174.9200  135.7930 O   0  0  0  0  0  0  0  0  0  0  0  0
  191.3120  175.8120  137.5850 C   0  0  0  0  0  0  0  0  0  0  0  0
  191.0360  174.7250  138.1560 O   0  0  0  0  0  0  0  0  0  0  0  0
  190.3380  176.4970  136.7890 N   0  0  0  0  0  2  0  0  0  0  0  0
  192.6810  176.3830  137.7180 C   0  0  0  0  0  2  0  0  0  0  0  0
  193.4200  176.2770  135.4850 O   0  0  0  0  0  0  0  0  0  0  0  0
  193.5630  175.8680  136.6270 C   0  0  0  0  0  0  0  0  0  0  0  0
  195.2910  175.2320  138.2000 N   0  0  0  0  0  0  0  0  0  0  0  0
  196.3220  173.0490  138.1810 C   0  0  0  0  0  2  0  0  0  0  0  0
  196.7390  174.7750  140.0690 C   0  0  0  0  0  1  0  0  0  0  0  0
  196.1030  174.4120  138.7710 C   0  0  0  0  0  0  0  0  0  0  0  0
  194.6400  174.8820  136.9520 C   0  0  1  0  0  3  0  0  0  0  0  0
  194.0800  173.4480  136.9940 C   0  0  0  0  0  2  0  0  0  0  0  0
  194.9690  172.4590  137.7760 C   0  0  0  0  0  2  0  0  0  0  0  0
  188.7220  178.7810  137.8530 C   0  0  0  0  0  1  0  0  0  0  0  0
  187.7720  177.6450  138.1800 C   0  0  2  0  0  3  0  0  0  0  0  0
  188.0660  177.1090  139.5740 C   0  0  0  0  0  2  0  0  0  0  0  0
  189.0080  177.0010  146.6830 C   0  0  0  0  0  3  0  0  0  0  0  0
  191.4110  176.8460  146.9830 C   0  0  0  0  0  3  0  0  0  0  0  0
  187.2700  178.6370  141.4650 C   0  0  2  0  0  3  0  0  0  0  0  0
  188.4510  178.2390  140.5340 C   0  0  1  0  0  3  0  0  0  0  0  0
  186.1470  177.8830  143.5750 N   0  0  0  0  0  2  0  0  0  0  0  0
  190.4920  176.9850  144.7480 C   0  0  0  0  0  0  0  0  0  0  0  0
  186.7590  177.6390  144.6670 N   0  0  0  0  0  0  0  0  0  0  0  0
  186.9470  177.4800  142.4170 C   0  0  2  0  0  3  0  0  0  0  0  0
  189.6320  177.8460  141.3250 N   0  0  0  0  0  0  0  0  0  0  0  0
  189.1870  177.0370  145.2970 C   0  0  0  0  0  0  0  0  0  0  0  0
  191.5980  176.8900  145.5980 C   0  0  0  0  0  3  0  0  0  0  0  0
  189.5330  177.2430  142.4750 C   0  0  0  0  0  0  0  0  0  0  0  0
  188.0420  177.1080  144.3720 C   0  0  0  0  0  0  0  0  0  0  0  0
  188.2070  177.0570  143.0700 C   0  0  1  0  0  3  0  0  0  0  0  0
  190.1210  176.9050  147.5240 C   0  0  0  0  0  3  0  0  0  0  0  0
  186.0430  179.0540  140.6720 C   0  0  0  0  0  1  0  0  0  0  0  0
  190.6790  177.0960  143.3250 N   0  0  0  0  0  2  0  0  0  0  0  0
  185.3900  175.9570  137.0160 C   0  0  2  0  0  3  0  0  0  0  0  0
  183.8670  174.1000  137.9190 C   0  0  0  0  0  2  0  0  0  0  0  0
  185.2200  173.5080  137.5670 C   0  0  0  0  0  2  0  0  0  0  0  0
  184.6490  174.6380  136.7310 C   0  0  0  0  0  3  0  0  0  0  0  0
  184.8110  177.1200  136.3460 N   0  0  0  0  0  2  0  0  0  0  0  0
  183.4570  177.2870  136.8560 C   0  0  2  0  0  3  0  0  0  0  0  0
  181.4360  178.4880  136.3190 O   0  0  0  0  0  1  0  0  0  0  0  0
  182.5160  177.7980  135.7660 C   0  0  0  0  0  2  0  0  0  0  0  0
  183.4490  178.1820  138.0900 C   0  0  0  0  0  2  0  0  0  0  0  0
  183.2940  177.4290  139.2550 O   0  0  0  0  0  0  0  0  0  0  0  0
  181.9550  177.0370  139.2430 C   0  0  0  0  0  2  0  0  0  0  0  0
  179.8130  178.2450  139.8030 N   0  0  0  0  0  1  0  0  0  0  0  0
  181.7010  178.4470  141.1440 O   0  0  0  0  0  0  0  0  0  0  0  0
  181.1650  177.9370  140.1260 C   0  0  0  0  0  0  0  0  0  0  0  0
  1  8  1  0  0  0  0
  1  2  1  0  0  0  0
  2 20  1  0  0  0  0
  3 39  1  0  0  0  0
  3  2  2  0  0  0  0
  4  5  1  0  0  0  0
  4  1  2  0  0  0  0
  5  3  1  0  0  0  0
  6  9  1  0  0  0  0
  6  7  2  0  0  0  0
  8  6  1  0  0  0  0
 10 11  2  0  0  0  0
 11  9  1  0  0  0  0
 12 15  2  0  0  0  0
 13 15  1  0  0  0  0
 15 14  1  0  0  0  0
 16 11  1  1  0  0  0
 16 17  1  0  0  0  0
 16 12  1  0  0  0  0
 17 18  1  0  0  0  0
 18 13  1  0  0  0  0
 20 19  1  6  0  0  0
 20 21  1  0  0  0  0
 22 36  1  0  0  0  0
 23 36  2  0  0  0  0
 24 37  1  6  0  0  0
 24 29  1  0  0  0  0
 25 21  1  1  0  0  0
 25 30  1  0  0  0  0
 25 24  1  0  0  0  0
 26 28  1  0  0  0  0
 27 31  1  0  0  0  0
 27 32  2  0  0  0  0
 29 35  1  0  0  0  0
 29 26  1  1  0  0  0
 30 33  2  0  0  0  0
 31 22  2  0  0  0  0
 32 23  1  0  0  0  0
 33 38  1  0  0  0  0
 34 28  2  0  0  0  0
 34 31  1  0  0  0  0
 35 33  1  1  0  0  0
 35 34  1  0  0  0  0
 38 27  1  0  0  0  0
 39 43  1  6  0  0  0
 41 40  1  0  0  0  0
 42 39  1  0  0  0  0
 42 41  1  0  0  0  0
 42 40  1  0  0  0  0
 43 44  1  0  0  0  0
 44 46  1  6  0  0  0
 44 47  1  0  0  0  0
 46 45  1  0  0  0  0
 47 48  1  0  0  0  0
 49 48  1  0  0  0  0
 49 52  1  0  0  0  0
 50 52  1  0  0  0  0
 52 51  2  0  0  0  0
M  END
>  <MODEL>
1

>  <REMARK>
 VINA RESULT:      -7.5      0.000      0.000
  Name = 
  16 active torsions:
  status: ('A' for Active; 'I' for Inactive)
    1  A    between atoms: C_2  and  N_12
    2  A    between atoms: C_2  and  C_39
    3  A    between atoms: C_2  and  C_42
    4  A    between atoms: C_3  and  O_25
    5  A    between atoms: C_3  and  C_41
    6  A    between atoms: C_5  and  C_6
    7  A    between atoms: C_5  and  C_35
    8  A    between atoms: C_6  and  C_15
    9  A    between atoms: N_12  and  C_28
   10  A    between atoms: C_14  and  C_52
   11  A    between atoms: C_18  and  N_26
   12  A    between atoms: O_25  and  C_39
   13  A    between atoms: C_28  and  C_43
   14  A    between atoms: C_28  and  C_50
   15  A    between atoms: C_32  and  C_44
   16  A    between atoms: C_44  and  C_52
                            x       y       z     vdW  Elec       q    Type
                         _______ _______ _______ _____ _____    ______ ____

>  <TORSDO>
F 16

$$$$
=
 OpenBabel11032421193D

 52 58  0  0  1  0  0  0  0  0999 V2000
  189.9170  175.3910  135.9030 C   0  0  0  0  0  0  0  0  0  0  0  0
  191.1180  175.4710  136.5740 C   0  0  0  0  0  0  0  0  0  0  0  0
  191.9310  174.5440  135.9620 C   0  0  0  0  0  0  0  0  0  0  0  0
  190.0490  174.4220  134.9240 C   0  0  0  0  0  3  0  0  0  0  0  0
  191.2740  173.9400  134.9940 O   0  0  0  0  0  0  0  0  0  0  0  0
  187.5610  175.7420  136.7990 C   0  0  0  0  0  0  0  0  0  0  0  0
  187.4300  174.5450  137.1650 O   0  0  0  0  0  0  0  0  0  0  0  0
  188.7650  176.1970  136.1700 N   0  0  0  0  0  2  0  0  0  0  0  0
  186.4550  176.7090  137.0450 C   0  0  0  0  0  2  0  0  0  0  0  0
  185.0760  175.8780  135.3280 O   0  0  0  0  0  0  0  0  0  0  0  0
  185.1690  176.1680  136.5110 C   0  0  0  0  0  0  0  0  0  0  0  0
  184.0730  176.8830  138.5490 N   0  0  0  0  0  0  0  0  0  0  0  0
  181.8130  176.2370  139.1000 C   0  0  0  0  0  2  0  0  0  0  0  0
  183.1360  177.9950  140.4690 C   0  0  0  0  0  1  0  0  0  0  0  0
  183.0750  177.0090  139.3540 C   0  0  0  0  0  0  0  0  0  0  0  0
  184.0170  175.9490  137.4410 C   0  0  1  0  0  3  0  0  0  0  0  0
  182.6770  176.0480  136.6890 C   0  0  0  0  0  2  0  0  0  0  0  0
  181.4700  176.3190  137.6110 C   0  0  0  0  0  2  0  0  0  0  0  0
  192.8970  176.0830  138.1910 C   0  0  0  0  0  1  0  0  0  0  0  0
  191.5030  176.4020  137.6860 C   0  0  2  0  0  3  0  0  0  0  0  0
  190.5090  176.3320  138.8360 C   0  0  0  0  0  2  0  0  0  0  0  0
  186.9260  177.9850  144.8250 C   0  0  0  0  0  3  0  0  0  0  0  0
  188.4240  177.3630  146.6300 C   0  0  0  0  0  3  0  0  0  0  0  0
  189.3590  178.4670  139.6500 C   0  0  2  0  0  3  0  0  0  0  0  0
  190.6190  177.5610  139.7420 C   0  0  1  0  0  3  0  0  0  0  0  0
  187.0270  178.6130  140.5560 N   0  0  0  0  0  2  0  0  0  0  0  0
  189.1390  177.0870  144.3330 C   0  0  0  0  0  0  0  0  0  0  0  0
  186.7320  178.5460  141.7960 N   0  0  0  0  0  0  0  0  0  0  0  0
  188.1460  177.7290  140.2290 C   0  0  2  0  0  3  0  0  0  0  0  0
  190.8610  177.1390  141.1350 N   0  0  0  0  0  0  0  0  0  0  0  0
  187.8920  177.5930  143.8930 C   0  0  0  0  0  0  0  0  0  0  0  0
  189.3970  176.9760  145.7030 C   0  0  0  0  0  3  0  0  0  0  0  0
  189.8910  176.9200  141.9760 C   0  0  0  0  0  0  0  0  0  0  0  0
  187.6410  177.6700  142.4420 C   0  0  0  0  0  0  0  0  0  0  0  0
  188.5150  177.2210  141.5700 C   0  0  1  0  0  3  0  0  0  0  0  0
  187.1940  177.8700  146.1920 C   0  0  0  0  0  3  0  0  0  0  0  0
  189.0950  178.9220  138.2240 C   0  0  0  0  0  1  0  0  0  0  0  0
  190.1590  176.7510  143.3740 N   0  0  0  0  0  2  0  0  0  0  0  0
  193.3590  174.2730  136.3080 C   0  0  2  0  0  3  0  0  0  0  0  0
  195.2470  175.7540  135.3980 C   0  0  0  0  0  2  0  0  0  0  0  0
  193.9700  176.0470  134.6310 C   0  0  0  0  0  2  0  0  0  0  0  0
  194.2570  174.6360  135.1100 C   0  0  0  0  0  3  0  0  0  0  0  0
  193.5130  172.8940  136.7670 N   0  0  0  0  0  2  0  0  0  0  0  0
  194.9380  172.5970  136.7860 C   0  0  2  0  0  3  0  0  0  0  0  0
  196.4000  170.7620  136.2280 O   0  0  0  0  0  1  0  0  0  0  0  0
  195.2840  171.4840  135.7990 C   0  0  0  0  0  2  0  0  0  0  0  0
  195.4060  172.2780  138.2020 C   0  0  0  0  0  2  0  0  0  0  0  0
  195.6290  173.4470  138.9320 O   0  0  0  0  0  0  0  0  0  0  0  0
  196.7500  174.0240  138.3370 C   0  0  0  0  0  2  0  0  0  0  0  0
  196.6890  175.3590  140.4760 N   0  0  0  0  0  1  0  0  0  0  0  0
  198.4810  175.5160  139.0040 O   0  0  0  0  0  0  0  0  0  0  0  0
  197.3690  174.9960  139.2790 C   0  0  0  0  0  0  0  0  0  0  0  0
  1  8  1  0  0  0  0
  1  2  1  0  0  0  0
  2 20  1  0  0  0  0
  3 39  1  0  0  0  0
  3  2  2  0  0  0  0
  4  5  1  0  0  0  0
  4  1  2  0  0  0  0
  5  3  1  0  0  0  0
  6  9  1  0  0  0  0
  6  7  2  0  0  0  0
  8  6  1  0  0  0  0
 10 11  2  0  0  0  0
 11  9  1  0  0  0  0
 12 15  2  0  0  0  0
 13 15  1  0  0  0  0
 15 14  1  0  0  0  0
 16 11  1  6  0  0  0
 16 12  1  0  0  0  0
 17 16  1  0  0  0  0
 17 18  1  0  0  0  0
 18 13  1  0  0  0  0
 20 19  1  1  0  0  0
 20 21  1  0  0  0  0
 22 36  1  0  0  0  0
 24 37  1  6  0  0  0
 24 25  1  0  0  0  0
 24 29  1  0  0  0  0
 25 21  1  6  0  0  0
 25 30  1  0  0  0  0
 26 28  1  0  0  0  0
 27 32  2  0  0  0  0
 28 34  2  0  0  0  0
 29 26  1  1  0  0  0
 29 35  1  0  0  0  0
 30 33  2  0  0  0  0
 31 27  1  0  0  0  0
 31 22  2  0  0  0  0
 32 23  1  0  0  0  0
 33 38  1  0  0  0  0
 34 31  1  0  0  0  0
 35 33  1  1  0  0  0
 35 34  1  0  0  0  0
 36 23  2  0  0  0  0
 38 27  1  0  0  0  0
 39 43  1  6  0  0  0
 41 42  1  0  0  0  0
 41 40  1  0  0  0  0
 42 40  1  0  0  0  0
 42 39  1  0  0  0  0
 43 44  1  0  0  0  0
 44 46  1  6  0  0  0
 44 47  1  0  0  0  0
 46 45  1  0  0  0  0
 47 48  1  0  0  0  0
 49 48  1  0  0  0  0
 49 52  1  0  0  0  0
 51 52  2  0  0  0  0
 52 50  1  0  0  0  0
M  END
>  <MODEL>
2

>  <REMARK>
 VINA RESULT:      -7.5      2.176      8.942
  Name = 
  16 active torsions:
  status: ('A' for Active; 'I' for Inactive)
    1  A    between atoms: C_2  and  N_12
    2  A    between atoms: C_2  and  C_39
    3  A    between atoms: C_2  and  C_42
    4  A    between atoms: C_3  and  O_25
    5  A    between atoms: C_3  and  C_41
    6  A    between atoms: C_5  and  C_6
    7  A    between atoms: C_5  and  C_35
    8  A    between atoms: C_6  and  C_15
    9  A    between atoms: N_12  and  C_28
   10  A    between atoms: C_14  and  C_52
   11  A    between atoms: C_18  and  N_26
   12  A    between atoms: O_25  and  C_39
   13  A    between atoms: C_28  and  C_43
   14  A    between atoms: C_28  and  C_50
   15  A    between atoms: C_32  and  C_44
   16  A    between atoms: C_44  and  C_52
                            x       y       z     vdW  Elec       q    Type
                         _______ _______ _______ _____ _____    ______ ____

>  <TORSDO>
F 16

$$$$
=
 OpenBabel11032421193D

 52 58  0  0  1  0  0  0  0  0999 V2000
  189.4020  176.1680  137.1650 C   0  0  0  0  0  0  0  0  0  0  0  0
  188.0820  176.5210  137.3510 C   0  0  0  0  0  0  0  0  0  0  0  0
  187.3600  175.5680  136.6690 C   0  0  0  0  0  0  0  0  0  0  0  0
  189.4240  175.0300  136.3790 C   0  0  0  0  0  3  0  0  0  0  0  0
  188.1770  174.7040  136.1040 O   0  0  0  0  0  0  0  0  0  0  0  0
  191.0570  176.6560  139.0360 C   0  0  0  0  0  0  0  0  0  0  0  0
  190.5350  175.8290  139.8290 O   0  0  0  0  0  0  0  0  0  0  0  0
  190.5270  176.8560  137.7210 N   0  0  0  0  0  2  0  0  0  0  0  0
  192.2610  177.4220  139.4650 C   0  0  0  0  0  2  0  0  0  0  0  0
  194.4110  176.6180  139.9850 O   0  0  0  0  0  0  0  0  0  0  0  0
  193.5000  176.6420  139.1710 C   0  0  0  0  0  0  0  0  0  0  0  0
  194.1030  176.6980  136.8260 N   0  0  0  0  0  0  0  0  0  0  0  0
  194.4210  174.6920  135.5210 C   0  0  0  0  0  2  0  0  0  0  0  0
  195.0060  177.0510  134.6220 C   0  0  0  0  0  1  0  0  0  0  0  0
  194.4590  176.1810  135.7010 C   0  0  0  0  0  0  0  0  0  0  0  0
  193.5970  175.8620  137.8980 C   0  0  1  0  0  3  0  0  0  0  0  0
  194.4660  174.6050  138.0870 C   0  0  0  0  0  2  0  0  0  0  0  0
  195.0120  174.0250  136.7660 C   0  0  0  0  0  2  0  0  0  0  0  0
  188.4060  178.8780  138.0520 C   0  0  0  0  0  1  0  0  0  0  0  0
  187.5260  177.6490  138.1690 C   0  0  2  0  0  3  0  0  0  0  0  0
  187.3810  177.2540  139.6320 C   0  0  0  0  0  2  0  0  0  0  0  0
  187.4950  177.5800  146.7950 C   0  0  0  0  0  3  0  0  0  0  0  0
  189.8470  177.4410  147.3800 C   0  0  0  0  0  3  0  0  0  0  0  0
  186.3850  178.8960  141.3210 C   0  0  2  0  0  3  0  0  0  0  0  0
  187.6620  178.4390  140.5590 C   0  0  1  0  0  3  0  0  0  0  0  0
  185.0200  178.2750  143.3290 N   0  0  0  0  0  2  0  0  0  0  0  0
  189.1930  177.4440  145.0490 C   0  0  0  0  0  0  0  0  0  0  0  0
  185.5000  178.0970  144.4970 N   0  0  0  0  0  0  0  0  0  0  0  0
  185.9440  177.8000  142.2980 C   0  0  2  0  0  3  0  0  0  0  0  0
  188.7410  178.0940  141.5040 N   0  0  0  0  0  0  0  0  0  0  0  0
  187.8340  177.5320  145.4390 C   0  0  0  0  0  0  0  0  0  0  0  0
  190.1920  177.3990  146.0250 C   0  0  0  0  0  3  0  0  0  0  0  0
  188.5040  177.5630  142.6690 C   0  0  0  0  0  0  0  0  0  0  0  0
  186.8030  177.5470  144.3850 C   0  0  0  0  0  0  0  0  0  0  0  0
  187.1160  177.4160  143.1170 C   0  0  1  0  0  3  0  0  0  0  0  0
  188.5030  177.5350  147.7640 C   0  0  0  0  0  3  0  0  0  0  0  0
  185.2620  179.2650  140.3670 C   0  0  0  0  0  1  0  0  0  0  0  0
  189.5430  177.4660  143.6530 N   0  0  0  0  0  2  0  0  0  0  0  0
  185.8690  175.4910  136.5960 C   0  0  2  0  0  3  0  0  0  0  0  0
  184.4020  173.5470  137.4030 C   0  0  0  0  0  2  0  0  0  0  0  0
  185.8630  173.1760  137.5820 C   0  0  0  0  0  2  0  0  0  0  0  0
  185.4380  174.0260  136.3990 C   0  0  0  0  0  3  0  0  0  0  0  0
  185.3680  176.4000  135.5670 N   0  0  0  0  0  2  0  0  0  0  0  0
  183.9610  176.6450  135.8490 C   0  0  2  0  0  3  0  0  0  0  0  0
  181.8870  177.3690  134.8550 O   0  0  0  0  0  1  0  0  0  0  0  0
  183.2690  177.3160  134.6650 C   0  0  0  0  0  2  0  0  0  0  0  0
  183.7970  177.4400  137.1390 C   0  0  0  0  0  2  0  0  0  0  0  0
  182.5410  177.2210  137.7080 O   0  0  0  0  0  0  0  0  0  0  0  0
  182.8110  176.8590  139.0270 C   0  0  0  0  0  2  0  0  0  0  0  0
  180.9140  175.2390  139.4000 N   0  0  0  0  0  1  0  0  0  0  0  0
  181.0160  177.2630  140.5380 O   0  0  0  0  0  0  0  0  0  0  0  0
  181.5440  176.4780  139.7090 C   0  0  0  0  0  0  0  0  0  0  0  0
  1  2  1  0  0  0  0
  1  8  1  0  0  0  0
  2 20  1  0  0  0  0
  3  2  2  0  0  0  0
  4  1  2  0  0  0  0
  5  4  1  0  0  0  0
  5  3  1  0  0  0  0
  6  9  1  0  0  0  0
  6  7  2  0  0  0  0
  8  6  1  0  0  0  0
 11  9  1  0  0  0  0
 11 10  2  0  0  0  0
 12 16  1  0  0  0  0
 13 15  1  0  0  0  0
 13 18  1  0  0  0  0
 14 15  1  0  0  0  0
 15 12  2  0  0  0  0
 16 17  1  0  0  0  0
 16 11  1  1  0  0  0
 18 17  1  0  0  0  0
 20 19  1  1  0  0  0
 20 21  1  0  0  0  0
 22 36  1  0  0  0  0
 23 36  2  0  0  0  0
 24 37  1  6  0  0  0
 24 29  1  0  0  0  0
 25 21  1  1  0  0  0
 25 24  1  0  0  0  0
 25 30  1  0  0  0  0
 26 28  1  0  0  0  0
 27 31  1  0  0  0  0
 27 32  2  0  0  0  0
 29 35  1  0  0  0  0
 29 26  1  1  0  0  0
 30 33  2  0  0  0  0
 31 22  2  0  0  0  0
 32 23  1  0  0  0  0
 33 38  1  0  0  0  0
 34 28  2  0  0  0  0
 34 31  1  0  0  0  0
 35 33  1  6  0  0  0
 35 34  1  0  0  0  0
 38 27  1  0  0  0  0
 39 43  1  6  0  0  0
 39  3  1  0  0  0  0
 40 41  1  0  0  0  0
 42 39  1  0  0  0  0
 42 40  1  0  0  0  0
 42 41  1  0  0  0  0
 43 44  1  0  0  0  0
 44 46  1  6  0  0  0
 44 47  1  0  0  0  0
 46 45  1  0  0  0  0
 47 48  1  0  0  0  0
 48 49  1  0  0  0  0
 49 52  1  0  0  0  0
 50 52  1  0  0  0  0
 52 51  2  0  0  0  0
M  END
>  <MODEL>
3

>  <REMARK>
 VINA RESULT:      -7.2      1.488      1.894
  Name = 
  16 active torsions:
  status: ('A' for Active; 'I' for Inactive)
    1  A    between atoms: C_2  and  N_12
    2  A    between atoms: C_2  and  C_39
    3  A    between atoms: C_2  and  C_42
    4  A    between atoms: C_3  and  O_25
    5  A    between atoms: C_3  and  C_41
    6  A    between atoms: C_5  and  C_6
    7  A    between atoms: C_5  and  C_35
    8  A    between atoms: C_6  and  C_15
    9  A    between atoms: N_12  and  C_28
   10  A    between atoms: C_14  and  C_52
   11  A    between atoms: C_18  and  N_26
   12  A    between atoms: O_25  and  C_39
   13  A    between atoms: C_28  and  C_43
   14  A    between atoms: C_28  and  C_50
   15  A    between atoms: C_32  and  C_44
   16  A    between atoms: C_44  and  C_52
                            x       y       z     vdW  Elec       q    Type
                         _______ _______ _______ _____ _____    ______ ____

>  <TORSDO>
F 16

$$$$
=
 OpenBabel11032421193D

 52 58  0  0  1  0  0  0  0  0999 V2000
  190.4420  176.8220  139.0090 C   0  0  0  0  0  0  0  0  0  0  0  0
  189.9340  176.7990  137.7280 C   0  0  0  0  0  0  0  0  0  0  0  0
  190.6920  175.8630  137.0620 C   0  0  0  0  0  0  0  0  0  0  0  0
  191.4830  175.9120  139.0640 C   0  0  0  0  0  3  0  0  0  0  0  0
  191.5970  175.3590  137.8730 O   0  0  0  0  0  0  0  0  0  0  0  0
  189.8090  177.2130  141.4440 C   0  0  0  0  0  0  0  0  0  0  0  0
  190.1230  176.0470  141.8010 O   0  0  0  0  0  0  0  0  0  0  0  0
  189.9460  177.6310  140.0810 N   0  0  0  0  0  2  0  0  0  0  0  0
  189.3090  178.1810  142.4600 C   0  0  0  0  0  2  0  0  0  0  0  0
  187.0070  177.7230  142.2880 O   0  0  0  0  0  0  0  0  0  0  0  0
  187.9960  177.7240  143.0050 C   0  0  0  0  0  0  0  0  0  0  0  0
  189.2270  177.2310  145.0320 N   0  0  0  0  0  0  0  0  0  0  0  0
  188.1380  176.9010  147.1610 C   0  0  0  0  0  2  0  0  0  0  0  0
  190.7120  177.0750  146.9210 C   0  0  0  0  0  1  0  0  0  0  0  0
  189.3580  177.0440  146.3000 C   0  0  0  0  0  0  0  0  0  0  0  0
  187.9130  177.2340  144.4160 C   0  0  1  0  0  3  0  0  0  0  0  0
  186.9120  178.0730  145.2320 C   0  0  0  0  0  2  0  0  0  0  0  0
  187.1170  177.9680  146.7580 C   0  0  0  0  0  2  0  0  0  0  0  0
  189.0000  179.0580  137.3040 C   0  0  0  0  0  1  0  0  0  0  0  0
  188.7680  177.5650  137.1740 C   0  0  2  0  0  3  0  0  0  0  0  0
  187.4710  177.1800  137.8720 C   0  0  0  0  0  2  0  0  0  0  0  0
  180.5370  177.0490  139.6980 C   0  0  0  0  0  3  0  0  0  0  0  0
  180.3660  178.5780  141.5740 C   0  0  0  0  0  3  0  0  0  0  0  0
  185.3100  177.5280  136.5490 C   0  0  2  0  0  3  0  0  0  0  0  0
  186.3430  178.1560  137.5260 C   0  0  1  0  0  3  0  0  0  0  0  0
  183.3240  176.0000  136.5730 N   0  0  0  0  0  2  0  0  0  0  0  0
  182.5030  178.2620  140.4810 C   0  0  0  0  0  0  0  0  0  0  0  0
  182.3170  176.1420  137.3440 N   0  0  0  0  0  0  0  0  0  0  0  0
  184.5660  176.3840  137.2460 C   0  0  2  0  0  3  0  0  0  0  0  0
  185.6820  178.6190  138.7610 N   0  0  0  0  0  0  0  0  0  0  0  0
  181.9010  177.3380  139.5920 C   0  0  0  0  0  0  0  0  0  0  0  0
  181.7290  178.8770  141.4690 C   0  0  0  0  0  3  0  0  0  0  0  0
  184.6540  178.0060  139.2730 C   0  0  0  0  0  0  0  0  0  0  0  0
  182.7530  176.6850  138.5810 C   0  0  0  0  0  0  0  0  0  0  0  0
  184.0490  176.8920  138.5370 C   0  0  1  0  0  3  0  0  0  0  0  0
  179.7720  177.6700  140.6900 C   0  0  0  0  0  3  0  0  0  0  0  0
  185.9680  177.0510  135.2640 C   0  0  0  0  0  1  0  0  0  0  0  0
  183.8910  178.6120  140.3250 N   0  0  0  0  0  2  0  0  0  0  0  0
  190.5070  175.4450  135.6390 C   0  0  2  0  0  3  0  0  0  0  0  0
  188.7740  173.6510  135.0380 C   0  0  0  0  0  2  0  0  0  0  0  0
  189.0260  173.6180  136.5350 C   0  0  0  0  0  2  0  0  0  0  0  0
  190.1630  173.9450  135.5840 C   0  0  0  0  0  3  0  0  0  0  0  0
  191.6820  175.8130  134.8500 N   0  0  0  0  0  2  0  0  0  0  0  0
  192.8590  175.4610  135.6320 C   0  0  2  0  0  3  0  0  0  0  0  0
  194.1750  177.0070  136.9340 O   0  0  0  0  0  1  0  0  0  0  0  0
  193.8810  176.5960  135.6320 C   0  0  0  0  0  2  0  0  0  0  0  0
  193.4580  174.1460  135.1480 C   0  0  0  0  0  2  0  0  0  0  0  0
  193.5820  173.2340  136.1980 O   0  0  0  0  0  0  0  0  0  0  0  0
  194.9540  173.0120  136.3090 C   0  0  0  0  0  2  0  0  0  0  0  0
  196.5610  174.6750  137.3180 N   0  0  0  0  0  1  0  0  0  0  0  0
  195.0020  173.5520  138.6270 O   0  0  0  0  0  0  0  0  0  0  0  0
  195.4850  173.7560  137.4840 C   0  0  0  0  0  0  0  0  0  0  0  0
  1  4  2  0  0  0  0
  1  8  1  0  0  0  0
  2  1  1  0  0  0  0
  3  2  2  0  0  0  0
  3  5  1  0  0  0  0
  5  4  1  0  0  0  0
  6  7  2  0  0  0  0
  6  9  1  0  0  0  0
  8  6  1  0  0  0  0
  9 11  1  0  0  0  0
 10 11  2  0  0  0  0
 12 15  2  0  0  0  0
 15 14  1  0  0  0  0
 15 13  1  0  0  0  0
 16 11  1  6  0  0  0
 16 12  1  0  0  0  0
 16 17  1  0  0  0  0
 17 18  1  0  0  0  0
 18 13  1  0  0  0  0
 20 19  1  1  0  0  0
 20  2  1  0  0  0  0
 20 21  1  0  0  0  0
 22 36  1  0  0  0  0
 24 37  1  6  0  0  0
 24 29  1  0  0  0  0
 24 25  1  0  0  0  0
 25 21  1  1  0  0  0
 25 30  1  0  0  0  0
 26 28  1  0  0  0  0
 27 32  2  0  0  0  0
 28 34  2  0  0  0  0
 29 26  1  6  0  0  0
 29 35  1  0  0  0  0
 30 33  2  0  0  0  0
 31 22  2  0  0  0  0
 31 27  1  0  0  0  0
 32 23  1  0  0  0  0
 33 38  1  0  0  0  0
 34 31  1  0  0  0  0
 35 34  1  6  0  0  0
 35 33  1  0  0  0  0
 36 23  2  0  0  0  0
 38 27  1  0  0  0  0
 39 43  1  6  0  0  0
 39  3  1  0  0  0  0
 40 42  1  0  0  0  0
 40 41  1  0  0  0  0
 42 39  1  0  0  0  0
 42 41  1  0  0  0  0
 43 44  1  0  0  0  0
 44 47  1  6  0  0  0
 46 44  1  0  0  0  0
 46 45  1  0  0  0  0
 47 48  1  0  0  0  0
 48 49  1  0  0  0  0
 49 52  1  0  0  0  0
 50 52  1  0  0  0  0
 52 51  2  0  0  0  0
M  END
>  <MODEL>
4

>  <REMARK>
 VINA RESULT:      -6.9      2.395      8.888
  Name = 
  16 active torsions:
  status: ('A' for Active; 'I' for Inactive)
    1  A    between atoms: C_2  and  N_12
    2  A    between atoms: C_2  and  C_39
    3  A    between atoms: C_2  and  C_42
    4  A    between atoms: C_3  and  O_25
    5  A    between atoms: C_3  and  C_41
    6  A    between atoms: C_5  and  C_6
    7  A    between atoms: C_5  and  C_35
    8  A    between atoms: C_6  and  C_15
    9  A    between atoms: N_12  and  C_28
   10  A    between atoms: C_14  and  C_52
   11  A    between atoms: C_18  and  N_26
   12  A    between atoms: O_25  and  C_39
   13  A    between atoms: C_28  and  C_43
   14  A    between atoms: C_28  and  C_50
   15  A    between atoms: C_32  and  C_44
   16  A    between atoms: C_44  and  C_52
                            x       y       z     vdW  Elec       q    Type
                         _______ _______ _______ _____ _____    ______ ____

>  <TORSDO>
F 16

$$$$
=
 OpenBabel11032421193D

 52 58  0  0  1  0  0  0  0  0999 V2000
  190.9830  176.6540  138.8040 C   0  0  0  0  0  0  0  0  0  0  0  0
  191.4620  175.9920  137.6940 C   0  0  0  0  0  0  0  0  0  0  0  0
  192.8330  176.0590  137.8050 C   0  0  0  0  0  0  0  0  0  0  0  0
  192.0730  177.0970  139.5320 C   0  0  0  0  0  3  0  0  0  0  0  0
  193.1640  176.7160  138.8960 O   0  0  0  0  0  0  0  0  0  0  0  0
  188.8640  178.0420  139.0540 C   0  0  0  0  0  0  0  0  0  0  0  0
  189.4160  179.1080  138.6750 O   0  0  0  0  0  0  0  0  0  0  0  0
  189.6000  176.8170  139.1350 N   0  0  0  0  0  2  0  0  0  0  0  0
  187.4150  178.0500  139.3990 C   0  0  0  0  0  2  0  0  0  0  0  0
  186.4880  179.4430  141.0550 O   0  0  0  0  0  0  0  0  0  0  0  0
  187.2240  178.4990  140.8110 C   0  0  0  0  0  0  0  0  0  0  0  0
  189.1040  178.4660  142.3370 N   0  0  0  0  0  0  0  0  0  0  0  0
  189.1750  177.0270  144.2750 C   0  0  0  0  0  2  0  0  0  0  0  0
  190.9400  178.8740  143.8410 C   0  0  0  0  0  1  0  0  0  0  0  0
  189.7300  178.1200  143.4090 C   0  0  0  0  0  0  0  0  0  0  0  0
  187.9070  177.7620  141.9190 C   0  0  1  0  0  3  0  0  0  0  0  0
  186.9470  177.5330  143.1010 C   0  0  0  0  0  2  0  0  0  0  0  0
  187.6670  177.2350  144.4330 C   0  0  0  0  0  2  0  0  0  0  0  0
  190.5290  176.1760  135.4030 C   0  0  0  0  0  1  0  0  0  0  0  0
  190.6860  175.2870  136.6220 C   0  0  2  0  0  3  0  0  0  0  0  0
  189.3160  174.8530  137.1250 C   0  0  0  0  0  2  0  0  0  0  0  0
  182.1840  174.1840  137.4710 C   0  0  0  0  0  3  0  0  0  0  0  0
  181.3530  176.4640  137.4900 C   0  0  0  0  0  3  0  0  0  0  0  0
  187.6150  173.5500  135.7280 C   0  0  2  0  0  3  0  0  0  0  0  0
  188.2650  174.9330  136.0150 C   0  0  1  0  0  3  0  0  0  0  0  0
  185.8340  172.0380  136.6370 N   0  0  0  0  0  2  0  0  0  0  0  0
  183.7340  176.0610  137.3150 C   0  0  0  0  0  0  0  0  0  0  0  0
  184.6390  172.4050  136.8880 N   0  0  0  0  0  0  0  0  0  0  0  0
  186.7920  173.1020  136.9420 C   0  0  2  0  0  3  0  0  0  0  0  0
  187.2380  175.9320  136.3660 N   0  0  0  0  0  0  0  0  0  0  0  0
  183.4930  174.6670  137.3650 C   0  0  0  0  0  0  0  0  0  0  0  0
  182.6590  176.9530  137.3770 C   0  0  0  0  0  3  0  0  0  0  0  0
  186.1570  175.6200  137.0220 C   0  0  0  0  0  0  0  0  0  0  0  0
  184.6510  173.7550  137.3260 C   0  0  0  0  0  0  0  0  0  0  0  0
  185.8820  174.2100  137.3140 C   0  0  1  0  0  3  0  0  0  0  0  0
  181.1160  175.0850  137.5330 C   0  0  0  0  0  3  0  0  0  0  0  0
  188.6540  172.5060  135.3550 C   0  0  0  0  0  1  0  0  0  0  0  0
  185.0740  176.5540  137.1340 N   0  0  0  0  0  2  0  0  0  0  0  0
  193.8150  175.4510  136.8570 C   0  0  2  0  0  3  0  0  0  0  0  0
  195.0480  176.0140  134.6780 C   0  0  0  0  0  2  0  0  0  0  0  0
  194.9290  177.2700  135.5220 C   0  0  0  0  0  2  0  0  0  0  0  0
  193.8130  176.2420  135.5360 C   0  0  0  0  0  3  0  0  0  0  0  0
  193.5400  174.0250  136.6940 N   0  0  0  0  0  2  0  0  0  0  0  0
  194.7980  173.3140  136.8790 C   0  0  2  0  0  3  0  0  0  0  0  0
  194.9420  170.9200  136.6310 O   0  0  0  0  0  1  0  0  0  0  0  0
  194.9050  172.1250  135.9260 C   0  0  0  0  0  2  0  0  0  0  0  0
  194.9790  172.9040  138.3360 C   0  0  0  0  0  2  0  0  0  0  0  0
  195.9310  173.7060  138.9690 O   0  0  0  0  0  0  0  0  0  0  0  0
  197.0750  173.5800  138.1810 C   0  0  0  0  0  2  0  0  0  0  0  0
  198.3850  175.4720  139.2140 N   0  0  0  0  0  1  0  0  0  0  0  0
  197.7440  175.5230  136.9800 O   0  0  0  0  0  0  0  0  0  0  0  0
  197.7530  174.9000  138.0730 C   0  0  0  0  0  0  0  0  0  0  0  0
  1  8  1  0  0  0  0
  1  4  2  0  0  0  0
  2  3  2  0  0  0  0
  2  1  1  0  0  0  0
  3  5  1  0  0  0  0
  5  4  1  0  0  0  0
  6  8  1  0  0  0  0
  6  9  1  0  0  0  0
  7  6  2  0  0  0  0
  9 11  1  0  0  0  0
 11 10  2  0  0  0  0
 12 15  2  0  0  0  0
 13 18  1  0  0  0  0
 15 14  1  0  0  0  0
 15 13  1  0  0  0  0
 16 11  1  6  0  0  0
 16 12  1  0  0  0  0
 16 17  1  0  0  0  0
 17 18  1  0  0  0  0
 20 19  1  6  0  0  0
 20 21  1  0  0  0  0
 20  2  1  0  0  0  0
 22 36  1  0  0  0  0
 23 36  2  0  0  0  0
 24 37  1  1  0  0  0
 24 25  1  0  0  0  0
 24 29  1  0  0  0  0
 25 30  1  0  0  0  0
 25 21  1  1  0  0  0
 26 28  1  0  0  0  0
 27 31  1  0  0  0  0
 27 32  2  0  0  0  0
 28 34  2  0  0  0  0
 29 26  1  6  0  0  0
 29 35  1  0  0  0  0
 30 33  2  0  0  0  0
 31 22  2  0  0  0  0
 32 23  1  0  0  0  0
 33 38  1  0  0  0  0
 34 31  1  0  0  0  0
 35 33  1  6  0  0  0
 35 34  1  0  0  0  0
 38 27  1  0  0  0  0
 39 43  1  6  0  0  0
 39  3  1  0  0  0  0
 40 41  1  0  0  0  0
 40 42  1  0  0  0  0
 41 42  1  0  0  0  0
 42 39  1  0  0  0  0
 43 44  1  0  0  0  0
 44 46  1  6  0  0  0
 44 47  1  0  0  0  0
 46 45  1  0  0  0  0
 47 48  1  0  0  0  0
 49 48  1  0  0  0  0
 51 52  2  0  0  0  0
 52 49  1  0  0  0  0
 52 50  1  0  0  0  0
M  END
>  <MODEL>
5

>  <REMARK>
 VINA RESULT:      -6.7      2.464      9.921
  Name = 
  16 active torsions:
  status: ('A' for Active; 'I' for Inactive)
    1  A    between atoms: C_2  and  N_12
    2  A    between atoms: C_2  and  C_39
    3  A    between atoms: C_2  and  C_42
    4  A    between atoms: C_3  and  O_25
    5  A    between atoms: C_3  and  C_41
    6  A    between atoms: C_5  and  C_6
    7  A    between atoms: C_5  and  C_35
    8  A    between atoms: C_6  and  C_15
    9  A    between atoms: N_12  and  C_28
   10  A    between atoms: C_14  and  C_52
   11  A    between atoms: C_18  and  N_26
   12  A    between atoms: O_25  and  C_39
   13  A    between atoms: C_28  and  C_43
   14  A    between atoms: C_28  and  C_50
   15  A    between atoms: C_32  and  C_44
   16  A    between atoms: C_44  and  C_52
                            x       y       z     vdW  Elec       q    Type
                         _______ _______ _______ _____ _____    ______ ____

>  <TORSDO>
F 16

$$$$
=
 OpenBabel11032421193D

 52 58  0  0  1  0  0  0  0  0999 V2000
  190.8030  176.7100  138.8750 C   0  0  0  0  0  0  0  0  0  0  0  0
  191.2800  175.9750  137.8110 C   0  0  0  0  0  0  0  0  0  0  0  0
  192.6490  175.9970  137.9490 C   0  0  0  0  0  0  0  0  0  0  0  0
  191.8940  177.1500  139.6030 C   0  0  0  0  0  3  0  0  0  0  0  0
  192.9820  176.6970  139.0130 O   0  0  0  0  0  0  0  0  0  0  0  0
  188.7240  178.1760  138.9710 C   0  0  0  0  0  0  0  0  0  0  0  0
  189.3140  179.1900  138.5170 O   0  0  0  0  0  0  0  0  0  0  0  0
  189.4210  176.9400  139.1670 N   0  0  0  0  0  2  0  0  0  0  0  0
  187.2710  178.2550  139.2890 C   0  0  0  0  0  2  0  0  0  0  0  0
  188.0370  178.6770  141.4740 O   0  0  0  0  0  0  0  0  0  0  0  0
  187.0760  178.6260  140.7220 C   0  0  0  0  0  0  0  0  0  0  0  0
  184.7000  178.2150  140.4960 N   0  0  0  0  0  0  0  0  0  0  0  0
  183.0990  178.9170  142.1620 C   0  0  0  0  0  2  0  0  0  0  0  0
  182.4600  177.3940  140.1640 C   0  0  0  0  0  1  0  0  0  0  0  0
  183.4750  178.2030  140.8960 C   0  0  0  0  0  0  0  0  0  0  0  0
  185.7060  178.9720  141.2160 C   0  0  1  0  0  3  0  0  0  0  0  0
  185.5960  178.7500  142.7350 C   0  0  0  0  0  2  0  0  0  0  0  0
  184.1440  178.6090  143.2370 C   0  0  0  0  0  2  0  0  0  0  0  0
  190.4660  176.0400  135.4690 C   0  0  0  0  0  1  0  0  0  0  0  0
  190.4990  175.2440  136.7590 C   0  0  2  0  0  3  0  0  0  0  0  0
  189.0790  174.9540  137.2240 C   0  0  0  0  0  2  0  0  0  0  0  0
  181.9080  175.0030  137.1200 C   0  0  0  0  0  3  0  0  0  0  0  0
  181.3170  177.2930  136.5760 C   0  0  0  0  0  3  0  0  0  0  0  0
  187.3410  173.5250  136.0090 C   0  0  2  0  0  3  0  0  0  0  0  0
  188.1110  174.8750  136.0410 C   0  0  1  0  0  3  0  0  0  0  0  0
  185.3620  172.4150  137.0740 N   0  0  0  0  0  2  0  0  0  0  0  0
  183.6500  176.6550  136.6880 C   0  0  0  0  0  0  0  0  0  0  0  0
  184.1980  172.9320  137.1410 N   0  0  0  0  0  0  0  0  0  0  0  0
  186.4040  173.4340  137.2190 C   0  0  2  0  0  3  0  0  0  0  0  0
  187.1730  176.0130  136.0820 N   0  0  0  0  0  0  0  0  0  0  0  0
  183.2630  175.3340  137.0210 C   0  0  0  0  0  0  0  0  0  0  0  0
  182.6700  177.6280  136.4670 C   0  0  0  0  0  3  0  0  0  0  0  0
  186.0280  175.9510  136.6980 C   0  0  0  0  0  0  0  0  0  0  0  0
  184.3220  174.3390  137.2760 C   0  0  0  0  0  0  0  0  0  0  0  0
  185.5920  174.6710  137.2650 C   0  0  1  0  0  3  0  0  0  0  0  0
  180.9370  175.9840  136.8980 C   0  0  0  0  0  3  0  0  0  0  0  0
  188.2880  172.3380  135.9580 C   0  0  0  0  0  1  0  0  0  0  0  0
  185.0420  176.9770  136.5160 N   0  0  0  0  0  2  0  0  0  0  0  0
  193.6270  175.3060  137.0550 C   0  0  2  0  0  3  0  0  0  0  0  0
  194.9800  175.8640  134.9480 C   0  0  0  0  0  2  0  0  0  0  0  0
  194.6560  177.1500  135.6870 C   0  0  0  0  0  2  0  0  0  0  0  0
  193.6570  176.0070  135.6850 C   0  0  0  0  0  3  0  0  0  0  0  0
  193.3200  173.8780  136.9830 N   0  0  0  0  0  2  0  0  0  0  0  0
  194.5870  173.1610  136.9390 C   0  0  2  0  0  3  0  0  0  0  0  0
  194.0700  170.8170  136.7120 O   0  0  0  0  0  1  0  0  0  0  0  0
  194.5030  171.9480  136.0160 C   0  0  0  0  0  2  0  0  0  0  0  0
  195.0470  172.7870  138.3440 C   0  0  0  0  0  2  0  0  0  0  0  0
  195.9580  173.7210  138.8400 O   0  0  0  0  0  0  0  0  0  0  0  0
  197.0850  173.5770  138.0310 C   0  0  0  0  0  2  0  0  0  0  0  0
  198.3970  175.4470  139.1010 N   0  0  0  0  0  1  0  0  0  0  0  0
  197.8600  175.4860  136.8400 O   0  0  0  0  0  0  0  0  0  0  0  0
  197.8020  174.8770  137.9390 C   0  0  0  0  0  0  0  0  0  0  0  0
  1  8  1  0  0  0  0
  1  4  2  0  0  0  0
  2  3  2  0  0  0  0
  2  1  1  0  0  0  0
  3  5  1  0  0  0  0
  5  4  1  0  0  0  0
  6  8  1  0  0  0  0
  6  9  1  0  0  0  0
  7  6  2  0  0  0  0
  9 11  1  0  0  0  0
 11 10  2  0  0  0  0
 12 15  2  0  0  0  0
 12 16  1  0  0  0  0
 13 18  1  0  0  0  0
 14 15  1  0  0  0  0
 15 13  1  0  0  0  0
 16 11  1  6  0  0  0
 16 17  1  0  0  0  0
 17 18  1  0  0  0  0
 20 19  1  6  0  0  0
 20 21  1  0  0  0  0
 20  2  1  0  0  0  0
 23 36  1  0  0  0  0
 24 37  1  1  0  0  0
 24 25  1  0  0  0  0
 24 29  1  0  0  0  0
 25 30  1  0  0  0  0
 25 21  1  1  0  0  0
 26 28  1  0  0  0  0
 27 31  2  0  0  0  0
 28 34  2  0  0  0  0
 29 26  1  6  0  0  0
 29 35  1  0  0  0  0
 30 33  2  0  0  0  0
 31 22  1  0  0  0  0
 31 34  1  0  0  0  0
 32 23  2  0  0  0  0
 32 27  1  0  0  0  0
 35 33  1  6  0  0  0
 35 34  1  0  0  0  0
 36 22  2  0  0  0  0
 38 27  1  0  0  0  0
 38 33  1  0  0  0  0
 39 43  1  6  0  0  0
 39  3  1  0  0  0  0
 40 42  1  0  0  0  0
 40 41  1  0  0  0  0
 42 41  1  0  0  0  0
 42 39  1  0  0  0  0
 44 46  1  6  0  0  0
 44 43  1  0  0  0  0
 44 47  1  0  0  0  0
 46 45  1  0  0  0  0
 47 48  1  0  0  0  0
 49 48  1  0  0  0  0
 51 52  2  0  0  0  0
 52 49  1  0  0  0  0
 52 50  1  0  0  0  0
M  END
>  <MODEL>
6

>  <REMARK>
 VINA RESULT:      -6.4      3.327     10.444
  Name = 
  16 active torsions:
  status: ('A' for Active; 'I' for Inactive)
    1  A    between atoms: C_2  and  N_12
    2  A    between atoms: C_2  and  C_39
    3  A    between atoms: C_2  and  C_42
    4  A    between atoms: C_3  and  O_25
    5  A    between atoms: C_3  and  C_41
    6  A    between atoms: C_5  and  C_6
    7  A    between atoms: C_5  and  C_35
    8  A    between atoms: C_6  and  C_15
    9  A    between atoms: N_12  and  C_28
   10  A    between atoms: C_14  and  C_52
   11  A    between atoms: C_18  and  N_26
   12  A    between atoms: O_25  and  C_39
   13  A    between atoms: C_28  and  C_43
   14  A    between atoms: C_28  and  C_50
   15  A    between atoms: C_32  and  C_44
   16  A    between atoms: C_44  and  C_52
                            x       y       z     vdW  Elec       q    Type
                         _______ _______ _______ _____ _____    ______ ____

>  <TORSDO>
F 16

$$$$
=
 OpenBabel11032421193D

 52 58  0  0  1  0  0  0  0  0999 V2000
  189.9610  177.4950  139.6740 C   0  0  0  0  0  0  0  0  0  0  0  0
  189.9310  177.1300  138.3460 C   0  0  0  0  0  0  0  0  0  0  0  0
  191.0120  176.2930  138.1830 C   0  0  0  0  0  0  0  0  0  0  0  0
  191.0540  176.8760  140.2550 C   0  0  0  0  0  3  0  0  0  0  0  0
  191.6560  176.1640  139.3240 O   0  0  0  0  0  0  0  0  0  0  0  0
  188.2720  178.0150  141.5070 C   0  0  0  0  0  0  0  0  0  0  0  0
  188.4230  176.9040  142.0790 O   0  0  0  0  0  0  0  0  0  0  0  0
  189.0050  178.3430  140.3200 N   0  0  0  0  0  2  0  0  0  0  0  0
  187.3330  179.0170  142.0860 C   0  0  0  0  0  2  0  0  0  0  0  0
  185.9860  178.6550  140.1900 O   0  0  0  0  0  0  0  0  0  0  0  0
  186.0240  178.9700  141.3700 C   0  0  0  0  0  0  0  0  0  0  0  0
  183.6220  178.6690  141.4540 N   0  0  0  0  0  0  0  0  0  0  0  0
  182.3250  179.1420  143.4350 C   0  0  0  0  0  2  0  0  0  0  0  0
  181.3180  177.9760  141.3500 C   0  0  0  0  0  1  0  0  0  0  0  0
  182.4710  178.6280  142.0320 C   0  0  0  0  0  0  0  0  0  0  0  0
  184.7630  179.2720  142.1160 C   0  0  1  0  0  3  0  0  0  0  0  0
  184.8680  178.8140  143.5830 C   0  0  0  0  0  2  0  0  0  0  0  0
  183.5000  178.6370  144.2750 C   0  0  0  0  0  2  0  0  0  0  0  0
  188.7420  178.9980  137.2280 C   0  0  0  0  0  1  0  0  0  0  0  0
  188.9160  177.4930  137.3020 C   0  0  2  0  0  3  0  0  0  0  0  0
  187.5740  176.8300  137.5790 C   0  0  0  0  0  2  0  0  0  0  0  0
  180.6710  174.9760  136.9930 C   0  0  0  0  0  3  0  0  0  0  0  0
  179.4430  176.9450  137.7050 C   0  0  0  0  0  3  0  0  0  0  0  0
  186.1860  175.8510  135.6670 C   0  0  2  0  0  3  0  0  0  0  0  0
  186.5660  177.1290  136.4680 C   0  0  1  0  0  3  0  0  0  0  0  0
  184.6750  173.8580  135.8330 N   0  0  0  0  0  2  0  0  0  0  0  0
  181.8620  177.0060  137.6330 C   0  0  0  0  0  0  0  0  0  0  0  0
  183.4250  173.9220  136.0790 N   0  0  0  0  0  0  0  0  0  0  0  0
  185.4140  174.8830  136.5720 C   0  0  2  0  0  3  0  0  0  0  0  0
  185.3640  177.7680  137.0370 N   0  0  0  0  0  0  0  0  0  0  0  0
  181.8740  175.6630  137.1830 C   0  0  0  0  0  0  0  0  0  0  0  0
  180.6430  177.6390  137.8910 C   0  0  0  0  0  3  0  0  0  0  0  0
  184.3340  177.0810  137.4410 C   0  0  0  0  0  0  0  0  0  0  0  0
  183.1780  175.0160  136.9480 C   0  0  0  0  0  0  0  0  0  0  0  0
  184.3080  175.6330  137.2090 C   0  0  1  0  0  3  0  0  0  0  0  0
  179.4570  175.6190  137.2550 C   0  0  0  0  0  3  0  0  0  0  0  0
  187.4080  175.1810  135.0630 C   0  0  0  0  0  1  0  0  0  0  0  0
  183.0980  177.7340  137.7590 N   0  0  0  0  0  2  0  0  0  0  0  0
  191.3940  175.5990  136.9160 C   0  0  2  0  0  3  0  0  0  0  0  0
  190.5120  173.4000  135.9320 C   0  0  0  0  0  2  0  0  0  0  0  0
  189.7600  173.7090  137.2140 C   0  0  0  0  0  2  0  0  0  0  0  0
  191.2270  174.0780  137.0900 C   0  0  0  0  0  3  0  0  0  0  0  0
  192.7370  176.0050  136.5060 N   0  0  0  0  0  2  0  0  0  0  0  0
  193.6230  174.8710  136.7320 C   0  0  2  0  0  3  0  0  0  0  0  0
  195.8900  174.9560  137.5480 O   0  0  0  0  0  1  0  0  0  0  0  0
  194.5540  175.1260  137.9160 C   0  0  0  0  0  2  0  0  0  0  0  0
  194.3880  174.5190  135.4620 C   0  0  0  0  0  2  0  0  0  0  0  0
  194.0170  173.2600  134.9850 O   0  0  0  0  0  0  0  0  0  0  0  0
  195.1750  172.4900  135.0910 C   0  0  0  0  0  2  0  0  0  0  0  0
  194.6320  170.0880  135.6380 N   0  0  0  0  0  1  0  0  0  0  0  0
  195.0400  171.6470  137.3130 O   0  0  0  0  0  0  0  0  0  0  0  0
  194.9590  171.4010  136.0820 C   0  0  0  0  0  0  0  0  0  0  0  0
  1  4  2  0  0  0  0
  1  8  1  0  0  0  0
  2  1  1  0  0  0  0
  3  2  2  0  0  0  0
  3  5  1  0  0  0  0
  5  4  1  0  0  0  0
  6  7  2  0  0  0  0
  6  9  1  0  0  0  0
  8  6  1  0  0  0  0
 10 11  2  0  0  0  0
 11  9  1  0  0  0  0
 12 15  2  0  0  0  0
 12 16  1  0  0  0  0
 13 18  1  0  0  0  0
 14 15  1  0  0  0  0
 15 13  1  0  0  0  0
 16 11  1  6  0  0  0
 16 17  1  0  0  0  0
 17 18  1  0  0  0  0
 20 19  1  1  0  0  0
 20 21  1  0  0  0  0
 20  2  1  0  0  0  0
 22 31  2  0  0  0  0
 22 36  1  0  0  0  0
 23 32  1  0  0  0  0
 24 37  1  1  0  0  0
 24 25  1  0  0  0  0
 24 29  1  0  0  0  0
 25 30  1  0  0  0  0
 25 21  1  1  0  0  0
 26 28  1  0  0  0  0
 27 38  1  0  0  0  0
 27 32  2  0  0  0  0
 28 34  2  0  0  0  0
 29 26  1  6  0  0  0
 29 35  1  0  0  0  0
 30 33  2  0  0  0  0
 31 27  1  0  0  0  0
 33 38  1  0  0  0  0
 34 31  1  0  0  0  0
 35 34  1  6  0  0  0
 35 33  1  0  0  0  0
 36 23  2  0  0  0  0
 39 43  1  1  0  0  0
 39 42  1  0  0  0  0
 39  3  1  0  0  0  0
 40 42  1  0  0  0  0
 40 41  1  0  0  0  0
 42 41  1  0  0  0  0
 43 44  1  0  0  0  0
 44 47  1  6  0  0  0
 44 46  1  0  0  0  0
 45 46  1  0  0  0  0
 48 49  1  0  0  0  0
 48 47  1  0  0  0  0
 49 52  1  0  0  0  0
 50 52  1  0  0  0  0
 52 51  2  0  0  0  0
M  END
>  <MODEL>
7

>  <REMARK>
 VINA RESULT:      -6.4      2.931     10.276
  Name = 
  16 active torsions:
  status: ('A' for Active; 'I' for Inactive)
    1  A    between atoms: C_2  and  N_12
    2  A    between atoms: C_2  and  C_39
    3  A    between atoms: C_2  and  C_42
    4  A    between atoms: C_3  and  O_25
    5  A    between atoms: C_3  and  C_41
    6  A    between atoms: C_5  and  C_6
    7  A    between atoms: C_5  and  C_35
    8  A    between atoms: C_6  and  C_15
    9  A    between atoms: N_12  and  C_28
   10  A    between atoms: C_14  and  C_52
   11  A    between atoms: C_18  and  N_26
   12  A    between atoms: O_25  and  C_39
   13  A    between atoms: C_28  and  C_43
   14  A    between atoms: C_28  and  C_50
   15  A    between atoms: C_32  and  C_44
   16  A    between atoms: C_44  and  C_52
                            x       y       z     vdW  Elec       q    Type
                         _______ _______ _______ _____ _____    ______ ____

>  <TORSDO>
F 16

$$$$
=
 OpenBabel11032421193D

 52 58  0  0  1  0  0  0  0  0999 V2000
  183.8870  177.2730  135.6460 C   0  0  0  0  0  0  0  0  0  0  0  0
  184.6260  176.9790  136.7710 C   0  0  0  0  0  0  0  0  0  0  0  0
  185.9360  176.9860  136.3480 C   0  0  0  0  0  0  0  0  0  0  0  0
  184.7720  177.4370  134.5940 C   0  0  0  0  0  3  0  0  0  0  0  0
  185.9910  177.2560  135.0610 O   0  0  0  0  0  0  0  0  0  0  0  0
  181.5360  176.3510  135.3250 C   0  0  0  0  0  0  0  0  0  0  0  0
  181.9360  175.1840  135.0770 O   0  0  0  0  0  0  0  0  0  0  0  0
  182.4630  177.4070  135.6040 N   0  0  0  0  0  2  0  0  0  0  0  0
  180.0740  176.6350  135.3520 C   0  0  0  0  0  2  0  0  0  0  0  0
  179.5730  178.2820  136.9570 O   0  0  0  0  0  0  0  0  0  0  0  0
  179.6620  177.0880  136.7140 C   0  0  0  0  0  0  0  0  0  0  0  0
  179.8080  174.7620  137.3710 N   0  0  0  0  0  0  0  0  0  0  0  0
  179.3730  174.0230  139.6280 C   0  0  0  0  0  2  0  0  0  0  0  0
  180.3390  172.4530  137.8060 C   0  0  0  0  0  1  0  0  0  0  0  0
  179.8080  173.7850  138.2110 C   0  0  0  0  0  0  0  0  0  0  0  0
  179.3240  176.0730  137.7590 C   0  0  1  0  0  3  0  0  0  0  0  0
  179.8770  176.4920  139.1340 C   0  0  0  0  0  2  0  0  0  0  0  0
  180.0050  175.3220  140.1320 C   0  0  0  0  0  2  0  0  0  0  0  0
  183.6400  175.3430  138.3540 C   0  0  0  0  0  1  0  0  0  0  0  0
  184.1410  176.7630  138.1740 C   0  0  2  0  0  3  0  0  0  0  0  0
  183.0410  177.7500  138.5380 C   0  0  0  0  0  2  0  0  0  0  0  0
  184.0490  178.8350  145.5550 C   0  0  0  0  0  3  0  0  0  0  0  0
  186.4050  178.3740  145.9160 C   0  0  0  0  0  3  0  0  0  0  0  0
  182.5130  179.7090  140.0950 C   0  0  2  0  0  3  0  0  0  0  0  0
  183.6060  178.9670  139.2750 C   0  0  1  0  0  3  0  0  0  0  0  0
  181.3160  179.5450  142.2910 N   0  0  0  0  0  2  0  0  0  0  0  0
  185.4880  178.2300  143.6800 C   0  0  0  0  0  0  0  0  0  0  0  0
  181.8980  179.4190  143.4200 N   0  0  0  0  0  0  0  0  0  0  0  0
  182.0290  178.8140  141.2420 C   0  0  2  0  0  3  0  0  0  0  0  0
  184.7240  178.5540  140.1440 N   0  0  0  0  0  0  0  0  0  0  0  0
  184.2140  178.5830  144.1890 C   0  0  0  0  0  0  0  0  0  0  0  0
  186.5770  178.1280  144.5500 C   0  0  0  0  0  3  0  0  0  0  0  0
  184.5490  178.2000  141.3850 C   0  0  0  0  0  0  0  0  0  0  0  0
  183.0800  178.6530  143.2490 C   0  0  0  0  0  0  0  0  0  0  0  0
  183.2180  178.3340  141.9830 C   0  0  1  0  0  3  0  0  0  0  0  0
  185.1460  178.7290  146.4160 C   0  0  0  0  0  3  0  0  0  0  0  0
  181.3540  180.1520  139.2190 C   0  0  0  0  0  1  0  0  0  0  0  0
  185.6700  178.0420  142.2650 N   0  0  0  0  0  2  0  0  0  0  0  0
  187.1330  176.7550  137.2130 C   0  0  2  0  0  3  0  0  0  0  0  0
  188.0140  179.1630  137.1350 C   0  0  0  0  0  2  0  0  0  0  0  0
  188.9490  178.3180  137.9800 C   0  0  0  0  0  2  0  0  0  0  0  0
  187.4580  178.0400  137.9970 C   0  0  0  0  0  3  0  0  0  0  0  0
  188.2460  176.2540  136.4080 N   0  0  0  0  0  2  0  0  0  0  0  0
  188.4100  174.8420  136.7220 C   0  0  2  0  0  3  0  0  0  0  0  0
  190.6350  174.1320  136.1240 O   0  0  0  0  0  1  0  0  0  0  0  0
  189.8330  174.5420  137.1910 C   0  0  0  0  0  2  0  0  0  0  0  0
  187.9970  173.9720  135.5410 C   0  0  0  0  0  2  0  0  0  0  0  0
  187.7520  172.6590  135.9450 O   0  0  0  0  0  0  0  0  0  0  0  0
  186.7990  172.7740  136.9560 C   0  0  0  0  0  2  0  0  0  0  0  0
  185.4360  171.5310  135.2350 N   0  0  0  0  0  1  0  0  0  0  0  0
  184.4700  172.3390  137.1890 O   0  0  0  0  0  0  0  0  0  0  0  0
  185.5060  172.2040  136.4890 C   0  0  0  0  0  0  0  0  0  0  0  0
  1  2  1  0  0  0  0
  2 20  1  0  0  0  0
  3  2  2  0  0  0  0
  3 39  1  0  0  0  0
  4  5  1  0  0  0  0
  4  1  2  0  0  0  0
  5  3  1  0  0  0  0
  6  9  1  0  0  0  0
  6  8  1  0  0  0  0
  7  6  2  0  0  0  0
  8  1  1  0  0  0  0
  9 11  1  0  0  0  0
 11 10  2  0  0  0  0
 12 16  1  0  0  0  0
 12 15  2  0  0  0  0
 13 18  1  0  0  0  0
 14 15  1  0  0  0  0
 15 13  1  0  0  0  0
 16 11  1  6  0  0  0
 16 17  1  0  0  0  0
 17 18  1  0  0  0  0
 20 19  1  6  0  0  0
 20 21  1  0  0  0  0
 22 36  1  0  0  0  0
 23 36  2  0  0  0  0
 24 37  1  6  0  0  0
 24 29  1  0  0  0  0
 25 21  1  1  0  0  0
 25 24  1  0  0  0  0
 25 30  1  0  0  0  0
 26 28  1  0  0  0  0
 27 31  1  0  0  0  0
 27 32  2  0  0  0  0
 29 35  1  0  0  0  0
 29 26  1  1  0  0  0
 30 33  2  0  0  0  0
 31 22  2  0  0  0  0
 32 23  1  0  0  0  0
 33 38  1  0  0  0  0
 34 28  2  0  0  0  0
 34 31  1  0  0  0  0
 35 33  1  6  0  0  0
 35 34  1  0  0  0  0
 38 27  1  0  0  0  0
 39 43  1  6  0  0  0
 39 42  1  0  0  0  0
 40 41  1  0  0  0  0
 40 42  1  0  0  0  0
 41 42  1  0  0  0  0
 43 44  1  0  0  0  0
 44 47  1  6  0  0  0
 44 46  1  0  0  0  0
 45 46  1  0  0  0  0
 47 48  1  0  0  0  0
 48 49  1  0  0  0  0
 50 52  1  0  0  0  0
 52 49  1  0  0  0  0
 52 51  2  0  0  0  0
M  END
>  <MODEL>
8

>  <REMARK>
 VINA RESULT:      -6.2      3.476      8.643
  Name = 
  16 active torsions:
  status: ('A' for Active; 'I' for Inactive)
    1  A    between atoms: C_2  and  N_12
    2  A    between atoms: C_2  and  C_39
    3  A    between atoms: C_2  and  C_42
    4  A    between atoms: C_3  and  O_25
    5  A    between atoms: C_3  and  C_41
    6  A    between atoms: C_5  and  C_6
    7  A    between atoms: C_5  and  C_35
    8  A    between atoms: C_6  and  C_15
    9  A    between atoms: N_12  and  C_28
   10  A    between atoms: C_14  and  C_52
   11  A    between atoms: C_18  and  N_26
   12  A    between atoms: O_25  and  C_39
   13  A    between atoms: C_28  and  C_43
   14  A    between atoms: C_28  and  C_50
   15  A    between atoms: C_32  and  C_44
   16  A    between atoms: C_44  and  C_52
                            x       y       z     vdW  Elec       q    Type
                         _______ _______ _______ _____ _____    ______ ____

>  <TORSDO>
F 16

$$$$
=
 OpenBabel11032421193D

 52 58  0  0  1  0  0  0  0  0999 V2000
  185.8600  178.7230  139.8890 C   0  0  0  0  0  0  0  0  0  0  0  0
  187.1280  178.2690  139.5940 C   0  0  0  0  0  0  0  0  0  0  0  0
  187.8010  178.2890  140.7950 C   0  0  0  0  0  0  0  0  0  0  0  0
  185.8200  179.0030  141.2430 C   0  0  0  0  0  3  0  0  0  0  0  0
  187.0060  178.7280  141.7480 O   0  0  0  0  0  0  0  0  0  0  0  0
  183.6000  178.0460  138.9350 C   0  0  0  0  0  0  0  0  0  0  0  0
  183.4190  177.1340  139.7840 O   0  0  0  0  0  0  0  0  0  0  0  0
  184.7870  178.8460  138.9490 N   0  0  0  0  0  2  0  0  0  0  0  0
  182.5490  178.3150  137.9130 C   0  0  0  0  0  2  0  0  0  0  0  0
  181.5030  179.5840  139.5980 O   0  0  0  0  0  0  0  0  0  0  0  0
  181.6170  179.3770  138.3990 C   0  0  0  0  0  0  0  0  0  0  0  0
  181.1790  181.6100  137.5730 N   0  0  0  0  0  0  0  0  0  0  0  0
  180.0910  182.0200  135.4570 C   0  0  0  0  0  2  0  0  0  0  0  0
  181.1640  183.9120  136.8650 C   0  0  0  0  0  1  0  0  0  0  0  0
  180.8020  182.4770  136.6970 C   0  0  0  0  0  0  0  0  0  0  0  0
  180.8610  180.2050  137.4090 C   0  0  1  0  0  3  0  0  0  0  0  0
  181.1360  179.7310  135.9700 C   0  0  0  0  0  2  0  0  0  0  0  0
  180.8090  180.7890  134.8970 C   0  0  0  0  0  2  0  0  0  0  0  0
  187.1150  178.6270  137.1400 C   0  0  0  0  0  1  0  0  0  0  0  0
  187.6630  177.7870  138.2780 C   0  0  2  0  0  3  0  0  0  0  0  0
  187.3280  176.3210  138.0470 C   0  0  0  0  0  2  0  0  0  0  0  0
  183.6240  170.6470  135.6960 C   0  0  0  0  0  3  0  0  0  0  0  0
  181.3110  171.1610  136.2220 C   0  0  0  0  0  3  0  0  0  0  0  0
  187.2310  175.1100  135.7960 C   0  0  2  0  0  3  0  0  0  0  0  0
  186.5410  176.1280  136.7470 C   0  0  1  0  0  3  0  0  0  0  0  0
  187.4470  172.6350  135.4610 N   0  0  0  0  0  2  0  0  0  0  0  0
  183.0410  172.7740  136.7370 C   0  0  0  0  0  0  0  0  0  0  0  0
  186.4600  171.8290  135.4020 N   0  0  0  0  0  0  0  0  0  0  0  0
  187.1970  173.7100  136.4220 C   0  0  2  0  0  3  0  0  0  0  0  0
  185.1600  175.7080  137.0530 N   0  0  0  0  0  0  0  0  0  0  0  0
  184.0130  171.8860  136.2150 C   0  0  0  0  0  0  0  0  0  0  0  0
  181.6930  172.4050  136.7360 C   0  0  0  0  0  3  0  0  0  0  0  0
  184.8180  174.4560  137.1500 C   0  0  0  0  0  0  0  0  0  0  0  0
  185.4290  172.2950  136.2580 C   0  0  0  0  0  0  0  0  0  0  0  0
  185.8020  173.4200  136.8230 C   0  0  1  0  0  3  0  0  0  0  0  0
  182.2730  170.2870  135.7000 C   0  0  0  0  0  3  0  0  0  0  0  0
  188.6530  175.5260  135.4600 C   0  0  0  0  0  1  0  0  0  0  0  0
  183.4350  174.0780  137.2050 N   0  0  0  0  0  2  0  0  0  0  0  0
  189.2130  177.8490  141.0110 C   0  0  2  0  0  3  0  0  0  0  0  0
  190.5590  176.2910  139.4810 C   0  0  0  0  0  2  0  0  0  0  0  0
  191.4050  177.5040  139.8250 C   0  0  0  0  0  2  0  0  0  0  0  0
  189.9050  177.6540  139.6490 C   0  0  0  0  0  3  0  0  0  0  0  0
  189.2450  176.6650  141.8680 N   0  0  0  0  0  2  0  0  0  0  0  0
  189.7020  177.0930  143.1830 C   0  0  2  0  0  3  0  0  0  0  0  0
  192.0560  177.5170  143.4900 O   0  0  0  0  0  1  0  0  0  0  0  0
  191.0810  176.5180  143.5020 C   0  0  0  0  0  2  0  0  0  0  0  0
  188.6720  176.7480  144.2530 C   0  0  0  0  0  2  0  0  0  0  0  0
  188.1020  177.9030  144.7920 O   0  0  0  0  0  0  0  0  0  0  0  0
  186.8240  177.5110  145.1890 C   0  0  0  0  0  2  0  0  0  0  0  0
  185.3790  179.2170  146.3560 N   0  0  0  0  0  1  0  0  0  0  0  0
  187.0480  178.0660  147.4930 O   0  0  0  0  0  0  0  0  0  0  0  0
  186.4310  178.2600  146.4140 C   0  0  0  0  0  0  0  0  0  0  0  0
  1  4  2  0  0  0  0
  2  1  1  0  0  0  0
  2  3  2  0  0  0  0
  3 39  1  0  0  0  0
  3  5  1  0  0  0  0
  4  5  1  0  0  0  0
  6  8  1  0  0  0  0
  6  7  2  0  0  0  0
  8  1  1  0  0  0  0
  9 11  1  0  0  0  0
  9  6  1  0  0  0  0
 11 10  2  0  0  0  0
 13 15  1  0  0  0  0
 15 14  1  0  0  0  0
 15 12  2  0  0  0  0
 16 12  1  0  0  0  0
 16 11  1  1  0  0  0
 17 16  1  0  0  0  0
 18 13  1  0  0  0  0
 18 17  1  0  0  0  0
 20 19  1  6  0  0  0
 20  2  1  0  0  0  0
 21 20  1  0  0  0  0
 22 36  2  0  0  0  0
 22 31  1  0  0  0  0
 23 32  2  0  0  0  0
 24 37  1  1  0  0  0
 24 29  1  0  0  0  0
 24 25  1  0  0  0  0
 25 30  1  0  0  0  0
 25 21  1  1  0  0  0
 27 38  1  0  0  0  0
 28 26  1  0  0  0  0
 28 34  2  0  0  0  0
 29 26  1  6  0  0  0
 29 35  1  0  0  0  0
 30 33  2  0  0  0  0
 31 34  1  0  0  0  0
 31 27  2  0  0  0  0
 32 27  1  0  0  0  0
 33 38  1  0  0  0  0
 35 34  1  6  0  0  0
 35 33  1  0  0  0  0
 36 23  1  0  0  0  0
 39 43  1  6  0  0  0
 40 42  1  0  0  0  0
 40 41  1  0  0  0  0
 42 41  1  0  0  0  0
 42 39  1  0  0  0  0
 43 44  1  0  0  0  0
 44 46  1  1  0  0  0
 44 47  1  0  0  0  0
 45 46  1  0  0  0  0
 47 48  1  0  0  0  0
 48 49  1  0  0  0  0
 49 52  1  0  0  0  0
 50 52  1  0  0  0  0
 52 51  2  0  0  0  0
M  END
>  <MODEL>
9

>  <REMARK>
 VINA RESULT:      -6.2      3.362     10.393
  Name = 
  16 active torsions:
  status: ('A' for Active; 'I' for Inactive)
    1  A    between atoms: C_2  and  N_12
    2  A    between atoms: C_2  and  C_39
    3  A    between atoms: C_2  and  C_42
    4  A    between atoms: C_3  and  O_25
    5  A    between atoms: C_3  and  C_41
    6  A    between atoms: C_5  and  C_6
    7  A    between atoms: C_5  and  C_35
    8  A    between atoms: C_6  and  C_15
    9  A    between atoms: N_12  and  C_28
   10  A    between atoms: C_14  and  C_52
   11  A    between atoms: C_18  and  N_26
   12  A    between atoms: O_25  and  C_39
   13  A    between atoms: C_28  and  C_43
   14  A    between atoms: C_28  and  C_50
   15  A    between atoms: C_32  and  C_44
   16  A    between atoms: C_44  and  C_52
                            x       y       z     vdW  Elec       q    Type
                         _______ _______ _______ _____ _____    ______ ____

>  <TORSDO>
F 16

$$$$
