=
 OpenBabel11042411593D

 28 29  0  0  1  0  0  0  0  0999 V2000
  190.6150  178.3860  144.1250 C   0  0  1  0  0  3  0  0  0  0  0  0
  189.1510  178.2440  144.4490 C   0  0  0  0  0  3  0  0  0  0  0  0
  191.0300  176.6520  145.8880 C   0  0  2  0  0  3  0  0  0  0  0  0
  191.5210  177.9630  145.2840 C   0  0  0  0  0  2  0  0  0  0  0  0
  189.6190  176.8350  146.4420 C   0  0  0  0  0  2  0  0  0  0  0  0
  188.6860  177.4860  145.4560 C   0  0  0  0  0  0  0  0  0  0  0  0
  192.6030  175.1270  146.8150 O   0  0  0  0  0  0  0  0  0  0  0  0
  192.1360  176.9580  148.1120 O   0  0  0  0  0  1  0  0  0  0  0  0
  191.9580  176.1980  146.9620 C   0  0  0  0  0  0  0  0  0  0  0  0
  192.1000  177.6440  142.4340 O   0  0  0  0  0  0  0  0  0  0  0  0
  190.9570  177.6410  142.8690 C   0  0  0  0  0  0  0  0  0  0  0  0
  190.0770  175.5160  142.2820 O   0  0  0  0  0  1  0  0  0  0  0  0
  189.8790  176.8920  142.1500 C   0  0  2  0  0  3  0  0  0  0  0  0
  188.7420  179.1020  137.9550 N   0  0  0  0  0  1  0  0  0  0  0  0
  189.3280  178.2090  138.8930 C   0  0  0  0  0  0  0  0  0  0  0  0
  190.1430  177.2000  138.5290 N   0  0  0  0  0  0  0  0  0  0  0  0
  190.4690  176.5960  139.6880 C   0  0  0  0  0  2  0  0  0  0  0  0
  189.8370  177.2770  140.7070 C   0  0  0  0  0  0  0  0  0  0  0  0
  189.1030  178.2930  140.2170 N   0  0  0  0  0  0  0  0  0  0  0  0
  187.2790  177.3830  145.6930 N   0  0  0  0  0  2  0  0  0  0  0  0
  186.2620  177.6760  144.6890 C   0  0  0  0  0  2  0  0  0  0  0  0
  185.3790  178.8360  145.1450 C   0  0  2  0  0  3  0  0  0  0  0  0
  184.7220  178.5290  146.4800 C   0  0  0  0  0  1  0  0  0  0  0  0
  184.3120  179.1850  144.1040 C   0  0  2  0  0  3  0  0  0  0  0  0
  182.1980  179.0650  143.4490 C   0  0  0  0  0  1  0  0  0  0  0  0
  183.0650  178.6690  144.4700 O   0  0  0  0  0  0  0  0  0  0  0  0
  185.3920  179.6520  142.0210 O   0  0  0  0  0  1  0  0  0  0  0  0
  184.6990  178.6670  142.7250 C   0  0  0  0  0  2  0  0  0  0  0  0
  1 11  1  6  0  0  0
  1  2  1  0  0  0  0
  1  4  1  0  0  0  0
  2  6  2  0  0  0  0
  3  5  1  0  0  0  0
  3  9  1  1  0  0  0
  4  3  1  0  0  0  0
  6 20  1  0  0  0  0
  6  5  1  0  0  0  0
  7  9  2  0  0  0  0
  9  8  1  0  0  0  0
 10 11  2  0  0  0  0
 13 12  1  6  0  0  0
 13 11  1  0  0  0  0
 14 15  1  0  0  0  0
 15 19  1  0  0  0  0
 16 15  2  0  0  0  0
 16 17  1  0  0  0  0
 17 18  1  0  0  0  0
 18 13  1  0  0  0  0
 19 18  2  0  0  0  0
 21 22  1  0  0  0  0
 21 20  1  0  0  0  0
 22 23  1  1  0  0  0
 24 28  1  6  0  0  0
 24 26  1  0  0  0  0
 24 22  1  0  0  0  0
 25 26  1  0  0  0  0
 27 28  1  0  0  0  0
M  END
>  <MODEL>
1

>  <REMARK>
 VINA RESULT:      -7.9      0.000      0.000
  Name = 
  10 active torsions:
  status: ('A' for Active; 'I' for Inactive)
    1  A    between atoms: C_1  and  C_13
    2  A    between atoms: C_4  and  C_11
    3  A    between atoms: C_4  and  O_25
    4  A    between atoms: C_4  and  C_28
    5  A    between atoms: C_11  and  C_24
    6  A    between atoms: C_13  and  C_23
    7  A    between atoms: C_14  and  C_26
    8  A    between atoms: N_15  and  C_22
    9  A    between atoms: N_15  and  C_24
   10  A    between atoms: C_17  and  C_23
                            x       y       z     vdW  Elec       q    Type
                         _______ _______ _______ _____ _____    ______ ____

>  <TORSDO>
F 10

$$$$
=
 OpenBabel11042411593D

 28 29  0  0  1  0  0  0  0  0999 V2000
  189.6060  176.6470  142.3220 C   0  0  1  0  0  3  0  0  0  0  0  0
  188.2910  177.0820  142.9150 C   0  0  0  0  0  3  0  0  0  0  0  0
  189.0730  178.1570  140.3920 C   0  0  2  0  0  3  0  0  0  0  0  0
  189.6480  176.8050  140.7990 C   0  0  0  0  0  2  0  0  0  0  0  0
  187.6130  178.2520  140.8300 C   0  0  0  0  0  2  0  0  0  0  0  0
  187.4120  177.8690  142.2710 C   0  0  0  0  0  0  0  0  0  0  0  0
  188.9580  179.4740  138.4140 O   0  0  0  0  0  1  0  0  0  0  0  0
  189.5760  177.2910  138.0980 O   0  0  0  0  0  0  0  0  0  0  0  0
  189.1900  178.3450  138.9180 C   0  0  0  0  0  0  0  0  0  0  0  0
  191.8970  177.1920  142.5880 O   0  0  0  0  0  0  0  0  0  0  0  0
  190.7490  177.3670  142.9730 C   0  0  0  0  0  0  0  0  0  0  0  0
  191.2860  179.4300  144.0150 O   0  0  0  0  0  1  0  0  0  0  0  0
  190.4680  178.3030  144.1070 C   0  0  2  0  0  3  0  0  0  0  0  0
  192.4800  175.9180  147.8540 N   0  0  0  0  0  1  0  0  0  0  0  0
  191.5240  176.5680  147.0260 C   0  0  0  0  0  0  0  0  0  0  0  0
  190.2160  176.6440  147.3410 N   0  0  0  0  0  0  0  0  0  0  0  0
  189.6620  177.3140  146.3140 C   0  0  0  0  0  2  0  0  0  0  0  0
  190.6670  177.6200  145.4210 C   0  0  0  0  0  0  0  0  0  0  0  0
  191.8480  177.1430  145.8540 N   0  0  0  0  0  0  0  0  0  0  0  0
  186.1910  178.2580  142.9060 N   0  0  0  0  0  2  0  0  0  0  0  0
  185.1740  179.0890  142.2720 C   0  0  0  0  0  2  0  0  0  0  0  0
  183.8490  178.3350  142.1780 C   0  0  2  0  0  3  0  0  0  0  0  0
  183.1790  178.5750  140.8360 C   0  0  0  0  0  1  0  0  0  0  0  0
  182.8960  178.7120  143.3150 C   0  0  2  0  0  3  0  0  0  0  0  0
  180.7030  178.7580  143.6350 C   0  0  0  0  0  1  0  0  0  0  0  0
  181.7120  179.2670  142.8150 O   0  0  0  0  0  0  0  0  0  0  0  0
  183.6850  179.0950  145.5400 O   0  0  0  0  0  1  0  0  0  0  0  0
  183.5520  179.6870  144.2830 C   0  0  0  0  0  2  0  0  0  0  0  0
  1  2  1  0  0  0  0
  1 11  1  1  0  0  0
  3  9  1  6  0  0  0
  3  4  1  0  0  0  0
  3  5  1  0  0  0  0
  4  1  1  0  0  0  0
  5  6  1  0  0  0  0
  6 20  1  0  0  0  0
  6  2  2  0  0  0  0
  7  9  1  0  0  0  0
  8  9  2  0  0  0  0
 10 11  2  0  0  0  0
 11 13  1  0  0  0  0
 13 12  1  1  0  0  0
 13 18  1  0  0  0  0
 15 16  2  0  0  0  0
 15 14  1  0  0  0  0
 17 16  1  0  0  0  0
 18 19  2  0  0  0  0
 18 17  1  0  0  0  0
 19 15  1  0  0  0  0
 21 20  1  0  0  0  0
 22 23  1  6  0  0  0
 22 21  1  0  0  0  0
 22 24  1  0  0  0  0
 24 28  1  1  0  0  0
 26 24  1  0  0  0  0
 26 25  1  0  0  0  0
 28 27  1  0  0  0  0
M  END
>  <MODEL>
2

>  <REMARK>
 VINA RESULT:      -7.3      2.621      5.710
  Name = 
  10 active torsions:
  status: ('A' for Active; 'I' for Inactive)
    1  A    between atoms: C_1  and  C_13
    2  A    between atoms: C_4  and  C_11
    3  A    between atoms: C_4  and  O_25
    4  A    between atoms: C_4  and  C_28
    5  A    between atoms: C_11  and  C_24
    6  A    between atoms: C_13  and  C_23
    7  A    between atoms: C_14  and  C_26
    8  A    between atoms: N_15  and  C_22
    9  A    between atoms: N_15  and  C_24
   10  A    between atoms: C_17  and  C_23
                            x       y       z     vdW  Elec       q    Type
                         _______ _______ _______ _____ _____    ______ ____

>  <TORSDO>
F 10

$$$$
=
 OpenBabel11042411593D

 28 29  0  0  1  0  0  0  0  0999 V2000
  189.2870  177.8790  143.5570 C   0  0  1  0  0  3  0  0  0  0  0  0
  187.7870  178.0180  143.5850 C   0  0  0  0  0  3  0  0  0  0  0  0
  189.1170  177.1030  145.9360 C   0  0  2  0  0  3  0  0  0  0  0  0
  189.9130  177.9540  144.9520 C   0  0  0  0  0  2  0  0  0  0  0  0
  187.6880  177.6310  146.0380 C   0  0  0  0  0  2  0  0  0  0  0  0
  187.0470  177.8380  144.6920 C   0  0  0  0  0  0  0  0  0  0  0  0
  190.8230  176.4410  147.4570 O   0  0  0  0  0  0  0  0  0  0  0  0
  189.2510  177.8690  148.3150 O   0  0  0  0  0  1  0  0  0  0  0  0
  189.7740  177.1110  147.2740 C   0  0  0  0  0  0  0  0  0  0  0  0
  189.0780  175.5790  143.0260 O   0  0  0  0  0  0  0  0  0  0  0  0
  189.6930  176.6210  142.8480 C   0  0  0  0  0  0  0  0  0  0  0  0
  191.8540  177.5030  142.4200 O   0  0  0  0  0  1  0  0  0  0  0  0
  190.8640  176.6560  141.9170 C   0  0  2  0  0  3  0  0  0  0  0  0
  188.4460  178.7680  138.2480 N   0  0  0  0  0  1  0  0  0  0  0  0
  189.3880  177.9820  138.9660 C   0  0  0  0  0  0  0  0  0  0  0  0
  190.3030  177.2020  138.3590 N   0  0  0  0  0  0  0  0  0  0  0  0
  190.9800  176.6280  139.3710 C   0  0  0  0  0  2  0  0  0  0  0  0
  190.4450  177.0960  140.5520 C   0  0  0  0  0  0  0  0  0  0  0  0
  189.4290  177.9440  140.3110 N   0  0  0  0  0  0  0  0  0  0  0  0
  185.6230  177.9680  144.6380 N   0  0  0  0  0  2  0  0  0  0  0  0
  184.9200  179.2430  144.7140 C   0  0  0  0  0  2  0  0  0  0  0  0
  183.8470  179.3280  143.6310 C   0  0  2  0  0  3  0  0  0  0  0  0
  182.5460  178.7020  144.1030 C   0  0  0  0  0  1  0  0  0  0  0  0
  184.3010  178.6700  142.3240 C   0  0  2  0  0  3  0  0  0  0  0  0
  185.8940  178.7580  140.7860 C   0  0  0  0  0  1  0  0  0  0  0  0
  185.0410  179.5640  141.5420 O   0  0  0  0  0  0  0  0  0  0  0  0
  182.6340  179.1480  140.6770 O   0  0  0  0  0  1  0  0  0  0  0  0
  183.1120  178.1510  141.5270 C   0  0  0  0  0  2  0  0  0  0  0  0
  1 11  1  1  0  0  0
  1  2  1  0  0  0  0
  1  4  1  0  0  0  0
  2  6  2  0  0  0  0
  3  5  1  0  0  0  0
  3  9  1  1  0  0  0
  4  3  1  0  0  0  0
  6  5  1  0  0  0  0
  9  7  2  0  0  0  0
  9  8  1  0  0  0  0
 11 10  2  0  0  0  0
 13 12  1  1  0  0  0
 13 11  1  0  0  0  0
 14 15  1  0  0  0  0
 15 19  1  0  0  0  0
 16 15  2  0  0  0  0
 16 17  1  0  0  0  0
 17 18  1  0  0  0  0
 18 13  1  0  0  0  0
 19 18  2  0  0  0  0
 20  6  1  0  0  0  0
 20 21  1  0  0  0  0
 22 23  1  1  0  0  0
 22 21  1  0  0  0  0
 24 28  1  6  0  0  0
 24 22  1  0  0  0  0
 25 26  1  0  0  0  0
 26 24  1  0  0  0  0
 27 28  1  0  0  0  0
M  END
>  <MODEL>
3

>  <REMARK>
 VINA RESULT:      -7.2      1.375      2.243
  Name = 
  10 active torsions:
  status: ('A' for Active; 'I' for Inactive)
    1  A    between atoms: C_1  and  C_13
    2  A    between atoms: C_4  and  C_11
    3  A    between atoms: C_4  and  O_25
    4  A    between atoms: C_4  and  C_28
    5  A    between atoms: C_11  and  C_24
    6  A    between atoms: C_13  and  C_23
    7  A    between atoms: C_14  and  C_26
    8  A    between atoms: N_15  and  C_22
    9  A    between atoms: N_15  and  C_24
   10  A    between atoms: C_17  and  C_23
                            x       y       z     vdW  Elec       q    Type
                         _______ _______ _______ _____ _____    ______ ____

>  <TORSDO>
F 10

$$$$
=
 OpenBabel11042411593D

 28 29  0  0  1  0  0  0  0  0999 V2000
  189.4970  176.7350  142.2530 C   0  0  1  0  0  3  0  0  0  0  0  0
  188.1820  177.2740  142.7510 C   0  0  0  0  0  3  0  0  0  0  0  0
  189.1710  178.1930  140.2390 C   0  0  2  0  0  3  0  0  0  0  0  0
  189.6350  176.8260  140.7310 C   0  0  0  0  0  2  0  0  0  0  0  0
  187.6980  178.3940  140.5860 C   0  0  0  0  0  2  0  0  0  0  0  0
  187.3920  178.0850  142.0270 C   0  0  0  0  0  0  0  0  0  0  0  0
  190.0240  177.4170  138.1570 O   0  0  0  0  0  1  0  0  0  0  0  0
  188.8580  179.3870  138.0610 O   0  0  0  0  0  0  0  0  0  0  0  0
  189.3830  178.3110  138.7680 C   0  0  0  0  0  0  0  0  0  0  0  0
  191.7960  177.2130  142.5770 O   0  0  0  0  0  0  0  0  0  0  0  0
  190.6460  177.4100  142.9430 C   0  0  0  0  0  0  0  0  0  0  0  0
  191.1790  179.4630  144.0080 O   0  0  0  0  0  1  0  0  0  0  0  0
  190.3660  178.3310  144.0900 C   0  0  2  0  0  3  0  0  0  0  0  0
  192.4330  176.0140  147.8490 N   0  0  0  0  0  1  0  0  0  0  0  0
  191.4570  176.6080  147.0030 C   0  0  0  0  0  0  0  0  0  0  0  0
  190.1380  176.5750  147.2740 N   0  0  0  0  0  0  0  0  0  0  0  0
  189.5670  177.2250  146.2430 C   0  0  0  0  0  2  0  0  0  0  0  0
  190.5740  177.6320  145.3940 C   0  0  0  0  0  0  0  0  0  0  0  0
  191.7740  177.2380  145.8570 N   0  0  0  0  0  0  0  0  0  0  0  0
  186.1640  178.5750  142.5730 N   0  0  0  0  0  2  0  0  0  0  0  0
  184.8690  177.9380  142.3630 C   0  0  0  0  0  2  0  0  0  0  0  0
  183.7720  178.9900  142.2180 C   0  0  2  0  0  3  0  0  0  0  0  0
  182.7580  178.8780  143.3430 C   0  0  0  0  0  1  0  0  0  0  0  0
  183.0650  178.8950  140.8630 C   0  0  2  0  0  3  0  0  0  0  0  0
  182.5270  177.0750  139.7180 C   0  0  0  0  0  1  0  0  0  0  0  0
  182.1650  177.8240  140.8400 O   0  0  0  0  0  0  0  0  0  0  0  0
  184.5430  180.0050  139.3440 O   0  0  0  0  0  1  0  0  0  0  0  0
  184.0690  178.7490  139.7270 C   0  0  0  0  0  2  0  0  0  0  0  0
  1  2  1  0  0  0  0
  1 11  1  1  0  0  0
  3  9  1  6  0  0  0
  3  5  1  0  0  0  0
  3  4  1  0  0  0  0
  4  1  1  0  0  0  0
  5  6  1  0  0  0  0
  6 20  1  0  0  0  0
  6  2  2  0  0  0  0
  7  9  1  0  0  0  0
  8  9  2  0  0  0  0
 10 11  2  0  0  0  0
 11 13  1  0  0  0  0
 13 12  1  1  0  0  0
 13 18  1  0  0  0  0
 15 16  2  0  0  0  0
 15 14  1  0  0  0  0
 17 16  1  0  0  0  0
 18 19  2  0  0  0  0
 18 17  1  0  0  0  0
 19 15  1  0  0  0  0
 21 20  1  0  0  0  0
 22 21  1  0  0  0  0
 22 23  1  1  0  0  0
 24 28  1  6  0  0  0
 24 22  1  0  0  0  0
 25 26  1  0  0  0  0
 26 24  1  0  0  0  0
 27 28  1  0  0  0  0
M  END
>  <MODEL>
4

>  <REMARK>
 VINA RESULT:      -7.2      2.736      5.743
  Name = 
  10 active torsions:
  status: ('A' for Active; 'I' for Inactive)
    1  A    between atoms: C_1  and  C_13
    2  A    between atoms: C_4  and  C_11
    3  A    between atoms: C_4  and  O_25
    4  A    between atoms: C_4  and  C_28
    5  A    between atoms: C_11  and  C_24
    6  A    between atoms: C_13  and  C_23
    7  A    between atoms: C_14  and  C_26
    8  A    between atoms: N_15  and  C_22
    9  A    between atoms: N_15  and  C_24
   10  A    between atoms: C_17  and  C_23
                            x       y       z     vdW  Elec       q    Type
                         _______ _______ _______ _____ _____    ______ ____

>  <TORSDO>
F 10

$$$$
=
 OpenBabel11042411593D

 28 29  0  0  1  0  0  0  0  0999 V2000
  185.6400  177.7440  142.7330 C   0  0  1  0  0  3  0  0  0  0  0  0
  187.1280  177.5140  142.7680 C   0  0  0  0  0  3  0  0  0  0  0  0
  185.8920  178.7950  144.9960 C   0  0  2  0  0  3  0  0  0  0  0  0
  185.0300  177.8820  144.1310 C   0  0  0  0  0  2  0  0  0  0  0  0
  187.2870  178.1940  145.1530 C   0  0  0  0  0  2  0  0  0  0  0  0
  187.8940  177.7810  143.8390 C   0  0  0  0  0  0  0  0  0  0  0  0
  184.1170  178.5090  146.5550 O   0  0  0  0  0  0  0  0  0  0  0  0
  185.9190  179.6920  147.3330 O   0  0  0  0  0  1  0  0  0  0  0  0
  185.2560  178.9950  146.3290 C   0  0  0  0  0  0  0  0  0  0  0  0
  185.6280  180.0570  142.2170 O   0  0  0  0  0  0  0  0  0  0  0  0
  185.3030  178.9280  141.8760 C   0  0  0  0  0  0  0  0  0  0  0  0
  184.7630  179.7900  139.7320 O   0  0  0  0  0  1  0  0  0  0  0  0
  184.5610  178.7120  140.5950 C   0  0  2  0  0  3  0  0  0  0  0  0
  180.1670  178.7290  142.7100 N   0  0  0  0  0  1  0  0  0  0  0  0
  181.2120  178.4990  141.7740 C   0  0  0  0  0  0  0  0  0  0  0  0
  181.0370  177.7880  140.6430 N   0  0  0  0  0  0  0  0  0  0  0  0
  182.2460  177.7930  140.0510 C   0  0  0  0  0  2  0  0  0  0  0  0
  183.1020  178.5180  140.8530 C   0  0  0  0  0  0  0  0  0  0  0  0
  182.4640  178.9600  141.9520 N   0  0  0  0  0  0  0  0  0  0  0  0
  189.3060  177.5560  143.7920 N   0  0  0  0  0  2  0  0  0  0  0  0
  190.2620  178.1990  144.6850 C   0  0  0  0  0  2  0  0  0  0  0  0
  191.2880  177.1870  145.1910 C   0  0  2  0  0  3  0  0  0  0  0  0
  191.5830  176.1370  144.1340 C   0  0  0  0  0  1  0  0  0  0  0  0
  190.8320  176.5120  146.4870 C   0  0  2  0  0  3  0  0  0  0  0  0
  189.0040  176.7060  147.7270 C   0  0  0  0  0  1  0  0  0  0  0  0
  190.1350  177.4090  147.3030 O   0  0  0  0  0  0  0  0  0  0  0  0
  192.4220  176.8230  148.2470 O   0  0  0  0  0  1  0  0  0  0  0  0
  192.0150  175.9340  147.2520 C   0  0  0  0  0  2  0  0  0  0  0  0
  1 11  1  6  0  0  0
  1  2  1  0  0  0  0
  1  4  1  0  0  0  0
  2  6  2  0  0  0  0
  3  5  1  0  0  0  0
  3  9  1  1  0  0  0
  4  3  1  0  0  0  0
  6  5  1  0  0  0  0
  9  7  2  0  0  0  0
  9  8  1  0  0  0  0
 11 10  2  0  0  0  0
 13 12  1  6  0  0  0
 13 18  1  0  0  0  0
 13 11  1  0  0  0  0
 15 19  1  0  0  0  0
 15 14  1  0  0  0  0
 16 15  2  0  0  0  0
 17 16  1  0  0  0  0
 17 18  1  0  0  0  0
 18 19  2  0  0  0  0
 20  6  1  0  0  0  0
 20 21  1  0  0  0  0
 21 22  1  0  0  0  0
 22 23  1  6  0  0  0
 22 24  1  0  0  0  0
 24 28  1  1  0  0  0
 24 26  1  0  0  0  0
 26 25  1  0  0  0  0
 28 27  1  0  0  0  0
M  END
>  <MODEL>
5

>  <REMARK>
 VINA RESULT:      -6.8      3.024      7.019
  Name = 
  10 active torsions:
  status: ('A' for Active; 'I' for Inactive)
    1  A    between atoms: C_1  and  C_13
    2  A    between atoms: C_4  and  C_11
    3  A    between atoms: C_4  and  O_25
    4  A    between atoms: C_4  and  C_28
    5  A    between atoms: C_11  and  C_24
    6  A    between atoms: C_13  and  C_23
    7  A    between atoms: C_14  and  C_26
    8  A    between atoms: N_15  and  C_22
    9  A    between atoms: N_15  and  C_24
   10  A    between atoms: C_17  and  C_23
                            x       y       z     vdW  Elec       q    Type
                         _______ _______ _______ _____ _____    ______ ____

>  <TORSDO>
F 10

$$$$
=
 OpenBabel11042411593D

 28 29  0  0  1  0  0  0  0  0999 V2000
  189.0730  177.9170  143.5890 C   0  0  1  0  0  3  0  0  0  0  0  0
  187.5700  178.0120  143.6390 C   0  0  0  0  0  3  0  0  0  0  0  0
  188.9640  177.1620  145.9770 C   0  0  2  0  0  3  0  0  0  0  0  0
  189.7180  178.0260  144.9730 C   0  0  0  0  0  2  0  0  0  0  0  0
  187.5210  177.6480  146.0970 C   0  0  0  0  0  2  0  0  0  0  0  0
  186.8530  177.8220  144.7600 C   0  0  0  0  0  0  0  0  0  0  0  0
  190.7080  176.5600  147.4800 O   0  0  0  0  0  0  0  0  0  0  0  0
  189.1180  177.9650  148.3440 O   0  0  0  0  0  1  0  0  0  0  0  0
  189.6410  177.2030  147.3050 C   0  0  0  0  0  0  0  0  0  0  0  0
  188.9290  175.6050  143.0900 O   0  0  0  0  0  0  0  0  0  0  0  0
  189.5040  176.6640  142.8860 C   0  0  0  0  0  0  0  0  0  0  0  0
  191.5100  177.7740  142.2710 O   0  0  0  0  0  1  0  0  0  0  0  0
  190.6540  176.7260  141.9290 C   0  0  2  0  0  3  0  0  0  0  0  0
  190.4460  176.8180  137.0580 N   0  0  0  0  0  1  0  0  0  0  0  0
  190.0830  176.9540  138.4260 C   0  0  0  0  0  0  0  0  0  0  0  0
  188.9060  177.4760  138.8220 N   0  0  0  0  0  0  0  0  0  0  0  0
  188.9560  177.4400  140.1660 C   0  0  0  0  0  3  0  0  0  0  0  0
  190.1670  176.8860  140.5250 C   0  0  0  0  0  0  0  0  0  0  0  0
  190.8950  176.5850  139.4340 N   0  0  0  0  0  2  0  0  0  0  0  0
  185.4260  177.9080  144.7270 N   0  0  0  0  0  2  0  0  0  0  0  0
  184.6920  179.0130  144.1210 C   0  0  0  0  0  2  0  0  0  0  0  0
  183.8820  178.5240  142.9220 C   0  0  2  0  0  3  0  0  0  0  0  0
  184.5500  178.9200  141.6160 C   0  0  0  0  0  1  0  0  0  0  0  0
  182.4430  179.0460  142.9540 C   0  0  2  0  0  3  0  0  0  0  0  0
  180.4820  178.5580  143.8660 C   0  0  0  0  0  1  0  0  0  0  0  0
  181.8300  178.7550  144.1770 O   0  0  0  0  0  0  0  0  0  0  0  0
  181.3600  179.4450  140.8590 O   0  0  0  0  0  1  0  0  0  0  0  0
  181.6200  178.4610  141.8140 C   0  0  0  0  0  2  0  0  0  0  0  0
  1 11  1  1  0  0  0
  1  2  1  0  0  0  0
  1  4  1  0  0  0  0
  2  6  2  0  0  0  0
  3  5  1  0  0  0  0
  3  9  1  1  0  0  0
  4  3  1  0  0  0  0
  6  5  1  0  0  0  0
  9  7  2  0  0  0  0
  9  8  1  0  0  0  0
 11 10  2  0  0  0  0
 13 12  1  1  0  0  0
 13 11  1  0  0  0  0
 14 15  1  0  0  0  0
 15 16  2  0  0  0  0
 15 19  1  0  0  0  0
 16 17  1  0  0  0  0
 17 18  2  0  0  0  0
 18 13  1  0  0  0  0
 19 18  1  0  0  0  0
 20  6  1  0  0  0  0
 21 20  1  0  0  0  0
 22 23  1  6  0  0  0
 22 24  1  0  0  0  0
 22 21  1  0  0  0  0
 24 28  1  6  0  0  0
 24 26  1  0  0  0  0
 25 26  1  0  0  0  0
 27 28  1  0  0  0  0
M  END
>  <MODEL>
6

>  <REMARK>
 VINA RESULT:      -6.7      1.640      2.484
  Name = 
  10 active torsions:
  status: ('A' for Active; 'I' for Inactive)
    1  A    between atoms: C_1  and  C_13
    2  A    between atoms: C_4  and  C_11
    3  A    between atoms: C_4  and  O_25
    4  A    between atoms: C_4  and  C_28
    5  A    between atoms: C_11  and  C_24
    6  A    between atoms: C_13  and  C_23
    7  A    between atoms: C_14  and  C_26
    8  A    between atoms: N_15  and  C_22
    9  A    between atoms: N_15  and  C_24
   10  A    between atoms: C_17  and  C_23
                            x       y       z     vdW  Elec       q    Type
                         _______ _______ _______ _____ _____    ______ ____

>  <TORSDO>
F 10

$$$$
=
 OpenBabel11042411593D

 28 29  0  0  1  0  0  0  0  0999 V2000
  183.8250  177.8650  140.7020 C   0  0  1  0  0  3  0  0  0  0  0  0
  184.6410  178.0250  141.9580 C   0  0  0  0  0  3  0  0  0  0  0  0
  182.0460  179.2020  141.8570 C   0  0  2  0  0  3  0  0  0  0  0  0
  182.3210  178.0060  140.9520 C   0  0  0  0  0  2  0  0  0  0  0  0
  182.7260  178.9960  143.2080 C   0  0  0  0  0  2  0  0  0  0  0  0
  184.1720  178.6010  143.0770 C   0  0  0  0  0  0  0  0  0  0  0  0
  179.8040  178.4050  141.9030 O   0  0  0  0  0  0  0  0  0  0  0  0
  180.0570  180.6350  142.3660 O   0  0  0  0  0  1  0  0  0  0  0  0
  180.5770  179.3890  142.0340 C   0  0  0  0  0  0  0  0  0  0  0  0
  184.3680  180.0160  139.8680 O   0  0  0  0  0  0  0  0  0  0  0  0
  184.2890  178.8170  139.6400 C   0  0  0  0  0  0  0  0  0  0  0  0
  184.0980  177.0130  138.1090 O   0  0  0  0  0  1  0  0  0  0  0  0
  184.6540  178.2810  138.2910 C   0  0  2  0  0  3  0  0  0  0  0  0
  189.4430  178.2830  139.2130 N   0  0  0  0  0  1  0  0  0  0  0  0
  188.2040  178.2560  138.5170 C   0  0  0  0  0  0  0  0  0  0  0  0
  188.1220  178.2470  137.1720 N   0  0  0  0  0  0  0  0  0  0  0  0
  186.8000  178.2330  136.9150 C   0  0  0  0  0  2  0  0  0  0  0  0
  186.1390  178.2280  138.1250 C   0  0  0  0  0  0  0  0  0  0  0  0
  187.0140  178.2540  139.1460 N   0  0  0  0  0  0  0  0  0  0  0  0
  185.0130  178.7360  144.2270 N   0  0  0  0  0  2  0  0  0  0  0  0
  186.2280  177.9580  144.4420 C   0  0  0  0  0  2  0  0  0  0  0  0
  186.4730  177.7480  145.9340 C   0  0  2  0  0  3  0  0  0  0  0  0
  185.6800  178.7460  146.7610 C   0  0  0  0  0  1  0  0  0  0  0  0
  187.9600  177.8390  146.2870 C   0  0  2  0  0  3  0  0  0  0  0  0
  189.7930  178.0280  145.0560 C   0  0  0  0  0  1  0  0  0  0  0  0
  188.7420  177.1570  145.3500 O   0  0  0  0  0  0  0  0  0  0  0  0
  188.8710  178.2530  148.4600 O   0  0  0  0  0  1  0  0  0  0  0  0
  188.2290  177.2890  147.6810 C   0  0  0  0  0  2  0  0  0  0  0  0
  1 11  1  6  0  0  0
  1  4  1  0  0  0  0
  1  2  1  0  0  0  0
  2  6  2  0  0  0  0
  3  9  1  1  0  0  0
  3  5  1  0  0  0  0
  4  3  1  0  0  0  0
  6  5  1  0  0  0  0
  6 20  1  0  0  0  0
  7  9  2  0  0  0  0
  9  8  1  0  0  0  0
 11 10  2  0  0  0  0
 13 12  1  1  0  0  0
 13 11  1  0  0  0  0
 15 19  1  0  0  0  0
 15 14  1  0  0  0  0
 16 15  2  0  0  0  0
 17 16  1  0  0  0  0
 17 18  1  0  0  0  0
 18 13  1  0  0  0  0
 18 19  2  0  0  0  0
 20 21  1  0  0  0  0
 21 22  1  0  0  0  0
 22 24  1  0  0  0  0
 22 23  1  1  0  0  0
 24 28  1  1  0  0  0
 25 26  1  0  0  0  0
 26 24  1  0  0  0  0
 28 27  1  0  0  0  0
M  END
>  <MODEL>
7

>  <REMARK>
 VINA RESULT:      -6.7      2.608      7.197
  Name = 
  10 active torsions:
  status: ('A' for Active; 'I' for Inactive)
    1  A    between atoms: C_1  and  C_13
    2  A    between atoms: C_4  and  C_11
    3  A    between atoms: C_4  and  O_25
    4  A    between atoms: C_4  and  C_28
    5  A    between atoms: C_11  and  C_24
    6  A    between atoms: C_13  and  C_23
    7  A    between atoms: C_14  and  C_26
    8  A    between atoms: N_15  and  C_22
    9  A    between atoms: N_15  and  C_24
   10  A    between atoms: C_17  and  C_23
                            x       y       z     vdW  Elec       q    Type
                         _______ _______ _______ _____ _____    ______ ____

>  <TORSDO>
F 10

$$$$
=
 OpenBabel11042411593D

 28 29  0  0  1  0  0  0  0  0999 V2000
  186.3830  177.1390  144.4440 C   0  0  1  0  0  3  0  0  0  0  0  0
  187.4980  176.8300  143.4790 C   0  0  0  0  0  3  0  0  0  0  0  0
  188.1630  177.9020  146.0370 C   0  0  2  0  0  3  0  0  0  0  0  0
  186.8480  177.1430  145.9030 C   0  0  0  0  0  2  0  0  0  0  0  0
  189.2440  177.2160  145.2050 C   0  0  0  0  0  2  0  0  0  0  0  0
  188.8000  176.9300  143.7950 C   0  0  0  0  0  0  0  0  0  0  0  0
  187.7690  178.4270  148.3240 O   0  0  0  0  0  1  0  0  0  0  0  0
  189.8280  177.5310  147.8690 O   0  0  0  0  0  0  0  0  0  0  0  0
  188.5740  177.9770  147.4680 C   0  0  0  0  0  0  0  0  0  0  0  0
  185.6070  179.3290  144.9100 O   0  0  0  0  0  0  0  0  0  0  0  0
  185.7110  178.4310  144.0860 C   0  0  0  0  0  0  0  0  0  0  0  0
  185.7090  179.7530  142.1150 O   0  0  0  0  0  1  0  0  0  0  0  0
  185.1660  178.6090  142.7040 C   0  0  2  0  0  3  0  0  0  0  0  0
  180.4960  178.8570  141.3250 N   0  0  0  0  0  1  0  0  0  0  0  0
  181.6620  178.8280  142.1370 C   0  0  0  0  0  0  0  0  0  0  0  0
  181.6250  178.9940  143.4740 N   0  0  0  0  0  0  0  0  0  0  0  0
  182.9130  178.9130  143.8580 C   0  0  0  0  0  2  0  0  0  0  0  0
  183.6740  178.6940  142.7290 C   0  0  0  0  0  0  0  0  0  0  0  0
  182.8960  178.6500  141.6320 N   0  0  0  0  0  0  0  0  0  0  0  0
  189.8050  176.6390  142.8200 N   0  0  0  0  0  2  0  0  0  0  0  0
  190.1610  177.5380  141.7270 C   0  0  0  0  0  2  0  0  0  0  0  0
  190.3320  176.7570  140.4260 C   0  0  2  0  0  3  0  0  0  0  0  0
  191.6410  177.1160  139.7430 C   0  0  0  0  0  1  0  0  0  0  0  0
  189.1610  176.9830  139.4660 C   0  0  2  0  0  3  0  0  0  0  0  0
  188.6320  176.0110  137.5460 C   0  0  0  0  0  1  0  0  0  0  0  0
  189.5710  176.8600  138.1350 O   0  0  0  0  0  0  0  0  0  0  0  0
  188.9860  179.2500  138.7240 O   0  0  0  0  0  1  0  0  0  0  0  0
  188.5260  178.3490  139.6850 C   0  0  0  0  0  2  0  0  0  0  0  0
  1 11  1  6  0  0  0
  1  4  1  0  0  0  0
  2  6  2  0  0  0  0
  2  1  1  0  0  0  0
  3  9  1  1  0  0  0
  4  3  1  0  0  0  0
  5  3  1  0  0  0  0
  6  5  1  0  0  0  0
  9  8  2  0  0  0  0
  9  7  1  0  0  0  0
 11 10  2  0  0  0  0
 13 12  1  1  0  0  0
 13 18  1  0  0  0  0
 13 11  1  0  0  0  0
 14 15  1  0  0  0  0
 15 16  2  0  0  0  0
 16 17  1  0  0  0  0
 18 17  1  0  0  0  0
 19 15  1  0  0  0  0
 19 18  2  0  0  0  0
 20  6  1  0  0  0  0
 21 20  1  0  0  0  0
 22 23  1  6  0  0  0
 22 21  1  0  0  0  0
 24 28  1  6  0  0  0
 24 22  1  0  0  0  0
 25 26  1  0  0  0  0
 26 24  1  0  0  0  0
 27 28  1  0  0  0  0
M  END
>  <MODEL>
8

>  <REMARK>
 VINA RESULT:      -6.7      3.065      6.358
  Name = 
  10 active torsions:
  status: ('A' for Active; 'I' for Inactive)
    1  A    between atoms: C_1  and  C_13
    2  A    between atoms: C_4  and  C_11
    3  A    between atoms: C_4  and  O_25
    4  A    between atoms: C_4  and  C_28
    5  A    between atoms: C_11  and  C_24
    6  A    between atoms: C_13  and  C_23
    7  A    between atoms: C_14  and  C_26
    8  A    between atoms: N_15  and  C_22
    9  A    between atoms: N_15  and  C_24
   10  A    between atoms: C_17  and  C_23
                            x       y       z     vdW  Elec       q    Type
                         _______ _______ _______ _____ _____    ______ ____

>  <TORSDO>
F 10

$$$$
=
 OpenBabel11042411593D

 28 29  0  0  1  0  0  0  0  0999 V2000
  190.9350  177.8170  142.5730 C   0  0  1  0  0  3  0  0  0  0  0  0
  191.4870  177.3530  141.2500 C   0  0  0  0  0  3  0  0  0  0  0  0
  188.6660  177.6780  141.5160 C   0  0  2  0  0  3  0  0  0  0  0  0
  189.5670  178.4900  142.4390 C   0  0  0  0  0  2  0  0  0  0  0  0
  189.2860  177.6030  140.1220 C   0  0  0  0  0  2  0  0  0  0  0  0
  190.7320  177.1860  140.1510 C   0  0  0  0  0  0  0  0  0  0  0  0
  186.8630  178.7020  140.3490 O   0  0  0  0  0  0  0  0  0  0  0  0
  186.5190  178.3830  142.5920 O   0  0  0  0  0  1  0  0  0  0  0  0
  187.3080  178.2880  141.4510 C   0  0  0  0  0  0  0  0  0  0  0  0
  190.6010  175.5550  143.1950 O   0  0  0  0  0  0  0  0  0  0  0  0
  190.8900  176.6860  143.5570 C   0  0  0  0  0  0  0  0  0  0  0  0
  192.0140  175.9510  145.5140 O   0  0  0  0  0  1  0  0  0  0  0  0
  191.2020  176.9610  144.9950 C   0  0  2  0  0  3  0  0  0  0  0  0
  186.6150  177.9260  146.3400 N   0  0  0  0  0  1  0  0  0  0  0  0
  187.9780  177.5240  146.3870 C   0  0  0  0  0  0  0  0  0  0  0  0
  188.5840  177.1280  147.5240 N   0  0  0  0  0  0  0  0  0  0  0  0
  189.8470  176.8480  147.1520 C   0  0  0  0  0  2  0  0  0  0  0  0
  189.9460  177.0830  145.7970 C   0  0  0  0  0  0  0  0  0  0  0  0
  188.7750  177.5220  145.3030 N   0  0  0  0  0  0  0  0  0  0  0  0
  191.3220  176.7220  138.9330 N   0  0  0  0  0  2  0  0  0  0  0  0
  192.7570  176.5440  138.7410 C   0  0  0  0  0  2  0  0  0  0  0  0
  193.0270  175.5800  137.5880 C   0  0  2  0  0  3  0  0  0  0  0  0
  191.9260  174.5380  137.4800 C   0  0  0  0  0  1  0  0  0  0  0  0
  194.3880  174.8920  137.7250 C   0  0  2  0  0  3  0  0  0  0  0  0
  195.8710  174.3280  139.2730 C   0  0  0  0  0  1  0  0  0  0  0  0
  195.0990  175.3990  138.8180 O   0  0  0  0  0  0  0  0  0  0  0  0
  195.3350  173.8150  135.8110 O   0  0  0  0  0  1  0  0  0  0  0  0
  195.2140  175.0470  136.4560 C   0  0  0  0  0  2  0  0  0  0  0  0
  1 11  1  1  0  0  0
  2  1  1  0  0  0  0
  3  9  1  6  0  0  0
  3  4  1  0  0  0  0
  4  1  1  0  0  0  0
  5  6  1  0  0  0  0
  5  3  1  0  0  0  0
  6  2  2  0  0  0  0
  7  9  2  0  0  0  0
  9  8  1  0  0  0  0
 10 11  2  0  0  0  0
 11 13  1  0  0  0  0
 13 12  1  1  0  0  0
 13 18  1  0  0  0  0
 14 15  1  0  0  0  0
 15 16  2  0  0  0  0
 17 16  1  0  0  0  0
 18 17  1  0  0  0  0
 19 18  2  0  0  0  0
 19 15  1  0  0  0  0
 20  6  1  0  0  0  0
 21 20  1  0  0  0  0
 22 23  1  1  0  0  0
 22 24  1  0  0  0  0
 22 21  1  0  0  0  0
 24 28  1  6  0  0  0
 24 26  1  0  0  0  0
 26 25  1  0  0  0  0
 27 28  1  0  0  0  0
M  END
>  <MODEL>
9

>  <REMARK>
 VINA RESULT:      -6.5      3.065      8.501
  Name = 
  10 active torsions:
  status: ('A' for Active; 'I' for Inactive)
    1  A    between atoms: C_1  and  C_13
    2  A    between atoms: C_4  and  C_11
    3  A    between atoms: C_4  and  O_25
    4  A    between atoms: C_4  and  C_28
    5  A    between atoms: C_11  and  C_24
    6  A    between atoms: C_13  and  C_23
    7  A    between atoms: C_14  and  C_26
    8  A    between atoms: N_15  and  C_22
    9  A    between atoms: N_15  and  C_24
   10  A    between atoms: C_17  and  C_23
                            x       y       z     vdW  Elec       q    Type
                         _______ _______ _______ _____ _____    ______ ____

>  <TORSDO>
F 10

$$$$
