=
 OpenBabel11032419123D

 58 65  0  0  1  0  0  0  0  0999 V2000
  186.0720  177.7180  143.4640 C   0  0  2  0  0  3  0  0  0  0  0  0
  185.5990  178.1590  145.8780 C   0  0  1  0  0  3  0  0  0  0  0  0
  183.4430  178.8500  145.4710 N   0  0  0  0  0  1  0  0  0  0  0  0
  184.7060  179.3120  145.8700 N   0  0  0  0  0  0  0  0  0  0  0  0
  186.3550  178.6310  144.6520 C   0  0  2  0  0  3  0  0  0  0  0  0
  185.3830  179.7900  144.6700 C   0  0  0  0  0  2  0  0  0  0  0  0
  186.5140  178.2130  147.0930 C   0  0  0  0  0  2  0  0  0  0  0  0
  188.4950  176.7190  147.4110 C   0  0  0  0  0  3  0  0  0  0  0  0
  188.6070  178.4720  145.7400 C   0  0  0  0  0  3  0  0  0  0  0  0
  189.8060  176.3400  147.1010 C   0  0  0  0  0  3  0  0  0  0  0  0
  190.5200  177.0320  146.1150 C   0  0  0  0  0  0  0  0  0  0  0  0
  189.9160  178.0900  145.4290 C   0  0  0  0  0  3  0  0  0  0  0  0
  187.8980  177.7890  146.7370 C   0  0  0  0  0  0  0  0  0  0  0  0
  191.9200  176.6360  145.7910 C   0  0  0  0  0  2  0  0  0  0  0  0
  191.9710  175.1260  144.1830 C   0  0  0  0  0  1  0  0  0  0  0  0
  191.9900  175.2580  145.5730 O   0  0  0  0  0  0  0  0  0  0  0  0
  187.3370  177.1060  142.9480 C   0  0  0  0  0  0  0  0  0  0  0  0
  187.8430  176.1030  143.5240 O   0  0  0  0  0  0  0  0  0  0  0  0
  187.9710  177.6800  141.8070 N   0  0  0  0  0  2  0  0  0  0  0  0
  191.8680  175.7200  137.8990 C   0  0  2  0  0  3  0  0  0  0  0  0
  190.0730  176.8030  138.8810 C   0  0  1  0  0  3  0  0  0  0  0  0
  189.4490  177.7880  139.8970 C   0  0  1  0  0  3  0  0  0  0  0  0
  189.1690  177.1050  141.2220 C   0  0  1  0  0  3  0  0  0  0  0  0
  192.1970  177.0290  140.0850 C   0  0  0  0  0  0  0  0  0  0  0  0
  191.6180  177.4960  141.3700 C   0  0  0  0  0  2  0  0  0  0  0  0
  193.2800  177.4540  139.7080 O   0  0  0  0  0  0  0  0  0  0  0  0
  190.2570  178.1690  141.1580 C   0  0  1  0  0  3  0  0  0  0  0  0
  190.2510  177.4370  137.6310 O   0  0  0  0  0  0  0  0  0  0  0  0
  191.3900  176.8590  137.0290 C   0  0  0  0  0  2  0  0  0  0  0  0
  191.3540  176.0830  139.2710 C   0  0  2  0  0  3  0  0  0  0  0  0
  194.0980  176.1970  137.2010 O   0  0  0  0  0  0  0  0  0  0  0  0
  193.8530  174.1880  138.3670 N   0  0  0  0  0  2  0  0  0  0  0  0
  193.3310  175.3940  137.7980 C   0  0  0  0  0  0  0  0  0  0  0  0
  195.8200  173.8490  136.9390 C   0  0  2  0  0  3  0  0  0  0  0  0
  195.4620  171.2620  137.5430 O   0  0  0  0  0  0  0  0  0  0  0  0
  195.2550  173.8120  138.2550 C   0  0  1  0  0  0  0  0  0  0  0  0
  196.0730  174.0670  139.3580 O   0  0  0  0  0  1  0  0  0  0  0  0
  195.4940  172.4780  137.5720 C   0  0  0  0  0  0  0  0  0  0  0  0
  197.3290  174.0450  136.9300 C   0  0  0  0  0  2  0  0  0  0  0  0
  197.3320  176.2810  136.1730 O   0  0  0  0  0  0  0  0  0  0  0  0
  197.7070  175.1340  135.9820 C   0  0  0  0  0  3  0  0  0  0  0  0
  185.4430  178.4440  142.4480 O   0  0  0  0  0  0  0  0  0  0  0  0
  184.2160  177.8810  142.3230 N   0  0  0  0  0  2  0  0  0  0  0  0
  183.3430  178.8920  141.8980 N   0  0  0  0  0  2  0  0  0  0  0  0
  181.0170  178.4290  142.3310 C   0  0  0  0  0  2  0  0  0  0  0  0
  182.0080  178.6160  141.4580 C   0  0  0  0  0  0  0  0  0  0  0  0
  181.7260  178.4980  140.0020 C   0  0  0  0  0  2  0  0  0  0  0  0
  182.7950  177.6490  139.3310 C   0  0  0  0  0  2  0  0  0  0  0  0
  183.6070  178.4160  138.2850 C   0  0  1  0  0  3  0  0  0  0  0  0
  185.3880  177.0850  137.0520 C   0  0  1  0  0  0  0  0  0  0  0  0
  186.2700  178.0460  137.6040 O   0  0  0  0  0  0  0  0  0  0  0  0
  184.6710  179.1750  138.8240 O   0  0  0  0  0  0  0  0  0  0  0  0
  185.8150  178.3580  138.8980 C   0  0  0  0  0  2  0  0  0  0  0  0
  185.4190  175.9170  137.7970 F   0  0  0  0  0  0  0  0  0  0  0  0
  183.9550  177.6300  137.0100 C   0  0  0  0  0  2  0  0  0  0  0  0
  186.7530  177.6210  135.1080 O   0  0  0  0  0  0  0  0  0  0  0  0
  187.2040  176.3470  135.4960 C   0  0  0  0  0  2  0  0  0  0  0  0
  185.7790  176.7350  135.6080 C   0  0  1  0  0  3  0  0  0  0  0  0
  1 42  1  6  0  0  0
  2  7  1  1  0  0  0
  3  4  1  0  0  0  0
  4  2  1  0  0  0  0
  5  1  1  6  0  0  0
  5  6  1  0  0  0  0
  5  2  1  0  0  0  0
  6  4  1  0  0  0  0
  9 13  1  0  0  0  0
 10  8  1  0  0  0  0
 11 10  2  0  0  0  0
 12  9  2  0  0  0  0
 12 11  1  0  0  0  0
 13  7  1  0  0  0  0
 13  8  2  0  0  0  0
 14 11  1  0  0  0  0
 15 16  1  0  0  0  0
 16 14  1  0  0  0  0
 17  1  1  0  0  0  0
 17 18  2  0  0  0  0
 19 17  1  0  0  0  0
 20 33  1  1  0  0  0
 20 30  1  0  0  0  0
 21 28  1  6  0  0  0
 21 30  1  0  0  0  0
 21 22  1  0  0  0  0
 22 27  1  0  0  0  0
 22 23  1  0  0  0  0
 23 19  1  0  0  0  0
 24 25  1  0  0  0  0
 26 24  2  0  0  0  0
 27 23  1  0  0  0  0
 27 25  1  0  0  0  0
 29 28  1  0  0  0  0
 29 20  1  0  0  0  0
 30 24  1  0  0  0  0
 31 33  2  0  0  0  0
 33 32  1  0  0  0  0
 34 38  1  0  0  0  0
 34 36  1  0  0  0  0
 35 38  2  0  0  0  0
 36 32  1  0  0  0  0
 36 37  1  0  0  0  0
 38 36  1  0  0  0  0
 39 34  1  0  0  0  0
 41 40  2  0  0  0  0
 41 39  1  0  0  0  0
 43 42  1  0  0  0  0
 44 43  1  0  0  0  0
 46 44  1  0  0  0  0
 46 45  2  0  0  0  0
 47 46  1  0  0  0  0
 48 47  1  0  0  0  0
 49 52  1  0  0  0  0
 49 48  1  0  0  0  0
 50 51  1  0  0  0  0
 50 54  1  0  0  0  0
 51 53  1  0  0  0  0
 52 53  1  0  0  0  0
 55 50  1  0  0  0  0
 55 49  1  0  0  0  0
 56 57  1  0  0  0  0
 56 58  1  0  0  0  0
 57 58  1  0  0  0  0
 58 50  1  0  0  0  0
M  END
>  <MODEL>
1

>  <REMARK>
 VINA RESULT:      -7.6      0.000      0.000
  Name = 
  19 active torsions:
  status: ('A' for Active; 'I' for Inactive)
    1  A    between atoms: N_1  and  N_6
    2  A    between atoms: N_1  and  C_57
    3  A    between atoms: C_2  and  C_46
    4  A    between atoms: C_3  and  C_5
    5  A    between atoms: C_3  and  C_22
    6  A    between atoms: N_6  and  O_56
    7  A    between atoms: C_7  and  C_38
    8  A    between atoms: C_9  and  C_51
    9  A    between atoms: C_14  and  C_35
   10  A    between atoms: C_17  and  N_54
   11  A    between atoms: C_22  and  C_57
   12  A    between atoms: C_27  and  C_43
   13  A    between atoms: C_28  and  C_43
   14  A    between atoms: C_30  and  N_42
   15  A    between atoms: C_32  and  C_35
   16  A    between atoms: C_37  and  C_39
   17  A    between atoms: C_37  and  O_45
   18  A    between atoms: C_38  and  C_49
   19  A    between atoms: C_43  and  O_56
                            x       y       z     vdW  Elec       q    Type
                         _______ _______ _______ _____ _____    ______ ____

>  <TORSDO>
F 19

$$$$
=
 OpenBabel11032419123D

 58 65  0  0  1  0  0  0  0  0999 V2000
  185.9460  177.7670  143.7000 C   0  0  2  0  0  3  0  0  0  0  0  0
  185.5980  178.2090  146.1350 C   0  0  1  0  0  3  0  0  0  0  0  0
  183.4200  178.8880  145.8400 N   0  0  0  0  0  1  0  0  0  0  0  0
  184.6990  179.3570  146.1730 N   0  0  0  0  0  0  0  0  0  0  0  0
  186.2870  178.6830  144.8710 C   0  0  2  0  0  3  0  0  0  0  0  0
  185.3100  179.8370  144.9390 C   0  0  0  0  0  2  0  0  0  0  0  0
  186.5750  178.2680  147.3000 C   0  0  0  0  0  2  0  0  0  0  0  0
  188.4870  176.6710  147.5270 C   0  0  0  0  0  3  0  0  0  0  0  0
  188.6330  178.4460  145.8830 C   0  0  0  0  0  3  0  0  0  0  0  0
  189.7650  176.2330  147.1670 C   0  0  0  0  0  3  0  0  0  0  0  0
  190.4810  176.9050  146.1690 C   0  0  0  0  0  0  0  0  0  0  0  0
  189.9100  178.0050  145.5210 C   0  0  0  0  0  3  0  0  0  0  0  0
  187.9220  177.7820  146.8910 C   0  0  0  0  0  0  0  0  0  0  0  0
  191.8480  176.4450  145.7910 C   0  0  0  0  0  2  0  0  0  0  0  0
  191.7210  175.1220  144.0320 C   0  0  0  0  0  1  0  0  0  0  0  0
  191.9850  176.4420  144.4010 O   0  0  0  0  0  0  0  0  0  0  0  0
  187.1880  177.1750  143.1080 C   0  0  0  0  0  0  0  0  0  0  0  0
  187.7470  176.1850  143.6570 O   0  0  0  0  0  0  0  0  0  0  0  0
  187.7370  177.7520  141.9260 N   0  0  0  0  0  2  0  0  0  0  0  0
  191.4460  175.9040  137.7870 C   0  0  2  0  0  3  0  0  0  0  0  0
  189.6990  176.9580  138.8810 C   0  0  1  0  0  3  0  0  0  0  0  0
  189.1240  177.9140  139.9520 C   0  0  1  0  0  3  0  0  0  0  0  0
  188.9060  177.1950  141.2690 C   0  0  1  0  0  3  0  0  0  0  0  0
  191.8780  177.1530  139.9900 C   0  0  0  0  0  0  0  0  0  0  0  0
  191.3590  177.5830  141.3130 C   0  0  0  0  0  2  0  0  0  0  0  0
  192.9410  177.5890  139.5740 O   0  0  0  0  0  0  0  0  0  0  0  0
  189.9900  178.2610  141.1830 C   0  0  1  0  0  3  0  0  0  0  0  0
  189.8180  177.6260  137.6430 O   0  0  0  0  0  0  0  0  0  0  0  0
  190.9270  177.0660  136.9720 C   0  0  0  0  0  2  0  0  0  0  0  0
  190.9960  176.2280  139.1900 C   0  0  2  0  0  3  0  0  0  0  0  0
  193.6860  176.4890  137.2150 O   0  0  0  0  0  0  0  0  0  0  0  0
  193.3990  174.2660  137.8750 N   0  0  0  0  0  2  0  0  0  0  0  0
  192.9020  175.5820  137.6070 C   0  0  0  0  0  0  0  0  0  0  0  0
  195.2580  172.7500  138.3910 C   0  0  2  0  0  3  0  0  0  0  0  0
  196.2900  174.8910  139.6290 O   0  0  0  0  0  0  0  0  0  0  0  0
  194.7930  173.8990  137.6730 C   0  0  1  0  0  0  0  0  0  0  0  0
  195.3600  174.2080  136.4350 O   0  0  0  0  0  1  0  0  0  0  0  0
  195.6880  174.1530  138.8720 C   0  0  0  0  0  0  0  0  0  0  0  0
  196.4490  172.0640  137.7360 C   0  0  0  0  0  2  0  0  0  0  0  0
  195.0900  170.1960  137.2480 O   0  0  0  0  0  0  0  0  0  0  0  0
  196.1900  170.6010  137.5900 C   0  0  0  0  0  3  0  0  0  0  0  0
  185.2480  178.4860  142.7240 O   0  0  0  0  0  0  0  0  0  0  0  0
  184.0510  177.8570  142.6170 N   0  0  0  0  0  2  0  0  0  0  0  0
  183.2130  178.6980  141.8710 N   0  0  0  0  0  2  0  0  0  0  0  0
  181.2130  179.2220  143.1100 C   0  0  0  0  0  2  0  0  0  0  0  0
  181.7890  178.6960  142.0300 C   0  0  0  0  0  0  0  0  0  0  0  0
  180.9380  178.0620  140.9870 C   0  0  0  0  0  2  0  0  0  0  0  0
  181.4150  178.4730  139.6020 C   0  0  0  0  0  2  0  0  0  0  0  0
  181.7430  177.2830  138.6990 C   0  0  1  0  0  3  0  0  0  0  0  0
  184.0320  177.3130  137.5910 C   0  0  1  0  0  0  0  0  0  0  0  0
  183.2810  177.2830  136.3900 O   0  0  0  0  0  0  0  0  0  0  0  0
  181.2070  177.3840  137.3940 O   0  0  0  0  0  0  0  0  0  0  0  0
  182.1290  178.0680  136.5800 C   0  0  0  0  0  2  0  0  0  0  0  0
  184.4500  178.6060  137.8660 F   0  0  0  0  0  0  0  0  0  0  0  0
  183.1960  176.7830  138.7630 C   0  0  0  0  0  2  0  0  0  0  0  0
  185.5000  175.9910  136.1670 O   0  0  0  0  0  0  0  0  0  0  0  0
  186.3260  177.0290  136.6330 C   0  0  0  0  0  2  0  0  0  0  0  0
  185.2800  176.4240  137.4890 C   0  0  1  0  0  3  0  0  0  0  0  0
  1 42  1  6  0  0  0
  2  4  1  0  0  0  0
  2  7  1  1  0  0  0
  3  4  1  0  0  0  0
  5  1  1  6  0  0  0
  5  6  1  0  0  0  0
  5  2  1  0  0  0  0
  6  4  1  0  0  0  0
  9 13  1  0  0  0  0
 10  8  1  0  0  0  0
 11 10  2  0  0  0  0
 12  9  2  0  0  0  0
 12 11  1  0  0  0  0
 13  7  1  0  0  0  0
 13  8  2  0  0  0  0
 14 11  1  0  0  0  0
 15 16  1  0  0  0  0
 16 14  1  0  0  0  0
 17 18  2  0  0  0  0
 17  1  1  0  0  0  0
 19 17  1  0  0  0  0
 20 33  1  1  0  0  0
 20 30  1  0  0  0  0
 21 28  1  6  0  0  0
 21 30  1  0  0  0  0
 21 22  1  0  0  0  0
 22 27  1  0  0  0  0
 22 23  1  0  0  0  0
 23 19  1  0  0  0  0
 24 25  1  0  0  0  0
 26 24  2  0  0  0  0
 27 23  1  0  0  0  0
 27 25  1  0  0  0  0
 29 28  1  0  0  0  0
 29 20  1  0  0  0  0
 30 24  1  0  0  0  0
 31 33  2  0  0  0  0
 33 32  1  0  0  0  0
 34 38  1  0  0  0  0
 36 32  1  0  0  0  0
 36 34  1  0  0  0  0
 36 38  1  0  0  0  0
 37 36  1  0  0  0  0
 38 35  2  0  0  0  0
 39 34  1  0  0  0  0
 40 41  2  0  0  0  0
 41 39  1  0  0  0  0
 43 42  1  0  0  0  0
 44 46  1  0  0  0  0
 44 43  1  0  0  0  0
 46 45  2  0  0  0  0
 47 46  1  0  0  0  0
 48 47  1  0  0  0  0
 49 55  1  0  0  0  0
 49 48  1  0  0  0  0
 50 54  1  0  0  0  0
 50 55  1  0  0  0  0
 51 53  1  0  0  0  0
 51 50  1  0  0  0  0
 52 49  1  0  0  0  0
 53 52  1  0  0  0  0
 56 57  1  0  0  0  0
 56 58  1  0  0  0  0
 57 58  1  0  0  0  0
 58 50  1  0  0  0  0
M  END
>  <MODEL>
2

>  <REMARK>
 VINA RESULT:      -7.4      1.215      1.864
  Name = 
  19 active torsions:
  status: ('A' for Active; 'I' for Inactive)
    1  A    between atoms: N_1  and  N_6
    2  A    between atoms: N_1  and  C_57
    3  A    between atoms: C_2  and  C_46
    4  A    between atoms: C_3  and  C_5
    5  A    between atoms: C_3  and  C_22
    6  A    between atoms: N_6  and  O_56
    7  A    between atoms: C_7  and  C_38
    8  A    between atoms: C_9  and  C_51
    9  A    between atoms: C_14  and  C_35
   10  A    between atoms: C_17  and  N_54
   11  A    between atoms: C_22  and  C_57
   12  A    between atoms: C_27  and  C_43
   13  A    between atoms: C_28  and  C_43
   14  A    between atoms: C_30  and  N_42
   15  A    between atoms: C_32  and  C_35
   16  A    between atoms: C_37  and  C_39
   17  A    between atoms: C_37  and  O_45
   18  A    between atoms: C_38  and  C_49
   19  A    between atoms: C_43  and  O_56
                            x       y       z     vdW  Elec       q    Type
                         _______ _______ _______ _____ _____    ______ ____

>  <TORSDO>
F 19

$$$$
=
 OpenBabel11032419123D

 58 65  0  0  1  0  0  0  0  0999 V2000
  185.9040  178.7100  141.3010 C   0  0  2  0  0  3  0  0  0  0  0  0
  185.3610  177.9780  143.6280 C   0  0  1  0  0  3  0  0  0  0  0  0
  183.1590  178.6230  143.4630 N   0  0  0  0  0  1  0  0  0  0  0  0
  184.3710  178.9430  144.0920 N   0  0  0  0  0  0  0  0  0  0  0  0
  186.0910  179.0060  142.7850 C   0  0  2  0  0  3  0  0  0  0  0  0
  185.0200  179.9590  143.2720 C   0  0  0  0  0  2  0  0  0  0  0  0
  186.2510  177.5420  144.7830 C   0  0  0  0  0  2  0  0  0  0  0  0
  187.8880  176.2480  143.4040 C   0  0  0  0  0  3  0  0  0  0  0  0
  188.7030  178.0550  144.7990 C   0  0  0  0  0  3  0  0  0  0  0  0
  189.1970  175.9790  142.9890 C   0  0  0  0  0  3  0  0  0  0  0  0
  190.2600  176.7450  143.4830 C   0  0  0  0  0  0  0  0  0  0  0  0
  190.0100  177.7880  144.3800 C   0  0  0  0  0  3  0  0  0  0  0  0
  187.6410  177.2800  144.3150 C   0  0  0  0  0  0  0  0  0  0  0  0
  191.6560  176.4530  143.0490 C   0  0  0  0  0  2  0  0  0  0  0  0
  191.7290  177.3780  141.0480 C   0  0  0  0  0  1  0  0  0  0  0  0
  192.1810  177.5470  142.3580 O   0  0  0  0  0  0  0  0  0  0  0  0
  187.2000  178.2980  140.6730 C   0  0  0  0  0  0  0  0  0  0  0  0
  188.2940  178.7510  141.1120 O   0  0  0  0  0  0  0  0  0  0  0  0
  187.1800  177.4000  139.5660 N   0  0  0  0  0  2  0  0  0  0  0  0
  190.9930  174.0370  136.6590 C   0  0  2  0  0  3  0  0  0  0  0  0
  189.0350  174.9470  137.4940 C   0  0  1  0  0  3  0  0  0  0  0  0
  188.0440  176.1150  137.7100 C   0  0  1  0  0  3  0  0  0  0  0  0
  188.4010  176.9160  138.9460 C   0  0  1  0  0  3  0  0  0  0  0  0
  190.6560  176.5830  136.6500 C   0  0  0  0  0  0  0  0  0  0  0  0
  190.0540  177.7730  137.3020 C   0  0  0  0  0  2  0  0  0  0  0  0
  191.1800  176.6840  135.5500 O   0  0  0  0  0  0  0  0  0  0  0  0
  188.5600  177.5650  137.5770 C   0  0  1  0  0  3  0  0  0  0  0  0
  188.6390  174.1670  136.3860 O   0  0  0  0  0  0  0  0  0  0  0  0
  189.8140  173.6540  135.7950 C   0  0  0  0  0  2  0  0  0  0  0  0
  190.5160  175.2730  137.3800 C   0  0  2  0  0  3  0  0  0  0  0  0
  192.3290  174.1870  134.6880 O   0  0  0  0  0  0  0  0  0  0  0  0
  193.5390  174.1920  136.6870 N   0  0  0  0  0  2  0  0  0  0  0  0
  192.3130  174.1430  135.9490 C   0  0  0  0  0  0  0  0  0  0  0  0
  195.9560  174.5740  136.8800 C   0  0  2  0  0  3  0  0  0  0  0  0
  195.4410  176.7650  135.4250 O   0  0  0  0  0  0  0  0  0  0  0  0
  194.8410  174.2520  136.0390 C   0  0  1  0  0  0  0  0  0  0  0  0
  195.0380  173.4290  134.9280 O   0  0  0  0  0  1  0  0  0  0  0  0
  195.4160  175.6510  135.9140 C   0  0  0  0  0  0  0  0  0  0  0  0
  197.2860  174.0550  136.3520 C   0  0  0  0  0  2  0  0  0  0  0  0
  196.9900  172.1230  137.6760 O   0  0  0  0  0  0  0  0  0  0  0  0
  197.7760  172.9260  137.1960 C   0  0  0  0  0  3  0  0  0  0  0  0
  185.3990  179.8410  140.6530 O   0  0  0  0  0  0  0  0  0  0  0  0
  184.9740  179.3920  139.4450 N   0  0  0  0  0  2  0  0  0  0  0  0
  183.9160  180.2220  139.0480 N   0  0  0  0  0  2  0  0  0  0  0  0
  181.6850  180.2580  138.1390 C   0  0  0  0  0  2  0  0  0  0  0  0
  182.5570  179.7710  139.0200 C   0  0  0  0  0  0  0  0  0  0  0  0
  182.0990  178.7660  140.0180 C   0  0  0  0  0  2  0  0  0  0  0  0
  180.8980  178.0050  139.4780 C   0  0  0  0  0  2  0  0  0  0  0  0
  181.1830  176.5230  139.2290 C   0  0  1  0  0  3  0  0  0  0  0  0
  183.0630  176.0030  137.5970 C   0  0  1  0  0  0  0  0  0  0  0  0
  182.0430  175.3380  136.8730 O   0  0  0  0  0  0  0  0  0  0  0  0
  180.3180  175.9190  138.2890 O   0  0  0  0  0  0  0  0  0  0  0  0
  180.8610  176.0890  137.0010 C   0  0  0  0  0  2  0  0  0  0  0  0
  183.3040  177.2550  137.0520 F   0  0  0  0  0  0  0  0  0  0  0  0
  182.6680  176.1520  139.0720 C   0  0  0  0  0  2  0  0  0  0  0  0
  184.1540  173.8480  137.2880 O   0  0  0  0  0  0  0  0  0  0  0  0
  184.6420  174.6300  136.2250 C   0  0  0  0  0  2  0  0  0  0  0  0
  184.3790  175.2120  137.5610 C   0  0  1  0  0  3  0  0  0  0  0  0
  1 42  1  6  0  0  0
  2  4  1  0  0  0  0
  2  7  1  1  0  0  0
  3  4  1  0  0  0  0
  5  1  1  6  0  0  0
  5  6  1  0  0  0  0
  5  2  1  0  0  0  0
  6  4  1  0  0  0  0
  8 13  1  0  0  0  0
 10  8  2  0  0  0  0
 10 11  1  0  0  0  0
 11 12  2  0  0  0  0
 12  9  1  0  0  0  0
 13  7  1  0  0  0  0
 13  9  2  0  0  0  0
 14 11  1  0  0  0  0
 15 16  1  0  0  0  0
 16 14  1  0  0  0  0
 17 18  2  0  0  0  0
 17  1  1  0  0  0  0
 19 17  1  0  0  0  0
 20 33  1  6  0  0  0
 20 30  1  0  0  0  0
 21 28  1  6  0  0  0
 21 22  1  0  0  0  0
 22 23  1  0  0  0  0
 23 19  1  0  0  0  0
 24 25  1  0  0  0  0
 24 30  1  0  0  0  0
 25 27  1  0  0  0  0
 26 24  2  0  0  0  0
 27 22  1  0  0  0  0
 27 23  1  0  0  0  0
 29 28  1  0  0  0  0
 29 20  1  0  0  0  0
 30 21  1  0  0  0  0
 31 33  2  0  0  0  0
 33 32  1  0  0  0  0
 35 38  2  0  0  0  0
 36 32  1  0  0  0  0
 36 34  1  0  0  0  0
 37 36  1  0  0  0  0
 38 36  1  0  0  0  0
 38 34  1  0  0  0  0
 39 34  1  0  0  0  0
 39 41  1  0  0  0  0
 41 40  2  0  0  0  0
 43 42  1  0  0  0  0
 44 43  1  0  0  0  0
 45 46  2  0  0  0  0
 46 44  1  0  0  0  0
 46 47  1  0  0  0  0
 48 47  1  0  0  0  0
 49 48  1  0  0  0  0
 50 55  1  0  0  0  0
 51 53  1  0  0  0  0
 51 50  1  0  0  0  0
 52 49  1  0  0  0  0
 53 52  1  0  0  0  0
 54 50  1  0  0  0  0
 55 49  1  0  0  0  0
 56 58  1  0  0  0  0
 57 56  1  0  0  0  0
 57 58  1  0  0  0  0
 58 50  1  0  0  0  0
M  END
>  <MODEL>
3

>  <REMARK>
 VINA RESULT:      -7.3      2.388      3.279
  Name = 
  19 active torsions:
  status: ('A' for Active; 'I' for Inactive)
    1  A    between atoms: N_1  and  N_6
    2  A    between atoms: N_1  and  C_57
    3  A    between atoms: C_2  and  C_46
    4  A    between atoms: C_3  and  C_5
    5  A    between atoms: C_3  and  C_22
    6  A    between atoms: N_6  and  O_56
    7  A    between atoms: C_7  and  C_38
    8  A    between atoms: C_9  and  C_51
    9  A    between atoms: C_14  and  C_35
   10  A    between atoms: C_17  and  N_54
   11  A    between atoms: C_22  and  C_57
   12  A    between atoms: C_27  and  C_43
   13  A    between atoms: C_28  and  C_43
   14  A    between atoms: C_30  and  N_42
   15  A    between atoms: C_32  and  C_35
   16  A    between atoms: C_37  and  C_39
   17  A    between atoms: C_37  and  O_45
   18  A    between atoms: C_38  and  C_49
   19  A    between atoms: C_43  and  O_56
                            x       y       z     vdW  Elec       q    Type
                         _______ _______ _______ _____ _____    ______ ____

>  <TORSDO>
F 19

$$$$
=
 OpenBabel11032419123D

 58 65  0  0  1  0  0  0  0  0999 V2000
  184.9090  178.5840  138.2280 C   0  0  2  0  0  3  0  0  0  0  0  0
  183.5600  176.5570  137.6630 C   0  0  1  0  0  3  0  0  0  0  0  0
  181.6420  177.7700  137.2880 N   0  0  0  0  0  1  0  0  0  0  0  0
  182.2260  176.8520  138.1730 N   0  0  0  0  0  0  0  0  0  0  0  0
  184.2470  177.3240  138.7760 C   0  0  2  0  0  3  0  0  0  0  0  0
  182.8410  177.6280  139.2440 C   0  0  0  0  0  2  0  0  0  0  0  0
  183.8600  175.0720  137.8070 C   0  0  0  0  0  2  0  0  0  0  0  0
  181.5330  174.3690  137.2130 C   0  0  0  0  0  3  0  0  0  0  0  0
  183.3980  173.3630  136.0340 C   0  0  0  0  0  3  0  0  0  0  0  0
  180.6430  173.5800  136.4770 C   0  0  0  0  0  3  0  0  0  0  0  0
  181.1300  172.6770  135.5240 C   0  0  0  0  0  0  0  0  0  0  0  0
  182.5060  172.5760  135.2970 C   0  0  0  0  0  3  0  0  0  0  0  0
  182.9110  174.2560  136.9980 C   0  0  0  0  0  0  0  0  0  0  0  0
  180.1830  171.8280  134.7470 C   0  0  0  0  0  2  0  0  0  0  0  0
  179.4350  170.0660  135.8420 C   0  0  0  0  0  1  0  0  0  0  0  0
  180.4510  170.4770  134.9770 O   0  0  0  0  0  0  0  0  0  0  0  0
  186.2810  178.2830  137.7100 C   0  0  0  0  0  0  0  0  0  0  0  0
  186.9680  179.1880  137.1590 O   0  0  0  0  0  0  0  0  0  0  0  0
  186.7950  176.9590  137.8340 N   0  0  0  0  0  2  0  0  0  0  0  0
  192.6350  176.6770  137.4970 C   0  0  2  0  0  3  0  0  0  0  0  0
  190.4780  177.0380  138.2570 C   0  0  1  0  0  3  0  0  0  0  0  0
  189.0490  176.5670  138.6150 C   0  0  1  0  0  3  0  0  0  0  0  0
  188.1370  176.6110  137.4040 C   0  0  1  0  0  3  0  0  0  0  0  0
  190.8480  174.8560  137.2010 C   0  0  0  0  0  0  0  0  0  0  0  0
  189.4170  174.5220  136.9900 C   0  0  0  0  0  2  0  0  0  0  0  0
  191.6530  173.9740  137.4650 O   0  0  0  0  0  0  0  0  0  0  0  0
  188.5180  175.2570  137.9900 C   0  0  1  0  0  3  0  0  0  0  0  0
  191.2880  177.0670  139.4130 O   0  0  0  0  0  0  0  0  0  0  0  0
  192.6070  176.7710  139.0050 C   0  0  0  0  0  2  0  0  0  0  0  0
  191.2140  176.3160  137.1390 C   0  0  2  0  0  3  0  0  0  0  0  0
  193.7150  175.5720  135.6810 O   0  0  0  0  0  0  0  0  0  0  0  0
  194.7280  175.2420  137.7610 N   0  0  0  0  0  2  0  0  0  0  0  0
  193.7140  175.8050  136.9200 C   0  0  0  0  0  0  0  0  0  0  0  0
  196.2370  173.3460  138.1490 C   0  0  2  0  0  3  0  0  0  0  0  0
  198.1560  175.2130  138.0290 O   0  0  0  0  0  0  0  0  0  0  0  0
  195.7650  174.3580  137.2510 C   0  0  1  0  0  0  0  0  0  0  0  0
  195.7710  174.1090  135.8770 O   0  0  0  0  0  1  0  0  0  0  0  0
  197.1330  174.5720  137.8720 C   0  0  0  0  0  0  0  0  0  0  0  0
  196.8240  172.1320  137.4440 C   0  0  0  0  0  2  0  0  0  0  0  0
  194.7210  171.0950  137.1690 O   0  0  0  0  0  0  0  0  0  0  0  0
  195.8830  170.9760  137.5260 C   0  0  0  0  0  3  0  0  0  0  0  0
  184.9790  179.5560  139.2300 O   0  0  0  0  0  0  0  0  0  0  0  0
  185.5440  178.9250  140.2900 N   0  0  0  0  0  2  0  0  0  0  0  0
  185.1320  179.6100  141.4410 N   0  0  0  0  0  2  0  0  0  0  0  0
  183.2650  178.7940  142.7270 C   0  0  0  0  0  2  0  0  0  0  0  0
  184.5810  178.9340  142.5780 C   0  0  0  0  0  0  0  0  0  0  0  0
  185.4930  178.4120  143.6320 C   0  0  0  0  0  2  0  0  0  0  0  0
  186.7680  177.8760  142.9990 C   0  0  0  0  0  2  0  0  0  0  0  0
  187.4410  176.7820  143.8310 C   0  0  1  0  0  3  0  0  0  0  0  0
  189.6030  177.4350  145.0010 C   0  0  1  0  0  0  0  0  0  0  0  0
  190.1580  176.3870  144.2270 O   0  0  0  0  0  0  0  0  0  0  0  0
  188.2260  175.8810  143.0740 O   0  0  0  0  0  0  0  0  0  0  0  0
  189.5310  176.3990  142.9670 C   0  0  0  0  0  2  0  0  0  0  0  0
  189.8690  178.6630  144.4140 F   0  0  0  0  0  0  0  0  0  0  0  0
  188.0870  177.2530  145.1450 C   0  0  0  0  0  2  0  0  0  0  0  0
  190.3090  176.1510  146.9450 O   0  0  0  0  0  0  0  0  0  0  0  0
  191.4950  176.7530  146.4890 C   0  0  0  0  0  2  0  0  0  0  0  0
  190.1910  177.4520  146.4190 C   0  0  1  0  0  3  0  0  0  0  0  0
  1 17  1  1  0  0  0
  1 42  1  0  0  0  0
  2  7  1  1  0  0  0
  2  4  1  0  0  0  0
  2  5  1  0  0  0  0
  3  4  1  0  0  0  0
  4  6  1  0  0  0  0
  5  1  1  6  0  0  0
  5  6  1  0  0  0  0
  9 13  2  0  0  0  0
 10  8  2  0  0  0  0
 11 10  1  0  0  0  0
 12 11  2  0  0  0  0
 12  9  1  0  0  0  0
 13  8  1  0  0  0  0
 13  7  1  0  0  0  0
 14 16  1  0  0  0  0
 14 11  1  0  0  0  0
 16 15  1  0  0  0  0
 17 19  1  0  0  0  0
 18 17  2  0  0  0  0
 20 33  1  1  0  0  0
 20 29  1  0  0  0  0
 21 22  1  0  0  0  0
 21 28  1  1  0  0  0
 23 19  1  0  0  0  0
 23 27  1  0  0  0  0
 23 22  1  0  0  0  0
 24 26  2  0  0  0  0
 25 24  1  0  0  0  0
 25 27  1  0  0  0  0
 27 22  1  0  0  0  0
 29 28  1  0  0  0  0
 30 24  1  0  0  0  0
 30 20  1  0  0  0  0
 30 21  1  0  0  0  0
 31 33  2  0  0  0  0
 33 32  1  0  0  0  0
 36 32  1  0  0  0  0
 36 38  1  0  0  0  0
 36 34  1  0  0  0  0
 37 36  1  0  0  0  0
 38 35  2  0  0  0  0
 38 34  1  0  0  0  0
 39 41  1  0  0  0  0
 39 34  1  0  0  0  0
 40 41  2  0  0  0  0
 42 43  1  0  0  0  0
 43 44  1  0  0  0  0
 44 46  1  0  0  0  0
 46 45  2  0  0  0  0
 46 47  1  0  0  0  0
 48 47  1  0  0  0  0
 48 49  1  0  0  0  0
 49 55  1  0  0  0  0
 50 55  1  0  0  0  0
 50 58  1  0  0  0  0
 51 50  1  0  0  0  0
 52 49  1  0  0  0  0
 53 52  1  0  0  0  0
 53 51  1  0  0  0  0
 54 50  1  0  0  0  0
 57 56  1  0  0  0  0
 58 57  1  0  0  0  0
 58 56  1  0  0  0  0
M  END
>  <MODEL>
4

>  <REMARK>
 VINA RESULT:      -7.1      3.262      7.841
  Name = 
  19 active torsions:
  status: ('A' for Active; 'I' for Inactive)
    1  A    between atoms: N_1  and  N_6
    2  A    between atoms: N_1  and  C_57
    3  A    between atoms: C_2  and  C_46
    4  A    between atoms: C_3  and  C_5
    5  A    between atoms: C_3  and  C_22
    6  A    between atoms: N_6  and  O_56
    7  A    between atoms: C_7  and  C_38
    8  A    between atoms: C_9  and  C_51
    9  A    between atoms: C_14  and  C_35
   10  A    between atoms: C_17  and  N_54
   11  A    between atoms: C_22  and  C_57
   12  A    between atoms: C_27  and  C_43
   13  A    between atoms: C_28  and  C_43
   14  A    between atoms: C_30  and  N_42
   15  A    between atoms: C_32  and  C_35
   16  A    between atoms: C_37  and  C_39
   17  A    between atoms: C_37  and  O_45
   18  A    between atoms: C_38  and  C_49
   19  A    between atoms: C_43  and  O_56
                            x       y       z     vdW  Elec       q    Type
                         _______ _______ _______ _____ _____    ______ ____

>  <TORSDO>
F 19

$$$$
=
 OpenBabel11032419123D

 58 65  0  0  1  0  0  0  0  0999 V2000
  185.9460  177.7480  143.3840 C   0  0  2  0  0  3  0  0  0  0  0  0
  185.4020  178.1440  145.7910 C   0  0  1  0  0  3  0  0  0  0  0  0
  183.3300  179.0240  145.3190 N   0  0  0  0  0  1  0  0  0  0  0  0
  184.6060  179.3660  145.7890 N   0  0  0  0  0  0  0  0  0  0  0  0
  186.2490  178.5930  144.6160 C   0  0  2  0  0  3  0  0  0  0  0  0
  185.3730  179.8270  144.6380 C   0  0  0  0  0  2  0  0  0  0  0  0
  186.2630  178.0800  147.0440 C   0  0  0  0  0  2  0  0  0  0  0  0
  188.3340  176.7650  147.5360 C   0  0  0  0  0  3  0  0  0  0  0  0
  188.2980  178.2090  145.5890 C   0  0  0  0  0  3  0  0  0  0  0  0
  189.6540  176.4070  147.2440 C   0  0  0  0  0  3  0  0  0  0  0  0
  190.3000  176.9540  146.1290 C   0  0  0  0  0  0  0  0  0  0  0  0
  189.6170  177.8470  145.2970 C   0  0  0  0  0  3  0  0  0  0  0  0
  187.6580  177.6720  146.7130 C   0  0  0  0  0  0  0  0  0  0  0  0
  191.7100  176.5800  145.8230 C   0  0  0  0  0  2  0  0  0  0  0  0
  192.0220  175.0000  144.3160 C   0  0  0  0  0  1  0  0  0  0  0  0
  191.8660  176.3810  144.4500 O   0  0  0  0  0  0  0  0  0  0  0  0
  187.1970  177.1300  142.8410 C   0  0  0  0  0  0  0  0  0  0  0  0
  187.6150  176.0290  143.2980 O   0  0  0  0  0  0  0  0  0  0  0  0
  187.9180  177.8070  141.8140 N   0  0  0  0  0  2  0  0  0  0  0  0
  191.7540  175.8810  137.8300 C   0  0  2  0  0  3  0  0  0  0  0  0
  189.9730  176.9540  138.8480 C   0  0  1  0  0  3  0  0  0  0  0  0
  189.3640  177.9310  139.8810 C   0  0  1  0  0  3  0  0  0  0  0  0
  189.1070  177.2390  141.2050 C   0  0  1  0  0  3  0  0  0  0  0  0
  192.1170  177.1760  140.0180 C   0  0  0  0  0  0  0  0  0  0  0  0
  191.5570  177.6340  141.3160 C   0  0  0  0  0  2  0  0  0  0  0  0
  193.1920  177.6060  139.6270 O   0  0  0  0  0  0  0  0  0  0  0  0
  190.1920  178.3050  141.1300 C   0  0  1  0  0  3  0  0  0  0  0  0
  190.1290  177.5960  137.6000 O   0  0  0  0  0  0  0  0  0  0  0  0
  191.2590  177.0240  136.9750 C   0  0  0  0  0  2  0  0  0  0  0  0
  191.2620  176.2340  139.2120 C   0  0  2  0  0  3  0  0  0  0  0  0
  193.9530  176.3170  137.0150 O   0  0  0  0  0  0  0  0  0  0  0  0
  193.7710  174.4070  138.3480 N   0  0  0  0  0  2  0  0  0  0  0  0
  193.2160  175.5590  137.7020 C   0  0  0  0  0  0  0  0  0  0  0  0
  195.6140  173.6830  136.8990 C   0  0  2  0  0  3  0  0  0  0  0  0
  195.4210  171.3900  138.2740 O   0  0  0  0  0  0  0  0  0  0  0  0
  195.1710  174.0330  138.2160 C   0  0  1  0  0  0  0  0  0  0  0  0
  196.0730  174.6180  139.1070 O   0  0  0  0  0  1  0  0  0  0  0  0
  195.4040  172.5600  137.9380 C   0  0  0  0  0  0  0  0  0  0  0  0
  197.1070  173.8870  136.6850 C   0  0  0  0  0  2  0  0  0  0  0  0
  197.2540  176.2160  136.3250 O   0  0  0  0  0  0  0  0  0  0  0  0
  197.3520  175.0970  135.8450 C   0  0  0  0  0  3  0  0  0  0  0  0
  185.3410  178.5400  142.4030 O   0  0  0  0  0  0  0  0  0  0  0  0
  184.1810  177.9040  142.1070 N   0  0  0  0  0  2  0  0  0  0  0  0
  183.3910  178.8090  141.3840 N   0  0  0  0  0  2  0  0  0  0  0  0
  181.2620  178.7440  142.5120 C   0  0  0  0  0  2  0  0  0  0  0  0
  181.9600  178.7410  141.3770 C   0  0  0  0  0  0  0  0  0  0  0  0
  181.2390  178.6270  140.0800 C   0  0  0  0  0  2  0  0  0  0  0  0
  180.4540  177.3250  140.0320 C   0  0  0  0  0  2  0  0  0  0  0  0
  181.3280  176.1030  139.7480 C   0  0  1  0  0  3  0  0  0  0  0  0
  182.3810  175.9910  137.4360 C   0  0  1  0  0  0  0  0  0  0  0  0
  181.6540  174.7790  137.3320 O   0  0  0  0  0  0  0  0  0  0  0  0
  180.6030  174.9470  139.3780 O   0  0  0  0  0  0  0  0  0  0  0  0
  180.4190  174.9580  137.9820 C   0  0  0  0  0  2  0  0  0  0  0  0
  181.7100  177.0130  136.7820 F   0  0  0  0  0  0  0  0  0  0  0  0
  182.5880  176.3700  138.9070 C   0  0  0  0  0  2  0  0  0  0  0  0
  183.6930  175.5870  135.4240 O   0  0  0  0  0  0  0  0  0  0  0  0
  184.0240  176.9050  135.7840 C   0  0  0  0  0  2  0  0  0  0  0  0
  183.7750  175.8600  136.8040 C   0  0  1  0  0  3  0  0  0  0  0  0
  1 42  1  6  0  0  0
  2  7  1  1  0  0  0
  3  4  1  0  0  0  0
  4  2  1  0  0  0  0
  5  1  1  6  0  0  0
  5  6  1  0  0  0  0
  5  2  1  0  0  0  0
  6  4  1  0  0  0  0
  9 13  1  0  0  0  0
 10  8  1  0  0  0  0
 11 10  2  0  0  0  0
 12  9  2  0  0  0  0
 12 11  1  0  0  0  0
 13  7  1  0  0  0  0
 13  8  2  0  0  0  0
 14 11  1  0  0  0  0
 15 16  1  0  0  0  0
 16 14  1  0  0  0  0
 17 18  2  0  0  0  0
 17  1  1  0  0  0  0
 19 17  1  0  0  0  0
 20 33  1  1  0  0  0
 20 30  1  0  0  0  0
 21 28  1  6  0  0  0
 21 30  1  0  0  0  0
 21 22  1  0  0  0  0
 22 27  1  0  0  0  0
 22 23  1  0  0  0  0
 23 19  1  0  0  0  0
 24 25  1  0  0  0  0
 26 24  2  0  0  0  0
 27 23  1  0  0  0  0
 27 25  1  0  0  0  0
 29 28  1  0  0  0  0
 29 20  1  0  0  0  0
 30 24  1  0  0  0  0
 31 33  2  0  0  0  0
 33 32  1  0  0  0  0
 34 38  1  0  0  0  0
 34 36  1  0  0  0  0
 36 32  1  0  0  0  0
 36 37  1  0  0  0  0
 38 36  1  0  0  0  0
 38 35  2  0  0  0  0
 39 34  1  0  0  0  0
 41 40  2  0  0  0  0
 41 39  1  0  0  0  0
 43 42  1  0  0  0  0
 44 43  1  0  0  0  0
 46 44  1  0  0  0  0
 46 45  2  0  0  0  0
 47 46  1  0  0  0  0
 48 47  1  0  0  0  0
 49 48  1  0  0  0  0
 50 55  1  0  0  0  0
 51 50  1  0  0  0  0
 51 53  1  0  0  0  0
 52 49  1  0  0  0  0
 53 52  1  0  0  0  0
 54 50  1  0  0  0  0
 55 49  1  0  0  0  0
 56 57  1  0  0  0  0
 56 58  1  0  0  0  0
 57 58  1  0  0  0  0
 58 50  1  0  0  0  0
M  END
>  <MODEL>
5

>  <REMARK>
 VINA RESULT:      -7.0      1.533      1.844
  Name = 
  19 active torsions:
  status: ('A' for Active; 'I' for Inactive)
    1  A    between atoms: N_1  and  N_6
    2  A    between atoms: N_1  and  C_57
    3  A    between atoms: C_2  and  C_46
    4  A    between atoms: C_3  and  C_5
    5  A    between atoms: C_3  and  C_22
    6  A    between atoms: N_6  and  O_56
    7  A    between atoms: C_7  and  C_38
    8  A    between atoms: C_9  and  C_51
    9  A    between atoms: C_14  and  C_35
   10  A    between atoms: C_17  and  N_54
   11  A    between atoms: C_22  and  C_57
   12  A    between atoms: C_27  and  C_43
   13  A    between atoms: C_28  and  C_43
   14  A    between atoms: C_30  and  N_42
   15  A    between atoms: C_32  and  C_35
   16  A    between atoms: C_37  and  C_39
   17  A    between atoms: C_37  and  O_45
   18  A    between atoms: C_38  and  C_49
   19  A    between atoms: C_43  and  O_56
                            x       y       z     vdW  Elec       q    Type
                         _______ _______ _______ _____ _____    ______ ____

>  <TORSDO>
F 19

$$$$
=
 OpenBabel11032419123D

 58 65  0  0  1  0  0  0  0  0999 V2000
  186.0020  177.6960  143.5770 C   0  0  2  0  0  3  0  0  0  0  0  0
  185.5230  178.2700  145.9620 C   0  0  1  0  0  3  0  0  0  0  0  0
  183.3930  179.0050  145.5010 N   0  0  0  0  0  1  0  0  0  0  0  0
  184.6660  179.4470  145.8900 N   0  0  0  0  0  0  0  0  0  0  0  0
  186.3040  178.6580  144.7210 C   0  0  2  0  0  3  0  0  0  0  0  0
  185.3670  179.8450  144.6740 C   0  0  0  0  0  2  0  0  0  0  0  0
  186.4300  178.3550  147.1810 C   0  0  0  0  0  2  0  0  0  0  0  0
  188.2950  176.7340  147.5720 C   0  0  0  0  0  3  0  0  0  0  0  0
  188.5740  178.4560  145.8890 C   0  0  0  0  0  3  0  0  0  0  0  0
  189.5850  176.2630  147.3050 C   0  0  0  0  0  3  0  0  0  0  0  0
  190.3730  176.8930  146.3340 C   0  0  0  0  0  0  0  0  0  0  0  0
  189.8630  177.9830  145.6210 C   0  0  0  0  0  3  0  0  0  0  0  0
  187.7910  177.8340  146.8710 C   0  0  0  0  0  0  0  0  0  0  0  0
  191.7520  176.3990  146.0560 C   0  0  0  0  0  2  0  0  0  0  0  0
  192.7910  175.6670  147.8580 C   0  0  0  0  0  1  0  0  0  0  0  0
  192.0010  175.2370  146.7900 O   0  0  0  0  0  0  0  0  0  0  0  0
  187.2660  177.1250  143.0140 C   0  0  0  0  0  0  0  0  0  0  0  0
  187.8640  176.1870  143.6110 O   0  0  0  0  0  0  0  0  0  0  0  0
  187.7920  177.6640  141.8030 N   0  0  0  0  0  2  0  0  0  0  0  0
  191.6440  175.9240  137.7480 C   0  0  2  0  0  3  0  0  0  0  0  0
  189.8620  176.9530  138.8090 C   0  0  1  0  0  3  0  0  0  0  0  0
  189.2510  177.8790  139.8870 C   0  0  1  0  0  3  0  0  0  0  0  0
  188.9830  177.1210  141.1730 C   0  0  1  0  0  3  0  0  0  0  0  0
  191.9990  177.1030  140.0030 C   0  0  0  0  0  0  0  0  0  0  0  0
  191.4340  177.4970  141.3180 C   0  0  0  0  0  2  0  0  0  0  0  0
  193.0790  177.5470  139.6400 O   0  0  0  0  0  0  0  0  0  0  0  0
  190.0730  178.1840  141.1590 C   0  0  1  0  0  3  0  0  0  0  0  0
  190.0290  177.6570  137.5970 O   0  0  0  0  0  0  0  0  0  0  0  0
  191.1600  177.1120  136.9510 C   0  0  0  0  0  2  0  0  0  0  0  0
  191.1450  176.2080  139.1440 C   0  0  2  0  0  3  0  0  0  0  0  0
  193.9160  176.5290  137.3450 O   0  0  0  0  0  0  0  0  0  0  0  0
  193.5770  174.2590  137.7820 N   0  0  0  0  0  2  0  0  0  0  0  0
  193.1050  175.6010  137.6130 C   0  0  0  0  0  0  0  0  0  0  0  0
  195.4340  172.7690  138.3780 C   0  0  2  0  0  3  0  0  0  0  0  0
  196.4310  174.9520  139.5700 O   0  0  0  0  0  0  0  0  0  0  0  0
  194.9760  173.8940  137.6180 C   0  0  1  0  0  0  0  0  0  0  0  0
  195.5640  174.1680  136.3810 O   0  0  0  0  0  1  0  0  0  0  0  0
  195.8470  174.1880  138.8250 C   0  0  0  0  0  0  0  0  0  0  0  0
  196.6390  172.0700  137.7660 C   0  0  0  0  0  2  0  0  0  0  0  0
  195.1140  170.4120  137.0610 O   0  0  0  0  0  0  0  0  0  0  0  0
  196.2730  170.6920  137.3250 C   0  0  0  0  0  3  0  0  0  0  0  0
  185.2910  178.3630  142.5740 O   0  0  0  0  0  0  0  0  0  0  0  0
  184.1470  177.6490  142.4230 N   0  0  0  0  0  2  0  0  0  0  0  0
  183.3040  178.3980  141.5910 N   0  0  0  0  0  2  0  0  0  0  0  0
  183.3080  179.1270  139.2940 C   0  0  0  0  0  2  0  0  0  0  0  0
  183.1920  178.1440  140.1860 C   0  0  0  0  0  0  0  0  0  0  0  0
  182.9030  176.7620  139.7130 C   0  0  0  0  0  2  0  0  0  0  0  0
  181.9280  176.8030  138.5460 C   0  0  0  0  0  2  0  0  0  0  0  0
  182.1140  175.6460  137.5640 C   0  0  1  0  0  3  0  0  0  0  0  0
  184.5160  175.0070  137.0260 C   0  0  1  0  0  0  0  0  0  0  0  0
  184.1390  175.3190  135.6960 O   0  0  0  0  0  0  0  0  0  0  0  0
  182.0010  176.0180  136.2050 O   0  0  0  0  0  0  0  0  0  0  0  0
  183.2670  176.4220  135.7400 C   0  0  0  0  0  2  0  0  0  0  0  0
  185.2120  176.0660  137.5900 F   0  0  0  0  0  0  0  0  0  0  0  0
  183.2800  174.6920  137.8770 C   0  0  0  0  0  2  0  0  0  0  0  0
  185.2950  173.0800  138.2930 O   0  0  0  0  0  0  0  0  0  0  0  0
  184.6440  172.5130  137.1830 C   0  0  0  0  0  2  0  0  0  0  0  0
  185.4220  173.7680  137.0710 C   0  0  1  0  0  3  0  0  0  0  0  0
  1 42  1  6  0  0  0
  2  7  1  1  0  0  0
  3  4  1  0  0  0  0
  4  2  1  0  0  0  0
  5  1  1  6  0  0  0
  5  2  1  0  0  0  0
  6  5  1  0  0  0  0
  6  4  1  0  0  0  0
  9 13  1  0  0  0  0
 10  8  1  0  0  0  0
 11 10  2  0  0  0  0
 12  9  2  0  0  0  0
 12 11  1  0  0  0  0
 13  7  1  0  0  0  0
 13  8  2  0  0  0  0
 14 11  1  0  0  0  0
 14 16  1  0  0  0  0
 16 15  1  0  0  0  0
 17  1  1  0  0  0  0
 17 18  2  0  0  0  0
 19 17  1  0  0  0  0
 20 33  1  1  0  0  0
 20 30  1  0  0  0  0
 21 28  1  6  0  0  0
 21 30  1  0  0  0  0
 21 22  1  0  0  0  0
 22 27  1  0  0  0  0
 22 23  1  0  0  0  0
 23 19  1  0  0  0  0
 24 25  1  0  0  0  0
 26 24  2  0  0  0  0
 27 23  1  0  0  0  0
 27 25  1  0  0  0  0
 29 28  1  0  0  0  0
 29 20  1  0  0  0  0
 30 24  1  0  0  0  0
 31 33  2  0  0  0  0
 33 32  1  0  0  0  0
 34 38  1  0  0  0  0
 36 32  1  0  0  0  0
 36 34  1  0  0  0  0
 36 38  1  0  0  0  0
 37 36  1  0  0  0  0
 38 35  2  0  0  0  0
 39 34  1  0  0  0  0
 40 41  2  0  0  0  0
 41 39  1  0  0  0  0
 43 42  1  0  0  0  0
 44 43  1  0  0  0  0
 45 46  2  0  0  0  0
 46 44  1  0  0  0  0
 47 46  1  0  0  0  0
 48 47  1  0  0  0  0
 49 55  1  0  0  0  0
 49 48  1  0  0  0  0
 50 58  1  0  0  0  0
 50 54  1  0  0  0  0
 50 55  1  0  0  0  0
 51 53  1  0  0  0  0
 51 50  1  0  0  0  0
 52 49  1  0  0  0  0
 53 52  1  0  0  0  0
 57 56  1  0  0  0  0
 58 57  1  0  0  0  0
 58 56  1  0  0  0  0
M  END
>  <MODEL>
6

>  <REMARK>
 VINA RESULT:      -7.0      1.626      2.281
  Name = 
  19 active torsions:
  status: ('A' for Active; 'I' for Inactive)
    1  A    between atoms: N_1  and  N_6
    2  A    between atoms: N_1  and  C_57
    3  A    between atoms: C_2  and  C_46
    4  A    between atoms: C_3  and  C_5
    5  A    between atoms: C_3  and  C_22
    6  A    between atoms: N_6  and  O_56
    7  A    between atoms: C_7  and  C_38
    8  A    between atoms: C_9  and  C_51
    9  A    between atoms: C_14  and  C_35
   10  A    between atoms: C_17  and  N_54
   11  A    between atoms: C_22  and  C_57
   12  A    between atoms: C_27  and  C_43
   13  A    between atoms: C_28  and  C_43
   14  A    between atoms: C_30  and  N_42
   15  A    between atoms: C_32  and  C_35
   16  A    between atoms: C_37  and  C_39
   17  A    between atoms: C_37  and  O_45
   18  A    between atoms: C_38  and  C_49
   19  A    between atoms: C_43  and  O_56
                            x       y       z     vdW  Elec       q    Type
                         _______ _______ _______ _____ _____    ______ ____

>  <TORSDO>
F 19

$$$$
=
 OpenBabel11032419123D

 58 65  0  0  1  0  0  0  0  0999 V2000
  185.1800  179.3320  140.8290 C   0  0  2  0  0  3  0  0  0  0  0  0
  183.5280  178.2280  139.3140 C   0  0  1  0  0  3  0  0  0  0  0  0
  182.6890  180.2270  138.5460 N   0  0  0  0  0  1  0  0  0  0  0  0
  182.3680  179.1120  139.3320 N   0  0  0  0  0  0  0  0  0  0  0  0
  183.8860  178.5290  140.7560 C   0  0  2  0  0  3  0  0  0  0  0  0
  182.6910  179.4570  140.7120 C   0  0  0  0  0  2  0  0  0  0  0  0
  183.0810  176.7780  139.1930 C   0  0  0  0  0  2  0  0  0  0  0  0
  184.7280  176.7910  137.3100 C   0  0  0  0  0  3  0  0  0  0  0  0
  183.3900  174.8030  137.6820 C   0  0  0  0  0  3  0  0  0  0  0  0
  185.3340  176.1760  136.2090 C   0  0  0  0  0  3  0  0  0  0  0  0
  184.9640  174.8770  135.8400 C   0  0  0  0  0  0  0  0  0  0  0  0
  183.9990  174.1890  136.5830 C   0  0  0  0  0  3  0  0  0  0  0  0
  183.7500  176.1080  138.0420 C   0  0  0  0  0  0  0  0  0  0  0  0
  185.6020  174.2240  134.6610 C   0  0  0  0  0  2  0  0  0  0  0  0
  186.9340  172.7100  135.5540 C   0  0  0  0  0  1  0  0  0  0  0  0
  185.7190  172.8500  134.8800 O   0  0  0  0  0  0  0  0  0  0  0  0
  186.3680  178.4490  140.6040 C   0  0  0  0  0  0  0  0  0  0  0  0
  186.9060  177.8440  141.5730 O   0  0  0  0  0  0  0  0  0  0  0  0
  186.8920  178.3130  139.2850 N   0  0  0  0  0  2  0  0  0  0  0  0
  190.8890  175.1830  136.3640 C   0  0  2  0  0  3  0  0  0  0  0  0
  189.2530  176.7290  136.9030 C   0  0  1  0  0  3  0  0  0  0  0  0
  188.6980  177.9150  137.7280 C   0  0  1  0  0  3  0  0  0  0  0  0
  188.0070  177.4300  138.9870 C   0  0  1  0  0  3  0  0  0  0  0  0
  191.0890  176.5650  138.5200 C   0  0  0  0  0  0  0  0  0  0  0  0
  190.3990  177.2620  139.6350 C   0  0  0  0  0  2  0  0  0  0  0  0
  192.2950  176.6970  138.3650 O   0  0  0  0  0  0  0  0  0  0  0  0
  189.3110  178.2070  139.1160 C   0  0  1  0  0  3  0  0  0  0  0  0
  189.8200  177.1950  135.6970 O   0  0  0  0  0  0  0  0  0  0  0  0
  190.8810  176.3220  135.3710 C   0  0  0  0  0  2  0  0  0  0  0  0
  190.2190  175.7710  137.5810 C   0  0  2  0  0  3  0  0  0  0  0  0
  192.2890  173.5210  137.3470 O   0  0  0  0  0  0  0  0  0  0  0  0
  193.4000  175.0230  135.9440 N   0  0  0  0  0  2  0  0  0  0  0  0
  192.2210  174.5240  136.5850 C   0  0  0  0  0  0  0  0  0  0  0  0
  195.4180  174.8800  137.3330 C   0  0  2  0  0  3  0  0  0  0  0  0
  196.5990  176.0720  135.2430 O   0  0  0  0  0  0  0  0  0  0  0  0
  194.7160  174.4420  136.1640 C   0  0  1  0  0  0  0  0  0  0  0  0
  194.9290  173.1480  135.6840 O   0  0  0  0  0  1  0  0  0  0  0  0
  195.8700  175.4040  135.9530 C   0  0  0  0  0  0  0  0  0  0  0  0
  196.4420  173.8750  137.8420 C   0  0  0  0  0  2  0  0  0  0  0  0
  196.2880  175.0580  139.8790 O   0  0  0  0  0  0  0  0  0  0  0  0
  196.9200  174.2620  139.2020 C   0  0  0  0  0  3  0  0  0  0  0  0
  185.2800  179.9580  142.0750 O   0  0  0  0  0  0  0  0  0  0  0  0
  184.6790  179.1060  142.9430 N   0  0  0  0  0  2  0  0  0  0  0  0
  185.0620  179.4990  144.2330 N   0  0  0  0  0  2  0  0  0  0  0  0
  183.1420  178.6460  145.4140 C   0  0  0  0  0  2  0  0  0  0  0  0
  184.4320  178.9790  145.4100 C   0  0  0  0  0  0  0  0  0  0  0  0
  185.2220  178.8430  146.6640 C   0  0  0  0  0  2  0  0  0  0  0  0
  186.7040  179.0220  146.3680 C   0  0  0  0  0  2  0  0  0  0  0  0
  187.4850  177.7070  146.3800 C   0  0  1  0  0  3  0  0  0  0  0  0
  189.4110  177.5330  144.7290 C   0  0  1  0  0  0  0  0  0  0  0  0
  188.6800  176.4280  144.2280 O   0  0  0  0  0  0  0  0  0  0  0  0
  186.8740  176.6660  145.6430 O   0  0  0  0  0  0  0  0  0  0  0  0
  187.3110  176.7440  144.3070 C   0  0  0  0  0  2  0  0  0  0  0  0
  189.1950  178.6530  143.9400 F   0  0  0  0  0  0  0  0  0  0  0  0
  189.0040  177.8370  146.1760 C   0  0  0  0  0  2  0  0  0  0  0  0
  191.4100  177.0210  143.4350 O   0  0  0  0  0  0  0  0  0  0  0  0
  191.6880  178.2770  144.0040 C   0  0  0  0  0  2  0  0  0  0  0  0
  190.9200  177.2450  144.7370 C   0  0  1  0  0  3  0  0  0  0  0  0
  1 17  1  1  0  0  0
  1 42  1  0  0  0  0
  2  7  1  1  0  0  0
  2  4  1  0  0  0  0
  2  5  1  0  0  0  0
  3  4  1  0  0  0  0
  4  6  1  0  0  0  0
  5  1  1  6  0  0  0
  6  5  1  0  0  0  0
  8 13  1  0  0  0  0
  9 13  2  0  0  0  0
 10  8  2  0  0  0  0
 11 10  1  0  0  0  0
 11 12  2  0  0  0  0
 12  9  1  0  0  0  0
 13  7  1  0  0  0  0
 14 16  1  0  0  0  0
 14 11  1  0  0  0  0
 16 15  1  0  0  0  0
 17 18  2  0  0  0  0
 19 17  1  0  0  0  0
 20 33  1  1  0  0  0
 20 30  1  0  0  0  0
 21 28  1  6  0  0  0
 21 30  1  0  0  0  0
 21 22  1  0  0  0  0
 22 23  1  0  0  0  0
 22 27  1  0  0  0  0
 23 27  1  0  0  0  0
 23 19  1  0  0  0  0
 24 25  1  0  0  0  0
 26 24  2  0  0  0  0
 27 25  1  0  0  0  0
 29 28  1  0  0  0  0
 29 20  1  0  0  0  0
 30 24  1  0  0  0  0
 32 36  1  0  0  0  0
 32 33  1  0  0  0  0
 33 31  2  0  0  0  0
 34 39  1  0  0  0  0
 35 38  2  0  0  0  0
 36 34  1  0  0  0  0
 37 36  1  0  0  0  0
 38 36  1  0  0  0  0
 38 34  1  0  0  0  0
 39 41  1  0  0  0  0
 41 40  2  0  0  0  0
 42 43  1  0  0  0  0
 43 44  1  0  0  0  0
 44 46  1  0  0  0  0
 46 45  2  0  0  0  0
 46 47  1  0  0  0  0
 48 49  1  0  0  0  0
 48 47  1  0  0  0  0
 50 58  1  0  0  0  0
 50 55  1  0  0  0  0
 51 53  1  0  0  0  0
 51 50  1  0  0  0  0
 52 49  1  0  0  0  0
 53 52  1  0  0  0  0
 54 50  1  0  0  0  0
 55 49  1  0  0  0  0
 56 57  1  0  0  0  0
 56 58  1  0  0  0  0
 57 58  1  0  0  0  0
M  END
>  <MODEL>
7

>  <REMARK>
 VINA RESULT:      -6.9      2.272      6.647
  Name = 
  19 active torsions:
  status: ('A' for Active; 'I' for Inactive)
    1  A    between atoms: N_1  and  N_6
    2  A    between atoms: N_1  and  C_57
    3  A    between atoms: C_2  and  C_46
    4  A    between atoms: C_3  and  C_5
    5  A    between atoms: C_3  and  C_22
    6  A    between atoms: N_6  and  O_56
    7  A    between atoms: C_7  and  C_38
    8  A    between atoms: C_9  and  C_51
    9  A    between atoms: C_14  and  C_35
   10  A    between atoms: C_17  and  N_54
   11  A    between atoms: C_22  and  C_57
   12  A    between atoms: C_27  and  C_43
   13  A    between atoms: C_28  and  C_43
   14  A    between atoms: C_30  and  N_42
   15  A    between atoms: C_32  and  C_35
   16  A    between atoms: C_37  and  C_39
   17  A    between atoms: C_37  and  O_45
   18  A    between atoms: C_38  and  C_49
   19  A    between atoms: C_43  and  O_56
                            x       y       z     vdW  Elec       q    Type
                         _______ _______ _______ _____ _____    ______ ____

>  <TORSDO>
F 19

$$$$
=
 OpenBabel11032419123D

 58 65  0  0  1  0  0  0  0  0999 V2000
  185.8960  177.4690  143.6590 C   0  0  2  0  0  3  0  0  0  0  0  0
  185.7430  178.3900  145.9770 C   0  0  1  0  0  3  0  0  0  0  0  0
  183.4500  178.5570  145.9060 N   0  0  0  0  0  1  0  0  0  0  0  0
  184.6240  179.3240  145.9260 N   0  0  0  0  0  0  0  0  0  0  0  0
  186.1590  178.6800  144.5490 C   0  0  2  0  0  3  0  0  0  0  0  0
  184.9670  179.6110  144.5380 C   0  0  0  0  0  2  0  0  0  0  0  0
  186.8100  178.9030  146.9330 C   0  0  0  0  0  2  0  0  0  0  0  0
  188.9320  178.5570  145.6540 C   0  0  0  0  0  3  0  0  0  0  0  0
  188.4790  177.1470  147.5740 C   0  0  0  0  0  3  0  0  0  0  0  0
  190.1300  177.8680  145.4330 C   0  0  0  0  0  3  0  0  0  0  0  0
  190.4990  176.8150  146.2780 C   0  0  0  0  0  0  0  0  0  0  0  0
  189.6780  176.4620  147.3530 C   0  0  0  0  0  3  0  0  0  0  0  0
  188.1020  178.1920  146.7200 C   0  0  0  0  0  0  0  0  0  0  0  0
  191.7710  176.0740  146.0370 C   0  0  0  0  0  2  0  0  0  0  0  0
  191.8050  174.6980  144.3140 C   0  0  0  0  0  1  0  0  0  0  0  0
  192.0450  176.0270  144.6680 O   0  0  0  0  0  0  0  0  0  0  0  0
  187.1750  176.9430  143.0840 C   0  0  0  0  0  0  0  0  0  0  0  0
  187.7890  175.9970  143.6520 O   0  0  0  0  0  0  0  0  0  0  0  0
  187.6960  177.5340  141.8960 N   0  0  0  0  0  2  0  0  0  0  0  0
  191.5660  175.9230  137.8050 C   0  0  2  0  0  3  0  0  0  0  0  0
  189.7550  176.8840  138.8810 C   0  0  1  0  0  3  0  0  0  0  0  0
  189.1190  177.7930  139.9590 C   0  0  1  0  0  3  0  0  0  0  0  0
  188.9010  177.0370  141.2550 C   0  0  1  0  0  3  0  0  0  0  0  0
  191.9000  177.1390  140.0430 C   0  0  0  0  0  0  0  0  0  0  0  0
  191.3350  177.5200  141.3630 C   0  0  0  0  0  2  0  0  0  0  0  0
  192.9540  177.6250  139.6620 O   0  0  0  0  0  0  0  0  0  0  0  0
  189.9440  178.1460  141.2160 C   0  0  1  0  0  3  0  0  0  0  0  0
  189.8750  177.5830  137.6600 O   0  0  0  0  0  0  0  0  0  0  0  0
  191.0210  177.0820  137.0030 C   0  0  0  0  0  2  0  0  0  0  0  0
  191.0730  176.1990  139.2050 C   0  0  2  0  0  3  0  0  0  0  0  0
  193.7450  176.4920  137.0180 O   0  0  0  0  0  0  0  0  0  0  0  0
  193.6360  174.4890  138.2160 N   0  0  0  0  0  2  0  0  0  0  0  0
  193.0380  175.6630  137.6530 C   0  0  0  0  0  0  0  0  0  0  0  0
  195.4550  173.7210  136.7600 C   0  0  2  0  0  3  0  0  0  0  0  0
  195.4430  171.5670  138.3550 O   0  0  0  0  0  0  0  0  0  0  0  0
  195.0480  174.1760  138.0560 C   0  0  1  0  0  0  0  0  0  0  0  0
  195.9520  174.8890  138.8460 O   0  0  0  0  0  1  0  0  0  0  0  0
  195.3490  172.6960  137.9100 C   0  0  0  0  0  0  0  0  0  0  0  0
  196.9250  173.9780  136.4590 C   0  0  0  0  0  2  0  0  0  0  0  0
  197.5770  176.2130  136.0680 O   0  0  0  0  0  0  0  0  0  0  0  0
  197.0760  175.1970  135.6110 C   0  0  0  0  0  3  0  0  0  0  0  0
  185.0180  177.8210  142.6290 O   0  0  0  0  0  0  0  0  0  0  0  0
  185.7030  178.7180  141.8770 N   0  0  0  0  0  2  0  0  0  0  0  0
  184.7730  179.3350  141.0290 N   0  0  0  0  0  2  0  0  0  0  0  0
  182.4710  178.8970  141.5940 C   0  0  0  0  0  2  0  0  0  0  0  0
  183.4920  178.7590  140.7480 C   0  0  0  0  0  0  0  0  0  0  0  0
  183.3050  177.9590  139.5070 C   0  0  0  0  0  2  0  0  0  0  0  0
  181.9770  178.3100  138.8550 C   0  0  0  0  0  2  0  0  0  0  0  0
  182.0910  179.4290  137.8180 C   0  0  1  0  0  3  0  0  0  0  0  0
  180.3400  181.2680  137.9570 C   0  0  1  0  0  0  0  0  0  0  0  0
  180.0280  180.8590  136.6370 O   0  0  0  0  0  0  0  0  0  0  0  0
  181.5290  179.1090  136.5600 O   0  0  0  0  0  0  0  0  0  0  0  0
  180.1650  179.4600  136.5730 C   0  0  0  0  0  2  0  0  0  0  0  0
  179.4400  180.7200  138.8580 F   0  0  0  0  0  0  0  0  0  0  0  0
  181.7650  180.8420  138.3300 C   0  0  0  0  0  2  0  0  0  0  0  0
  181.3000  183.4260  137.3610 O   0  0  0  0  0  0  0  0  0  0  0  0
  180.0110  183.4620  136.7990 C   0  0  0  0  0  2  0  0  0  0  0  0
  180.2760  182.7960  138.0950 C   0  0  1  0  0  3  0  0  0  0  0  0
  1 42  1  6  0  0  0
  2  7  1  1  0  0  0
  3  4  1  0  0  0  0
  4  2  1  0  0  0  0
  5  1  1  6  0  0  0
  5  2  1  0  0  0  0
  6  5  1  0  0  0  0
  6  4  1  0  0  0  0
  8 13  1  0  0  0  0
 10  8  2  0  0  0  0
 10 11  1  0  0  0  0
 11 12  2  0  0  0  0
 12  9  1  0  0  0  0
 13  7  1  0  0  0  0
 13  9  2  0  0  0  0
 14 11  1  0  0  0  0
 15 16  1  0  0  0  0
 16 14  1  0  0  0  0
 17 18  2  0  0  0  0
 17  1  1  0  0  0  0
 19 17  1  0  0  0  0
 20 33  1  1  0  0  0
 20 30  1  0  0  0  0
 21 28  1  6  0  0  0
 21 30  1  0  0  0  0
 21 22  1  0  0  0  0
 22 27  1  0  0  0  0
 22 23  1  0  0  0  0
 23 19  1  0  0  0  0
 24 25  1  0  0  0  0
 26 24  2  0  0  0  0
 27 23  1  0  0  0  0
 27 25  1  0  0  0  0
 29 28  1  0  0  0  0
 29 20  1  0  0  0  0
 30 24  1  0  0  0  0
 31 33  2  0  0  0  0
 33 32  1  0  0  0  0
 34 38  1  0  0  0  0
 34 36  1  0  0  0  0
 36 32  1  0  0  0  0
 36 37  1  0  0  0  0
 38 36  1  0  0  0  0
 38 35  2  0  0  0  0
 39 34  1  0  0  0  0
 41 40  2  0  0  0  0
 41 39  1  0  0  0  0
 43 42  1  0  0  0  0
 44 43  1  0  0  0  0
 46 44  1  0  0  0  0
 46 45  2  0  0  0  0
 47 46  1  0  0  0  0
 48 47  1  0  0  0  0
 49 55  1  0  0  0  0
 49 48  1  0  0  0  0
 50 58  1  0  0  0  0
 50 55  1  0  0  0  0
 50 54  1  0  0  0  0
 51 50  1  0  0  0  0
 52 53  1  0  0  0  0
 52 49  1  0  0  0  0
 53 51  1  0  0  0  0
 56 58  1  0  0  0  0
 57 56  1  0  0  0  0
 57 58  1  0  0  0  0
M  END
>  <MODEL>
8

>  <REMARK>
 VINA RESULT:      -6.6      2.115      2.996
  Name = 
  19 active torsions:
  status: ('A' for Active; 'I' for Inactive)
    1  A    between atoms: N_1  and  N_6
    2  A    between atoms: N_1  and  C_57
    3  A    between atoms: C_2  and  C_46
    4  A    between atoms: C_3  and  C_5
    5  A    between atoms: C_3  and  C_22
    6  A    between atoms: N_6  and  O_56
    7  A    between atoms: C_7  and  C_38
    8  A    between atoms: C_9  and  C_51
    9  A    between atoms: C_14  and  C_35
   10  A    between atoms: C_17  and  N_54
   11  A    between atoms: C_22  and  C_57
   12  A    between atoms: C_27  and  C_43
   13  A    between atoms: C_28  and  C_43
   14  A    between atoms: C_30  and  N_42
   15  A    between atoms: C_32  and  C_35
   16  A    between atoms: C_37  and  C_39
   17  A    between atoms: C_37  and  O_45
   18  A    between atoms: C_38  and  C_49
   19  A    between atoms: C_43  and  O_56
                            x       y       z     vdW  Elec       q    Type
                         _______ _______ _______ _____ _____    ______ ____

>  <TORSDO>
F 19

$$$$
=
 OpenBabel11032419123D

 58 65  0  0  1  0  0  0  0  0999 V2000
  190.3100  177.8400  141.5770 C   0  0  2  0  0  3  0  0  0  0  0  0
  190.1910  178.0450  144.0650 C   0  0  1  0  0  3  0  0  0  0  0  0
  191.7200  179.7630  144.1330 N   0  0  0  0  0  1  0  0  0  0  0  0
  191.5450  178.4120  144.4660 N   0  0  0  0  0  0  0  0  0  0  0  0
  190.6740  177.1920  142.9090 C   0  0  2  0  0  3  0  0  0  0  0  0
  192.0560  177.6290  143.3470 C   0  0  0  0  0  2  0  0  0  0  0  0
  189.5530  177.1560  145.1230 C   0  0  0  0  0  2  0  0  0  0  0  0
  187.2370  177.5080  144.2450 C   0  0  0  0  0  3  0  0  0  0  0  0
  187.6650  177.8780  146.6020 C   0  0  0  0  0  3  0  0  0  0  0  0
  185.9010  177.8770  144.4300 C   0  0  0  0  0  3  0  0  0  0  0  0
  185.4470  178.2530  145.7000 C   0  0  0  0  0  0  0  0  0  0  0  0
  186.3270  178.2440  146.7860 C   0  0  0  0  0  3  0  0  0  0  0  0
  188.1220  177.5160  145.3290 C   0  0  0  0  0  0  0  0  0  0  0  0
  184.0250  178.6560  145.8960 C   0  0  0  0  0  2  0  0  0  0  0  0
  182.4770  178.6840  144.3250 C   0  0  0  0  0  1  0  0  0  0  0  0
  183.5810  179.3960  144.7970 O   0  0  0  0  0  0  0  0  0  0  0  0
  188.9610  177.3840  141.1150 C   0  0  0  0  0  0  0  0  0  0  0  0
  188.4110  176.3780  141.6450 O   0  0  0  0  0  0  0  0  0  0  0  0
  188.3120  178.0920  140.0610 N   0  0  0  0  0  2  0  0  0  0  0  0
  182.5700  178.3210  138.9300 C   0  0  2  0  0  3  0  0  0  0  0  0
  184.7450  178.9100  139.4610 C   0  0  1  0  0  3  0  0  0  0  0  0
  186.2600  178.9970  139.1590 C   0  0  1  0  0  3  0  0  0  0  0  0
  186.9800  177.7380  139.6030 C   0  0  1  0  0  3  0  0  0  0  0  0
  184.5230  177.4270  137.5210 C   0  0  0  0  0  0  0  0  0  0  0  0
  185.9430  176.9950  137.4720 C   0  0  0  0  0  2  0  0  0  0  0  0
  183.8860  177.5660  136.4870 O   0  0  0  0  0  0  0  0  0  0  0  0
  186.8670  178.0360  138.1130 C   0  0  1  0  0  3  0  0  0  0  0  0
  184.1070  180.1210  139.1160 O   0  0  0  0  0  0  0  0  0  0  0  0
  182.7940  179.7990  138.7060 C   0  0  0  0  0  2  0  0  0  0  0  0
  183.9620  177.7420  138.8840 C   0  0  2  0  0  3  0  0  0  0  0  0
  180.9180  178.3910  137.2100 O   0  0  0  0  0  0  0  0  0  0  0  0
  181.2810  176.2720  138.1260 N   0  0  0  0  0  2  0  0  0  0  0  0
  181.5460  177.6770  138.0390 C   0  0  0  0  0  0  0  0  0  0  0  0
  180.5980  174.3110  136.8180 C   0  0  2  0  0  3  0  0  0  0  0  0
  180.7840  175.9870  134.7350 O   0  0  0  0  0  0  0  0  0  0  0  0
  180.2690  175.6150  137.3130 C   0  0  1  0  0  0  0  0  0  0  0  0
  178.9340  175.9270  137.5830 O   0  0  0  0  0  1  0  0  0  0  0  0
  180.6190  175.5060  135.8410 C   0  0  0  0  0  0  0  0  0  0  0  0
  179.3800  173.4470  136.5200 C   0  0  0  0  0  2  0  0  0  0  0  0
  180.3800  171.6330  137.6520 O   0  0  0  0  0  0  0  0  0  0  0  0
  179.7110  172.0030  136.7000 C   0  0  0  0  0  3  0  0  0  0  0  0
  191.2750  177.5230  140.6170 O   0  0  0  0  0  0  0  0  0  0  0  0
  190.8270  176.3840  140.0320 N   0  0  0  0  0  2  0  0  0  0  0  0
  191.0500  176.5160  138.6550 N   0  0  0  0  0  2  0  0  0  0  0  0
  190.9250  174.6030  137.1930 C   0  0  0  0  0  2  0  0  0  0  0  0
  191.6610  175.4800  137.8750 C   0  0  0  0  0  0  0  0  0  0  0  0
  193.1430  175.3570  137.8560 C   0  0  0  0  0  2  0  0  0  0  0  0
  193.7230  176.2140  136.7400 C   0  0  0  0  0  2  0  0  0  0  0  0
  194.3860  175.3940  135.6320 C   0  0  1  0  0  3  0  0  0  0  0  0
  196.5820  174.2620  136.2360 C   0  0  1  0  0  0  0  0  0  0  0  0
  197.1000  175.0460  135.1760 O   0  0  0  0  0  0  0  0  0  0  0  0
  195.1370  176.1650  134.7140 O   0  0  0  0  0  0  0  0  0  0  0  0
  196.4510  176.2940  135.2030 C   0  0  0  0  0  2  0  0  0  0  0  0
  196.8650  174.8530  137.4580 F   0  0  0  0  0  0  0  0  0  0  0  0
  195.0650  174.0910  136.0870 C   0  0  0  0  0  2  0  0  0  0  0  0
  198.2900  172.7690  137.1200 O   0  0  0  0  0  0  0  0  0  0  0  0
  197.0820  172.2000  137.5620 C   0  0  0  0  0  2  0  0  0  0  0  0
  197.1950  172.8540  136.2380 C   0  0  1  0  0  3  0  0  0  0  0  0
  1 42  1  6  0  0  0
  2  4  1  0  0  0  0
  2  7  1  1  0  0  0
  3  4  1  0  0  0  0
  5  1  1  6  0  0  0
  5  6  1  0  0  0  0
  5  2  1  0  0  0  0
  6  4  1  0  0  0  0
  7 13  1  0  0  0  0
  8 10  2  0  0  0  0
  8 13  1  0  0  0  0
  9 12  1  0  0  0  0
 10 11  1  0  0  0  0
 11 14  1  0  0  0  0
 11 12  2  0  0  0  0
 13  9  2  0  0  0  0
 15 16  1  0  0  0  0
 16 14  1  0  0  0  0
 17  1  1  0  0  0  0
 17 18  2  0  0  0  0
 19 17  1  0  0  0  0
 20 33  1  6  0  0  0
 21 28  1  6  0  0  0
 22 21  1  0  0  0  0
 22 23  1  0  0  0  0
 23 19  1  0  0  0  0
 24 30  1  0  0  0  0
 25 24  1  0  0  0  0
 25 27  1  0  0  0  0
 26 24  2  0  0  0  0
 27 22  1  0  0  0  0
 27 23  1  0  0  0  0
 29 20  1  0  0  0  0
 29 28  1  0  0  0  0
 30 20  1  0  0  0  0
 30 21  1  0  0  0  0
 31 33  2  0  0  0  0
 33 32  1  0  0  0  0
 34 36  1  0  0  0  0
 35 38  2  0  0  0  0
 36 37  1  0  0  0  0
 36 32  1  0  0  0  0
 38 34  1  0  0  0  0
 38 36  1  0  0  0  0
 39 41  1  0  0  0  0
 39 34  1  0  0  0  0
 41 40  2  0  0  0  0
 43 42  1  0  0  0  0
 44 43  1  0  0  0  0
 45 46  2  0  0  0  0
 46 44  1  0  0  0  0
 47 46  1  0  0  0  0
 48 47  1  0  0  0  0
 49 55  1  0  0  0  0
 49 48  1  0  0  0  0
 50 58  1  0  0  0  0
 50 54  1  0  0  0  0
 51 53  1  0  0  0  0
 51 50  1  0  0  0  0
 52 53  1  0  0  0  0
 52 49  1  0  0  0  0
 55 50  1  0  0  0  0
 56 57  1  0  0  0  0
 58 56  1  0  0  0  0
 58 57  1  0  0  0  0
M  END
>  <MODEL>
9

>  <REMARK>
 VINA RESULT:      -6.6      3.360     10.108
  Name = 
  19 active torsions:
  status: ('A' for Active; 'I' for Inactive)
    1  A    between atoms: N_1  and  N_6
    2  A    between atoms: N_1  and  C_57
    3  A    between atoms: C_2  and  C_46
    4  A    between atoms: C_3  and  C_5
    5  A    between atoms: C_3  and  C_22
    6  A    between atoms: N_6  and  O_56
    7  A    between atoms: C_7  and  C_38
    8  A    between atoms: C_9  and  C_51
    9  A    between atoms: C_14  and  C_35
   10  A    between atoms: C_17  and  N_54
   11  A    between atoms: C_22  and  C_57
   12  A    between atoms: C_27  and  C_43
   13  A    between atoms: C_28  and  C_43
   14  A    between atoms: C_30  and  N_42
   15  A    between atoms: C_32  and  C_35
   16  A    between atoms: C_37  and  C_39
   17  A    between atoms: C_37  and  O_45
   18  A    between atoms: C_38  and  C_49
   19  A    between atoms: C_43  and  O_56
                            x       y       z     vdW  Elec       q    Type
                         _______ _______ _______ _____ _____    ______ ____

>  <TORSDO>
F 19

$$$$
