=
 OpenBabel11042412053D

 30 31  0  0  1  0  0  0  0  0999 V2000
  185.1500  179.2470  145.1670 C   0  0  2  0  0  3  0  0  0  0  0  0
  188.3430  177.4000  145.2290 C   0  0  2  0  0  3  0  0  0  0  0  0
  187.4020  178.2640  147.7320 N   0  0  0  0  0  0  0  0  0  0  0  0
  186.5810  178.2560  146.7230 C   0  0  0  0  0  0  0  0  0  0  0  0
  185.9770  177.9170  143.2040 C   0  0  0  0  0  2  0  0  0  0  0  0
  189.0770  177.0510  146.5020 C   0  0  0  0  0  3  0  0  0  0  0  0
  186.0330  178.2190  144.5030 C   0  0  0  0  0  0  0  0  0  0  0  0
  188.6190  177.5020  147.6790 C   0  0  0  0  0  3  0  0  0  0  0  0
  185.5640  179.2320  146.5620 N   0  0  0  0  0  2  0  0  0  0  0  0
  186.8320  177.4420  145.5010 C   0  0  1  0  0  3  0  0  0  0  0  0
  183.6780  178.8610  145.0770 C   0  0  0  0  0  2  0  0  0  0  0  0
  183.0030  179.7410  144.2310 O   0  0  0  0  0  0  0  0  0  0  0  0
  181.9800  178.9780  143.6720 C   0  0  0  0  0  2  0  0  0  0  0  0
  182.3180  178.6730  142.2300 C   0  0  0  0  0  2  0  0  0  0  0  0
  181.0520  178.6530  141.4000 C   0  0  0  0  0  2  0  0  0  0  0  0
  181.3080  178.0070  140.1900 O   0  0  0  0  0  0  0  0  0  0  0  0
  181.9060  178.9810  139.3860 C   0  0  0  0  0  2  0  0  0  0  0  0
  185.3840  178.2600  137.9860 N   0  0  0  0  0  1  0  0  0  0  0  0
  183.0110  178.3910  138.6420 N   0  0  0  0  0  2  0  0  0  0  0  0
  184.3470  178.8880  138.7310 C   0  0  0  0  0  0  0  0  0  0  0  0
  184.6160  179.8770  139.4640 O   0  0  0  0  0  0  0  0  0  0  0  0
  188.6410  176.4070  144.2120 N   0  0  0  0  0  2  0  0  0  0  0  0
  189.8930  177.0940  142.0340 C   0  0  0  0  0  0  0  0  0  0  0  0
  189.3150  176.7760  143.0410 C   0  0  0  0  0  0  0  0  0  0  0  0
  190.5950  177.4830  140.8080 C   0  0  0  0  0  2  0  0  0  0  0  0
  189.7110  177.2390  139.5970 C   0  0  2  0  0  3  0  0  0  0  0  0
  190.4980  177.0030  138.4660 O   0  0  0  0  0  1  0  0  0  0  0  0
  188.8210  178.4140  139.3660 C   0  0  0  0  0  0  0  0  0  0  0  0
  187.8360  178.6310  140.1220 O   0  0  0  0  0  1  0  0  0  0  0  0
  189.0680  179.2620  138.2960 O   0  0  0  0  0  0  0  0  0  0  0  0
  1 11  1  1  0  0  0
  1  9  1  0  0  0  0
  2 22  1  6  0  0  0
  2 10  1  0  0  0  0
  2  6  1  0  0  0  0
  4  3  2  0  0  0  0
  5  7  2  0  0  0  0
  6  8  2  0  0  0  0
  7  1  1  0  0  0  0
  8  3  1  0  0  0  0
  9  4  1  0  0  0  0
 10  7  1  6  0  0  0
 10  4  1  0  0  0  0
 12 11  1  0  0  0  0
 13 12  1  0  0  0  0
 14 13  1  0  0  0  0
 15 14  1  0  0  0  0
 16 15  1  0  0  0  0
 17 16  1  0  0  0  0
 18 20  1  0  0  0  0
 19 20  1  0  0  0  0
 19 17  1  0  0  0  0
 20 21  2  0  0  0  0
 23 24  3  0  0  0  0
 24 22  1  0  0  0  0
 25 23  1  0  0  0  0
 26 27  1  6  0  0  0
 26 25  1  0  0  0  0
 28 26  1  0  0  0  0
 28 29  1  0  0  0  0
 30 28  2  0  0  0  0
M  END
>  <MODEL>
1

>  <REMARK>
 VINA RESULT:      -7.2      0.000      0.000
  Name = 
  13 active torsions:
  status: ('A' for Active; 'I' for Inactive)
    1  A    between atoms: C_1  and  C_8
    2  A    between atoms: C_2  and  C_24
    3  A    between atoms: C_3  and  N_30
    4  A    between atoms: O_5  and  C_20
    5  A    between atoms: O_5  and  C_26
    6  A    between atoms: C_7  and  C_8
    7  A    between atoms: C_7  and  C_11
    8  A    between atoms: N_9  and  C_26
    9  A    between atoms: C_20  and  C_21
   10  A    between atoms: C_21  and  C_25
   11  A    between atoms: C_24  and  O_27
   12  A    between atoms: C_25  and  O_27
   13  A    between atoms: C_29  and  N_30
                            x       y       z     vdW  Elec       q    Type
                         _______ _______ _______ _____ _____    ______ ____

>  <TORSDO>
F 13

$$$$
=
 OpenBabel11042412053D

 30 31  0  0  1  0  0  0  0  0999 V2000
  187.4000  178.0600  145.5570 C   0  0  2  0  0  3  0  0  0  0  0  0
  190.3980  176.7420  143.8590 C   0  0  2  0  0  3  0  0  0  0  0  0
  190.6470  177.1040  146.6350 N   0  0  0  0  0  0  0  0  0  0  0  0
  189.4580  177.1040  146.1070 C   0  0  0  0  0  0  0  0  0  0  0  0
  187.3340  177.1520  143.2180 C   0  0  0  0  0  2  0  0  0  0  0  0
  191.6600  176.3430  144.5890 C   0  0  0  0  0  3  0  0  0  0  0  0
  187.9570  177.2810  144.3910 C   0  0  0  0  0  0  0  0  0  0  0  0
  191.7590  176.5550  145.9090 C   0  0  0  0  0  3  0  0  0  0  0  0
  188.4080  177.9230  146.5980 N   0  0  0  0  0  2  0  0  0  0  0  0
  189.1820  176.5110  144.7690 C   0  0  1  0  0  3  0  0  0  0  0  0
  186.0860  177.4660  146.0500 C   0  0  0  0  0  2  0  0  0  0  0  0
  185.2320  178.4820  146.4800 O   0  0  0  0  0  0  0  0  0  0  0  0
  184.8820  179.1630  145.3170 C   0  0  0  0  0  2  0  0  0  0  0  0
  183.3820  179.0990  145.1370 C   0  0  0  0  0  2  0  0  0  0  0  0
  183.0540  178.6630  143.7240 C   0  0  0  0  0  2  0  0  0  0  0  0
  184.2290  178.6280  142.9710 O   0  0  0  0  0  0  0  0  0  0  0  0
  183.8870  177.9300  141.8110 C   0  0  0  0  0  2  0  0  0  0  0  0
  184.2420  180.2550  138.8030 N   0  0  0  0  0  1  0  0  0  0  0  0
  183.5940  178.8740  140.7390 N   0  0  0  0  0  2  0  0  0  0  0  0
  184.5960  179.3420  139.8350 C   0  0  0  0  0  0  0  0  0  0  0  0
  185.7890  178.9510  139.9420 O   0  0  0  0  0  0  0  0  0  0  0  0
  190.2720  175.9530  142.6470 N   0  0  0  0  0  2  0  0  0  0  0  0
  190.1280  177.1270  140.3260 C   0  0  0  0  0  0  0  0  0  0  0  0
  190.1960  176.5840  141.3980 C   0  0  0  0  0  0  0  0  0  0  0  0
  190.0440  177.7900  139.0210 C   0  0  0  0  0  2  0  0  0  0  0  0
  188.6590  177.6000  138.4260 C   0  0  2  0  0  3  0  0  0  0  0  0
  188.5270  176.3030  137.9200 O   0  0  0  0  0  1  0  0  0  0  0  0
  188.4260  178.5990  137.3420 C   0  0  0  0  0  0  0  0  0  0  0  0
  188.9510  179.7430  137.4010 O   0  0  0  0  0  1  0  0  0  0  0  0
  187.6050  178.2700  136.2720 O   0  0  0  0  0  0  0  0  0  0  0  0
  1 11  1  1  0  0  0
  1  9  1  0  0  0  0
  2 22  1  6  0  0  0
  2  6  1  0  0  0  0
  2 10  1  0  0  0  0
  4  9  1  0  0  0  0
  4  3  2  0  0  0  0
  5  7  2  0  0  0  0
  6  8  2  0  0  0  0
  7  1  1  0  0  0  0
  8  3  1  0  0  0  0
 10  7  1  6  0  0  0
 10  4  1  0  0  0  0
 11 12  1  0  0  0  0
 13 12  1  0  0  0  0
 14 13  1  0  0  0  0
 15 14  1  0  0  0  0
 16 15  1  0  0  0  0
 17 16  1  0  0  0  0
 18 20  1  0  0  0  0
 19 17  1  0  0  0  0
 20 21  2  0  0  0  0
 20 19  1  0  0  0  0
 23 24  3  0  0  0  0
 24 22  1  0  0  0  0
 25 23  1  0  0  0  0
 26 27  1  6  0  0  0
 26 25  1  0  0  0  0
 28 29  1  0  0  0  0
 28 26  1  0  0  0  0
 30 28  2  0  0  0  0
M  END
>  <MODEL>
2

>  <REMARK>
 VINA RESULT:      -7.0      1.838      2.719
  Name = 
  13 active torsions:
  status: ('A' for Active; 'I' for Inactive)
    1  A    between atoms: C_1  and  C_8
    2  A    between atoms: C_2  and  C_24
    3  A    between atoms: C_3  and  N_30
    4  A    between atoms: O_5  and  C_20
    5  A    between atoms: O_5  and  C_26
    6  A    between atoms: C_7  and  C_8
    7  A    between atoms: C_7  and  C_11
    8  A    between atoms: N_9  and  C_26
    9  A    between atoms: C_20  and  C_21
   10  A    between atoms: C_21  and  C_25
   11  A    between atoms: C_24  and  O_27
   12  A    between atoms: C_25  and  O_27
   13  A    between atoms: C_29  and  N_30
                            x       y       z     vdW  Elec       q    Type
                         _______ _______ _______ _____ _____    ______ ____

>  <TORSDO>
F 13

$$$$
=
 OpenBabel11042412053D

 30 31  0  0  1  0  0  0  0  0999 V2000
  187.6110  176.8870  143.0580 C   0  0  2  0  0  3  0  0  0  0  0  0
  185.4390  178.4360  145.6060 C   0  0  2  0  0  3  0  0  0  0  0  0
  187.8840  177.4280  146.5580 N   0  0  0  0  0  0  0  0  0  0  0  0
  187.7340  177.6020  145.2780 C   0  0  0  0  0  0  0  0  0  0  0  0
  185.6360  178.3150  142.4570 C   0  0  0  0  0  2  0  0  0  0  0  0
  185.8400  178.6000  147.0530 C   0  0  0  0  0  3  0  0  0  0  0  0
  186.5250  177.8920  143.3570 C   0  0  0  0  0  0  0  0  0  0  0  0
  187.0010  178.0840  147.4840 C   0  0  0  0  0  3  0  0  0  0  0  0
  188.3220  176.7370  144.3190 N   0  0  0  0  0  2  0  0  0  0  0  0
  186.6870  178.5000  144.7140 C   0  0  1  0  0  3  0  0  0  0  0  0
  188.5760  177.4060  141.9980 C   0  0  0  0  0  2  0  0  0  0  0  0
  189.6120  176.4920  141.8050 O   0  0  0  0  0  0  0  0  0  0  0  0
  190.7390  177.2790  141.5800 C   0  0  0  0  0  2  0  0  0  0  0  0
  191.6860  177.1370  142.7500 C   0  0  0  0  0  2  0  0  0  0  0  0
  191.7920  178.4560  143.4870 C   0  0  0  0  0  2  0  0  0  0  0  0
  191.1580  178.3390  144.7250 O   0  0  0  0  0  0  0  0  0  0  0  0
  191.3980  177.0230  145.1250 C   0  0  0  0  0  2  0  0  0  0  0  0
  192.8090  175.9030  148.4910 N   0  0  0  0  0  1  0  0  0  0  0  0
  191.8180  177.0030  146.5200 N   0  0  0  0  0  2  0  0  0  0  0  0
  192.4110  175.8540  147.1270 C   0  0  0  0  0  0  0  0  0  0  0  0
  192.5850  174.7970  146.4640 O   0  0  0  0  0  0  0  0  0  0  0  0
  184.5080  179.4880  145.2410 N   0  0  0  0  0  2  0  0  0  0  0  0
  182.1540  178.8910  144.3010 C   0  0  0  0  0  0  0  0  0  0  0  0
  183.2420  179.1680  144.7340 C   0  0  0  0  0  0  0  0  0  0  0  0
  180.8280  178.5540  143.7750 C   0  0  0  0  0  2  0  0  0  0  0  0
  180.5440  179.3580  142.5170 C   0  0  2  0  0  3  0  0  0  0  0  0
  180.0480  180.6210  142.8550 O   0  0  0  0  0  1  0  0  0  0  0  0
  179.5610  178.6360  141.6580 C   0  0  0  0  0  0  0  0  0  0  0  0
  178.9640  179.2350  140.7230 O   0  0  0  0  0  0  0  0  0  0  0  0
  179.2860  177.2980  141.9050 O   0  0  0  0  0  1  0  0  0  0  0  0
  1 11  1  6  0  0  0
  1  7  1  0  0  0  0
  1  9  1  0  0  0  0
  2 22  1  6  0  0  0
  2  6  1  0  0  0  0
  3  8  1  0  0  0  0
  4  3  2  0  0  0  0
  5  7  2  0  0  0  0
  6  8  2  0  0  0  0
  9  4  1  0  0  0  0
 10  7  1  6  0  0  0
 10  4  1  0  0  0  0
 10  2  1  0  0  0  0
 12 11  1  0  0  0  0
 13 12  1  0  0  0  0
 13 14  1  0  0  0  0
 14 15  1  0  0  0  0
 15 16  1  0  0  0  0
 16 17  1  0  0  0  0
 17 19  1  0  0  0  0
 19 20  1  0  0  0  0
 20 18  1  0  0  0  0
 21 20  2  0  0  0  0
 23 24  3  0  0  0  0
 24 22  1  0  0  0  0
 25 23  1  0  0  0  0
 26 27  1  1  0  0  0
 26 25  1  0  0  0  0
 28 30  1  0  0  0  0
 28 26  1  0  0  0  0
 29 28  2  0  0  0  0
M  END
>  <MODEL>
3

>  <REMARK>
 VINA RESULT:      -7.0      2.935      8.306
  Name = 
  13 active torsions:
  status: ('A' for Active; 'I' for Inactive)
    1  A    between atoms: C_1  and  C_8
    2  A    between atoms: C_2  and  C_24
    3  A    between atoms: C_3  and  N_30
    4  A    between atoms: O_5  and  C_20
    5  A    between atoms: O_5  and  C_26
    6  A    between atoms: C_7  and  C_8
    7  A    between atoms: C_7  and  C_11
    8  A    between atoms: N_9  and  C_26
    9  A    between atoms: C_20  and  C_21
   10  A    between atoms: C_21  and  C_25
   11  A    between atoms: C_24  and  O_27
   12  A    between atoms: C_25  and  O_27
   13  A    between atoms: C_29  and  N_30
                            x       y       z     vdW  Elec       q    Type
                         _______ _______ _______ _____ _____    ______ ____

>  <TORSDO>
F 13

$$$$
=
 OpenBabel11042412053D

 30 31  0  0  1  0  0  0  0  0999 V2000
  186.3170  177.7710  146.7370 C   0  0  2  0  0  3  0  0  0  0  0  0
  185.0160  178.2720  143.3220 C   0  0  2  0  0  3  0  0  0  0  0  0
  183.2870  179.0490  145.3960 N   0  0  0  0  0  0  0  0  0  0  0  0
  184.5420  178.8490  145.6690 C   0  0  0  0  0  0  0  0  0  0  0  0
  187.7880  177.6670  144.7060 C   0  0  0  0  0  2  0  0  0  0  0  0
  183.6830  178.9180  143.0260 C   0  0  0  0  0  3  0  0  0  0  0  0
  186.6360  178.0130  145.2820 C   0  0  0  0  0  0  0  0  0  0  0  0
  182.8670  179.2520  144.0360 C   0  0  0  0  0  3  0  0  0  0  0  0
  184.9730  178.3060  146.9070 N   0  0  0  0  0  2  0  0  0  0  0  0
  185.5960  178.8590  144.6170 C   0  0  1  0  0  3  0  0  0  0  0  0
  187.2750  178.5260  147.6520 C   0  0  0  0  0  2  0  0  0  0  0  0
  187.9820  177.6270  148.4510 O   0  0  0  0  0  0  0  0  0  0  0  0
  189.3180  177.8360  148.1190 C   0  0  0  0  0  2  0  0  0  0  0  0
  189.8370  176.6330  147.3640 C   0  0  0  0  0  2  0  0  0  0  0  0
  191.3510  176.6500  147.3510 C   0  0  0  0  0  2  0  0  0  0  0  0
  191.7910  177.2810  146.1860 O   0  0  0  0  0  0  0  0  0  0  0  0
  191.5390  176.3600  145.1660 C   0  0  0  0  0  2  0  0  0  0  0  0
  190.7720  177.2290  141.5280 N   0  0  0  0  0  1  0  0  0  0  0  0
  191.4700  177.0530  143.8860 N   0  0  0  0  0  2  0  0  0  0  0  0
  190.8130  176.4960  142.7470 C   0  0  0  0  0  0  0  0  0  0  0  0
  190.2680  175.3620  142.8120 O   0  0  0  0  0  0  0  0  0  0  0  0
  185.9240  178.5100  142.2140 N   0  0  0  0  0  2  0  0  0  0  0  0
  185.0070  178.7290  139.7860 C   0  0  0  0  0  0  0  0  0  0  0  0
  185.4310  178.6290  140.9090 C   0  0  0  0  0  0  0  0  0  0  0  0
  184.4910  178.8480  138.4200 C   0  0  0  0  0  2  0  0  0  0  0  0
  182.9800  178.6830  138.4150 C   0  0  2  0  0  3  0  0  0  0  0  0
  182.4070  179.4690  139.4190 O   0  0  0  0  0  1  0  0  0  0  0  0
  182.6210  177.2490  138.6190 C   0  0  0  0  0  0  0  0  0  0  0  0
  183.2660  176.3370  138.0370 O   0  0  0  0  0  0  0  0  0  0  0  0
  181.5510  176.9210  139.4410 O   0  0  0  0  0  1  0  0  0  0  0  0
  1  9  1  0  0  0  0
  1 11  1  1  0  0  0
  2 22  1  6  0  0  0
  2 10  1  0  0  0  0
  3  4  2  0  0  0  0
  4  9  1  0  0  0  0
  5  7  2  0  0  0  0
  6  2  1  0  0  0  0
  6  8  2  0  0  0  0
  7  1  1  0  0  0  0
  8  3  1  0  0  0  0
 10  7  1  1  0  0  0
 10  4  1  0  0  0  0
 11 12  1  0  0  0  0
 13 12  1  0  0  0  0
 14 13  1  0  0  0  0
 15 14  1  0  0  0  0
 16 15  1  0  0  0  0
 17 16  1  0  0  0  0
 18 20  1  0  0  0  0
 19 17  1  0  0  0  0
 20 21  2  0  0  0  0
 20 19  1  0  0  0  0
 23 24  3  0  0  0  0
 24 22  1  0  0  0  0
 25 23  1  0  0  0  0
 26 25  1  0  0  0  0
 26 28  1  0  0  0  0
 26 27  1  1  0  0  0
 28 30  1  0  0  0  0
 29 28  2  0  0  0  0
M  END
>  <MODEL>
4

>  <REMARK>
 VINA RESULT:      -6.9      2.744      6.956
  Name = 
  13 active torsions:
  status: ('A' for Active; 'I' for Inactive)
    1  A    between atoms: C_1  and  C_8
    2  A    between atoms: C_2  and  C_24
    3  A    between atoms: C_3  and  N_30
    4  A    between atoms: O_5  and  C_20
    5  A    between atoms: O_5  and  C_26
    6  A    between atoms: C_7  and  C_8
    7  A    between atoms: C_7  and  C_11
    8  A    between atoms: N_9  and  C_26
    9  A    between atoms: C_20  and  C_21
   10  A    between atoms: C_21  and  C_25
   11  A    between atoms: C_24  and  O_27
   12  A    between atoms: C_25  and  O_27
   13  A    between atoms: C_29  and  N_30
                            x       y       z     vdW  Elec       q    Type
                         _______ _______ _______ _____ _____    ______ ____

>  <TORSDO>
F 13

$$$$
=
 OpenBabel11042412053D

 30 31  0  0  1  0  0  0  0  0999 V2000
  186.2240  177.7750  146.6200 C   0  0  2  0  0  3  0  0  0  0  0  0
  185.1440  178.4940  143.1670 C   0  0  2  0  0  3  0  0  0  0  0  0
  183.2130  178.9610  145.1540 N   0  0  0  0  0  0  0  0  0  0  0  0
  184.4570  178.8230  145.5090 C   0  0  0  0  0  0  0  0  0  0  0  0
  187.8440  177.9550  144.7110 C   0  0  0  0  0  2  0  0  0  0  0  0
  183.7920  179.0720  142.8210 C   0  0  0  0  0  3  0  0  0  0  0  0
  186.6300  178.1690  145.2210 C   0  0  0  0  0  0  0  0  0  0  0  0
  182.8810  179.2570  143.7880 C   0  0  0  0  0  3  0  0  0  0  0  0
  184.8350  178.1990  146.7260 N   0  0  0  0  0  2  0  0  0  0  0  0
  185.5820  178.9990  144.5490 C   0  0  1  0  0  3  0  0  0  0  0  0
  187.0520  178.5060  147.6700 C   0  0  0  0  0  2  0  0  0  0  0  0
  187.7250  177.5870  148.4750 O   0  0  0  0  0  0  0  0  0  0  0  0
  189.0720  177.7760  148.1770 C   0  0  0  0  0  2  0  0  0  0  0  0
  189.5760  176.5940  147.3800 C   0  0  0  0  0  2  0  0  0  0  0  0
  191.0690  176.7220  147.1600 C   0  0  0  0  0  2  0  0  0  0  0  0
  191.2970  177.4590  145.9970 O   0  0  0  0  0  0  0  0  0  0  0  0
  191.5920  176.5030  145.0220 C   0  0  0  0  0  2  0  0  0  0  0  0
  190.4660  176.9680  141.4040 N   0  0  0  0  0  1  0  0  0  0  0  0
  191.3640  177.0660  143.6980 N   0  0  0  0  0  2  0  0  0  0  0  0
  190.6650  176.3570  142.6730 C   0  0  0  0  0  0  0  0  0  0  0  0
  190.2230  175.1960  142.8840 O   0  0  0  0  0  0  0  0  0  0  0  0
  186.1110  178.8920  142.1590 N   0  0  0  0  0  2  0  0  0  0  0  0
  185.6410  178.4410  139.6380 C   0  0  0  0  0  0  0  0  0  0  0  0
  185.8590  178.6490  140.8030 C   0  0  0  0  0  0  0  0  0  0  0  0
  185.3740  178.1900  138.2190 C   0  0  0  0  0  2  0  0  0  0  0  0
  186.6030  177.5960  137.5520 C   0  0  2  0  0  3  0  0  0  0  0  0
  187.5500  177.2410  138.5170 O   0  0  0  0  0  1  0  0  0  0  0  0
  187.1910  178.5770  136.5930 C   0  0  0  0  0  0  0  0  0  0  0  0
  187.8790  179.5480  137.0110 O   0  0  0  0  0  1  0  0  0  0  0  0
  186.9600  178.4310  135.2330 O   0  0  0  0  0  0  0  0  0  0  0  0
  1  9  1  0  0  0  0
  1 11  1  1  0  0  0
  2 22  1  6  0  0  0
  2 10  1  0  0  0  0
  3  4  2  0  0  0  0
  4  9  1  0  0  0  0
  5  7  2  0  0  0  0
  6  2  1  0  0  0  0
  6  8  2  0  0  0  0
  7  1  1  0  0  0  0
  8  3  1  0  0  0  0
 10  7  1  1  0  0  0
 10  4  1  0  0  0  0
 11 12  1  0  0  0  0
 13 12  1  0  0  0  0
 14 13  1  0  0  0  0
 15 14  1  0  0  0  0
 16 15  1  0  0  0  0
 17 16  1  0  0  0  0
 18 20  1  0  0  0  0
 19 17  1  0  0  0  0
 20 21  2  0  0  0  0
 20 19  1  0  0  0  0
 23 24  3  0  0  0  0
 24 22  1  0  0  0  0
 25 23  1  0  0  0  0
 26 25  1  0  0  0  0
 26 27  1  1  0  0  0
 28 29  1  0  0  0  0
 28 26  1  0  0  0  0
 30 28  2  0  0  0  0
M  END
>  <MODEL>
5

>  <REMARK>
 VINA RESULT:      -6.8      2.842      6.330
  Name = 
  13 active torsions:
  status: ('A' for Active; 'I' for Inactive)
    1  A    between atoms: C_1  and  C_8
    2  A    between atoms: C_2  and  C_24
    3  A    between atoms: C_3  and  N_30
    4  A    between atoms: O_5  and  C_20
    5  A    between atoms: O_5  and  C_26
    6  A    between atoms: C_7  and  C_8
    7  A    between atoms: C_7  and  C_11
    8  A    between atoms: N_9  and  C_26
    9  A    between atoms: C_20  and  C_21
   10  A    between atoms: C_21  and  C_25
   11  A    between atoms: C_24  and  O_27
   12  A    between atoms: C_25  and  O_27
   13  A    between atoms: C_29  and  N_30
                            x       y       z     vdW  Elec       q    Type
                         _______ _______ _______ _____ _____    ______ ____

>  <TORSDO>
F 13

$$$$
=
 OpenBabel11042412053D

 30 31  0  0  1  0  0  0  0  0999 V2000
  187.4380  178.7730  141.4200 C   0  0  2  0  0  3  0  0  0  0  0  0
  186.1590  178.2930  144.8470 C   0  0  2  0  0  3  0  0  0  0  0  0
  184.3800  179.5330  143.0600 N   0  0  0  0  0  0  0  0  0  0  0  0
  185.4160  178.9100  142.5810 C   0  0  0  0  0  0  0  0  0  0  0  0
  188.5620  177.2600  143.0790 C   0  0  0  0  0  2  0  0  0  0  0  0
  184.7560  178.6570  145.2700 C   0  0  0  0  0  3  0  0  0  0  0  0
  187.4970  177.9650  142.6940 C   0  0  0  0  0  0  0  0  0  0  0  0
  183.9390  179.2740  144.4030 C   0  0  0  0  0  3  0  0  0  0  0  0
  186.1050  179.3580  141.4240 N   0  0  0  0  0  2  0  0  0  0  0  0
  186.1620  177.8870  143.3660 C   0  0  1  0  0  3  0  0  0  0  0  0
  187.5940  177.8880  140.1890 C   0  0  0  0  0  2  0  0  0  0  0  0
  187.2890  178.6130  139.0370 O   0  0  0  0  0  0  0  0  0  0  0  0
  188.1830  178.1430  138.0780 C   0  0  0  0  0  2  0  0  0  0  0  0
  188.8120  176.8600  138.5720 C   0  0  0  0  0  2  0  0  0  0  0  0
  190.1180  176.6150  137.8450 C   0  0  0  0  0  2  0  0  0  0  0  0
  190.7750  175.5350  138.4360 O   0  0  0  0  0  0  0  0  0  0  0  0
  191.4050  174.8790  137.3750 C   0  0  0  0  0  2  0  0  0  0  0  0
  195.1200  174.9510  138.2580 N   0  0  0  0  0  1  0  0  0  0  0  0
  192.7490  174.4790  137.7760 N   0  0  0  0  0  2  0  0  0  0  0  0
  193.8340  175.4040  137.8490 C   0  0  0  0  0  0  0  0  0  0  0  0
  193.6640  176.6180  137.5560 O   0  0  0  0  0  0  0  0  0  0  0  0
  186.6410  177.1960  145.6670 N   0  0  0  0  0  2  0  0  0  0  0  0
  188.9340  177.3810  146.8890 C   0  0  0  0  0  0  0  0  0  0  0  0
  187.8740  177.2950  146.3250 C   0  0  0  0  0  0  0  0  0  0  0  0
  190.2230  177.4890  147.5780 C   0  0  0  0  0  2  0  0  0  0  0  0
  191.2020  176.4700  147.0180 C   0  0  2  0  0  3  0  0  0  0  0  0
  192.3420  176.4030  147.8260 O   0  0  0  0  0  1  0  0  0  0  0  0
  191.5850  176.8390  145.6230 C   0  0  0  0  0  0  0  0  0  0  0  0
  191.8060  178.0420  145.3160 O   0  0  0  0  0  1  0  0  0  0  0  0
  191.6750  175.8510  144.6530 O   0  0  0  0  0  0  0  0  0  0  0  0
  1 11  1  6  0  0  0
  1  9  1  0  0  0  0
  1  7  1  0  0  0  0
  2  6  1  0  0  0  0
  2 22  1  1  0  0  0
  3  8  1  0  0  0  0
  4  3  2  0  0  0  0
  7  5  2  0  0  0  0
  7 10  1  0  0  0  0
  8  6  2  0  0  0  0
  9  4  1  0  0  0  0
 10  4  1  6  0  0  0
 10  2  1  0  0  0  0
 12 11  1  0  0  0  0
 13 14  1  0  0  0  0
 13 12  1  0  0  0  0
 15 16  1  0  0  0  0
 15 14  1  0  0  0  0
 17 19  1  0  0  0  0
 17 16  1  0  0  0  0
 19 20  1  0  0  0  0
 20 18  1  0  0  0  0
 21 20  2  0  0  0  0
 22 24  1  0  0  0  0
 23 25  1  0  0  0  0
 24 23  3  0  0  0  0
 26 25  1  0  0  0  0
 26 27  1  1  0  0  0
 28 26  1  0  0  0  0
 29 28  1  0  0  0  0
 30 28  2  0  0  0  0
M  END
>  <MODEL>
6

>  <REMARK>
 VINA RESULT:      -6.8      3.805      7.098
  Name = 
  13 active torsions:
  status: ('A' for Active; 'I' for Inactive)
    1  A    between atoms: C_1  and  C_8
    2  A    between atoms: C_2  and  C_24
    3  A    between atoms: C_3  and  N_30
    4  A    between atoms: O_5  and  C_20
    5  A    between atoms: O_5  and  C_26
    6  A    between atoms: C_7  and  C_8
    7  A    between atoms: C_7  and  C_11
    8  A    between atoms: N_9  and  C_26
    9  A    between atoms: C_20  and  C_21
   10  A    between atoms: C_21  and  C_25
   11  A    between atoms: C_24  and  O_27
   12  A    between atoms: C_25  and  O_27
   13  A    between atoms: C_29  and  N_30
                            x       y       z     vdW  Elec       q    Type
                         _______ _______ _______ _____ _____    ______ ____

>  <TORSDO>
F 13

$$$$
=
 OpenBabel11042412053D

 30 31  0  0  1  0  0  0  0  0999 V2000
  187.6850  178.0870  145.7180 C   0  0  2  0  0  3  0  0  0  0  0  0
  184.5300  179.1260  144.1130 C   0  0  2  0  0  3  0  0  0  0  0  0
  186.4800  178.0870  142.3760 N   0  0  0  0  0  0  0  0  0  0  0  0
  186.6090  177.8860  143.6550 C   0  0  0  0  0  0  0  0  0  0  0  0
  185.5970  178.5590  147.0290 C   0  0  0  0  0  2  0  0  0  0  0  0
  184.2480  178.9470  142.6400 C   0  0  0  0  0  3  0  0  0  0  0  0
  186.1990  178.3050  145.8660 C   0  0  0  0  0  0  0  0  0  0  0  0
  185.2080  178.4750  141.8310 C   0  0  0  0  0  3  0  0  0  0  0  0
  187.8750  177.8480  144.2940 N   0  0  0  0  0  2  0  0  0  0  0  0
  185.4620  178.0070  144.5980 C   0  0  1  0  0  3  0  0  0  0  0  0
  188.1500  176.8620  146.4970 C   0  0  0  0  0  2  0  0  0  0  0  0
  188.9580  177.2530  147.5650 O   0  0  0  0  0  0  0  0  0  0  0  0
  190.1990  177.5170  146.9910 C   0  0  0  0  0  2  0  0  0  0  0  0
  191.1730  176.4320  147.3920 C   0  0  0  0  0  2  0  0  0  0  0  0
  191.9360  175.9530  146.1750 C   0  0  0  0  0  2  0  0  0  0  0  0
  191.6170  176.7650  145.0860 O   0  0  0  0  0  0  0  0  0  0  0  0
  191.7250  175.9270  143.9740 C   0  0  0  0  0  2  0  0  0  0  0  0
  189.5270  177.0270  141.0520 N   0  0  0  0  0  1  0  0  0  0  0  0
  190.5830  176.1320  143.0920 N   0  0  0  0  0  2  0  0  0  0  0  0
  190.6770  176.8720  141.8740 C   0  0  0  0  0  0  0  0  0  0  0  0
  191.7710  177.3870  141.5200 O   0  0  0  0  0  0  0  0  0  0  0  0
  183.2800  179.0920  144.8510 N   0  0  0  0  0  2  0  0  0  0  0  0
  181.0210  178.7700  143.5960 C   0  0  0  0  0  0  0  0  0  0  0  0
  182.0650  178.9180  144.1770 C   0  0  0  0  0  0  0  0  0  0  0  0
  179.7520  178.5890  142.8860 C   0  0  0  0  0  2  0  0  0  0  0  0
  179.9740  178.6720  141.3850 C   0  0  2  0  0  3  0  0  0  0  0  0
  181.1090  177.9380  141.0250 O   0  0  0  0  0  1  0  0  0  0  0  0
  180.1340  180.0960  140.9690 C   0  0  0  0  0  0  0  0  0  0  0  0
  180.7980  180.3930  139.9390 O   0  0  0  0  0  0  0  0  0  0  0  0
  179.5630  181.1030  141.7350 O   0  0  0  0  0  1  0  0  0  0  0  0
  1  7  1  0  0  0  0
  1 11  1  1  0  0  0
  2 10  1  0  0  0  0
  2 22  1  1  0  0  0
  3  4  2  0  0  0  0
  4  9  1  0  0  0  0
  6  2  1  0  0  0  0
  7  5  2  0  0  0  0
  8  3  1  0  0  0  0
  8  6  2  0  0  0  0
  9  1  1  0  0  0  0
 10  4  1  6  0  0  0
 10  7  1  0  0  0  0
 11 12  1  0  0  0  0
 13 14  1  0  0  0  0
 13 12  1  0  0  0  0
 15 14  1  0  0  0  0
 16 15  1  0  0  0  0
 17 16  1  0  0  0  0
 18 20  1  0  0  0  0
 19 17  1  0  0  0  0
 20 19  1  0  0  0  0
 21 20  2  0  0  0  0
 23 24  3  0  0  0  0
 24 22  1  0  0  0  0
 25 23  1  0  0  0  0
 26 27  1  1  0  0  0
 26 25  1  0  0  0  0
 28 26  1  0  0  0  0
 28 30  1  0  0  0  0
 29 28  2  0  0  0  0
M  END
>  <MODEL>
7

>  <REMARK>
 VINA RESULT:      -6.6      2.668      7.802
  Name = 
  13 active torsions:
  status: ('A' for Active; 'I' for Inactive)
    1  A    between atoms: C_1  and  C_8
    2  A    between atoms: C_2  and  C_24
    3  A    between atoms: C_3  and  N_30
    4  A    between atoms: O_5  and  C_20
    5  A    between atoms: O_5  and  C_26
    6  A    between atoms: C_7  and  C_8
    7  A    between atoms: C_7  and  C_11
    8  A    between atoms: N_9  and  C_26
    9  A    between atoms: C_20  and  C_21
   10  A    between atoms: C_21  and  C_25
   11  A    between atoms: C_24  and  O_27
   12  A    between atoms: C_25  and  O_27
   13  A    between atoms: C_29  and  N_30
                            x       y       z     vdW  Elec       q    Type
                         _______ _______ _______ _____ _____    ______ ____

>  <TORSDO>
F 13

$$$$
=
 OpenBabel11042412053D

 30 31  0  0  1  0  0  0  0  0999 V2000
  184.7600  179.3100  144.7860 C   0  0  2  0  0  3  0  0  0  0  0  0
  187.9490  177.4580  144.7100 C   0  0  2  0  0  3  0  0  0  0  0  0
  187.1410  178.3610  147.2450 N   0  0  0  0  0  0  0  0  0  0  0  0
  186.2690  178.3390  146.2810 C   0  0  0  0  0  0  0  0  0  0  0  0
  185.4820  177.9500  142.8040 C   0  0  0  0  0  2  0  0  0  0  0  0
  188.7490  177.1270  145.9480 C   0  0  0  0  0  3  0  0  0  0  0  0
  185.6060  178.2710  144.0930 C   0  0  0  0  0  0  0  0  0  0  0  0
  188.3530  177.5960  147.1410 C   0  0  0  0  0  3  0  0  0  0  0  0
  185.2460  179.3150  146.1590 N   0  0  0  0  0  2  0  0  0  0  0  0
  186.4550  177.5070  145.0600 C   0  0  1  0  0  3  0  0  0  0  0  0
  183.2850  178.9260  144.7790 C   0  0  0  0  0  2  0  0  0  0  0  0
  182.6180  179.6050  143.7590 O   0  0  0  0  0  0  0  0  0  0  0  0
  181.6600  178.7030  143.3030 C   0  0  0  0  0  2  0  0  0  0  0  0
  181.3510  178.9970  141.8520 C   0  0  0  0  0  2  0  0  0  0  0  0
  182.2650  178.1850  140.9590 C   0  0  0  0  0  2  0  0  0  0  0  0
  182.2890  178.7600  139.6870 O   0  0  0  0  0  0  0  0  0  0  0  0
  181.2810  179.7270  139.7150 C   0  0  0  0  0  2  0  0  0  0  0  0
  180.5620  181.4690  136.3940 N   0  0  0  0  0  1  0  0  0  0  0  0
  180.8280  180.0010  138.3570 N   0  0  0  0  0  2  0  0  0  0  0  0
  181.0190  181.2690  137.7260 C   0  0  0  0  0  0  0  0  0  0  0  0
  181.5890  182.2100  138.3390 O   0  0  0  0  0  0  0  0  0  0  0  0
  188.1930  176.4500  143.6940 N   0  0  0  0  0  2  0  0  0  0  0  0
  189.1490  177.1320  141.3690 C   0  0  0  0  0  0  0  0  0  0  0  0
  188.7060  176.8170  142.4430 C   0  0  0  0  0  0  0  0  0  0  0  0
  189.6890  177.5120  140.0610 C   0  0  0  0  0  2  0  0  0  0  0  0
  188.8570  178.6310  139.4560 C   0  0  2  0  0  3  0  0  0  0  0  0
  187.5030  178.4320  139.7420 O   0  0  0  0  0  1  0  0  0  0  0  0
  189.0660  178.6840  137.9790 C   0  0  0  0  0  0  0  0  0  0  0  0
  188.7870  179.7280  137.3300 O   0  0  0  0  0  1  0  0  0  0  0  0
  189.5500  177.5670  137.3140 O   0  0  0  0  0  0  0  0  0  0  0  0
  1 11  1  1  0  0  0
  1  9  1  0  0  0  0
  2 22  1  6  0  0  0
  2 10  1  0  0  0  0
  2  6  1  0  0  0  0
  4  3  2  0  0  0  0
  5  7  2  0  0  0  0
  6  8  2  0  0  0  0
  7  1  1  0  0  0  0
  8  3  1  0  0  0  0
  9  4  1  0  0  0  0
 10  7  1  6  0  0  0
 10  4  1  0  0  0  0
 12 11  1  0  0  0  0
 13 12  1  0  0  0  0
 14 13  1  0  0  0  0
 15 14  1  0  0  0  0
 16 17  1  0  0  0  0
 16 15  1  0  0  0  0
 18 20  1  0  0  0  0
 19 17  1  0  0  0  0
 20 21  2  0  0  0  0
 20 19  1  0  0  0  0
 23 24  3  0  0  0  0
 24 22  1  0  0  0  0
 25 23  1  0  0  0  0
 26 27  1  6  0  0  0
 26 25  1  0  0  0  0
 28 26  1  0  0  0  0
 29 28  1  0  0  0  0
 30 28  2  0  0  0  0
M  END
>  <MODEL>
8

>  <REMARK>
 VINA RESULT:      -6.6      1.537      2.020
  Name = 
  13 active torsions:
  status: ('A' for Active; 'I' for Inactive)
    1  A    between atoms: C_1  and  C_8
    2  A    between atoms: C_2  and  C_24
    3  A    between atoms: C_3  and  N_30
    4  A    between atoms: O_5  and  C_20
    5  A    between atoms: O_5  and  C_26
    6  A    between atoms: C_7  and  C_8
    7  A    between atoms: C_7  and  C_11
    8  A    between atoms: N_9  and  C_26
    9  A    between atoms: C_20  and  C_21
   10  A    between atoms: C_21  and  C_25
   11  A    between atoms: C_24  and  O_27
   12  A    between atoms: C_25  and  O_27
   13  A    between atoms: C_29  and  N_30
                            x       y       z     vdW  Elec       q    Type
                         _______ _______ _______ _____ _____    ______ ____

>  <TORSDO>
F 13

$$$$
=
 OpenBabel11042412053D

 30 31  0  0  1  0  0  0  0  0999 V2000
  190.2090  176.0870  142.8890 C   0  0  2  0  0  3  0  0  0  0  0  0
  188.1100  178.0560  140.5810 C   0  0  2  0  0  3  0  0  0  0  0  0
  186.9810  177.5530  143.1040 N   0  0  0  0  0  0  0  0  0  0  0  0
  188.2570  177.3690  142.9420 C   0  0  0  0  0  0  0  0  0  0  0  0
  191.1200  177.1280  140.7940 C   0  0  0  0  0  2  0  0  0  0  0  0
  186.7660  178.6310  140.9630 C   0  0  0  0  0  3  0  0  0  0  0  0
  190.1600  177.0350  141.7160 C   0  0  0  0  0  0  0  0  0  0  0  0
  186.2410  178.3500  142.1640 C   0  0  0  0  0  3  0  0  0  0  0  0
  188.9680  176.3370  143.6080 N   0  0  0  0  0  2  0  0  0  0  0  0
  189.0150  177.9920  141.8200 C   0  0  1  0  0  3  0  0  0  0  0  0
  191.3880  176.3900  143.8050 C   0  0  0  0  0  2  0  0  0  0  0  0
  190.9520  177.0820  144.9350 O   0  0  0  0  0  0  0  0  0  0  0  0
  191.6780  176.5320  145.9880 C   0  0  0  0  0  2  0  0  0  0  0  0
  191.0780  176.9900  147.2980 C   0  0  0  0  0  2  0  0  0  0  0  0
  189.5950  176.6820  147.3190 C   0  0  0  0  0  2  0  0  0  0  0  0
  188.8840  177.8300  146.9650 O   0  0  0  0  0  0  0  0  0  0  0  0
  187.6280  177.6650  147.5520 C   0  0  0  0  0  2  0  0  0  0  0  0
  184.6740  178.9880  145.5260 N   0  0  0  0  0  1  0  0  0  0  0  0
  186.5900  177.8130  146.5390 N   0  0  0  0  0  2  0  0  0  0  0  0
  185.6570  178.8940  146.5510 C   0  0  0  0  0  0  0  0  0  0  0  0
  185.6960  179.7660  147.4590 O   0  0  0  0  0  0  0  0  0  0  0  0
  188.7190  178.8900  139.5600 N   0  0  0  0  0  2  0  0  0  0  0  0
  188.9920  177.9980  137.1280 C   0  0  0  0  0  0  0  0  0  0  0  0
  188.8660  178.4110  138.2520 C   0  0  0  0  0  0  0  0  0  0  0  0
  189.1410  177.4950  135.7590 C   0  0  0  0  0  2  0  0  0  0  0  0
  187.7810  177.1440  135.1790 C   0  0  2  0  0  3  0  0  0  0  0  0
  186.9270  178.2490  135.2520 O   0  0  0  0  0  1  0  0  0  0  0  0
  187.1900  175.9900  135.9180 C   0  0  0  0  0  0  0  0  0  0  0  0
  186.0600  176.0910  136.4650 O   0  0  0  0  0  1  0  0  0  0  0  0
  187.9040  174.8040  136.0210 O   0  0  0  0  0  0  0  0  0  0  0  0
  1  9  1  0  0  0  0
  1 11  1  1  0  0  0
  2 22  1  6  0  0  0
  2  6  1  0  0  0  0
  2 10  1  0  0  0  0
  4  3  2  0  0  0  0
  4  9  1  0  0  0  0
  5  7  2  0  0  0  0
  6  8  2  0  0  0  0
  7  1  1  0  0  0  0
  8  3  1  0  0  0  0
 10  7  1  6  0  0  0
 10  4  1  0  0  0  0
 11 12  1  0  0  0  0
 12 13  1  0  0  0  0
 13 14  1  0  0  0  0
 14 15  1  0  0  0  0
 16 15  1  0  0  0  0
 16 17  1  0  0  0  0
 18 20  1  0  0  0  0
 19 20  1  0  0  0  0
 19 17  1  0  0  0  0
 20 21  2  0  0  0  0
 23 24  3  0  0  0  0
 24 22  1  0  0  0  0
 25 23  1  0  0  0  0
 26 27  1  1  0  0  0
 26 25  1  0  0  0  0
 26 28  1  0  0  0  0
 28 30  2  0  0  0  0
 28 29  1  0  0  0  0
M  END
>  <MODEL>
9

>  <REMARK>
 VINA RESULT:      -6.6      3.298      6.917
  Name = 
  13 active torsions:
  status: ('A' for Active; 'I' for Inactive)
    1  A    between atoms: C_1  and  C_8
    2  A    between atoms: C_2  and  C_24
    3  A    between atoms: C_3  and  N_30
    4  A    between atoms: O_5  and  C_20
    5  A    between atoms: O_5  and  C_26
    6  A    between atoms: C_7  and  C_8
    7  A    between atoms: C_7  and  C_11
    8  A    between atoms: N_9  and  C_26
    9  A    between atoms: C_20  and  C_21
   10  A    between atoms: C_21  and  C_25
   11  A    between atoms: C_24  and  O_27
   12  A    between atoms: C_25  and  O_27
   13  A    between atoms: C_29  and  N_30
                            x       y       z     vdW  Elec       q    Type
                         _______ _______ _______ _____ _____    ______ ____

>  <TORSDO>
F 13

$$$$
