=
 OpenBabel11032419113D

 42 45  0  0  1  0  0  0  0  0999 V2000
  191.3380  176.7240  138.9730 C   0  0  0  0  0  0  0  0  0  0  0  0
  192.7350  176.4650  138.8800 N   0  0  0  0  0  1  0  0  0  0  0  0
  189.1700  176.5230  138.0130 C   0  0  0  0  0  0  0  0  0  0  0  0
  190.8180  177.4170  140.0760 C   0  0  0  0  0  0  0  0  0  0  0  0
  190.5120  176.3060  137.9770 N   0  0  0  0  0  0  0  0  0  0  0  0
  188.6080  177.1810  139.1110 C   0  0  0  0  0  3  0  0  0  0  0  0
  189.4280  177.6240  140.1560 C   0  0  0  0  0  0  0  0  0  0  0  0
  188.3210  176.0550  136.9070 C   0  0  0  0  0  0  0  0  0  0  0  0
  188.8420  175.6900  135.8170 O   0  0  0  0  0  0  0  0  0  0  0  0
  186.9010  176.0180  137.0700 N   0  0  0  0  0  2  0  0  0  0  0  0
  184.6210  174.6670  136.7380 S   0  0  0  0  0  1  0  0  0  0  0  0
  186.0110  175.5740  136.0110 C   0  0  0  0  0  2  0  0  0  0  0  0
  188.8780  178.2350  141.2900 O   0  0  0  0  0  0  0  0  0  0  0  0
  187.5760  177.9520  141.7840 C   0  0  1  0  0  3  0  0  0  0  0  0
  187.6810  177.5380  143.2600 C   0  0  0  0  0  2  0  0  0  0  0  0
  185.2440  178.8610  142.0560 C   0  0  0  0  0  2  0  0  0  0  0  0
  186.5210  178.0300  144.1330 C   0  0  0  0  0  2  0  0  0  0  0  0
  185.1990  178.0330  143.3560 C   0  0  1  0  0  3  0  0  0  0  0  0
  186.6710  179.1720  141.6000 C   0  0  0  0  0  2  0  0  0  0  0  0
  184.0990  178.3660  144.1720 O   0  0  0  0  0  0  0  0  0  0  0  0
  183.0280  178.5270  143.3480 N   0  0  0  0  0  2  0  0  0  0  0  0
  181.9930  179.1920  144.1230 C   0  0  0  0  0  2  0  0  0  0  0  0
  179.9760  178.9180  142.6660 C   0  0  0  0  0  3  0  0  0  0  0  0
  180.6520  178.6170  143.7840 C   0  0  0  0  0  3  0  0  0  0  0  0
  179.5520  180.9820  141.4750 N   0  0  0  0  0  2  0  0  0  0  0  0
  179.2370  180.5110  140.1310 C   0  0  0  0  0  2  0  0  0  0  0  0
  181.2860  179.5690  139.4030 O   0  0  0  0  0  1  0  0  0  0  0  0
  180.4810  179.8670  141.6160 C   0  0  2  0  0  3  0  0  0  0  0  0
  180.1850  179.3410  140.2300 C   0  0  1  0  0  3  0  0  0  0  0  0
  191.6920  177.8560  141.0840 O   0  0  0  0  0  0  0  0  0  0  0  0
  191.5420  177.5710  142.4480 C   0  0  0  0  0  0  0  0  0  0  0  0
  191.3940  176.2540  142.9150 C   0  0  0  0  0  3  0  0  0  0  0  0
  191.2480  176.0010  144.2820 C   0  0  0  0  0  3  0  0  0  0  0  0
  191.5130  178.6280  143.3620 C   0  0  0  0  0  3  0  0  0  0  0  0
  191.3660  178.3740  144.7300 C   0  0  0  0  0  3  0  0  0  0  0  0
  191.2370  177.0590  145.2010 C   0  0  0  0  0  0  0  0  0  0  0  0
  191.0890  176.7870  146.6450 C   0  0  0  0  0  0  0  0  0  0  0  0
  192.1090  176.6370  147.3700 O   0  0  0  0  0  0  0  0  0  0  0  0
  189.7350  176.6520  147.2650 C   0  0  0  0  0  2  0  0  0  0  0  0
  189.3020  177.9840  147.8470 C   0  0  0  0  0  2  0  0  0  0  0  0
  187.9760  177.8190  148.5590 C   0  0  0  0  0  2  0  0  0  0  0  0
  186.8640  178.3300  147.6690 C   0  0  0  0  0  1  0  0  0  0  0  0
  1  4  1  0  0  0  0
  2  1  1  0  0  0  0
  3  6  2  0  0  0  0
  4  7  2  0  0  0  0
  4 30  1  0  0  0  0
  5  3  1  0  0  0  0
  5  1  2  0  0  0  0
  6  7  1  0  0  0  0
  7 13  1  0  0  0  0
  8 10  1  0  0  0  0
  8  3  1  0  0  0  0
  9  8  2  0  0  0  0
 12 11  1  0  0  0  0
 12 10  1  0  0  0  0
 14 13  1  1  0  0  0
 14 15  1  0  0  0  0
 15 17  1  0  0  0  0
 16 18  1  0  0  0  0
 18 17  1  0  0  0  0
 18 20  1  1  0  0  0
 19 14  1  0  0  0  0
 19 16  1  0  0  0  0
 21 22  1  0  0  0  0
 21 20  1  0  0  0  0
 23 24  2  0  0  0  0
 24 22  1  0  0  0  0
 25 28  1  0  0  0  0
 26 29  1  0  0  0  0
 26 25  1  0  0  0  0
 28 23  1  1  0  0  0
 29 27  1  6  0  0  0
 29 28  1  0  0  0  0
 30 31  1  0  0  0  0
 31 32  2  0  0  0  0
 31 34  1  0  0  0  0
 32 33  1  0  0  0  0
 33 36  2  0  0  0  0
 34 35  2  0  0  0  0
 35 36  1  0  0  0  0
 36 37  1  0  0  0  0
 37 39  1  0  0  0  0
 37 38  2  0  0  0  0
 39 40  1  0  0  0  0
 40 41  1  0  0  0  0
 42 41  1  0  0  0  0
M  END
>  <MODEL>
1

>  <REMARK>
 VINA RESULT:      -7.9      0.000      0.000
  Name = 
  15 active torsions:
  status: ('A' for Active; 'I' for Inactive)
    1  A    between atoms: C_1  and  O_14
    2  A    between atoms: C_2  and  O_29
    3  A    between atoms: C_3  and  C_25
    4  A    between atoms: C_4  and  C_40
    5  A    between atoms: C_4  and  C_42
    6  A    between atoms: C_9  and  C_28
    7  A    between atoms: C_11  and  C_12
    8  A    between atoms: C_11  and  C_42
    9  A    between atoms: O_14  and  C_39
   10  A    between atoms: C_17  and  C_34
   11  A    between atoms: C_24  and  O_37
   12  A    between atoms: C_26  and  O_29
   13  A    between atoms: C_31  and  N_41
   14  A    between atoms: C_34  and  N_35
   15  A    between atoms: N_35  and  O_37
                            x       y       z     vdW  Elec       q    Type
                         _______ _______ _______ _____ _____    ______ ____

>  <TORSDO>
F 15

$$$$
=
 OpenBabel11032419113D

 42 45  0  0  1  0  0  0  0  0999 V2000
  183.4440  177.6670  138.2280 C   0  0  0  0  0  0  0  0  0  0  0  0
  183.9000  177.5720  136.8820 N   0  0  0  0  0  1  0  0  0  0  0  0
  181.7860  177.1330  139.8500 C   0  0  0  0  0  0  0  0  0  0  0  0
  184.1920  178.3730  139.1810 C   0  0  0  0  0  0  0  0  0  0  0  0
  182.2700  177.0770  138.5800 N   0  0  0  0  0  0  0  0  0  0  0  0
  182.5180  177.7990  140.8370 C   0  0  0  0  0  3  0  0  0  0  0  0
  183.7330  178.4160  140.5110 C   0  0  0  0  0  0  0  0  0  0  0  0
  180.5090  176.4830  140.1780 C   0  0  0  0  0  0  0  0  0  0  0  0
  179.5470  177.1640  140.6290 O   0  0  0  0  0  0  0  0  0  0  0  0
  180.3600  175.0740  139.9860 N   0  0  0  0  0  2  0  0  0  0  0  0
  179.2900  173.5640  141.9120 S   0  0  0  0  0  1  0  0  0  0  0  0
  179.1260  174.3750  140.3000 C   0  0  0  0  0  2  0  0  0  0  0  0
  184.5080  179.0400  141.4960 O   0  0  0  0  0  0  0  0  0  0  0  0
  184.6750  178.5260  142.8110 C   0  0  1  0  0  3  0  0  0  0  0  0
  186.0180  177.7860  142.8910 C   0  0  0  0  0  2  0  0  0  0  0  0
  184.6930  179.1190  145.2570 C   0  0  0  0  0  2  0  0  0  0  0  0
  186.7430  177.9440  144.2320 C   0  0  0  0  0  2  0  0  0  0  0  0
  185.7500  178.0060  145.3990 C   0  0  1  0  0  3  0  0  0  0  0  0
  184.5920  179.6630  143.8310 C   0  0  0  0  0  2  0  0  0  0  0  0
  186.3970  178.0310  146.6520 O   0  0  0  0  0  0  0  0  0  0  0  0
  187.4760  177.2070  146.5570 N   0  0  0  0  0  2  0  0  0  0  0  0
  188.5600  177.8440  147.2870 C   0  0  0  0  0  2  0  0  0  0  0  0
  190.5670  176.9130  146.1150 C   0  0  0  0  0  3  0  0  0  0  0  0
  189.7940  176.9990  147.2080 C   0  0  0  0  0  3  0  0  0  0  0  0
  190.4150  176.7450  143.7060 N   0  0  0  0  0  2  0  0  0  0  0  0
  191.5800  177.5020  143.2630 C   0  0  0  0  0  2  0  0  0  0  0  0
  191.0700  179.7130  143.9490 O   0  0  0  0  0  1  0  0  0  0  0  0
  190.2900  177.6550  144.8390 C   0  0  2  0  0  3  0  0  0  0  0  0
  191.4940  178.4690  144.4200 C   0  0  1  0  0  3  0  0  0  0  0  0
  185.3920  178.9900  138.7910 O   0  0  0  0  0  0  0  0  0  0  0  0
  186.6500  178.3720  138.8170 C   0  0  0  0  0  0  0  0  0  0  0  0
  187.1650  177.6990  137.6960 C   0  0  0  0  0  3  0  0  0  0  0  0
  188.4230  177.0940  137.7510 C   0  0  0  0  0  3  0  0  0  0  0  0
  187.3980  178.4060  139.9970 C   0  0  0  0  0  3  0  0  0  0  0  0
  188.6580  177.8010  140.0520 C   0  0  0  0  0  3  0  0  0  0  0  0
  189.1820  177.1440  138.9290 C   0  0  0  0  0  0  0  0  0  0  0  0
  190.5140  176.5090  138.9810 C   0  0  0  0  0  0  0  0  0  0  0  0
  190.9600  176.0590  140.0700 O   0  0  0  0  0  0  0  0  0  0  0  0
  191.3690  176.4160  137.7570 C   0  0  0  0  0  2  0  0  0  0  0  0
  192.8300  176.3630  138.1550 C   0  0  0  0  0  2  0  0  0  0  0  0
  193.5060  175.2050  137.4500 C   0  0  0  0  0  2  0  0  0  0  0  0
  192.4610  174.1920  137.0370 C   0  0  0  0  0  1  0  0  0  0  0  0
  1  5  2  0  0  0  0
  1  4  1  0  0  0  0
  2  1  1  0  0  0  0
  3  8  1  0  0  0  0
  3  6  2  0  0  0  0
  4  7  2  0  0  0  0
  5  3  1  0  0  0  0
  7  6  1  0  0  0  0
  7 13  1  0  0  0  0
  8  9  2  0  0  0  0
 10  8  1  0  0  0  0
 10 12  1  0  0  0  0
 12 11  1  0  0  0  0
 14 13  1  6  0  0  0
 14 15  1  0  0  0  0
 14 19  1  0  0  0  0
 15 17  1  0  0  0  0
 16 18  1  0  0  0  0
 17 18  1  0  0  0  0
 18 20  1  1  0  0  0
 19 16  1  0  0  0  0
 21 20  1  0  0  0  0
 21 22  1  0  0  0  0
 23 24  2  0  0  0  0
 24 22  1  0  0  0  0
 25 28  1  0  0  0  0
 26 25  1  0  0  0  0
 26 29  1  0  0  0  0
 28 23  1  1  0  0  0
 29 27  1  6  0  0  0
 29 28  1  0  0  0  0
 30 31  1  0  0  0  0
 30  4  1  0  0  0  0
 31 34  1  0  0  0  0
 32 33  1  0  0  0  0
 32 31  2  0  0  0  0
 33 36  2  0  0  0  0
 34 35  2  0  0  0  0
 36 37  1  0  0  0  0
 36 35  1  0  0  0  0
 37 38  2  0  0  0  0
 39 40  1  0  0  0  0
 39 37  1  0  0  0  0
 41 40  1  0  0  0  0
 42 41  1  0  0  0  0
M  END
>  <MODEL>
2

>  <REMARK>
 VINA RESULT:      -7.5      3.028      8.082
  Name = 
  15 active torsions:
  status: ('A' for Active; 'I' for Inactive)
    1  A    between atoms: C_1  and  O_14
    2  A    between atoms: C_2  and  O_29
    3  A    between atoms: C_3  and  C_25
    4  A    between atoms: C_4  and  C_40
    5  A    between atoms: C_4  and  C_42
    6  A    between atoms: C_9  and  C_28
    7  A    between atoms: C_11  and  C_12
    8  A    between atoms: C_11  and  C_42
    9  A    between atoms: O_14  and  C_39
   10  A    between atoms: C_17  and  C_34
   11  A    between atoms: C_24  and  O_37
   12  A    between atoms: C_26  and  O_29
   13  A    between atoms: C_31  and  N_41
   14  A    between atoms: C_34  and  N_35
   15  A    between atoms: N_35  and  O_37
                            x       y       z     vdW  Elec       q    Type
                         _______ _______ _______ _____ _____    ______ ____

>  <TORSDO>
F 15

$$$$
=
 OpenBabel11032419113D

 42 45  0  0  1  0  0  0  0  0999 V2000
  188.7940  178.2480  137.8910 C   0  0  0  0  0  0  0  0  0  0  0  0
  189.0900  178.4860  136.5180 N   0  0  0  0  0  1  0  0  0  0  0  0
  187.2070  178.3090  139.6630 C   0  0  0  0  0  0  0  0  0  0  0  0
  189.7820  177.7520  138.7530 C   0  0  0  0  0  0  0  0  0  0  0  0
  187.5470  178.5180  138.3640 N   0  0  0  0  0  0  0  0  0  0  0  0
  188.1540  177.7840  140.5480 C   0  0  0  0  0  3  0  0  0  0  0  0
  189.4470  177.4920  140.0960 C   0  0  0  0  0  0  0  0  0  0  0  0
  185.8470  178.6230  140.1250 C   0  0  0  0  0  0  0  0  0  0  0  0
  185.6660  179.1510  141.2580 O   0  0  0  0  0  0  0  0  0  0  0  0
  184.7270  178.3250  139.2870 N   0  0  0  0  0  2  0  0  0  0  0  0
  182.7690  180.0810  138.8280 S   0  0  0  0  0  1  0  0  0  0  0  0
  183.3600  178.6030  139.6920 C   0  0  0  0  0  2  0  0  0  0  0  0
  190.3930  176.9150  140.9510 O   0  0  0  0  0  0  0  0  0  0  0  0
  190.3900  177.0890  142.3620 C   0  0  1  0  0  3  0  0  0  0  0  0
  190.6180  175.7270  143.0340 C   0  0  0  0  0  2  0  0  0  0  0  0
  191.4190  178.3640  144.2720 C   0  0  0  0  0  2  0  0  0  0  0  0
  191.4710  175.7900  144.3060 C   0  0  0  0  0  2  0  0  0  0  0  0
  191.2040  177.0780  145.0930 C   0  0  1  0  0  3  0  0  0  0  0  0
  191.4590  178.1070  142.7650 C   0  0  0  0  0  2  0  0  0  0  0  0
  191.8860  177.1030  146.3270 O   0  0  0  0  0  0  0  0  0  0  0  0
  190.9900  176.7390  147.2840 N   0  0  0  0  0  2  0  0  0  0  0  0
  189.6980  177.2710  146.8780 C   0  0  0  0  0  2  0  0  0  0  0  0
  187.5760  177.9290  148.0300 C   0  0  0  0  0  3  0  0  0  0  0  0
  188.7830  177.3470  148.0610 C   0  0  0  0  0  3  0  0  0  0  0  0
  185.8010  179.3310  147.1700 N   0  0  0  0  0  2  0  0  0  0  0  0
  185.0010  178.3870  146.3970 C   0  0  0  0  0  2  0  0  0  0  0  0
  186.4620  177.7690  144.6360 O   0  0  0  0  0  1  0  0  0  0  0  0
  186.9930  178.5740  146.8050 C   0  0  2  0  0  3  0  0  0  0  0  0
  186.2050  177.5700  145.9930 C   0  0  1  0  0  3  0  0  0  0  0  0
  191.0680  177.4970  138.2480 O   0  0  0  0  0  0  0  0  0  0  0  0
  191.4800  176.2770  137.6950 C   0  0  0  0  0  0  0  0  0  0  0  0
  190.5840  175.2100  137.5110 C   0  0  0  0  0  3  0  0  0  0  0  0
  191.0240  174.0060  136.9560 C   0  0  0  0  0  3  0  0  0  0  0  0
  192.8220  176.1100  137.3440 C   0  0  0  0  0  3  0  0  0  0  0  0
  193.2620  174.9040  136.7880 C   0  0  0  0  0  3  0  0  0  0  0  0
  192.3660  173.8440  136.5860 C   0  0  0  0  0  0  0  0  0  0  0  0
  192.8250  172.5720  135.9940 C   0  0  0  0  0  0  0  0  0  0  0  0
  191.9870  171.7080  135.6180 O   0  0  0  0  0  0  0  0  0  0  0  0
  194.2830  172.2690  135.8600 C   0  0  0  0  0  2  0  0  0  0  0  0
  194.7030  171.2820  136.9310 C   0  0  0  0  0  2  0  0  0  0  0  0
  195.3280  172.0270  138.0910 C   0  0  0  0  0  2  0  0  0  0  0  0
  196.6130  172.6820  137.6310 C   0  0  0  0  0  1  0  0  0  0  0  0
  1  5  2  0  0  0  0
  1  4  1  0  0  0  0
  2  1  1  0  0  0  0
  3  8  1  0  0  0  0
  3  6  2  0  0  0  0
  4  7  2  0  0  0  0
  5  3  1  0  0  0  0
  7  6  1  0  0  0  0
  7 13  1  0  0  0  0
  8  9  2  0  0  0  0
 10 12  1  0  0  0  0
 10  8  1  0  0  0  0
 11 12  1  0  0  0  0
 14 13  1  6  0  0  0
 14 19  1  0  0  0  0
 14 15  1  0  0  0  0
 15 17  1  0  0  0  0
 16 18  1  0  0  0  0
 17 18  1  0  0  0  0
 18 20  1  1  0  0  0
 19 16  1  0  0  0  0
 20 21  1  0  0  0  0
 22 21  1  0  0  0  0
 22 24  1  0  0  0  0
 23 24  2  0  0  0  0
 26 25  1  0  0  0  0
 28 25  1  0  0  0  0
 28 23  1  1  0  0  0
 29 27  1  6  0  0  0
 29 26  1  0  0  0  0
 29 28  1  0  0  0  0
 30  4  1  0  0  0  0
 31 30  1  0  0  0  0
 32 31  1  0  0  0  0
 33 32  2  0  0  0  0
 34 31  2  0  0  0  0
 35 34  1  0  0  0  0
 36 35  2  0  0  0  0
 36 33  1  0  0  0  0
 37 36  1  0  0  0  0
 38 37  2  0  0  0  0
 39 37  1  0  0  0  0
 39 40  1  0  0  0  0
 40 41  1  0  0  0  0
 42 41  1  0  0  0  0
M  END
>  <MODEL>
3

>  <REMARK>
 VINA RESULT:      -7.4      3.463      7.780
  Name = 
  15 active torsions:
  status: ('A' for Active; 'I' for Inactive)
    1  A    between atoms: C_1  and  O_14
    2  A    between atoms: C_2  and  O_29
    3  A    between atoms: C_3  and  C_25
    4  A    between atoms: C_4  and  C_40
    5  A    between atoms: C_4  and  C_42
    6  A    between atoms: C_9  and  C_28
    7  A    between atoms: C_11  and  C_12
    8  A    between atoms: C_11  and  C_42
    9  A    between atoms: O_14  and  C_39
   10  A    between atoms: C_17  and  C_34
   11  A    between atoms: C_24  and  O_37
   12  A    between atoms: C_26  and  O_29
   13  A    between atoms: C_31  and  N_41
   14  A    between atoms: C_34  and  N_35
   15  A    between atoms: N_35  and  O_37
                            x       y       z     vdW  Elec       q    Type
                         _______ _______ _______ _____ _____    ______ ____

>  <TORSDO>
F 15

$$$$
=
 OpenBabel11032419113D

 42 45  0  0  1  0  0  0  0  0999 V2000
  183.2330  178.3120  140.5020 C   0  0  0  0  0  0  0  0  0  0  0  0
  182.8460  178.6480  141.8310 N   0  0  0  0  0  1  0  0  0  0  0  0
  182.6960  177.2510  138.4410 C   0  0  0  0  0  0  0  0  0  0  0  0
  184.4860  178.7020  140.0090 C   0  0  0  0  0  0  0  0  0  0  0  0
  182.3820  177.5980  139.7180 N   0  0  0  0  0  0  0  0  0  0  0  0
  183.9220  177.6490  137.9010 C   0  0  0  0  0  3  0  0  0  0  0  0
  184.8230  178.3870  138.6790 C   0  0  0  0  0  0  0  0  0  0  0  0
  181.7420  176.4730  137.6360 C   0  0  0  0  0  0  0  0  0  0  0  0
  180.5130  176.4830  137.9230 O   0  0  0  0  0  0  0  0  0  0  0  0
  182.2130  175.7020  136.5280 N   0  0  0  0  0  2  0  0  0  0  0  0
  181.2180  173.2280  136.3750 S   0  0  0  0  0  1  0  0  0  0  0  0
  181.3200  174.9070  135.7020 C   0  0  0  0  0  2  0  0  0  0  0  0
  186.0320  178.8420  138.1400 O   0  0  0  0  0  0  0  0  0  0  0  0
  186.8860  178.0410  137.3330 C   0  0  1  0  0  3  0  0  0  0  0  0
  188.0560  178.9030  136.8360 C   0  0  0  0  0  2  0  0  0  0  0  0
  188.2330  175.9160  137.2570 C   0  0  0  0  0  2  0  0  0  0  0  0
  189.3940  178.1600  136.7560 C   0  0  0  0  0  2  0  0  0  0  0  0
  189.1950  176.6970  136.3410 C   0  0  1  0  0  3  0  0  0  0  0  0
  187.3730  176.8300  138.1320 C   0  0  0  0  0  2  0  0  0  0  0  0
  190.4190  176.0250  136.1440 O   0  0  0  0  0  0  0  0  0  0  0  0
  191.3310  176.6130  136.9660 N   0  0  0  0  0  2  0  0  0  0  0  0
  191.5960  175.6740  138.0450 C   0  0  0  0  0  2  0  0  0  0  0  0
  193.4040  174.0620  137.4160 C   0  0  0  0  0  3  0  0  0  0  0  0
  192.1040  174.3820  137.4840 C   0  0  0  0  0  3  0  0  0  0  0  0
  195.4700  175.1730  136.8200 N   0  0  0  0  0  2  0  0  0  0  0  0
  196.4600  174.4340  137.5960 C   0  0  0  0  0  2  0  0  0  0  0  0
  195.8810  174.9600  139.8340 O   0  0  0  0  0  1  0  0  0  0  0  0
  194.5100  174.9590  137.8960 C   0  0  2  0  0  3  0  0  0  0  0  0
  195.5010  174.1860  138.7360 C   0  0  1  0  0  3  0  0  0  0  0  0
  185.3570  179.4230  140.8430 O   0  0  0  0  0  0  0  0  0  0  0  0
  186.3560  178.8470  141.6400 C   0  0  0  0  0  0  0  0  0  0  0  0
  186.0680  178.2990  142.9020 C   0  0  0  0  0  3  0  0  0  0  0  0
  187.0850  177.7300  143.6730 C   0  0  0  0  0  3  0  0  0  0  0  0
  187.6740  178.8420  141.1770 C   0  0  0  0  0  3  0  0  0  0  0  0
  188.6920  178.2720  141.9490 C   0  0  0  0  0  3  0  0  0  0  0  0
  188.4050  177.7080  143.2010 C   0  0  0  0  0  0  0  0  0  0  0  0
  189.4750  177.1000  144.0170 C   0  0  0  0  0  0  0  0  0  0  0  0
  189.9520  175.9770  143.7020 O   0  0  0  0  0  0  0  0  0  0  0  0
  189.9880  177.7850  145.2430 C   0  0  0  0  0  2  0  0  0  0  0  0
  189.7300  176.9180  146.4600 C   0  0  0  0  0  2  0  0  0  0  0  0
  188.4040  177.3010  147.0840 C   0  0  0  0  0  2  0  0  0  0  0  0
  188.6560  178.1000  148.3450 C   0  0  0  0  0  1  0  0  0  0  0  0
  1  2  1  0  0  0  0
  3  5  1  0  0  0  0
  4  1  1  0  0  0  0
  4 30  1  0  0  0  0
  5  1  2  0  0  0  0
  6  3  2  0  0  0  0
  6  7  1  0  0  0  0
  7  4  2  0  0  0  0
  8  9  2  0  0  0  0
  8  3  1  0  0  0  0
 10  8  1  0  0  0  0
 12 11  1  0  0  0  0
 12 10  1  0  0  0  0
 13  7  1  0  0  0  0
 14 19  1  0  0  0  0
 14 13  1  1  0  0  0
 15 14  1  0  0  0  0
 16 19  1  0  0  0  0
 17 15  1  0  0  0  0
 18 20  1  1  0  0  0
 18 17  1  0  0  0  0
 18 16  1  0  0  0  0
 20 21  1  0  0  0  0
 21 22  1  0  0  0  0
 23 24  2  0  0  0  0
 24 22  1  0  0  0  0
 25 26  1  0  0  0  0
 25 28  1  0  0  0  0
 26 29  1  0  0  0  0
 28 23  1  6  0  0  0
 28 29  1  0  0  0  0
 29 27  1  1  0  0  0
 30 31  1  0  0  0  0
 31 32  1  0  0  0  0
 32 33  2  0  0  0  0
 34 31  2  0  0  0  0
 34 35  1  0  0  0  0
 35 36  2  0  0  0  0
 36 33  1  0  0  0  0
 36 37  1  0  0  0  0
 37 39  1  0  0  0  0
 38 37  2  0  0  0  0
 39 40  1  0  0  0  0
 40 41  1  0  0  0  0
 41 42  1  0  0  0  0
M  END
>  <MODEL>
4

>  <REMARK>
 VINA RESULT:      -7.4      2.996      8.747
  Name = 
  15 active torsions:
  status: ('A' for Active; 'I' for Inactive)
    1  A    between atoms: C_1  and  O_14
    2  A    between atoms: C_2  and  O_29
    3  A    between atoms: C_3  and  C_25
    4  A    between atoms: C_4  and  C_40
    5  A    between atoms: C_4  and  C_42
    6  A    between atoms: C_9  and  C_28
    7  A    between atoms: C_11  and  C_12
    8  A    between atoms: C_11  and  C_42
    9  A    between atoms: O_14  and  C_39
   10  A    between atoms: C_17  and  C_34
   11  A    between atoms: C_24  and  O_37
   12  A    between atoms: C_26  and  O_29
   13  A    between atoms: C_31  and  N_41
   14  A    between atoms: C_34  and  N_35
   15  A    between atoms: N_35  and  O_37
                            x       y       z     vdW  Elec       q    Type
                         _______ _______ _______ _____ _____    ______ ____

>  <TORSDO>
F 15

$$$$
=
 OpenBabel11032419113D

 42 45  0  0  1  0  0  0  0  0999 V2000
  185.8230  176.9350  136.8440 C   0  0  0  0  0  0  0  0  0  0  0  0
  184.5020  177.0700  136.3270 N   0  0  0  0  0  1  0  0  0  0  0  0
  187.8490  175.6910  136.9320 C   0  0  0  0  0  0  0  0  0  0  0  0
  186.3330  177.8870  137.7380 C   0  0  0  0  0  0  0  0  0  0  0  0
  186.5810  175.8700  136.4730 N   0  0  0  0  0  0  0  0  0  0  0  0
  188.4070  176.6350  137.7990 C   0  0  0  0  0  3  0  0  0  0  0  0
  187.6560  177.7460  138.2010 C   0  0  0  0  0  0  0  0  0  0  0  0
  188.6260  174.5180  136.5040 C   0  0  0  0  0  0  0  0  0  0  0  0
  188.1130  173.3650  136.5500 O   0  0  0  0  0  0  0  0  0  0  0  0
  189.9670  174.6870  136.0380 N   0  0  0  0  0  2  0  0  0  0  0  0
  192.3780  173.6250  136.4720 S   0  0  0  0  0  1  0  0  0  0  0  0
  190.7860  173.5660  135.6110 C   0  0  0  0  0  2  0  0  0  0  0  0
  188.2140  178.7310  139.0240 O   0  0  0  0  0  0  0  0  0  0  0  0
  188.8610  178.4510  140.2590 C   0  0  1  0  0  3  0  0  0  0  0  0
  187.8020  178.3570  141.3670 C   0  0  0  0  0  2  0  0  0  0  0  0
  190.4390  176.8840  141.4370 C   0  0  0  0  0  2  0  0  0  0  0  0
  188.0990  177.2950  142.4310 C   0  0  0  0  0  2  0  0  0  0  0  0
  189.6040  177.1790  142.6990 C   0  0  1  0  0  3  0  0  0  0  0  0
  189.6750  177.1610  140.1410 C   0  0  0  0  0  2  0  0  0  0  0  0
  189.8930  176.2940  143.7580 O   0  0  0  0  0  0  0  0  0  0  0  0
  191.2420  176.3200  143.9400 N   0  0  0  0  0  2  0  0  0  0  0  0
  191.5030  177.2390  145.0370 C   0  0  0  0  0  2  0  0  0  0  0  0
  190.6060  176.7230  147.3150 C   0  0  0  0  0  3  0  0  0  0  0  0
  191.4940  176.4970  146.3370 C   0  0  0  0  0  3  0  0  0  0  0  0
  189.3120  178.3680  148.5290 N   0  0  0  0  0  2  0  0  0  0  0  0
  187.9940  177.7480  148.5940 C   0  0  0  0  0  2  0  0  0  0  0  0
  187.3130  177.7040  146.3240 O   0  0  0  0  0  1  0  0  0  0  0  0
  189.5090  177.7450  147.2260 C   0  0  2  0  0  3  0  0  0  0  0  0
  188.1510  177.0800  147.2490 C   0  0  1  0  0  3  0  0  0  0  0  0
  185.5260  178.9710  138.1220 O   0  0  0  0  0  0  0  0  0  0  0  0
  184.4460  178.8830  139.0110 C   0  0  0  0  0  0  0  0  0  0  0  0
  183.2910  179.6670  138.8500 C   0  0  0  0  0  3  0  0  0  0  0  0
  182.2300  179.5570  139.7520 C   0  0  0  0  0  3  0  0  0  0  0  0
  184.5330  178.0110  140.1000 C   0  0  0  0  0  3  0  0  0  0  0  0
  183.4700  177.9010  141.0030 C   0  0  0  0  0  3  0  0  0  0  0  0
  182.3090  178.6690  140.8340 C   0  0  0  0  0  0  0  0  0  0  0  0
  181.1820  178.5510  141.7810 C   0  0  0  0  0  0  0  0  0  0  0  0
  180.1920  177.8240  141.5010 O   0  0  0  0  0  0  0  0  0  0  0  0
  181.1790  179.3120  143.0680 C   0  0  0  0  0  2  0  0  0  0  0  0
  182.0730  178.6180  144.0760 C   0  0  0  0  0  2  0  0  0  0  0  0
  183.3330  179.4320  144.2820 C   0  0  0  0  0  2  0  0  0  0  0  0
  184.1090  178.8660  145.4520 C   0  0  0  0  0  1  0  0  0  0  0  0
  1  4  1  0  0  0  0
  2  1  1  0  0  0  0
  3  6  2  0  0  0  0
  4 30  1  0  0  0  0
  4  7  2  0  0  0  0
  5  1  2  0  0  0  0
  5  3  1  0  0  0  0
  6  7  1  0  0  0  0
  7 13  1  0  0  0  0
  8  9  2  0  0  0  0
  8  3  1  0  0  0  0
 10  8  1  0  0  0  0
 12 10  1  0  0  0  0
 12 11  1  0  0  0  0
 14 13  1  6  0  0  0
 14 15  1  0  0  0  0
 15 17  1  0  0  0  0
 16 18  1  0  0  0  0
 17 18  1  0  0  0  0
 18 20  1  1  0  0  0
 19 14  1  0  0  0  0
 19 16  1  0  0  0  0
 20 21  1  0  0  0  0
 21 22  1  0  0  0  0
 22 24  1  0  0  0  0
 24 23  2  0  0  0  0
 25 26  1  0  0  0  0
 28 29  1  0  0  0  0
 28 23  1  1  0  0  0
 28 25  1  0  0  0  0
 29 27  1  6  0  0  0
 29 26  1  0  0  0  0
 30 31  1  0  0  0  0
 31 34  1  0  0  0  0
 32 31  2  0  0  0  0
 32 33  1  0  0  0  0
 33 36  2  0  0  0  0
 34 35  2  0  0  0  0
 36 35  1  0  0  0  0
 36 37  1  0  0  0  0
 37 39  1  0  0  0  0
 38 37  2  0  0  0  0
 39 40  1  0  0  0  0
 40 41  1  0  0  0  0
 41 42  1  0  0  0  0
M  END
>  <MODEL>
5

>  <REMARK>
 VINA RESULT:      -7.4      2.866      7.789
  Name = 
  15 active torsions:
  status: ('A' for Active; 'I' for Inactive)
    1  A    between atoms: C_1  and  O_14
    2  A    between atoms: C_2  and  O_29
    3  A    between atoms: C_3  and  C_25
    4  A    between atoms: C_4  and  C_40
    5  A    between atoms: C_4  and  C_42
    6  A    between atoms: C_9  and  C_28
    7  A    between atoms: C_11  and  C_12
    8  A    between atoms: C_11  and  C_42
    9  A    between atoms: O_14  and  C_39
   10  A    between atoms: C_17  and  C_34
   11  A    between atoms: C_24  and  O_37
   12  A    between atoms: C_26  and  O_29
   13  A    between atoms: C_31  and  N_41
   14  A    between atoms: C_34  and  N_35
   15  A    between atoms: N_35  and  O_37
                            x       y       z     vdW  Elec       q    Type
                         _______ _______ _______ _____ _____    ______ ____

>  <TORSDO>
F 15

$$$$
=
 OpenBabel11032419113D

 42 45  0  0  1  0  0  0  0  0999 V2000
  182.6290  178.4570  139.9550 C   0  0  0  0  0  0  0  0  0  0  0  0
  181.8880  178.9510  141.0660 N   0  0  0  0  0  1  0  0  0  0  0  0
  182.6680  177.1670  137.9560 C   0  0  0  0  0  0  0  0  0  0  0  0
  183.9870  178.7740  139.8130 C   0  0  0  0  0  0  0  0  0  0  0  0
  182.0120  177.6640  139.0380 N   0  0  0  0  0  0  0  0  0  0  0  0
  184.0150  177.4860  137.7600 C   0  0  0  0  0  3  0  0  0  0  0  0
  184.6820  178.3020  138.6830 C   0  0  0  0  0  0  0  0  0  0  0  0
  181.9570  176.3100  136.9960 C   0  0  0  0  0  0  0  0  0  0  0  0
  181.1940  176.8220  136.1310 O   0  0  0  0  0  0  0  0  0  0  0  0
  182.1300  174.8910  137.0480 N   0  0  0  0  0  2  0  0  0  0  0  0
  182.6170  172.7490  135.5310 S   0  0  0  0  0  1  0  0  0  0  0  0
  181.4460  173.9930  136.1330 C   0  0  0  0  0  2  0  0  0  0  0  0
  186.0150  178.6790  138.4760 O   0  0  0  0  0  0  0  0  0  0  0  0
  187.0020  177.8140  137.9300 C   0  0  1  0  0  3  0  0  0  0  0  0
  187.5890  178.4620  136.6670 C   0  0  0  0  0  2  0  0  0  0  0  0
  189.1140  176.5390  138.4310 C   0  0  0  0  0  2  0  0  0  0  0  0
  189.0890  178.2120  136.4730 C   0  0  0  0  0  2  0  0  0  0  0  0
  189.4900  176.8160  136.9620 C   0  0  1  0  0  3  0  0  0  0  0  0
  188.0820  177.5280  138.9760 C   0  0  0  0  0  2  0  0  0  0  0  0
  190.8400  176.5180  136.6840 O   0  0  0  0  0  0  0  0  0  0  0  0
  191.3820  176.0260  137.8310 N   0  0  0  0  0  2  0  0  0  0  0  0
  192.6980  176.6290  137.9690 C   0  0  0  0  0  2  0  0  0  0  0  0
  194.4800  175.1680  136.9910 C   0  0  0  0  0  3  0  0  0  0  0  0
  193.5920  176.1640  136.8610 C   0  0  0  0  0  3  0  0  0  0  0  0
  195.5380  175.1600  139.1670 N   0  0  0  0  0  2  0  0  0  0  0  0
  196.5680  174.1400  139.0130 C   0  0  0  0  0  2  0  0  0  0  0  0
  195.3100  172.1530  138.7240 O   0  0  0  0  0  1  0  0  0  0  0  0
  194.6870  174.3960  138.2630 C   0  0  2  0  0  3  0  0  0  0  0  0
  195.7260  173.3140  138.0710 C   0  0  1  0  0  3  0  0  0  0  0  0
  184.6090  179.5790  140.7820 O   0  0  0  0  0  0  0  0  0  0  0  0
  185.1870  179.0990  141.9650 C   0  0  0  0  0  0  0  0  0  0  0  0
  186.3730  178.3460  141.9540 C   0  0  0  0  0  3  0  0  0  0  0  0
  186.9260  177.8820  143.1500 C   0  0  0  0  0  3  0  0  0  0  0  0
  184.5510  179.3550  143.1820 C   0  0  0  0  0  3  0  0  0  0  0  0
  185.1060  178.8910  144.3800 C   0  0  0  0  0  3  0  0  0  0  0  0
  186.3000  178.1540  144.3740 C   0  0  0  0  0  0  0  0  0  0  0  0
  186.8910  177.6670  145.6360 C   0  0  0  0  0  0  0  0  0  0  0  0
  186.3120  177.8850  146.7330 O   0  0  0  0  0  0  0  0  0  0  0  0
  188.1980  176.9390  145.6400 C   0  0  0  0  0  2  0  0  0  0  0  0
  189.3190  177.9000  145.9850 C   0  0  0  0  0  2  0  0  0  0  0  0
  190.1740  178.1430  144.7600 C   0  0  0  0  0  2  0  0  0  0  0  0
  190.6090  176.8140  144.1810 C   0  0  0  0  0  1  0  0  0  0  0  0
  1  2  1  0  0  0  0
  3  5  1  0  0  0  0
  4  1  1  0  0  0  0
  4 30  1  0  0  0  0
  5  1  2  0  0  0  0
  6  3  2  0  0  0  0
  6  7  1  0  0  0  0
  7  4  2  0  0  0  0
  8 10  1  0  0  0  0
  8  3  1  0  0  0  0
  9  8  2  0  0  0  0
 11 12  1  0  0  0  0
 12 10  1  0  0  0  0
 13  7  1  0  0  0  0
 14 13  1  1  0  0  0
 14 19  1  0  0  0  0
 15 14  1  0  0  0  0
 16 19  1  0  0  0  0
 17 15  1  0  0  0  0
 17 18  1  0  0  0  0
 18 20  1  1  0  0  0
 18 16  1  0  0  0  0
 20 21  1  0  0  0  0
 21 22  1  0  0  0  0
 24 23  2  0  0  0  0
 24 22  1  0  0  0  0
 26 25  1  0  0  0  0
 28 23  1  6  0  0  0
 28 25  1  0  0  0  0
 29 28  1  0  0  0  0
 29 27  1  1  0  0  0
 29 26  1  0  0  0  0
 30 31  1  0  0  0  0
 31 34  1  0  0  0  0
 32 31  2  0  0  0  0
 32 33  1  0  0  0  0
 33 36  2  0  0  0  0
 34 35  2  0  0  0  0
 36 35  1  0  0  0  0
 36 37  1  0  0  0  0
 37 39  1  0  0  0  0
 37 38  2  0  0  0  0
 39 40  1  0  0  0  0
 41 40  1  0  0  0  0
 42 41  1  0  0  0  0
M  END
>  <MODEL>
6

>  <REMARK>
 VINA RESULT:      -7.2      3.195      9.085
  Name = 
  15 active torsions:
  status: ('A' for Active; 'I' for Inactive)
    1  A    between atoms: C_1  and  O_14
    2  A    between atoms: C_2  and  O_29
    3  A    between atoms: C_3  and  C_25
    4  A    between atoms: C_4  and  C_40
    5  A    between atoms: C_4  and  C_42
    6  A    between atoms: C_9  and  C_28
    7  A    between atoms: C_11  and  C_12
    8  A    between atoms: C_11  and  C_42
    9  A    between atoms: O_14  and  C_39
   10  A    between atoms: C_17  and  C_34
   11  A    between atoms: C_24  and  O_37
   12  A    between atoms: C_26  and  O_29
   13  A    between atoms: C_31  and  N_41
   14  A    between atoms: C_34  and  N_35
   15  A    between atoms: N_35  and  O_37
                            x       y       z     vdW  Elec       q    Type
                         _______ _______ _______ _____ _____    ______ ____

>  <TORSDO>
F 15

$$$$
=
 OpenBabel11032419113D

 42 45  0  0  1  0  0  0  0  0999 V2000
  182.6640  178.0560  140.1770 C   0  0  0  0  0  0  0  0  0  0  0  0
  181.7910  178.4770  141.2200 N   0  0  0  0  0  1  0  0  0  0  0  0
  183.0040  176.7370  138.2250 C   0  0  0  0  0  0  0  0  0  0  0  0
  183.9790  178.5390  140.1160 C   0  0  0  0  0  0  0  0  0  0  0  0
  182.2160  177.1720  139.2450 N   0  0  0  0  0  0  0  0  0  0  0  0
  184.3110  177.2190  138.1110 C   0  0  0  0  0  3  0  0  0  0  0  0
  184.8050  178.1330  139.0500 C   0  0  0  0  0  0  0  0  0  0  0  0
  182.4730  175.7760  137.2470 C   0  0  0  0  0  0  0  0  0  0  0  0
  181.2270  175.6690  137.0740 O   0  0  0  0  0  0  0  0  0  0  0  0
  183.3740  174.9610  136.4930 N   0  0  0  0  0  2  0  0  0  0  0  0
  182.1850  172.5720  136.3860 S   0  0  0  0  0  1  0  0  0  0  0  0
  182.9090  173.9880  135.5190 C   0  0  0  0  0  2  0  0  0  0  0  0
  186.0920  178.6700  138.9220 O   0  0  0  0  0  0  0  0  0  0  0  0
  187.2530  177.8840  138.6830 C   0  0  1  0  0  3  0  0  0  0  0  0
  187.7750  178.1840  137.2700 C   0  0  0  0  0  2  0  0  0  0  0  0
  189.5360  177.2830  139.5550 C   0  0  0  0  0  2  0  0  0  0  0  0
  189.3030  178.1820  137.1530 C   0  0  0  0  0  2  0  0  0  0  0  0
  189.9330  177.1300  138.0730 C   0  0  1  0  0  3  0  0  0  0  0  0
  188.3090  178.1740  139.7520 C   0  0  0  0  0  2  0  0  0  0  0  0
  191.3280  177.0270  137.8940 O   0  0  0  0  0  0  0  0  0  0  0  0
  191.6420  175.7060  137.9750 N   0  0  0  0  0  2  0  0  0  0  0  0
  191.2910  175.1080  136.6960 C   0  0  0  0  0  2  0  0  0  0  0  0
  189.3720  173.5070  136.8310 C   0  0  0  0  0  3  0  0  0  0  0  0
  190.6870  173.7550  136.9140 C   0  0  0  0  0  3  0  0  0  0  0  0
  187.0150  174.0570  136.8410 N   0  0  0  0  0  2  0  0  0  0  0  0
  186.6870  174.0650  135.4200 C   0  0  0  0  0  2  0  0  0  0  0  0
  187.9380  175.9010  134.5950 O   0  0  0  0  0  1  0  0  0  0  0  0
  188.3440  174.5540  136.5080 C   0  0  2  0  0  3  0  0  0  0  0  0
  188.0510  174.5780  135.0240 C   0  0  1  0  0  3  0  0  0  0  0  0
  184.4270  179.4370  141.0990 O   0  0  0  0  0  0  0  0  0  0  0  0
  184.8960  179.0620  142.3660 C   0  0  0  0  0  0  0  0  0  0  0  0
  184.2900  179.5270  143.5450 C   0  0  0  0  0  3  0  0  0  0  0  0
  184.7800  179.1350  144.7930 C   0  0  0  0  0  3  0  0  0  0  0  0
  186.0120  178.2250  142.4550 C   0  0  0  0  0  3  0  0  0  0  0  0
  186.5020  177.8330  143.7040 C   0  0  0  0  0  3  0  0  0  0  0  0
  185.8880  178.2800  144.8840 C   0  0  0  0  0  0  0  0  0  0  0  0
  186.3990  177.8640  146.2050 C   0  0  0  0  0  0  0  0  0  0  0  0
  185.8490  178.2840  147.2580 O   0  0  0  0  0  0  0  0  0  0  0  0
  187.5900  176.9680  146.3190 C   0  0  0  0  0  2  0  0  0  0  0  0
  188.8480  177.8020  146.4570 C   0  0  0  0  0  2  0  0  0  0  0  0
  189.9000  177.2980  145.4920 C   0  0  0  0  0  2  0  0  0  0  0  0
  190.1080  178.3230  144.3980 C   0  0  0  0  0  1  0  0  0  0  0  0
  1  2  1  0  0  0  0
  3  5  1  0  0  0  0
  4  1  1  0  0  0  0
  4 30  1  0  0  0  0
  5  1  2  0  0  0  0
  6  3  2  0  0  0  0
  6  7  1  0  0  0  0
  7  4  2  0  0  0  0
  8  3  1  0  0  0  0
  9  8  2  0  0  0  0
 10  8  1  0  0  0  0
 12 11  1  0  0  0  0
 12 10  1  0  0  0  0
 13  7  1  0  0  0  0
 14 13  1  1  0  0  0
 14 19  1  0  0  0  0
 15 14  1  0  0  0  0
 16 19  1  0  0  0  0
 17 15  1  0  0  0  0
 17 18  1  0  0  0  0
 18 20  1  1  0  0  0
 18 16  1  0  0  0  0
 20 21  1  0  0  0  0
 22 24  1  0  0  0  0
 22 21  1  0  0  0  0
 23 24  2  0  0  0  0
 26 25  1  0  0  0  0
 28 23  1  6  0  0  0
 28 25  1  0  0  0  0
 29 27  1  1  0  0  0
 29 26  1  0  0  0  0
 29 28  1  0  0  0  0
 30 31  1  0  0  0  0
 31 34  2  0  0  0  0
 31 32  1  0  0  0  0
 32 33  2  0  0  0  0
 33 36  1  0  0  0  0
 34 35  1  0  0  0  0
 35 36  2  0  0  0  0
 36 37  1  0  0  0  0
 37 39  1  0  0  0  0
 37 38  2  0  0  0  0
 39 40  1  0  0  0  0
 41 40  1  0  0  0  0
 42 41  1  0  0  0  0
M  END
>  <MODEL>
7

>  <REMARK>
 VINA RESULT:      -7.2      2.555      7.540
  Name = 
  15 active torsions:
  status: ('A' for Active; 'I' for Inactive)
    1  A    between atoms: C_1  and  O_14
    2  A    between atoms: C_2  and  O_29
    3  A    between atoms: C_3  and  C_25
    4  A    between atoms: C_4  and  C_40
    5  A    between atoms: C_4  and  C_42
    6  A    between atoms: C_9  and  C_28
    7  A    between atoms: C_11  and  C_12
    8  A    between atoms: C_11  and  C_42
    9  A    between atoms: O_14  and  C_39
   10  A    between atoms: C_17  and  C_34
   11  A    between atoms: C_24  and  O_37
   12  A    between atoms: C_26  and  O_29
   13  A    between atoms: C_31  and  N_41
   14  A    between atoms: C_34  and  N_35
   15  A    between atoms: N_35  and  O_37
                            x       y       z     vdW  Elec       q    Type
                         _______ _______ _______ _____ _____    ______ ____

>  <TORSDO>
F 15

$$$$
=
 OpenBabel11032419113D

 42 45  0  0  1  0  0  0  0  0999 V2000
  180.6370  176.8270  140.2840 C   0  0  0  0  0  0  0  0  0  0  0  0
  179.8880  177.2250  141.4280 N   0  0  0  0  0  1  0  0  0  0  0  0
  180.9390  175.2900  138.4920 C   0  0  0  0  0  0  0  0  0  0  0  0
  181.7570  177.5660  139.8790 C   0  0  0  0  0  0  0  0  0  0  0  0
  180.2640  175.7160  139.5930 N   0  0  0  0  0  0  0  0  0  0  0  0
  182.0420  176.0180  138.0370 C   0  0  0  0  0  3  0  0  0  0  0  0
  182.4540  177.1680  138.7210 C   0  0  0  0  0  0  0  0  0  0  0  0
  180.4980  174.0790  137.7840 C   0  0  0  0  0  0  0  0  0  0  0  0
  179.2680  173.8550  137.6150 O   0  0  0  0  0  0  0  0  0  0  0  0
  181.4700  173.1530  137.2910 N   0  0  0  0  0  2  0  0  0  0  0  0
  182.5880  171.1120  135.9820 S   0  0  0  0  0  1  0  0  0  0  0  0
  181.0950  171.9360  136.5920 C   0  0  0  0  0  2  0  0  0  0  0  0
  183.5210  177.9410  138.2500 O   0  0  0  0  0  0  0  0  0  0  0  0
  184.8140  177.4170  137.9790 C   0  0  1  0  0  3  0  0  0  0  0  0
  184.9220  177.1040  136.4790 C   0  0  0  0  0  2  0  0  0  0  0  0
  187.2860  177.8320  138.2160 C   0  0  0  0  0  2  0  0  0  0  0  0
  186.3040  177.3830  135.8780 C   0  0  0  0  0  2  0  0  0  0  0  0
  187.4220  177.0750  136.8800 C   0  0  1  0  0  3  0  0  0  0  0  0
  185.8860  178.4110  138.4300 C   0  0  0  0  0  2  0  0  0  0  0  0
  188.7050  177.2100  136.3100 O   0  0  0  0  0  0  0  0  0  0  0  0
  189.5410  177.6130  137.3060 N   0  0  0  0  0  2  0  0  0  0  0  0
  190.3640  176.4660  137.6570 C   0  0  0  0  0  2  0  0  0  0  0  0
  191.5370  177.0120  139.8000 C   0  0  0  0  0  3  0  0  0  0  0  0
  191.5440  176.9140  138.4630 C   0  0  0  0  0  3  0  0  0  0  0  0
  189.5650  177.8910  140.8940 N   0  0  0  0  0  2  0  0  0  0  0  0
  189.9240  177.8070  142.3050 C   0  0  0  0  0  2  0  0  0  0  0  0
  190.0760  175.4710  142.6770 O   0  0  0  0  0  1  0  0  0  0  0  0
  190.3450  176.6820  140.6530 C   0  0  2  0  0  3  0  0  0  0  0  0
  190.7450  176.5550  142.1060 C   0  0  1  0  0  3  0  0  0  0  0  0
  182.1350  178.6990  140.6180 O   0  0  0  0  0  0  0  0  0  0  0  0
  182.9220  178.6680  141.7770 C   0  0  0  0  0  0  0  0  0  0  0  0
  182.4060  179.0400  143.0300 C   0  0  0  0  0  3  0  0  0  0  0  0
  183.2150  178.9980  144.1680 C   0  0  0  0  0  3  0  0  0  0  0  0
  184.2610  178.2820  141.6770 C   0  0  0  0  0  3  0  0  0  0  0  0
  185.0710  178.2390  142.8170 C   0  0  0  0  0  3  0  0  0  0  0  0
  184.5530  178.5920  144.0720 C   0  0  0  0  0  0  0  0  0  0  0  0
  185.4030  178.5430  145.2790 C   0  0  0  0  0  0  0  0  0  0  0  0
  185.4030  179.5040  146.0940 O   0  0  0  0  0  0  0  0  0  0  0  0
  186.2980  177.3740  145.5400 C   0  0  0  0  0  2  0  0  0  0  0  0
  187.6920  177.6700  145.0230 C   0  0  0  0  0  2  0  0  0  0  0  0
  188.6340  177.8700  146.1910 C   0  0  0  0  0  2  0  0  0  0  0  0
  188.0460  177.2210  147.4250 C   0  0  0  0  0  1  0  0  0  0  0  0
  1  2  1  0  0  0  0
  3  5  1  0  0  0  0
  4  1  1  0  0  0  0
  4 30  1  0  0  0  0
  5  1  2  0  0  0  0
  6  3  2  0  0  0  0
  6  7  1  0  0  0  0
  7  4  2  0  0  0  0
  8  3  1  0  0  0  0
  9  8  2  0  0  0  0
 10  8  1  0  0  0  0
 11 12  1  0  0  0  0
 12 10  1  0  0  0  0
 13  7  1  0  0  0  0
 14 13  1  6  0  0  0
 14 19  1  0  0  0  0
 15 14  1  0  0  0  0
 16 19  1  0  0  0  0
 17 15  1  0  0  0  0
 17 18  1  0  0  0  0
 18 20  1  6  0  0  0
 18 16  1  0  0  0  0
 20 21  1  0  0  0  0
 21 22  1  0  0  0  0
 22 24  1  0  0  0  0
 24 23  2  0  0  0  0
 25 26  1  0  0  0  0
 28 23  1  6  0  0  0
 28 25  1  0  0  0  0
 28 29  1  0  0  0  0
 29 26  1  0  0  0  0
 29 27  1  1  0  0  0
 30 31  1  0  0  0  0
 31 32  1  0  0  0  0
 32 33  2  0  0  0  0
 34 31  2  0  0  0  0
 34 35  1  0  0  0  0
 35 36  2  0  0  0  0
 36 33  1  0  0  0  0
 36 37  1  0  0  0  0
 37 39  1  0  0  0  0
 37 38  2  0  0  0  0
 40 39  1  0  0  0  0
 40 41  1  0  0  0  0
 41 42  1  0  0  0  0
M  END
>  <MODEL>
8

>  <REMARK>
 VINA RESULT:      -7.1      3.018      8.336
  Name = 
  15 active torsions:
  status: ('A' for Active; 'I' for Inactive)
    1  A    between atoms: C_1  and  O_14
    2  A    between atoms: C_2  and  O_29
    3  A    between atoms: C_3  and  C_25
    4  A    between atoms: C_4  and  C_40
    5  A    between atoms: C_4  and  C_42
    6  A    between atoms: C_9  and  C_28
    7  A    between atoms: C_11  and  C_12
    8  A    between atoms: C_11  and  C_42
    9  A    between atoms: O_14  and  C_39
   10  A    between atoms: C_17  and  C_34
   11  A    between atoms: C_24  and  O_37
   12  A    between atoms: C_26  and  O_29
   13  A    between atoms: C_31  and  N_41
   14  A    between atoms: C_34  and  N_35
   15  A    between atoms: N_35  and  O_37
                            x       y       z     vdW  Elec       q    Type
                         _______ _______ _______ _____ _____    ______ ____

>  <TORSDO>
F 15

$$$$
=
 OpenBabel11032419113D

 42 45  0  0  1  0  0  0  0  0999 V2000
  183.0570  178.2980  140.5930 C   0  0  0  0  0  0  0  0  0  0  0  0
  182.7040  178.6900  141.9160 N   0  0  0  0  0  1  0  0  0  0  0  0
  182.4420  177.2090  138.5690 C   0  0  0  0  0  0  0  0  0  0  0  0
  184.3210  178.6120  140.0750 C   0  0  0  0  0  0  0  0  0  0  0  0
  182.1620  177.6060  139.8390 N   0  0  0  0  0  0  0  0  0  0  0  0
  183.6800  177.5300  138.0040 C   0  0  0  0  0  3  0  0  0  0  0  0
  184.6250  178.2440  138.7500 C   0  0  0  0  0  0  0  0  0  0  0  0
  181.4410  176.4570  137.7970 C   0  0  0  0  0  0  0  0  0  0  0  0
  180.3950  177.0310  137.3850 O   0  0  0  0  0  0  0  0  0  0  0  0
  181.6550  175.0710  137.5180 N   0  0  0  0  0  2  0  0  0  0  0  0
  180.1670  172.8690  137.7800 S   0  0  0  0  0  1  0  0  0  0  0  0
  180.6980  174.2750  136.7690 C   0  0  0  0  0  2  0  0  0  0  0  0
  185.8480  178.6240  138.1850 O   0  0  0  0  0  0  0  0  0  0  0  0
  186.4640  177.9350  137.1040 C   0  0  1  0  0  3  0  0  0  0  0  0
  187.3450  178.9200  136.3210 C   0  0  0  0  0  2  0  0  0  0  0  0
  187.8810  175.9510  136.4800 C   0  0  0  0  0  2  0  0  0  0  0  0
  188.6430  178.3090  135.7820 C   0  0  0  0  0  2  0  0  0  0  0  0
  188.4400  176.8500  135.3600 C   0  0  1  0  0  3  0  0  0  0  0  0
  187.2730  176.7490  137.6340 C   0  0  0  0  0  2  0  0  0  0  0  0
  189.5880  176.3040  134.7500 O   0  0  0  0  0  0  0  0  0  0  0  0
  189.9910  175.2610  135.5250 N   0  0  0  0  0  2  0  0  0  0  0  0
  191.4420  175.3240  135.5980 C   0  0  0  0  0  2  0  0  0  0  0  0
  192.2000  175.1080  137.9740 C   0  0  0  0  0  3  0  0  0  0  0  0
  191.9280  174.5510  136.7850 C   0  0  0  0  0  3  0  0  0  0  0  0
  193.0530  176.9900  139.2330 N   0  0  0  0  0  2  0  0  0  0  0  0
  191.9820  177.2410  140.1900 C   0  0  0  0  0  2  0  0  0  0  0  0
  190.1890  177.9440  138.8090 O   0  0  0  0  0  1  0  0  0  0  0  0
  192.0490  176.5750  138.2610 C   0  0  2  0  0  3  0  0  0  0  0  0
  190.9050  176.8190  139.2200 C   0  0  1  0  0  3  0  0  0  0  0  0
  185.2370  179.3120  140.8780 O   0  0  0  0  0  0  0  0  0  0  0  0
  186.2220  178.7100  141.6730 C   0  0  0  0  0  0  0  0  0  0  0  0
  185.9720  178.3390  143.0050 C   0  0  0  0  0  3  0  0  0  0  0  0
  186.9730  177.7400  143.7720 C   0  0  0  0  0  3  0  0  0  0  0  0
  187.4930  178.4970  141.1320 C   0  0  0  0  0  3  0  0  0  0  0  0
  188.4960  177.8960  141.9000 C   0  0  0  0  0  3  0  0  0  0  0  0
  188.2430  177.5080  143.2240 C   0  0  0  0  0  0  0  0  0  0  0  0
  189.2970  176.8680  144.0370 C   0  0  0  0  0  0  0  0  0  0  0  0
  190.0520  175.9990  143.5250 O   0  0  0  0  0  0  0  0  0  0  0  0
  189.4660  177.2110  145.4820 C   0  0  0  0  0  2  0  0  0  0  0  0
  190.9190  177.0450  145.8820 C   0  0  0  0  0  2  0  0  0  0  0  0
  190.9990  176.3710  147.2350 C   0  0  0  0  0  2  0  0  0  0  0  0
  192.3080  175.6190  147.3430 C   0  0  0  0  0  1  0  0  0  0  0  0
  1  2  1  0  0  0  0
  3  5  1  0  0  0  0
  4  1  1  0  0  0  0
  4 30  1  0  0  0  0
  5  1  2  0  0  0  0
  6  3  2  0  0  0  0
  6  7  1  0  0  0  0
  7  4  2  0  0  0  0
  8  3  1  0  0  0  0
  9  8  2  0  0  0  0
 10  8  1  0  0  0  0
 12 10  1  0  0  0  0
 12 11  1  0  0  0  0
 13  7  1  0  0  0  0
 14 19  1  0  0  0  0
 14 13  1  1  0  0  0
 15 14  1  0  0  0  0
 16 19  1  0  0  0  0
 17 15  1  0  0  0  0
 18 20  1  1  0  0  0
 18 17  1  0  0  0  0
 18 16  1  0  0  0  0
 20 21  1  0  0  0  0
 21 22  1  0  0  0  0
 22 24  1  0  0  0  0
 24 23  2  0  0  0  0
 25 26  1  0  0  0  0
 28 23  1  1  0  0  0
 28 29  1  0  0  0  0
 28 25  1  0  0  0  0
 29 27  1  6  0  0  0
 29 26  1  0  0  0  0
 30 31  1  0  0  0  0
 31 32  1  0  0  0  0
 32 33  2  0  0  0  0
 34 31  2  0  0  0  0
 34 35  1  0  0  0  0
 35 36  2  0  0  0  0
 36 33  1  0  0  0  0
 36 37  1  0  0  0  0
 37 39  1  0  0  0  0
 38 37  2  0  0  0  0
 39 40  1  0  0  0  0
 40 41  1  0  0  0  0
 41 42  1  0  0  0  0
M  END
>  <MODEL>
9

>  <REMARK>
 VINA RESULT:      -7.1      2.712      8.060
  Name = 
  15 active torsions:
  status: ('A' for Active; 'I' for Inactive)
    1  A    between atoms: C_1  and  O_14
    2  A    between atoms: C_2  and  O_29
    3  A    between atoms: C_3  and  C_25
    4  A    between atoms: C_4  and  C_40
    5  A    between atoms: C_4  and  C_42
    6  A    between atoms: C_9  and  C_28
    7  A    between atoms: C_11  and  C_12
    8  A    between atoms: C_11  and  C_42
    9  A    between atoms: O_14  and  C_39
   10  A    between atoms: C_17  and  C_34
   11  A    between atoms: C_24  and  O_37
   12  A    between atoms: C_26  and  O_29
   13  A    between atoms: C_31  and  N_41
   14  A    between atoms: C_34  and  N_35
   15  A    between atoms: N_35  and  O_37
                            x       y       z     vdW  Elec       q    Type
                         _______ _______ _______ _____ _____    ______ ____

>  <TORSDO>
F 15

$$$$
