=
 OpenBabel11032420003D

 64 74  0  0  1  0  0  0  0  0999 V2000
  183.4040  173.0300  137.2420 C   0  0  0  0  0  0  0  0  0  0  0  0
  182.2140  172.7580  137.7080 C   0  0  0  0  0  3  0  0  0  0  0  0
  189.4090  178.1710  136.1820 N   0  0  0  0  0  0  0  0  0  0  0  0
  185.5240  171.5240  135.3970 C   0  0  0  0  0  0  0  0  0  0  0  0
  187.0870  177.6600  136.6450 C   0  0  2  0  0  3  0  0  0  0  0  0
  188.2200  178.6160  136.8040 C   0  0  0  0  0  0  0  0  0  0  0  0
  184.1270  176.9280  135.7890 O   0  0  0  0  0  1  0  0  0  0  0  0
  185.7620  178.4490  138.6660 C   0  0  0  0  0  2  0  0  0  0  0  0
  184.6080  173.3120  136.8250 C   0  0  0  0  0  3  0  0  0  0  0  0
  187.1020  176.1180  134.6130 C   0  0  0  0  0  2  0  0  0  0  0  0
  186.4300  177.2330  137.9820 C   0  0  2  0  0  0  0  0  0  0  0  0
  181.9730  177.5890  138.2440 C   0  0  1  0  0  3  0  0  0  0  0  0
  188.1270  179.7410  137.3590 O   0  0  0  0  0  0  0  0  0  0  0  0
  186.7760  171.1700  135.4020 N   0  0  0  0  0  0  0  0  0  0  0  0
  180.3290  175.6460  136.7970 O   0  0  0  0  0  1  0  0  0  0  0  0
  186.0490  175.1300  134.8420 N   0  0  0  0  0  0  0  0  0  0  0  0
  183.4700  177.8040  137.9320 C   0  0  2  0  0  3  0  0  0  0  0  0
  187.6150  173.3860  135.2300 N   0  0  0  0  0  0  0  0  0  0  0  0
  180.1650  173.4760  138.6100 O   0  0  0  0  0  0  0  0  0  0  0  0
  185.1120  172.9790  135.4520 C   0  0  1  0  0  3  0  0  0  0  0  0
  184.5200  170.5170  135.4130 N   0  0  0  0  0  1  0  0  0  0  0  0
  181.4160  175.2270  137.5720 C   0  0  2  0  0  3  0  0  0  0  0  0
  187.4650  176.6660  138.9540 C   0  0  0  0  0  1  0  0  0  0  0  0
  187.7900  176.4910  135.9210 C   0  0  1  0  0  3  0  0  0  0  0  0
  184.0720  176.6390  137.1460 C   0  0  2  0  0  3  0  0  0  0  0  0
  181.2210  173.8060  138.0090 C   0  0  0  0  0  0  0  0  0  0  0  0
  186.2720  173.8830  135.1300 C   0  0  0  0  0  0  0  0  0  0  0  0
  187.8480  172.1180  135.3690 C   0  0  0  0  0  3  0  0  0  0  0  0
  185.4090  176.1270  137.7000 C   0  0  0  0  0  2  0  0  0  0  0  0
  181.6370  176.1730  138.7500 C   0  0  0  0  0  2  0  0  0  0  0  0
  184.3290  178.1820  139.1470 C   0  0  0  0  0  2  0  0  0  0  0  0
  189.1700  177.0140  135.6690 C   0  0  0  0  0  0  0  0  0  0  0  0
  179.3250  180.4910  142.6970 C   0  0  0  0  0  3  0  0  0  0  0  0
  179.3680  179.5920  143.6370 N   0  0  0  0  0  0  0  0  0  0  0  0
  180.2660  178.5880  139.9010 C   0  0  2  0  0  3  0  0  0  0  0  0
  179.9720  177.6570  140.8150 C   0  0  0  0  0  2  0  0  0  0  0  0
  181.4330  178.6550  139.1020 N   0  0  2  0  0  0  0  0  0  0  0  0
  181.7240  180.0780  138.8780 C   0  0  0  0  0  2  0  0  0  0  0  0
  179.2040  178.4020  141.8120 C   0  0  2  0  0  3  0  0  0  0  0  0
  179.1850  179.7820  141.4380 C   0  0  2  0  0  3  0  0  0  0  0  0
  179.8440  179.8930  140.3010 C   0  0  1  0  0  3  0  0  0  0  0  0
  179.3650  178.2970  143.0860 N   0  0  0  0  0  2  0  0  0  0  0  0
  180.8520  180.8870  139.8680 C   0  0  0  0  0  2  0  0  0  0  0  0
  190.3800  176.1800  134.6470 S   0  0  0  0  0  0  0  0  0  0  0  0
  192.4740  174.7720  135.7110 C   0  0  2  0  0  3  0  0  0  0  0  0
  191.5500  175.9350  136.0130 C   0  0  2  0  0  3  0  0  0  0  0  0
  191.2640  174.5770  136.6060 C   0  0  0  0  0  2  0  0  0  0  0  0
  194.8110  173.8420  136.2230 C   0  0  2  0  0  0  0  0  0  0  0  0
  194.8810  175.2840  135.7360 C   0  0  2  0  0  3  0  0  0  0  0  0
  194.2680  176.2340  136.7350 C   0  0  0  0  0  2  0  0  0  0  0  0
  193.7080  174.8350  136.6000 C   0  0  1  0  0  0  0  0  0  0  0  0
  195.6220  173.4130  137.4440 C   0  0  2  0  0  3  0  0  0  0  0  0
  194.7890  173.3290  138.5630 O   0  0  0  0  0  1  0  0  0  0  0  0
  198.1550  173.7890  137.2860 C   0  0  0  0  0  0  0  0  0  0  0  0
  199.1290  174.7890  136.6680 C   0  0  0  0  0  1  0  0  0  0  0  0
  198.2250  172.3440  136.8010 C   0  0  0  0  0  1  0  0  0  0  0  0
  196.7970  174.3860  137.6650 C   0  0  2  0  0  3  0  0  0  0  0  0
  197.7700  173.9370  138.7540 C   0  0  2  0  0  3  0  0  0  0  0  0
  197.4820  175.6050  140.5730 C   0  0  0  0  0  1  0  0  0  0  0  0
  198.3650  175.1720  139.4220 C   0  0  0  0  0  2  0  0  0  0  0  0
  194.3810  172.8360  135.3250 O   0  0  0  0  0  0  0  0  0  0  0  0
  195.4890  170.7660  134.9890 C   0  0  0  0  0  1  0  0  0  0  0  0
  194.6020  171.5830  135.9130 C   0  0  0  0  0  3  0  0  0  0  0  0
  193.2820  170.8510  136.0710 C   0  0  0  0  0  1  0  0  0  0  0  0
  1  2  2  0  0  0  0
  2 26  1  0  0  0  0
  3  6  1  0  0  0  0
  4 14  2  0  0  0  0
  4 21  1  0  0  0  0
  4 20  1  0  0  0  0
  5  6  1  1  0  0  0
  5 11  1  0  0  0  0
  6 13  2  0  0  0  0
  8 31  1  0  0  0  0
  9  1  2  0  0  0  0
 10 16  1  0  0  0  0
 11  8  1  0  0  0  0
 11 23  1  1  0  0  0
 12 30  1  1  0  0  0
 12 37  1  0  0  0  0
 16 27  2  0  0  0  0
 17 12  1  0  0  0  0
 17 31  1  1  0  0  0
 18 28  2  0  0  0  0
 20  9  1  1  0  0  0
 22 15  1  1  0  0  0
 22 26  1  0  0  0  0
 22 30  1  0  0  0  0
 24 10  1  6  0  0  0
 24  5  1  0  0  0  0
 25  7  1  6  0  0  0
 25 29  1  0  0  0  0
 25 17  1  0  0  0  0
 26 19  2  0  0  0  0
 27 18  1  0  0  0  0
 27 20  1  0  0  0  0
 28 14  1  0  0  0  0
 29 11  1  0  0  0  0
 32 24  1  0  0  0  0
 32  3  2  0  0  0  0
 33 34  2  0  0  0  0
 35 41  1  0  0  0  0
 35 36  1  1  0  0  0
 37 38  1  6  0  0  0
 37 35  1  0  0  0  0
 38 43  1  0  0  0  0
 39 36  1  6  0  0  0
 39 42  1  0  0  0  0
 40 39  1  0  0  0  0
 40 33  1  1  0  0  0
 41 43  1  1  0  0  0
 41 40  1  0  0  0  0
 42 34  1  0  0  0  0
 44 32  1  0  0  0  0
 45 46  1  0  0  0  0
 45 51  1  0  0  0  0
 45 47  1  1  0  0  0
 46 44  1  6  0  0  0
 46 47  1  0  0  0  0
 48 61  1  6  0  0  0
 48 51  1  0  0  0  0
 48 52  1  0  0  0  0
 49 48  1  0  0  0  0
 49 51  1  0  0  0  0
 49 50  1  1  0  0  0
 51 50  1  1  0  0  0
 52 53  1  1  0  0  0
 54 57  1  0  0  0  0
 54 58  1  0  0  0  0
 55 54  1  0  0  0  0
 56 54  1  0  0  0  0
 57 52  1  6  0  0  0
 57 58  1  0  0  0  0
 58 60  1  1  0  0  0
 60 59  1  0  0  0  0
 61 63  1  0  0  0  0
 62 63  1  0  0  0  0
 63 64  1  0  0  0  0
M  END
>  <MODEL>
1

>  <REMARK>
 VINA RESULT:      -5.4      0.000      0.000
  Name = 
  9 active torsions:
  status: ('A' for Active; 'I' for Inactive)
    1  A    between atoms: O_6  and  C_19
    2  A    between atoms: O_6  and  C_21
    3  A    between atoms: C_14  and  C_19
    4  A    between atoms: C_14  and  C_57
    5  A    between atoms: C_22  and  N_30
    6  A    between atoms: C_24  and  C_51
    7  A    between atoms: C_41  and  C_64
    8  A    between atoms: S_52  and  C_60
    9  A    between atoms: S_52  and  C_63
                            x       y       z     vdW  Elec       q    Type
                         _______ _______ _______ _____ _____    ______ ____

>  <TORSDO>
F 9

$$$$
=
 OpenBabel11032420003D

 64 74  0  0  1  0  0  0  0  0999 V2000
  182.2730  173.4460  137.5240 C   0  0  0  0  0  0  0  0  0  0  0  0
  181.0540  173.3170  137.9780 C   0  0  0  0  0  3  0  0  0  0  0  0
  188.6150  178.0150  135.9390 N   0  0  0  0  0  0  0  0  0  0  0  0
  184.3520  171.5560  136.0180 C   0  0  0  0  0  0  0  0  0  0  0  0
  186.2530  177.7130  136.3800 C   0  0  2  0  0  3  0  0  0  0  0  0
  187.4370  178.6170  136.4370 C   0  0  0  0  0  0  0  0  0  0  0  0
  183.2810  177.0260  135.5250 O   0  0  0  0  0  1  0  0  0  0  0  0
  184.9150  178.8790  138.2010 C   0  0  0  0  0  2  0  0  0  0  0  0
  183.5040  173.5930  137.1190 C   0  0  0  0  0  3  0  0  0  0  0  0
  186.2350  175.8780  134.6080 C   0  0  0  0  0  2  0  0  0  0  0  0
  185.5290  177.5350  137.7380 C   0  0  2  0  0  0  0  0  0  0  0  0
  181.0960  178.1790  137.7610 C   0  0  1  0  0  3  0  0  0  0  0  0
  187.3960  179.8170  136.8100 O   0  0  0  0  0  0  0  0  0  0  0  0
  185.5790  171.1380  136.1280 N   0  0  0  0  0  0  0  0  0  0  0  0
  179.3810  176.1310  136.5610 O   0  0  0  0  0  1  0  0  0  0  0  0
  185.1160  174.9980  134.9420 N   0  0  0  0  0  0  0  0  0  0  0  0
  182.6130  178.2580  137.4820 C   0  0  2  0  0  3  0  0  0  0  0  0
  186.5580  173.2490  135.6550 N   0  0  0  0  0  0  0  0  0  0  0  0
  179.0250  174.2800  138.6750 O   0  0  0  0  0  0  0  0  0  0  0  0
  184.0290  173.0230  135.8330 C   0  0  1  0  0  3  0  0  0  0  0  0
  183.2870  170.6220  136.1450 N   0  0  0  0  0  1  0  0  0  0  0  0
  180.4150  175.7770  137.4340 C   0  0  2  0  0  3  0  0  0  0  0  0
  186.4950  177.0680  138.8270 C   0  0  0  0  0  1  0  0  0  0  0  0
  186.9040  176.4090  135.8710 C   0  0  1  0  0  3  0  0  0  0  0  0
  183.1650  176.9530  136.9070 C   0  0  2  0  0  3  0  0  0  0  0  0
  180.1190  174.4530  138.0750 C   0  0  0  0  0  0  0  0  0  0  0  0
  185.2530  173.8000  135.4250 C   0  0  0  0  0  0  0  0  0  0  0  0
  186.7090  172.0070  135.9940 C   0  0  0  0  0  3  0  0  0  0  0  0
  184.4500  176.4590  137.5860 C   0  0  0  0  0  2  0  0  0  0  0  0
  180.6570  176.8790  138.4630 C   0  0  0  0  0  2  0  0  0  0  0  0
  183.4550  178.7700  138.6580 C   0  0  0  0  0  2  0  0  0  0  0  0
  188.3210  176.8080  135.5980 C   0  0  0  0  0  0  0  0  0  0  0  0
  179.2530  183.7290  138.7950 C   0  0  0  0  0  3  0  0  0  0  0  0
  178.9320  184.1100  137.5940 N   0  0  0  0  0  0  0  0  0  0  0  0
  180.9490  180.7300  138.1220 C   0  0  2  0  0  3  0  0  0  0  0  0
  180.8950  181.3220  136.9230 C   0  0  0  0  0  2  0  0  0  0  0  0
  180.5960  179.3930  138.4240 N   0  0  2  0  0  0  0  0  0  0  0  0
  180.0620  179.3860  139.7940 C   0  0  0  0  0  2  0  0  0  0  0  0
  180.5750  182.7110  137.2540 C   0  0  2  0  0  3  0  0  0  0  0  0
  180.3690  182.8090  138.6650 C   0  0  2  0  0  3  0  0  0  0  0  0
  180.5720  181.6110  139.1800 C   0  0  1  0  0  3  0  0  0  0  0  0
  179.7020  183.4270  136.6340 N   0  0  0  0  0  2  0  0  0  0  0  0
  179.7990  180.8580  140.1930 C   0  0  0  0  0  2  0  0  0  0  0  0
  189.5080  175.7590  134.7660 S   0  0  0  0  0  0  0  0  0  0  0  0
  191.7800  174.7510  135.9160 C   0  0  2  0  0  3  0  0  0  0  0  0
  190.6720  175.7570  136.1590 C   0  0  2  0  0  3  0  0  0  0  0  0
  190.5980  174.3910  136.7980 C   0  0  0  0  0  2  0  0  0  0  0  0
  194.2910  174.4410  136.3470 C   0  0  2  0  0  0  0  0  0  0  0  0
  193.9570  175.8930  136.0300 C   0  0  2  0  0  3  0  0  0  0  0  0
  193.1270  176.5190  137.1250 C   0  0  0  0  0  2  0  0  0  0  0  0
  192.9670  175.0460  136.8220 C   0  0  1  0  0  0  0  0  0  0  0  0
  195.2110  174.1120  137.5210 C   0  0  2  0  0  3  0  0  0  0  0  0
  195.2040  175.1630  138.4410 O   0  0  0  0  0  1  0  0  0  0  0  0
  197.7250  174.1030  138.0340 C   0  0  0  0  0  0  0  0  0  0  0  0
  198.8970  173.1250  138.0110 C   0  0  0  0  0  1  0  0  0  0  0  0
  197.3370  174.7060  139.3810 C   0  0  0  0  0  1  0  0  0  0  0  0
  196.6310  173.8000  137.0070 C   0  0  2  0  0  3  0  0  0  0  0  0
  197.5130  175.0370  136.8470 C   0  0  2  0  0  3  0  0  0  0  0  0
  198.2830  175.8530  134.6310 C   0  0  0  0  0  1  0  0  0  0  0  0
  198.4890  174.8010  135.7000 C   0  0  0  0  0  2  0  0  0  0  0  0
  194.1350  173.4660  135.3330 O   0  0  0  0  0  0  0  0  0  0  0  0
  195.4970  171.6130  134.7540 C   0  0  0  0  0  1  0  0  0  0  0  0
  194.6060  172.2360  135.8150 C   0  0  0  0  0  3  0  0  0  0  0  0
  193.4370  171.3010  136.0620 C   0  0  0  0  0  1  0  0  0  0  0  0
  1  2  2  0  0  0  0
  2 26  1  0  0  0  0
  3  6  1  0  0  0  0
  4 14  2  0  0  0  0
  4 21  1  0  0  0  0
  5  6  1  1  0  0  0
  5 11  1  0  0  0  0
  6 13  2  0  0  0  0
  8 31  1  0  0  0  0
  9  1  2  0  0  0  0
 10 16  1  0  0  0  0
 11  8  1  0  0  0  0
 11 23  1  1  0  0  0
 12 37  1  0  0  0  0
 12 30  1  1  0  0  0
 16 27  2  0  0  0  0
 17 12  1  0  0  0  0
 17 31  1  1  0  0  0
 18 28  2  0  0  0  0
 20  4  1  0  0  0  0
 20  9  1  1  0  0  0
 22 15  1  6  0  0  0
 22 26  1  0  0  0  0
 22 30  1  0  0  0  0
 24 10  1  6  0  0  0
 24  5  1  0  0  0  0
 25  7  1  6  0  0  0
 25 17  1  0  0  0  0
 25 29  1  0  0  0  0
 26 19  2  0  0  0  0
 27 18  1  0  0  0  0
 27 20  1  0  0  0  0
 28 14  1  0  0  0  0
 29 11  1  0  0  0  0
 32 24  1  0  0  0  0
 32  3  2  0  0  0  0
 34 33  2  0  0  0  0
 35 36  1  6  0  0  0
 35 37  1  0  0  0  0
 35 41  1  0  0  0  0
 37 38  1  1  0  0  0
 38 43  1  0  0  0  0
 39 36  1  6  0  0  0
 39 40  1  0  0  0  0
 40 33  1  6  0  0  0
 40 41  1  0  0  0  0
 41 43  1  6  0  0  0
 42 39  1  0  0  0  0
 42 34  1  0  0  0  0
 44 32  1  0  0  0  0
 45 46  1  0  0  0  0
 45 47  1  1  0  0  0
 45 51  1  0  0  0  0
 46 44  1  6  0  0  0
 46 47  1  0  0  0  0
 48 61  1  6  0  0  0
 48 51  1  0  0  0  0
 48 52  1  0  0  0  0
 49 48  1  0  0  0  0
 49 51  1  0  0  0  0
 49 50  1  1  0  0  0
 51 50  1  1  0  0  0
 52 53  1  1  0  0  0
 54 56  1  0  0  0  0
 55 54  1  0  0  0  0
 57 52  1  1  0  0  0
 57 54  1  0  0  0  0
 58 60  1  6  0  0  0
 58 57  1  0  0  0  0
 58 54  1  0  0  0  0
 59 60  1  0  0  0  0
 61 63  1  0  0  0  0
 62 63  1  0  0  0  0
 63 64  1  0  0  0  0
M  END
>  <MODEL>
2

>  <REMARK>
 VINA RESULT:      -4.1      1.626      2.458
  Name = 
  9 active torsions:
  status: ('A' for Active; 'I' for Inactive)
    1  A    between atoms: O_6  and  C_19
    2  A    between atoms: O_6  and  C_21
    3  A    between atoms: C_14  and  C_19
    4  A    between atoms: C_14  and  C_57
    5  A    between atoms: C_22  and  N_30
    6  A    between atoms: C_24  and  C_51
    7  A    between atoms: C_41  and  C_64
    8  A    between atoms: S_52  and  C_60
    9  A    between atoms: S_52  and  C_63
                            x       y       z     vdW  Elec       q    Type
                         _______ _______ _______ _____ _____    ______ ____

>  <TORSDO>
F 9

$$$$
