=
 OpenBabel11032421283D

 34 36  0  0  1  0  0  0  0  0999 V2000
  188.8720  177.6390  146.2810 C   0  0  0  0  0  3  0  0  0  0  0  0
  187.4790  177.7140  146.2200 C   0  0  0  0  0  3  0  0  0  0  0  0
  188.9870  177.6510  143.8570 C   0  0  0  0  0  0  0  0  0  0  0  0
  187.5910  177.7250  143.8110 C   0  0  0  0  0  3  0  0  0  0  0  0
  189.6460  177.6040  145.1150 C   0  0  0  0  0  0  0  0  0  0  0  0
  186.8320  177.7580  144.9870 C   0  0  0  0  0  0  0  0  0  0  0  0
  189.6740  177.6440  142.5920 C   0  0  0  0  0  0  0  0  0  0  0  0
  190.2250  177.6370  141.5200 C   0  0  0  0  0  0  0  0  0  0  0  0
  187.2120  178.3900  136.0100 O   0  0  0  0  0  1  0  0  0  0  0  0
  190.8240  176.6910  137.8510 C   0  0  1  0  0  3  0  0  0  0  0  0
  188.6930  176.5030  136.2850 C   0  0  2  0  0  3  0  0  0  0  0  0
  190.0730  176.8000  139.1960 C   0  0  2  0  0  3  0  0  0  0  0  0
  192.2300  176.1230  138.0520 C   0  0  0  0  0  2  0  0  0  0  0  0
  188.6260  177.3230  139.0310 C   0  0  0  0  0  2  0  0  0  0  0  0
  188.2870  175.8710  134.9600 C   0  0  0  0  0  1  0  0  0  0  0  0
  192.2880  177.0570  140.3690 C   0  0  0  0  0  2  0  0  0  0  0  0
  190.4300  174.8830  136.3730 O   0  0  0  0  0  0  0  0  0  0  0  0
  188.5530  178.0390  136.1860 C   0  0  2  0  0  3  0  0  0  0  0  0
  193.0070  177.0010  139.0260 C   0  0  0  0  0  2  0  0  0  0  0  0
  190.8810  177.6310  140.2070 C   0  0  2  0  0  3  0  0  0  0  0  0
  190.0370  175.9700  136.7730 C   0  0  0  0  0  0  0  0  0  0  0  0
  189.1500  178.8480  137.3510 C   0  0  0  0  0  2  0  0  0  0  0  0
  188.5090  178.6650  138.5970 O   0  0  0  0  0  0  0  0  0  0  0  0
  191.0380  177.5260  145.2890 O   0  0  0  0  0  0  0  0  0  0  0  0
  191.7500  176.4010  145.7830 C   0  0  0  0  0  1  0  0  0  0  0  0
  185.4040  177.8330  144.9440 N   0  0  0  0  0  2  0  0  0  0  0  0
  184.6740  178.7770  144.1030 C   0  0  2  0  0  3  0  0  0  0  0  0
  183.3490  179.1780  144.7530 C   0  0  0  0  0  2  0  0  0  0  0  0
  182.1740  178.7210  143.9060 C   0  0  0  0  0  2  0  0  0  0  0  0
  181.5660  179.8220  143.3020 O   0  0  0  0  0  1  0  0  0  0  0  0
  184.4770  178.2350  142.7560 N   0  0  0  0  0  2  0  0  0  0  0  0
  185.0750  179.1140  141.7560 C   0  0  0  0  0  2  0  0  0  0  0  0
  184.6030  179.7710  139.4870 N   0  0  0  0  0  2  0  0  0  0  0  0
  184.3480  178.9780  140.4600 C   0  0  0  0  0  3  0  0  0  0  0  0
  2  1  1  0  0  0  0
  3  5  1  0  0  0  0
  4  3  2  0  0  0  0
  4  6  1  0  0  0  0
  5 24  1  0  0  0  0
  5  1  2  0  0  0  0
  6  2  2  0  0  0  0
  7  3  1  0  0  0  0
  8  7  3  0  0  0  0
 10 13  1  1  0  0  0
 10 12  1  0  0  0  0
 11 15  1  6  0  0  0
 11 21  1  0  0  0  0
 12 14  1  6  0  0  0
 12 20  1  0  0  0  0
 13 19  1  0  0  0  0
 17 21  2  0  0  0  0
 18  9  1  1  0  0  0
 18 11  1  0  0  0  0
 18 22  1  0  0  0  0
 19 16  1  0  0  0  0
 20 16  1  0  0  0  0
 20  8  1  1  0  0  0
 21 10  1  0  0  0  0
 22 23  1  0  0  0  0
 23 14  1  0  0  0  0
 24 25  1  0  0  0  0
 26  6  1  0  0  0  0
 27 28  1  1  0  0  0
 27 26  1  0  0  0  0
 29 28  1  0  0  0  0
 30 29  1  0  0  0  0
 31 27  1  0  0  0  0
 32 31  1  0  0  0  0
 33 34  2  0  0  0  0
 34 32  1  0  0  0  0
M  END
>  <MODEL>
1

>  <REMARK>
 VINA RESULT:      -8.0      0.000      0.000
  Name = 
  10 active torsions:
  status: ('A' for Active; 'I' for Inactive)
    1  A    between atoms: C_2  and  C_8
    2  A    between atoms: C_8  and  C_10
    3  A    between atoms: C_10  and  N_32
    4  A    between atoms: C_10  and  N_33
    5  A    between atoms: C_11  and  C_14
    6  A    between atoms: C_17  and  C_29
    7  A    between atoms: C_19  and  O_24
    8  A    between atoms: C_21  and  C_23
    9  A    between atoms: C_23  and  N_32
   10  A    between atoms: C_25  and  N_33
                            x       y       z     vdW  Elec       q    Type
                         _______ _______ _______ _____ _____    ______ ____

>  <TORSDO>
F 10

$$$$
=
 OpenBabel11032421283D

 34 36  0  0  1  0  0  0  0  0999 V2000
  189.1060  178.1370  142.1180 C   0  0  0  0  0  3  0  0  0  0  0  0
  189.3540  177.7230  143.4280 C   0  0  0  0  0  3  0  0  0  0  0  0
  186.7160  178.0250  142.5240 C   0  0  0  0  0  0  0  0  0  0  0  0
  186.9790  177.6100  143.8330 C   0  0  0  0  0  3  0  0  0  0  0  0
  187.7990  178.2930  141.6420 C   0  0  0  0  0  0  0  0  0  0  0  0
  188.2920  177.4590  144.2910 C   0  0  0  0  0  0  0  0  0  0  0  0
  185.3320  178.1710  142.1580 C   0  0  0  0  0  0  0  0  0  0  0  0
  184.1680  178.2650  141.8580 C   0  0  0  0  0  0  0  0  0  0  0  0
  181.9710  178.2200  135.9280 O   0  0  0  0  0  1  0  0  0  0  0  0
  181.0490  179.5330  140.0200 C   0  0  1  0  0  3  0  0  0  0  0  0
  181.2780  179.9890  137.4180 C   0  0  2  0  0  3  0  0  0  0  0  0
  182.5510  179.3330  140.3190 C   0  0  2  0  0  3  0  0  0  0  0  0
  180.2990  180.0020  141.2680 C   0  0  0  0  0  2  0  0  0  0  0  0
  183.3580  178.9080  139.0690 C   0  0  0  0  0  2  0  0  0  0  0  0
  180.5710  180.7690  136.3170 C   0  0  0  0  0  1  0  0  0  0  0  0
  181.9690  178.8440  142.7210 C   0  0  0  0  0  2  0  0  0  0  0  0
  180.2650  181.4970  138.9520 O   0  0  0  0  0  0  0  0  0  0  0  0
  181.2360  178.4800  137.0860 C   0  0  2  0  0  3  0  0  0  0  0  0
  180.4870  178.9920  142.3940 C   0  0  0  0  0  2  0  0  0  0  0  0
  182.7490  178.3650  141.4970 C   0  0  2  0  0  3  0  0  0  0  0  0
  180.7830  180.3980  138.8020 C   0  0  0  0  0  0  0  0  0  0  0  0
  181.6890  177.5290  138.2090 C   0  0  0  0  0  2  0  0  0  0  0  0
  183.0560  177.6230  138.5570 O   0  0  0  0  0  0  0  0  0  0  0  0
  187.6630  178.7120  140.3080 O   0  0  0  0  0  0  0  0  0  0  0  0
  188.3750  178.1860  139.1980 C   0  0  0  0  0  1  0  0  0  0  0  0
  188.5640  177.0330  145.6300 N   0  0  0  0  0  2  0  0  0  0  0  0
  188.3970  177.8960  146.7970 C   0  0  2  0  0  3  0  0  0  0  0  0
  189.5300  177.6820  147.8020 C   0  0  0  0  0  2  0  0  0  0  0  0
  190.5400  176.6800  147.2690 C   0  0  0  0  0  2  0  0  0  0  0  0
  191.8050  176.9610  147.7840 O   0  0  0  0  0  1  0  0  0  0  0  0
  187.0810  177.6970  147.4100 N   0  0  0  0  0  2  0  0  0  0  0  0
  186.2090  178.8350  147.1340 C   0  0  0  0  0  2  0  0  0  0  0  0
  184.1970  178.9390  145.8150 N   0  0  0  0  0  2  0  0  0  0  0  0
  184.8510  178.3530  146.7470 C   0  0  0  0  0  3  0  0  0  0  0  0
  1  2  1  0  0  0  0
  2  6  2  0  0  0  0
  3  4  2  0  0  0  0
  4  6  1  0  0  0  0
  5  1  2  0  0  0  0
  5  3  1  0  0  0  0
  6 26  1  0  0  0  0
  7  3  1  0  0  0  0
  8  7  3  0  0  0  0
 10 12  1  0  0  0  0
 10 13  1  1  0  0  0
 11 15  1  6  0  0  0
 11 21  1  0  0  0  0
 12 14  1  6  0  0  0
 12 20  1  0  0  0  0
 13 19  1  0  0  0  0
 18  9  1  6  0  0  0
 18 11  1  0  0  0  0
 18 22  1  0  0  0  0
 19 16  1  0  0  0  0
 20  8  1  1  0  0  0
 20 16  1  0  0  0  0
 21 17  2  0  0  0  0
 21 10  1  0  0  0  0
 22 23  1  0  0  0  0
 23 14  1  0  0  0  0
 24  5  1  0  0  0  0
 25 24  1  0  0  0  0
 26 27  1  0  0  0  0
 27 31  1  0  0  0  0
 27 28  1  1  0  0  0
 29 30  1  0  0  0  0
 29 28  1  0  0  0  0
 32 31  1  0  0  0  0
 33 34  2  0  0  0  0
 34 32  1  0  0  0  0
M  END
>  <MODEL>
2

>  <REMARK>
 VINA RESULT:      -7.9      3.048      7.598
  Name = 
  10 active torsions:
  status: ('A' for Active; 'I' for Inactive)
    1  A    between atoms: C_2  and  C_8
    2  A    between atoms: C_8  and  C_10
    3  A    between atoms: C_10  and  N_32
    4  A    between atoms: C_10  and  N_33
    5  A    between atoms: C_11  and  C_14
    6  A    between atoms: C_17  and  C_29
    7  A    between atoms: C_19  and  O_24
    8  A    between atoms: C_21  and  C_23
    9  A    between atoms: C_23  and  N_32
   10  A    between atoms: C_25  and  N_33
                            x       y       z     vdW  Elec       q    Type
                         _______ _______ _______ _____ _____    ______ ____

>  <TORSDO>
F 10

$$$$
=
 OpenBabel11032421283D

 34 36  0  0  1  0  0  0  0  0999 V2000
  183.5340  178.9560  144.7910 C   0  0  0  0  0  3  0  0  0  0  0  0
  182.4260  178.9160  143.9410 C   0  0  0  0  0  3  0  0  0  0  0  0
  185.0110  178.6210  142.8950 C   0  0  0  0  0  0  0  0  0  0  0  0
  183.8930  178.5820  142.0560 C   0  0  0  0  0  3  0  0  0  0  0  0
  184.8340  178.8090  144.2930 C   0  0  0  0  0  0  0  0  0  0  0  0
  182.6000  178.7290  142.5710 C   0  0  0  0  0  0  0  0  0  0  0  0
  186.2970  178.4810  142.2630 C   0  0  0  0  0  0  0  0  0  0  0  0
  187.3840  178.3840  141.7520 C   0  0  0  0  0  0  0  0  0  0  0  0
  188.4450  178.0920  135.5240 O   0  0  0  0  0  1  0  0  0  0  0  0
  190.1350  177.0360  139.4410 C   0  0  1  0  0  3  0  0  0  0  0  0
  189.4370  176.4230  136.9580 C   0  0  2  0  0  3  0  0  0  0  0  0
  188.7100  177.2400  140.0030 C   0  0  2  0  0  3  0  0  0  0  0  0
  191.1120  176.6510  140.5530 C   0  0  0  0  0  2  0  0  0  0  0  0
  187.6770  177.5820  138.9020 C   0  0  0  0  0  2  0  0  0  0  0  0
  189.9440  175.5840  135.7910 C   0  0  0  0  0  1  0  0  0  0  0  0
  189.7160  177.8780  142.2220 C   0  0  0  0  0  2  0  0  0  0  0  0
  190.7470  175.0200  138.3600 O   0  0  0  0  0  0  0  0  0  0  0  0
  189.3860  177.9100  136.5380 C   0  0  2  0  0  3  0  0  0  0  0  0
  191.1150  177.7240  141.6350 C   0  0  0  0  0  2  0  0  0  0  0  0
  188.7140  178.2750  141.1400 C   0  0  2  0  0  3  0  0  0  0  0  0
  190.1880  176.1020  138.2470 C   0  0  0  0  0  0  0  0  0  0  0  0
  189.1290  178.9220  137.6690 C   0  0  0  0  0  2  0  0  0  0  0  0
  187.8530  178.8360  138.2700 O   0  0  0  0  0  0  0  0  0  0  0  0
  185.8750  178.8630  145.2340 O   0  0  0  0  0  0  0  0  0  0  0  0
  186.1230  177.9050  146.2510 C   0  0  0  0  0  1  0  0  0  0  0  0
  181.4540  178.6880  141.7160 N   0  0  0  0  0  2  0  0  0  0  0  0
  181.5170  178.3170  140.3050 C   0  0  2  0  0  3  0  0  0  0  0  0
  181.5010  179.5590  139.4120 C   0  0  0  0  0  2  0  0  0  0  0  0
  182.7130  179.5780  138.4960 C   0  0  0  0  0  2  0  0  0  0  0  0
  183.7210  180.3620  139.0590 O   0  0  0  0  0  1  0  0  0  0  0  0
  180.4400  177.3850  139.9610 N   0  0  0  0  0  2  0  0  0  0  0  0
  180.9430  176.0160  139.9100 C   0  0  0  0  0  2  0  0  0  0  0  0
  182.7580  175.5110  138.4100 N   0  0  0  0  0  2  0  0  0  0  0  0
  182.3850  176.0190  139.5250 C   0  0  0  0  0  3  0  0  0  0  0  0
  2  1  2  0  0  0  0
  3  5  2  0  0  0  0
  4  6  2  0  0  0  0
  4  3  1  0  0  0  0
  5  1  1  0  0  0  0
  5 24  1  0  0  0  0
  6  2  1  0  0  0  0
  7  3  1  0  0  0  0
  8  7  3  0  0  0  0
 10 12  1  0  0  0  0
 10 13  1  1  0  0  0
 11 15  1  6  0  0  0
 11 21  1  0  0  0  0
 12 14  1  6  0  0  0
 12 20  1  0  0  0  0
 13 19  1  0  0  0  0
 18  9  1  6  0  0  0
 18 11  1  0  0  0  0
 18 22  1  0  0  0  0
 19 16  1  0  0  0  0
 20  8  1  1  0  0  0
 20 16  1  0  0  0  0
 21 17  2  0  0  0  0
 21 10  1  0  0  0  0
 22 23  1  0  0  0  0
 23 14  1  0  0  0  0
 24 25  1  0  0  0  0
 26  6  1  0  0  0  0
 27 28  1  6  0  0  0
 27 26  1  0  0  0  0
 29 30  1  0  0  0  0
 29 28  1  0  0  0  0
 31 27  1  0  0  0  0
 32 31  1  0  0  0  0
 33 34  2  0  0  0  0
 34 32  1  0  0  0  0
M  END
>  <MODEL>
3

>  <REMARK>
 VINA RESULT:      -7.5      2.382      3.901
  Name = 
  10 active torsions:
  status: ('A' for Active; 'I' for Inactive)
    1  A    between atoms: C_2  and  C_8
    2  A    between atoms: C_8  and  C_10
    3  A    between atoms: C_10  and  N_32
    4  A    between atoms: C_10  and  N_33
    5  A    between atoms: C_11  and  C_14
    6  A    between atoms: C_17  and  C_29
    7  A    between atoms: C_19  and  O_24
    8  A    between atoms: C_21  and  C_23
    9  A    between atoms: C_23  and  N_32
   10  A    between atoms: C_25  and  N_33
                            x       y       z     vdW  Elec       q    Type
                         _______ _______ _______ _____ _____    ______ ____

>  <TORSDO>
F 10

$$$$
=
 OpenBabel11032421283D

 34 36  0  0  1  0  0  0  0  0999 V2000
  189.7100  177.9040  141.9360 C   0  0  0  0  0  3  0  0  0  0  0  0
  190.2590  177.8750  143.2200 C   0  0  0  0  0  3  0  0  0  0  0  0
  187.4760  177.9620  142.8830 C   0  0  0  0  0  0  0  0  0  0  0  0
  188.0390  177.9320  144.1620 C   0  0  0  0  0  3  0  0  0  0  0  0
  188.3240  177.9460  141.7420 C   0  0  0  0  0  0  0  0  0  0  0  0
  189.4270  177.8900  144.3380 C   0  0  0  0  0  0  0  0  0  0  0  0
  186.0400  178.0270  142.8120 C   0  0  0  0  0  0  0  0  0  0  0  0
  184.8380  178.0620  142.7310 C   0  0  0  0  0  0  0  0  0  0  0  0
  181.6240  176.9650  137.3960 O   0  0  0  0  0  1  0  0  0  0  0  0
  181.3980  178.9760  141.2970 C   0  0  1  0  0  3  0  0  0  0  0  0
  181.1450  178.9670  138.6580 C   0  0  2  0  0  3  0  0  0  0  0  0
  182.9360  178.8370  141.3490 C   0  0  2  0  0  3  0  0  0  0  0  0
  180.8670  179.6550  142.5600 C   0  0  0  0  0  2  0  0  0  0  0  0
  183.5220  178.2000  140.0660 C   0  0  0  0  0  2  0  0  0  0  0  0
  180.2270  179.5390  137.5850 C   0  0  0  0  0  1  0  0  0  0  0  0
  182.8080  178.7770  143.8650 C   0  0  0  0  0  2  0  0  0  0  0  0
  180.3690  180.7180  140.0660 O   0  0  0  0  0  0  0  0  0  0  0  0
  181.0980  177.4230  138.6060 C   0  0  2  0  0  3  0  0  0  0  0  0
  181.2880  178.8610  143.7910 C   0  0  0  0  0  2  0  0  0  0  0  0
  183.3750  178.0930  142.6220 C   0  0  2  0  0  3  0  0  0  0  0  0
  180.8900  179.6120  140.0170 C   0  0  0  0  0  0  0  0  0  0  0  0
  181.7760  176.6870  139.7740 C   0  0  0  0  0  2  0  0  0  0  0  0
  183.1790  176.8450  139.8480 O   0  0  0  0  0  0  0  0  0  0  0  0
  187.8780  177.9690  140.4100 O   0  0  0  0  0  0  0  0  0  0  0  0
  188.6770  178.2580  139.2730 C   0  0  0  0  0  1  0  0  0  0  0  0
  190.0070  177.8580  145.6450 N   0  0  0  0  0  2  0  0  0  0  0  0
  189.3970  177.1680  146.7790 C   0  0  2  0  0  3  0  0  0  0  0  0
  189.0340  178.1540  147.8890 C   0  0  0  0  0  2  0  0  0  0  0  0
  187.5970  177.9520  148.3410 C   0  0  0  0  0  2  0  0  0  0  0  0
  186.7260  178.5780  147.4500 O   0  0  0  0  0  1  0  0  0  0  0  0
  190.2660  176.0940  147.2670 N   0  0  0  0  0  2  0  0  0  0  0  0
  191.6650  176.3950  146.9770 C   0  0  0  0  0  2  0  0  0  0  0  0
  193.2730  176.2530  148.7650 N   0  0  0  0  0  2  0  0  0  0  0  0
  192.5520  175.6350  147.9060 C   0  0  0  0  0  3  0  0  0  0  0  0
  1  2  1  0  0  0  0
  2  6  2  0  0  0  0
  3  4  2  0  0  0  0
  4  6  1  0  0  0  0
  5  1  2  0  0  0  0
  5  3  1  0  0  0  0
  6 26  1  0  0  0  0
  7  3  1  0  0  0  0
  8  7  3  0  0  0  0
 10 12  1  0  0  0  0
 10 13  1  1  0  0  0
 11 15  1  6  0  0  0
 11 21  1  0  0  0  0
 12 14  1  6  0  0  0
 12 20  1  0  0  0  0
 13 19  1  0  0  0  0
 18  9  1  6  0  0  0
 18 11  1  0  0  0  0
 18 22  1  0  0  0  0
 19 16  1  0  0  0  0
 20  8  1  1  0  0  0
 20 16  1  0  0  0  0
 21 17  2  0  0  0  0
 21 10  1  0  0  0  0
 22 23  1  0  0  0  0
 23 14  1  0  0  0  0
 24  5  1  0  0  0  0
 25 24  1  0  0  0  0
 26 27  1  0  0  0  0
 27 31  1  0  0  0  0
 27 28  1  1  0  0  0
 28 29  1  0  0  0  0
 30 29  1  0  0  0  0
 32 31  1  0  0  0  0
 32 34  1  0  0  0  0
 34 33  2  0  0  0  0
M  END
>  <MODEL>
4

>  <REMARK>
 VINA RESULT:      -7.5      3.320      7.900
  Name = 
  10 active torsions:
  status: ('A' for Active; 'I' for Inactive)
    1  A    between atoms: C_2  and  C_8
    2  A    between atoms: C_8  and  C_10
    3  A    between atoms: C_10  and  N_32
    4  A    between atoms: C_10  and  N_33
    5  A    between atoms: C_11  and  C_14
    6  A    between atoms: C_17  and  C_29
    7  A    between atoms: C_19  and  O_24
    8  A    between atoms: C_21  and  C_23
    9  A    between atoms: C_23  and  N_32
   10  A    between atoms: C_25  and  N_33
                            x       y       z     vdW  Elec       q    Type
                         _______ _______ _______ _____ _____    ______ ____

>  <TORSDO>
F 10

$$$$
=
 OpenBabel11032421283D

 34 36  0  0  1  0  0  0  0  0999 V2000
  183.3780  178.9940  144.7340 C   0  0  0  0  0  3  0  0  0  0  0  0
  182.3110  178.8930  143.8400 C   0  0  0  0  0  3  0  0  0  0  0  0
  184.9480  178.6730  142.9110 C   0  0  0  0  0  0  0  0  0  0  0  0
  183.8700  178.5740  142.0270 C   0  0  0  0  0  3  0  0  0  0  0  0
  184.7030  178.8850  144.2950 C   0  0  0  0  0  0  0  0  0  0  0  0
  182.5510  178.6830  142.4830 C   0  0  0  0  0  0  0  0  0  0  0  0
  186.2640  178.5680  142.3380 C   0  0  0  0  0  0  0  0  0  0  0  0
  187.3550  178.4730  141.8330 C   0  0  0  0  0  0  0  0  0  0  0  0
  188.3350  178.2120  135.5910 O   0  0  0  0  0  1  0  0  0  0  0  0
  190.0620  177.1130  139.4800 C   0  0  1  0  0  3  0  0  0  0  0  0
  189.3280  176.5230  137.0010 C   0  0  2  0  0  3  0  0  0  0  0  0
  188.6470  177.3270  140.0600 C   0  0  2  0  0  3  0  0  0  0  0  0
  191.0490  176.7090  140.5760 C   0  0  0  0  0  2  0  0  0  0  0  0
  187.6040  177.6870  138.9750 C   0  0  0  0  0  2  0  0  0  0  0  0
  189.8110  175.6870  135.8230 C   0  0  0  0  0  1  0  0  0  0  0  0
  189.6870  177.9400  142.2710 C   0  0  0  0  0  2  0  0  0  0  0  0
  190.6400  175.0970  138.3780 O   0  0  0  0  0  0  0  0  0  0  0  0
  189.2870  178.0130  136.5920 C   0  0  2  0  0  3  0  0  0  0  0  0
  191.0760  177.7750  141.6650 C   0  0  0  0  0  2  0  0  0  0  0  0
  188.6760  178.3540  141.2040 C   0  0  2  0  0  3  0  0  0  0  0  0
  190.0910  176.1860  138.2790 C   0  0  0  0  0  0  0  0  0  0  0  0
  189.0550  179.0200  137.7330 C   0  0  0  0  0  2  0  0  0  0  0  0
  187.7850  178.9440  138.3490 O   0  0  0  0  0  0  0  0  0  0  0  0
  185.7010  178.9990  145.2780 O   0  0  0  0  0  0  0  0  0  0  0  0
  185.6790  178.3810  146.5560 C   0  0  0  0  0  1  0  0  0  0  0  0
  181.4450  178.5810  141.5810 N   0  0  0  0  0  2  0  0  0  0  0  0
  181.2780  179.4430  140.4130 C   0  0  2  0  0  3  0  0  0  0  0  0
  179.9990  180.2740  140.5260 C   0  0  0  0  0  2  0  0  0  0  0  0
  179.7620  181.0710  139.2550 C   0  0  0  0  0  2  0  0  0  0  0  0
  179.0660  182.2430  139.5510 O   0  0  0  0  0  1  0  0  0  0  0  0
  181.3100  178.6580  139.1760 N   0  0  0  0  0  2  0  0  0  0  0  0
  182.5550  178.8920  138.4520 C   0  0  0  0  0  2  0  0  0  0  0  0
  184.5250  180.1270  139.0850 N   0  0  0  0  0  2  0  0  0  0  0  0
  183.2470  180.0930  139.0060 C   0  0  0  0  0  3  0  0  0  0  0  0
  2  1  2  0  0  0  0
  3  5  2  0  0  0  0
  4  6  2  0  0  0  0
  4  3  1  0  0  0  0
  5  1  1  0  0  0  0
  5 24  1  0  0  0  0
  6  2  1  0  0  0  0
  7  3  1  0  0  0  0
  8  7  3  0  0  0  0
 10 12  1  0  0  0  0
 10 13  1  1  0  0  0
 11 15  1  6  0  0  0
 11 21  1  0  0  0  0
 12 14  1  6  0  0  0
 12 20  1  0  0  0  0
 13 19  1  0  0  0  0
 18  9  1  6  0  0  0
 18 11  1  0  0  0  0
 18 22  1  0  0  0  0
 19 16  1  0  0  0  0
 20  8  1  1  0  0  0
 20 16  1  0  0  0  0
 21 17  2  0  0  0  0
 21 10  1  0  0  0  0
 22 23  1  0  0  0  0
 23 14  1  0  0  0  0
 24 25  1  0  0  0  0
 26  6  1  0  0  0  0
 27 28  1  1  0  0  0
 27 26  1  0  0  0  0
 29 30  1  0  0  0  0
 29 28  1  0  0  0  0
 31 27  1  0  0  0  0
 32 34  1  0  0  0  0
 32 31  1  0  0  0  0
 34 33  2  0  0  0  0
M  END
>  <MODEL>
5

>  <REMARK>
 VINA RESULT:      -7.4      2.287      3.819
  Name = 
  10 active torsions:
  status: ('A' for Active; 'I' for Inactive)
    1  A    between atoms: C_2  and  C_8
    2  A    between atoms: C_8  and  C_10
    3  A    between atoms: C_10  and  N_32
    4  A    between atoms: C_10  and  N_33
    5  A    between atoms: C_11  and  C_14
    6  A    between atoms: C_17  and  C_29
    7  A    between atoms: C_19  and  O_24
    8  A    between atoms: C_21  and  C_23
    9  A    between atoms: C_23  and  N_32
   10  A    between atoms: C_25  and  N_33
                            x       y       z     vdW  Elec       q    Type
                         _______ _______ _______ _____ _____    ______ ____

>  <TORSDO>
F 10

$$$$
=
 OpenBabel11032421283D

 34 36  0  0  1  0  0  0  0  0999 V2000
  191.9450  174.0460  136.1220 C   0  0  0  0  0  3  0  0  0  0  0  0
  193.3280  174.1540  136.2740 C   0  0  0  0  0  3  0  0  0  0  0  0
  191.6130  175.5470  138.0000 C   0  0  0  0  0  0  0  0  0  0  0  0
  193.0000  175.6450  138.1410 C   0  0  0  0  0  3  0  0  0  0  0  0
  191.0680  174.7300  136.9720 C   0  0  0  0  0  0  0  0  0  0  0  0
  193.8630  174.9530  137.2830 C   0  0  0  0  0  0  0  0  0  0  0  0
  190.8150  176.3150  138.9200 C   0  0  0  0  0  0  0  0  0  0  0  0
  190.1710  176.9660  139.7030 C   0  0  0  0  0  0  0  0  0  0  0  0
  191.7600  177.7880  145.7690 O   0  0  0  0  0  1  0  0  0  0  0  0
  188.3640  177.8200  142.9790 C   0  0  1  0  0  3  0  0  0  0  0  0
  189.5230  177.0520  145.2360 C   0  0  2  0  0  3  0  0  0  0  0  0
  189.2780  177.0350  142.0100 C   0  0  2  0  0  3  0  0  0  0  0  0
  186.9940  178.0800  142.3500 C   0  0  0  0  0  2  0  0  0  0  0  0
  190.6580  176.7060  142.6260 C   0  0  0  0  0  2  0  0  0  0  0  0
  189.1560  176.7990  146.6930 C   0  0  0  0  0  1  0  0  0  0  0  0
  188.0170  178.0350  140.0710 C   0  0  0  0  0  2  0  0  0  0  0  0
  187.2210  176.7240  144.7400 O   0  0  0  0  0  0  0  0  0  0  0  0
  190.5690  178.1870  145.1590 C   0  0  2  0  0  3  0  0  0  0  0  0
  187.1620  178.8420  141.0410 C   0  0  0  0  0  2  0  0  0  0  0  0
  189.4000  177.7660  140.6620 C   0  0  2  0  0  3  0  0  0  0  0  0
  188.2810  177.2070  144.3630 C   0  0  0  0  0  0  0  0  0  0  0  0
  190.8690  178.7340  143.7520 C   0  0  0  0  0  2  0  0  0  0  0  0
  191.4960  177.8200  142.8750 O   0  0  0  0  0  0  0  0  0  0  0  0
  189.6950  174.5500  136.7330 O   0  0  0  0  0  0  0  0  0  0  0  0
  188.9800  173.3340  136.8850 C   0  0  0  0  0  1  0  0  0  0  0  0
  195.2830  175.0500  137.4250 N   0  0  0  0  0  2  0  0  0  0  0  0
  196.0450  174.2950  138.4170 C   0  0  2  0  0  3  0  0  0  0  0  0
  197.5140  174.1830  138.0090 C   0  0  0  0  0  2  0  0  0  0  0  0
  198.4090  174.8740  139.0240 C   0  0  0  0  0  2  0  0  0  0  0  0
  197.6300  175.5660  139.9520 O   0  0  0  0  0  1  0  0  0  0  0  0
  195.4420  172.9800  138.6500 N   0  0  0  0  0  2  0  0  0  0  0  0
  196.1580  171.9490  137.9040 C   0  0  0  0  0  2  0  0  0  0  0  0
  195.2640  169.8180  138.5850 N   0  0  0  0  0  2  0  0  0  0  0  0
  195.2790  170.7570  137.7140 C   0  0  0  0  0  3  0  0  0  0  0  0
  1  2  2  0  0  0  0
  1  5  1  0  0  0  0
  2  6  1  0  0  0  0
  3  4  1  0  0  0  0
  3  7  1  0  0  0  0
  5  3  2  0  0  0  0
  6 26  1  0  0  0  0
  6  4  2  0  0  0  0
  7  8  3  0  0  0  0
 10 13  1  6  0  0  0
 10 21  1  0  0  0  0
 11 15  1  1  0  0  0
 12 14  1  1  0  0  0
 12 10  1  0  0  0  0
 14 23  1  0  0  0  0
 16 20  1  0  0  0  0
 16 19  1  0  0  0  0
 18 11  1  0  0  0  0
 18  9  1  6  0  0  0
 19 13  1  0  0  0  0
 20  8  1  6  0  0  0
 20 12  1  0  0  0  0
 21 17  2  0  0  0  0
 21 11  1  0  0  0  0
 22 18  1  0  0  0  0
 23 22  1  0  0  0  0
 24 25  1  0  0  0  0
 24  5  1  0  0  0  0
 26 27  1  0  0  0  0
 27 28  1  6  0  0  0
 27 31  1  0  0  0  0
 28 29  1  0  0  0  0
 29 30  1  0  0  0  0
 32 31  1  0  0  0  0
 34 32  1  0  0  0  0
 34 33  2  0  0  0  0
M  END
>  <MODEL>
6

>  <REMARK>
 VINA RESULT:      -7.2      4.857     10.224
  Name = 
  10 active torsions:
  status: ('A' for Active; 'I' for Inactive)
    1  A    between atoms: C_2  and  C_8
    2  A    between atoms: C_8  and  C_10
    3  A    between atoms: C_10  and  N_32
    4  A    between atoms: C_10  and  N_33
    5  A    between atoms: C_11  and  C_14
    6  A    between atoms: C_17  and  C_29
    7  A    between atoms: C_19  and  O_24
    8  A    between atoms: C_21  and  C_23
    9  A    between atoms: C_23  and  N_32
   10  A    between atoms: C_25  and  N_33
                            x       y       z     vdW  Elec       q    Type
                         _______ _______ _______ _____ _____    ______ ____

>  <TORSDO>
F 10

$$$$
=
 OpenBabel11032421283D

 34 36  0  0  1  0  0  0  0  0999 V2000
  188.5010  177.4890  144.9770 C   0  0  0  0  0  3  0  0  0  0  0  0
  189.4480  177.6130  143.9580 C   0  0  0  0  0  3  0  0  0  0  0  0
  186.7210  177.9450  143.3910 C   0  0  0  0  0  0  0  0  0  0  0  0
  187.6800  178.0670  142.3810 C   0  0  0  0  0  3  0  0  0  0  0  0
  187.1340  177.6520  144.7190 C   0  0  0  0  0  0  0  0  0  0  0  0
  189.0420  177.9020  142.6570 C   0  0  0  0  0  0  0  0  0  0  0  0
  185.3460  178.1110  142.9990 C   0  0  0  0  0  0  0  0  0  0  0  0
  184.1940  178.2230  142.6640 C   0  0  0  0  0  0  0  0  0  0  0  0
  182.1250  177.5550  136.7260 O   0  0  0  0  0  1  0  0  0  0  0  0
  181.1790  179.3980  140.6020 C   0  0  1  0  0  3  0  0  0  0  0  0
  181.4860  179.5220  137.9720 C   0  0  2  0  0  3  0  0  0  0  0  0
  182.6630  179.1680  140.9640 C   0  0  2  0  0  3  0  0  0  0  0  0
  180.4260  180.0480  141.7640 C   0  0  0  0  0  2  0  0  0  0  0  0
  183.4750  178.5570  139.7970 C   0  0  0  0  0  2  0  0  0  0  0  0
  180.8420  180.1940  136.7660 C   0  0  0  0  0  1  0  0  0  0  0  0
  182.0070  179.0020  143.3910 C   0  0  0  0  0  2  0  0  0  0  0  0
  180.5140  181.2500  139.2840 O   0  0  0  0  0  0  0  0  0  0  0  0
  181.3780  177.9870  137.8240 C   0  0  2  0  0  3  0  0  0  0  0  0
  180.5420  179.1760  143.0080 C   0  0  0  0  0  2  0  0  0  0  0  0
  182.7890  178.3420  142.2560 C   0  0  2  0  0  3  0  0  0  0  0  0
  180.9820  180.1190  139.2830 C   0  0  0  0  0  0  0  0  0  0  0  0
  181.7610  177.1610  139.0650 C   0  0  0  0  0  2  0  0  0  0  0  0
  183.1230  177.2350  139.4360 O   0  0  0  0  0  0  0  0  0  0  0  0
  186.2680  177.5080  145.8160 O   0  0  0  0  0  0  0  0  0  0  0  0
  185.7150  178.5690  146.5800 C   0  0  0  0  0  1  0  0  0  0  0  0
  190.0260  178.0280  141.6260 N   0  0  0  0  0  2  0  0  0  0  0  0
  189.8570  177.4820  140.2810 C   0  0  2  0  0  3  0  0  0  0  0  0
  191.1920  176.9970  139.7150 C   0  0  0  0  0  2  0  0  0  0  0  0
  192.3490  177.5010  140.5600 C   0  0  0  0  0  2  0  0  0  0  0  0
  193.5270  177.4840  139.8130 O   0  0  0  0  0  1  0  0  0  0  0  0
  189.2130  178.4580  139.3980 N   0  0  0  0  0  2  0  0  0  0  0  0
  189.2260  177.9870  138.0170 C   0  0  0  0  0  2  0  0  0  0  0  0
  186.9050  178.6270  138.0930 N   0  0  0  0  0  2  0  0  0  0  0  0
  187.8950  178.2270  137.3860 C   0  0  0  0  0  3  0  0  0  0  0  0
  2  1  2  0  0  0  0
  3  5  2  0  0  0  0
  4  6  2  0  0  0  0
  4  3  1  0  0  0  0
  5  1  1  0  0  0  0
  5 24  1  0  0  0  0
  6  2  1  0  0  0  0
  7  3  1  0  0  0  0
  8  7  3  0  0  0  0
 10 12  1  0  0  0  0
 10 13  1  1  0  0  0
 11 15  1  6  0  0  0
 11 21  1  0  0  0  0
 12 14  1  6  0  0  0
 12 20  1  0  0  0  0
 13 19  1  0  0  0  0
 18  9  1  6  0  0  0
 18 11  1  0  0  0  0
 18 22  1  0  0  0  0
 19 16  1  0  0  0  0
 20  8  1  1  0  0  0
 20 16  1  0  0  0  0
 21 17  2  0  0  0  0
 21 10  1  0  0  0  0
 22 23  1  0  0  0  0
 23 14  1  0  0  0  0
 24 25  1  0  0  0  0
 26  6  1  0  0  0  0
 27 28  1  6  0  0  0
 27 26  1  0  0  0  0
 28 29  1  0  0  0  0
 30 29  1  0  0  0  0
 31 27  1  0  0  0  0
 32 31  1  0  0  0  0
 34 32  1  0  0  0  0
 34 33  2  0  0  0  0
M  END
>  <MODEL>
7

>  <REMARK>
 VINA RESULT:      -7.1      3.070      7.669
  Name = 
  10 active torsions:
  status: ('A' for Active; 'I' for Inactive)
    1  A    between atoms: C_2  and  C_8
    2  A    between atoms: C_8  and  C_10
    3  A    between atoms: C_10  and  N_32
    4  A    between atoms: C_10  and  N_33
    5  A    between atoms: C_11  and  C_14
    6  A    between atoms: C_17  and  C_29
    7  A    between atoms: C_19  and  O_24
    8  A    between atoms: C_21  and  C_23
    9  A    between atoms: C_23  and  N_32
   10  A    between atoms: C_25  and  N_33
                            x       y       z     vdW  Elec       q    Type
                         _______ _______ _______ _____ _____    ______ ____

>  <TORSDO>
F 10

$$$$
=
 OpenBabel11032421283D

 34 36  0  0  1  0  0  0  0  0999 V2000
  185.1890  178.7060  146.5240 C   0  0  0  0  0  3  0  0  0  0  0  0
  186.4660  178.2290  146.8250 C   0  0  0  0  0  3  0  0  0  0  0  0
  185.6460  178.4560  144.1530 C   0  0  0  0  0  0  0  0  0  0  0  0
  186.9220  177.9810  144.4700 C   0  0  0  0  0  3  0  0  0  0  0  0
  184.7570  178.8300  145.1980 C   0  0  0  0  0  0  0  0  0  0  0  0
  187.3380  177.8640  145.8010 C   0  0  0  0  0  0  0  0  0  0  0  0
  185.3080  178.5170  142.7560 C   0  0  0  0  0  0  0  0  0  0  0  0
  184.9990  178.5750  141.5920 C   0  0  0  0  0  0  0  0  0  0  0  0
  179.0230  178.8820  139.5460 O   0  0  0  0  0  1  0  0  0  0  0  0
  183.0920  177.7000  138.3790 C   0  0  1  0  0  3  0  0  0  0  0  0
  180.4950  177.2150  138.6070 C   0  0  2  0  0  3  0  0  0  0  0  0
  183.4240  177.7130  139.8880 C   0  0  2  0  0  3  0  0  0  0  0  0
  184.3230  177.3310  137.5500 C   0  0  0  0  0  2  0  0  0  0  0  0
  182.1920  178.0330  140.7680 C   0  0  0  0  0  2  0  0  0  0  0  0
  179.3790  176.5270  137.8320 C   0  0  0  0  0  1  0  0  0  0  0  0
  185.8130  178.2740  139.3200 C   0  0  0  0  0  2  0  0  0  0  0  0
  182.0060  175.8470  137.3810 O   0  0  0  0  0  0  0  0  0  0  0  0
  180.1650  178.7170  138.7600 C   0  0  2  0  0  3  0  0  0  0  0  0
  185.4540  178.3110  137.8390 C   0  0  0  0  0  2  0  0  0  0  0  0
  184.6080  178.6510  140.1790 C   0  0  2  0  0  3  0  0  0  0  0  0
  181.8680  176.8730  138.0350 C   0  0  0  0  0  0  0  0  0  0  0  0
  181.2980  179.6060  139.3030 C   0  0  0  0  0  2  0  0  0  0  0  0
  181.6750  179.3440  140.6390 O   0  0  0  0  0  0  0  0  0  0  0  0
  183.4550  179.3220  145.0060 O   0  0  0  0  0  0  0  0  0  0  0  0
  182.3910  178.6270  144.3750 C   0  0  0  0  0  1  0  0  0  0  0  0
  188.6430  177.3790  146.1290 N   0  0  0  0  0  2  0  0  0  0  0  0
  189.7290  177.2740  145.1570 C   0  0  2  0  0  3  0  0  0  0  0  0
  190.8790  176.4310  145.7100 C   0  0  0  0  0  2  0  0  0  0  0  0
  191.1270  176.7550  147.1740 C   0  0  0  0  0  2  0  0  0  0  0  0
  192.0510  175.8570  147.7100 O   0  0  0  0  0  1  0  0  0  0  0  0
  190.1820  178.6010  144.7330 N   0  0  0  0  0  2  0  0  0  0  0  0
  191.1240  178.4920  143.6230 C   0  0  0  0  0  2  0  0  0  0  0  0
  191.0170  177.5030  141.4290 N   0  0  0  0  0  2  0  0  0  0  0  0
  190.6520  177.4580  142.6560 C   0  0  0  0  0  3  0  0  0  0  0  0
  1  2  1  0  0  0  0
  3  4  2  0  0  0  0
  3  5  1  0  0  0  0
  4  6  1  0  0  0  0
  5  1  2  0  0  0  0
  6 26  1  0  0  0  0
  6  2  2  0  0  0  0
  7  3  1  0  0  0  0
  8  7  3  0  0  0  0
 10 13  1  6  0  0  0
 10 12  1  0  0  0  0
 11 15  1  6  0  0  0
 11 18  1  0  0  0  0
 12 20  1  0  0  0  0
 12 14  1  1  0  0  0
 13 19  1  0  0  0  0
 16 20  1  0  0  0  0
 17 21  2  0  0  0  0
 18 22  1  0  0  0  0
 18  9  1  1  0  0  0
 19 16  1  0  0  0  0
 20  8  1  1  0  0  0
 21 10  1  0  0  0  0
 21 11  1  0  0  0  0
 22 23  1  0  0  0  0
 23 14  1  0  0  0  0
 24  5  1  0  0  0  0
 25 24  1  0  0  0  0
 27 28  1  1  0  0  0
 27 26  1  0  0  0  0
 28 29  1  0  0  0  0
 29 30  1  0  0  0  0
 31 27  1  0  0  0  0
 32 31  1  0  0  0  0
 33 34  2  0  0  0  0
 34 32  1  0  0  0  0
M  END
>  <MODEL>
8

>  <REMARK>
 VINA RESULT:      -7.1      3.745      7.107
  Name = 
  10 active torsions:
  status: ('A' for Active; 'I' for Inactive)
    1  A    between atoms: C_2  and  C_8
    2  A    between atoms: C_8  and  C_10
    3  A    between atoms: C_10  and  N_32
    4  A    between atoms: C_10  and  N_33
    5  A    between atoms: C_11  and  C_14
    6  A    between atoms: C_17  and  C_29
    7  A    between atoms: C_19  and  O_24
    8  A    between atoms: C_21  and  C_23
    9  A    between atoms: C_23  and  N_32
   10  A    between atoms: C_25  and  N_33
                            x       y       z     vdW  Elec       q    Type
                         _______ _______ _______ _____ _____    ______ ____

>  <TORSDO>
F 10

$$$$
=
 OpenBabel11032421283D

 34 36  0  0  1  0  0  0  0  0999 V2000
  191.4970  177.4070  142.1470 C   0  0  0  0  0  3  0  0  0  0  0  0
  191.0150  177.6490  143.4350 C   0  0  0  0  0  3  0  0  0  0  0  0
  189.2970  177.8660  141.2290 C   0  0  0  0  0  0  0  0  0  0  0  0
  188.8280  178.1040  142.5240 C   0  0  0  0  0  3  0  0  0  0  0  0
  190.6580  177.5080  141.0300 C   0  0  0  0  0  0  0  0  0  0  0  0
  189.6800  177.9980  143.6300 C   0  0  0  0  0  0  0  0  0  0  0  0
  188.3470  178.0220  140.1590 C   0  0  0  0  0  0  0  0  0  0  0  0
  187.5390  178.1280  139.2710 C   0  0  0  0  0  0  0  0  0  0  0  0
  181.5690  180.0450  140.1030 O   0  0  0  0  0  1  0  0  0  0  0  0
  184.1800  177.6850  137.4700 C   0  0  1  0  0  3  0  0  0  0  0  0
  181.9800  177.9810  138.9190 C   0  0  2  0  0  3  0  0  0  0  0  0
  185.1890  177.6750  138.6400 C   0  0  2  0  0  3  0  0  0  0  0  0
  184.7390  176.9370  136.2580 C   0  0  0  0  0  2  0  0  0  0  0  0
  184.6430  178.3790  139.9050 C   0  0  0  0  0  2  0  0  0  0  0  0
  180.5050  177.6060  138.8660 C   0  0  0  0  0  1  0  0  0  0  0  0
  187.0670  177.4960  136.9700 C   0  0  0  0  0  2  0  0  0  0  0  0
  182.3540  176.1780  137.4150 O   0  0  0  0  0  0  0  0  0  0  0  0
  182.1200  179.5200  138.9320 C   0  0  2  0  0  3  0  0  0  0  0  0
  186.0600  177.5620  135.8280 C   0  0  0  0  0  2  0  0  0  0  0  0
  186.5470  178.2450  138.1960 C   0  0  2  0  0  3  0  0  0  0  0  0
  182.7890  177.2300  137.8650 C   0  0  0  0  0  0  0  0  0  0  0  0
  183.5450  180.0700  138.7400 C   0  0  0  0  0  2  0  0  0  0  0  0
  184.4460  179.7750  139.7880 O   0  0  0  0  0  0  0  0  0  0  0  0
  191.2440  177.2420  139.7810 O   0  0  0  0  0  0  0  0  0  0  0  0
  190.9980  176.0980  138.9770 C   0  0  0  0  0  1  0  0  0  0  0  0
  189.2030  178.2400  144.9570 N   0  0  0  0  0  2  0  0  0  0  0  0
  188.1280  177.4700  145.5770 C   0  0  2  0  0  3  0  0  0  0  0  0
  186.8080  178.2410  145.5350 C   0  0  0  0  0  2  0  0  0  0  0  0
  186.1530  178.2620  146.9050 C   0  0  0  0  0  2  0  0  0  0  0  0
  184.9310  178.9330  146.8390 O   0  0  0  0  0  1  0  0  0  0  0  0
  188.4860  177.0790  146.9430 N   0  0  0  0  0  2  0  0  0  0  0  0
  189.8210  177.5630  147.2820 C   0  0  0  0  0  2  0  0  0  0  0  0
  192.0430  176.6340  147.2400 N   0  0  0  0  0  2  0  0  0  0  0  0
  190.7820  176.4220  147.3160 C   0  0  0  0  0  3  0  0  0  0  0  0
  1  2  1  0  0  0  0
  2  6  2  0  0  0  0
  3  4  2  0  0  0  0
  4  6  1  0  0  0  0
  5  3  1  0  0  0  0
  5  1  2  0  0  0  0
  6 26  1  0  0  0  0
  7  3  1  0  0  0  0
  8  7  3  0  0  0  0
 10 13  1  6  0  0  0
 10 21  1  0  0  0  0
 10 12  1  0  0  0  0
 11 15  1  6  0  0  0
 11 18  1  0  0  0  0
 12 14  1  1  0  0  0
 16 20  1  0  0  0  0
 17 21  2  0  0  0  0
 18  9  1  1  0  0  0
 19 13  1  0  0  0  0
 19 16  1  0  0  0  0
 20 12  1  0  0  0  0
 20  8  1  1  0  0  0
 21 11  1  0  0  0  0
 22 18  1  0  0  0  0
 22 23  1  0  0  0  0
 23 14  1  0  0  0  0
 24  5  1  0  0  0  0
 25 24  1  0  0  0  0
 26 27  1  0  0  0  0
 27 28  1  1  0  0  0
 27 31  1  0  0  0  0
 28 29  1  0  0  0  0
 30 29  1  0  0  0  0
 31 32  1  0  0  0  0
 32 34  1  0  0  0  0
 33 34  2  0  0  0  0
M  END
>  <MODEL>
9

>  <REMARK>
 VINA RESULT:      -7.0      2.959      6.102
  Name = 
  10 active torsions:
  status: ('A' for Active; 'I' for Inactive)
    1  A    between atoms: C_2  and  C_8
    2  A    between atoms: C_8  and  C_10
    3  A    between atoms: C_10  and  N_32
    4  A    between atoms: C_10  and  N_33
    5  A    between atoms: C_11  and  C_14
    6  A    between atoms: C_17  and  C_29
    7  A    between atoms: C_19  and  O_24
    8  A    between atoms: C_21  and  C_23
    9  A    between atoms: C_23  and  N_32
   10  A    between atoms: C_25  and  N_33
                            x       y       z     vdW  Elec       q    Type
                         _______ _______ _______ _____ _____    ______ ____

>  <TORSDO>
F 10

$$$$
