=
 OpenBabel11032420093D

 28 32  0  0  1  0  0  0  0  0999 V2000
  190.9750  177.3680  143.1870 C   0  0  2  0  0  3  0  0  0  0  0  0
  187.2270  178.0100  142.3860 C   0  0  0  0  0  1  0  0  0  0  0  0
  189.5410  177.1370  145.2430 C   0  0  0  0  0  0  0  0  0  0  0  0
  191.8210  176.2510  147.7620 O   0  0  0  0  0  0  0  0  0  0  0  0
  188.5000  177.7120  143.1170 C   0  0  0  0  0  0  0  0  0  0  0  0
  191.1730  176.5370  146.7220 C   0  0  0  0  0  0  0  0  0  0  0  0
  189.6670  177.5310  142.4350 C   0  0  0  0  0  0  0  0  0  0  0  0
  188.4470  177.5850  144.6110 C   0  0  0  0  0  0  0  0  0  0  0  0
  191.7550  176.5280  145.4250 N   0  0  0  0  0  2  0  0  0  0  0  0
  190.7390  176.8680  144.5340 N   0  0  0  0  0  0  0  0  0  0  0  0
  189.7300  176.9330  146.7160 C   0  0  0  0  0  2  0  0  0  0  0  0
  191.6590  178.6480  143.2580 N   0  0  0  0  0  1  0  0  0  0  0  0
  188.8790  178.5560  137.6720 C   0  0  0  0  0  3  0  0  0  0  0  0
  190.5890  176.2460  135.3750 F   0  0  0  0  0  0  0  0  0  0  0  0
  190.5990  176.2960  137.7630 C   0  0  0  0  0  3  0  0  0  0  0  0
  189.7230  177.5460  140.9920 N   0  0  0  0  0  0  0  0  0  0  0  0
  189.0480  178.3910  140.1700 C   0  0  0  0  0  3  0  0  0  0  0  0
  189.3210  177.9450  136.4850 C   0  0  0  0  0  3  0  0  0  0  0  0
  190.1750  176.8220  136.5280 C   0  0  0  0  0  0  0  0  0  0  0  0
  189.3200  178.0140  138.8760 C   0  0  0  0  0  0  0  0  0  0  0  0
  190.1480  176.9260  138.9200 C   0  0  0  0  0  0  0  0  0  0  0  0
  190.3880  176.6310  140.2410 C   0  0  0  0  0  3  0  0  0  0  0  0
  184.8060  178.2210  145.4540 C   0  0  0  0  0  3  0  0  0  0  0  0
  185.9620  177.9020  144.7370 C   0  0  0  0  0  3  0  0  0  0  0  0
  184.8950  178.5620  146.8070 C   0  0  0  0  0  3  0  0  0  0  0  0
  186.1400  178.5850  147.4410 C   0  0  0  0  0  3  0  0  0  0  0  0
  187.2170  177.9210  145.3660 C   0  0  0  0  0  0  0  0  0  0  0  0
  187.2960  178.2660  146.7240 C   0  0  0  0  0  3  0  0  0  0  0  0
  1 12  1  1  0  0  0
  1 10  1  0  0  0  0
  2  5  1  0  0  0  0
  3 11  1  0  0  0  0
  5  8  1  0  0  0  0
  6  4  2  0  0  0  0
  7  5  2  0  0  0  0
  7  1  1  0  0  0  0
  8  3  2  0  0  0  0
  8 27  1  0  0  0  0
  9  6  1  0  0  0  0
 10  3  1  0  0  0  0
 10  9  1  0  0  0  0
 11  6  1  0  0  0  0
 13 20  1  0  0  0  0
 14 19  1  0  0  0  0
 15 21  1  0  0  0  0
 16  7  1  0  0  0  0
 17 16  1  0  0  0  0
 18 19  1  0  0  0  0
 18 13  2  0  0  0  0
 19 15  2  0  0  0  0
 20 21  1  0  0  0  0
 20 17  2  0  0  0  0
 21 22  2  0  0  0  0
 22 16  1  0  0  0  0
 23 25  1  0  0  0  0
 24 27  1  0  0  0  0
 24 23  2  0  0  0  0
 25 26  2  0  0  0  0
 27 28  2  0  0  0  0
 28 26  1  0  0  0  0
M  END
>  <MODEL>
1

>  <REMARK>
 VINA RESULT:     -10.7      0.000      0.000
  Name = 
  2 active torsions:
  status: ('A' for Active; 'I' for Inactive)
    1  A    between atoms: N_8  and  C_16
    2  A    between atoms: C_18  and  C_25
                            x       y       z     vdW  Elec       q    Type
                         _______ _______ _______ _____ _____    ______ ____

>  <TORSDO>
F 2

$$$$
=
 OpenBabel11032420093D

 28 32  0  0  1  0  0  0  0  0999 V2000
  191.0250  177.3060  143.3400 C   0  0  2  0  0  3  0  0  0  0  0  0
  187.2490  177.8100  142.5700 C   0  0  0  0  0  1  0  0  0  0  0  0
  189.6340  177.1880  145.4350 C   0  0  0  0  0  0  0  0  0  0  0  0
  191.9780  176.5290  147.9640 O   0  0  0  0  0  0  0  0  0  0  0  0
  188.5420  177.5910  143.2950 C   0  0  0  0  0  0  0  0  0  0  0  0
  191.3050  176.7280  146.9200 C   0  0  0  0  0  0  0  0  0  0  0  0
  189.7010  177.3880  142.6040 C   0  0  0  0  0  0  0  0  0  0  0  0
  188.5190  177.5670  144.7940 C   0  0  0  0  0  0  0  0  0  0  0  0
  191.8640  176.6410  145.6150 N   0  0  0  0  0  2  0  0  0  0  0  0
  190.8240  176.8970  144.7220 N   0  0  0  0  0  0  0  0  0  0  0  0
  189.8540  177.0910  146.9140 C   0  0  0  0  0  2  0  0  0  0  0  0
  191.6800  178.6030  143.3080 N   0  0  0  0  0  1  0  0  0  0  0  0
  190.8670  176.2460  137.9460 C   0  0  0  0  0  3  0  0  0  0  0  0
  189.0560  178.2530  135.4500 F   0  0  0  0  0  0  0  0  0  0  0  0
  188.9130  178.3070  137.8340 C   0  0  0  0  0  3  0  0  0  0  0  0
  189.7300  177.3040  141.1630 N   0  0  0  0  0  0  0  0  0  0  0  0
  190.5370  176.5020  140.4200 C   0  0  0  0  0  3  0  0  0  0  0  0
  190.4320  176.7530  136.7080 C   0  0  0  0  0  3  0  0  0  0  0  0
  189.4610  177.7760  136.6510 C   0  0  0  0  0  0  0  0  0  0  0  0
  190.3020  176.7900  139.0970 C   0  0  0  0  0  0  0  0  0  0  0  0
  189.3620  177.7810  139.0430 C   0  0  0  0  0  0  0  0  0  0  0  0
  189.0160  178.1060  140.3330 C   0  0  0  0  0  3  0  0  0  0  0  0
  186.2130  178.6270  147.6110 C   0  0  0  0  0  3  0  0  0  0  0  0
  187.3700  178.2870  146.9040 C   0  0  0  0  0  3  0  0  0  0  0  0
  184.9710  178.6100  146.9680 C   0  0  0  0  0  3  0  0  0  0  0  0
  184.8880  178.2530  145.6200 C   0  0  0  0  0  3  0  0  0  0  0  0
  187.2950  177.9280  145.5490 C   0  0  0  0  0  0  0  0  0  0  0  0
  186.0450  177.9140  144.9130 C   0  0  0  0  0  3  0  0  0  0  0  0
  1 12  1  1  0  0  0
  1 10  1  0  0  0  0
  2  5  1  0  0  0  0
  3 11  1  0  0  0  0
  5  8  1  0  0  0  0
  6  4  2  0  0  0  0
  7  5  2  0  0  0  0
  7  1  1  0  0  0  0
  8  3  2  0  0  0  0
  8 27  1  0  0  0  0
  9  6  1  0  0  0  0
 10  3  1  0  0  0  0
 10  9  1  0  0  0  0
 11  6  1  0  0  0  0
 13 20  1  0  0  0  0
 14 19  1  0  0  0  0
 15 21  1  0  0  0  0
 16  7  1  0  0  0  0
 17 16  1  0  0  0  0
 18 13  2  0  0  0  0
 19 18  1  0  0  0  0
 19 15  2  0  0  0  0
 20 17  2  0  0  0  0
 21 20  1  0  0  0  0
 21 22  2  0  0  0  0
 22 16  1  0  0  0  0
 24 23  2  0  0  0  0
 25 23  1  0  0  0  0
 26 25  2  0  0  0  0
 27 24  1  0  0  0  0
 28 27  2  0  0  0  0
 28 26  1  0  0  0  0
M  END
>  <MODEL>
2

>  <REMARK>
 VINA RESULT:     -10.6      0.539      1.524
  Name = 
  2 active torsions:
  status: ('A' for Active; 'I' for Inactive)
    1  A    between atoms: N_8  and  C_16
    2  A    between atoms: C_18  and  C_25
                            x       y       z     vdW  Elec       q    Type
                         _______ _______ _______ _____ _____    ______ ____

>  <TORSDO>
F 2

$$$$
=
 OpenBabel11032420093D

 28 32  0  0  1  0  0  0  0  0999 V2000
  189.9550  177.5810  144.3640 C   0  0  2  0  0  3  0  0  0  0  0  0
  187.2820  177.8450  141.5550 C   0  0  0  0  0  1  0  0  0  0  0  0
  187.6250  177.6490  145.3140 C   0  0  0  0  0  0  0  0  0  0  0  0
  188.1220  177.3760  148.7790 O   0  0  0  0  0  0  0  0  0  0  0  0
  187.9370  177.7620  142.9010 C   0  0  0  0  0  0  0  0  0  0  0  0
  188.1580  177.4280  147.5220 C   0  0  0  0  0  0  0  0  0  0  0  0
  189.2770  177.5260  143.0080 C   0  0  0  0  0  0  0  0  0  0  0  0
  187.0750  177.9080  144.1190 C   0  0  0  0  0  0  0  0  0  0  0  0
  189.3500  177.2150  146.7770 N   0  0  0  0  0  2  0  0  0  0  0  0
  189.0000  177.3250  145.4320 N   0  0  0  0  0  0  0  0  0  0  0  0
  186.9740  177.7310  146.6610 C   0  0  0  0  0  2  0  0  0  0  0  0
  190.5570  178.8910  144.5550 N   0  0  0  0  0  1  0  0  0  0  0  0
  193.0680  177.3120  139.8570 C   0  0  0  0  0  3  0  0  0  0  0  0
  192.1180  176.1370  136.5020 F   0  0  0  0  0  0  0  0  0  0  0  0
  190.7640  176.4270  138.4480 C   0  0  0  0  0  3  0  0  0  0  0  0
  190.1080  177.2790  141.8540 N   0  0  0  0  0  0  0  0  0  0  0  0
  191.4370  177.5350  141.7500 C   0  0  0  0  0  3  0  0  0  0  0  0
  193.1570  176.9340  138.5050 C   0  0  0  0  0  3  0  0  0  0  0  0
  192.0140  176.4940  137.8030 C   0  0  0  0  0  0  0  0  0  0  0  0
  191.8190  177.2290  140.4650 C   0  0  0  0  0  0  0  0  0  0  0  0
  190.7100  176.8030  139.7870 C   0  0  0  0  0  0  0  0  0  0  0  0
  189.6430  176.8460  140.6530 C   0  0  0  0  0  3  0  0  0  0  0  0
  183.5970  179.1130  145.0280 C   0  0  0  0  0  3  0  0  0  0  0  0
  184.9390  178.7400  145.1380 C   0  0  0  0  0  3  0  0  0  0  0  0
  182.9550  179.0550  143.7880 C   0  0  0  0  0  3  0  0  0  0  0  0
  183.6560  178.6230  142.6590 C   0  0  0  0  0  3  0  0  0  0  0  0
  185.6510  178.3060  144.0080 C   0  0  0  0  0  0  0  0  0  0  0  0
  184.9980  178.2500  142.7680 C   0  0  0  0  0  3  0  0  0  0  0  0
  1 12  1  1  0  0  0
  1 10  1  0  0  0  0
  2  5  1  0  0  0  0
  3 10  1  0  0  0  0
  3 11  1  0  0  0  0
  5  7  2  0  0  0  0
  5  8  1  0  0  0  0
  6  4  2  0  0  0  0
  7  1  1  0  0  0  0
  8  3  2  0  0  0  0
  9  6  1  0  0  0  0
 10  9  1  0  0  0  0
 11  6  1  0  0  0  0
 13 20  1  0  0  0  0
 14 19  1  0  0  0  0
 15 21  1  0  0  0  0
 16  7  1  0  0  0  0
 17 16  1  0  0  0  0
 18 13  2  0  0  0  0
 19 15  2  0  0  0  0
 19 18  1  0  0  0  0
 20 17  2  0  0  0  0
 21 20  1  0  0  0  0
 21 22  2  0  0  0  0
 22 16  1  0  0  0  0
 23 24  1  0  0  0  0
 25 23  2  0  0  0  0
 26 28  2  0  0  0  0
 26 25  1  0  0  0  0
 27  8  1  0  0  0  0
 27 24  2  0  0  0  0
 28 27  1  0  0  0  0
M  END
>  <MODEL>
3

>  <REMARK>
 VINA RESULT:     -10.0      1.794      2.712
  Name = 
  2 active torsions:
  status: ('A' for Active; 'I' for Inactive)
    1  A    between atoms: N_8  and  C_16
    2  A    between atoms: C_18  and  C_25
                            x       y       z     vdW  Elec       q    Type
                         _______ _______ _______ _____ _____    ______ ____

>  <TORSDO>
F 2

$$$$
=
 OpenBabel11032420093D

 28 32  0  0  1  0  0  0  0  0999 V2000
  187.5220  178.2830  141.4880 C   0  0  2  0  0  3  0  0  0  0  0  0
  186.7300  177.5450  145.2210 C   0  0  0  0  0  1  0  0  0  0  0  0
  189.5230  177.3330  142.6840 C   0  0  0  0  0  0  0  0  0  0  0  0
  191.9780  177.1280  140.1830 O   0  0  0  0  0  0  0  0  0  0  0  0
  187.4480  177.6780  143.9120 C   0  0  0  0  0  0  0  0  0  0  0  0
  190.9610  177.2490  140.9140 C   0  0  0  0  0  0  0  0  0  0  0  0
  186.7690  178.0150  142.7780 C   0  0  0  0  0  0  0  0  0  0  0  0
  188.9200  177.3960  143.8800 C   0  0  0  0  0  0  0  0  0  0  0  0
  189.6790  177.5860  140.4000 N   0  0  0  0  0  2  0  0  0  0  0  0
  188.8100  177.6040  141.4900 N   0  0  0  0  0  0  0  0  0  0  0  0
  190.9710  177.0730  142.3990 C   0  0  0  0  0  2  0  0  0  0  0  0
  187.7290  179.7140  141.3340 N   0  0  0  0  0  1  0  0  0  0  0  0
  182.0830  178.6280  141.3560 C   0  0  0  0  0  3  0  0  0  0  0  0
  179.7870  179.3250  144.1450 F   0  0  0  0  0  0  0  0  0  0  0  0
  182.1390  178.9110  144.1840 C   0  0  0  0  0  3  0  0  0  0  0  0
  185.3360  178.1900  142.7640 N   0  0  0  0  0  0  0  0  0  0  0  0
  184.5410  178.2290  141.6640 C   0  0  0  0  0  3  0  0  0  0  0  0
  180.9050  178.9100  142.0710 C   0  0  0  0  0  3  0  0  0  0  0  0
  180.9310  179.0510  143.4750 C   0  0  0  0  0  0  0  0  0  0  0  0
  183.2600  178.4910  142.0870 C   0  0  0  0  0  0  0  0  0  0  0  0
  183.2870  178.6280  143.4480 C   0  0  0  0  0  0  0  0  0  0  0  0
  184.5850  178.4500  143.8650 C   0  0  0  0  0  3  0  0  0  0  0  0
  191.6800  176.3780  146.2720 C   0  0  0  0  0  3  0  0  0  0  0  0
  190.9630  176.5880  145.0910 C   0  0  0  0  0  3  0  0  0  0  0  0
  191.1270  176.7470  147.5010 C   0  0  0  0  0  3  0  0  0  0  0  0
  189.8560  177.3260  147.5480 C   0  0  0  0  0  3  0  0  0  0  0  0
  189.6860  177.1700  145.1290 C   0  0  0  0  0  0  0  0  0  0  0  0
  189.1390  177.5370  146.3670 C   0  0  0  0  0  3  0  0  0  0  0  0
  1 12  1  1  0  0  0
  1 10  1  0  0  0  0
  1  7  1  0  0  0  0
  3  8  2  0  0  0  0
  4  6  2  0  0  0  0
  5  2  1  0  0  0  0
  6 11  1  0  0  0  0
  7  5  2  0  0  0  0
  8  5  1  0  0  0  0
  8 27  1  0  0  0  0
  9  6  1  0  0  0  0
  9 10  1  0  0  0  0
 10  3  1  0  0  0  0
 11  3  1  0  0  0  0
 13 18  2  0  0  0  0
 13 20  1  0  0  0  0
 16  7  1  0  0  0  0
 16 22  1  0  0  0  0
 17 20  2  0  0  0  0
 17 16  1  0  0  0  0
 18 19  1  0  0  0  0
 19 14  1  0  0  0  0
 19 15  2  0  0  0  0
 20 21  1  0  0  0  0
 21 22  2  0  0  0  0
 21 15  1  0  0  0  0
 23 25  1  0  0  0  0
 24 27  1  0  0  0  0
 24 23  2  0  0  0  0
 25 26  2  0  0  0  0
 27 28  2  0  0  0  0
 28 26  1  0  0  0  0
M  END
>  <MODEL>
4

>  <REMARK>
 VINA RESULT:      -9.9      3.896      6.556
  Name = 
  2 active torsions:
  status: ('A' for Active; 'I' for Inactive)
    1  A    between atoms: N_8  and  C_16
    2  A    between atoms: C_18  and  C_25
                            x       y       z     vdW  Elec       q    Type
                         _______ _______ _______ _____ _____    ______ ____

>  <TORSDO>
F 2

$$$$
=
 OpenBabel11032420093D

 28 32  0  0  1  0  0  0  0  0999 V2000
  190.0640  177.0760  142.2430 C   0  0  2  0  0  3  0  0  0  0  0  0
  187.0920  177.7640  139.8360 C   0  0  0  0  0  1  0  0  0  0  0  0
  190.8470  177.3470  139.8650 C   0  0  0  0  0  0  0  0  0  0  0  0
  194.3360  177.0150  140.0870 O   0  0  0  0  0  0  0  0  0  0  0  0
  188.4710  177.5200  140.3690 C   0  0  0  0  0  0  0  0  0  0  0  0
  193.0910  177.1370  140.2280 C   0  0  0  0  0  0  0  0  0  0  0  0
  188.6950  177.4600  141.7130 C   0  0  0  0  0  0  0  0  0  0  0  0
  189.5950  177.3790  139.3880 C   0  0  0  0  0  0  0  0  0  0  0  0
  192.4630  177.2080  141.5010 N   0  0  0  0  0  2  0  0  0  0  0  0
  191.0990  177.3650  141.2610 N   0  0  0  0  0  0  0  0  0  0  0  0
  192.1220  177.2070  139.0900 C   0  0  0  0  0  2  0  0  0  0  0  0
  190.0820  175.6570  142.5620 N   0  0  0  0  0  1  0  0  0  0  0  0
  184.5190  178.8920  143.9190 C   0  0  0  0  0  3  0  0  0  0  0  0
  184.5350  178.3700  147.5610 F   0  0  0  0  0  0  0  0  0  0  0  0
  186.2220  177.8630  145.9480 C   0  0  0  0  0  3  0  0  0  0  0  0
  187.6470  177.6960  142.6780 N   0  0  0  0  0  0  0  0  0  0  0  0
  186.4410  178.2710  142.4310 C   0  0  0  0  0  3  0  0  0  0  0  0
  184.1050  178.8820  145.2630 C   0  0  0  0  0  3  0  0  0  0  0  0
  184.9500  178.3710  146.2720 C   0  0  0  0  0  0  0  0  0  0  0  0
  185.7810  178.3790  143.6320 C   0  0  0  0  0  0  0  0  0  0  0  0
  186.6000  177.8840  144.6090 C   0  0  0  0  0  0  0  0  0  0  0  0
  187.7670  177.4690  144.0110 C   0  0  0  0  0  3  0  0  0  0  0  0
  188.9500  178.3850  135.7900 C   0  0  0  0  0  3  0  0  0  0  0  0
  189.1940  178.4660  137.1630 C   0  0  0  0  0  3  0  0  0  0  0  0
  188.8460  177.1360  135.1710 C   0  0  0  0  0  3  0  0  0  0  0  0
  188.9850  175.9680  135.9270 C   0  0  0  0  0  3  0  0  0  0  0  0
  189.3370  177.2990  137.9300 C   0  0  0  0  0  0  0  0  0  0  0  0
  189.2300  176.0500  137.3010 C   0  0  0  0  0  3  0  0  0  0  0  0
  1 12  1  6  0  0  0
  2  5  1  0  0  0  0
  3 10  1  0  0  0  0
  4  6  2  0  0  0  0
  5  7  2  0  0  0  0
  6  9  1  0  0  0  0
  7  1  1  0  0  0  0
  7 16  1  0  0  0  0
  8  3  2  0  0  0  0
  8  5  1  0  0  0  0
 10  9  1  0  0  0  0
 10  1  1  0  0  0  0
 11  3  1  0  0  0  0
 11  6  1  0  0  0  0
 13 18  2  0  0  0  0
 15 19  2  0  0  0  0
 16 22  1  0  0  0  0
 17 16  1  0  0  0  0
 17 20  2  0  0  0  0
 18 19  1  0  0  0  0
 19 14  1  0  0  0  0
 20 13  1  0  0  0  0
 20 21  1  0  0  0  0
 21 15  1  0  0  0  0
 22 21  2  0  0  0  0
 23 24  1  0  0  0  0
 24 27  2  0  0  0  0
 25 23  2  0  0  0  0
 25 26  1  0  0  0  0
 26 28  2  0  0  0  0
 27  8  1  0  0  0  0
 28 27  1  0  0  0  0
M  END
>  <MODEL>
5

>  <REMARK>
 VINA RESULT:      -9.9      3.474      7.600
  Name = 
  2 active torsions:
  status: ('A' for Active; 'I' for Inactive)
    1  A    between atoms: N_8  and  C_16
    2  A    between atoms: C_18  and  C_25
                            x       y       z     vdW  Elec       q    Type
                         _______ _______ _______ _____ _____    ______ ____

>  <TORSDO>
F 2

$$$$
=
 OpenBabel11032420093D

 28 32  0  0  1  0  0  0  0  0999 V2000
  190.5630  176.9850  142.2400 C   0  0  2  0  0  3  0  0  0  0  0  0
  187.0990  178.1800  140.9430 C   0  0  0  0  0  1  0  0  0  0  0  0
  190.6080  177.4230  139.7620 C   0  0  0  0  0  0  0  0  0  0  0  0
  193.9330  176.7560  138.8520 O   0  0  0  0  0  0  0  0  0  0  0  0
  188.5370  177.7590  140.9980 C   0  0  0  0  0  0  0  0  0  0  0  0
  192.8150  176.9760  139.3850 C   0  0  0  0  0  0  0  0  0  0  0  0
  189.1530  177.5440  142.1960 C   0  0  0  0  0  0  0  0  0  0  0  0
  189.2830  177.6170  139.7050 C   0  0  0  0  0  0  0  0  0  0  0  0
  192.6190  176.9740  140.7930 N   0  0  0  0  0  2  0  0  0  0  0  0
  191.2750  177.2770  141.0050 N   0  0  0  0  0  0  0  0  0  0  0  0
  191.5600  177.2480  138.6170 C   0  0  0  0  0  2  0  0  0  0  0  0
  190.5100  175.5460  142.4410 N   0  0  0  0  0  1  0  0  0  0  0  0
  188.1540  178.1220  146.9940 C   0  0  0  0  0  3  0  0  0  0  0  0
  184.5550  178.3780  147.7190 F   0  0  0  0  0  0  0  0  0  0  0  0
  185.6660  178.1210  145.6200 C   0  0  0  0  0  3  0  0  0  0  0  0
  188.4850  177.7750  143.4550 N   0  0  0  0  0  0  0  0  0  0  0  0
  189.0750  177.8480  144.6770 C   0  0  0  0  0  3  0  0  0  0  0  0
  186.9450  178.2530  147.7020 C   0  0  0  0  0  3  0  0  0  0  0  0
  185.7090  178.2520  147.0210 C   0  0  0  0  0  0  0  0  0  0  0  0
  188.0770  177.9980  145.6100 C   0  0  0  0  0  0  0  0  0  0  0  0
  186.8790  177.9970  144.9490 C   0  0  0  0  0  0  0  0  0  0  0  0
  187.1380  177.8480  143.6060 C   0  0  0  0  0  3  0  0  0  0  0  0
  187.8740  179.0030  136.4700 C   0  0  0  0  0  3  0  0  0  0  0  0
  188.5350  178.9230  137.6990 C   0  0  0  0  0  3  0  0  0  0  0  0
  187.2560  177.8700  135.9330 C   0  0  0  0  0  3  0  0  0  0  0  0
  187.2990  176.6570  136.6260 C   0  0  0  0  0  3  0  0  0  0  0  0
  188.5840  177.7080  138.4010 C   0  0  0  0  0  0  0  0  0  0  0  0
  187.9600  176.5770  137.8550 C   0  0  0  0  0  3  0  0  0  0  0  0
  1 12  1  6  0  0  0
  2  5  1  0  0  0  0
  3 10  1  0  0  0  0
  4  6  2  0  0  0  0
  5  7  2  0  0  0  0
  6  9  1  0  0  0  0
  7  1  1  0  0  0  0
  7 16  1  0  0  0  0
  8  3  2  0  0  0  0
  8  5  1  0  0  0  0
  9 10  1  0  0  0  0
 10  1  1  0  0  0  0
 11  6  1  0  0  0  0
 11  3  1  0  0  0  0
 13 18  2  0  0  0  0
 15 19  2  0  0  0  0
 16 22  1  0  0  0  0
 16 17  1  0  0  0  0
 17 20  2  0  0  0  0
 19 18  1  0  0  0  0
 19 14  1  0  0  0  0
 20 13  1  0  0  0  0
 21 20  1  0  0  0  0
 21 15  1  0  0  0  0
 22 21  2  0  0  0  0
 23 24  1  0  0  0  0
 24 27  2  0  0  0  0
 25 23  2  0  0  0  0
 25 26  1  0  0  0  0
 26 28  2  0  0  0  0
 27  8  1  0  0  0  0
 28 27  1  0  0  0  0
M  END
>  <MODEL>
6

>  <REMARK>
 VINA RESULT:      -9.8      3.510      7.626
  Name = 
  2 active torsions:
  status: ('A' for Active; 'I' for Inactive)
    1  A    between atoms: N_8  and  C_16
    2  A    between atoms: C_18  and  C_25
                            x       y       z     vdW  Elec       q    Type
                         _______ _______ _______ _____ _____    ______ ____

>  <TORSDO>
F 2

$$$$
=
 OpenBabel11032420093D

 28 32  0  0  1  0  0  0  0  0999 V2000
  187.6260  178.3330  140.8710 C   0  0  2  0  0  3  0  0  0  0  0  0
  190.8020  176.3620  141.9340 C   0  0  0  0  0  1  0  0  0  0  0  0
  188.7960  177.3300  138.8810 C   0  0  0  0  0  0  0  0  0  0  0  0
  186.7710  178.2500  136.1640 O   0  0  0  0  0  0  0  0  0  0  0  0
  189.7220  176.9930  141.1090 C   0  0  0  0  0  0  0  0  0  0  0  0
  187.3330  177.9990  137.2620 C   0  0  0  0  0  0  0  0  0  0  0  0
  188.6420  177.5760  141.7050 C   0  0  0  0  0  0  0  0  0  0  0  0
  189.8450  176.9340  139.6150 C   0  0  0  0  0  0  0  0  0  0  0  0
  186.7410  178.3060  138.5180 N   0  0  0  0  0  2  0  0  0  0  0  0
  187.6350  177.8650  139.4930 N   0  0  0  0  0  0  0  0  0  0  0  0
  188.6840  177.3680  137.3870 C   0  0  0  0  0  2  0  0  0  0  0  0
  187.9310  179.7540  140.9030 N   0  0  0  0  0  1  0  0  0  0  0  0
  186.6480  177.5020  146.2180 C   0  0  0  0  0  3  0  0  0  0  0  0
  189.1090  177.9660  148.9140 F   0  0  0  0  0  0  0  0  0  0  0  0
  189.4450  177.8780  146.5500 C   0  0  0  0  0  3  0  0  0  0  0  0
  188.4510  177.5540  143.1360 N   0  0  0  0  0  0  0  0  0  0  0  0
  187.2630  177.4510  143.7870 C   0  0  0  0  0  3  0  0  0  0  0  0
  187.2030  177.6440  147.5030 C   0  0  0  0  0  3  0  0  0  0  0  0
  188.5930  177.8300  147.6700 C   0  0  0  0  0  0  0  0  0  0  0  0
  187.5190  177.5500  145.1340 C   0  0  0  0  0  0  0  0  0  0  0  0
  188.8650  177.7300  145.2940 C   0  0  0  0  0  0  0  0  0  0  0  0
  189.4410  177.7430  144.0450 C   0  0  0  0  0  3  0  0  0  0  0  0
  193.4530  176.6500  138.4850 C   0  0  0  0  0  3  0  0  0  0  0  0
  192.2930  177.1280  139.0990 C   0  0  0  0  0  3  0  0  0  0  0  0
  193.4120  175.4730  137.7320 C   0  0  0  0  0  3  0  0  0  0  0  0
  192.2090  174.7750  137.5930 C   0  0  0  0  0  3  0  0  0  0  0  0
  191.0800  176.4320  138.9670 C   0  0  0  0  0  0  0  0  0  0  0  0
  191.0480  175.2520  138.2080 C   0  0  0  0  0  3  0  0  0  0  0  0
  1 12  1  6  0  0  0
  1  7  1  0  0  0  0
  3 10  1  0  0  0  0
  3  8  2  0  0  0  0
  4  6  2  0  0  0  0
  5  7  2  0  0  0  0
  5  2  1  0  0  0  0
  6 11  1  0  0  0  0
  6  9  1  0  0  0  0
  7 16  1  0  0  0  0
  8  5  1  0  0  0  0
  9 10  1  0  0  0  0
 10  1  1  0  0  0  0
 11  3  1  0  0  0  0
 13 18  2  0  0  0  0
 15 19  2  0  0  0  0
 16 17  1  0  0  0  0
 16 22  1  0  0  0  0
 17 20  2  0  0  0  0
 18 19  1  0  0  0  0
 19 14  1  0  0  0  0
 20 21  1  0  0  0  0
 20 13  1  0  0  0  0
 21 15  1  0  0  0  0
 22 21  2  0  0  0  0
 23 24  1  0  0  0  0
 25 23  2  0  0  0  0
 26 25  1  0  0  0  0
 26 28  2  0  0  0  0
 27 24  2  0  0  0  0
 27  8  1  0  0  0  0
 28 27  1  0  0  0  0
M  END
>  <MODEL>
7

>  <REMARK>
 VINA RESULT:      -9.8      3.976      8.437
  Name = 
  2 active torsions:
  status: ('A' for Active; 'I' for Inactive)
    1  A    between atoms: N_8  and  C_16
    2  A    between atoms: C_18  and  C_25
                            x       y       z     vdW  Elec       q    Type
                         _______ _______ _______ _____ _____    ______ ____

>  <TORSDO>
F 2

$$$$
=
 OpenBabel11032420093D

 28 32  0  0  1  0  0  0  0  0999 V2000
  186.4860  178.1760  141.9700 C   0  0  2  0  0  3  0  0  0  0  0  0
  184.9690  178.3960  145.5410 C   0  0  0  0  0  1  0  0  0  0  0  0
  188.1360  177.4320  143.7190 C   0  0  0  0  0  0  0  0  0  0  0  0
  190.9670  176.5020  141.8620 O   0  0  0  0  0  0  0  0  0  0  0  0
  185.9190  178.1730  144.4040 C   0  0  0  0  0  0  0  0  0  0  0  0
  189.8530  176.8490  142.3320 C   0  0  0  0  0  0  0  0  0  0  0  0
  185.4910  178.2660  143.1120 C   0  0  0  0  0  0  0  0  0  0  0  0
  187.3380  177.8120  144.7270 C   0  0  0  0  0  0  0  0  0  0  0  0
  188.7230  177.1220  141.5130 N   0  0  0  0  0  2  0  0  0  0  0  0
  187.6790  177.4480  142.3780 N   0  0  0  0  0  0  0  0  0  0  0  0
  189.5790  177.0330  143.7910 C   0  0  0  0  0  2  0  0  0  0  0  0
  186.8580  179.5150  141.5420 N   0  0  0  0  0  1  0  0  0  0  0  0
  180.6500  179.1940  143.3510 C   0  0  0  0  0  3  0  0  0  0  0  0
  178.9310  178.8390  140.1170 F   0  0  0  0  0  0  0  0  0  0  0  0
  181.2440  178.5570  140.6460 C   0  0  0  0  0  3  0  0  0  0  0  0
  184.1080  178.5090  142.7770 N   0  0  0  0  0  0  0  0  0  0  0  0
  183.1160  178.8350  143.6460 C   0  0  0  0  0  3  0  0  0  0  0  0
  179.6320  179.1730  142.3810 C   0  0  0  0  0  3  0  0  0  0  0  0
  179.9250  178.8560  141.0370 C   0  0  0  0  0  0  0  0  0  0  0  0
  181.9440  178.8980  142.9300 C   0  0  0  0  0  0  0  0  0  0  0  0
  182.2290  178.5910  141.6280 C   0  0  0  0  0  0  0  0  0  0  0  0
  183.5780  178.3390  141.5390 C   0  0  0  0  0  3  0  0  0  0  0  0
  189.6310  177.5110  147.7320 C   0  0  0  0  0  3  0  0  0  0  0  0
  189.1620  177.4730  146.4160 C   0  0  0  0  0  3  0  0  0  0  0  0
  188.7850  177.9270  148.7640 C   0  0  0  0  0  3  0  0  0  0  0  0
  187.4690  178.3030  148.4790 C   0  0  0  0  0  3  0  0  0  0  0  0
  187.8420  177.8510  146.1210 C   0  0  0  0  0  0  0  0  0  0  0  0
  187.0000  178.2660  147.1630 C   0  0  0  0  0  3  0  0  0  0  0  0
  1 12  1  1  0  0  0
  1 10  1  0  0  0  0
  1  7  1  0  0  0  0
  3 11  1  0  0  0  0
  3  8  2  0  0  0  0
  4  6  2  0  0  0  0
  5  8  1  0  0  0  0
  5  2  1  0  0  0  0
  6 11  1  0  0  0  0
  7  5  2  0  0  0  0
  8 27  1  0  0  0  0
  9  6  1  0  0  0  0
  9 10  1  0  0  0  0
 10  3  1  0  0  0  0
 14 19  1  0  0  0  0
 15 19  2  0  0  0  0
 15 21  1  0  0  0  0
 16  7  1  0  0  0  0
 16 17  1  0  0  0  0
 18 13  2  0  0  0  0
 19 18  1  0  0  0  0
 20 13  1  0  0  0  0
 20 17  2  0  0  0  0
 21 20  1  0  0  0  0
 22 21  2  0  0  0  0
 22 16  1  0  0  0  0
 23 25  1  0  0  0  0
 24 23  2  0  0  0  0
 26 25  2  0  0  0  0
 27 24  1  0  0  0  0
 27 28  2  0  0  0  0
 28 26  1  0  0  0  0
M  END
>  <MODEL>
8

>  <REMARK>
 VINA RESULT:      -9.5      4.108      6.469
  Name = 
  2 active torsions:
  status: ('A' for Active; 'I' for Inactive)
    1  A    between atoms: N_8  and  C_16
    2  A    between atoms: C_18  and  C_25
                            x       y       z     vdW  Elec       q    Type
                         _______ _______ _______ _____ _____    ______ ____

>  <TORSDO>
F 2

$$$$
=
 OpenBabel11032420093D

 28 32  0  0  1  0  0  0  0  0999 V2000
  187.9150  177.6660  141.8240 C   0  0  2  0  0  3  0  0  0  0  0  0
  185.5110  178.5690  144.7410 C   0  0  0  0  0  1  0  0  0  0  0  0
  188.8870  177.0160  144.0530 C   0  0  0  0  0  0  0  0  0  0  0  0
  191.9580  175.5280  143.2290 O   0  0  0  0  0  0  0  0  0  0  0  0
  186.6980  178.0810  143.9670 C   0  0  0  0  0  0  0  0  0  0  0  0
  190.8190  176.0570  143.3080 C   0  0  0  0  0  0  0  0  0  0  0  0
  186.6650  178.0280  142.6040 C   0  0  0  0  0  0  0  0  0  0  0  0
  187.9030  177.6230  144.7330 C   0  0  0  0  0  0  0  0  0  0  0  0
  190.0140  176.3250  142.1670 N   0  0  0  0  0  2  0  0  0  0  0  0
  188.8280  176.8830  142.6430 N   0  0  0  0  0  0  0  0  0  0  0  0
  190.1790  176.4820  144.5910 C   0  0  0  0  0  2  0  0  0  0  0  0
  188.5800  178.8800  141.3800 N   0  0  0  0  0  1  0  0  0  0  0  0
  182.0210  178.3350  140.9620 C   0  0  0  0  0  3  0  0  0  0  0  0
  181.7180  180.1160  137.7570 F   0  0  0  0  0  0  0  0  0  0  0  0
  183.6650  179.6680  139.0650 C   0  0  0  0  0  3  0  0  0  0  0  0
  185.4800  178.3650  141.8510 N   0  0  0  0  0  0  0  0  0  0  0  0
  184.2080  177.9900  142.1430 C   0  0  0  0  0  3  0  0  0  0  0  0
  181.4600  178.9090  139.8070 C   0  0  0  0  0  3  0  0  0  0  0  0
  182.2750  179.5710  138.8640 C   0  0  0  0  0  0  0  0  0  0  0  0
  183.3980  178.4520  141.1330 C   0  0  0  0  0  0  0  0  0  0  0  0
  184.1890  179.0930  140.2200 C   0  0  0  0  0  0  0  0  0  0  0  0
  185.4880  179.0270  140.6660 C   0  0  0  0  0  3  0  0  0  0  0  0
  186.9390  178.1880  148.3550 C   0  0  0  0  0  3  0  0  0  0  0  0
  186.8430  178.0090  146.9730 C   0  0  0  0  0  3  0  0  0  0  0  0
  188.1910  178.1730  148.9770 C   0  0  0  0  0  3  0  0  0  0  0  0
  189.3460  177.9790  148.2150 C   0  0  0  0  0  3  0  0  0  0  0  0
  187.9990  177.8120  146.2000 C   0  0  0  0  0  0  0  0  0  0  0  0
  189.2500  177.7990  146.8320 C   0  0  0  0  0  3  0  0  0  0  0  0
  1 12  1  1  0  0  0
  1  7  1  0  0  0  0
  1 10  1  0  0  0  0
  3 11  1  0  0  0  0
  3  8  2  0  0  0  0
  4  6  2  0  0  0  0
  5  8  1  0  0  0  0
  5  2  1  0  0  0  0
  6 11  1  0  0  0  0
  7  5  2  0  0  0  0
  8 27  1  0  0  0  0
  9 10  1  0  0  0  0
  9  6  1  0  0  0  0
 10  3  1  0  0  0  0
 13 20  1  0  0  0  0
 14 19  1  0  0  0  0
 15 21  1  0  0  0  0
 16 17  1  0  0  0  0
 16  7  1  0  0  0  0
 18 13  2  0  0  0  0
 19 15  2  0  0  0  0
 19 18  1  0  0  0  0
 20 17  2  0  0  0  0
 21 22  2  0  0  0  0
 21 20  1  0  0  0  0
 22 16  1  0  0  0  0
 23 25  1  0  0  0  0
 24 23  2  0  0  0  0
 26 25  2  0  0  0  0
 27 28  2  0  0  0  0
 27 24  1  0  0  0  0
 28 26  1  0  0  0  0
M  END
>  <MODEL>
9

>  <REMARK>
 VINA RESULT:      -9.5      3.549      4.948
  Name = 
  2 active torsions:
  status: ('A' for Active; 'I' for Inactive)
    1  A    between atoms: N_8  and  C_16
    2  A    between atoms: C_18  and  C_25
                            x       y       z     vdW  Elec       q    Type
                         _______ _______ _______ _____ _____    ______ ____

>  <TORSDO>
F 2

$$$$
