=
 OpenBabel11032420173D

 28 30  0  0  1  0  0  0  0  0999 V2000
  189.6530  177.4650  144.1240 C   0  0  2  0  0  3  0  0  0  0  0  0
  184.3780  179.5870  144.2580 N   0  0  0  0  0  0  0  0  0  0  0  0
  184.8580  179.2440  145.5230 N   0  0  0  0  0  2  0  0  0  0  0  0
  188.2130  177.6370  144.5300 C   0  0  0  0  0  0  0  0  0  0  0  0
  186.6520  177.9200  146.4170 C   0  0  0  0  0  3  0  0  0  0  0  0
  185.6400  178.2260  145.4140 C   0  0  2  0  0  3  0  0  0  0  0  0
  187.8780  177.6310  145.9810 C   0  0  0  0  0  3  0  0  0  0  0  0
  184.5240  178.8980  141.9370 C   0  0  0  0  0  1  0  0  0  0  0  0
  187.2440  177.7360  143.5840 C   0  0  0  0  0  0  0  0  0  0  0  0
  184.9230  178.8280  143.3680 C   0  0  0  0  0  0  0  0  0  0  0  0
  185.7750  177.7630  143.9970 C   0  0  2  0  0  3  0  0  0  0  0  0
  187.6170  177.5800  142.2080 N   0  0  0  0  0  2  0  0  0  0  0  0
  187.9920  178.1640  139.8880 C   0  0  0  0  0  1  0  0  0  0  0  0
  187.8000  178.6940  141.2920 C   0  0  0  0  0  2  0  0  0  0  0  0
  192.8900  175.5560  148.5200 C   0  0  0  0  0  1  0  0  0  0  0  0
  192.0580  176.0390  147.3880 C   0  0  0  0  0  0  0  0  0  0  0  0
  192.1900  175.4540  146.1250 C   0  0  0  0  0  3  0  0  0  0  0  0
  190.3620  177.5320  146.5190 C   0  0  0  0  0  3  0  0  0  0  0  0
  190.4850  176.9460  145.2550 C   0  0  0  0  0  0  0  0  0  0  0  0
  191.4080  175.9060  145.0590 C   0  0  0  0  0  3  0  0  0  0  0  0
  191.1450  177.0790  147.5840 C   0  0  0  0  0  3  0  0  0  0  0  0
  190.1780  178.6610  143.6200 O   0  0  0  0  0  0  0  0  0  0  0  0
  191.3840  178.2980  143.0190 C   0  0  0  0  0  2  0  0  0  0  0  0
  191.1050  177.5140  141.7530 C   0  0  0  0  0  2  0  0  0  0  0  0
  191.1150  176.5100  139.1180 N   0  0  0  0  0  1  0  0  0  0  0  0
  193.5160  177.0250  138.9700 N   0  0  0  0  0  1  0  0  0  0  0  0
  192.3010  177.4830  140.9270 N   0  0  0  0  0  0  0  0  0  0  0  0
  192.3050  177.0220  139.7150 C   0  0  0  0  0  0  0  0  0  0  0  0
  1 22  1  1  0  0  0
  1  4  1  0  0  0  0
  1 19  1  0  0  0  0
  2  3  1  0  0  0  0
  4  7  1  0  0  0  0
  6  3  1  0  0  0  0
  6  5  1  6  0  0  0
  7  5  2  0  0  0  0
  8 10  1  0  0  0  0
  9 11  1  0  0  0  0
  9  4  2  0  0  0  0
 10  2  2  0  0  0  0
 11 10  1  6  0  0  0
 11  6  1  0  0  0  0
 12  9  1  0  0  0  0
 13 14  1  0  0  0  0
 14 12  1  0  0  0  0
 16 21  1  0  0  0  0
 16 15  1  0  0  0  0
 17 16  2  0  0  0  0
 18 21  2  0  0  0  0
 19 18  1  0  0  0  0
 20 19  2  0  0  0  0
 20 17  1  0  0  0  0
 23 22  1  0  0  0  0
 24 23  1  0  0  0  0
 25 28  1  0  0  0  0
 26 28  1  0  0  0  0
 27 24  1  0  0  0  0
 28 27  2  0  0  0  0
M  END
>  <MODEL>
1

>  <REMARK>
 VINA RESULT:      -8.0      0.000      0.000
  Name = 
  8 active torsions:
  status: ('A' for Active; 'I' for Inactive)
    1  A    between atoms: C_4  and  C_8
    2  A    between atoms: C_4  and  O_11
    3  A    between atoms: C_4  and  C_21
    4  A    between atoms: N_10  and  C_23
    5  A    between atoms: N_10  and  C_27
    6  A    between atoms: O_11  and  C_18
    7  A    between atoms: C_13  and  N_14
    8  A    between atoms: C_13  and  C_18
                            x       y       z     vdW  Elec       q    Type
                         _______ _______ _______ _____ _____    ______ ____

>  <TORSDO>
F 8

$$$$
=
 OpenBabel11032420173D

 28 30  0  0  1  0  0  0  0  0999 V2000
  185.0330  178.3970  142.6310 C   0  0  2  0  0  3  0  0  0  0  0  0
  179.9420  180.6240  141.4230 N   0  0  0  0  0  0  0  0  0  0  0  0
  180.1170  180.3780  142.7860 N   0  0  0  0  0  2  0  0  0  0  0  0
  183.5470  178.6300  142.6910 C   0  0  0  0  0  0  0  0  0  0  0  0
  181.6200  179.0990  144.1560 C   0  0  0  0  0  3  0  0  0  0  0  0
  180.8660  179.3400  142.9330 C   0  0  2  0  0  3  0  0  0  0  0  0
  182.9000  178.7510  144.0270 C   0  0  0  0  0  3  0  0  0  0  0  0
  180.5690  179.7420  139.2540 C   0  0  0  0  0  1  0  0  0  0  0  0
  182.8150  178.6690  141.5490 C   0  0  0  0  0  0  0  0  0  0  0  0
  180.6410  179.7840  140.7380 C   0  0  0  0  0  0  0  0  0  0  0  0
  181.2930  178.7580  141.6210 C   0  0  2  0  0  3  0  0  0  0  0  0
  183.4750  178.3920  140.3060 N   0  0  0  0  0  2  0  0  0  0  0  0
  183.4760  177.5510  138.0360 C   0  0  0  0  0  1  0  0  0  0  0  0
  183.1920  177.2260  139.4860 C   0  0  0  0  0  2  0  0  0  0  0  0
  187.3490  178.0640  147.9210 C   0  0  0  0  0  1  0  0  0  0  0  0
  186.7540  178.1580  146.5620 C   0  0  0  0  0  0  0  0  0  0  0  0
  185.8530  179.1840  146.2640 C   0  0  0  0  0  3  0  0  0  0  0  0
  186.5340  177.3080  144.3060 C   0  0  0  0  0  3  0  0  0  0  0  0
  185.6370  178.3380  143.9990 C   0  0  0  0  0  0  0  0  0  0  0  0
  185.2930  179.2740  144.9860 C   0  0  0  0  0  3  0  0  0  0  0  0
  187.0930  177.2190  145.5840 C   0  0  0  0  0  3  0  0  0  0  0  0
  185.6610  179.3700  141.8460 O   0  0  0  0  0  0  0  0  0  0  0  0
  186.4570  178.6520  140.9510 C   0  0  0  0  0  2  0  0  0  0  0  0
  187.9190  178.8710  141.2840 C   0  0  0  0  0  2  0  0  0  0  0  0
  189.9250  178.2360  143.1600 N   0  0  0  0  0  1  0  0  0  0  0  0
  190.1640  176.0270  142.1030 N   0  0  0  0  0  1  0  0  0  0  0  0
  188.6110  177.5920  141.2940 N   0  0  0  0  0  0  0  0  0  0  0  0
  189.5330  177.3000  142.1580 C   0  0  0  0  0  0  0  0  0  0  0  0
  1 22  1  6  0  0  0
  1  4  1  0  0  0  0
  1 19  1  0  0  0  0
  2  3  1  0  0  0  0
  3  6  1  0  0  0  0
  4  7  1  0  0  0  0
  6  5  1  1  0  0  0
  7  5  2  0  0  0  0
  8 10  1  0  0  0  0
  9 11  1  0  0  0  0
  9  4  2  0  0  0  0
 10  2  2  0  0  0  0
 11 10  1  6  0  0  0
 11  6  1  0  0  0  0
 12  9  1  0  0  0  0
 13 14  1  0  0  0  0
 14 12  1  0  0  0  0
 16 15  1  0  0  0  0
 17 16  1  0  0  0  0
 18 21  1  0  0  0  0
 19 18  2  0  0  0  0
 19 20  1  0  0  0  0
 20 17  2  0  0  0  0
 21 16  2  0  0  0  0
 23 24  1  0  0  0  0
 23 22  1  0  0  0  0
 24 27  1  0  0  0  0
 26 28  1  0  0  0  0
 27 28  2  0  0  0  0
 28 25  1  0  0  0  0
M  END
>  <MODEL>
2

>  <REMARK>
 VINA RESULT:      -8.0      3.226      5.181
  Name = 
  8 active torsions:
  status: ('A' for Active; 'I' for Inactive)
    1  A    between atoms: C_4  and  C_8
    2  A    between atoms: C_4  and  O_11
    3  A    between atoms: C_4  and  C_21
    4  A    between atoms: N_10  and  C_23
    5  A    between atoms: N_10  and  C_27
    6  A    between atoms: O_11  and  C_18
    7  A    between atoms: C_13  and  N_14
    8  A    between atoms: C_13  and  C_18
                            x       y       z     vdW  Elec       q    Type
                         _______ _______ _______ _____ _____    ______ ____

>  <TORSDO>
F 8

$$$$
=
 OpenBabel11032420173D

 28 30  0  0  1  0  0  0  0  0999 V2000
  184.9780  178.4290  142.6010 C   0  0  2  0  0  3  0  0  0  0  0  0
  179.8710  180.6560  141.4600 N   0  0  0  0  0  0  0  0  0  0  0  0
  180.0660  180.4120  142.8210 N   0  0  0  0  0  2  0  0  0  0  0  0
  183.4930  178.6620  142.6820 C   0  0  0  0  0  0  0  0  0  0  0  0
  181.5870  179.1350  144.1730 C   0  0  0  0  0  3  0  0  0  0  0  0
  180.8150  179.3740  142.9590 C   0  0  2  0  0  3  0  0  0  0  0  0
  182.8650  178.7860  144.0270 C   0  0  0  0  0  3  0  0  0  0  0  0
  180.4680  179.7680  139.2840 C   0  0  0  0  0  1  0  0  0  0  0  0
  182.7450  178.6990  141.5500 C   0  0  0  0  0  0  0  0  0  0  0  0
  180.5600  179.8130  140.7670 C   0  0  0  0  0  0  0  0  0  0  0  0
  181.2240  178.7890  141.6430 C   0  0  2  0  0  3  0  0  0  0  0  0
  183.3880  178.4190  140.2980 N   0  0  0  0  0  2  0  0  0  0  0  0
  183.3810  177.5210  138.0500 C   0  0  0  0  0  1  0  0  0  0  0  0
  183.1350  177.2230  139.5130 C   0  0  0  0  0  2  0  0  0  0  0  0
  187.3610  178.0440  147.8580 C   0  0  0  0  0  1  0  0  0  0  0  0
  186.7480  178.1510  146.5080 C   0  0  0  0  0  0  0  0  0  0  0  0
  185.8170  179.1600  146.2410 C   0  0  0  0  0  3  0  0  0  0  0  0
  186.5260  177.3440  144.2360 C   0  0  0  0  0  3  0  0  0  0  0  0
  185.5980  178.3560  143.9620 C   0  0  0  0  0  0  0  0  0  0  0  0
  185.2410  179.2620  144.9720 C   0  0  0  0  0  3  0  0  0  0  0  0
  187.1010  177.2430  145.5060 C   0  0  0  0  0  3  0  0  0  0  0  0
  185.5970  179.4080  141.8170 O   0  0  0  0  0  0  0  0  0  0  0  0
  186.3660  178.6970  140.8940 C   0  0  0  0  0  2  0  0  0  0  0  0
  187.8360  178.8640  141.2220 C   0  0  0  0  0  2  0  0  0  0  0  0
  189.0380  178.9940  138.6740 N   0  0  0  0  0  1  0  0  0  0  0  0
  189.8630  176.6970  138.9860 N   0  0  0  0  0  1  0  0  0  0  0  0
  188.5890  177.7590  140.6490 N   0  0  0  0  0  0  0  0  0  0  0  0
  189.1420  177.8200  139.4780 C   0  0  0  0  0  0  0  0  0  0  0  0
  1 22  1  6  0  0  0
  1  4  1  0  0  0  0
  1 19  1  0  0  0  0
  2  3  1  0  0  0  0
  3  6  1  0  0  0  0
  4  7  1  0  0  0  0
  6  5  1  6  0  0  0
  7  5  2  0  0  0  0
  8 10  1  0  0  0  0
  9 11  1  0  0  0  0
  9  4  2  0  0  0  0
 10  2  2  0  0  0  0
 11 10  1  6  0  0  0
 11  6  1  0  0  0  0
 12  9  1  0  0  0  0
 13 14  1  0  0  0  0
 14 12  1  0  0  0  0
 16 15  1  0  0  0  0
 17 16  1  0  0  0  0
 18 21  1  0  0  0  0
 19 18  2  0  0  0  0
 19 20  1  0  0  0  0
 20 17  2  0  0  0  0
 21 16  2  0  0  0  0
 23 24  1  0  0  0  0
 23 22  1  0  0  0  0
 25 28  1  0  0  0  0
 26 28  1  0  0  0  0
 27 24  1  0  0  0  0
 28 27  2  0  0  0  0
M  END
>  <MODEL>
3

>  <REMARK>
 VINA RESULT:      -8.0      3.313      5.150
  Name = 
  8 active torsions:
  status: ('A' for Active; 'I' for Inactive)
    1  A    between atoms: C_4  and  C_8
    2  A    between atoms: C_4  and  O_11
    3  A    between atoms: C_4  and  C_21
    4  A    between atoms: N_10  and  C_23
    5  A    between atoms: N_10  and  C_27
    6  A    between atoms: O_11  and  C_18
    7  A    between atoms: C_13  and  N_14
    8  A    between atoms: C_13  and  C_18
                            x       y       z     vdW  Elec       q    Type
                         _______ _______ _______ _____ _____    ______ ____

>  <TORSDO>
F 8

$$$$
=
 OpenBabel11032420173D

 28 30  0  0  1  0  0  0  0  0999 V2000
  189.3840  177.3040  142.2810 C   0  0  2  0  0  3  0  0  0  0  0  0
  191.2800  177.4100  147.6410 N   0  0  0  0  0  0  0  0  0  0  0  0
  192.0700  176.6230  146.8010 N   0  0  0  0  0  2  0  0  0  0  0  0
  189.9750  176.8150  143.5760 C   0  0  0  0  0  0  0  0  0  0  0  0
  191.8560  175.6190  144.6290 C   0  0  0  0  0  3  0  0  0  0  0  0
  191.3210  176.0850  145.9020 C   0  0  2  0  0  3  0  0  0  0  0  0
  191.1980  175.9670  143.5230 C   0  0  0  0  0  3  0  0  0  0  0  0
  188.9750  178.0880  147.9690 C   0  0  0  0  0  1  0  0  0  0  0  0
  189.3650  177.0980  144.7550 C   0  0  0  0  0  0  0  0  0  0  0  0
  190.0630  177.4140  147.2120 C   0  0  0  0  0  0  0  0  0  0  0  0
  189.8840  176.4790  146.0500 C   0  0  2  0  0  3  0  0  0  0  0  0
  188.1080  177.7880  144.7240 N   0  0  0  0  0  2  0  0  0  0  0  0
  185.9680  178.0490  145.8240 C   0  0  0  0  0  1  0  0  0  0  0  0
  186.8290  177.1430  144.9720 C   0  0  0  0  0  2  0  0  0  0  0  0
  193.0350  176.5770  137.8530 C   0  0  0  0  0  1  0  0  0  0  0  0
  192.0940  176.7570  138.9890 C   0  0  0  0  0  0  0  0  0  0  0  0
  190.7850  176.2720  138.8950 C   0  0  0  0  0  3  0  0  0  0  0  0
  191.6300  177.5790  141.2180 C   0  0  0  0  0  3  0  0  0  0  0  0
  190.3210  177.0900  141.1320 C   0  0  0  0  0  0  0  0  0  0  0  0
  189.8990  176.4390  139.9630 C   0  0  0  0  0  3  0  0  0  0  0  0
  192.5150  177.4110  140.1500 C   0  0  0  0  0  3  0  0  0  0  0  0
  189.0060  178.6480  142.3780 O   0  0  0  0  0  0  0  0  0  0  0  0
  188.1960  178.8760  141.2640 C   0  0  0  0  0  2  0  0  0  0  0  0
  186.7470  178.6350  141.6330 C   0  0  0  0  0  2  0  0  0  0  0  0
  183.9890  178.0820  141.4310 N   0  0  0  0  0  1  0  0  0  0  0  0
  183.8370  179.6990  139.5830 N   0  0  0  0  0  1  0  0  0  0  0  0
  185.8840  179.2810  140.6570 N   0  0  0  0  0  0  0  0  0  0  0  0
  184.6150  179.0270  140.5650 C   0  0  0  0  0  0  0  0  0  0  0  0
  1 22  1  1  0  0  0
  1  4  1  0  0  0  0
  3  2  1  0  0  0  0
  4  9  2  0  0  0  0
  6  5  1  6  0  0  0
  6 11  1  0  0  0  0
  6  3  1  0  0  0  0
  7  4  1  0  0  0  0
  7  5  2  0  0  0  0
 10  2  2  0  0  0  0
 10  8  1  0  0  0  0
 11  9  1  6  0  0  0
 11 10  1  0  0  0  0
 12  9  1  0  0  0  0
 12 14  1  0  0  0  0
 14 13  1  0  0  0  0
 15 16  1  0  0  0  0
 16 21  1  0  0  0  0
 17 16  2  0  0  0  0
 17 20  1  0  0  0  0
 19 18  1  0  0  0  0
 19  1  1  0  0  0  0
 20 19  2  0  0  0  0
 21 18  2  0  0  0  0
 23 24  1  0  0  0  0
 23 22  1  0  0  0  0
 26 28  1  0  0  0  0
 27 24  1  0  0  0  0
 28 27  2  0  0  0  0
 28 25  1  0  0  0  0
M  END
>  <MODEL>
4

>  <REMARK>
 VINA RESULT:      -7.7      2.734      6.254
  Name = 
  8 active torsions:
  status: ('A' for Active; 'I' for Inactive)
    1  A    between atoms: C_4  and  C_8
    2  A    between atoms: C_4  and  O_11
    3  A    between atoms: C_4  and  C_21
    4  A    between atoms: N_10  and  C_23
    5  A    between atoms: N_10  and  C_27
    6  A    between atoms: O_11  and  C_18
    7  A    between atoms: C_13  and  N_14
    8  A    between atoms: C_13  and  C_18
                            x       y       z     vdW  Elec       q    Type
                         _______ _______ _______ _____ _____    ______ ____

>  <TORSDO>
F 8

$$$$
=
 OpenBabel11032420173D

 28 30  0  0  1  0  0  0  0  0999 V2000
  188.2060  178.2330  141.5900 C   0  0  2  0  0  3  0  0  0  0  0  0
  188.6740  175.4560  136.6500 N   0  0  0  0  0  0  0  0  0  0  0  0
  189.7930  175.2970  137.4700 N   0  0  0  0  0  2  0  0  0  0  0  0
  188.8350  177.6810  140.3390 C   0  0  0  0  0  0  0  0  0  0  0  0
  190.7100  176.3780  139.4100 C   0  0  0  0  0  3  0  0  0  0  0  0
  189.9660  176.3740  138.1570 C   0  0  2  0  0  3  0  0  0  0  0  0
  190.1620  177.0140  140.4450 C   0  0  0  0  0  3  0  0  0  0  0  0
  186.9660  177.0820  136.0880 C   0  0  0  0  0  1  0  0  0  0  0  0
  188.2220  177.8430  139.1380 C   0  0  0  0  0  0  0  0  0  0  0  0
  188.1210  176.5970  136.8880 C   0  0  0  0  0  0  0  0  0  0  0  0
  188.9310  177.4120  137.8570 C   0  0  2  0  0  3  0  0  0  0  0  0
  187.0230  178.6280  139.0850 N   0  0  0  0  0  2  0  0  0  0  0  0
  184.6460  179.0860  139.0850 C   0  0  0  0  0  1  0  0  0  0  0  0
  185.7230  178.0880  138.7210 C   0  0  0  0  0  2  0  0  0  0  0  0
  191.3080  177.0350  146.3240 C   0  0  0  0  0  1  0  0  0  0  0  0
  190.5180  177.3460  145.1040 C   0  0  0  0  0  0  0  0  0  0  0  0
  190.8190  178.4830  144.3470 C   0  0  0  0  0  3  0  0  0  0  0  0
  188.7300  176.7960  143.5670 C   0  0  0  0  0  3  0  0  0  0  0  0
  189.0320  177.9280  142.8020 C   0  0  0  0  0  0  0  0  0  0  0  0
  190.0780  178.7750  143.1990 C   0  0  0  0  0  3  0  0  0  0  0  0
  189.4720  176.5040  144.7140 C   0  0  0  0  0  3  0  0  0  0  0  0
  186.8970  177.7640  141.7430 O   0  0  0  0  0  0  0  0  0  0  0  0
  186.2010  178.8240  142.3280 C   0  0  0  0  0  2  0  0  0  0  0  0
  185.1940  178.2820  143.3220 C   0  0  0  0  0  2  0  0  0  0  0  0
  183.5130  179.0040  145.4690 N   0  0  0  0  0  1  0  0  0  0  0  0
  185.4730  179.0020  146.9560 N   0  0  0  0  0  1  0  0  0  0  0  0
  185.6880  178.4870  144.6740 N   0  0  0  0  0  0  0  0  0  0  0  0
  184.9140  178.8180  145.6610 C   0  0  0  0  0  0  0  0  0  0  0  0
  1 22  1  1  0  0  0
  1 19  1  0  0  0  0
  2 10  2  0  0  0  0
  2  3  1  0  0  0  0
  3  6  1  0  0  0  0
  4  7  1  0  0  0  0
  4  1  1  0  0  0  0
  5  7  2  0  0  0  0
  6  5  1  1  0  0  0
  8 10  1  0  0  0  0
  9  4  2  0  0  0  0
 11 10  1  6  0  0  0
 11  6  1  0  0  0  0
 11  9  1  0  0  0  0
 12  9  1  0  0  0  0
 14 12  1  0  0  0  0
 14 13  1  0  0  0  0
 16 15  1  0  0  0  0
 17 16  2  0  0  0  0
 18 21  2  0  0  0  0
 19 20  2  0  0  0  0
 19 18  1  0  0  0  0
 20 17  1  0  0  0  0
 21 16  1  0  0  0  0
 22 23  1  0  0  0  0
 23 24  1  0  0  0  0
 24 27  1  0  0  0  0
 25 28  1  0  0  0  0
 27 28  2  0  0  0  0
 28 26  1  0  0  0  0
M  END
>  <MODEL>
5

>  <REMARK>
 VINA RESULT:      -7.4      2.167      6.428
  Name = 
  8 active torsions:
  status: ('A' for Active; 'I' for Inactive)
    1  A    between atoms: C_4  and  C_8
    2  A    between atoms: C_4  and  O_11
    3  A    between atoms: C_4  and  C_21
    4  A    between atoms: N_10  and  C_23
    5  A    between atoms: N_10  and  C_27
    6  A    between atoms: O_11  and  C_18
    7  A    between atoms: C_13  and  N_14
    8  A    between atoms: C_13  and  C_18
                            x       y       z     vdW  Elec       q    Type
                         _______ _______ _______ _____ _____    ______ ____

>  <TORSDO>
F 8

$$$$
=
 OpenBabel11032420173D

 28 30  0  0  1  0  0  0  0  0999 V2000
  183.9880  178.6920  139.3530 C   0  0  2  0  0  3  0  0  0  0  0  0
  180.4290  180.4490  135.2800 N   0  0  0  0  0  0  0  0  0  0  0  0
  180.7880  181.4680  136.1640 N   0  0  0  0  0  2  0  0  0  0  0  0
  182.8510  179.4300  138.6980 C   0  0  0  0  0  0  0  0  0  0  0  0
  181.7880  181.6250  138.3440 C   0  0  0  0  0  3  0  0  0  0  0  0
  180.9680  180.9630  137.3360 C   0  0  2  0  0  3  0  0  0  0  0  0
  182.6790  180.8790  138.9950 C   0  0  0  0  0  3  0  0  0  0  0  0
  180.0270  178.0580  135.2250 C   0  0  0  0  0  1  0  0  0  0  0  0
  181.9750  178.7650  137.9020 C   0  0  0  0  0  0  0  0  0  0  0  0
  180.4620  179.3130  135.8920 C   0  0  0  0  0  0  0  0  0  0  0  0
  180.7430  179.4840  137.3590 C   0  0  2  0  0  3  0  0  0  0  0  0
  182.1070  177.3420  137.7810 N   0  0  0  0  0  2  0  0  0  0  0  0
  181.9290  175.6150  139.4680 C   0  0  0  0  0  1  0  0  0  0  0  0
  181.1960  176.3930  138.3980 C   0  0  0  0  0  2  0  0  0  0  0  0
  183.5580  179.0050  145.1130 C   0  0  0  0  0  1  0  0  0  0  0  0
  183.6760  178.9210  143.6350 C   0  0  0  0  0  0  0  0  0  0  0  0
  184.9240  179.0760  143.0230 C   0  0  0  0  0  3  0  0  0  0  0  0
  182.6510  178.6090  141.4630 C   0  0  0  0  0  3  0  0  0  0  0  0
  183.8980  178.7570  140.8470 C   0  0  0  0  0  0  0  0  0  0  0  0
  185.0360  178.9960  141.6330 C   0  0  0  0  0  3  0  0  0  0  0  0
  182.5400  178.6890  142.8540 C   0  0  0  0  0  3  0  0  0  0  0  0
  185.2230  179.1710  138.9020 O   0  0  0  0  0  0  0  0  0  0  0  0
  185.6520  178.2310  137.9630 C   0  0  0  0  0  2  0  0  0  0  0  0
  187.1620  178.1230  138.0070 C   0  0  0  0  0  2  0  0  0  0  0  0
  189.4490  176.8410  139.0460 N   0  0  0  0  0  1  0  0  0  0  0  0
  189.0620  177.9710  141.1960 N   0  0  0  0  0  1  0  0  0  0  0  0
  187.6230  178.3190  139.3730 N   0  0  0  0  0  0  0  0  0  0  0  0
  188.6750  177.7290  139.8500 C   0  0  0  0  0  0  0  0  0  0  0  0
  1 22  1  6  0  0  0
  1 19  1  0  0  0  0
  2 10  2  0  0  0  0
  2  3  1  0  0  0  0
  3  6  1  0  0  0  0
  4  7  1  0  0  0  0
  4  1  1  0  0  0  0
  5  7  2  0  0  0  0
  6 11  1  0  0  0  0
  6  5  1  6  0  0  0
  8 10  1  0  0  0  0
  9  4  2  0  0  0  0
 11 10  1  6  0  0  0
 11  9  1  0  0  0  0
 12  9  1  0  0  0  0
 12 14  1  0  0  0  0
 14 13  1  0  0  0  0
 16 15  1  0  0  0  0
 17 16  1  0  0  0  0
 18 21  1  0  0  0  0
 19 18  2  0  0  0  0
 19 20  1  0  0  0  0
 20 17  2  0  0  0  0
 21 16  2  0  0  0  0
 23 24  1  0  0  0  0
 23 22  1  0  0  0  0
 24 27  1  0  0  0  0
 25 28  1  0  0  0  0
 27 28  2  0  0  0  0
 28 26  1  0  0  0  0
M  END
>  <MODEL>
6

>  <REMARK>
 VINA RESULT:      -7.3      4.947      8.090
  Name = 
  8 active torsions:
  status: ('A' for Active; 'I' for Inactive)
    1  A    between atoms: C_4  and  C_8
    2  A    between atoms: C_4  and  O_11
    3  A    between atoms: C_4  and  C_21
    4  A    between atoms: N_10  and  C_23
    5  A    between atoms: N_10  and  C_27
    6  A    between atoms: O_11  and  C_18
    7  A    between atoms: C_13  and  N_14
    8  A    between atoms: C_13  and  C_18
                            x       y       z     vdW  Elec       q    Type
                         _______ _______ _______ _____ _____    ______ ____

>  <TORSDO>
F 8

$$$$
=
 OpenBabel11032420173D

 28 30  0  0  1  0  0  0  0  0999 V2000
  186.9640  178.4450  143.4070 C   0  0  2  0  0  3  0  0  0  0  0  0
  189.7330  175.9450  147.6990 N   0  0  0  0  0  0  0  0  0  0  0  0
  188.4320  176.3190  148.0370 N   0  0  0  0  0  2  0  0  0  0  0  0
  187.4300  178.1680  144.8110 C   0  0  0  0  0  0  0  0  0  0  0  0
  186.7360  177.7670  147.1420 C   0  0  0  0  0  3  0  0  0  0  0  0
  188.1220  177.3910  147.3940 C   0  0  2  0  0  3  0  0  0  0  0  0
  186.4190  178.1460  145.9040 C   0  0  0  0  0  3  0  0  0  0  0  0
  191.5960  176.6500  146.3150 C   0  0  0  0  0  1  0  0  0  0  0  0
  188.7520  178.0020  145.0710 C   0  0  0  0  0  0  0  0  0  0  0  0
  190.1920  176.7440  146.7950 C   0  0  0  0  0  0  0  0  0  0  0  0
  189.2350  177.8670  146.5130 C   0  0  2  0  0  3  0  0  0  0  0  0
  189.6870  178.1880  143.9990 N   0  0  0  0  0  2  0  0  0  0  0  0
  192.0100  178.6970  143.5500 C   0  0  0  0  0  1  0  0  0  0  0  0
  190.6680  179.2590  143.9640 C   0  0  0  0  0  2  0  0  0  0  0  0
  181.2280  179.1080  143.0600 C   0  0  0  0  0  1  0  0  0  0  0  0
  182.7010  178.9370  143.1580 C   0  0  0  0  0  0  0  0  0  0  0  0
  183.3950  179.4660  144.2500 C   0  0  0  0  0  3  0  0  0  0  0  0
  184.7780  178.0890  142.2480 C   0  0  0  0  0  3  0  0  0  0  0  0
  185.4770  178.6100  143.3430 C   0  0  0  0  0  0  0  0  0  0  0  0
  184.7800  179.3050  144.3440 C   0  0  0  0  0  3  0  0  0  0  0  0
  183.3930  178.2500  142.1560 C   0  0  0  0  0  3  0  0  0  0  0  0
  187.3970  177.4460  142.5280 O   0  0  0  0  0  0  0  0  0  0  0  0
  187.8740  178.1330  141.4100 C   0  0  0  0  0  2  0  0  0  0  0  0
  188.7180  177.2010  140.5640 C   0  0  0  0  0  2  0  0  0  0  0  0
  190.7600  175.9500  139.0750 N   0  0  0  0  0  1  0  0  0  0  0  0
  192.4030  177.4270  140.1560 N   0  0  0  0  0  1  0  0  0  0  0  0
  190.1180  177.5780  140.6760 N   0  0  0  0  0  0  0  0  0  0  0  0
  191.0560  177.0030  139.9900 C   0  0  0  0  0  0  0  0  0  0  0  0
  1 22  1  6  0  0  0
  1  4  1  0  0  0  0
  2  3  1  0  0  0  0
  4  9  2  0  0  0  0
  4  7  1  0  0  0  0
  6  5  1  6  0  0  0
  6  3  1  0  0  0  0
  7  5  2  0  0  0  0
  8 10  1  0  0  0  0
 10  2  2  0  0  0  0
 11  9  1  6  0  0  0
 11 10  1  0  0  0  0
 11  6  1  0  0  0  0
 12  9  1  0  0  0  0
 13 14  1  0  0  0  0
 14 12  1  0  0  0  0
 15 16  1  0  0  0  0
 16 17  1  0  0  0  0
 17 20  2  0  0  0  0
 18 19  2  0  0  0  0
 19  1  1  0  0  0  0
 19 20  1  0  0  0  0
 21 18  1  0  0  0  0
 21 16  2  0  0  0  0
 23 22  1  0  0  0  0
 24 27  1  0  0  0  0
 24 23  1  0  0  0  0
 25 28  1  0  0  0  0
 28 26  1  0  0  0  0
 28 27  2  0  0  0  0
M  END
>  <MODEL>
7

>  <REMARK>
 VINA RESULT:      -7.2      2.152      5.852
  Name = 
  8 active torsions:
  status: ('A' for Active; 'I' for Inactive)
    1  A    between atoms: C_4  and  C_8
    2  A    between atoms: C_4  and  O_11
    3  A    between atoms: C_4  and  C_21
    4  A    between atoms: N_10  and  C_23
    5  A    between atoms: N_10  and  C_27
    6  A    between atoms: O_11  and  C_18
    7  A    between atoms: C_13  and  N_14
    8  A    between atoms: C_13  and  C_18
                            x       y       z     vdW  Elec       q    Type
                         _______ _______ _______ _____ _____    ______ ____

>  <TORSDO>
F 8

$$$$
=
 OpenBabel11032420173D

 28 30  0  0  1  0  0  0  0  0999 V2000
  189.3510  177.9770  140.9990 C   0  0  2  0  0  3  0  0  0  0  0  0
  190.4280  174.0250  137.0540 N   0  0  0  0  0  0  0  0  0  0  0  0
  191.5840  174.5060  137.6710 N   0  0  0  0  0  2  0  0  0  0  0  0
  190.0450  177.2710  139.8650 C   0  0  0  0  0  0  0  0  0  0  0  0
  192.1910  176.3950  139.0250 C   0  0  0  0  0  3  0  0  0  0  0  0
  191.4120  175.7450  137.9790 C   0  0  2  0  0  3  0  0  0  0  0  0
  191.5270  177.1300  139.9170 C   0  0  0  0  0  3  0  0  0  0  0  0
  188.2180  174.7510  136.3670 C   0  0  0  0  0  1  0  0  0  0  0  0
  189.3330  176.8280  138.7980 C   0  0  0  0  0  0  0  0  0  0  0  0
  189.5240  174.9460  137.0520 C   0  0  0  0  0  0  0  0  0  0  0  0
  190.0570  176.2450  137.5870 C   0  0  2  0  0  3  0  0  0  0  0  0
  187.9320  177.1310  138.7400 N   0  0  0  0  0  2  0  0  0  0  0  0
  186.1020  177.5260  137.2050 C   0  0  0  0  0  1  0  0  0  0  0  0
  187.3560  178.1020  137.8240 C   0  0  0  0  0  2  0  0  0  0  0  0
  191.6830  176.6450  146.1220 C   0  0  0  0  0  1  0  0  0  0  0  0
  191.0900  176.9930  144.8040 C   0  0  0  0  0  0  0  0  0  0  0  0
  191.1340  178.3130  144.3450 C   0  0  0  0  0  3  0  0  0  0  0  0
  189.9290  176.3280  142.7860 C   0  0  0  0  0  3  0  0  0  0  0  0
  189.9760  177.6470  142.3180 C   0  0  0  0  0  0  0  0  0  0  0  0
  190.5770  178.6410  143.1060 C   0  0  0  0  0  3  0  0  0  0  0  0
  190.4860  176.0020  144.0250 C   0  0  0  0  0  3  0  0  0  0  0  0
  187.9810  177.6890  141.0050 O   0  0  0  0  0  0  0  0  0  0  0  0
  187.4200  178.6280  141.8720 C   0  0  0  0  0  2  0  0  0  0  0  0
  185.9090  178.5250  141.8230 C   0  0  0  0  0  2  0  0  0  0  0  0
  183.8030  177.8750  140.0640 N   0  0  0  0  0  1  0  0  0  0  0  0
  183.9710  180.1270  139.0880 N   0  0  0  0  0  1  0  0  0  0  0  0
  185.3910  179.4590  140.8350 N   0  0  0  0  0  0  0  0  0  0  0  0
  184.4220  179.1600  140.0270 C   0  0  0  0  0  0  0  0  0  0  0  0
  1 22  1  1  0  0  0
  1 19  1  0  0  0  0
  2  3  1  0  0  0  0
  3  6  1  0  0  0  0
  4  7  1  0  0  0  0
  4  1  1  0  0  0  0
  5  7  2  0  0  0  0
  6  5  1  1  0  0  0
  8 10  1  0  0  0  0
  9  4  2  0  0  0  0
 10  2  2  0  0  0  0
 11 10  1  1  0  0  0
 11  6  1  0  0  0  0
 11  9  1  0  0  0  0
 12  9  1  0  0  0  0
 13 14  1  0  0  0  0
 14 12  1  0  0  0  0
 16 15  1  0  0  0  0
 17 16  1  0  0  0  0
 18 21  1  0  0  0  0
 19 18  2  0  0  0  0
 19 20  1  0  0  0  0
 20 17  2  0  0  0  0
 21 16  2  0  0  0  0
 22 23  1  0  0  0  0
 24 23  1  0  0  0  0
 26 28  1  0  0  0  0
 27 24  1  0  0  0  0
 28 25  1  0  0  0  0
 28 27  2  0  0  0  0
M  END
>  <MODEL>
8

>  <REMARK>
 VINA RESULT:      -7.1      2.698      6.532
  Name = 
  8 active torsions:
  status: ('A' for Active; 'I' for Inactive)
    1  A    between atoms: C_4  and  C_8
    2  A    between atoms: C_4  and  O_11
    3  A    between atoms: C_4  and  C_21
    4  A    between atoms: N_10  and  C_23
    5  A    between atoms: N_10  and  C_27
    6  A    between atoms: O_11  and  C_18
    7  A    between atoms: C_13  and  N_14
    8  A    between atoms: C_13  and  C_18
                            x       y       z     vdW  Elec       q    Type
                         _______ _______ _______ _____ _____    ______ ____

>  <TORSDO>
F 8

$$$$
=
 OpenBabel11032420173D

 28 30  0  0  1  0  0  0  0  0999 V2000
  189.7850  177.8030  141.5610 C   0  0  2  0  0  3  0  0  0  0  0  0
  191.7530  174.8260  137.1330 N   0  0  0  0  0  0  0  0  0  0  0  0
  192.7720  175.3610  137.9240 N   0  0  0  0  0  2  0  0  0  0  0  0
  190.6580  177.4240  140.3950 C   0  0  0  0  0  0  0  0  0  0  0  0
  192.9690  177.0490  139.6220 C   0  0  0  0  0  3  0  0  0  0  0  0
  192.3770  176.4840  138.4160 C   0  0  2  0  0  3  0  0  0  0  0  0
  192.1360  177.5040  140.5580 C   0  0  0  0  0  3  0  0  0  0  0  0
  189.5020  175.3160  136.3770 C   0  0  0  0  0  1  0  0  0  0  0  0
  190.0990  177.0740  139.2090 C   0  0  0  0  0  0  0  0  0  0  0  0
  190.7110  175.5830  137.2010 C   0  0  0  0  0  0  0  0  0  0  0  0
  190.9850  176.8320  137.9890 C   0  0  2  0  0  3  0  0  0  0  0  0
  188.6740  177.1650  139.0740 N   0  0  0  0  0  2  0  0  0  0  0  0
  186.7840  177.5240  137.6040 C   0  0  0  0  0  1  0  0  0  0  0  0
  188.0060  178.1500  138.2400 C   0  0  0  0  0  2  0  0  0  0  0  0
  192.0630  176.0890  146.5950 C   0  0  0  0  0  1  0  0  0  0  0  0
  191.4820  176.5370  145.3020 C   0  0  0  0  0  0  0  0  0  0  0  0
  191.1920  177.8890  145.0970 C   0  0  0  0  0  3  0  0  0  0  0  0
  190.6780  176.0270  143.0760 C   0  0  0  0  0  3  0  0  0  0  0  0
  190.3920  177.3800  142.8630 C   0  0  0  0  0  0  0  0  0  0  0  0
  190.6470  178.3110  143.8820 C   0  0  0  0  0  3  0  0  0  0  0  0
  191.2230  175.6060  144.2920 C   0  0  0  0  0  3  0  0  0  0  0  0
  188.4960  177.2790  141.4140 O   0  0  0  0  0  0  0  0  0  0  0  0
  187.6920  178.0620  142.2450 C   0  0  0  0  0  2  0  0  0  0  0  0
  186.9520  177.1710  143.2200 C   0  0  0  0  0  2  0  0  0  0  0  0
  187.6060  177.7330  145.9050 N   0  0  0  0  0  1  0  0  0  0  0  0
  185.5390  179.0530  146.0950 N   0  0  0  0  0  1  0  0  0  0  0  0
  186.1110  177.9870  144.0810 N   0  0  0  0  0  0  0  0  0  0  0  0
  186.4130  178.2460  145.3160 C   0  0  0  0  0  0  0  0  0  0  0  0
  1 22  1  6  0  0  0
  1 19  1  0  0  0  0
  2 10  2  0  0  0  0
  2  3  1  0  0  0  0
  3  6  1  0  0  0  0
  4  7  1  0  0  0  0
  4  1  1  0  0  0  0
  5  7  2  0  0  0  0
  6  5  1  1  0  0  0
  8 10  1  0  0  0  0
  9  4  2  0  0  0  0
 11 10  1  1  0  0  0
 11  6  1  0  0  0  0
 11  9  1  0  0  0  0
 12  9  1  0  0  0  0
 13 14  1  0  0  0  0
 14 12  1  0  0  0  0
 16 15  1  0  0  0  0
 17 16  1  0  0  0  0
 18 21  1  0  0  0  0
 19 18  2  0  0  0  0
 19 20  1  0  0  0  0
 20 17  2  0  0  0  0
 21 16  2  0  0  0  0
 22 23  1  0  0  0  0
 23 24  1  0  0  0  0
 24 27  1  0  0  0  0
 27 28  2  0  0  0  0
 28 25  1  0  0  0  0
 28 26  1  0  0  0  0
M  END
>  <MODEL>
9

>  <REMARK>
 VINA RESULT:      -7.1      2.039      6.523
  Name = 
  8 active torsions:
  status: ('A' for Active; 'I' for Inactive)
    1  A    between atoms: C_4  and  C_8
    2  A    between atoms: C_4  and  O_11
    3  A    between atoms: C_4  and  C_21
    4  A    between atoms: N_10  and  C_23
    5  A    between atoms: N_10  and  C_27
    6  A    between atoms: O_11  and  C_18
    7  A    between atoms: C_13  and  N_14
    8  A    between atoms: C_13  and  C_18
                            x       y       z     vdW  Elec       q    Type
                         _______ _______ _______ _____ _____    ______ ____

>  <TORSDO>
F 8

$$$$
