=
 OpenBabel11042412123D

 37 40  0  0  1  0  0  0  0  0999 V2000
  187.2850  178.3780  142.2070 C   0  0  0  0  0  3  0  0  0  0  0  0
  181.1140  178.8040  141.5180 C   0  0  0  0  0  2  0  0  0  0  0  0
  185.9000  178.6000  140.2280 C   0  0  0  0  0  3  0  0  0  0  0  0
  184.8790  178.4460  142.4230 C   0  0  0  0  0  0  0  0  0  0  0  0
  183.2830  178.3450  143.2460 S   0  0  0  0  0  0  0  0  0  0  0  0
  183.1950  179.4810  139.4330 O   0  0  0  0  0  0  0  0  0  0  0  0
  182.5760  179.1370  141.7670 C   0  0  1  0  0  3  0  0  0  0  0  0
  181.5010  180.1330  137.8240 C   0  0  0  0  0  1  0  0  0  0  0  0
  183.3740  178.6530  140.5660 C   0  0  2  0  0  3  0  0  0  0  0  0
  184.7720  178.5940  141.0460 C   0  0  0  0  0  0  0  0  0  0  0  0
  180.7450  179.0880  140.0450 C   0  0  1  0  0  3  0  0  0  0  0  0
  181.8390  179.9070  139.2870 C   0  0  1  0  0  3  0  0  0  0  0  0
  187.1650  178.4960  140.8160 C   0  0  0  0  0  0  0  0  0  0  0  0
  186.1490  178.3620  143.0390 C   0  0  0  0  0  0  0  0  0  0  0  0
  186.3400  178.2410  144.5060 C   0  0  0  0  0  0  0  0  0  0  0  0
  185.5170  178.9290  145.4080 C   0  0  0  0  0  3  0  0  0  0  0  0
  187.3930  177.4660  145.0150 C   0  0  0  0  0  3  0  0  0  0  0  0
  185.7430  178.8160  146.7810 C   0  0  0  0  0  3  0  0  0  0  0  0
  187.5880  177.3790  146.3940 C   0  0  0  0  0  3  0  0  0  0  0  0
  186.7650  178.0490  147.2440 N   0  0  0  0  0  0  0  0  0  0  0  0
  188.3840  178.4820  139.9610 C   0  0  0  0  0  2  0  0  0  0  0  0
  188.9850  177.0870  139.9360 C   0  0  0  0  0  2  0  0  0  0  0  0
  190.5030  177.1600  140.0020 C   0  0  0  0  0  2  0  0  0  0  0  0
  190.9860  177.3790  141.4280 C   0  0  0  0  0  2  0  0  0  0  0  0
  190.4890  176.2640  142.3340 C   0  0  0  0  0  2  0  0  0  0  0  0
  192.2890  175.8970  147.0370 C   0  0  0  0  0  1  0  0  0  0  0  0
  191.4560  176.5170  146.0200 N   0  0  0  0  0  2  0  0  0  0  0  0
  190.5670  176.6810  143.7260 N   0  0  0  0  0  2  0  0  0  0  0  0
  191.4110  176.0300  144.6790 C   0  0  0  0  0  0  0  0  0  0  0  0
  192.1030  175.0310  144.3400 O   0  0  0  0  0  0  0  0  0  0  0  0
  180.2610  177.8310  139.2940 C   0  0  1  0  0  3  0  0  0  0  0  0
  179.1760  176.2560  140.9440 N   0  0  0  0  0  2  0  0  0  0  0  0
  180.2950  176.5830  140.1240 C   0  0  0  0  0  0  0  0  0  0  0  0
  181.2910  175.8110  140.0760 O   0  0  0  0  0  0  0  0  0  0  0  0
  179.1600  175.1140  141.6710 O   0  0  0  0  0  1  0  0  0  0  0  0
  178.9320  177.4900  137.3980 C   0  0  0  0  0  1  0  0  0  0  0  0
  178.9310  178.0420  138.7420 N   0  0  0  0  0  2  0  0  0  0  0  0
  1 14  1  0  0  0  0
  3 13  1  0  0  0  0
  3 10  2  0  0  0  0
  4 14  2  0  0  0  0
  4  5  1  0  0  0  0
  7  2  1  6  0  0  0
  7  5  1  0  0  0  0
  9  6  1  6  0  0  0
  9 10  1  0  0  0  0
  9  7  1  0  0  0  0
 10  4  1  0  0  0  0
 11 31  1  6  0  0  0
 11  2  1  0  0  0  0
 12  8  1  6  0  0  0
 12  6  1  0  0  0  0
 12 11  1  0  0  0  0
 13  1  2  0  0  0  0
 14 15  1  0  0  0  0
 15 17  2  0  0  0  0
 15 16  1  0  0  0  0
 16 18  2  0  0  0  0
 17 19  1  0  0  0  0
 18 20  1  0  0  0  0
 19 20  2  0  0  0  0
 21 13  1  0  0  0  0
 22 21  1  0  0  0  0
 22 23  1  0  0  0  0
 23 24  1  0  0  0  0
 24 25  1  0  0  0  0
 25 28  1  0  0  0  0
 27 26  1  0  0  0  0
 28 29  1  0  0  0  0
 29 27  1  0  0  0  0
 30 29  2  0  0  0  0
 31 37  1  1  0  0  0
 31 33  1  0  0  0  0
 32 35  1  0  0  0  0
 33 32  1  0  0  0  0
 34 33  2  0  0  0  0
 36 37  1  0  0  0  0
M  END
>  <MODEL>
1

>  <REMARK>
 VINA RESULT:      -7.6      0.000      0.000
  Name = 
  10 active torsions:
  status: ('A' for Active; 'I' for Inactive)
    1  A    between atoms: C_3  and  C_34
    2  A    between atoms: C_5  and  C_9
    3  A    between atoms: C_8  and  C_29
    4  A    between atoms: C_8  and  C_30
    5  A    between atoms: C_9  and  C_24
    6  A    between atoms: C_9  and  N_33
    7  A    between atoms: C_12  and  C_28
    8  A    between atoms: C_12  and  C_37
    9  A    between atoms: N_26  and  C_28
   10  A    between atoms: C_30  and  C_37
                            x       y       z     vdW  Elec       q    Type
                         _______ _______ _______ _____ _____    ______ ____

>  <TORSDO>
F 10

$$$$
=
 OpenBabel11042412123D

 37 40  0  0  1  0  0  0  0  0999 V2000
  186.2020  178.2680  143.8160 C   0  0  0  0  0  3  0  0  0  0  0  0
  182.3220  179.0230  139.0090 C   0  0  0  0  0  2  0  0  0  0  0  0
  183.8390  178.8100  143.7270 C   0  0  0  0  0  3  0  0  0  0  0  0
  185.1050  178.5250  141.6770 C   0  0  0  0  0  0  0  0  0  0  0  0
  184.9640  178.6510  139.8890 S   0  0  0  0  0  0  0  0  0  0  0  0
  181.5280  178.6140  141.8970 O   0  0  0  0  0  0  0  0  0  0  0  0
  183.1740  178.4090  140.1080 C   0  0  1  0  0  3  0  0  0  0  0  0
  179.1660  178.6960  141.3540 C   0  0  0  0  0  1  0  0  0  0  0  0
  182.7820  179.0670  141.4210 C   0  0  2  0  0  3  0  0  0  0  0  0
  183.9070  178.7730  142.3360 C   0  0  0  0  0  0  0  0  0  0  0  0
  180.8690  179.2090  139.5000 C   0  0  1  0  0  3  0  0  0  0  0  0
  180.5770  178.4630  140.8420 C   0  0  1  0  0  3  0  0  0  0  0  0
  184.9940  178.5500  144.4710 C   0  0  0  0  0  0  0  0  0  0  0  0
  186.2800  178.2380  142.4110 C   0  0  0  0  0  0  0  0  0  0  0  0
  187.5850  177.9270  141.7740 C   0  0  0  0  0  0  0  0  0  0  0  0
  187.9620  178.5140  140.5590 C   0  0  0  0  0  3  0  0  0  0  0  0
  188.4470  176.9910  142.3640 C   0  0  0  0  0  3  0  0  0  0  0  0
  189.1830  178.1770  139.9730 C   0  0  0  0  0  3  0  0  0  0  0  0
  189.6600  176.6780  141.7480 C   0  0  0  0  0  3  0  0  0  0  0  0
  190.0030  177.2740  140.5740 N   0  0  0  0  0  0  0  0  0  0  0  0
  184.9500  178.6020  145.9580 C   0  0  0  0  0  2  0  0  0  0  0  0
  186.2000  177.9630  146.5380 C   0  0  0  0  0  2  0  0  0  0  0  0
  186.7500  178.8070  147.6780 C   0  0  0  0  0  2  0  0  0  0  0  0
  187.9830  178.1660  148.2980 C   0  0  0  0  0  2  0  0  0  0  0  0
  188.3060  176.8540  147.6010 C   0  0  0  0  0  2  0  0  0  0  0  0
  191.8710  178.1580  144.2730 C   0  0  0  0  0  1  0  0  0  0  0  0
  191.4250  177.5220  145.5010 N   0  0  0  0  0  2  0  0  0  0  0  0
  189.6770  176.8730  147.1140 N   0  0  0  0  0  2  0  0  0  0  0  0
  190.0540  177.5210  145.8960 C   0  0  0  0  0  0  0  0  0  0  0  0
  189.1820  178.0790  145.1750 O   0  0  0  0  0  0  0  0  0  0  0  0
  180.4120  180.6820  139.4820 C   0  0  1  0  0  3  0  0  0  0  0  0
  180.7790  182.6640  137.9610 N   0  0  0  0  0  2  0  0  0  0  0  0
  181.3290  181.5880  138.7160 C   0  0  0  0  0  0  0  0  0  0  0  0
  182.5770  181.4200  138.7610 O   0  0  0  0  0  0  0  0  0  0  0  0
  181.5830  183.5240  137.2930 O   0  0  0  0  0  1  0  0  0  0  0  0
  178.9310  179.8850  137.8560 C   0  0  0  0  0  1  0  0  0  0  0  0
  179.0490  180.7920  138.9840 N   0  0  0  0  0  2  0  0  0  0  0  0
  1 13  1  0  0  0  0
  2 11  1  0  0  0  0
  3 13  2  0  0  0  0
  4 10  2  0  0  0  0
  4 14  1  0  0  0  0
  5  7  1  0  0  0  0
  5  4  1  0  0  0  0
  7  2  1  6  0  0  0
  7  9  1  0  0  0  0
  9  6  1  1  0  0  0
  9 10  1  0  0  0  0
 10  3  1  0  0  0  0
 11 31  1  1  0  0  0
 11 12  1  0  0  0  0
 12  8  1  1  0  0  0
 12  6  1  0  0  0  0
 13 21  1  0  0  0  0
 14  1  2  0  0  0  0
 15 17  1  0  0  0  0
 15 14  1  0  0  0  0
 16 15  2  0  0  0  0
 18 16  1  0  0  0  0
 18 20  2  0  0  0  0
 19 17  2  0  0  0  0
 20 19  1  0  0  0  0
 21 22  1  0  0  0  0
 22 23  1  0  0  0  0
 23 24  1  0  0  0  0
 25 24  1  0  0  0  0
 26 27  1  0  0  0  0
 27 29  1  0  0  0  0
 28 25  1  0  0  0  0
 29 28  1  0  0  0  0
 30 29  2  0  0  0  0
 31 33  1  6  0  0  0
 32 33  1  0  0  0  0
 33 34  2  0  0  0  0
 35 32  1  0  0  0  0
 36 37  1  0  0  0  0
 37 31  1  0  0  0  0
M  END
>  <MODEL>
2

>  <REMARK>
 VINA RESULT:      -7.2      2.153      4.768
  Name = 
  10 active torsions:
  status: ('A' for Active; 'I' for Inactive)
    1  A    between atoms: C_3  and  C_34
    2  A    between atoms: C_5  and  C_9
    3  A    between atoms: C_8  and  C_29
    4  A    between atoms: C_8  and  C_30
    5  A    between atoms: C_9  and  C_24
    6  A    between atoms: C_9  and  N_33
    7  A    between atoms: C_12  and  C_28
    8  A    between atoms: C_12  and  C_37
    9  A    between atoms: N_26  and  C_28
   10  A    between atoms: C_30  and  C_37
                            x       y       z     vdW  Elec       q    Type
                         _______ _______ _______ _____ _____    ______ ____

>  <TORSDO>
F 10

$$$$
=
 OpenBabel11042412123D

 37 40  0  0  1  0  0  0  0  0999 V2000
  186.4390  178.6840  138.4700 C   0  0  0  0  0  3  0  0  0  0  0  0
  187.5550  177.2560  144.4240 C   0  0  0  0  0  2  0  0  0  0  0  0
  188.4790  178.0420  139.6140 C   0  0  0  0  0  3  0  0  0  0  0  0
  186.4060  178.2760  140.8520 C   0  0  0  0  0  0  0  0  0  0  0  0
  185.7300  178.2230  142.5180 S   0  0  0  0  0  0  0  0  0  0  0  0
  189.3730  176.6800  142.0790 O   0  0  0  0  0  0  0  0  0  0  0  0
  187.1530  177.1780  142.9600 C   0  0  1  0  0  3  0  0  0  0  0  0
  191.0190  175.6090  143.5010 C   0  0  0  0  0  1  0  0  0  0  0  0
  188.3370  177.6440  142.1280 C   0  0  2  0  0  3  0  0  0  0  0  0
  187.7590  177.9660  140.8050 C   0  0  0  0  0  0  0  0  0  0  0  0
  189.0070  176.7620  144.6070 C   0  0  1  0  0  3  0  0  0  0  0  0
  189.5710  176.0400  143.3400 C   0  0  1  0  0  3  0  0  0  0  0  0
  187.8110  178.3990  138.4380 C   0  0  0  0  0  0  0  0  0  0  0  0
  185.7070  178.6180  139.6710 C   0  0  0  0  0  0  0  0  0  0  0  0
  184.2550  178.9250  139.6410 C   0  0  0  0  0  0  0  0  0  0  0  0
  183.7590  180.0390  138.9490 C   0  0  0  0  0  3  0  0  0  0  0  0
  183.3530  178.1220  140.3560 C   0  0  0  0  0  3  0  0  0  0  0  0
  182.3910  180.3150  138.9660 C   0  0  0  0  0  3  0  0  0  0  0  0
  181.9920  178.4310  140.3500 C   0  0  0  0  0  3  0  0  0  0  0  0
  181.5410  179.5120  139.6590 N   0  0  0  0  0  0  0  0  0  0  0  0
  188.5630  178.5050  137.1580 C   0  0  0  0  0  2  0  0  0  0  0  0
  187.6770  178.0810  135.9980 C   0  0  0  0  0  2  0  0  0  0  0  0
  188.1540  176.7580  135.4200 C   0  0  0  0  0  2  0  0  0  0  0  0
  187.5130  175.5770  136.1340 C   0  0  0  0  0  2  0  0  0  0  0  0
  188.5630  174.7850  136.8960 C   0  0  0  0  0  2  0  0  0  0  0  0
  193.2640  176.2910  137.9570 C   0  0  0  0  0  1  0  0  0  0  0  0
  192.1980  175.9490  137.0300 N   0  0  0  0  0  2  0  0  0  0  0  0
  189.8950  175.2300  136.5180 N   0  0  0  0  0  2  0  0  0  0  0  0
  190.9040  175.5490  137.4810 C   0  0  0  0  0  0  0  0  0  0  0  0
  190.6510  175.4820  138.7150 O   0  0  0  0  0  0  0  0  0  0  0  0
  189.9410  177.8420  145.1890 C   0  0  1  0  0  3  0  0  0  0  0  0
  191.7330  176.9740  146.7420 N   0  0  0  0  0  2  0  0  0  0  0  0
  190.4330  177.5320  146.5710 C   0  0  0  0  0  0  0  0  0  0  0  0
  189.7170  177.7880  147.5760 O   0  0  0  0  0  0  0  0  0  0  0  0
  192.2220  176.7230  147.9790 O   0  0  0  0  0  1  0  0  0  0  0  0
  191.0400  179.5110  143.9720 C   0  0  0  0  0  1  0  0  0  0  0  0
  191.0580  178.0940  144.2920 N   0  0  0  0  0  2  0  0  0  0  0  0
  1 14  1  0  0  0  0
  2 11  1  0  0  0  0
  3 10  2  0  0  0  0
  4  5  1  0  0  0  0
  5  7  1  0  0  0  0
  6  9  1  0  0  0  0
  6 12  1  0  0  0  0
  7  2  1  1  0  0  0
  9 10  1  6  0  0  0
  9  7  1  0  0  0  0
 10  4  1  0  0  0  0
 11 31  1  6  0  0  0
 12  8  1  1  0  0  0
 12 11  1  0  0  0  0
 13  1  2  0  0  0  0
 13  3  1  0  0  0  0
 14  4  2  0  0  0  0
 15 14  1  0  0  0  0
 15 17  1  0  0  0  0
 16 18  1  0  0  0  0
 16 15  2  0  0  0  0
 18 20  2  0  0  0  0
 19 17  2  0  0  0  0
 20 19  1  0  0  0  0
 21 13  1  0  0  0  0
 22 21  1  0  0  0  0
 23 22  1  0  0  0  0
 23 24  1  0  0  0  0
 24 25  1  0  0  0  0
 27 29  1  0  0  0  0
 27 26  1  0  0  0  0
 28 25  1  0  0  0  0
 28 29  1  0  0  0  0
 29 30  2  0  0  0  0
 31 37  1  6  0  0  0
 31 33  1  0  0  0  0
 32 35  1  0  0  0  0
 33 32  1  0  0  0  0
 33 34  2  0  0  0  0
 36 37  1  0  0  0  0
M  END
>  <MODEL>
3

>  <REMARK>
 VINA RESULT:      -6.8      3.334      8.239
  Name = 
  10 active torsions:
  status: ('A' for Active; 'I' for Inactive)
    1  A    between atoms: C_3  and  C_34
    2  A    between atoms: C_5  and  C_9
    3  A    between atoms: C_8  and  C_29
    4  A    between atoms: C_8  and  C_30
    5  A    between atoms: C_9  and  C_24
    6  A    between atoms: C_9  and  N_33
    7  A    between atoms: C_12  and  C_28
    8  A    between atoms: C_12  and  C_37
    9  A    between atoms: N_26  and  C_28
   10  A    between atoms: C_30  and  C_37
                            x       y       z     vdW  Elec       q    Type
                         _______ _______ _______ _____ _____    ______ ____

>  <TORSDO>
F 10

$$$$
=
 OpenBabel11042412123D

 37 40  0  0  1  0  0  0  0  0999 V2000
  183.9150  178.7230  143.8580 C   0  0  0  0  0  3  0  0  0  0  0  0
  184.7970  178.0030  137.7400 C   0  0  0  0  0  2  0  0  0  0  0  0
  185.9140  178.2530  142.5670 C   0  0  0  0  0  3  0  0  0  0  0  0
  183.7650  178.4620  141.4600 C   0  0  0  0  0  0  0  0  0  0  0  0
  182.9710  178.3090  139.8530 S   0  0  0  0  0  0  0  0  0  0  0  0
  186.9470  178.4880  139.8090 O   0  0  0  0  0  0  0  0  0  0  0  0
  184.6090  178.6100  139.1200 C   0  0  1  0  0  3  0  0  0  0  0  0
  188.6950  178.4690  138.1280 C   0  0  0  0  0  1  0  0  0  0  0  0
  185.6440  177.9880  140.0450 C   0  0  2  0  0  3  0  0  0  0  0  0
  185.1380  178.2630  141.4080 C   0  0  0  0  0  0  0  0  0  0  0  0
  186.3010  177.8710  137.4140 C   0  0  1  0  0  3  0  0  0  0  0  0
  187.2140  178.6500  138.4150 C   0  0  1  0  0  3  0  0  0  0  0  0
  185.2960  178.4910  143.7990 C   0  0  0  0  0  0  0  0  0  0  0  0
  183.1240  178.7250  142.6930 C   0  0  0  0  0  0  0  0  0  0  0  0
  181.6670  178.9840  142.8190 C   0  0  0  0  0  0  0  0  0  0  0  0
  180.9590  178.6230  143.9730 C   0  0  0  0  0  3  0  0  0  0  0  0
  180.9620  179.5560  141.7490 C   0  0  0  0  0  3  0  0  0  0  0  0
  179.5850  178.8530  144.0460 C   0  0  0  0  0  3  0  0  0  0  0  0
  179.5870  179.7700  141.8590 C   0  0  0  0  0  3  0  0  0  0  0  0
  178.9310  179.4200  142.9970 N   0  0  0  0  0  0  0  0  0  0  0  0
  186.1000  178.4660  145.0510 C   0  0  0  0  0  2  0  0  0  0  0  0
  187.0320  177.2670  145.0470 C   0  0  0  0  0  2  0  0  0  0  0  0
  188.4680  177.7090  144.8030 C   0  0  0  0  0  2  0  0  0  0  0  0
  189.1540  176.8190  143.7770 C   0  0  0  0  0  2  0  0  0  0  0  0
  190.6530  177.0710  143.7750 C   0  0  0  0  0  2  0  0  0  0  0  0
  192.8140  175.6630  148.1160 C   0  0  0  0  0  1  0  0  0  0  0  0
  192.3620  175.4070  146.7590 N   0  0  0  0  0  2  0  0  0  0  0  0
  191.3210  176.1060  144.6350 N   0  0  0  0  0  2  0  0  0  0  0  0
  191.7400  176.4190  145.9660 C   0  0  0  0  0  0  0  0  0  0  0  0
  191.5670  177.5780  146.4330 O   0  0  0  0  0  0  0  0  0  0  0  0
  186.7360  176.4130  137.1630 C   0  0  1  0  0  3  0  0  0  0  0  0
  184.9950  174.6330  137.5890 N   0  0  0  0  0  2  0  0  0  0  0  0
  185.6270  175.5290  136.6780 C   0  0  0  0  0  0  0  0  0  0  0  0
  185.2350  175.5950  135.4810 O   0  0  0  0  0  0  0  0  0  0  0  0
  183.9640  173.8530  137.1910 O   0  0  0  0  0  1  0  0  0  0  0  0
  188.6260  175.1660  136.5690 C   0  0  0  0  0  1  0  0  0  0  0  0
  187.8670  176.3640  136.2490 N   0  0  0  0  0  2  0  0  0  0  0  0
  3 13  2  0  0  0  0
  4 14  1  0  0  0  0
  5  4  1  0  0  0  0
  7  2  1  6  0  0  0
  7  5  1  0  0  0  0
  7  9  1  0  0  0  0
  9  6  1  1  0  0  0
  9 10  1  0  0  0  0
 10  4  2  0  0  0  0
 10  3  1  0  0  0  0
 11 31  1  1  0  0  0
 11  2  1  0  0  0  0
 11 12  1  0  0  0  0
 12  8  1  1  0  0  0
 12  6  1  0  0  0  0
 13  1  1  0  0  0  0
 13 21  1  0  0  0  0
 14 15  1  0  0  0  0
 14  1  2  0  0  0  0
 15 16  1  0  0  0  0
 16 18  2  0  0  0  0
 17 19  1  0  0  0  0
 17 15  2  0  0  0  0
 19 20  2  0  0  0  0
 20 18  1  0  0  0  0
 22 21  1  0  0  0  0
 23 22  1  0  0  0  0
 24 23  1  0  0  0  0
 25 24  1  0  0  0  0
 25 28  1  0  0  0  0
 27 26  1  0  0  0  0
 28 29  1  0  0  0  0
 29 30  2  0  0  0  0
 29 27  1  0  0  0  0
 31 37  1  6  0  0  0
 33 31  1  0  0  0  0
 33 32  1  0  0  0  0
 34 33  2  0  0  0  0
 35 32  1  0  0  0  0
 37 36  1  0  0  0  0
M  END
>  <MODEL>
4

>  <REMARK>
 VINA RESULT:      -6.8      3.027      5.430
  Name = 
  10 active torsions:
  status: ('A' for Active; 'I' for Inactive)
    1  A    between atoms: C_3  and  C_34
    2  A    between atoms: C_5  and  C_9
    3  A    between atoms: C_8  and  C_29
    4  A    between atoms: C_8  and  C_30
    5  A    between atoms: C_9  and  C_24
    6  A    between atoms: C_9  and  N_33
    7  A    between atoms: C_12  and  C_28
    8  A    between atoms: C_12  and  C_37
    9  A    between atoms: N_26  and  C_28
   10  A    between atoms: C_30  and  C_37
                            x       y       z     vdW  Elec       q    Type
                         _______ _______ _______ _____ _____    ______ ____

>  <TORSDO>
F 10

$$$$
=
 OpenBabel11042412123D

 37 40  0  0  1  0  0  0  0  0999 V2000
  187.2880  178.4360  142.3040 C   0  0  0  0  0  3  0  0  0  0  0  0
  181.1110  178.7380  141.6020 C   0  0  0  0  0  2  0  0  0  0  0  0
  185.9020  178.6150  140.3210 C   0  0  0  0  0  3  0  0  0  0  0  0
  184.8800  178.4600  142.5160 C   0  0  0  0  0  0  0  0  0  0  0  0
  183.2850  178.3350  143.3370 S   0  0  0  0  0  0  0  0  0  0  0  0
  183.1820  179.4380  139.5140 O   0  0  0  0  0  0  0  0  0  0  0  0
  182.5660  179.1010  141.8510 C   0  0  1  0  0  3  0  0  0  0  0  0
  181.4790  180.0430  137.8980 C   0  0  0  0  0  1  0  0  0  0  0  0
  183.3750  178.6230  140.6550 C   0  0  2  0  0  3  0  0  0  0  0  0
  184.7730  178.5940  141.1380 C   0  0  0  0  0  0  0  0  0  0  0  0
  180.7390  179.0030  140.1260 C   0  0  1  0  0  3  0  0  0  0  0  0
  181.8190  179.8370  139.3630 C   0  0  1  0  0  3  0  0  0  0  0  0
  187.1680  178.5410  140.9110 C   0  0  0  0  0  0  0  0  0  0  0  0
  186.1510  178.4050  143.1340 C   0  0  0  0  0  0  0  0  0  0  0  0
  186.3420  178.3000  144.6030 C   0  0  0  0  0  0  0  0  0  0  0  0
  185.4850  178.9550  145.4980 C   0  0  0  0  0  3  0  0  0  0  0  0
  187.4270  177.5760  145.1190 C   0  0  0  0  0  3  0  0  0  0  0  0
  185.7110  178.8600  146.8720 C   0  0  0  0  0  3  0  0  0  0  0  0
  187.6210  177.5040  146.4990 C   0  0  0  0  0  3  0  0  0  0  0  0
  186.7650  178.1410  147.3430 N   0  0  0  0  0  0  0  0  0  0  0  0
  188.3880  178.5420  140.0580 C   0  0  0  0  0  2  0  0  0  0  0  0
  188.0550  178.0110  138.6740 C   0  0  0  0  0  2  0  0  0  0  0  0
  188.9300  176.8120  138.3400 C   0  0  0  0  0  2  0  0  0  0  0  0
  190.3610  177.0190  138.8140 C   0  0  0  0  0  2  0  0  0  0  0  0
  191.3440  176.5560  137.7520 C   0  0  0  0  0  2  0  0  0  0  0  0
  195.7120  174.0950  138.3520 C   0  0  0  0  0  1  0  0  0  0  0  0
  194.8080  175.2010  138.6200 N   0  0  0  0  0  2  0  0  0  0  0  0
  192.6670  176.3890  138.3370 N   0  0  0  0  0  2  0  0  0  0  0  0
  193.5110  175.2770  138.0290 C   0  0  0  0  0  0  0  0  0  0  0  0
  193.1110  174.3700  137.2490 O   0  0  0  0  0  0  0  0  0  0  0  0
  180.2800  177.7310  139.3850 C   0  0  1  0  0  3  0  0  0  0  0  0
  179.2820  176.1790  141.1100 N   0  0  0  0  0  2  0  0  0  0  0  0
  180.3520  176.4880  140.2200 C   0  0  0  0  0  0  0  0  0  0  0  0
  181.3350  175.7050  140.1170 O   0  0  0  0  0  0  0  0  0  0  0  0
  179.2980  175.0430  141.8450 O   0  0  0  0  0  1  0  0  0  0  0  0
  178.9310  177.3020  137.5220 C   0  0  0  0  0  1  0  0  0  0  0  0
  178.9410  177.9060  138.8430 N   0  0  0  0  0  2  0  0  0  0  0  0
  1 14  1  0  0  0  0
  3 13  1  0  0  0  0
  3 10  2  0  0  0  0
  4 14  2  0  0  0  0
  4  5  1  0  0  0  0
  7  2  1  6  0  0  0
  7  5  1  0  0  0  0
  9  6  1  6  0  0  0
  9 10  1  0  0  0  0
  9  7  1  0  0  0  0
 10  4  1  0  0  0  0
 11 31  1  6  0  0  0
 11  2  1  0  0  0  0
 12  8  1  6  0  0  0
 12  6  1  0  0  0  0
 12 11  1  0  0  0  0
 13  1  2  0  0  0  0
 14 15  1  0  0  0  0
 15 17  2  0  0  0  0
 15 16  1  0  0  0  0
 16 18  2  0  0  0  0
 17 19  1  0  0  0  0
 18 20  1  0  0  0  0
 19 20  2  0  0  0  0
 21 13  1  0  0  0  0
 22 21  1  0  0  0  0
 23 22  1  0  0  0  0
 23 24  1  0  0  0  0
 25 28  1  0  0  0  0
 25 24  1  0  0  0  0
 26 27  1  0  0  0  0
 29 28  1  0  0  0  0
 29 27  1  0  0  0  0
 30 29  2  0  0  0  0
 31 37  1  1  0  0  0
 31 33  1  0  0  0  0
 32 35  1  0  0  0  0
 33 32  1  0  0  0  0
 34 33  2  0  0  0  0
 36 37  1  0  0  0  0
M  END
>  <MODEL>
5

>  <REMARK>
 VINA RESULT:      -6.7      2.325      2.991
  Name = 
  10 active torsions:
  status: ('A' for Active; 'I' for Inactive)
    1  A    between atoms: C_3  and  C_34
    2  A    between atoms: C_5  and  C_9
    3  A    between atoms: C_8  and  C_29
    4  A    between atoms: C_8  and  C_30
    5  A    between atoms: C_9  and  C_24
    6  A    between atoms: C_9  and  N_33
    7  A    between atoms: C_12  and  C_28
    8  A    between atoms: C_12  and  C_37
    9  A    between atoms: N_26  and  C_28
   10  A    between atoms: C_30  and  C_37
                            x       y       z     vdW  Elec       q    Type
                         _______ _______ _______ _____ _____    ______ ____

>  <TORSDO>
F 10

$$$$
=
 OpenBabel11042412123D

 37 40  0  0  1  0  0  0  0  0999 V2000
  187.2850  178.3490  142.2740 C   0  0  0  0  0  3  0  0  0  0  0  0
  181.1090  178.6940  141.5830 C   0  0  0  0  0  2  0  0  0  0  0  0
  185.8980  178.5530  140.2940 C   0  0  0  0  0  3  0  0  0  0  0  0
  184.8770  178.3850  142.4890 C   0  0  0  0  0  0  0  0  0  0  0  0
  183.2820  178.2630  143.3110 S   0  0  0  0  0  0  0  0  0  0  0  0
  183.1810  179.3990  139.4980 O   0  0  0  0  0  0  0  0  0  0  0  0
  182.5660  179.0460  141.8330 C   0  0  1  0  0  3  0  0  0  0  0  0
  181.4790  180.0290  137.8890 C   0  0  0  0  0  1  0  0  0  0  0  0
  183.3700  178.5730  140.6320 C   0  0  2  0  0  3  0  0  0  0  0  0
  184.7690  178.5320  141.1120 C   0  0  0  0  0  0  0  0  0  0  0  0
  180.7360  178.9730  140.1100 C   0  0  1  0  0  3  0  0  0  0  0  0
  181.8200  179.8070  139.3530 C   0  0  1  0  0  3  0  0  0  0  0  0
  187.1630  178.4660  140.8820 C   0  0  0  0  0  0  0  0  0  0  0  0
  186.1480  178.3180  143.1050 C   0  0  0  0  0  0  0  0  0  0  0  0
  186.3410  178.1990  144.5730 C   0  0  0  0  0  0  0  0  0  0  0  0
  185.4350  178.7720  145.4750 C   0  0  0  0  0  3  0  0  0  0  0  0
  187.4730  177.5450  145.0810 C   0  0  0  0  0  3  0  0  0  0  0  0
  185.6620  178.6680  146.8490 C   0  0  0  0  0  3  0  0  0  0  0  0
  187.6660  177.4620  146.4610 C   0  0  0  0  0  3  0  0  0  0  0  0
  186.7630  178.0180  147.3110 N   0  0  0  0  0  0  0  0  0  0  0  0
  188.3820  178.4680  140.0270 C   0  0  0  0  0  2  0  0  0  0  0  0
  189.3490  177.3960  140.4990 C   0  0  0  0  0  2  0  0  0  0  0  0
  190.3600  177.0740  139.4090 C   0  0  0  0  0  2  0  0  0  0  0  0
  190.0360  177.8100  138.1170 C   0  0  0  0  0  2  0  0  0  0  0  0
  189.6690  176.8230  137.0220 C   0  0  0  0  0  2  0  0  0  0  0  0
  184.6950  177.1050  136.1980 C   0  0  0  0  0  1  0  0  0  0  0  0
  186.0740  177.4540  135.8970 N   0  0  0  0  0  2  0  0  0  0  0  0
  188.5020  177.2980  136.2930 N   0  0  0  0  0  2  0  0  0  0  0  0
  187.1680  176.9200  136.6420 C   0  0  0  0  0  0  0  0  0  0  0  0
  186.9610  176.1170  137.5930 O   0  0  0  0  0  0  0  0  0  0  0  0
  180.2690  177.7100  139.3590 C   0  0  1  0  0  3  0  0  0  0  0  0
  179.2230  176.1000  140.9990 N   0  0  0  0  0  2  0  0  0  0  0  0
  180.3340  176.4600  140.1820 C   0  0  0  0  0  0  0  0  0  0  0  0
  181.3510  175.7150  140.1330 O   0  0  0  0  0  0  0  0  0  0  0  0
  179.2350  174.9560  141.7210 O   0  0  0  0  0  1  0  0  0  0  0  0
  178.9640  177.4750  137.4300 C   0  0  0  0  0  1  0  0  0  0  0  0
  178.9310  177.8990  138.8190 N   0  0  0  0  0  2  0  0  0  0  0  0
  1 14  1  0  0  0  0
  3 13  1  0  0  0  0
  3 10  2  0  0  0  0
  4 14  2  0  0  0  0
  4  5  1  0  0  0  0
  7  2  1  6  0  0  0
  7  5  1  0  0  0  0
  9  6  1  6  0  0  0
  9 10  1  0  0  0  0
  9  7  1  0  0  0  0
 10  4  1  0  0  0  0
 11 31  1  6  0  0  0
 11  2  1  0  0  0  0
 12  8  1  6  0  0  0
 12  6  1  0  0  0  0
 12 11  1  0  0  0  0
 13  1  2  0  0  0  0
 14 15  1  0  0  0  0
 15 17  2  0  0  0  0
 15 16  1  0  0  0  0
 16 18  2  0  0  0  0
 17 19  1  0  0  0  0
 18 20  1  0  0  0  0
 19 20  2  0  0  0  0
 21 22  1  0  0  0  0
 21 13  1  0  0  0  0
 23 22  1  0  0  0  0
 24 23  1  0  0  0  0
 25 24  1  0  0  0  0
 27 26  1  0  0  0  0
 27 29  1  0  0  0  0
 28 29  1  0  0  0  0
 28 25  1  0  0  0  0
 29 30  2  0  0  0  0
 31 37  1  1  0  0  0
 31 33  1  0  0  0  0
 32 35  1  0  0  0  0
 33 32  1  0  0  0  0
 34 33  2  0  0  0  0
 36 37  1  0  0  0  0
M  END
>  <MODEL>
6

>  <REMARK>
 VINA RESULT:      -6.6      2.307      3.918
  Name = 
  10 active torsions:
  status: ('A' for Active; 'I' for Inactive)
    1  A    between atoms: C_3  and  C_34
    2  A    between atoms: C_5  and  C_9
    3  A    between atoms: C_8  and  C_29
    4  A    between atoms: C_8  and  C_30
    5  A    between atoms: C_9  and  C_24
    6  A    between atoms: C_9  and  N_33
    7  A    between atoms: C_12  and  C_28
    8  A    between atoms: C_12  and  C_37
    9  A    between atoms: N_26  and  C_28
   10  A    between atoms: C_30  and  C_37
                            x       y       z     vdW  Elec       q    Type
                         _______ _______ _______ _____ _____    ______ ____

>  <TORSDO>
F 10

$$$$
=
 OpenBabel11042412123D

 37 40  0  0  1  0  0  0  0  0999 V2000
  185.8140  178.4860  143.0070 C   0  0  0  0  0  3  0  0  0  0  0  0
  182.1030  178.1640  138.0210 C   0  0  0  0  0  2  0  0  0  0  0  0
  183.4010  178.6170  142.7870 C   0  0  0  0  0  3  0  0  0  0  0  0
  184.7960  178.3700  140.8170 C   0  0  0  0  0  0  0  0  0  0  0  0
  184.7240  178.3160  139.0210 S   0  0  0  0  0  0  0  0  0  0  0  0
  181.2460  177.8800  140.9060 O   0  0  0  0  0  0  0  0  0  0  0  0
  182.9890  177.7980  139.2000 C   0  0  1  0  0  3  0  0  0  0  0  0
  178.9320  177.5200  140.2770 C   0  0  0  0  0  1  0  0  0  0  0  0
  182.4310  178.4930  140.4330 C   0  0  2  0  0  3  0  0  0  0  0  0
  183.5430  178.4710  141.4080 C   0  0  0  0  0  0  0  0  0  0  0  0
  180.6170  178.1470  138.4430 C   0  0  1  0  0  3  0  0  0  0  0  0
  180.3850  177.4810  139.8380 C   0  0  1  0  0  3  0  0  0  0  0  0
  184.5460  178.6180  143.5910 C   0  0  0  0  0  0  0  0  0  0  0  0
  185.9650  178.3480  141.6140 C   0  0  0  0  0  0  0  0  0  0  0  0
  187.3330  178.2050  141.0540 C   0  0  0  0  0  0  0  0  0  0  0  0
  187.5640  178.2530  139.6730 C   0  0  0  0  0  3  0  0  0  0  0  0
  188.4190  177.9660  141.9100 C   0  0  0  0  0  3  0  0  0  0  0  0
  188.8590  178.0850  139.1790 C   0  0  0  0  0  3  0  0  0  0  0  0
  189.6990  177.8020  141.3780 C   0  0  0  0  0  3  0  0  0  0  0  0
  189.8930  177.8660  140.0330 N   0  0  0  0  0  0  0  0  0  0  0  0
  184.4210  178.7910  145.0640 C   0  0  0  0  0  2  0  0  0  0  0  0
  185.7920  179.0090  145.6800 C   0  0  0  0  0  2  0  0  0  0  0  0
  185.8110  178.5240  147.1230 C   0  0  0  0  0  2  0  0  0  0  0  0
  187.2000  178.6480  147.7310 C   0  0  0  0  0  2  0  0  0  0  0  0
  187.8410  177.2780  147.8740 C   0  0  0  0  0  2  0  0  0  0  0  0
  191.5600  177.0160  144.4690 C   0  0  0  0  0  1  0  0  0  0  0  0
  191.0580  177.2300  145.8160 N   0  0  0  0  0  2  0  0  0  0  0  0
  189.2400  177.3390  147.4780 N   0  0  0  0  0  2  0  0  0  0  0  0
  189.6710  177.1220  146.1320 C   0  0  0  0  0  0  0  0  0  0  0  0
  188.8330  176.8330  145.2340 O   0  0  0  0  0  0  0  0  0  0  0  0
  179.9280  179.5160  138.2720 C   0  0  1  0  0  3  0  0  0  0  0  0
  179.3680  180.7100  140.4250 N   0  0  0  0  0  2  0  0  0  0  0  0
  180.2740  180.5030  139.3450 C   0  0  0  0  0  0  0  0  0  0  0  0
  181.3700  181.1250  139.3110 O   0  0  0  0  0  0  0  0  0  0  0  0
  179.6720  181.5630  141.4310 O   0  0  0  0  0  1  0  0  0  0  0  0
  179.1850  181.0680  136.6850 C   0  0  0  0  0  1  0  0  0  0  0  0
  180.2070  180.0710  136.9560 N   0  0  0  0  0  2  0  0  0  0  0  0
  1 13  1  0  0  0  0
  2 11  1  0  0  0  0
  3 13  2  0  0  0  0
  4 10  2  0  0  0  0
  4 14  1  0  0  0  0
  5  7  1  0  0  0  0
  5  4  1  0  0  0  0
  7  2  1  6  0  0  0
  7  9  1  0  0  0  0
  9  6  1  1  0  0  0
  9 10  1  0  0  0  0
 10  3  1  0  0  0  0
 11 31  1  1  0  0  0
 11 12  1  0  0  0  0
 12  8  1  1  0  0  0
 12  6  1  0  0  0  0
 13 21  1  0  0  0  0
 14  1  2  0  0  0  0
 15 14  1  0  0  0  0
 15 17  1  0  0  0  0
 16 15  2  0  0  0  0
 18 16  1  0  0  0  0
 18 20  2  0  0  0  0
 19 17  2  0  0  0  0
 20 19  1  0  0  0  0
 21 22  1  0  0  0  0
 22 23  1  0  0  0  0
 23 24  1  0  0  0  0
 24 25  1  0  0  0  0
 26 27  1  0  0  0  0
 27 29  1  0  0  0  0
 28 25  1  0  0  0  0
 29 28  1  0  0  0  0
 30 29  2  0  0  0  0
 31 37  1  6  0  0  0
 31 33  1  0  0  0  0
 32 35  1  0  0  0  0
 33 32  1  0  0  0  0
 34 33  2  0  0  0  0
 36 37  1  0  0  0  0
M  END
>  <MODEL>
7

>  <REMARK>
 VINA RESULT:      -6.6      2.066      4.584
  Name = 
  10 active torsions:
  status: ('A' for Active; 'I' for Inactive)
    1  A    between atoms: C_3  and  C_34
    2  A    between atoms: C_5  and  C_9
    3  A    between atoms: C_8  and  C_29
    4  A    between atoms: C_8  and  C_30
    5  A    between atoms: C_9  and  C_24
    6  A    between atoms: C_9  and  N_33
    7  A    between atoms: C_12  and  C_28
    8  A    between atoms: C_12  and  C_37
    9  A    between atoms: N_26  and  C_28
   10  A    between atoms: C_30  and  C_37
                            x       y       z     vdW  Elec       q    Type
                         _______ _______ _______ _____ _____    ______ ____

>  <TORSDO>
F 10

$$$$
=
 OpenBabel11042412123D

 37 40  0  0  1  0  0  0  0  0999 V2000
  186.0280  178.6390  138.3900 C   0  0  0  0  0  3  0  0  0  0  0  0
  187.2790  177.3470  144.3480 C   0  0  0  0  0  2  0  0  0  0  0  0
  188.0830  177.9730  139.4930 C   0  0  0  0  0  3  0  0  0  0  0  0
  186.0540  178.2990  140.7830 C   0  0  0  0  0  0  0  0  0  0  0  0
  185.4260  178.3110  142.4680 S   0  0  0  0  0  0  0  0  0  0  0  0
  189.0110  176.6560  141.9700 O   0  0  0  0  0  0  0  0  0  0  0  0
  186.8320  177.2390  142.8990 C   0  0  1  0  0  3  0  0  0  0  0  0
  190.6690  175.5800  143.3750 C   0  0  0  0  0  1  0  0  0  0  0  0
  188.0040  177.6490  142.0210 C   0  0  2  0  0  3  0  0  0  0  0  0
  187.3960  177.9500  140.7060 C   0  0  0  0  0  0  0  0  0  0  0  0
  188.7220  176.8180  144.5040 C   0  0  1  0  0  3  0  0  0  0  0  0
  189.2290  176.0460  143.2430 C   0  0  1  0  0  3  0  0  0  0  0  0
  187.3900  178.3150  138.3280 C   0  0  0  0  0  0  0  0  0  0  0  0
  185.3300  178.6270  139.6130 C   0  0  0  0  0  0  0  0  0  0  0  0
  183.8860  178.9730  139.6150 C   0  0  0  0  0  0  0  0  0  0  0  0
  183.4190  180.1540  139.0240 C   0  0  0  0  0  3  0  0  0  0  0  0
  182.9660  178.1350  140.2620 C   0  0  0  0  0  3  0  0  0  0  0  0
  182.0580  180.4640  139.0710 C   0  0  0  0  0  3  0  0  0  0  0  0
  181.6130  178.4790  140.2880 C   0  0  0  0  0  3  0  0  0  0  0  0
  181.1890  179.6260  139.6950 N   0  0  0  0  0  0  0  0  0  0  0  0
  188.1070  178.3650  137.0240 C   0  0  0  0  0  2  0  0  0  0  0  0
  189.5110  177.8060  137.1800 C   0  0  0  0  0  2  0  0  0  0  0  0
  189.6810  176.5500  136.3390 C   0  0  0  0  0  2  0  0  0  0  0  0
  189.3590  175.2980  137.1410 C   0  0  0  0  0  2  0  0  0  0  0  0
  188.2740  174.4890  136.4480 C   0  0  0  0  0  2  0  0  0  0  0  0
  183.5600  176.2700  136.7540 C   0  0  0  0  0  1  0  0  0  0  0  0
  184.6940  175.5270  137.2780 N   0  0  0  0  0  2  0  0  0  0  0  0
  187.0020  174.6750  137.1310 N   0  0  0  0  0  2  0  0  0  0  0  0
  185.9220  175.4160  136.5590 C   0  0  0  0  0  0  0  0  0  0  0  0
  186.0550  175.9720  135.4350 O   0  0  0  0  0  0  0  0  0  0  0  0
  189.7010  177.8880  145.0290 C   0  0  1  0  0  3  0  0  0  0  0  0
  191.5560  177.0340  146.5140 N   0  0  0  0  0  2  0  0  0  0  0  0
  190.2480  177.5870  146.3910 C   0  0  0  0  0  0  0  0  0  0  0  0
  189.5720  177.8480  147.4230 O   0  0  0  0  0  0  0  0  0  0  0  0
  192.0950  176.7910  147.7310 O   0  0  0  0  0  1  0  0  0  0  0  0
  190.9780  179.5420  143.9730 C   0  0  0  0  0  1  0  0  0  0  0  0
  190.7820  178.1060  144.0790 N   0  0  0  0  0  2  0  0  0  0  0  0
  1 14  1  0  0  0  0
  2 11  1  0  0  0  0
  3 10  2  0  0  0  0
  4  5  1  0  0  0  0
  5  7  1  0  0  0  0
  6  9  1  0  0  0  0
  6 12  1  0  0  0  0
  7  2  1  1  0  0  0
  9 10  1  6  0  0  0
  9  7  1  0  0  0  0
 10  4  1  0  0  0  0
 11 31  1  6  0  0  0
 12  8  1  1  0  0  0
 12 11  1  0  0  0  0
 13  1  2  0  0  0  0
 13  3  1  0  0  0  0
 14 15  1  0  0  0  0
 14  4  2  0  0  0  0
 15 17  1  0  0  0  0
 16 18  1  0  0  0  0
 16 15  2  0  0  0  0
 17 19  2  0  0  0  0
 18 20  2  0  0  0  0
 20 19  1  0  0  0  0
 21 22  1  0  0  0  0
 21 13  1  0  0  0  0
 23 24  1  0  0  0  0
 23 22  1  0  0  0  0
 25 28  1  0  0  0  0
 25 24  1  0  0  0  0
 26 27  1  0  0  0  0
 29 28  1  0  0  0  0
 29 27  1  0  0  0  0
 30 29  2  0  0  0  0
 31 37  1  6  0  0  0
 31 33  1  0  0  0  0
 32 35  1  0  0  0  0
 33 32  1  0  0  0  0
 33 34  2  0  0  0  0
 36 37  1  0  0  0  0
M  END
>  <MODEL>
8

>  <REMARK>
 VINA RESULT:      -6.5      3.137      8.527
  Name = 
  10 active torsions:
  status: ('A' for Active; 'I' for Inactive)
    1  A    between atoms: C_3  and  C_34
    2  A    between atoms: C_5  and  C_9
    3  A    between atoms: C_8  and  C_29
    4  A    between atoms: C_8  and  C_30
    5  A    between atoms: C_9  and  C_24
    6  A    between atoms: C_9  and  N_33
    7  A    between atoms: C_12  and  C_28
    8  A    between atoms: C_12  and  C_37
    9  A    between atoms: N_26  and  C_28
   10  A    between atoms: C_30  and  C_37
                            x       y       z     vdW  Elec       q    Type
                         _______ _______ _______ _____ _____    ______ ____

>  <TORSDO>
F 10

$$$$
=
 OpenBabel11042412123D

 37 40  0  0  1  0  0  0  0  0999 V2000
  183.5690  178.6290  141.4920 C   0  0  0  0  0  3  0  0  0  0  0  0
  186.0140  177.1300  135.9690 C   0  0  0  0  0  2  0  0  0  0  0  0
  185.8600  178.6310  140.6950 C   0  0  0  0  0  3  0  0  0  0  0  0
  184.0610  177.8940  139.2430 C   0  0  0  0  0  0  0  0  0  0  0  0
  183.7410  177.1870  137.6200 S   0  0  0  0  0  0  0  0  0  0  0  0
  187.3880  178.6850  138.1660 O   0  0  0  0  0  0  0  0  0  0  0  0
  185.3430  177.8820  137.1060 C   0  0  1  0  0  3  0  0  0  0  0  0
  189.4040  178.9470  136.8450 C   0  0  0  0  0  1  0  0  0  0  0  0
  186.2710  177.8290  138.3100 C   0  0  2  0  0  3  0  0  0  0  0  0
  185.4060  178.1640  139.4620 C   0  0  0  0  0  0  0  0  0  0  0  0
  187.5240  177.4550  135.9300 C   0  0  1  0  0  3  0  0  0  0  0  0
  187.9110  178.6680  136.8380 C   0  0  1  0  0  3  0  0  0  0  0  0
  184.9330  178.8690  141.7140 C   0  0  0  0  0  0  0  0  0  0  0  0
  183.1050  178.1490  140.2530 C   0  0  0  0  0  0  0  0  0  0  0  0
  181.6480  177.9200  140.0760 C   0  0  0  0  0  0  0  0  0  0  0  0
  181.0790  176.6560  140.2790 C   0  0  0  0  0  3  0  0  0  0  0  0
  180.8210  178.9690  139.6480 C   0  0  0  0  0  3  0  0  0  0  0  0
  179.7110  176.4680  140.0750 C   0  0  0  0  0  3  0  0  0  0  0  0
  179.4570  178.7420  139.4540 C   0  0  0  0  0  3  0  0  0  0  0  0
  178.9320  177.5070  139.6710 N   0  0  0  0  0  0  0  0  0  0  0  0
  185.3960  179.3500  143.0440 C   0  0  0  0  0  2  0  0  0  0  0  0
  185.1490  178.2830  144.0970 C   0  0  0  0  0  2  0  0  0  0  0  0
  186.3140  178.2190  145.0740 C   0  0  0  0  0  2  0  0  0  0  0  0
  187.2190  177.0330  144.7800 C   0  0  0  0  0  2  0  0  0  0  0  0
  188.6220  177.5070  144.4360 C   0  0  0  0  0  2  0  0  0  0  0  0
  190.1490  176.7420  139.6850 C   0  0  0  0  0  1  0  0  0  0  0  0
  189.4250  177.4850  140.7020 N   0  0  0  0  0  2  0  0  0  0  0  0
  188.6960  177.8630  143.0270 N   0  0  0  0  0  2  0  0  0  0  0  0
  189.4250  177.0870  142.0730 C   0  0  0  0  0  0  0  0  0  0  0  0
  190.0670  176.0650  142.4400 O   0  0  0  0  0  0  0  0  0  0  0  0
  188.4120  176.2090  136.1240 C   0  0  1  0  0  3  0  0  0  0  0  0
  187.3460  174.2030  137.2260 N   0  0  0  0  0  2  0  0  0  0  0  0
  187.6620  174.9150  136.0330 C   0  0  0  0  0  0  0  0  0  0  0  0
  187.2870  174.4710  134.9140 O   0  0  0  0  0  0  0  0  0  0  0  0
  186.6330  173.0530  137.1800 O   0  0  0  0  0  1  0  0  0  0  0  0
  190.6010  175.4510  135.7910 C   0  0  0  0  0  1  0  0  0  0  0  0
  189.5270  176.2220  135.1890 N   0  0  0  0  0  2  0  0  0  0  0  0
  1 13  1  0  0  0  0
  3 13  2  0  0  0  0
  4 10  2  0  0  0  0
  4 14  1  0  0  0  0
  5  4  1  0  0  0  0
  7  2  1  6  0  0  0
  7  5  1  0  0  0  0
  7  9  1  0  0  0  0
  9  6  1  6  0  0  0
  9 10  1  0  0  0  0
 10  3  1  0  0  0  0
 11  2  1  0  0  0  0
 11 31  1  1  0  0  0
 11 12  1  0  0  0  0
 12  8  1  1  0  0  0
 12  6  1  0  0  0  0
 13 21  1  0  0  0  0
 14  1  2  0  0  0  0
 15 14  1  0  0  0  0
 15 16  1  0  0  0  0
 17 15  2  0  0  0  0
 18 16  2  0  0  0  0
 19 17  1  0  0  0  0
 19 20  2  0  0  0  0
 20 18  1  0  0  0  0
 21 22  1  0  0  0  0
 22 23  1  0  0  0  0
 24 23  1  0  0  0  0
 25 24  1  0  0  0  0
 26 27  1  0  0  0  0
 27 29  1  0  0  0  0
 28 25  1  0  0  0  0
 29 30  2  0  0  0  0
 29 28  1  0  0  0  0
 31 37  1  6  0  0  0
 33 31  1  0  0  0  0
 33 32  1  0  0  0  0
 34 33  2  0  0  0  0
 35 32  1  0  0  0  0
 37 36  1  0  0  0  0
M  END
>  <MODEL>
9

>  <REMARK>
 VINA RESULT:      -6.5      3.564      6.928
  Name = 
  10 active torsions:
  status: ('A' for Active; 'I' for Inactive)
    1  A    between atoms: C_3  and  C_34
    2  A    between atoms: C_5  and  C_9
    3  A    between atoms: C_8  and  C_29
    4  A    between atoms: C_8  and  C_30
    5  A    between atoms: C_9  and  C_24
    6  A    between atoms: C_9  and  N_33
    7  A    between atoms: C_12  and  C_28
    8  A    between atoms: C_12  and  C_37
    9  A    between atoms: N_26  and  C_28
   10  A    between atoms: C_30  and  C_37
                            x       y       z     vdW  Elec       q    Type
                         _______ _______ _______ _____ _____    ______ ____

>  <TORSDO>
F 10

$$$$
