=
 OpenBabel11032420293D

 33 37  0  0  1  0  0  0  0  0999 V2000
  187.8930  177.2640  144.2740 C   0  0  0  0  0  3  0  0  0  0  0  0
  187.6130  178.4180  140.2400 C   0  0  0  0  0  3  0  0  0  0  0  0
  186.5300  178.6280  141.1020 C   0  0  0  0  0  3  0  0  0  0  0  0
  190.4450  176.8050  142.4790 S   0  0  2  0  0  0  0  0  0  0  0  0
  186.6040  178.2280  142.4440 C   0  0  0  0  0  0  0  0  0  0  0  0
  188.7700  177.7820  140.7060 C   0  0  0  0  0  0  0  0  0  0  0  0
  189.8100  176.6480  138.6320 C   0  0  1  0  0  3  0  0  0  0  0  0
  188.8690  177.4360  142.0440 C   0  0  0  0  0  0  0  0  0  0  0  0
  190.9940  176.7210  137.6550 C   0  0  0  0  0  2  0  0  0  0  0  0
  185.6300  178.0270  144.6550 C   0  0  0  0  0  3  0  0  0  0  0  0
  185.5130  178.4180  143.3110 C   0  0  0  0  0  0  0  0  0  0  0  0
  187.8000  177.6400  142.9300 C   0  0  0  0  0  0  0  0  0  0  0  0
  192.5220  175.9740  138.3130 S   0  0  0  0  0  0  0  0  0  0  0  0
  192.4300  177.4470  140.6750 C   0  0  0  0  0  2  0  0  0  0  0  0
  191.0330  176.8490  140.7790 C   0  0  2  0  0  3  0  0  0  0  0  0
  192.9430  177.4900  139.2350 C   0  0  0  0  0  2  0  0  0  0  0  0
  186.8110  177.4590  145.1330 C   0  0  0  0  0  3  0  0  0  0  0  0
  190.1880  175.3210  142.7070 O   0  0  0  0  0  0  0  0  0  0  0  0
  190.0080  177.5510  139.8710 C   0  0  2  0  0  3  0  0  0  0  0  0
  183.1150  178.9820  143.5720 C   0  0  0  0  0  1  0  0  0  0  0  0
  184.3250  178.9810  142.8250 O   0  0  0  0  0  0  0  0  0  0  0  0
  188.4640  176.8470  137.9080 C   0  0  1  0  0  3  0  0  0  0  0  0
  188.5780  177.6160  136.5960 C   0  0  0  0  0  2  0  0  0  0  0  0
  187.3310  178.4390  136.3200 C   0  0  2  0  0  3  0  0  0  0  0  0
  186.2270  178.0650  137.2930 C   0  0  0  0  0  1  0  0  0  0  0  0
  186.0350  177.0430  134.8800 O   0  0  0  0  0  1  0  0  0  0  0  0
  186.8720  178.1590  134.9030 C   0  0  0  0  0  2  0  0  0  0  0  0
  187.7650  175.5110  137.6860 C   0  0  0  0  0  2  0  0  0  0  0  0
  188.3110  174.8250  136.4410 C   0  0  2  0  0  3  0  0  0  0  0  0
  187.9360  172.8850  136.1010 C   0  0  2  0  0  3  0  0  0  0  0  0
  187.2890  174.1000  135.8050 O   0  0  0  0  0  0  0  0  0  0  0  0
  189.0690  173.5740  136.8010 C   0  0  0  0  0  2  0  0  0  0  0  0
  188.4140  172.2280  134.8160 C   0  0  0  0  0  1  0  0  0  0  0  0
  1 17  1  0  0  0  0
  2  6  1  0  0  0  0
  2  3  2  0  0  0  0
  3  5  1  0  0  0  0
  4 18  2  6  0  0  0
  5 12  1  0  0  0  0
  5 11  2  0  0  0  0
  6  8  2  0  0  0  0
  7 22  1  6  0  0  0
  7 19  1  0  0  0  0
  8  4  1  0  0  0  0
  8 12  1  0  0  0  0
  9 13  1  0  0  0  0
  9  7  1  0  0  0  0
 10 17  2  0  0  0  0
 11 10  1  0  0  0  0
 12  1  2  0  0  0  0
 13 16  1  0  0  0  0
 15 14  1  1  0  0  0
 15  4  1  0  0  0  0
 16 14  1  0  0  0  0
 19  6  1  1  0  0  0
 19 15  1  0  0  0  0
 21 11  1  0  0  0  0
 21 20  1  0  0  0  0
 22 23  1  6  0  0  0
 24 23  1  0  0  0  0
 24 25  1  1  0  0  0
 26 27  1  0  0  0  0
 27 24  1  0  0  0  0
 28 22  1  0  0  0  0
 29 32  1  0  0  0  0
 29 28  1  1  0  0  0
 30 33  1  6  0  0  0
 30 32  1  0  0  0  0
 31 30  1  0  0  0  0
 31 29  1  0  0  0  0
M  END
>  <MODEL>
1

>  <REMARK>
 VINA RESULT:      -7.3      0.000      0.000
  Name = 
  7 active torsions:
  status: ('A' for Active; 'I' for Inactive)
    1  A    between atoms: C_4  and  C_7
    2  A    between atoms: C_4  and  C_10
    3  A    between atoms: C_8  and  C_23
    4  A    between atoms: C_10  and  C_24
    5  A    between atoms: O_16  and  C_22
    6  A    between atoms: C_18  and  C_24
    7  A    between atoms: C_23  and  C_24
                            x       y       z     vdW  Elec       q    Type
                         _______ _______ _______ _____ _____    ______ ____

>  <TORSDO>
F 7

$$$$
=
 OpenBabel11032420293D

 33 37  0  0  1  0  0  0  0  0999 V2000
  188.0400  177.4530  144.1020 C   0  0  0  0  0  3  0  0  0  0  0  0
  187.5980  178.2270  139.9920 C   0  0  0  0  0  3  0  0  0  0  0  0
  186.5530  178.5250  140.8740 C   0  0  0  0  0  3  0  0  0  0  0  0
  190.5130  176.8070  142.2550 S   0  0  2  0  0  0  0  0  0  0  0  0
  186.6800  178.2520  142.2430 C   0  0  0  0  0  0  0  0  0  0  0  0
  188.7700  177.6280  140.4670 C   0  0  0  0  0  0  0  0  0  0  0  0
  189.7180  176.2960  138.4680 C   0  0  1  0  0  3  0  0  0  0  0  0
  188.9230  177.4070  141.8270 C   0  0  0  0  0  0  0  0  0  0  0  0
  190.8620  176.2670  137.4420 C   0  0  0  0  0  2  0  0  0  0  0  0
  185.7980  178.2680  144.5010 C   0  0  0  0  0  3  0  0  0  0  0  0
  185.6270  178.5310  143.1320 C   0  0  0  0  0  0  0  0  0  0  0  0
  187.8920  177.7030  142.7330 C   0  0  0  0  0  0  0  0  0  0  0  0
  192.4120  175.5720  138.1040 S   0  0  0  0  0  0  0  0  0  0  0  0
  192.4250  177.2610  140.3190 C   0  0  0  0  0  2  0  0  0  0  0  0
  191.0300  176.6860  140.5360 C   0  0  2  0  0  3  0  0  0  0  0  0
  192.8770  177.1640  138.8620 C   0  0  0  0  0  2  0  0  0  0  0  0
  186.9950  177.7370  144.9810 C   0  0  0  0  0  3  0  0  0  0  0  0
  190.2590  175.3530  142.6320 O   0  0  0  0  0  0  0  0  0  0  0  0
  189.9710  177.3090  139.6090 C   0  0  2  0  0  3  0  0  0  0  0  0
  183.1670  178.7990  143.2620 C   0  0  0  0  0  1  0  0  0  0  0  0
  184.4220  179.0560  142.6450 O   0  0  0  0  0  0  0  0  0  0  0  0
  188.3450  176.4370  137.7850 C   0  0  1  0  0  3  0  0  0  0  0  0
  188.2190  177.6770  136.9050 C   0  0  0  0  0  2  0  0  0  0  0  0
  188.0320  177.3070  135.4420 C   0  0  2  0  0  3  0  0  0  0  0  0
  189.2860  177.6350  134.6510 C   0  0  0  0  0  1  0  0  0  0  0  0
  185.6640  177.6170  135.4170 O   0  0  0  0  0  1  0  0  0  0  0  0
  186.8630  178.1000  134.8910 C   0  0  0  0  0  2  0  0  0  0  0  0
  188.0020  175.1820  136.9920 C   0  0  0  0  0  2  0  0  0  0  0  0
  186.5520  174.7820  137.2280 C   0  0  2  0  0  3  0  0  0  0  0  0
  185.8990  172.9610  136.7020 C   0  0  2  0  0  3  0  0  0  0  0  0
  186.4960  173.5220  137.8470 O   0  0  0  0  0  0  0  0  0  0  0  0
  185.9190  174.2650  135.9630 C   0  0  0  0  0  2  0  0  0  0  0  0
  184.4720  172.5400  137.0160 C   0  0  0  0  0  1  0  0  0  0  0  0
  1 17  1  0  0  0  0
  2  6  1  0  0  0  0
  2  3  2  0  0  0  0
  3  5  1  0  0  0  0
  4 18  2  6  0  0  0
  5 12  1  0  0  0  0
  5 11  2  0  0  0  0
  6  8  2  0  0  0  0
  7 22  1  6  0  0  0
  7 19  1  0  0  0  0
  8  4  1  0  0  0  0
  8 12  1  0  0  0  0
  9 13  1  0  0  0  0
  9  7  1  0  0  0  0
 10 17  2  0  0  0  0
 11 10  1  0  0  0  0
 12  1  2  0  0  0  0
 13 16  1  0  0  0  0
 15 14  1  1  0  0  0
 15  4  1  0  0  0  0
 16 14  1  0  0  0  0
 19  6  1  1  0  0  0
 19 15  1  0  0  0  0
 21 11  1  0  0  0  0
 21 20  1  0  0  0  0
 22 23  1  6  0  0  0
 24 25  1  6  0  0  0
 24 23  1  0  0  0  0
 27 26  1  0  0  0  0
 27 24  1  0  0  0  0
 28 22  1  0  0  0  0
 29 28  1  6  0  0  0
 29 31  1  0  0  0  0
 30 33  1  1  0  0  0
 30 31  1  0  0  0  0
 32 30  1  0  0  0  0
 32 29  1  0  0  0  0
M  END
>  <MODEL>
2

>  <REMARK>
 VINA RESULT:      -7.0      1.112      1.437
  Name = 
  7 active torsions:
  status: ('A' for Active; 'I' for Inactive)
    1  A    between atoms: C_4  and  C_7
    2  A    between atoms: C_4  and  C_10
    3  A    between atoms: C_8  and  C_23
    4  A    between atoms: C_10  and  C_24
    5  A    between atoms: O_16  and  C_22
    6  A    between atoms: C_18  and  C_24
    7  A    between atoms: C_23  and  C_24
                            x       y       z     vdW  Elec       q    Type
                         _______ _______ _______ _____ _____    ______ ____

>  <TORSDO>
F 7

$$$$
=
 OpenBabel11032420293D

 33 37  0  0  1  0  0  0  0  0999 V2000
  186.0340  178.9530  146.8980 C   0  0  0  0  0  3  0  0  0  0  0  0
  187.3900  176.7890  143.5580 C   0  0  0  0  0  3  0  0  0  0  0  0
  188.0190  176.6240  144.7970 C   0  0  0  0  0  3  0  0  0  0  0  0
  184.4610  179.3670  144.1970 S   0  0  2  0  0  0  0  0  0  0  0  0
  187.5890  177.3560  145.9130 C   0  0  0  0  0  0  0  0  0  0  0  0
  186.3430  177.7070  143.4170 C   0  0  0  0  0  0  0  0  0  0  0  0
  186.4040  178.4400  140.9410 C   0  0  1  0  0  3  0  0  0  0  0  0
  185.8780  178.3910  144.5280 C   0  0  0  0  0  0  0  0  0  0  0  0
  185.6510  178.3230  139.6060 C   0  0  0  0  0  2  0  0  0  0  0  0
  187.7570  177.9400  148.2600 C   0  0  0  0  0  3  0  0  0  0  0  0
  188.2290  177.2090  147.1570 C   0  0  0  0  0  0  0  0  0  0  0  0
  186.4880  178.2400  145.7840 C   0  0  0  0  0  0  0  0  0  0  0  0
  184.2300  179.4580  139.4740 S   0  0  0  0  0  0  0  0  0  0  0  0
  183.1270  178.6340  141.8960 C   0  0  0  0  0  2  0  0  0  0  0  0
  184.5060  178.9960  142.4370 C   0  0  2  0  0  3  0  0  0  0  0  0
  183.1500  178.3170  140.4010 C   0  0  0  0  0  2  0  0  0  0  0  0
  186.6670  178.8010  148.1320 C   0  0  0  0  0  3  0  0  0  0  0  0
  184.9870  180.7950  144.2520 O   0  0  0  0  0  0  0  0  0  0  0  0
  185.5700  177.9260  142.1370 C   0  0  2  0  0  3  0  0  0  0  0  0
  190.6630  176.8260  147.4220 C   0  0  0  0  0  1  0  0  0  0  0  0
  189.3290  176.3510  147.2800 O   0  0  0  0  0  0  0  0  0  0  0  0
  187.8200  177.8410  140.8480 C   0  0  1  0  0  3  0  0  0  0  0  0
  188.2120  177.4010  139.4410 C   0  0  0  0  0  2  0  0  0  0  0  0
  189.4150  178.1770  138.9280 C   0  0  2  0  0  3  0  0  0  0  0  0
  189.0270  179.0110  137.7200 C   0  0  0  0  0  1  0  0  0  0  0  0
  190.4300  176.0580  139.3510 O   0  0  0  0  0  1  0  0  0  0  0  0
  190.4940  177.1880  138.5350 C   0  0  0  0  0  2  0  0  0  0  0  0
  188.8550  178.8060  141.4140 C   0  0  0  0  0  2  0  0  0  0  0  0
  189.5730  178.1810  142.6020 C   0  0  2  0  0  3  0  0  0  0  0  0
  191.3200  178.9260  143.2440 C   0  0  2  0  0  3  0  0  0  0  0  0
  189.9610  179.1810  143.5090 O   0  0  0  0  0  0  0  0  0  0  0  0
  191.0000  177.8440  142.2560 C   0  0  0  0  0  2  0  0  0  0  0  0
  191.9900  178.3490  144.4800 C   0  0  0  0  0  1  0  0  0  0  0  0
  1 17  1  0  0  0  0
  2  3  2  0  0  0  0
  3  5  1  0  0  0  0
  4 18  2  6  0  0  0
  4  8  1  0  0  0  0
  5 11  2  0  0  0  0
  6  2  1  0  0  0  0
  6  8  2  0  0  0  0
  7 22  1  6  0  0  0
  7 19  1  0  0  0  0
  8 12  1  0  0  0  0
  9  7  1  0  0  0  0
 11 21  1  0  0  0  0
 11 10  1  0  0  0  0
 12  5  1  0  0  0  0
 12  1  2  0  0  0  0
 13  9  1  0  0  0  0
 13 16  1  0  0  0  0
 15 14  1  1  0  0  0
 15  4  1  0  0  0  0
 16 14  1  0  0  0  0
 17 10  2  0  0  0  0
 19 15  1  0  0  0  0
 19  6  1  1  0  0  0
 21 20  1  0  0  0  0
 22 23  1  6  0  0  0
 22 28  1  0  0  0  0
 24 25  1  6  0  0  0
 24 23  1  0  0  0  0
 27 24  1  0  0  0  0
 27 26  1  0  0  0  0
 29 28  1  6  0  0  0
 29 31  1  0  0  0  0
 30 31  1  0  0  0  0
 30 33  1  1  0  0  0
 32 29  1  0  0  0  0
 32 30  1  0  0  0  0
M  END
>  <MODEL>
3

>  <REMARK>
 VINA RESULT:      -7.0      3.418      6.406
  Name = 
  7 active torsions:
  status: ('A' for Active; 'I' for Inactive)
    1  A    between atoms: C_4  and  C_7
    2  A    between atoms: C_4  and  C_10
    3  A    between atoms: C_8  and  C_23
    4  A    between atoms: C_10  and  C_24
    5  A    between atoms: O_16  and  C_22
    6  A    between atoms: C_18  and  C_24
    7  A    between atoms: C_23  and  C_24
                            x       y       z     vdW  Elec       q    Type
                         _______ _______ _______ _____ _____    ______ ____

>  <TORSDO>
F 7

$$$$
=
 OpenBabel11032420293D

 33 37  0  0  1  0  0  0  0  0999 V2000
  186.0210  178.6780  143.4770 C   0  0  0  0  0  3  0  0  0  0  0  0
  184.2170  178.7380  139.6790 C   0  0  0  0  0  3  0  0  0  0  0  0
  183.4330  178.9060  140.8270 C   0  0  0  0  0  3  0  0  0  0  0  0
  187.9310  178.3730  140.9870 S   0  0  2  0  0  0  0  0  0  0  0  0
  184.0200  178.8660  142.0990 C   0  0  0  0  0  0  0  0  0  0  0  0
  185.5920  178.5030  139.7960 C   0  0  0  0  0  0  0  0  0  0  0  0
  186.2380  177.1600  137.6860 C   0  0  1  0  0  3  0  0  0  0  0  0
  186.1860  178.5180  141.0480 C   0  0  0  0  0  0  0  0  0  0  0  0
  186.9990  177.2550  136.3540 C   0  0  0  0  0  2  0  0  0  0  0  0
  183.8590  178.9940  144.5150 C   0  0  0  0  0  3  0  0  0  0  0  0
  183.2350  179.0140  143.2560 C   0  0  0  0  0  0  0  0  0  0  0  0
  185.4220  178.6900  142.2130 C   0  0  0  0  0  0  0  0  0  0  0  0
  188.8010  177.0420  136.5330 S   0  0  0  0  0  0  0  0  0  0  0  0
  189.0060  178.9830  138.5200 C   0  0  0  0  0  2  0  0  0  0  0  0
  187.9400  178.1350  139.2030 C   0  0  2  0  0  3  0  0  0  0  0  0
  189.0250  178.7900  137.0040 C   0  0  0  0  0  2  0  0  0  0  0  0
  185.2410  178.8310  144.6230 C   0  0  0  0  0  3  0  0  0  0  0  0
  188.1930  176.9690  141.5140 O   0  0  0  0  0  0  0  0  0  0  0  0
  186.5320  178.3550  138.6220 C   0  0  2  0  0  3  0  0  0  0  0  0
  180.9340  178.6180  144.0850 C   0  0  0  0  0  1  0  0  0  0  0  0
  181.8470  179.1690  143.1440 O   0  0  0  0  0  0  0  0  0  0  0  0
  184.7400  176.8790  137.4650 C   0  0  1  0  0  3  0  0  0  0  0  0
  184.2820  177.0760  136.0230 C   0  0  0  0  0  2  0  0  0  0  0  0
  182.7710  177.2190  135.9310 C   0  0  2  0  0  3  0  0  0  0  0  0
  182.3800  177.8230  134.5940 C   0  0  0  0  0  1  0  0  0  0  0  0
  180.9300  177.9800  137.2470 O   0  0  0  0  0  1  0  0  0  0  0  0
  182.3040  178.1260  137.0520 C   0  0  0  0  0  2  0  0  0  0  0  0
  184.3710  175.4850  137.9570 C   0  0  0  0  0  2  0  0  0  0  0  0
  184.7310  174.4380  136.9110 C   0  0  2  0  0  3  0  0  0  0  0  0
  184.3340  172.4990  137.2320 C   0  0  2  0  0  3  0  0  0  0  0  0
  183.6340  173.5900  136.6830 O   0  0  0  0  0  0  0  0  0  0  0  0
  185.5510  173.3290  137.5150 C   0  0  0  0  0  2  0  0  0  0  0  0
  184.6200  171.4710  136.1500 C   0  0  0  0  0  1  0  0  0  0  0  0
  1 17  1  0  0  0  0
  2  6  1  0  0  0  0
  2  3  2  0  0  0  0
  3  5  1  0  0  0  0
  4  8  1  0  0  0  0
  4 18  2  1  0  0  0
  5 12  1  0  0  0  0
  5 11  2  0  0  0  0
  6  8  2  0  0  0  0
  7 22  1  6  0  0  0
  7 19  1  0  0  0  0
  8 12  1  0  0  0  0
  9 13  1  0  0  0  0
  9  7  1  0  0  0  0
 10 17  2  0  0  0  0
 11 10  1  0  0  0  0
 12  1  2  0  0  0  0
 13 16  1  0  0  0  0
 15 14  1  6  0  0  0
 15  4  1  0  0  0  0
 16 14  1  0  0  0  0
 19 15  1  0  0  0  0
 19  6  1  1  0  0  0
 21 11  1  0  0  0  0
 21 20  1  0  0  0  0
 22 23  1  6  0  0  0
 22 28  1  0  0  0  0
 24 25  1  6  0  0  0
 24 23  1  0  0  0  0
 24 27  1  0  0  0  0
 27 26  1  0  0  0  0
 29 32  1  0  0  0  0
 29 28  1  1  0  0  0
 30 33  1  6  0  0  0
 30 32  1  0  0  0  0
 31 29  1  0  0  0  0
 31 30  1  0  0  0  0
M  END
>  <MODEL>
4

>  <REMARK>
 VINA RESULT:      -6.3      2.752      3.675
  Name = 
  7 active torsions:
  status: ('A' for Active; 'I' for Inactive)
    1  A    between atoms: C_4  and  C_7
    2  A    between atoms: C_4  and  C_10
    3  A    between atoms: C_8  and  C_23
    4  A    between atoms: C_10  and  C_24
    5  A    between atoms: O_16  and  C_22
    6  A    between atoms: C_18  and  C_24
    7  A    between atoms: C_23  and  C_24
                            x       y       z     vdW  Elec       q    Type
                         _______ _______ _______ _____ _____    ______ ____

>  <TORSDO>
F 7

$$$$
=
 OpenBabel11032420293D

 33 37  0  0  1  0  0  0  0  0999 V2000
  192.4990  177.6040  141.1820 C   0  0  0  0  0  3  0  0  0  0  0  0
  188.6810  176.3640  142.4360 C   0  0  0  0  0  3  0  0  0  0  0  0
  189.0190  176.3140  141.0780 C   0  0  0  0  0  3  0  0  0  0  0  0
  191.9170  177.6920  144.2800 S   0  0  2  0  0  0  0  0  0  0  0  0
  190.2810  176.7450  140.6460 C   0  0  0  0  0  0  0  0  0  0  0  0
  189.5930  176.8690  143.3700 C   0  0  0  0  0  0  0  0  0  0  0  0
  188.1510  177.8020  145.2990 C   0  0  1  0  0  3  0  0  0  0  0  0
  190.8610  177.2440  142.9550 C   0  0  0  0  0  0  0  0  0  0  0  0
  187.7440  177.5540  146.7610 C   0  0  0  0  0  2  0  0  0  0  0  0
  191.9030  177.1330  138.8860 C   0  0  0  0  0  3  0  0  0  0  0  0
  190.6200  176.7170  139.2810 C   0  0  0  0  0  0  0  0  0  0  0  0
  191.2270  177.1990  141.6010 C   0  0  0  0  0  0  0  0  0  0  0  0
  188.9860  178.1310  147.9650 S   0  0  0  0  0  0  0  0  0  0  0  0
  191.0720  176.7560  146.7340 C   0  0  0  0  0  2  0  0  0  0  0  0
  190.6070  177.5230  145.5010 C   0  0  2  0  0  3  0  0  0  0  0  0
  189.9680  176.6050  147.7800 C   0  0  0  0  0  2  0  0  0  0  0  0
  192.8340  177.5690  139.8290 C   0  0  0  0  0  3  0  0  0  0  0  0
  192.0500  179.2020  144.1380 O   0  0  0  0  0  0  0  0  0  0  0  0
  189.3440  176.9220  144.8590 C   0  0  2  0  0  3  0  0  0  0  0  0
  189.0750  177.1690  137.3980 C   0  0  0  0  0  1  0  0  0  0  0  0
  189.6790  176.2870  138.3360 O   0  0  0  0  0  0  0  0  0  0  0  0
  186.9360  177.7450  144.3540 C   0  0  1  0  0  3  0  0  0  0  0  0
  185.6100  177.5010  145.0690 C   0  0  0  0  0  2  0  0  0  0  0  0
  184.9400  178.8070  145.4640 C   0  0  2  0  0  3  0  0  0  0  0  0
  185.0140  179.0030  146.9680 C   0  0  0  0  0  1  0  0  0  0  0  0
  183.2290  179.7530  144.0940 O   0  0  0  0  0  1  0  0  0  0  0  0
  183.4880  178.7530  145.0320 C   0  0  0  0  0  2  0  0  0  0  0  0
  186.8560  179.0010  143.4960 C   0  0  0  0  0  2  0  0  0  0  0  0
  186.5720  178.6380  142.0450 C   0  0  2  0  0  3  0  0  0  0  0  0
  184.8150  179.1100  141.2020 C   0  0  2  0  0  3  0  0  0  0  0  0
  186.0570  179.7530  141.3630 O   0  0  0  0  0  0  0  0  0  0  0  0
  185.2770  177.8780  141.9200 C   0  0  0  0  0  2  0  0  0  0  0  0
  184.5690  178.8180  139.7300 C   0  0  0  0  0  1  0  0  0  0  0  0
  1 12  1  0  0  0  0
  2  6  1  0  0  0  0
  3  2  2  0  0  0  0
  4 18  2  6  0  0  0
  4 15  1  0  0  0  0
  5  3  1  0  0  0  0
  5 12  2  0  0  0  0
  7 22  1  6  0  0  0
  7  9  1  0  0  0  0
  8  6  2  0  0  0  0
  8  4  1  0  0  0  0
  9 13  1  0  0  0  0
 10 11  2  0  0  0  0
 10 17  1  0  0  0  0
 11  5  1  0  0  0  0
 12  8  1  0  0  0  0
 14 16  1  0  0  0  0
 15 14  1  1  0  0  0
 16 13  1  0  0  0  0
 17  1  2  0  0  0  0
 19  6  1  6  0  0  0
 19  7  1  0  0  0  0
 19 15  1  0  0  0  0
 20 21  1  0  0  0  0
 21 11  1  0  0  0  0
 22 28  1  1  0  0  0
 22 23  1  0  0  0  0
 23 24  1  0  0  0  0
 24 25  1  1  0  0  0
 26 27  1  0  0  0  0
 27 24  1  0  0  0  0
 29 28  1  1  0  0  0
 30 33  1  6  0  0  0
 30 31  1  0  0  0  0
 30 32  1  0  0  0  0
 31 29  1  0  0  0  0
 32 29  1  0  0  0  0
M  END
>  <MODEL>
5

>  <REMARK>
 VINA RESULT:      -6.1      2.712      7.316
  Name = 
  7 active torsions:
  status: ('A' for Active; 'I' for Inactive)
    1  A    between atoms: C_4  and  C_7
    2  A    between atoms: C_4  and  C_10
    3  A    between atoms: C_8  and  C_23
    4  A    between atoms: C_10  and  C_24
    5  A    between atoms: O_16  and  C_22
    6  A    between atoms: C_18  and  C_24
    7  A    between atoms: C_23  and  C_24
                            x       y       z     vdW  Elec       q    Type
                         _______ _______ _______ _____ _____    ______ ____

>  <TORSDO>
F 7

$$$$
=
 OpenBabel11032420293D

 33 37  0  0  1  0  0  0  0  0999 V2000
  188.6820  177.4780  143.6230 C   0  0  0  0  0  3  0  0  0  0  0  0
  185.4180  178.9190  141.3980 C   0  0  0  0  0  3  0  0  0  0  0  0
  185.3180  178.8080  142.7900 C   0  0  0  0  0  3  0  0  0  0  0  0
  189.0900  177.7530  140.5080 S   0  0  2  0  0  0  0  0  0  0  0  0
  186.3920  178.3090  143.5400 C   0  0  0  0  0  0  0  0  0  0  0  0
  186.5830  178.5080  140.7410 C   0  0  0  0  0  0  0  0  0  0  0  0
  185.8270  177.8260  138.3680 C   0  0  1  0  0  3  0  0  0  0  0  0
  187.6670  178.0660  141.4820 C   0  0  0  0  0  0  0  0  0  0  0  0
  185.8880  178.2460  136.8900 C   0  0  0  0  0  2  0  0  0  0  0  0
  187.3960  177.6950  145.6590 C   0  0  0  0  0  3  0  0  0  0  0  0
  186.2920  178.1760  144.9360 C   0  0  0  0  0  0  0  0  0  0  0  0
  187.5950  177.9500  142.8800 C   0  0  0  0  0  0  0  0  0  0  0  0
  187.4520  177.7880  136.0720 S   0  0  0  0  0  0  0  0  0  0  0  0
  189.0280  178.9770  138.0360 C   0  0  0  0  0  2  0  0  0  0  0  0
  188.2190  178.0830  138.9680 C   0  0  2  0  0  3  0  0  0  0  0  0
  188.3000  179.2650  136.7240 C   0  0  0  0  0  2  0  0  0  0  0  0
  188.5810  177.3530  145.0080 C   0  0  0  0  0  3  0  0  0  0  0  0
  189.2010  176.2340  140.5120 O   0  0  0  0  0  0  0  0  0  0  0  0
  186.8080  178.6290  139.2520 C   0  0  2  0  0  3  0  0  0  0  0  0
  184.9090  178.3420  146.9860 C   0  0  0  0  0  1  0  0  0  0  0  0
  185.0970  178.5110  145.5860 O   0  0  0  0  0  0  0  0  0  0  0  0
  184.3780  177.7970  138.8900 C   0  0  1  0  0  3  0  0  0  0  0  0
  183.4390  178.7480  138.1550 C   0  0  0  0  0  2  0  0  0  0  0  0
  182.8010  179.7490  139.1050 C   0  0  2  0  0  3  0  0  0  0  0  0
  182.0190  179.0240  140.1860 C   0  0  0  0  0  1  0  0  0  0  0  0
  182.2560  181.9720  138.4270 O   0  0  0  0  0  1  0  0  0  0  0  0
  181.8640  180.6370  138.3120 C   0  0  0  0  0  2  0  0  0  0  0  0
  183.8230  176.3780  138.8710 C   0  0  0  0  0  2  0  0  0  0  0  0
  182.6870  176.2640  137.8640 C   0  0  2  0  0  3  0  0  0  0  0  0
  181.7570  174.5110  137.5720 C   0  0  2  0  0  3  0  0  0  0  0  0
  181.5930  175.6020  138.4470 O   0  0  0  0  0  0  0  0  0  0  0  0
  182.9360  175.1410  136.8910 C   0  0  0  0  0  2  0  0  0  0  0  0
  180.5700  174.4240  136.6260 C   0  0  0  0  0  1  0  0  0  0  0  0
  1 17  1  0  0  0  0
  2  3  2  0  0  0  0
  3  5  1  0  0  0  0
  4 18  2  6  0  0  0
  4  8  1  0  0  0  0
  5 11  2  0  0  0  0
  6  2  1  0  0  0  0
  6  8  2  0  0  0  0
  7 22  1  1  0  0  0
  7 19  1  0  0  0  0
  8 12  1  0  0  0  0
  9  7  1  0  0  0  0
 11 21  1  0  0  0  0
 11 10  1  0  0  0  0
 12  5  1  0  0  0  0
 12  1  2  0  0  0  0
 13 16  1  0  0  0  0
 13  9  1  0  0  0  0
 15 14  1  6  0  0  0
 15 19  1  0  0  0  0
 15  4  1  0  0  0  0
 16 14  1  0  0  0  0
 17 10  2  0  0  0  0
 19  6  1  1  0  0  0
 21 20  1  0  0  0  0
 22 23  1  6  0  0  0
 23 24  1  0  0  0  0
 24 25  1  1  0  0  0
 27 26  1  0  0  0  0
 27 24  1  0  0  0  0
 28 22  1  0  0  0  0
 29 31  1  0  0  0  0
 29 28  1  1  0  0  0
 30 33  1  6  0  0  0
 30 31  1  0  0  0  0
 32 30  1  0  0  0  0
 32 29  1  0  0  0  0
M  END
>  <MODEL>
6

>  <REMARK>
 VINA RESULT:      -6.1      3.236      4.515
  Name = 
  7 active torsions:
  status: ('A' for Active; 'I' for Inactive)
    1  A    between atoms: C_4  and  C_7
    2  A    between atoms: C_4  and  C_10
    3  A    between atoms: C_8  and  C_23
    4  A    between atoms: C_10  and  C_24
    5  A    between atoms: O_16  and  C_22
    6  A    between atoms: C_18  and  C_24
    7  A    between atoms: C_23  and  C_24
                            x       y       z     vdW  Elec       q    Type
                         _______ _______ _______ _____ _____    ______ ____

>  <TORSDO>
F 7

$$$$
=
 OpenBabel11032420293D

 33 37  0  0  1  0  0  0  0  0999 V2000
  188.7910  177.3320  143.4210 C   0  0  0  0  0  3  0  0  0  0  0  0
  185.6320  178.7160  141.0140 C   0  0  0  0  0  3  0  0  0  0  0  0
  185.4650  178.6260  142.4000 C   0  0  0  0  0  3  0  0  0  0  0  0
  189.3510  177.5600  140.3260 S   0  0  2  0  0  0  0  0  0  0  0  0
  186.5030  178.1460  143.2110 C   0  0  0  0  0  0  0  0  0  0  0  0
  186.8320  178.3010  140.4220 C   0  0  0  0  0  0  0  0  0  0  0  0
  186.1980  177.5760  138.0260 C   0  0  1  0  0  3  0  0  0  0  0  0
  187.8800  177.8790  141.2230 C   0  0  0  0  0  0  0  0  0  0  0  0
  186.3300  177.9730  136.5460 C   0  0  0  0  0  2  0  0  0  0  0  0
  187.4040  177.5730  145.3870 C   0  0  0  0  0  3  0  0  0  0  0  0
  186.3340  178.0350  144.6030 C   0  0  0  0  0  0  0  0  0  0  0  0
  187.7390  177.7850  142.6170 C   0  0  0  0  0  0  0  0  0  0  0  0
  187.9360  177.5120  135.8140 S   0  0  0  0  0  0  0  0  0  0  0  0
  189.4050  178.7440  137.8340 C   0  0  0  0  0  2  0  0  0  0  0  0
  188.5560  177.8590  138.7400 C   0  0  2  0  0  3  0  0  0  0  0  0
  188.7410  179.0050  136.4830 C   0  0  0  0  0  2  0  0  0  0  0  0
  188.6220  177.2290  144.8010 C   0  0  0  0  0  3  0  0  0  0  0  0
  189.4710  176.0420  140.3600 O   0  0  0  0  0  0  0  0  0  0  0  0
  187.1300  178.4000  138.9440 C   0  0  2  0  0  3  0  0  0  0  0  0
  184.9080  178.4020  146.5950 C   0  0  0  0  0  1  0  0  0  0  0  0
  185.1060  178.3730  145.1870 O   0  0  0  0  0  0  0  0  0  0  0  0
  184.7250  177.5460  138.4760 C   0  0  1  0  0  3  0  0  0  0  0  0
  184.1040  178.9280  138.6450 C   0  0  0  0  0  2  0  0  0  0  0  0
  182.5930  178.8470  138.7970 C   0  0  2  0  0  3  0  0  0  0  0  0
  181.9730  180.2240  138.6340 C   0  0  0  0  0  1  0  0  0  0  0  0
  181.1710  177.4590  140.1200 O   0  0  0  0  0  1  0  0  0  0  0  0
  182.2760  178.3100  140.1780 C   0  0  0  0  0  2  0  0  0  0  0  0
  183.8870  176.6950  137.5300 C   0  0  0  0  0  2  0  0  0  0  0  0
  183.8720  175.2440  137.9900 C   0  0  2  0  0  3  0  0  0  0  0  0
  183.2960  173.7850  136.7400 C   0  0  2  0  0  3  0  0  0  0  0  0
  184.5100  174.4320  137.0370 O   0  0  0  0  0  0  0  0  0  0  0  0
  182.5310  174.6080  137.7340 C   0  0  0  0  0  2  0  0  0  0  0  0
  183.3630  172.3310  137.1800 C   0  0  0  0  0  1  0  0  0  0  0  0
  1 17  1  0  0  0  0
  2  3  2  0  0  0  0
  3  5  1  0  0  0  0
  4 18  2  6  0  0  0
  4  8  1  0  0  0  0
  5 11  2  0  0  0  0
  6  2  1  0  0  0  0
  6  8  2  0  0  0  0
  7 22  1  1  0  0  0
  7 19  1  0  0  0  0
  8 12  1  0  0  0  0
  9  7  1  0  0  0  0
 11 21  1  0  0  0  0
 11 10  1  0  0  0  0
 12  5  1  0  0  0  0
 12  1  2  0  0  0  0
 13 16  1  0  0  0  0
 13  9  1  0  0  0  0
 15 14  1  6  0  0  0
 15 19  1  0  0  0  0
 15  4  1  0  0  0  0
 16 14  1  0  0  0  0
 17 10  2  0  0  0  0
 19  6  1  1  0  0  0
 21 20  1  0  0  0  0
 22 28  1  6  0  0  0
 22 23  1  0  0  0  0
 23 24  1  0  0  0  0
 24 25  1  1  0  0  0
 24 27  1  0  0  0  0
 26 27  1  0  0  0  0
 29 28  1  6  0  0  0
 30 31  1  0  0  0  0
 30 33  1  1  0  0  0
 30 32  1  0  0  0  0
 31 29  1  0  0  0  0
 32 29  1  0  0  0  0
M  END
>  <MODEL>
7

>  <REMARK>
 VINA RESULT:      -5.9      2.790      4.025
  Name = 
  7 active torsions:
  status: ('A' for Active; 'I' for Inactive)
    1  A    between atoms: C_4  and  C_7
    2  A    between atoms: C_4  and  C_10
    3  A    between atoms: C_8  and  C_23
    4  A    between atoms: C_10  and  C_24
    5  A    between atoms: O_16  and  C_22
    6  A    between atoms: C_18  and  C_24
    7  A    between atoms: C_23  and  C_24
                            x       y       z     vdW  Elec       q    Type
                         _______ _______ _______ _____ _____    ______ ____

>  <TORSDO>
F 7

$$$$
=
 OpenBabel11032420293D

 33 37  0  0  1  0  0  0  0  0999 V2000
  186.4040  178.4400  142.4200 C   0  0  0  0  0  3  0  0  0  0  0  0
  183.8090  178.5950  139.1150 C   0  0  0  0  0  3  0  0  0  0  0  0
  185.1850  178.4320  138.9140 C   0  0  0  0  0  3  0  0  0  0  0  0
  183.3250  178.7240  143.0380 S   0  0  2  0  0  0  0  0  0  0  0  0
  186.0620  178.4000  140.0070 C   0  0  0  0  0  0  0  0  0  0  0  0
  183.3010  178.7540  140.4100 C   0  0  0  0  0  0  0  0  0  0  0  0
  181.1320  180.1280  140.1300 C   0  0  1  0  0  3  0  0  0  0  0  0
  184.1570  178.6680  141.4960 C   0  0  0  0  0  0  0  0  0  0  0  0
  179.6000  180.0360  140.2120 C   0  0  0  0  0  2  0  0  0  0  0  0
  188.2950  178.2040  140.9310 C   0  0  0  0  0  3  0  0  0  0  0  0
  187.4470  178.2560  139.8110 C   0  0  0  0  0  0  0  0  0  0  0  0
  185.5400  178.4990  141.3220 C   0  0  0  0  0  0  0  0  0  0  0  0
  178.9580  180.1480  141.9150 S   0  0  0  0  0  0  0  0  0  0  0  0
  180.6350  178.1370  142.8640 C   0  0  0  0  0  2  0  0  0  0  0  0
  181.7260  179.0180  142.2670 C   0  0  2  0  0  3  0  0  0  0  0  0
  179.2710  178.3770  142.2190 C   0  0  0  0  0  2  0  0  0  0  0  0
  187.7770  178.2910  142.2230 C   0  0  0  0  0  3  0  0  0  0  0  0
  183.6880  180.0950  143.5920 O   0  0  0  0  0  0  0  0  0  0  0  0
  181.8330  178.8900  140.7370 C   0  0  2  0  0  3  0  0  0  0  0  0
  189.0590  178.9730  138.0710 C   0  0  0  0  0  1  0  0  0  0  0  0
  187.9650  178.1780  138.5120 O   0  0  0  0  0  0  0  0  0  0  0  0
  181.6040  180.4940  138.7110 C   0  0  1  0  0  3  0  0  0  0  0  0
  180.6750  179.9990  137.6060 C   0  0  0  0  0  2  0  0  0  0  0  0
  181.2570  178.7950  136.8830 C   0  0  2  0  0  3  0  0  0  0  0  0
  181.1890  178.9990  135.3800 C   0  0  0  0  0  1  0  0  0  0  0  0
  181.3020  176.5530  137.7020 O   0  0  0  0  0  1  0  0  0  0  0  0
  180.4520  177.5690  137.2640 C   0  0  0  0  0  2  0  0  0  0  0  0
  181.8320  181.9950  138.5850 C   0  0  0  0  0  2  0  0  0  0  0  0
  180.9060  182.5880  137.5310 C   0  0  2  0  0  3  0  0  0  0  0  0
  180.4270  184.5340  137.5760 C   0  0  2  0  0  3  0  0  0  0  0  0
  181.4640  183.7680  137.0110 O   0  0  0  0  0  0  0  0  0  0  0  0
  179.7620  183.3290  138.1720 C   0  0  0  0  0  2  0  0  0  0  0  0
  179.5690  185.1360  136.4750 C   0  0  0  0  0  1  0  0  0  0  0  0
  2  6  1  0  0  0  0
  3  2  2  0  0  0  0
  3  5  1  0  0  0  0
  4 18  2  1  0  0  0
  5 12  1  0  0  0  0
  6  8  2  0  0  0  0
  7 22  1  6  0  0  0
  7  9  1  0  0  0  0
  7 19  1  0  0  0  0
  8  4  1  0  0  0  0
  9 13  1  0  0  0  0
 10 17  2  0  0  0  0
 11  5  2  0  0  0  0
 11 10  1  0  0  0  0
 12  8  1  0  0  0  0
 12  1  2  0  0  0  0
 13 16  1  0  0  0  0
 15 14  1  1  0  0  0
 15  4  1  0  0  0  0
 16 14  1  0  0  0  0
 17  1  1  0  0  0  0
 19  6  1  1  0  0  0
 19 15  1  0  0  0  0
 20 21  1  0  0  0  0
 21 11  1  0  0  0  0
 22 23  1  6  0  0  0
 24 25  1  6  0  0  0
 24 27  1  0  0  0  0
 24 23  1  0  0  0  0
 27 26  1  0  0  0  0
 28 22  1  0  0  0  0
 29 32  1  0  0  0  0
 29 28  1  1  0  0  0
 30 33  1  6  0  0  0
 30 32  1  0  0  0  0
 31 29  1  0  0  0  0
 31 30  1  0  0  0  0
M  END
>  <MODEL>
8

>  <REMARK>
 VINA RESULT:      -5.9      5.208      8.780
  Name = 
  7 active torsions:
  status: ('A' for Active; 'I' for Inactive)
    1  A    between atoms: C_4  and  C_7
    2  A    between atoms: C_4  and  C_10
    3  A    between atoms: C_8  and  C_23
    4  A    between atoms: C_10  and  C_24
    5  A    between atoms: O_16  and  C_22
    6  A    between atoms: C_18  and  C_24
    7  A    between atoms: C_23  and  C_24
                            x       y       z     vdW  Elec       q    Type
                         _______ _______ _______ _____ _____    ______ ____

>  <TORSDO>
F 7

$$$$
=
 OpenBabel11032420293D

 33 37  0  0  1  0  0  0  0  0999 V2000
  187.5530  174.2800  136.7680 C   0  0  0  0  0  3  0  0  0  0  0  0
  184.8720  177.4470  137.4510 C   0  0  0  0  0  3  0  0  0  0  0  0
  186.2500  177.6940  137.4190 C   0  0  0  0  0  3  0  0  0  0  0  0
  184.4790  173.5800  136.7240 S   0  0  2  0  0  0  0  0  0  0  0  0
  187.1540  176.6430  137.2140 C   0  0  0  0  0  0  0  0  0  0  0  0
  184.3880  176.1420  137.3030 C   0  0  0  0  0  0  0  0  0  0  0  0
  182.1360  176.1000  138.5670 C   0  0  1  0  0  3  0  0  0  0  0  0
  185.2740  175.1090  137.0440 C   0  0  0  0  0  0  0  0  0  0  0  0
  180.6150  176.0210  138.3640 C   0  0  0  0  0  2  0  0  0  0  0  0
  189.4170  175.8090  136.9680 C   0  0  0  0  0  3  0  0  0  0  0  0
  188.5400  176.8820  137.2010 C   0  0  0  0  0  0  0  0  0  0  0  0
  186.6600  175.3310  137.0030 C   0  0  0  0  0  0  0  0  0  0  0  0
  180.0090  174.3250  138.0770 S   0  0  0  0  0  0  0  0  0  0  0  0
  181.8240  173.8410  136.0210 C   0  0  0  0  0  2  0  0  0  0  0  0
  182.8470  174.2530  137.0730 C   0  0  2  0  0  3  0  0  0  0  0  0
  180.4330  174.4050  136.3050 C   0  0  0  0  0  2  0  0  0  0  0  0
  188.9270  174.5210  136.7500 C   0  0  0  0  0  3  0  0  0  0  0  0
  184.7750  172.7540  137.9680 O   0  0  0  0  0  0  0  0  0  0  0  0
  182.9230  175.7760  137.2750 C   0  0  2  0  0  3  0  0  0  0  0  0
  189.4300  178.6290  138.7170 C   0  0  0  0  0  1  0  0  0  0  0  0
  189.0290  178.1750  137.4290 O   0  0  0  0  0  0  0  0  0  0  0  0
  182.5500  177.4160  139.2510 C   0  0  1  0  0  3  0  0  0  0  0  0
  181.5160  178.5300  139.1220 C   0  0  0  0  0  2  0  0  0  0  0  0
  181.9210  179.5510  138.0710 C   0  0  2  0  0  3  0  0  0  0  0  0
  181.8520  180.9550  138.6470 C   0  0  0  0  0  1  0  0  0  0  0  0
  181.5560  178.6890  135.8750 O   0  0  0  0  0  1  0  0  0  0  0  0
  180.9700  179.4380  136.8970 C   0  0  0  0  0  2  0  0  0  0  0  0
  182.9010  177.1800  140.7150 C   0  0  0  0  0  2  0  0  0  0  0  0
  183.4420  178.4560  141.3450 C   0  0  2  0  0  3  0  0  0  0  0  0
  183.9400  178.5000  143.2870 C   0  0  2  0  0  3  0  0  0  0  0  0
  184.6000  178.1710  142.0880 O   0  0  0  0  0  0  0  0  0  0  0  0
  182.6590  178.8250  142.5780 C   0  0  0  0  0  2  0  0  0  0  0  0
  184.5560  179.7520  143.8900 C   0  0  0  0  0  1  0  0  0  0  0  0
  1 12  1  0  0  0  0
  3  2  1  0  0  0  0
  4  8  1  0  0  0  0
  4 15  1  0  0  0  0
  4 18  2  1  0  0  0
  5  3  2  0  0  0  0
  6  2  2  0  0  0  0
  7 22  1  6  0  0  0
  8  6  1  0  0  0  0
  9  7  1  0  0  0  0
 10 11  2  0  0  0  0
 11  5  1  0  0  0  0
 11 21  1  0  0  0  0
 12  8  2  0  0  0  0
 12  5  1  0  0  0  0
 13  9  1  0  0  0  0
 14 16  1  0  0  0  0
 15 14  1  6  0  0  0
 15 19  1  0  0  0  0
 16 13  1  0  0  0  0
 17  1  2  0  0  0  0
 17 10  1  0  0  0  0
 19  6  1  1  0  0  0
 19  7  1  0  0  0  0
 21 20  1  0  0  0  0
 22 23  1  1  0  0  0
 22 28  1  0  0  0  0
 24 25  1  1  0  0  0
 24 23  1  0  0  0  0
 26 27  1  0  0  0  0
 27 24  1  0  0  0  0
 29 28  1  1  0  0  0
 29 31  1  0  0  0  0
 29 32  1  0  0  0  0
 30 33  1  6  0  0  0
 31 30  1  0  0  0  0
 32 30  1  0  0  0  0
M  END
>  <MODEL>
9

>  <REMARK>
 VINA RESULT:      -5.8      4.331      8.241
  Name = 
  7 active torsions:
  status: ('A' for Active; 'I' for Inactive)
    1  A    between atoms: C_4  and  C_7
    2  A    between atoms: C_4  and  C_10
    3  A    between atoms: C_8  and  C_23
    4  A    between atoms: C_10  and  C_24
    5  A    between atoms: O_16  and  C_22
    6  A    between atoms: C_18  and  C_24
    7  A    between atoms: C_23  and  C_24
                            x       y       z     vdW  Elec       q    Type
                         _______ _______ _______ _____ _____    ______ ____

>  <TORSDO>
F 7

$$$$
