=
 OpenBabel11042410573D

 56 62  0  0  1  0  0  0  0  0999 V2000
  186.6240  178.1080  139.4590 C   0  0  1  0  0  0  0  0  0  0  0  0
  185.4250  178.6500  138.6130 C   0  0  0  0  0  2  0  0  0  0  0  0
  186.8600  177.1300  144.7920 N   0  0  0  0  0  2  0  0  0  0  0  0
  184.2880  178.9300  139.4750 C   0  0  0  0  0  0  0  0  0  0  0  0
  186.1070  178.3700  140.9170 C   0  0  0  0  0  0  0  0  0  0  0  0
  183.9250  178.9840  141.8220 C   0  0  0  0  0  3  0  0  0  0  0  0
  188.1140  177.3210  144.0450 N   0  0  0  0  0  0  0  0  0  0  0  0
  185.0200  178.3580  145.5650 O   0  0  0  0  0  0  0  0  0  0  0  0
  183.0290  179.0890  139.0960 C   0  0  0  0  0  3  0  0  0  0  0  0
  185.6750  178.4480  143.2370 C   0  0  0  0  0  0  0  0  0  0  0  0
  186.6180  176.6050  139.2020 C   0  0  0  0  0  1  0  0  0  0  0  0
  186.6580  178.2750  142.2230 C   0  0  0  0  0  0  0  0  0  0  0  0
  184.7770  178.8310  140.7730 C   0  0  0  0  0  0  0  0  0  0  0  0
  188.0300  177.8330  142.6240 C   0  0  0  0  0  2  0  0  0  0  0  0
  185.7930  178.0030  144.6540 C   0  0  0  0  0  0  0  0  0  0  0  0
  184.3970  178.7270  143.0330 C   0  0  0  0  0  3  0  0  0  0  0  0
  187.9420  177.6290  135.9980 C   0  0  1  0  0  3  0  0  0  0  0  0
  189.3370  178.5720  138.9360 C   0  0  0  0  0  2  0  0  0  0  0  0
  190.6370  176.2980  137.3030 C   0  0  0  0  0  2  0  0  0  0  0  0
  191.0760  176.8890  139.7790 C   0  0  0  0  0  3  0  0  0  0  0  0
  189.7510  177.5740  140.0920 C   0  0  0  0  0  2  0  0  0  0  0  0
  187.7570  178.8120  137.0570 C   0  0  0  0  0  0  0  0  0  0  0  0
  191.4330  176.3160  138.5890 C   0  0  0  0  0  3  0  0  0  0  0  0
  188.2030  176.1240  136.3760 C   0  0  0  0  0  2  0  0  0  0  0  0
  189.1410  175.8510  137.5930 C   0  0  0  0  0  2  0  0  0  0  0  0
  187.7960  178.8100  138.6580 C   0  0  1  0  0  3  0  0  0  0  0  0
  187.5640  179.9520  136.5930 O   0  0  0  0  0  0  0  0  0  0  0  0
  186.8650  177.6040  134.8610 C   0  0  0  0  0  2  0  0  0  0  0  0
  185.4930  177.5000  135.5070 C   0  0  0  0  0  2  0  0  0  0  0  0
  184.3450  177.1670  134.5940 C   0  0  0  0  0  1  0  0  0  0  0  0
  190.6000  177.1250  144.1770 C   0  0  0  0  0  3  0  0  0  0  0  0
  190.2030  176.6570  146.9530 C   0  0  0  0  0  3  0  0  0  0  0  0
  191.4630  176.5180  146.4150 C   0  0  0  0  0  0  0  0  0  0  0  0
  191.6570  176.7960  145.0370 C   0  0  0  0  0  3  0  0  0  0  0  0
  189.1520  176.9930  146.1090 C   0  0  0  0  0  3  0  0  0  0  0  0
  189.3000  177.1790  144.7480 C   0  0  0  0  0  0  0  0  0  0  0  0
  192.5770  175.9000  147.1990 C   0  0  0  0  0  2  0  0  0  0  0  0
  192.4290  177.6790  148.8300 O   0  0  0  0  0  1  0  0  0  0  0  0
  193.3670  175.4820  149.9330 C   0  0  0  0  0  1  0  0  0  0  0  0
  192.4250  176.3040  148.7670 C   0  0  2  0  0  3  0  0  0  0  0  0
  181.3720  178.8650  137.3370 C   0  0  1  0  0  3  0  0  0  0  0  0
  182.1780  177.7130  137.3740 O   0  0  0  0  0  0  0  0  0  0  0  0
  182.7670  179.0570  137.6690 C   0  0  2  0  0  3  0  0  0  0  0  0
  181.0320  179.2000  135.9560 C   0  0  0  0  0  2  0  0  0  0  0  0
  179.8930  180.2070  135.6740 C   0  0  2  0  0  3  0  0  0  0  0  0
  178.9700  178.1740  134.7830 O   0  0  0  0  0  1  0  0  0  0  0  0
  178.9490  179.5340  134.6080 C   0  0  0  0  0  2  0  0  0  0  0  0
  180.5820  181.4960  135.2600 C   0  0  0  0  0  2  0  0  0  0  0  0
  180.6600  183.4110  136.9210 C   0  0  2  0  0  3  0  0  0  0  0  0
  179.4070  184.7540  134.9330 C   0  0  0  0  0  2  0  0  0  0  0  0
  180.0760  184.7690  137.3570 C   0  0  0  0  0  2  0  0  0  0  0  0
  179.2980  183.3650  134.7720 O   0  0  0  0  0  0  0  0  0  0  0  0
  179.0590  185.2200  136.3480 C   0  0  0  0  0  2  0  0  0  0  0  0
  179.8610  182.6400  135.8590 C   0  0  1  0  0  3  0  0  0  0  0  0
  181.3900  182.6560  137.8540 O   0  0  0  0  0  0  0  0  0  0  0  0
  180.4200  182.1420  138.7310 C   0  0  0  0  0  1  0  0  0  0  0  0
  1 11  1  6  0  0  0
  1  5  1  0  0  0  0
  2  1  1  0  0  0  0
  2  4  1  0  0  0  0
  4 13  1  0  0  0  0
  5 12  1  0  0  0  0
  6 16  2  0  0  0  0
  7 36  1  0  0  0  0
  7  3  1  0  0  0  0
  9  4  2  0  0  0  0
 10 15  1  0  0  0  0
 12 14  1  0  0  0  0
 12 10  2  0  0  0  0
 13  5  2  0  0  0  0
 13  6  1  0  0  0  0
 14  7  1  0  0  0  0
 15  3  1  0  0  0  0
 15  8  2  0  0  0  0
 16 10  1  0  0  0  0
 17 28  1  1  0  0  0
 17 24  1  0  0  0  0
 17 22  1  0  0  0  0
 18 21  1  0  0  0  0
 19 25  1  0  0  0  0
 19 23  1  0  0  0  0
 20 21  1  0  0  0  0
 22 26  1  0  0  0  0
 23 20  2  0  0  0  0
 24 25  1  0  0  0  0
 26 18  1  6  0  0  0
 26  1  1  0  0  0  0
 27 22  2  0  0  0  0
 28 29  1  0  0  0  0
 30 29  1  0  0  0  0
 31 36  2  0  0  0  0
 31 34  1  0  0  0  0
 33 32  1  0  0  0  0
 33 37  1  0  0  0  0
 34 33  2  0  0  0  0
 35 32  2  0  0  0  0
 36 35  1  0  0  0  0
 37 40  1  0  0  0  0
 40 38  1  0  0  0  0
 40 39  1  1  0  0  0
 41 44  1  6  0  0  0
 41 42  1  0  0  0  0
 41 43  1  0  0  0  0
 42 43  1  0  0  0  0
 43  9  1  1  0  0  0
 45 47  1  6  0  0  0
 45 44  1  0  0  0  0
 47 46  1  0  0  0  0
 48 45  1  0  0  0  0
 49 51  1  0  0  0  0
 49 55  1  1  0  0  0
 50 53  1  0  0  0  0
 52 50  1  0  0  0  0
 52 54  1  0  0  0  0
 53 51  1  0  0  0  0
 54 48  1  6  0  0  0
 54 49  1  0  0  0  0
 55 56  1  0  0  0  0
M  END
>  <MODEL>
1

>  <REMARK>
 VINA RESULT:      -6.2      0.000      0.000
  Name = 
  13 active torsions:
  status: ('A' for Active; 'I' for Inactive)
    1  A    between atoms: C_1  and  O_45
    2  A    between atoms: C_2  and  C_47
    3  A    between atoms: C_3  and  C_31
    4  A    between atoms: C_5  and  C_31
    5  A    between atoms: C_7  and  C_30
    6  A    between atoms: C_18  and  C_37
    7  A    between atoms: C_19  and  C_36
    8  A    between atoms: C_19  and  C_39
    9  A    between atoms: C_23  and  C_32
   10  A    between atoms: C_23  and  C_56
   11  A    between atoms: N_28  and  C_44
   12  A    between atoms: C_30  and  C_32
   13  A    between atoms: C_32  and  C_46
                            x       y       z     vdW  Elec       q    Type
                         _______ _______ _______ _____ _____    ______ ____

>  <TORSDO>
F 13

$$$$
=
 OpenBabel11042410573D

 56 62  0  0  1  0  0  0  0  0999 V2000
  188.6870  177.5650  136.6720 C   0  0  1  0  0  0  0  0  0  0  0  0
  190.1220  176.9900  136.9120 C   0  0  0  0  0  2  0  0  0  0  0  0
  185.1460  179.5050  140.2990 N   0  0  0  0  0  2  0  0  0  0  0  0
  190.4300  176.9880  138.3320 C   0  0  0  0  0  0  0  0  0  0  0  0
  188.1400  177.6340  138.1410 C   0  0  0  0  0  0  0  0  0  0  0  0
  189.2090  177.4140  140.3240 C   0  0  0  0  0  3  0  0  0  0  0  0
  184.6510  179.0580  138.9870 N   0  0  0  0  0  0  0  0  0  0  0  0
  186.0070  178.6280  142.2940 O   0  0  0  0  0  0  0  0  0  0  0  0
  191.6320  176.8820  138.8790 C   0  0  0  0  0  3  0  0  0  0  0  0
  186.9860  178.0380  140.1610 C   0  0  0  0  0  0  0  0  0  0  0  0
  188.9280  178.9850  136.1740 C   0  0  0  0  0  1  0  0  0  0  0  0
  186.8870  177.9200  138.7470 C   0  0  0  0  0  0  0  0  0  0  0  0
  189.2320  177.2840  138.9700 C   0  0  0  0  0  0  0  0  0  0  0  0
  185.5990  178.2970  138.0860 C   0  0  0  0  0  2  0  0  0  0  0  0
  186.0120  178.7280  141.0510 C   0  0  0  0  0  0  0  0  0  0  0  0
  188.0850  177.8500  140.8760 C   0  0  0  0  0  3  0  0  0  0  0  0
  187.0130  174.2270  136.5850 C   0  0  1  0  0  3  0  0  0  0  0  0
  189.2800  175.7730  134.6000 C   0  0  0  0  0  2  0  0  0  0  0  0
  189.8610  172.9210  135.6290 C   0  0  0  0  0  2  0  0  0  0  0  0
  191.5480  174.5810  134.5940 C   0  0  0  0  0  3  0  0  0  0  0  0
  190.8250  175.8820  134.9230 C   0  0  0  0  0  2  0  0  0  0  0  0
  187.0820  175.5570  135.7000 C   0  0  0  0  0  0  0  0  0  0  0  0
  191.1430  173.3190  134.9300 C   0  0  0  0  0  3  0  0  0  0  0  0
  188.1890  173.6870  137.4810 C   0  0  0  0  0  2  0  0  0  0  0  0
  189.6350  173.8290  136.9120 C   0  0  0  0  0  2  0  0  0  0  0  0
  188.2640  176.6150  135.4770 C   0  0  1  0  0  3  0  0  0  0  0  0
  186.0640  175.8430  135.0410 O   0  0  0  0  0  0  0  0  0  0  0  0
  185.7170  174.0970  137.4570 C   0  0  0  0  0  2  0  0  0  0  0  0
  184.7280  173.2170  136.7110 C   0  0  0  0  0  2  0  0  0  0  0  0
  185.3080  172.2630  135.7020 C   0  0  0  0  0  1  0  0  0  0  0  0
  182.3980  178.1780  138.3650 C   0  0  0  0  0  3  0  0  0  0  0  0
  181.5720  180.8990  138.3620 C   0  0  0  0  0  3  0  0  0  0  0  0
  180.7030  179.9250  137.9250 C   0  0  0  0  0  0  0  0  0  0  0  0
  181.1100  178.5660  137.9720 C   0  0  0  0  0  3  0  0  0  0  0  0
  182.8480  180.5210  138.7630 C   0  0  0  0  0  3  0  0  0  0  0  0
  183.2980  179.2150  138.7310 C   0  0  0  0  0  0  0  0  0  0  0  0
  179.4270  180.2810  137.2300 C   0  0  0  0  0  2  0  0  0  0  0  0
  180.6020  179.9390  135.1450 O   0  0  0  0  0  1  0  0  0  0  0  0
  180.1590  182.5010  135.5530 C   0  0  0  0  0  1  0  0  0  0  0  0
  179.7610  180.8490  135.7430 C   0  0  2  0  0  3  0  0  0  0  0  0
  193.3580  175.3640  138.1010 C   0  0  1  0  0  3  0  0  0  0  0  0
  193.9470  176.4130  138.8310 O   0  0  0  0  0  0  0  0  0  0  0  0
  192.7460  176.6690  137.9750 C   0  0  2  0  0  3  0  0  0  0  0  0
  194.2120  174.9900  136.9760 C   0  0  0  0  0  2  0  0  0  0  0  0
  195.0300  173.6790  137.0430 C   0  0  2  0  0  3  0  0  0  0  0  0
  194.3620  171.3840  136.7830 O   0  0  0  0  0  1  0  0  0  0  0  0
  194.2460  172.6140  136.1880 C   0  0  0  0  0  2  0  0  0  0  0  0
  195.1970  173.3780  138.5220 C   0  0  0  0  0  2  0  0  0  0  0  0
  197.5890  173.7060  137.7430 C   0  0  2  0  0  3  0  0  0  0  0  0
  197.5670  175.6940  139.5780 C   0  0  0  0  0  2  0  0  0  0  0  0
  198.9840  174.2780  138.0590 C   0  0  0  0  0  2  0  0  0  0  0  0
  196.5410  174.7670  139.8060 O   0  0  0  0  0  0  0  0  0  0  0  0
  198.9300  175.0350  139.3540 C   0  0  0  0  0  2  0  0  0  0  0  0
  196.5960  173.6580  138.9140 C   0  0  1  0  0  3  0  0  0  0  0  0
  197.4700  172.7140  136.7560 O   0  0  0  0  0  0  0  0  0  0  0  0
  198.7930  172.3180  136.4910 C   0  0  0  0  0  1  0  0  0  0  0  0
  1 11  1  6  0  0  0
  1  2  1  0  0  0  0
  1  5  1  0  0  0  0
  2  4  1  0  0  0  0
  3 15  1  0  0  0  0
  4  9  2  0  0  0  0
  4 13  1  0  0  0  0
  5 12  2  0  0  0  0
  5 13  1  0  0  0  0
  6 16  1  0  0  0  0
  7  3  1  0  0  0  0
 10 16  2  0  0  0  0
 10 15  1  0  0  0  0
 12 10  1  0  0  0  0
 13  6  2  0  0  0  0
 14 12  1  0  0  0  0
 14  7  1  0  0  0  0
 15  8  2  0  0  0  0
 17 28  1  1  0  0  0
 17 24  1  0  0  0  0
 18 21  1  0  0  0  0
 19 25  1  0  0  0  0
 20 21  1  0  0  0  0
 20 23  2  0  0  0  0
 22 17  1  0  0  0  0
 23 19  1  0  0  0  0
 25 24  1  0  0  0  0
 26 18  1  1  0  0  0
 26 22  1  0  0  0  0
 26  1  1  0  0  0  0
 27 22  2  0  0  0  0
 29 28  1  0  0  0  0
 30 29  1  0  0  0  0
 31 36  1  0  0  0  0
 32 35  1  0  0  0  0
 33 34  1  0  0  0  0
 33 32  2  0  0  0  0
 34 31  2  0  0  0  0
 36 35  2  0  0  0  0
 36  7  1  0  0  0  0
 37 33  1  0  0  0  0
 38 40  1  0  0  0  0
 40 39  1  1  0  0  0
 40 37  1  0  0  0  0
 41 44  1  6  0  0  0
 41 42  1  0  0  0  0
 43 41  1  0  0  0  0
 43 42  1  0  0  0  0
 43  9  1  1  0  0  0
 44 45  1  0  0  0  0
 45 47  1  6  0  0  0
 45 48  1  0  0  0  0
 47 46  1  0  0  0  0
 49 55  1  1  0  0  0
 49 51  1  0  0  0  0
 49 54  1  0  0  0  0
 50 52  1  0  0  0  0
 51 53  1  0  0  0  0
 53 50  1  0  0  0  0
 54 48  1  6  0  0  0
 54 52  1  0  0  0  0
 56 55  1  0  0  0  0
M  END
>  <MODEL>
2

>  <REMARK>
 VINA RESULT:      -6.1      4.424     11.946
  Name = 
  13 active torsions:
  status: ('A' for Active; 'I' for Inactive)
    1  A    between atoms: C_1  and  O_45
    2  A    between atoms: C_2  and  C_47
    3  A    between atoms: C_3  and  C_31
    4  A    between atoms: C_5  and  C_31
    5  A    between atoms: C_7  and  C_30
    6  A    between atoms: C_18  and  C_37
    7  A    between atoms: C_19  and  C_36
    8  A    between atoms: C_19  and  C_39
    9  A    between atoms: C_23  and  C_32
   10  A    between atoms: C_23  and  C_56
   11  A    between atoms: N_28  and  C_44
   12  A    between atoms: C_30  and  C_32
   13  A    between atoms: C_32  and  C_46
                            x       y       z     vdW  Elec       q    Type
                         _______ _______ _______ _____ _____    ______ ____

>  <TORSDO>
F 13

$$$$
=
 OpenBabel11042410573D

 56 62  0  0  1  0  0  0  0  0999 V2000
  188.4360  177.5210  136.5860 C   0  0  1  0  0  0  0  0  0  0  0  0
  189.8880  176.9390  136.6240 C   0  0  0  0  0  2  0  0  0  0  0  0
  185.3990  179.3670  140.6870 N   0  0  0  0  0  2  0  0  0  0  0  0
  190.3760  176.8970  137.9930 C   0  0  0  0  0  0  0  0  0  0  0  0
  188.0820  177.5510  138.1140 C   0  0  0  0  0  0  0  0  0  0  0  0
  189.4210  177.2700  140.1360 C   0  0  0  0  0  3  0  0  0  0  0  0
  184.7380  178.9560  139.4390 N   0  0  0  0  0  0  0  0  0  0  0  0
  186.5040  178.4340  142.5320 O   0  0  0  0  0  0  0  0  0  0  0  0
  191.6370  176.7750  138.3780 C   0  0  0  0  0  3  0  0  0  0  0  0
  187.1990  177.9010  140.2750 C   0  0  0  0  0  0  0  0  0  0  0  0
  188.6190  178.9550  136.1000 C   0  0  0  0  0  1  0  0  0  0  0  0
  186.9200  177.8220  138.8830 C   0  0  0  0  0  0  0  0  0  0  0  0
  189.2700  177.1770  138.7870 C   0  0  0  0  0  0  0  0  0  0  0  0
  185.5590  178.2190  138.4030 C   0  0  0  0  0  2  0  0  0  0  0  0
  186.3510  178.5680  141.3020 C   0  0  0  0  0  0  0  0  0  0  0  0
  188.3790  177.6920  140.8380 C   0  0  0  0  0  3  0  0  0  0  0  0
  186.2330  174.5060  136.6310 C   0  0  1  0  0  3  0  0  0  0  0  0
  188.7210  175.5720  134.5940 C   0  0  0  0  0  2  0  0  0  0  0  0
  188.8250  172.7080  135.7430 C   0  0  0  0  0  2  0  0  0  0  0  0
  190.7600  174.0220  134.6470 C   0  0  0  0  0  3  0  0  0  0  0  0
  190.2630  175.4370  134.9180 C   0  0  0  0  0  2  0  0  0  0  0  0
  186.5200  175.7680  135.6910 C   0  0  0  0  0  0  0  0  0  0  0  0
  190.1520  172.8590  135.0330 C   0  0  0  0  0  3  0  0  0  0  0  0
  187.3060  173.8170  137.5530 C   0  0  0  0  0  2  0  0  0  0  0  0
  188.7550  173.6940  136.9850 C   0  0  0  0  0  2  0  0  0  0  0  0
  187.8600  176.6050  135.4300 C   0  0  1  0  0  3  0  0  0  0  0  0
  185.5620  176.1900  135.0160 O   0  0  0  0  0  0  0  0  0  0  0  0
  184.9360  174.6290  137.5010 C   0  0  0  0  0  2  0  0  0  0  0  0
  184.0140  173.4750  137.1450 C   0  0  0  0  0  2  0  0  0  0  0  0
  183.8170  173.2020  135.6790 C   0  0  0  0  0  1  0  0  0  0  0  0
  182.6950  180.2990  138.9330 C   0  0  0  0  0  3  0  0  0  0  0  0
  181.2440  178.1020  140.0050 C   0  0  0  0  0  3  0  0  0  0  0  0
  180.5760  179.2580  139.6730 C   0  0  0  0  0  0  0  0  0  0  0  0
  181.3030  180.3340  139.0990 C   0  0  0  0  0  3  0  0  0  0  0  0
  182.6220  178.0560  139.8330 C   0  0  0  0  0  3  0  0  0  0  0  0
  183.3640  179.1220  139.3620 C   0  0  0  0  0  0  0  0  0  0  0  0
  179.1520  179.4750  140.0800 C   0  0  0  0  0  2  0  0  0  0  0  0
  179.7260  181.0540  141.8190 O   0  0  0  0  0  1  0  0  0  0  0  0
  179.4590  178.6310  142.8120 C   0  0  0  0  0  1  0  0  0  0  0  0
  179.0910  179.8420  141.6630 C   0  0  2  0  0  3  0  0  0  0  0  0
  193.3510  175.3370  137.4370 C   0  0  1  0  0  3  0  0  0  0  0  0
  193.9520  176.4700  138.0170 O   0  0  0  0  0  0  0  0  0  0  0  0
  192.6250  176.5850  137.3330 C   0  0  2  0  0  3  0  0  0  0  0  0
  194.0640  174.9550  136.2200 C   0  0  0  0  0  2  0  0  0  0  0  0
  195.1360  173.8410  136.2830 C   0  0  2  0  0  3  0  0  0  0  0  0
  195.5690  171.7460  135.1870 O   0  0  0  0  0  1  0  0  0  0  0  0
  194.9310  172.9460  135.0030 C   0  0  0  0  0  2  0  0  0  0  0  0
  194.9410  173.1640  137.6280 C   0  0  0  0  0  2  0  0  0  0  0  0
  197.2210  174.2590  137.8120 C   0  0  2  0  0  3  0  0  0  0  0  0
  196.2100  175.2190  140.1310 C   0  0  0  0  0  2  0  0  0  0  0  0
  198.2760  174.9040  138.7320 C   0  0  0  0  0  2  0  0  0  0  0  0
  195.4960  174.1020  139.6760 O   0  0  0  0  0  0  0  0  0  0  0  0
  197.7250  175.0030  140.1260 C   0  0  0  0  0  2  0  0  0  0  0  0
  196.0730  173.5180  138.5120 C   0  0  1  0  0  3  0  0  0  0  0  0
  197.6210  173.7860  136.5510 O   0  0  0  0  0  0  0  0  0  0  0  0
  198.4890  172.7180  136.8320 C   0  0  0  0  0  1  0  0  0  0  0  0
  1 11  1  6  0  0  0
  1  2  1  0  0  0  0
  1  5  1  0  0  0  0
  2  4  1  0  0  0  0
  3 15  1  0  0  0  0
  4  9  2  0  0  0  0
  4 13  1  0  0  0  0
  5 13  2  0  0  0  0
  5 12  1  0  0  0  0
  6 16  2  0  0  0  0
  7  3  1  0  0  0  0
 10 16  1  0  0  0  0
 10 15  1  0  0  0  0
 12 10  2  0  0  0  0
 13  6  1  0  0  0  0
 14 12  1  0  0  0  0
 14  7  1  0  0  0  0
 15  8  2  0  0  0  0
 17 28  1  1  0  0  0
 17 24  1  0  0  0  0
 18 21  1  0  0  0  0
 19 25  1  0  0  0  0
 20 21  1  0  0  0  0
 20 23  2  0  0  0  0
 22 17  1  0  0  0  0
 23 19  1  0  0  0  0
 25 24  1  0  0  0  0
 26 18  1  1  0  0  0
 26 22  1  0  0  0  0
 26  1  1  0  0  0  0
 27 22  2  0  0  0  0
 29 28  1  0  0  0  0
 30 29  1  0  0  0  0
 31 34  2  0  0  0  0
 31 36  1  0  0  0  0
 33 32  2  0  0  0  0
 33 37  1  0  0  0  0
 34 33  1  0  0  0  0
 35 32  1  0  0  0  0
 36  7  1  0  0  0  0
 36 35  2  0  0  0  0
 37 40  1  0  0  0  0
 40 38  1  0  0  0  0
 40 39  1  1  0  0  0
 41 44  1  6  0  0  0
 41 42  1  0  0  0  0
 43 41  1  0  0  0  0
 43 42  1  0  0  0  0
 43  9  1  1  0  0  0
 44 45  1  0  0  0  0
 45 47  1  6  0  0  0
 45 48  1  0  0  0  0
 47 46  1  0  0  0  0
 49 55  1  6  0  0  0
 49 54  1  0  0  0  0
 49 51  1  0  0  0  0
 51 53  1  0  0  0  0
 52 50  1  0  0  0  0
 53 50  1  0  0  0  0
 54 48  1  6  0  0  0
 54 52  1  0  0  0  0
 55 56  1  0  0  0  0
M  END
>  <MODEL>
3

>  <REMARK>
 VINA RESULT:      -6.1      4.441     11.379
  Name = 
  13 active torsions:
  status: ('A' for Active; 'I' for Inactive)
    1  A    between atoms: C_1  and  O_45
    2  A    between atoms: C_2  and  C_47
    3  A    between atoms: C_3  and  C_31
    4  A    between atoms: C_5  and  C_31
    5  A    between atoms: C_7  and  C_30
    6  A    between atoms: C_18  and  C_37
    7  A    between atoms: C_19  and  C_36
    8  A    between atoms: C_19  and  C_39
    9  A    between atoms: C_23  and  C_32
   10  A    between atoms: C_23  and  C_56
   11  A    between atoms: N_28  and  C_44
   12  A    between atoms: C_30  and  C_32
   13  A    between atoms: C_32  and  C_46
                            x       y       z     vdW  Elec       q    Type
                         _______ _______ _______ _____ _____    ______ ____

>  <TORSDO>
F 13

$$$$
=
 OpenBabel11042410573D

 56 62  0  0  1  0  0  0  0  0999 V2000
  186.4770  177.1830  136.1080 C   0  0  1  0  0  0  0  0  0  0  0  0
  185.0220  177.3980  136.6420 C   0  0  0  0  0  2  0  0  0  0  0  0
  189.1870  172.5370  135.3870 N   0  0  0  0  0  2  0  0  0  0  0  0
  184.4240  176.1210  136.9970 C   0  0  0  0  0  0  0  0  0  0  0  0
  186.7060  175.6710  136.4560 C   0  0  0  0  0  0  0  0  0  0  0  0
  185.2050  173.8850  137.1770 C   0  0  0  0  0  3  0  0  0  0  0  0
  189.9440  173.7940  135.5050 N   0  0  0  0  0  0  0  0  0  0  0  0
  187.9280  171.0630  136.7050 O   0  0  0  0  0  0  0  0  0  0  0  0
  183.1350  175.8750  137.1730 C   0  0  0  0  0  3  0  0  0  0  0  0
  187.4140  173.4280  136.6610 C   0  0  0  0  0  0  0  0  0  0  0  0
  186.3470  177.3210  134.5950 C   0  0  0  0  0  1  0  0  0  0  0  0
  187.8050  174.7720  136.4100 C   0  0  0  0  0  0  0  0  0  0  0  0
  185.4640  175.2010  136.9470 C   0  0  0  0  0  0  0  0  0  0  0  0
  189.2030  175.0360  135.9480 C   0  0  0  0  0  2  0  0  0  0  0  0
  188.1820  172.2090  136.2830 C   0  0  0  0  0  0  0  0  0  0  0  0
  186.1900  173.0240  136.9660 C   0  0  0  0  0  3  0  0  0  0  0  0
  189.5740  177.6970  138.1310 C   0  0  1  0  0  3  0  0  0  0  0  0
  186.5680  179.2530  137.9940 C   0  0  0  0  0  2  0  0  0  0  0  0
  187.6710  178.3230  140.7230 C   0  0  0  0  0  2  0  0  0  0  0  0
  185.2430  179.0140  140.1740 C   0  0  0  0  0  3  0  0  0  0  0  0
  185.2490  178.7130  138.6800 C   0  0  0  0  0  2  0  0  0  0  0  0
  188.7090  178.4850  137.0390 C   0  0  0  0  0  0  0  0  0  0  0  0
  186.2760  178.8120  141.0470 C   0  0  0  0  0  3  0  0  0  0  0  0
  188.9810  176.6800  139.1750 C   0  0  0  0  0  2  0  0  0  0  0  0
  187.5950  177.0330  139.8000 C   0  0  0  0  0  2  0  0  0  0  0  0
  187.1370  178.4790  136.7350 C   0  0  1  0  0  3  0  0  0  0  0  0
  189.3310  179.2610  136.2890 O   0  0  0  0  0  0  0  0  0  0  0  0
  190.8700  177.0240  137.5650 C   0  0  0  0  0  2  0  0  0  0  0  0
  191.6470  176.4340  138.7310 C   0  0  0  0  0  2  0  0  0  0  0  0
  193.1190  176.7390  138.7780 C   0  0  0  0  0  1  0  0  0  0  0  0
  192.0790  172.5280  135.2350 C   0  0  0  0  0  3  0  0  0  0  0  0
  193.3610  175.0510  135.5050 C   0  0  0  0  0  3  0  0  0  0  0  0
  194.1220  173.9050  135.4630 C   0  0  0  0  0  0  0  0  0  0  0  0
  193.4740  172.6540  135.2860 C   0  0  0  0  0  3  0  0  0  0  0  0
  191.9780  174.9340  135.4450 C   0  0  0  0  0  3  0  0  0  0  0  0
  191.3210  173.7220  135.3630 C   0  0  0  0  0  0  0  0  0  0  0  0
  195.5810  173.9300  135.7940 C   0  0  0  0  0  2  0  0  0  0  0  0
  196.9720  175.2430  137.2740 O   0  0  0  0  0  1  0  0  0  0  0  0
  195.5080  173.5370  138.6420 C   0  0  0  0  0  1  0  0  0  0  0  0
  195.7880  174.5410  137.2870 C   0  0  2  0  0  3  0  0  0  0  0  0
  181.1950  177.0120  138.0870 C   0  0  1  0  0  3  0  0  0  0  0  0
  180.8660  176.4450  136.8410 O   0  0  0  0  0  0  0  0  0  0  0  0
  182.2330  177.0080  137.0790 C   0  0  2  0  0  3  0  0  0  0  0  0
  180.5220  178.2990  138.2490 C   0  0  0  0  0  2  0  0  0  0  0  0
  180.8510  179.1810  139.4770 C   0  0  2  0  0  3  0  0  0  0  0  0
  181.5690  180.4430  137.5610 O   0  0  0  0  0  1  0  0  0  0  0  0
  181.6160  180.4450  138.9310 C   0  0  0  0  0  2  0  0  0  0  0  0
  181.6140  178.2810  140.4320 C   0  0  0  0  0  2  0  0  0  0  0  0
  181.6870  178.9140  142.8880 C   0  0  2  0  0  3  0  0  0  0  0  0
  179.0950  179.5650  142.4590 C   0  0  0  0  0  2  0  0  0  0  0  0
  180.8880  179.1780  144.1790 C   0  0  0  0  0  2  0  0  0  0  0  0
  179.5820  178.6950  141.4730 O   0  0  0  0  0  0  0  0  0  0  0  0
  179.4190  179.0980  143.8800 C   0  0  0  0  0  2  0  0  0  0  0  0
  180.9120  178.2590  141.7340 C   0  0  1  0  0  3  0  0  0  0  0  0
  183.0600  178.6330  142.9850 O   0  0  0  0  0  0  0  0  0  0  0  0
  183.4990  179.3900  144.0840 C   0  0  0  0  0  1  0  0  0  0  0  0
  1 11  1  6  0  0  0
  1  5  1  0  0  0  0
  1  2  1  0  0  0  0
  1 26  1  0  0  0  0
  2  4  1  0  0  0  0
  3  7  1  0  0  0  0
  3 15  1  0  0  0  0
  4  9  2  0  0  0  0
  5 13  1  0  0  0  0
  7 14  1  0  0  0  0
 10 16  2  0  0  0  0
 12  5  2  0  0  0  0
 12 10  1  0  0  0  0
 13  4  1  0  0  0  0
 13  6  2  0  0  0  0
 14 12  1  0  0  0  0
 15 10  1  0  0  0  0
 15  8  2  0  0  0  0
 16  6  1  0  0  0  0
 17 28  1  6  0  0  0
 17 24  1  0  0  0  0
 18 21  1  0  0  0  0
 19 23  1  0  0  0  0
 20 23  2  0  0  0  0
 21 20  1  0  0  0  0
 22 17  1  0  0  0  0
 24 25  1  0  0  0  0
 25 19  1  0  0  0  0
 26 22  1  0  0  0  0
 26 18  1  1  0  0  0
 27 22  2  0  0  0  0
 28 29  1  0  0  0  0
 29 30  1  0  0  0  0
 31 34  2  0  0  0  0
 31 36  1  0  0  0  0
 33 32  2  0  0  0  0
 33 37  1  0  0  0  0
 34 33  1  0  0  0  0
 35 32  1  0  0  0  0
 36 35  2  0  0  0  0
 36  7  1  0  0  0  0
 37 40  1  0  0  0  0
 38 40  1  0  0  0  0
 40 39  1  1  0  0  0
 41 44  1  6  0  0  0
 42 43  1  0  0  0  0
 42 41  1  0  0  0  0
 43  9  1  1  0  0  0
 43 41  1  0  0  0  0
 45 44  1  6  0  0  0
 45 48  1  0  0  0  0
 46 47  1  0  0  0  0
 47 45  1  0  0  0  0
 49 55  1  1  0  0  0
 49 51  1  0  0  0  0
 50 53  1  0  0  0  0
 52 54  1  0  0  0  0
 52 50  1  0  0  0  0
 53 51  1  0  0  0  0
 54 48  1  6  0  0  0
 54 49  1  0  0  0  0
 55 56  1  0  0  0  0
M  END
>  <MODEL>
4

>  <REMARK>
 VINA RESULT:      -5.5      4.473      7.517
  Name = 
  13 active torsions:
  status: ('A' for Active; 'I' for Inactive)
    1  A    between atoms: C_1  and  O_45
    2  A    between atoms: C_2  and  C_47
    3  A    between atoms: C_3  and  C_31
    4  A    between atoms: C_5  and  C_31
    5  A    between atoms: C_7  and  C_30
    6  A    between atoms: C_18  and  C_37
    7  A    between atoms: C_19  and  C_36
    8  A    between atoms: C_19  and  C_39
    9  A    between atoms: C_23  and  C_32
   10  A    between atoms: C_23  and  C_56
   11  A    between atoms: N_28  and  C_44
   12  A    between atoms: C_30  and  C_32
   13  A    between atoms: C_32  and  C_46
                            x       y       z     vdW  Elec       q    Type
                         _______ _______ _______ _____ _____    ______ ____

>  <TORSDO>
F 13

$$$$
=
 OpenBabel11042410573D

 56 62  0  0  1  0  0  0  0  0999 V2000
  189.1600  177.3270  139.8170 C   0  0  1  0  0  0  0  0  0  0  0  0
  190.6430  177.2150  139.3320 C   0  0  0  0  0  2  0  0  0  0  0  0
  184.5980  177.1830  136.8820 N   0  0  0  0  0  2  0  0  0  0  0  0
  190.6900  177.0990  137.8840 C   0  0  0  0  0  0  0  0  0  0  0  0
  188.4100  177.5230  138.4530 C   0  0  0  0  0  0  0  0  0  0  0  0
  189.1030  177.2770  136.1250 C   0  0  0  0  0  3  0  0  0  0  0  0
  184.5650  177.7870  138.2230 N   0  0  0  0  0  0  0  0  0  0  0  0
  185.4230  177.6170  134.7310 O   0  0  0  0  0  0  0  0  0  0  0  0
  191.7130  176.6720  137.1590 C   0  0  0  0  0  3  0  0  0  0  0  0
  186.8890  177.6920  136.6550 C   0  0  0  0  0  0  0  0  0  0  0  0
  188.8350  175.9390  140.3580 C   0  0  0  0  0  1  0  0  0  0  0  0
  187.0790  177.8230  138.0590 C   0  0  0  0  0  0  0  0  0  0  0  0
  189.3970  177.3670  137.4510 C   0  0  0  0  0  0  0  0  0  0  0  0
  185.8800  178.0430  138.9260 C   0  0  0  0  0  2  0  0  0  0  0  0
  185.5830  177.5100  135.9630 C   0  0  0  0  0  0  0  0  0  0  0  0
  187.8300  177.3860  135.7750 C   0  0  0  0  0  3  0  0  0  0  0  0
  190.2070  176.8630  143.3720 C   0  0  1  0  0  3  0  0  0  0  0  0
  188.2290  179.1020  141.7760 C   0  0  0  0  0  2  0  0  0  0  0  0
  187.1590  177.6490  144.2810 C   0  0  0  0  0  2  0  0  0  0  0  0
  185.7840  178.9580  142.5290 C   0  0  0  0  0  3  0  0  0  0  0  0
  186.7330  178.8250  141.3430 C   0  0  0  0  0  2  0  0  0  0  0  0
  190.3660  177.9470  142.2070 C   0  0  0  0  0  0  0  0  0  0  0  0
  185.9610  178.4230  143.7740 C   0  0  0  0  0  3  0  0  0  0  0  0
  188.9640  175.9130  143.5450 C   0  0  0  0  0  2  0  0  0  0  0  0
  187.5600  176.5210  143.2380 C   0  0  0  0  0  2  0  0  0  0  0  0
  189.3910  178.3510  141.0030 C   0  0  1  0  0  3  0  0  0  0  0  0
  191.4110  178.6260  142.2150 O   0  0  0  0  0  0  0  0  0  0  0  0
  191.4690  175.9620  143.5940 C   0  0  0  0  0  2  0  0  0  0  0  0
  191.6940  175.8170  145.0890 C   0  0  0  0  0  2  0  0  0  0  0  0
  191.4440  177.0420  145.9260 C   0  0  0  0  0  1  0  0  0  0  0  0
  182.9130  179.5920  138.7230 C   0  0  0  0  0  3  0  0  0  0  0  0
  181.3440  177.5360  139.9030 C   0  0  0  0  0  3  0  0  0  0  0  0
  180.9450  178.8480  140.0250 C   0  0  0  0  0  0  0  0  0  0  0  0
  181.7130  179.8630  139.3960 C   0  0  0  0  0  3  0  0  0  0  0  0
  182.5270  177.2600  139.2290 C   0  0  0  0  0  3  0  0  0  0  0  0
  183.3380  178.2370  138.6870 C   0  0  0  0  0  0  0  0  0  0  0  0
  179.8430  179.2400  140.9570 C   0  0  0  0  0  2  0  0  0  0  0  0
  178.9310  178.6460  143.1170 O   0  0  0  0  0  1  0  0  0  0  0  0
  181.5260  179.0510  143.2820 C   0  0  0  0  0  1  0  0  0  0  0  0
  180.1200  178.5950  142.4240 C   0  0  2  0  0  3  0  0  0  0  0  0
  193.8370  175.4980  137.1410 C   0  0  1  0  0  3  0  0  0  0  0  0
  192.9630  174.8770  138.0520 O   0  0  0  0  0  0  0  0  0  0  0  0
  192.9380  176.3630  137.8730 C   0  0  2  0  0  3  0  0  0  0  0  0
  195.2030  175.4770  137.6570 C   0  0  0  0  0  2  0  0  0  0  0  0
  196.0350  174.1760  137.5620 C   0  0  2  0  0  3  0  0  0  0  0  0
  198.0540  175.4100  137.9820 O   0  0  0  0  0  1  0  0  0  0  0  0
  197.2980  174.3800  138.4800 C   0  0  0  0  0  2  0  0  0  0  0  0
  196.2930  173.9660  136.0800 C   0  0  0  0  0  2  0  0  0  0  0  0
  196.7970  171.4970  136.3700 C   0  0  2  0  0  3  0  0  0  0  0  0
  194.1000  171.2940  136.4650 C   0  0  0  0  0  2  0  0  0  0  0  0
  196.2750  170.0500  136.2660 C   0  0  0  0  0  2  0  0  0  0  0  0
  194.5090  172.4970  135.8730 O   0  0  0  0  0  0  0  0  0  0  0  0
  194.8210  170.0710  135.8950 C   0  0  0  0  0  2  0  0  0  0  0  0
  195.9230  172.5800  135.7200 C   0  0  1  0  0  3  0  0  0  0  0  0
  198.1830  171.7170  136.3990 O   0  0  0  0  0  0  0  0  0  0  0  0
  198.6910  170.6800  137.2000 C   0  0  0  0  0  1  0  0  0  0  0  0
  1 11  1  1  0  0  0
  1 26  1  0  0  0  0
  2  1  1  0  0  0  0
  3  7  1  0  0  0  0
  4  2  1  0  0  0  0
  5  1  1  0  0  0  0
  6 13  1  0  0  0  0
  7 36  1  0  0  0  0
  7 14  1  0  0  0  0
  8 15  2  0  0  0  0
  9  4  2  0  0  0  0
 10 12  2  0  0  0  0
 12  5  1  0  0  0  0
 12 14  1  0  0  0  0
 13  4  1  0  0  0  0
 13  5  2  0  0  0  0
 15 10  1  0  0  0  0
 15  3  1  0  0  0  0
 16  6  2  0  0  0  0
 16 10  1  0  0  0  0
 17 24  1  0  0  0  0
 17 28  1  6  0  0  0
 20 23  2  0  0  0  0
 21 18  1  0  0  0  0
 21 20  1  0  0  0  0
 22 27  2  0  0  0  0
 22 17  1  0  0  0  0
 23 19  1  0  0  0  0
 25 24  1  0  0  0  0
 25 19  1  0  0  0  0
 26 18  1  1  0  0  0
 26 22  1  0  0  0  0
 28 29  1  0  0  0  0
 29 30  1  0  0  0  0
 31 34  1  0  0  0  0
 32 33  1  0  0  0  0
 33 37  1  0  0  0  0
 34 33  2  0  0  0  0
 35 32  2  0  0  0  0
 36 31  2  0  0  0  0
 36 35  1  0  0  0  0
 37 40  1  0  0  0  0
 40 38  1  0  0  0  0
 40 39  1  1  0  0  0
 41 44  1  1  0  0  0
 41 43  1  0  0  0  0
 41 42  1  0  0  0  0
 43  9  1  6  0  0  0
 43 42  1  0  0  0  0
 45 48  1  6  0  0  0
 45 44  1  0  0  0  0
 45 47  1  0  0  0  0
 46 47  1  0  0  0  0
 49 55  1  6  0  0  0
 51 49  1  0  0  0  0
 52 50  1  0  0  0  0
 53 51  1  0  0  0  0
 53 50  1  0  0  0  0
 54 52  1  0  0  0  0
 54 48  1  1  0  0  0
 54 49  1  0  0  0  0
 55 56  1  0  0  0  0
M  END
>  <MODEL>
5

>  <REMARK>
 VINA RESULT:      -5.4      4.741     12.254
  Name = 
  13 active torsions:
  status: ('A' for Active; 'I' for Inactive)
    1  A    between atoms: C_1  and  O_45
    2  A    between atoms: C_2  and  C_47
    3  A    between atoms: C_3  and  C_31
    4  A    between atoms: C_5  and  C_31
    5  A    between atoms: C_7  and  C_30
    6  A    between atoms: C_18  and  C_37
    7  A    between atoms: C_19  and  C_36
    8  A    between atoms: C_19  and  C_39
    9  A    between atoms: C_23  and  C_32
   10  A    between atoms: C_23  and  C_56
   11  A    between atoms: N_28  and  C_44
   12  A    between atoms: C_30  and  C_32
   13  A    between atoms: C_32  and  C_46
                            x       y       z     vdW  Elec       q    Type
                         _______ _______ _______ _____ _____    ______ ____

>  <TORSDO>
F 13

$$$$
=
 OpenBabel11042410573D

 56 62  0  0  1  0  0  0  0  0999 V2000
  186.2780  177.1740  136.3470 C   0  0  1  0  0  0  0  0  0  0  0  0
  184.8750  177.3220  137.0220 C   0  0  0  0  0  2  0  0  0  0  0  0
  189.0860  172.6520  135.2850 N   0  0  0  0  0  2  0  0  0  0  0  0
  184.3650  176.0170  137.4100 C   0  0  0  0  0  0  0  0  0  0  0  0
  186.5990  175.6670  136.6440 C   0  0  0  0  0  0  0  0  0  0  0  0
  185.2460  173.8120  137.4730 C   0  0  0  0  0  3  0  0  0  0  0  0
  189.8010  173.9370  135.3520 N   0  0  0  0  0  0  0  0  0  0  0  0
  188.0190  171.1100  136.6900 O   0  0  0  0  0  0  0  0  0  0  0  0
  183.1090  175.7160  137.7050 C   0  0  0  0  0  3  0  0  0  0  0  0
  187.4110  173.4520  136.7390 C   0  0  0  0  0  0  0  0  0  0  0  0
  185.9970  177.3270  134.8560 C   0  0  0  0  0  1  0  0  0  0  0  0
  187.7230  174.8140  136.4760 C   0  0  0  0  0  0  0  0  0  0  0  0
  185.4300  175.1400  137.2440 C   0  0  0  0  0  0  0  0  0  0  0  0
  189.0590  175.1420  135.8860 C   0  0  0  0  0  2  0  0  0  0  0  0
  188.1860  172.2700  136.2670 C   0  0  0  0  0  0  0  0  0  0  0  0
  186.2390  172.9940  137.1530 C   0  0  0  0  0  3  0  0  0  0  0  0
  189.4940  177.7690  138.1510 C   0  0  1  0  0  3  0  0  0  0  0  0
  186.4450  179.2420  138.2290 C   0  0  0  0  0  2  0  0  0  0  0  0
  187.7600  178.3380  140.8720 C   0  0  0  0  0  2  0  0  0  0  0  0
  185.2820  178.9630  140.4950 C   0  0  0  0  0  3  0  0  0  0  0  0
  185.1920  178.6650  139.0040 C   0  0  0  0  0  2  0  0  0  0  0  0
  188.5350  178.5340  137.1250 C   0  0  0  0  0  0  0  0  0  0  0  0
  186.3780  178.7890  141.2940 C   0  0  0  0  0  3  0  0  0  0  0  0
  189.0030  176.7340  139.2310 C   0  0  0  0  0  2  0  0  0  0  0  0
  187.6560  177.0480  139.9520 C   0  0  0  0  0  2  0  0  0  0  0  0
  186.9460  178.4860  136.9310 C   0  0  1  0  0  3  0  0  0  0  0  0
  189.0810  179.3290  136.3360 O   0  0  0  0  0  0  0  0  0  0  0  0
  190.7660  177.1320  137.4950 C   0  0  0  0  0  2  0  0  0  0  0  0
  191.5640  176.4350  138.5830 C   0  0  0  0  0  2  0  0  0  0  0  0
  192.9680  176.0270  138.2280 C   0  0  0  0  0  1  0  0  0  0  0  0
  192.0190  172.8000  135.2070 C   0  0  0  0  0  3  0  0  0  0  0  0
  193.0600  175.3740  134.5960 C   0  0  0  0  0  3  0  0  0  0  0  0
  193.9250  174.3220  134.7940 C   0  0  0  0  0  0  0  0  0  0  0  0
  193.3930  173.0320  135.0560 C   0  0  0  0  0  3  0  0  0  0  0  0
  191.6960  175.1490  134.7330 C   0  0  0  0  0  3  0  0  0  0  0  0
  191.1590  173.9230  135.0770 C   0  0  0  0  0  0  0  0  0  0  0  0
  195.3980  174.5460  134.9310 C   0  0  0  0  0  2  0  0  0  0  0  0
  196.2680  175.2600  137.0710 O   0  0  0  0  0  1  0  0  0  0  0  0
  196.8870  172.7440  136.6090 C   0  0  0  0  0  1  0  0  0  0  0  0
  195.8760  174.1110  136.4240 C   0  0  2  0  0  3  0  0  0  0  0  0
  180.9320  176.5110  138.4240 C   0  0  1  0  0  3  0  0  0  0  0  0
  180.9250  176.3150  137.0310 O   0  0  0  0  0  0  0  0  0  0  0  0
  182.1590  176.8120  137.7190 C   0  0  2  0  0  3  0  0  0  0  0  0
  180.1370  177.6870  138.7720 C   0  0  0  0  0  2  0  0  0  0  0  0
  180.7850  179.0900  138.7120 C   0  0  2  0  0  3  0  0  0  0  0  0
  180.3950  180.5220  140.6030 O   0  0  0  0  0  1  0  0  0  0  0  0
  181.1730  179.4720  140.1900 C   0  0  0  0  0  2  0  0  0  0  0  0
  179.7650  179.9800  138.0230 C   0  0  0  0  0  2  0  0  0  0  0  0
  180.1410  180.6370  135.6020 C   0  0  2  0  0  3  0  0  0  0  0  0
  180.0560  183.1460  136.6120 C   0  0  0  0  0  2  0  0  0  0  0  0
  180.6120  181.7230  134.6150 C   0  0  0  0  0  2  0  0  0  0  0  0
  180.3190  182.1940  137.6070 O   0  0  0  0  0  0  0  0  0  0  0  0
  180.9400  182.9760  135.3750 C   0  0  0  0  0  2  0  0  0  0  0  0
  180.4690  180.8790  137.0830 C   0  0  1  0  0  3  0  0  0  0  0  0
  180.0780  179.3040  135.1640 O   0  0  0  0  0  0  0  0  0  0  0  0
  181.3540  179.0450  134.6350 C   0  0  0  0  0  1  0  0  0  0  0  0
  1 11  1  6  0  0  0
  1  5  1  0  0  0  0
  1 26  1  0  0  0  0
  1  2  1  0  0  0  0
  2  4  1  0  0  0  0
  3  7  1  0  0  0  0
  3 15  1  0  0  0  0
  4  9  2  0  0  0  0
  5 13  1  0  0  0  0
  7 14  1  0  0  0  0
 10 16  2  0  0  0  0
 12  5  2  0  0  0  0
 12 10  1  0  0  0  0
 13  4  1  0  0  0  0
 13  6  2  0  0  0  0
 14 12  1  0  0  0  0
 15  8  2  0  0  0  0
 15 10  1  0  0  0  0
 16  6  1  0  0  0  0
 17 28  1  6  0  0  0
 17 24  1  0  0  0  0
 18 21  1  0  0  0  0
 19 23  1  0  0  0  0
 20 23  2  0  0  0  0
 21 20  1  0  0  0  0
 22 17  1  0  0  0  0
 24 25  1  0  0  0  0
 25 19  1  0  0  0  0
 26 22  1  0  0  0  0
 26 18  1  1  0  0  0
 27 22  2  0  0  0  0
 28 29  1  0  0  0  0
 30 29  1  0  0  0  0
 32 35  1  0  0  0  0
 32 33  2  0  0  0  0
 33 37  1  0  0  0  0
 33 34  1  0  0  0  0
 34 31  2  0  0  0  0
 35 36  2  0  0  0  0
 36 31  1  0  0  0  0
 36  7  1  0  0  0  0
 37 40  1  0  0  0  0
 40 39  1  6  0  0  0
 40 38  1  0  0  0  0
 41 44  1  6  0  0  0
 42 43  1  0  0  0  0
 42 41  1  0  0  0  0
 43  9  1  1  0  0  0
 43 41  1  0  0  0  0
 45 48  1  1  0  0  0
 45 44  1  0  0  0  0
 45 47  1  0  0  0  0
 47 46  1  0  0  0  0
 49 55  1  6  0  0  0
 49 54  1  0  0  0  0
 50 52  1  0  0  0  0
 51 53  1  0  0  0  0
 51 49  1  0  0  0  0
 53 50  1  0  0  0  0
 54 52  1  0  0  0  0
 54 48  1  1  0  0  0
 56 55  1  0  0  0  0
M  END
>  <MODEL>
6

>  <REMARK>
 VINA RESULT:      -5.2      4.233      7.163
  Name = 
  13 active torsions:
  status: ('A' for Active; 'I' for Inactive)
    1  A    between atoms: C_1  and  O_45
    2  A    between atoms: C_2  and  C_47
    3  A    between atoms: C_3  and  C_31
    4  A    between atoms: C_5  and  C_31
    5  A    between atoms: C_7  and  C_30
    6  A    between atoms: C_18  and  C_37
    7  A    between atoms: C_19  and  C_36
    8  A    between atoms: C_19  and  C_39
    9  A    between atoms: C_23  and  C_32
   10  A    between atoms: C_23  and  C_56
   11  A    between atoms: N_28  and  C_44
   12  A    between atoms: C_30  and  C_32
   13  A    between atoms: C_32  and  C_46
                            x       y       z     vdW  Elec       q    Type
                         _______ _______ _______ _____ _____    ______ ____

>  <TORSDO>
F 13

$$$$
=
 OpenBabel11042410573D

 56 62  0  0  1  0  0  0  0  0999 V2000
  188.8300  177.3090  141.2940 C   0  0  1  0  0  0  0  0  0  0  0  0
  187.3440  177.7990  141.3160 C   0  0  0  0  0  2  0  0  0  0  0  0
  192.1790  176.7830  137.0570 N   0  0  0  0  0  2  0  0  0  0  0  0
  186.8920  178.0890  139.9650 C   0  0  0  0  0  0  0  0  0  0  0  0
  189.0600  177.1110  139.7550 C   0  0  0  0  0  0  0  0  0  0  0  0
  187.7780  177.7690  137.7850 C   0  0  0  0  0  3  0  0  0  0  0  0
  192.4680  176.0370  138.2920 N   0  0  0  0  0  0  0  0  0  0  0  0
  190.6630  176.7910  135.2700 O   0  0  0  0  0  0  0  0  0  0  0  0
  185.8340  178.8100  139.6250 C   0  0  0  0  0  3  0  0  0  0  0  0
  189.8760  176.8200  137.5590 C   0  0  0  0  0  0  0  0  0  0  0  0
  189.6330  178.5210  141.7550 C   0  0  0  0  0  1  0  0  0  0  0  0
  190.0930  176.5730  138.9430 C   0  0  0  0  0  0  0  0  0  0  0  0
  187.8860  177.5940  139.1300 C   0  0  0  0  0  0  0  0  0  0  0  0
  191.4070  175.9970  139.3690 C   0  0  0  0  0  2  0  0  0  0  0  0
  190.9140  176.7890  136.4910 C   0  0  0  0  0  0  0  0  0  0  0  0
  188.8180  177.4230  137.0400 C   0  0  0  0  0  3  0  0  0  0  0  0
  187.3200  177.4220  144.7080 C   0  0  1  0  0  3  0  0  0  0  0  0
  189.9420  175.7640  143.3500 C   0  0  0  0  0  2  0  0  0  0  0  0
  190.3500  177.3710  145.9550 C   0  0  0  0  0  2  0  0  0  0  0  0
  192.1830  176.4730  144.3720 C   0  0  0  0  0  3  0  0  0  0  0  0
  191.3660  176.4030  143.0870 C   0  0  0  0  0  2  0  0  0  0  0  0
  187.5560  176.3610  143.5360 C   0  0  0  0  0  0  0  0  0  0  0  0
  191.7470  176.9210  145.5880 C   0  0  0  0  0  3  0  0  0  0  0  0
  188.2690  178.6390  145.0160 C   0  0  0  0  0  2  0  0  0  0  0  0
  189.8040  178.3940  144.8700 C   0  0  0  0  0  2  0  0  0  0  0  0
  188.7260  176.2320  142.4500 C   0  0  1  0  0  3  0  0  0  0  0  0
  186.7120  175.4500  143.4290 O   0  0  0  0  0  0  0  0  0  0  0  0
  185.8610  177.9890  144.7840 C   0  0  0  0  0  2  0  0  0  0  0  0
  185.7480  178.8460  146.0340 C   0  0  0  0  0  2  0  0  0  0  0  0
  185.0580  178.2210  147.2150 C   0  0  0  0  0  1  0  0  0  0  0  0
  194.5810  175.2600  139.3730 C   0  0  0  0  0  3  0  0  0  0  0  0
  195.0720  173.8840  136.9340 C   0  0  0  0  0  3  0  0  0  0  0  0
  196.0480  173.9140  137.9040 C   0  0  0  0  0  0  0  0  0  0  0  0
  195.7760  174.5670  139.1340 C   0  0  0  0  0  3  0  0  0  0  0  0
  193.8810  174.5590  137.1670 C   0  0  0  0  0  3  0  0  0  0  0  0
  193.6280  175.2780  138.3190 C   0  0  0  0  0  0  0  0  0  0  0  0
  197.4410  173.4480  137.6170 C   0  0  0  0  0  2  0  0  0  0  0  0
  197.7570  175.7230  136.8630 O   0  0  0  0  0  1  0  0  0  0  0  0
  198.0690  174.0310  134.8710 C   0  0  0  0  0  1  0  0  0  0  0  0
  198.1310  174.4410  136.5300 C   0  0  2  0  0  3  0  0  0  0  0  0
  183.7970  178.5150  140.9110 C   0  0  1  0  0  3  0  0  0  0  0  0
  183.6780  179.6550  140.0950 O   0  0  0  0  0  0  0  0  0  0  0  0
  184.9980  179.2960  140.7060 C   0  0  2  0  0  3  0  0  0  0  0  0
  183.1440  178.7440  142.1970 C   0  0  0  0  0  2  0  0  0  0  0  0
  181.6240  179.0300  142.2410 C   0  0  2  0  0  3  0  0  0  0  0  0
  180.1910  178.6490  144.1320 O   0  0  0  0  0  1  0  0  0  0  0  0
  181.2750  179.3880  143.7340 C   0  0  0  0  0  2  0  0  0  0  0  0
  180.9610  177.7930  141.6620 C   0  0  0  0  0  2  0  0  0  0  0  0
  180.5710  176.6750  139.4180 C   0  0  2  0  0  3  0  0  0  0  0  0
  178.9310  178.7900  139.0190 C   0  0  0  0  0  2  0  0  0  0  0  0
  180.1010  176.8330  137.9590 C   0  0  0  0  0  2  0  0  0  0  0  0
  179.8550  179.0350  140.0450 O   0  0  0  0  0  0  0  0  0  0  0  0
  179.5800  178.2260  137.7530 C   0  0  0  0  0  2  0  0  0  0  0  0
  180.7930  177.9760  140.2040 C   0  0  1  0  0  3  0  0  0  0  0  0
  181.3720  175.5720  139.7570 O   0  0  0  0  0  0  0  0  0  0  0  0
  182.5130  175.7020  138.9470 C   0  0  0  0  0  1  0  0  0  0  0  0
  1  2  1  0  0  0  0
  1 11  1  1  0  0  0
  1 26  1  0  0  0  0
  3  7  1  0  0  0  0
  4  2  1  0  0  0  0
  5  1  1  0  0  0  0
  6 13  2  0  0  0  0
  7 36  1  0  0  0  0
  7 14  1  0  0  0  0
  8 15  2  0  0  0  0
  9  4  2  0  0  0  0
 10 12  1  0  0  0  0
 12 14  1  0  0  0  0
 12  5  2  0  0  0  0
 13  5  1  0  0  0  0
 13  4  1  0  0  0  0
 15  3  1  0  0  0  0
 15 10  1  0  0  0  0
 16 10  2  0  0  0  0
 16  6  1  0  0  0  0
 17 28  1  6  0  0  0
 17 24  1  0  0  0  0
 20 23  2  0  0  0  0
 21 18  1  0  0  0  0
 21 20  1  0  0  0  0
 22 17  1  0  0  0  0
 23 19  1  0  0  0  0
 25 24  1  0  0  0  0
 25 19  1  0  0  0  0
 26 18  1  1  0  0  0
 26 22  1  0  0  0  0
 27 22  2  0  0  0  0
 28 29  1  0  0  0  0
 29 30  1  0  0  0  0
 32 35  2  0  0  0  0
 32 33  1  0  0  0  0
 33 34  2  0  0  0  0
 34 31  1  0  0  0  0
 35 36  1  0  0  0  0
 36 31  2  0  0  0  0
 37 33  1  0  0  0  0
 40 39  1  6  0  0  0
 40 38  1  0  0  0  0
 40 37  1  0  0  0  0
 41 44  1  1  0  0  0
 42 43  1  0  0  0  0
 42 41  1  0  0  0  0
 43  9  1  6  0  0  0
 43 41  1  0  0  0  0
 44 45  1  0  0  0  0
 45 48  1  1  0  0  0
 45 47  1  0  0  0  0
 47 46  1  0  0  0  0
 49 55  1  6  0  0  0
 49 54  1  0  0  0  0
 50 52  1  0  0  0  0
 51 49  1  0  0  0  0
 52 54  1  0  0  0  0
 53 51  1  0  0  0  0
 53 50  1  0  0  0  0
 54 48  1  1  0  0  0
 56 55  1  0  0  0  0
M  END
>  <MODEL>
7

>  <REMARK>
 VINA RESULT:      -5.0      3.614      7.997
  Name = 
  13 active torsions:
  status: ('A' for Active; 'I' for Inactive)
    1  A    between atoms: C_1  and  O_45
    2  A    between atoms: C_2  and  C_47
    3  A    between atoms: C_3  and  C_31
    4  A    between atoms: C_5  and  C_31
    5  A    between atoms: C_7  and  C_30
    6  A    between atoms: C_18  and  C_37
    7  A    between atoms: C_19  and  C_36
    8  A    between atoms: C_19  and  C_39
    9  A    between atoms: C_23  and  C_32
   10  A    between atoms: C_23  and  C_56
   11  A    between atoms: N_28  and  C_44
   12  A    between atoms: C_30  and  C_32
   13  A    between atoms: C_32  and  C_46
                            x       y       z     vdW  Elec       q    Type
                         _______ _______ _______ _____ _____    ______ ____

>  <TORSDO>
F 13

$$$$
=
 OpenBabel11042410573D

 56 62  0  0  1  0  0  0  0  0999 V2000
  186.7010  178.1180  139.5830 C   0  0  1  0  0  0  0  0  0  0  0  0
  185.5250  178.6590  138.7050 C   0  0  0  0  0  2  0  0  0  0  0  0
  186.8060  177.1730  144.9260 N   0  0  0  0  0  2  0  0  0  0  0  0
  184.3690  178.9480  139.5380 C   0  0  0  0  0  0  0  0  0  0  0  0
  186.1510  178.3910  141.0260 C   0  0  0  0  0  0  0  0  0  0  0  0
  183.9490  179.0180  141.8750 C   0  0  0  0  0  3  0  0  0  0  0  0
  188.0780  177.3550  144.2080 N   0  0  0  0  0  0  0  0  0  0  0  0
  184.9520  178.4120  145.6470 O   0  0  0  0  0  0  0  0  0  0  0  0
  183.1200  179.1090  139.1270 C   0  0  0  0  0  3  0  0  0  0  0  0
  185.6630  178.4850  143.3350 C   0  0  0  0  0  0  0  0  0  0  0  0
  186.6960  176.6140  139.3350 C   0  0  0  0  0  1  0  0  0  0  0  0
  186.6690  178.3020  142.3450 C   0  0  0  0  0  0  0  0  0  0  0  0
  184.8260  178.8550  140.8470 C   0  0  0  0  0  0  0  0  0  0  0  0
  188.0300  177.8580  142.7820 C   0  0  0  0  0  2  0  0  0  0  0  0
  185.7460  178.0490  144.7560 C   0  0  0  0  0  0  0  0  0  0  0  0
  184.3910  178.7660  143.0980 C   0  0  0  0  0  3  0  0  0  0  0  0
  188.0790  177.6360  136.1450 C   0  0  1  0  0  3  0  0  0  0  0  0
  189.4280  178.5580  139.1120 C   0  0  0  0  0  2  0  0  0  0  0  0
  190.7360  176.2750  137.4960 C   0  0  0  0  0  2  0  0  0  0  0  0
  191.1350  176.8550  139.9820 C   0  0  0  0  0  3  0  0  0  0  0  0
  189.8110  177.5520  140.2720 C   0  0  0  0  0  2  0  0  0  0  0  0
  187.8850  178.8180  137.2050 C   0  0  0  0  0  0  0  0  0  0  0  0
  191.5080  176.2830  138.7970 C   0  0  0  0  0  3  0  0  0  0  0  0
  188.3180  176.1270  136.5240 C   0  0  0  0  0  2  0  0  0  0  0  0
  189.2310  175.8420  137.7570 C   0  0  0  0  0  2  0  0  0  0  0  0
  187.8950  178.8110  138.8060 C   0  0  1  0  0  3  0  0  0  0  0  0
  187.7120  179.9610  136.7400 O   0  0  0  0  0  0  0  0  0  0  0  0
  187.0230  177.6250  134.9880 C   0  0  0  0  0  2  0  0  0  0  0  0
  185.6630  177.3090  135.5890 C   0  0  0  0  0  2  0  0  0  0  0  0
  185.1680  175.8980  135.4220 C   0  0  0  0  0  1  0  0  0  0  0  0
  190.5510  177.0670  144.3970 C   0  0  0  0  0  3  0  0  0  0  0  0
  190.0940  176.8080  147.1910 C   0  0  0  0  0  3  0  0  0  0  0  0
  191.3540  176.5810  146.6870 C   0  0  0  0  0  0  0  0  0  0  0  0
  191.5810  176.7550  145.2960 C   0  0  0  0  0  3  0  0  0  0  0  0
  189.0700  177.1280  146.3080 C   0  0  0  0  0  3  0  0  0  0  0  0
  189.2460  177.2130  144.9400 C   0  0  0  0  0  0  0  0  0  0  0  0
  192.4290  175.9740  147.5310 C   0  0  0  0  0  2  0  0  0  0  0  0
  191.8060  177.9140  148.8320 O   0  0  0  0  0  1  0  0  0  0  0  0
  193.9300  176.7490  149.8590 C   0  0  0  0  0  1  0  0  0  0  0  0
  192.4650  176.7150  148.9780 C   0  0  2  0  0  3  0  0  0  0  0  0
  181.6210  178.4850  137.3230 C   0  0  1  0  0  3  0  0  0  0  0  0
  182.7350  177.6260  137.3280 O   0  0  0  0  0  0  0  0  0  0  0  0
  182.8920  179.0690  137.6950 C   0  0  2  0  0  3  0  0  0  0  0  0
  181.2090  178.7690  135.9500 C   0  0  0  0  0  2  0  0  0  0  0  0
  179.7820  178.3910  135.4890 C   0  0  2  0  0  3  0  0  0  0  0  0
  179.3040  180.6010  136.3020 O   0  0  0  0  0  1  0  0  0  0  0  0
  179.0030  179.7430  135.2770 C   0  0  0  0  0  2  0  0  0  0  0  0
  179.2450  177.4530  136.5560 C   0  0  0  0  0  2  0  0  0  0  0  0
  179.3010  175.0330  137.3160 C   0  0  2  0  0  3  0  0  0  0  0  0
  179.0140  174.5380  134.6710 C   0  0  0  0  0  2  0  0  0  0  0  0
  179.5390  173.5610  136.9270 C   0  0  0  0  0  2  0  0  0  0  0  0
  179.4850  175.8370  134.9080 O   0  0  0  0  0  0  0  0  0  0  0  0
  179.7860  173.4710  135.4490 C   0  0  0  0  0  2  0  0  0  0  0  0
  179.7410  176.0850  136.2860 C   0  0  1  0  0  3  0  0  0  0  0  0
  179.3570  175.3940  138.6720 O   0  0  0  0  0  0  0  0  0  0  0  0
  178.9950  174.2260  139.3650 C   0  0  0  0  0  1  0  0  0  0  0  0
  1 11  1  6  0  0  0
  1  5  1  0  0  0  0
  2  4  1  0  0  0  0
  2  1  1  0  0  0  0
  4 13  1  0  0  0  0
  5 12  1  0  0  0  0
  6 16  2  0  0  0  0
  7  3  1  0  0  0  0
  7 36  1  0  0  0  0
  9  4  2  0  0  0  0
 10 15  1  0  0  0  0
 12 14  1  0  0  0  0
 12 10  2  0  0  0  0
 13  5  2  0  0  0  0
 13  6  1  0  0  0  0
 14  7  1  0  0  0  0
 15  3  1  0  0  0  0
 15  8  2  0  0  0  0
 16 10  1  0  0  0  0
 17 28  1  6  0  0  0
 17 24  1  0  0  0  0
 17 22  1  0  0  0  0
 18 21  1  0  0  0  0
 19 25  1  0  0  0  0
 19 23  1  0  0  0  0
 20 21  1  0  0  0  0
 22 26  1  0  0  0  0
 23 20  2  0  0  0  0
 24 25  1  0  0  0  0
 26 18  1  6  0  0  0
 26  1  1  0  0  0  0
 27 22  2  0  0  0  0
 28 29  1  0  0  0  0
 30 29  1  0  0  0  0
 31 36  2  0  0  0  0
 31 34  1  0  0  0  0
 33 32  1  0  0  0  0
 33 37  1  0  0  0  0
 34 33  2  0  0  0  0
 35 32  2  0  0  0  0
 36 35  1  0  0  0  0
 37 40  1  0  0  0  0
 38 40  1  0  0  0  0
 40 39  1  6  0  0  0
 41 44  1  6  0  0  0
 41 42  1  0  0  0  0
 41 43  1  0  0  0  0
 42 43  1  0  0  0  0
 43  9  1  1  0  0  0
 45 47  1  1  0  0  0
 45 44  1  0  0  0  0
 45 48  1  0  0  0  0
 47 46  1  0  0  0  0
 49 55  1  1  0  0  0
 50 52  1  0  0  0  0
 50 53  1  0  0  0  0
 51 49  1  0  0  0  0
 52 54  1  0  0  0  0
 53 51  1  0  0  0  0
 54 48  1  1  0  0  0
 54 49  1  0  0  0  0
 55 56  1  0  0  0  0
M  END
>  <MODEL>
8

>  <REMARK>
 VINA RESULT:      -4.9      1.885      3.547
  Name = 
  13 active torsions:
  status: ('A' for Active; 'I' for Inactive)
    1  A    between atoms: C_1  and  O_45
    2  A    between atoms: C_2  and  C_47
    3  A    between atoms: C_3  and  C_31
    4  A    between atoms: C_5  and  C_31
    5  A    between atoms: C_7  and  C_30
    6  A    between atoms: C_18  and  C_37
    7  A    between atoms: C_19  and  C_36
    8  A    between atoms: C_19  and  C_39
    9  A    between atoms: C_23  and  C_32
   10  A    between atoms: C_23  and  C_56
   11  A    between atoms: N_28  and  C_44
   12  A    between atoms: C_30  and  C_32
   13  A    between atoms: C_32  and  C_46
                            x       y       z     vdW  Elec       q    Type
                         _______ _______ _______ _____ _____    ______ ____

>  <TORSDO>
F 13

$$$$
=
 OpenBabel11042410573D

 56 62  0  0  1  0  0  0  0  0999 V2000
  189.1280  177.1880  139.8040 C   0  0  1  0  0  0  0  0  0  0  0  0
  190.6120  176.9550  139.3660 C   0  0  0  0  0  2  0  0  0  0  0  0
  184.6490  177.2890  136.7410 N   0  0  0  0  0  2  0  0  0  0  0  0
  190.6890  176.7920  137.9230 C   0  0  0  0  0  0  0  0  0  0  0  0
  188.4320  177.3980  138.4140 C   0  0  0  0  0  0  0  0  0  0  0  0
  189.1680  177.0330  136.1150 C   0  0  0  0  0  3  0  0  0  0  0  0
  184.6230  177.9330  138.0640 N   0  0  0  0  0  0  0  0  0  0  0  0
  185.5610  177.5980  134.6050 O   0  0  0  0  0  0  0  0  0  0  0  0
  191.6970  176.2720  137.2400 C   0  0  0  0  0  3  0  0  0  0  0  0
  186.9770  177.6230  136.5690 C   0  0  0  0  0  0  0  0  0  0  0  0
  188.6870  175.8440  140.3730 C   0  0  0  0  0  1  0  0  0  0  0  0
  187.1380  177.7810  137.9730 C   0  0  0  0  0  0  0  0  0  0  0  0
  189.4320  177.1410  137.4450 C   0  0  0  0  0  0  0  0  0  0  0  0
  185.9340  178.1130  138.7980 C   0  0  0  0  0  2  0  0  0  0  0  0
  185.6800  177.5160  135.8440 C   0  0  0  0  0  0  0  0  0  0  0  0
  187.9160  177.2240  135.7240 C   0  0  0  0  0  3  0  0  0  0  0  0
  190.3520  176.7750  143.3090 C   0  0  1  0  0  3  0  0  0  0  0  0
  188.2670  178.9700  141.7880 C   0  0  0  0  0  2  0  0  0  0  0  0
  187.3400  177.5280  144.3560 C   0  0  0  0  0  2  0  0  0  0  0  0
  185.8640  178.8000  142.6600 C   0  0  0  0  0  3  0  0  0  0  0  0
  186.7560  178.6680  141.4310 C   0  0  0  0  0  2  0  0  0  0  0  0
  190.4390  177.8480  142.1260 C   0  0  0  0  0  0  0  0  0  0  0  0
  186.1080  178.2790  143.9010 C   0  0  0  0  0  3  0  0  0  0  0  0
  189.1330  175.8100  143.5510 C   0  0  0  0  0  2  0  0  0  0  0  0
  187.7060  176.3950  143.3060 C   0  0  0  0  0  2  0  0  0  0  0  0
  189.4010  178.2270  140.9670 C   0  0  1  0  0  3  0  0  0  0  0  0
  191.4730  178.5420  142.0780 O   0  0  0  0  0  0  0  0  0  0  0  0
  191.6360  175.8930  143.4770 C   0  0  0  0  0  2  0  0  0  0  0  0
  191.6620  175.3580  144.8990 C   0  0  0  0  0  2  0  0  0  0  0  0
  191.3320  176.3380  145.9910 C   0  0  0  0  0  1  0  0  0  0  0  0
  182.1370  177.9080  138.2890 C   0  0  0  0  0  3  0  0  0  0  0  0
  182.4210  180.5260  139.3620 C   0  0  0  0  0  3  0  0  0  0  0  0
  181.1620  180.0280  139.1140 C   0  0  0  0  0  0  0  0  0  0  0  0
  181.0300  178.7040  138.6180 C   0  0  0  0  0  3  0  0  0  0  0  0
  183.5220  179.7390  139.0480 C   0  0  0  0  0  3  0  0  0  0  0  0
  183.4220  178.4840  138.4800 C   0  0  0  0  0  0  0  0  0  0  0  0
  179.9550  180.9090  139.1700 C   0  0  0  0  0  2  0  0  0  0  0  0
  180.0810  180.7660  136.7600 O   0  0  0  0  0  1  0  0  0  0  0  0
  180.4200  183.2490  137.5630 C   0  0  0  0  0  1  0  0  0  0  0  0
  179.7770  181.6760  137.7470 C   0  0  2  0  0  3  0  0  0  0  0  0
  193.7700  175.0100  137.2840 C   0  0  1  0  0  3  0  0  0  0  0  0
  192.8330  174.4070  138.1430 O   0  0  0  0  0  0  0  0  0  0  0  0
  192.8770  175.8960  137.9980 C   0  0  2  0  0  3  0  0  0  0  0  0
  195.1110  174.9210  137.8570 C   0  0  0  0  0  2  0  0  0  0  0  0
  196.2980  174.4980  136.9600 C   0  0  2  0  0  3  0  0  0  0  0  0
  197.3490  176.4550  136.0420 O   0  0  0  0  0  1  0  0  0  0  0  0
  196.3630  175.5380  135.7790 C   0  0  0  0  0  2  0  0  0  0  0  0
  196.0270  173.0520  136.5810 C   0  0  0  0  0  2  0  0  0  0  0  0
  196.7790  170.7880  137.4440 C   0  0  2  0  0  3  0  0  0  0  0  0
  198.8490  171.1970  135.7480 C   0  0  0  0  0  2  0  0  0  0  0  0
  197.9470  169.8010  137.6350 C   0  0  0  0  0  2  0  0  0  0  0  0
  198.1900  172.3940  136.0610 O   0  0  0  0  0  0  0  0  0  0  0  0
  199.1800  170.3560  136.9830 C   0  0  0  0  0  2  0  0  0  0  0  0
  197.1620  172.2180  137.0310 C   0  0  1  0  0  3  0  0  0  0  0  0
  195.6230  170.6300  138.2240 O   0  0  0  0  0  0  0  0  0  0  0  0
  194.7720  169.8330  137.4390 C   0  0  0  0  0  1  0  0  0  0  0  0
  1 11  1  1  0  0  0
  1 26  1  0  0  0  0
  2  1  1  0  0  0  0
  3  7  1  0  0  0  0
  4  2  1  0  0  0  0
  5  1  1  0  0  0  0
  6 13  1  0  0  0  0
  7 36  1  0  0  0  0
  7 14  1  0  0  0  0
  8 15  2  0  0  0  0
  9  4  2  0  0  0  0
 10 12  2  0  0  0  0
 12  5  1  0  0  0  0
 12 14  1  0  0  0  0
 13  4  1  0  0  0  0
 13  5  2  0  0  0  0
 15 10  1  0  0  0  0
 15  3  1  0  0  0  0
 16  6  2  0  0  0  0
 16 10  1  0  0  0  0
 17 28  1  6  0  0  0
 17 24  1  0  0  0  0
 20 23  2  0  0  0  0
 21 18  1  0  0  0  0
 21 20  1  0  0  0  0
 22 17  1  0  0  0  0
 23 19  1  0  0  0  0
 25 24  1  0  0  0  0
 25 19  1  0  0  0  0
 26 18  1  1  0  0  0
 26 22  1  0  0  0  0
 27 22  2  0  0  0  0
 28 29  1  0  0  0  0
 29 30  1  0  0  0  0
 31 36  2  0  0  0  0
 31 34  1  0  0  0  0
 33 37  1  0  0  0  0
 33 32  1  0  0  0  0
 34 33  2  0  0  0  0
 35 32  2  0  0  0  0
 36 35  1  0  0  0  0
 38 40  1  0  0  0  0
 40 39  1  1  0  0  0
 40 37  1  0  0  0  0
 41 44  1  1  0  0  0
 41 43  1  0  0  0  0
 41 42  1  0  0  0  0
 43  9  1  6  0  0  0
 43 42  1  0  0  0  0
 45 47  1  6  0  0  0
 45 44  1  0  0  0  0
 47 46  1  0  0  0  0
 48 45  1  0  0  0  0
 49 51  1  0  0  0  0
 49 55  1  1  0  0  0
 50 52  1  0  0  0  0
 50 53  1  0  0  0  0
 52 54  1  0  0  0  0
 53 51  1  0  0  0  0
 54 48  1  6  0  0  0
 54 49  1  0  0  0  0
 56 55  1  0  0  0  0
M  END
>  <MODEL>
9

>  <REMARK>
 VINA RESULT:      -4.5      4.817     12.833
  Name = 
  13 active torsions:
  status: ('A' for Active; 'I' for Inactive)
    1  A    between atoms: C_1  and  O_45
    2  A    between atoms: C_2  and  C_47
    3  A    between atoms: C_3  and  C_31
    4  A    between atoms: C_5  and  C_31
    5  A    between atoms: C_7  and  C_30
    6  A    between atoms: C_18  and  C_37
    7  A    between atoms: C_19  and  C_36
    8  A    between atoms: C_19  and  C_39
    9  A    between atoms: C_23  and  C_32
   10  A    between atoms: C_23  and  C_56
   11  A    between atoms: N_28  and  C_44
   12  A    between atoms: C_30  and  C_32
   13  A    between atoms: C_32  and  C_46
                            x       y       z     vdW  Elec       q    Type
                         _______ _______ _______ _____ _____    ______ ____

>  <TORSDO>
F 13

$$$$
