=
 OpenBabel11032420133D

 36 39  0  0  1  0  0  0  0  0999 V2000
  184.1930  179.2020  142.9160 C   0  0  1  0  0  3  0  0  0  0  0  0
  182.8710  178.9180  140.3560 N   0  0  0  0  0  1  0  0  0  0  0  0
  182.7230  178.9310  142.8100 C   0  0  0  0  0  0  0  0  0  0  0  0
  180.5650  178.5620  143.8520 C   0  0  0  0  0  3  0  0  0  0  0  0
  182.1080  178.8000  141.5530 C   0  0  0  0  0  0  0  0  0  0  0  0
  179.9970  178.4350  142.5840 C   0  0  0  0  0  3  0  0  0  0  0  0
  181.9340  178.8100  143.9620 C   0  0  0  0  0  3  0  0  0  0  0  0
  180.7720  178.5560  141.4730 N   0  0  0  0  0  0  0  0  0  0  0  0
  184.5480  179.6750  144.3220 C   0  0  0  0  0  2  0  0  0  0  0  0
  185.2930  178.5920  145.0770 C   0  0  2  0  0  3  0  0  0  0  0  0
  184.5670  178.2820  146.3650 C   0  0  0  0  0  2  0  0  0  0  0  0
  185.8040  179.1650  146.3890 C   0  0  1  0  0  3  0  0  0  0  0  0
  188.8330  177.2150  145.6410 C   0  0  0  0  0  3  0  0  0  0  0  0
  187.5590  178.6970  148.0130 C   0  0  0  0  0  3  0  0  0  0  0  0
  189.7390  177.4460  147.9530 C   0  0  0  0  0  3  0  0  0  0  0  0
  187.0100  178.3950  146.8330 C   0  0  0  0  0  0  0  0  0  0  0  0
  189.8570  177.3010  146.4890 C   0  0  0  0  0  3  0  0  0  0  0  0
  188.7420  178.0480  148.6130 C   0  0  0  0  0  3  0  0  0  0  0  0
  187.4080  177.1610  146.0830 C   0  0  0  0  0  2  0  0  0  0  0  0
  184.9530  178.0070  142.5690 N   0  0  0  0  0  2  0  0  0  0  0  0
  186.4820  178.2640  140.2760 S   0  0  0  0  0  0  0  0  0  0  0  0
  186.2270  178.0720  141.9260 C   0  0  0  0  0  0  0  0  0  0  0  0
  188.1590  178.2390  140.3900 C   0  0  0  0  0  0  0  0  0  0  0  0
  187.4390  177.9720  142.5900 C   0  0  0  0  0  3  0  0  0  0  0  0
  188.5340  178.0680  141.7190 C   0  0  0  0  0  3  0  0  0  0  0  0
  189.0870  178.3820  139.2640 C   0  0  0  0  0  0  0  0  0  0  0  0
  188.9820  179.3690  138.4850 O   0  0  0  0  0  0  0  0  0  0  0  0
  190.0780  177.4250  139.0570 O   0  0  0  0  0  0  0  0  0  0  0  0
  192.3860  176.3780  137.7620 N   0  0  0  0  0  2  0  0  0  0  0  0
  191.3080  177.5350  139.6650 N   0  0  0  0  0  2  0  0  0  0  0  0
  193.5870  177.1030  139.6340 O   0  0  0  0  0  0  0  0  0  0  0  0
  192.4780  177.0060  139.0460 C   0  0  0  0  0  0  0  0  0  0  0  0
  194.3230  176.8550  136.5680 O   0  0  0  0  0  1  0  0  0  0  0  0
  194.2750  175.0240  137.8960 F   0  0  0  0  0  0  0  0  0  0  0  0
  193.5250  175.8160  137.0450 C   0  0  1  0  0  0  0  0  0  0  0  0
  193.0440  174.9850  135.8690 C   0  0  0  0  0  1  0  0  0  0  0  0
  1  9  1  1  0  0  0
  2  5  1  0  0  0  0
  3  1  1  0  0  0  0
  3  7  1  0  0  0  0
  4  7  2  0  0  0  0
  5  3  2  0  0  0  0
  6  4  1  0  0  0  0
  8  5  1  0  0  0  0
  8  6  2  0  0  0  0
 10  9  1  6  0  0  0
 10 11  1  0  0  0  0
 10 12  1  0  0  0  0
 11 12  1  0  0  0  0
 12 16  1  1  0  0  0
 13 19  1  0  0  0  0
 13 17  2  0  0  0  0
 14 18  1  0  0  0  0
 15 18  2  0  0  0  0
 16 14  2  0  0  0  0
 17 15  1  0  0  0  0
 19 16  1  0  0  0  0
 20  1  1  0  0  0  0
 21 23  1  0  0  0  0
 21 22  1  0  0  0  0
 22 20  1  0  0  0  0
 22 24  2  0  0  0  0
 23 25  2  0  0  0  0
 25 24  1  0  0  0  0
 26 23  1  0  0  0  0
 27 26  2  0  0  0  0
 28 26  1  0  0  0  0
 28 30  1  0  0  0  0
 29 32  1  0  0  0  0
 32 31  2  0  0  0  0
 32 30  1  0  0  0  0
 33 35  1  0  0  0  0
 35 36  1  6  0  0  0
 35 29  1  0  0  0  0
 35 34  1  0  0  0  0
M  END
>  <MODEL>
1

>  <REMARK>
 VINA RESULT:      -9.1      0.000      0.000
  Name = 
  10 active torsions:
  status: ('A' for Active; 'I' for Inactive)
    1  A    between atoms: C_2  and  O_13
    2  A    between atoms: C_2  and  C_19
    3  A    between atoms: C_4  and  C_31
    4  A    between atoms: C_7  and  C_8
    5  A    between atoms: C_7  and  C_31
    6  A    between atoms: N_11  and  C_33
    7  A    between atoms: O_13  and  N_16
    8  A    between atoms: C_15  and  C_32
    9  A    between atoms: C_17  and  N_22
   10  A    between atoms: N_22  and  C_31
                            x       y       z     vdW  Elec       q    Type
                         _______ _______ _______ _____ _____    ______ ____

>  <TORSDO>
F 10

$$$$
=
 OpenBabel11032420133D

 36 39  0  0  1  0  0  0  0  0999 V2000
  183.5440  179.2910  143.0170 C   0  0  1  0  0  3  0  0  0  0  0  0
  182.0310  179.3380  140.5490 N   0  0  0  0  0  1  0  0  0  0  0  0
  182.0810  178.9690  142.9790 C   0  0  0  0  0  0  0  0  0  0  0  0
  180.0290  178.3400  144.1080 C   0  0  0  0  0  3  0  0  0  0  0  0
  181.3720  179.0010  141.7660 C   0  0  0  0  0  0  0  0  0  0  0  0
  179.3660  178.3810  142.8810 C   0  0  0  0  0  3  0  0  0  0  0  0
  181.3920  178.6350  144.1530 C   0  0  0  0  0  3  0  0  0  0  0  0
  180.0440  178.7080  141.7480 N   0  0  0  0  0  0  0  0  0  0  0  0
  183.9650  179.6940  144.4260 C   0  0  0  0  0  2  0  0  0  0  0  0
  184.7540  178.5820  145.0860 C   0  0  2  0  0  3  0  0  0  0  0  0
  184.3690  178.4820  146.5430 C   0  0  0  0  0  2  0  0  0  0  0  0
  185.6600  179.1800  146.1500 C   0  0  1  0  0  3  0  0  0  0  0  0
  188.9250  177.8610  145.0830 C   0  0  0  0  0  3  0  0  0  0  0  0
  187.1750  177.9470  147.6080 C   0  0  0  0  0  3  0  0  0  0  0  0
  189.4370  176.8890  147.3220 C   0  0  0  0  0  3  0  0  0  0  0  0
  186.8440  178.2860  146.3580 C   0  0  0  0  0  0  0  0  0  0  0  0
  189.7940  177.5030  146.0280 C   0  0  0  0  0  3  0  0  0  0  0  0
  188.3010  177.0780  148.0040 C   0  0  0  0  0  3  0  0  0  0  0  0
  187.4590  177.5990  145.1770 C   0  0  0  0  0  2  0  0  0  0  0  0
  184.3250  178.1500  142.5540 N   0  0  0  0  0  2  0  0  0  0  0  0
  185.3220  178.3190  139.9780 S   0  0  0  0  0  0  0  0  0  0  0  0
  185.4250  178.2910  141.6550 C   0  0  0  0  0  0  0  0  0  0  0  0
  186.9750  178.5080  139.7380 C   0  0  0  0  0  0  0  0  0  0  0  0
  186.7460  178.4160  142.0560 C   0  0  0  0  0  3  0  0  0  0  0  0
  187.6240  178.5410  140.9690 C   0  0  0  0  0  3  0  0  0  0  0  0
  187.6330  178.6290  138.4340 C   0  0  0  0  0  0  0  0  0  0  0  0
  186.9400  178.6640  137.3810 O   0  0  0  0  0  0  0  0  0  0  0  0
  189.0230  178.7020  138.3640 O   0  0  0  0  0  0  0  0  0  0  0  0
  190.5940  177.6910  140.5100 N   0  0  0  0  0  2  0  0  0  0  0  0
  189.7840  177.5700  138.1760 N   0  0  0  0  0  2  0  0  0  0  0  0
  191.2930  176.0250  139.0240 O   0  0  0  0  0  0  0  0  0  0  0  0
  190.5920  177.0510  139.2290 C   0  0  0  0  0  0  0  0  0  0  0  0
  190.8440  176.0310  142.1190 O   0  0  0  0  0  1  0  0  0  0  0  0
  192.6910  177.0230  141.2680 F   0  0  0  0  0  0  0  0  0  0  0  0
  191.3780  177.2310  141.6510 C   0  0  1  0  0  0  0  0  0  0  0  0
  191.3310  178.2590  142.7670 C   0  0  0  0  0  1  0  0  0  0  0  0
  1  9  1  1  0  0  0
  2  5  1  0  0  0  0
  3  1  1  0  0  0  0
  3  7  1  0  0  0  0
  4  7  2  0  0  0  0
  5  3  2  0  0  0  0
  6  4  1  0  0  0  0
  8  5  1  0  0  0  0
  8  6  2  0  0  0  0
 10  9  1  6  0  0  0
 10 12  1  0  0  0  0
 10 11  1  0  0  0  0
 12 16  1  1  0  0  0
 12 11  1  0  0  0  0
 13 19  1  0  0  0  0
 13 17  2  0  0  0  0
 14 18  1  0  0  0  0
 15 18  2  0  0  0  0
 16 14  2  0  0  0  0
 17 15  1  0  0  0  0
 19 16  1  0  0  0  0
 20  1  1  0  0  0  0
 21 22  1  0  0  0  0
 22 24  2  0  0  0  0
 22 20  1  0  0  0  0
 23 21  1  0  0  0  0
 23 25  2  0  0  0  0
 25 24  1  0  0  0  0
 26 23  1  0  0  0  0
 27 26  2  0  0  0  0
 28 26  1  0  0  0  0
 29 35  1  0  0  0  0
 30 28  1  0  0  0  0
 30 32  1  0  0  0  0
 31 32  2  0  0  0  0
 32 29  1  0  0  0  0
 34 35  1  0  0  0  0
 35 33  1  0  0  0  0
 35 36  1  1  0  0  0
M  END
>  <MODEL>
2

>  <REMARK>
 VINA RESULT:      -8.9      1.771      2.401
  Name = 
  10 active torsions:
  status: ('A' for Active; 'I' for Inactive)
    1  A    between atoms: C_2  and  O_13
    2  A    between atoms: C_2  and  C_19
    3  A    between atoms: C_4  and  C_31
    4  A    between atoms: C_7  and  C_8
    5  A    between atoms: C_7  and  C_31
    6  A    between atoms: N_11  and  C_33
    7  A    between atoms: O_13  and  N_16
    8  A    between atoms: C_15  and  C_32
    9  A    between atoms: C_17  and  N_22
   10  A    between atoms: N_22  and  C_31
                            x       y       z     vdW  Elec       q    Type
                         _______ _______ _______ _____ _____    ______ ____

>  <TORSDO>
F 10

$$$$
=
 OpenBabel11032420133D

 36 39  0  0  1  0  0  0  0  0999 V2000
  188.3700  177.0890  144.6410 C   0  0  1  0  0  3  0  0  0  0  0  0
  191.1570  176.3190  144.4840 N   0  0  0  0  0  1  0  0  0  0  0  0
  189.2950  177.2180  145.8140 C   0  0  0  0  0  0  0  0  0  0  0  0
  189.6970  177.8310  148.1250 C   0  0  0  0  0  3  0  0  0  0  0  0
  190.6430  176.8350  145.7090 C   0  0  0  0  0  0  0  0  0  0  0  0
  191.0290  177.4420  147.9740 C   0  0  0  0  0  3  0  0  0  0  0  0
  188.8300  177.7180  147.0380 C   0  0  0  0  0  3  0  0  0  0  0  0
  191.4690  176.9560  146.7830 N   0  0  0  0  0  0  0  0  0  0  0  0
  186.9180  177.0660  145.1060 C   0  0  0  0  0  2  0  0  0  0  0  0
  186.1010  178.0980  144.3550 C   0  0  2  0  0  3  0  0  0  0  0  0
  185.6270  179.1650  145.3140 C   0  0  0  0  0  2  0  0  0  0  0  0
  184.6720  178.0690  144.8710 C   0  0  1  0  0  3  0  0  0  0  0  0
  183.6750  178.3060  141.3370 C   0  0  0  0  0  3  0  0  0  0  0  0
  182.4700  178.7980  144.1220 C   0  0  0  0  0  3  0  0  0  0  0  0
  181.3760  179.1060  141.8790 C   0  0  0  0  0  3  0  0  0  0  0  0
  183.7460  178.5590  143.8000 C   0  0  0  0  0  0  0  0  0  0  0  0
  182.3740  178.3940  141.0590 C   0  0  0  0  0  3  0  0  0  0  0  0
  181.4190  179.2840  143.2060 C   0  0  0  0  0  3  0  0  0  0  0  0
  184.3140  179.0070  142.4890 C   0  0  0  0  0  2  0  0  0  0  0  0
  188.5920  178.1810  143.7010 N   0  0  0  0  0  2  0  0  0  0  0  0
  189.9400  177.0200  141.5810 S   0  0  0  0  0  0  0  0  0  0  0  0
  188.7470  177.9620  142.2980 C   0  0  0  0  0  0  0  0  0  0  0  0
  189.4100  177.2960  140.0090 C   0  0  0  0  0  0  0  0  0  0  0  0
  187.9260  178.5160  141.3290 C   0  0  0  0  0  3  0  0  0  0  0  0
  188.3010  178.1370  140.0310 C   0  0  0  0  0  3  0  0  0  0  0  0
  190.0170  176.7320  138.8000 C   0  0  0  0  0  0  0  0  0  0  0  0
  189.7900  177.2610  137.6770 O   0  0  0  0  0  0  0  0  0  0  0  0
  190.8390  175.6120  138.8960 O   0  0  0  0  0  0  0  0  0  0  0  0
  193.3330  174.8740  137.7400 N   0  0  0  0  0  2  0  0  0  0  0  0
  190.8720  174.6680  137.8940 N   0  0  0  0  0  2  0  0  0  0  0  0
  192.1040  173.4400  136.3590 O   0  0  0  0  0  0  0  0  0  0  0  0
  192.1050  174.2910  137.2870 C   0  0  0  0  0  0  0  0  0  0  0  0
  195.6320  174.9860  138.0690 O   0  0  0  0  0  1  0  0  0  0  0  0
  194.7590  173.1770  137.0290 F   0  0  0  0  0  0  0  0  0  0  0  0
  194.6440  174.5460  137.1900 C   0  0  1  0  0  0  0  0  0  0  0  0
  194.8340  175.2330  135.8500 C   0  0  0  0  0  1  0  0  0  0  0  0
  1  9  1  1  0  0  0
  1  3  1  0  0  0  0
  2  5  1  0  0  0  0
  3  7  1  0  0  0  0
  5  3  2  0  0  0  0
  5  8  1  0  0  0  0
  6  4  1  0  0  0  0
  7  4  2  0  0  0  0
  8  6  2  0  0  0  0
 10 12  1  0  0  0  0
 10  9  1  1  0  0  0
 10 11  1  0  0  0  0
 12 16  1  6  0  0  0
 12 11  1  0  0  0  0
 13 19  1  0  0  0  0
 15 18  2  0  0  0  0
 16 14  2  0  0  0  0
 17 13  2  0  0  0  0
 17 15  1  0  0  0  0
 18 14  1  0  0  0  0
 19 16  1  0  0  0  0
 20  1  1  0  0  0  0
 21 22  1  0  0  0  0
 22 20  1  0  0  0  0
 23 25  2  0  0  0  0
 23 21  1  0  0  0  0
 24 22  2  0  0  0  0
 25 24  1  0  0  0  0
 26 28  1  0  0  0  0
 26 23  1  0  0  0  0
 27 26  2  0  0  0  0
 30 28  1  0  0  0  0
 31 32  2  0  0  0  0
 32 29  1  0  0  0  0
 32 30  1  0  0  0  0
 34 35  1  0  0  0  0
 35 36  1  6  0  0  0
 35 29  1  0  0  0  0
 35 33  1  0  0  0  0
M  END
>  <MODEL>
3

>  <REMARK>
 VINA RESULT:      -8.9      2.522      5.979
  Name = 
  10 active torsions:
  status: ('A' for Active; 'I' for Inactive)
    1  A    between atoms: C_2  and  O_13
    2  A    between atoms: C_2  and  C_19
    3  A    between atoms: C_4  and  C_31
    4  A    between atoms: C_7  and  C_8
    5  A    between atoms: C_7  and  C_31
    6  A    between atoms: N_11  and  C_33
    7  A    between atoms: O_13  and  N_16
    8  A    between atoms: C_15  and  C_32
    9  A    between atoms: C_17  and  N_22
   10  A    between atoms: N_22  and  C_31
                            x       y       z     vdW  Elec       q    Type
                         _______ _______ _______ _____ _____    ______ ____

>  <TORSDO>
F 10

$$$$
=
 OpenBabel11032420133D

 36 39  0  0  1  0  0  0  0  0999 V2000
  188.7480  176.9170  144.2870 C   0  0  1  0  0  3  0  0  0  0  0  0
  191.5280  176.1260  144.1200 N   0  0  0  0  0  1  0  0  0  0  0  0
  189.6600  176.9740  145.4750 C   0  0  0  0  0  0  0  0  0  0  0  0
  190.0430  177.4600  147.8190 C   0  0  0  0  0  3  0  0  0  0  0  0
  191.0050  176.5820  145.3640 C   0  0  0  0  0  0  0  0  0  0  0  0
  191.3720  177.0650  147.6630 C   0  0  0  0  0  3  0  0  0  0  0  0
  189.1870  177.4140  146.7190 C   0  0  0  0  0  3  0  0  0  0  0  0
  191.8200  176.6380  146.4520 N   0  0  0  0  0  0  0  0  0  0  0  0
  187.2950  176.7980  144.7350 C   0  0  0  0  0  2  0  0  0  0  0  0
  186.4530  177.8930  144.1120 C   0  0  2  0  0  3  0  0  0  0  0  0
  186.1060  178.9250  145.1590 C   0  0  0  0  0  2  0  0  0  0  0  0
  185.0750  177.8850  144.7530 C   0  0  1  0  0  3  0  0  0  0  0  0
  183.8010  178.3680  141.3360 C   0  0  0  0  0  3  0  0  0  0  0  0
  182.8360  178.6950  144.2350 C   0  0  0  0  0  3  0  0  0  0  0  0
  181.5700  179.1660  142.1150 C   0  0  0  0  0  3  0  0  0  0  0  0
  184.0760  178.4590  143.7960 C   0  0  0  0  0  0  0  0  0  0  0  0
  182.4840  178.4940  141.1710 C   0  0  0  0  0  3  0  0  0  0  0  0
  181.7240  179.2560  143.4420 C   0  0  0  0  0  3  0  0  0  0  0  0
  184.5450  178.9830  142.4740 C   0  0  0  0  0  2  0  0  0  0  0  0
  188.9320  178.0980  143.4520 N   0  0  0  0  0  2  0  0  0  0  0  0
  188.0140  178.6250  140.8950 S   0  0  0  0  0  0  0  0  0  0  0  0
  189.0870  178.0140  142.0340 C   0  0  0  0  0  0  0  0  0  0  0  0
  188.9160  178.1220  139.5680 C   0  0  0  0  0  0  0  0  0  0  0  0
  190.1580  177.3990  141.4030 C   0  0  0  0  0  3  0  0  0  0  0  0
  190.0610  177.4620  140.0050 C   0  0  0  0  0  3  0  0  0  0  0  0
  188.5580  178.3500  138.1650 C   0  0  0  0  0  0  0  0  0  0  0  0
  188.9830  179.3750  137.5660 O   0  0  0  0  0  0  0  0  0  0  0  0
  187.7470  177.4330  137.4990 O   0  0  0  0  0  0  0  0  0  0  0  0
  185.7450  175.4240  137.2610 N   0  0  0  0  0  2  0  0  0  0  0  0
  186.4820  177.7790  137.0790 N   0  0  0  0  0  2  0  0  0  0  0  0
  184.3230  177.1330  136.5320 O   0  0  0  0  0  0  0  0  0  0  0  0
  185.4650  176.7910  136.9370 C   0  0  0  0  0  0  0  0  0  0  0  0
  183.6860  174.6260  137.9870 O   0  0  0  0  0  1  0  0  0  0  0  0
  184.3230  174.2360  135.8520 F   0  0  0  0  0  0  0  0  0  0  0  0
  184.7700  174.3450  137.1570 C   0  0  1  0  0  0  0  0  0  0  0  0
  185.3950  173.0320  137.5900 C   0  0  0  0  0  1  0  0  0  0  0  0
  1  9  1  1  0  0  0
  1  3  1  0  0  0  0
  2  5  1  0  0  0  0
  3  7  1  0  0  0  0
  5  3  2  0  0  0  0
  5  8  1  0  0  0  0
  6  4  1  0  0  0  0
  7  4  2  0  0  0  0
  8  6  2  0  0  0  0
 10  9  1  1  0  0  0
 10 12  1  0  0  0  0
 10 11  1  0  0  0  0
 12 16  1  6  0  0  0
 12 11  1  0  0  0  0
 13 19  1  0  0  0  0
 15 18  2  0  0  0  0
 16 14  2  0  0  0  0
 17 13  2  0  0  0  0
 17 15  1  0  0  0  0
 18 14  1  0  0  0  0
 19 16  1  0  0  0  0
 20  1  1  0  0  0  0
 21 22  1  0  0  0  0
 22 20  1  0  0  0  0
 23 25  2  0  0  0  0
 23 21  1  0  0  0  0
 24 22  2  0  0  0  0
 25 24  1  0  0  0  0
 26 23  1  0  0  0  0
 27 26  2  0  0  0  0
 28 26  1  0  0  0  0
 30 28  1  0  0  0  0
 31 32  2  0  0  0  0
 32 30  1  0  0  0  0
 32 29  1  0  0  0  0
 34 35  1  0  0  0  0
 35 29  1  0  0  0  0
 35 36  1  1  0  0  0
 35 33  1  0  0  0  0
M  END
>  <MODEL>
4

>  <REMARK>
 VINA RESULT:      -8.8      3.598      7.115
  Name = 
  10 active torsions:
  status: ('A' for Active; 'I' for Inactive)
    1  A    between atoms: C_2  and  O_13
    2  A    between atoms: C_2  and  C_19
    3  A    between atoms: C_4  and  C_31
    4  A    between atoms: C_7  and  C_8
    5  A    between atoms: C_7  and  C_31
    6  A    between atoms: N_11  and  C_33
    7  A    between atoms: O_13  and  N_16
    8  A    between atoms: C_15  and  C_32
    9  A    between atoms: C_17  and  N_22
   10  A    between atoms: N_22  and  C_31
                            x       y       z     vdW  Elec       q    Type
                         _______ _______ _______ _____ _____    ______ ____

>  <TORSDO>
F 10

$$$$
=
 OpenBabel11032420133D

 36 39  0  0  1  0  0  0  0  0999 V2000
  190.3630  177.5060  141.9430 C   0  0  1  0  0  3  0  0  0  0  0  0
  190.9210  179.4380  144.0260 N   0  0  0  0  0  1  0  0  0  0  0  0
  190.9190  177.0970  143.2730 C   0  0  0  0  0  0  0  0  0  0  0  0
  191.7130  175.3810  144.7900 C   0  0  0  0  0  3  0  0  0  0  0  0
  191.1810  178.0570  144.2650 C   0  0  0  0  0  0  0  0  0  0  0  0
  191.9550  176.3680  145.7470 C   0  0  0  0  0  3  0  0  0  0  0  0
  191.1920  175.7510  143.5500 C   0  0  0  0  0  3  0  0  0  0  0  0
  191.6880  177.6710  145.4670 N   0  0  0  0  0  0  0  0  0  0  0  0
  191.3280  177.1300  140.8230 C   0  0  0  0  0  2  0  0  0  0  0  0
  190.5730  176.5640  139.6370 C   0  0  2  0  0  3  0  0  0  0  0  0
  191.5110  176.4210  138.4610 C   0  0  0  0  0  2  0  0  0  0  0  0
  190.5530  177.5980  138.5230 C   0  0  1  0  0  3  0  0  0  0  0  0
  188.3110  175.3550  136.6590 C   0  0  0  0  0  3  0  0  0  0  0  0
  188.3440  178.2400  137.7170 C   0  0  0  0  0  3  0  0  0  0  0  0
  186.5190  177.0760  136.4380 C   0  0  0  0  0  3  0  0  0  0  0  0
  189.3560  177.3690  137.6510 C   0  0  0  0  0  0  0  0  0  0  0  0
  187.0260  175.6960  136.5600 C   0  0  0  0  0  3  0  0  0  0  0  0
  187.0930  178.1790  136.9360 C   0  0  0  0  0  3  0  0  0  0  0  0
  189.4270  176.3400  136.5650 C   0  0  0  0  0  2  0  0  0  0  0  0
  189.0610  176.8870  141.7280 N   0  0  0  0  0  2  0  0  0  0  0  0
  186.9070  177.1910  143.4390 S   0  0  0  0  0  0  0  0  0  0  0  0
  187.8390  177.5350  142.0830 C   0  0  0  0  0  0  0  0  0  0  0  0
  185.7330  178.3460  143.0980 C   0  0  0  0  0  0  0  0  0  0  0  0
  187.2470  178.5430  141.3380 C   0  0  0  0  0  3  0  0  0  0  0  0
  186.0540  179.0030  141.9150 C   0  0  0  0  0  3  0  0  0  0  0  0
  184.5540  178.6250  143.9250 C   0  0  0  0  0  0  0  0  0  0  0  0
  183.5440  179.1810  143.4130 O   0  0  0  0  0  0  0  0  0  0  0  0
  184.5560  178.2770  145.2740 O   0  0  0  0  0  0  0  0  0  0  0  0
  186.7980  178.0050  147.0060 N   0  0  0  0  0  2  0  0  0  0  0  0
  184.7800  179.2210  146.2500 N   0  0  0  0  0  2  0  0  0  0  0  0
  186.0560  179.9700  148.0360 O   0  0  0  0  0  0  0  0  0  0  0  0
  185.8860  179.1020  147.1400 C   0  0  0  0  0  0  0  0  0  0  0  0
  188.7440  178.9560  147.8500 O   0  0  0  0  0  1  0  0  0  0  0  0
  187.5560  177.5440  149.1580 F   0  0  0  0  0  0  0  0  0  0  0  0
  187.9620  177.8020  147.8610 C   0  0  1  0  0  0  0  0  0  0  0  0
  188.7920  176.6400  147.3480 C   0  0  0  0  0  1  0  0  0  0  0  0
  1  9  1  6  0  0  0
  1  3  1  0  0  0  0
  2  5  1  0  0  0  0
  3  7  2  0  0  0  0
  3  5  1  0  0  0  0
  4  6  2  0  0  0  0
  5  8  2  0  0  0  0
  7  4  1  0  0  0  0
  8  6  1  0  0  0  0
 10  9  1  1  0  0  0
 11 12  1  0  0  0  0
 11 10  1  0  0  0  0
 12 16  1  6  0  0  0
 12 10  1  0  0  0  0
 15 17  1  0  0  0  0
 15 18  2  0  0  0  0
 16 14  2  0  0  0  0
 17 13  2  0  0  0  0
 18 14  1  0  0  0  0
 19 13  1  0  0  0  0
 19 16  1  0  0  0  0
 20  1  1  0  0  0  0
 20 22  1  0  0  0  0
 22 21  1  0  0  0  0
 23 21  1  0  0  0  0
 23 26  1  0  0  0  0
 24 25  1  0  0  0  0
 24 22  2  0  0  0  0
 25 23  2  0  0  0  0
 26 28  1  0  0  0  0
 27 26  2  0  0  0  0
 28 30  1  0  0  0  0
 29 32  1  0  0  0  0
 29 35  1  0  0  0  0
 30 32  1  0  0  0  0
 32 31  2  0  0  0  0
 33 35  1  0  0  0  0
 35 36  1  6  0  0  0
 35 34  1  0  0  0  0
M  END
>  <MODEL>
5

>  <REMARK>
 VINA RESULT:      -8.8      4.734      9.465
  Name = 
  10 active torsions:
  status: ('A' for Active; 'I' for Inactive)
    1  A    between atoms: C_2  and  O_13
    2  A    between atoms: C_2  and  C_19
    3  A    between atoms: C_4  and  C_31
    4  A    between atoms: C_7  and  C_8
    5  A    between atoms: C_7  and  C_31
    6  A    between atoms: N_11  and  C_33
    7  A    between atoms: O_13  and  N_16
    8  A    between atoms: C_15  and  C_32
    9  A    between atoms: C_17  and  N_22
   10  A    between atoms: N_22  and  C_31
                            x       y       z     vdW  Elec       q    Type
                         _______ _______ _______ _____ _____    ______ ____

>  <TORSDO>
F 10

$$$$
=
 OpenBabel11032420133D

 36 39  0  0  1  0  0  0  0  0999 V2000
  183.8850  179.2380  142.8050 C   0  0  1  0  0  3  0  0  0  0  0  0
  182.4510  179.0420  140.2980 N   0  0  0  0  0  1  0  0  0  0  0  0
  182.4200  178.9290  142.7530 C   0  0  0  0  0  0  0  0  0  0  0  0
  180.3260  178.4420  143.8740 C   0  0  0  0  0  3  0  0  0  0  0  0
  181.7490  178.8410  141.5220 C   0  0  0  0  0  0  0  0  0  0  0  0
  179.7020  178.3610  142.6290 C   0  0  0  0  0  3  0  0  0  0  0  0
  181.6910  178.7260  143.9330 C   0  0  0  0  0  3  0  0  0  0  0  0
  180.4180  178.5610  141.4910 N   0  0  0  0  0  0  0  0  0  0  0  0
  184.2870  179.6890  144.2050 C   0  0  0  0  0  2  0  0  0  0  0  0
  185.0230  178.5820  144.9320 C   0  0  2  0  0  3  0  0  0  0  0  0
  184.4730  178.4390  146.3310 C   0  0  0  0  0  2  0  0  0  0  0  0
  185.7810  179.1780  146.1070 C   0  0  1  0  0  3  0  0  0  0  0  0
  188.9520  177.5630  145.1700 C   0  0  0  0  0  3  0  0  0  0  0  0
  187.3510  178.2260  147.7090 C   0  0  0  0  0  3  0  0  0  0  0  0
  189.5710  177.0590  147.5330 C   0  0  0  0  0  3  0  0  0  0  0  0
  186.9560  178.3090  146.4350 C   0  0  0  0  0  0  0  0  0  0  0  0
  189.8650  177.3800  146.1230 C   0  0  0  0  0  3  0  0  0  0  0  0
  188.4800  177.4220  148.2190 C   0  0  0  0  0  3  0  0  0  0  0  0
  187.4880  177.3720  145.3930 C   0  0  0  0  0  2  0  0  0  0  0  0
  184.6620  178.0740  142.3980 N   0  0  0  0  0  2  0  0  0  0  0  0
  185.7870  178.2070  139.8720 S   0  0  0  0  0  0  0  0  0  0  0  0
  185.8090  178.1780  141.5530 C   0  0  0  0  0  0  0  0  0  0  0  0
  187.4550  178.3410  139.7120 C   0  0  0  0  0  0  0  0  0  0  0  0
  187.1130  178.2600  142.0160 C   0  0  0  0  0  3  0  0  0  0  0  0
  188.0450  178.3540  140.9730 C   0  0  0  0  0  3  0  0  0  0  0  0
  188.1790  178.4390  138.4410 C   0  0  0  0  0  0  0  0  0  0  0  0
  189.0120  179.3690  138.2620 O   0  0  0  0  0  0  0  0  0  0  0  0
  187.9410  177.5050  137.4350 O   0  0  0  0  0  0  0  0  0  0  0  0
  186.0290  175.4230  137.1050 N   0  0  0  0  0  2  0  0  0  0  0  0
  186.9030  177.6690  136.5460 N   0  0  0  0  0  2  0  0  0  0  0  0
  185.0120  176.8060  135.5160 O   0  0  0  0  0  0  0  0  0  0  0  0
  185.9400  176.6370  136.3500 C   0  0  0  0  0  0  0  0  0  0  0  0
  183.8870  174.6650  137.5950 O   0  0  0  0  0  1  0  0  0  0  0  0
  184.8520  174.0420  135.6470 F   0  0  0  0  0  0  0  0  0  0  0  0
  185.0890  174.3140  136.9820 C   0  0  1  0  0  0  0  0  0  0  0  0
  185.6470  173.0780  137.6630 C   0  0  0  0  0  1  0  0  0  0  0  0
  1  9  1  1  0  0  0
  2  5  1  0  0  0  0
  3  1  1  0  0  0  0
  3  7  1  0  0  0  0
  4  7  2  0  0  0  0
  5  3  2  0  0  0  0
  6  4  1  0  0  0  0
  8  5  1  0  0  0  0
  8  6  2  0  0  0  0
 10  9  1  6  0  0  0
 10 12  1  0  0  0  0
 10 11  1  0  0  0  0
 12 11  1  0  0  0  0
 12 16  1  1  0  0  0
 13 19  1  0  0  0  0
 13 17  2  0  0  0  0
 14 18  1  0  0  0  0
 15 18  2  0  0  0  0
 16 14  2  0  0  0  0
 17 15  1  0  0  0  0
 19 16  1  0  0  0  0
 20  1  1  0  0  0  0
 21 22  1  0  0  0  0
 22 24  2  0  0  0  0
 22 20  1  0  0  0  0
 23 21  1  0  0  0  0
 23 25  2  0  0  0  0
 25 24  1  0  0  0  0
 26 23  1  0  0  0  0
 27 26  2  0  0  0  0
 28 26  1  0  0  0  0
 30 28  1  0  0  0  0
 31 32  2  0  0  0  0
 32 30  1  0  0  0  0
 32 29  1  0  0  0  0
 34 35  1  0  0  0  0
 35 29  1  0  0  0  0
 35 33  1  0  0  0  0
 35 36  1  1  0  0  0
M  END
>  <MODEL>
6

>  <REMARK>
 VINA RESULT:      -8.8      3.109      3.986
  Name = 
  10 active torsions:
  status: ('A' for Active; 'I' for Inactive)
    1  A    between atoms: C_2  and  O_13
    2  A    between atoms: C_2  and  C_19
    3  A    between atoms: C_4  and  C_31
    4  A    between atoms: C_7  and  C_8
    5  A    between atoms: C_7  and  C_31
    6  A    between atoms: N_11  and  C_33
    7  A    between atoms: O_13  and  N_16
    8  A    between atoms: C_15  and  C_32
    9  A    between atoms: C_17  and  N_22
   10  A    between atoms: N_22  and  C_31
                            x       y       z     vdW  Elec       q    Type
                         _______ _______ _______ _____ _____    ______ ____

>  <TORSDO>
F 10

$$$$
=
 OpenBabel11032420133D

 36 39  0  0  1  0  0  0  0  0999 V2000
  188.2850  177.1010  144.3180 C   0  0  1  0  0  3  0  0  0  0  0  0
  190.8770  176.6900  145.5410 N   0  0  0  0  0  1  0  0  0  0  0  0
  188.5350  177.4030  145.7650 C   0  0  0  0  0  0  0  0  0  0  0  0
  187.7480  178.1710  147.9260 C   0  0  0  0  0  3  0  0  0  0  0  0
  189.8030  177.1920  146.3320 C   0  0  0  0  0  0  0  0  0  0  0  0
  189.0240  177.9500  148.4460 C   0  0  0  0  0  3  0  0  0  0  0  0
  187.5060  177.8960  146.5790 C   0  0  0  0  0  3  0  0  0  0  0  0
  190.0140  177.4690  147.6470 N   0  0  0  0  0  0  0  0  0  0  0  0
  186.7930  176.9240  144.0600 C   0  0  0  0  0  2  0  0  0  0  0  0
  186.2830  177.9990  143.1220 C   0  0  2  0  0  3  0  0  0  0  0  0
  185.3490  178.9230  143.8690 C   0  0  0  0  0  2  0  0  0  0  0  0
  184.7790  177.8450  142.9620 C   0  0  1  0  0  3  0  0  0  0  0  0
  185.4300  178.5830  139.4170 C   0  0  0  0  0  3  0  0  0  0  0  0
  183.0510  178.4650  141.3600 C   0  0  0  0  0  3  0  0  0  0  0  0
  183.0310  179.0420  138.9120 C   0  0  0  0  0  3  0  0  0  0  0  0
  184.3560  178.4160  141.6430 C   0  0  0  0  0  0  0  0  0  0  0  0
  184.3940  178.5860  138.5790 C   0  0  0  0  0  3  0  0  0  0  0  0
  182.4510  178.9930  140.1180 C   0  0  0  0  0  3  0  0  0  0  0  0
  185.3630  179.1370  140.8010 C   0  0  0  0  0  2  0  0  0  0  0  0
  188.8290  178.1610  143.4790 N   0  0  0  0  0  2  0  0  0  0  0  0
  191.1020  177.5070  142.0420 S   0  0  0  0  0  0  0  0  0  0  0  0
  189.4780  177.8950  142.2350 C   0  0  0  0  0  0  0  0  0  0  0  0
  191.0140  177.3640  140.3690 C   0  0  0  0  0  0  0  0  0  0  0  0
  188.8440  177.9310  141.0030 C   0  0  0  0  0  3  0  0  0  0  0  0
  189.7150  177.6290  139.9460 C   0  0  0  0  0  3  0  0  0  0  0  0
  192.1310  177.0060  139.4890 C   0  0  0  0  0  0  0  0  0  0  0  0
  193.3180  177.1870  139.8750 O   0  0  0  0  0  0  0  0  0  0  0  0
  191.8760  176.4710  138.2280 O   0  0  0  0  0  0  0  0  0  0  0  0
  189.3530  175.7870  137.1050 N   0  0  0  0  0  2  0  0  0  0  0  0
  191.5360  175.1460  138.0750 N   0  0  0  0  0  2  0  0  0  0  0  0
  189.9810  173.5550  137.4200 O   0  0  0  0  0  0  0  0  0  0  0  0
  190.2730  174.7750  137.5300 C   0  0  0  0  0  0  0  0  0  0  0  0
  188.2080  175.0380  135.2250 O   0  0  0  0  0  1  0  0  0  0  0  0
  187.3930  174.5420  137.2760 F   0  0  0  0  0  0  0  0  0  0  0  0
  188.0430  175.5070  136.5270 C   0  0  1  0  0  0  0  0  0  0  0  0
  187.2060  176.7730  136.4920 C   0  0  0  0  0  1  0  0  0  0  0  0
  1  9  1  1  0  0  0
  1  3  1  0  0  0  0
  2  5  1  0  0  0  0
  3  5  2  0  0  0  0
  3  7  1  0  0  0  0
  4  6  1  0  0  0  0
  5  8  1  0  0  0  0
  7  4  2  0  0  0  0
  8  6  2  0  0  0  0
 10 11  1  0  0  0  0
 10  9  1  1  0  0  0
 12 16  1  6  0  0  0
 12 10  1  0  0  0  0
 12 11  1  0  0  0  0
 13 19  1  0  0  0  0
 14 16  2  0  0  0  0
 15 18  2  0  0  0  0
 17 15  1  0  0  0  0
 17 13  2  0  0  0  0
 18 14  1  0  0  0  0
 19 16  1  0  0  0  0
 20  1  1  0  0  0  0
 21 22  1  0  0  0  0
 22 20  1  0  0  0  0
 23 21  1  0  0  0  0
 24 22  2  0  0  0  0
 25 23  2  0  0  0  0
 25 24  1  0  0  0  0
 26 27  2  0  0  0  0
 26 23  1  0  0  0  0
 28 26  1  0  0  0  0
 29 32  1  0  0  0  0
 30 28  1  0  0  0  0
 31 32  2  0  0  0  0
 32 30  1  0  0  0  0
 33 35  1  0  0  0  0
 35 36  1  6  0  0  0
 35 29  1  0  0  0  0
 35 34  1  0  0  0  0
M  END
>  <MODEL>
7

>  <REMARK>
 VINA RESULT:      -8.8      3.043      6.433
  Name = 
  10 active torsions:
  status: ('A' for Active; 'I' for Inactive)
    1  A    between atoms: C_2  and  O_13
    2  A    between atoms: C_2  and  C_19
    3  A    between atoms: C_4  and  C_31
    4  A    between atoms: C_7  and  C_8
    5  A    between atoms: C_7  and  C_31
    6  A    between atoms: N_11  and  C_33
    7  A    between atoms: O_13  and  N_16
    8  A    between atoms: C_15  and  C_32
    9  A    between atoms: C_17  and  N_22
   10  A    between atoms: N_22  and  C_31
                            x       y       z     vdW  Elec       q    Type
                         _______ _______ _______ _____ _____    ______ ____

>  <TORSDO>
F 10

$$$$
=
 OpenBabel11032420133D

 36 39  0  0  1  0  0  0  0  0999 V2000
  189.6510  176.9180  141.1410 C   0  0  1  0  0  3  0  0  0  0  0  0
  189.5960  175.7820  138.4780 N   0  0  0  0  0  1  0  0  0  0  0  0
  190.8550  176.9320  140.2490 C   0  0  0  0  0  0  0  0  0  0  0  0
  193.1770  177.5030  139.8490 C   0  0  0  0  0  3  0  0  0  0  0  0
  190.8000  176.3710  138.9620 C   0  0  0  0  0  0  0  0  0  0  0  0
  193.0760  176.9390  138.5770 C   0  0  0  0  0  3  0  0  0  0  0  0
  192.0610  177.4990  140.6860 C   0  0  0  0  0  3  0  0  0  0  0  0
  191.9020  176.3900  138.1650 N   0  0  0  0  0  0  0  0  0  0  0  0
  190.0370  176.4930  142.5530 C   0  0  0  0  0  2  0  0  0  0  0  0
  189.3600  177.3780  143.5810 C   0  0  2  0  0  3  0  0  0  0  0  0
  190.3940  177.9420  144.5260 C   0  0  0  0  0  2  0  0  0  0  0  0
  189.5400  176.7630  144.9600 C   0  0  1  0  0  3  0  0  0  0  0  0
  188.3200  178.2530  148.0950 C   0  0  0  0  0  3  0  0  0  0  0  0
  187.2640  177.5700  145.2910 C   0  0  0  0  0  3  0  0  0  0  0  0
  186.0220  178.6290  147.2030 C   0  0  0  0  0  3  0  0  0  0  0  0
  188.4210  177.2060  145.8520 C   0  0  0  0  0  0  0  0  0  0  0  0
  187.1830  178.9460  148.0570 C   0  0  0  0  0  3  0  0  0  0  0  0
  186.0570  178.0290  146.0060 C   0  0  0  0  0  3  0  0  0  0  0  0
  188.5340  176.9890  147.3300 C   0  0  0  0  0  2  0  0  0  0  0  0
  189.0180  178.2320  141.1550 N   0  0  0  0  0  2  0  0  0  0  0  0
  187.0110  178.2460  139.2490 S   0  0  0  0  0  0  0  0  0  0  0  0
  187.6500  178.4250  140.7930 C   0  0  0  0  0  0  0  0  0  0  0  0
  185.4390  178.6340  139.7030 C   0  0  0  0  0  0  0  0  0  0  0  0
  186.6550  178.8000  141.6830 C   0  0  0  0  0  3  0  0  0  0  0  0
  185.4020  178.9170  141.0650 C   0  0  0  0  0  3  0  0  0  0  0  0
  184.2810  178.6620  138.8040 C   0  0  0  0  0  0  0  0  0  0  0  0
  184.1360  177.7580  137.9360 O   0  0  0  0  0  0  0  0  0  0  0  0
  183.3460  179.6900  138.9100 O   0  0  0  0  0  0  0  0  0  0  0  0
  181.8890  179.3150  141.3250 N   0  0  0  0  0  2  0  0  0  0  0  0
  181.9960  179.4300  138.8560 N   0  0  0  0  0  2  0  0  0  0  0  0
  180.0150  178.9670  139.9700 O   0  0  0  0  0  0  0  0  0  0  0  0
  181.2450  179.2230  140.0500 C   0  0  0  0  0  0  0  0  0  0  0  0
  180.3920  180.2330  142.8490 O   0  0  0  0  0  1  0  0  0  0  0  0
  180.4210  177.9900  142.5530 F   0  0  0  0  0  0  0  0  0  0  0  0
  181.2060  179.1280  142.6010 C   0  0  1  0  0  0  0  0  0  0  0  0
  182.2190  179.0010  143.7230 C   0  0  0  0  0  1  0  0  0  0  0  0
  1 20  1  0  0  0  0
  1  9  1  1  0  0  0
  2  5  1  0  0  0  0
  3  7  1  0  0  0  0
  3  1  1  0  0  0  0
  4  7  2  0  0  0  0
  5  3  2  0  0  0  0
  6  4  1  0  0  0  0
  8  6  2  0  0  0  0
  8  5  1  0  0  0  0
 10  9  1  6  0  0  0
 10 11  1  0  0  0  0
 10 12  1  0  0  0  0
 11 12  1  0  0  0  0
 12 16  1  1  0  0  0
 14 16  2  0  0  0  0
 14 18  1  0  0  0  0
 15 17  1  0  0  0  0
 16 19  1  0  0  0  0
 17 13  2  0  0  0  0
 18 15  2  0  0  0  0
 19 13  1  0  0  0  0
 21 23  1  0  0  0  0
 21 22  1  0  0  0  0
 22 20  1  0  0  0  0
 22 24  2  0  0  0  0
 23 25  2  0  0  0  0
 25 24  1  0  0  0  0
 26 28  1  0  0  0  0
 26 23  1  0  0  0  0
 27 26  2  0  0  0  0
 29 35  1  0  0  0  0
 30 28  1  0  0  0  0
 30 32  1  0  0  0  0
 31 32  2  0  0  0  0
 32 29  1  0  0  0  0
 34 35  1  0  0  0  0
 35 33  1  0  0  0  0
 35 36  1  1  0  0  0
M  END
>  <MODEL>
8

>  <REMARK>
 VINA RESULT:      -8.7      3.954      8.520
  Name = 
  10 active torsions:
  status: ('A' for Active; 'I' for Inactive)
    1  A    between atoms: C_2  and  O_13
    2  A    between atoms: C_2  and  C_19
    3  A    between atoms: C_4  and  C_31
    4  A    between atoms: C_7  and  C_8
    5  A    between atoms: C_7  and  C_31
    6  A    between atoms: N_11  and  C_33
    7  A    between atoms: O_13  and  N_16
    8  A    between atoms: C_15  and  C_32
    9  A    between atoms: C_17  and  N_22
   10  A    between atoms: N_22  and  C_31
                            x       y       z     vdW  Elec       q    Type
                         _______ _______ _______ _____ _____    ______ ____

>  <TORSDO>
F 10

$$$$
=
 OpenBabel11032420133D

 36 39  0  0  1  0  0  0  0  0999 V2000
  184.0250  178.5670  139.9860 C   0  0  1  0  0  3  0  0  0  0  0  0
  181.5790  178.1860  141.4880 N   0  0  0  0  0  1  0  0  0  0  0  0
  182.7970  179.3850  139.7210 C   0  0  0  0  0  0  0  0  0  0  0  0
  181.6470  181.1220  138.4800 C   0  0  0  0  0  3  0  0  0  0  0  0
  181.6230  179.1770  140.4640 C   0  0  0  0  0  0  0  0  0  0  0  0
  180.5050  180.8840  139.2450 C   0  0  0  0  0  3  0  0  0  0  0  0
  182.7970  180.3690  138.7220 C   0  0  0  0  0  3  0  0  0  0  0  0
  180.5170  179.9260  140.2100 N   0  0  0  0  0  0  0  0  0  0  0  0
  184.6530  178.1070  138.6760 C   0  0  0  0  0  2  0  0  0  0  0  0
  186.1310  178.4410  138.6460 C   0  0  2  0  0  3  0  0  0  0  0  0
  186.5810  178.6250  137.2150 C   0  0  0  0  0  2  0  0  0  0  0  0
  186.8780  177.3220  137.9380 C   0  0  1  0  0  3  0  0  0  0  0  0
  189.3980  177.8710  140.5630 C   0  0  0  0  0  3  0  0  0  0  0  0
  189.1300  176.3920  137.8820 C   0  0  0  0  0  3  0  0  0  0  0  0
  191.1280  176.4970  139.4050 C   0  0  0  0  0  3  0  0  0  0  0  0
  188.2950  177.2840  138.4240 C   0  0  0  0  0  0  0  0  0  0  0  0
  190.4570  177.0620  140.5920 C   0  0  0  0  0  3  0  0  0  0  0  0
  190.5530  176.2100  138.2300 C   0  0  0  0  0  3  0  0  0  0  0  0
  188.8000  178.3910  139.2980 C   0  0  0  0  0  2  0  0  0  0  0  0
  184.9830  179.3350  140.7730 N   0  0  0  0  0  2  0  0  0  0  0  0
  184.7160  179.5220  143.5220 S   0  0  0  0  0  0  0  0  0  0  0  0
  185.3780  178.9450  142.0890 C   0  0  0  0  0  0  0  0  0  0  0  0
  185.7030  178.5920  144.5160 C   0  0  0  0  0  0  0  0  0  0  0  0
  186.3840  178.0300  142.3590 C   0  0  0  0  0  3  0  0  0  0  0  0
  186.5670  177.8300  143.7360 C   0  0  0  0  0  3  0  0  0  0  0  0
  185.6560  178.5790  145.9820 C   0  0  0  0  0  0  0  0  0  0  0  0
  184.5660  178.3520  146.5740 O   0  0  0  0  0  0  0  0  0  0  0  0
  186.8170  178.8210  146.7130 O   0  0  0  0  0  0  0  0  0  0  0  0
  189.2800  177.9850  145.5590 N   0  0  0  0  0  2  0  0  0  0  0  0
  187.5210  177.7880  147.2890 N   0  0  0  0  0  2  0  0  0  0  0  0
  189.3630  176.3780  147.2580 O   0  0  0  0  0  0  0  0  0  0  0  0
  188.7500  177.3390  146.7230 C   0  0  0  0  0  0  0  0  0  0  0  0
  191.5340  177.5140  145.8780 O   0  0  0  0  0  1  0  0  0  0  0  0
  190.3880  176.3760  144.2940 F   0  0  0  0  0  0  0  0  0  0  0  0
  190.5310  177.6040  144.9140 C   0  0  1  0  0  0  0  0  0  0  0  0
  190.9280  178.6490  143.8870 C   0  0  0  0  0  1  0  0  0  0  0  0
  1  9  1  6  0  0  0
  1 20  1  0  0  0  0
  3  1  1  0  0  0  0
  3  5  1  0  0  0  0
  4  7  1  0  0  0  0
  4  6  2  0  0  0  0
  5  2  1  0  0  0  0
  6  8  1  0  0  0  0
  7  3  2  0  0  0  0
  8  5  2  0  0  0  0
 10  9  1  6  0  0  0
 11 12  1  0  0  0  0
 11 10  1  0  0  0  0
 12 16  1  1  0  0  0
 12 10  1  0  0  0  0
 13 17  2  0  0  0  0
 14 18  1  0  0  0  0
 14 16  2  0  0  0  0
 15 17  1  0  0  0  0
 16 19  1  0  0  0  0
 18 15  2  0  0  0  0
 19 13  1  0  0  0  0
 20 22  1  0  0  0  0
 21 23  1  0  0  0  0
 22 24  2  0  0  0  0
 22 21  1  0  0  0  0
 23 26  1  0  0  0  0
 24 25  1  0  0  0  0
 25 23  2  0  0  0  0
 26 27  2  0  0  0  0
 26 28  1  0  0  0  0
 28 30  1  0  0  0  0
 29 32  1  0  0  0  0
 32 31  2  0  0  0  0
 32 30  1  0  0  0  0
 34 35  1  0  0  0  0
 35 36  1  6  0  0  0
 35 29  1  0  0  0  0
 35 33  1  0  0  0  0
M  END
>  <MODEL>
9

>  <REMARK>
 VINA RESULT:      -8.7      3.887      6.892
  Name = 
  10 active torsions:
  status: ('A' for Active; 'I' for Inactive)
    1  A    between atoms: C_2  and  O_13
    2  A    between atoms: C_2  and  C_19
    3  A    between atoms: C_4  and  C_31
    4  A    between atoms: C_7  and  C_8
    5  A    between atoms: C_7  and  C_31
    6  A    between atoms: N_11  and  C_33
    7  A    between atoms: O_13  and  N_16
    8  A    between atoms: C_15  and  C_32
    9  A    between atoms: C_17  and  N_22
   10  A    between atoms: N_22  and  C_31
                            x       y       z     vdW  Elec       q    Type
                         _______ _______ _______ _____ _____    ______ ____

>  <TORSDO>
F 10

$$$$
