=
 OpenBabel11042410183D

 48 48  0  0  1  0  0  0  0  0999 V2000
  188.9470  178.0850  142.2020 C   0  0  2  0  0  3  0  0  0  0  0  0
  190.7740  178.7930  143.7790 C   0  0  0  0  0  1  0  0  0  0  0  0
  189.8780  177.6420  143.3400 C   0  0  1  0  0  3  0  0  0  0  0  0
  189.1560  177.1460  144.4340 O   0  0  0  0  0  0  0  0  0  0  0  0
  189.4420  178.0310  145.4740 C   0  0  0  0  0  2  0  0  0  0  0  0
  188.3040  178.0460  146.4830 C   0  0  1  0  0  3  0  0  0  0  0  0
  187.0430  177.5240  145.8200 C   0  0  0  0  0  1  0  0  0  0  0  0
  189.6160  176.4230  147.6370 O   0  0  0  0  0  0  0  0  0  0  0  0
  187.9070  177.3430  148.8540 O   0  0  0  0  0  1  0  0  0  0  0  0
  188.6370  177.2140  147.6790 C   0  0  0  0  0  0  0  0  0  0  0  0
  187.5460  177.4990  142.3460 C   0  0  0  0  0  2  0  0  0  0  0  0
  186.5090  178.6100  142.3490 C   0  0  0  0  0  2  0  0  0  0  0  0
  185.1080  178.0320  142.2040 C   0  0  0  0  0  2  0  0  0  0  0  0
  184.1420  179.0560  141.6120 C   0  0  2  0  0  3  0  0  0  0  0  0
  182.6670  178.9010  143.7210 C   0  0  0  0  0  1  0  0  0  0  0  0
  181.7770  178.8930  141.5460 O   0  0  0  0  0  0  0  0  0  0  0  0
  182.7840  178.9470  142.2360 C   0  0  0  0  0  0  0  0  0  0  0  0
  184.3270  179.9810  139.4050 O   0  0  0  0  0  0  0  0  0  0  0  0
  184.0760  178.9690  140.1190 C   0  0  0  0  0  0  0  0  0  0  0  0
  183.6740  177.7380  139.5170 N   0  0  0  0  0  2  0  0  0  0  0  0
  183.5260  177.5660  138.0790 C   0  0  2  0  0  3  0  0  0  0  0  0
  182.0530  177.5580  137.6960 C   0  0  0  0  0  1  0  0  0  0  0  0
  184.1810  176.2930  137.6490 C   0  0  0  0  0  0  0  0  0  0  0  0
  185.1790  176.3170  136.9440 O   0  0  0  0  0  0  0  0  0  0  0  0
  183.5650  174.9850  138.0460 C   0  0  0  0  0  2  0  0  0  0  0  0
  184.9630  173.0290  137.9980 O   0  0  0  0  0  1  0  0  0  0  0  0
  184.0820  173.7980  137.2360 C   0  0  1  0  0  3  0  0  0  0  0  0
  182.9700  172.9510  136.7060 C   0  0  0  0  0  3  0  0  0  0  0  0
  181.8360  173.0980  137.1330 O   0  0  0  0  0  0  0  0  0  0  0  0
  189.5230  177.8350  140.7950 C   0  0  1  0  0  3  0  0  0  0  0  0
  190.6070  176.7640  140.7900 C   0  0  0  0  0  2  0  0  0  0  0  0
  191.8500  177.3150  140.4770 O   0  0  0  0  0  1  0  0  0  0  0  0
  188.5310  177.5440  139.8490 O   0  0  0  0  0  0  0  0  0  0  0  0
  188.6440  178.5390  138.8770 C   0  0  0  0  0  2  0  0  0  0  0  0
  188.2350  177.9690  137.5330 C   0  0  0  0  0  2  0  0  0  0  0  0
  195.7620  174.0660  138.7760 C   0  0  0  0  0  0  0  0  0  0  0  0
  191.1640  174.8010  136.5720 N   0  0  0  0  0  0  0  0  0  0  0  0
  196.7540  174.3300  139.5010 O   0  0  0  0  0  0  0  0  0  0  0  0
  190.5500  176.9780  137.3250 N   0  0  0  0  0  2  0  0  0  0  0  0
  191.5250  175.9730  137.0110 C   0  0  0  0  0  0  0  0  0  0  0  0
  195.5000  172.6450  138.4120 C   0  0  0  0  0  1  0  0  0  0  0  0
  189.1310  176.8380  137.1720 C   0  0  0  0  0  0  0  0  0  0  0  0
  192.9840  176.2940  137.1860 C   0  0  0  0  0  2  0  0  0  0  0  0
  192.1540  173.7940  136.1990 C   0  0  0  0  0  2  0  0  0  0  0  0
  188.6280  175.7740  136.7190 O   0  0  0  0  0  0  0  0  0  0  0  0
  193.7460  175.0400  137.5140 C   0  0  0  0  0  0  0  0  0  0  0  0
  193.3290  173.8900  137.0650 N   0  0  0  0  0  0  0  0  0  0  0  0
  194.9170  175.1380  138.3340 N   0  0  0  0  0  2  0  0  0  0  0  0
  1 11  1  6  0  0  0
  1  3  1  0  0  0  0
  3  2  1  1  0  0  0
  3  4  1  0  0  0  0
  4  5  1  0  0  0  0
  5  6  1  0  0  0  0
  6  7  1  6  0  0  0
  6 10  1  0  0  0  0
  8 10  2  0  0  0  0
 10  9  1  0  0  0  0
 11 12  1  0  0  0  0
 13 12  1  0  0  0  0
 14 13  1  1  0  0  0
 14 17  1  0  0  0  0
 16 17  2  0  0  0  0
 17 15  1  0  0  0  0
 18 19  2  0  0  0  0
 19 14  1  0  0  0  0
 20 19  1  0  0  0  0
 21 22  1  1  0  0  0
 21 20  1  0  0  0  0
 23 25  1  0  0  0  0
 23 21  1  0  0  0  0
 24 23  2  0  0  0  0
 27 26  1  1  0  0  0
 27 25  1  0  0  0  0
 28 29  2  0  0  0  0
 28 27  1  0  0  0  0
 30 31  1  1  0  0  0
 30  1  1  0  0  0  0
 32 31  1  0  0  0  0
 33 30  1  0  0  0  0
 34 33  1  0  0  0  0
 35 34  1  0  0  0  0
 36 38  2  0  0  0  0
 37 40  2  0  0  0  0
 40 43  1  0  0  0  0
 40 39  1  0  0  0  0
 41 36  1  0  0  0  0
 42 39  1  0  0  0  0
 42 35  1  0  0  0  0
 43 46  1  0  0  0  0
 44 37  1  0  0  0  0
 44 47  1  0  0  0  0
 45 42  2  0  0  0  0
 46 48  1  0  0  0  0
 47 46  2  0  0  0  0
 48 36  1  0  0  0  0
M  END
>  <MODEL>
1

>  <REMARK>
 VINA RESULT:      -6.8      0.000      0.000
  Name = 
  22 active torsions:
  status: ('A' for Active; 'I' for Inactive)
    1  A    between atoms: C_2  and  C_31
    2  A    between atoms: C_2  and  C_32
    3  A    between atoms: C_4  and  C_41
    4  A    between atoms: C_4  and  C_44
    5  A    between atoms: O_6  and  C_19
    6  A    between atoms: O_6  and  C_44
    7  A    between atoms: C_8  and  C_15
    8  A    between atoms: C_8  and  C_19
    9  A    between atoms: C_8  and  C_32
   10  A    between atoms: C_9  and  C_17
   11  A    between atoms: C_9  and  C_30
   12  A    between atoms: C_11  and  C_34
   13  A    between atoms: C_15  and  C_16
   14  A    between atoms: C_15  and  O_18
   15  A    between atoms: C_17  and  N_47
   16  A    between atoms: O_18  and  C_37
   17  A    between atoms: C_21  and  C_38
   18  A    between atoms: C_30  and  C_34
   19  A    between atoms: C_31  and  C_38
   20  A    between atoms: C_35  and  C_40
   21  A    between atoms: C_37  and  C_40
   22  A    between atoms: C_38  and  C_46
                            x       y       z     vdW  Elec       q    Type
                         _______ _______ _______ _____ _____    ______ ____

>  <TORSDO>
F 22

$$$$
=
 OpenBabel11042410183D

 48 48  0  0  1  0  0  0  0  0999 V2000
  190.0280  177.1780  138.7660 C   0  0  2  0  0  3  0  0  0  0  0  0
  190.5550  176.2440  136.4920 C   0  0  0  0  0  1  0  0  0  0  0  0
  190.3520  175.9090  137.9640 C   0  0  1  0  0  3  0  0  0  0  0  0
  191.4820  175.2530  138.4710 O   0  0  0  0  0  0  0  0  0  0  0  0
  192.4750  175.4730  137.5140 C   0  0  0  0  0  2  0  0  0  0  0  0
  193.4930  174.3450  137.5430 C   0  0  1  0  0  3  0  0  0  0  0  0
  193.4940  173.6390  136.2000 C   0  0  0  0  0  1  0  0  0  0  0  0
  195.2100  175.0340  139.0480 O   0  0  0  0  0  1  0  0  0  0  0  0
  195.7680  175.1110  136.8270 O   0  0  0  0  0  0  0  0  0  0  0  0
  194.8610  174.8640  137.8500 C   0  0  0  0  0  0  0  0  0  0  0  0
  190.7420  177.2020  140.1140 C   0  0  0  0  0  2  0  0  0  0  0  0
  189.7390  177.0450  141.2440 C   0  0  0  0  0  2  0  0  0  0  0  0
  190.2930  176.1280  142.3250 C   0  0  0  0  0  2  0  0  0  0  0  0
  190.9500  176.9260  143.4500 C   0  0  2  0  0  3  0  0  0  0  0  0
  191.7830  176.4570  145.8440 C   0  0  0  0  0  1  0  0  0  0  0  0
  192.0890  174.9420  144.0740 O   0  0  0  0  0  0  0  0  0  0  0  0
  191.6410  176.0230  144.4260 C   0  0  0  0  0  0  0  0  0  0  0  0
  190.2580  179.0640  144.2930 O   0  0  0  0  0  0  0  0  0  0  0  0
  189.9800  177.8420  144.1300 C   0  0  0  0  0  0  0  0  0  0  0  0
  188.7600  177.3000  144.6380 N   0  0  0  0  0  2  0  0  0  0  0  0
  187.7780  178.0930  145.3610 C   0  0  2  0  0  3  0  0  0  0  0  0
  187.7720  177.7130  146.8350 C   0  0  0  0  0  1  0  0  0  0  0  0
  186.4220  177.8890  144.7670 C   0  0  0  0  0  0  0  0  0  0  0  0
  185.4360  177.8050  145.4850 O   0  0  0  0  0  0  0  0  0  0  0  0
  186.2920  177.7310  143.2810 C   0  0  0  0  0  2  0  0  0  0  0  0
  184.9890  179.7520  143.2480 O   0  0  0  0  0  1  0  0  0  0  0  0
  185.0960  178.4760  142.6930 C   0  0  1  0  0  3  0  0  0  0  0  0
  185.1620  178.5570  141.2010 C   0  0  0  0  0  3  0  0  0  0  0  0
  185.2070  179.6460  140.6520 O   0  0  0  0  0  0  0  0  0  0  0  0
  188.5190  177.4470  138.9210 C   0  0  1  0  0  3  0  0  0  0  0  0
  188.1250  178.8440  138.4560 C   0  0  0  0  0  2  0  0  0  0  0  0
  189.1340  179.4130  137.6780 O   0  0  0  0  0  1  0  0  0  0  0  0
  187.7290  176.4720  138.2950 O   0  0  0  0  0  0  0  0  0  0  0  0
  186.8370  177.1790  137.4890 C   0  0  0  0  0  2  0  0  0  0  0  0
  185.8680  176.2070  136.8480 C   0  0  0  0  0  2  0  0  0  0  0  0
  180.0470  180.2350  141.6770 C   0  0  0  0  0  0  0  0  0  0  0  0
  181.7800  177.7510  137.5090 N   0  0  0  0  0  0  0  0  0  0  0  0
  180.0710  180.6850  142.8490 O   0  0  0  0  0  0  0  0  0  0  0  0
  183.8660  176.8630  138.2430 N   0  0  0  0  0  2  0  0  0  0  0  0
  182.5390  177.3480  138.4880 C   0  0  0  0  0  0  0  0  0  0  0  0
  179.1240  180.8620  140.6880 C   0  0  0  0  0  1  0  0  0  0  0  0
  184.4810  176.7330  136.9540 C   0  0  0  0  0  0  0  0  0  0  0  0
  182.0240  177.3800  139.9010 C   0  0  0  0  0  2  0  0  0  0  0  0
  180.4080  178.1940  137.7470 C   0  0  0  0  0  2  0  0  0  0  0  0
  183.8580  177.0440  135.9030 O   0  0  0  0  0  0  0  0  0  0  0  0
  181.0310  178.4990  140.0570 C   0  0  0  0  0  0  0  0  0  0  0  0
  180.3110  178.8750  139.0390 N   0  0  0  0  0  0  0  0  0  0  0  0
  180.9100  179.1420  141.3320 N   0  0  0  0  0  2  0  0  0  0  0  0
  1 30  1  0  0  0  0
  1 11  1  1  0  0  0
  3  2  1  6  0  0  0
  3  4  1  0  0  0  0
  3  1  1  0  0  0  0
  5  6  1  0  0  0  0
  5  4  1  0  0  0  0
  6  7  1  6  0  0  0
  6 10  1  0  0  0  0
  9 10  2  0  0  0  0
 10  8  1  0  0  0  0
 11 12  1  0  0  0  0
 12 13  1  0  0  0  0
 14 13  1  6  0  0  0
 14 19  1  0  0  0  0
 14 17  1  0  0  0  0
 16 17  2  0  0  0  0
 17 15  1  0  0  0  0
 19 18  2  0  0  0  0
 19 20  1  0  0  0  0
 20 21  1  0  0  0  0
 21 22  1  1  0  0  0
 23 21  1  0  0  0  0
 23 24  2  0  0  0  0
 25 23  1  0  0  0  0
 27 26  1  1  0  0  0
 27 25  1  0  0  0  0
 28 27  1  0  0  0  0
 29 28  2  0  0  0  0
 30 31  1  6  0  0  0
 32 31  1  0  0  0  0
 33 30  1  0  0  0  0
 34 33  1  0  0  0  0
 35 42  1  0  0  0  0
 35 34  1  0  0  0  0
 36 38  2  0  0  0  0
 37 44  1  0  0  0  0
 37 40  2  0  0  0  0
 39 40  1  0  0  0  0
 40 43  1  0  0  0  0
 41 36  1  0  0  0  0
 42 39  1  0  0  0  0
 43 46  1  0  0  0  0
 44 47  1  0  0  0  0
 45 42  2  0  0  0  0
 46 48  1  0  0  0  0
 47 46  2  0  0  0  0
 48 36  1  0  0  0  0
M  END
>  <MODEL>
2

>  <REMARK>
 VINA RESULT:      -6.5      3.162      9.520
  Name = 
  22 active torsions:
  status: ('A' for Active; 'I' for Inactive)
    1  A    between atoms: C_2  and  C_31
    2  A    between atoms: C_2  and  C_32
    3  A    between atoms: C_4  and  C_41
    4  A    between atoms: C_4  and  C_44
    5  A    between atoms: O_6  and  C_19
    6  A    between atoms: O_6  and  C_44
    7  A    between atoms: C_8  and  C_15
    8  A    between atoms: C_8  and  C_19
    9  A    between atoms: C_8  and  C_32
   10  A    between atoms: C_9  and  C_17
   11  A    between atoms: C_9  and  C_30
   12  A    between atoms: C_11  and  C_34
   13  A    between atoms: C_15  and  C_16
   14  A    between atoms: C_15  and  O_18
   15  A    between atoms: C_17  and  N_47
   16  A    between atoms: O_18  and  C_37
   17  A    between atoms: C_21  and  C_38
   18  A    between atoms: C_30  and  C_34
   19  A    between atoms: C_31  and  C_38
   20  A    between atoms: C_35  and  C_40
   21  A    between atoms: C_37  and  C_40
   22  A    between atoms: C_38  and  C_46
                            x       y       z     vdW  Elec       q    Type
                         _______ _______ _______ _____ _____    ______ ____

>  <TORSDO>
F 22

$$$$
=
 OpenBabel11042410183D

 48 48  0  0  1  0  0  0  0  0999 V2000
  190.3880  177.2920  142.1550 C   0  0  2  0  0  3  0  0  0  0  0  0
  191.0370  178.9760  143.9060 C   0  0  0  0  0  1  0  0  0  0  0  0
  191.2640  177.5630  143.3870 C   0  0  1  0  0  3  0  0  0  0  0  0
  191.0250  176.6290  144.4040 O   0  0  0  0  0  0  0  0  0  0  0  0
  190.9340  177.3930  145.5680 C   0  0  0  0  0  2  0  0  0  0  0  0
  190.5400  176.5160  146.7460 C   0  0  1  0  0  3  0  0  0  0  0  0
  191.7720  176.2100  147.5740 C   0  0  0  0  0  1  0  0  0  0  0  0
  189.8480  178.1030  148.3860 O   0  0  0  0  0  1  0  0  0  0  0  0
  188.1650  176.8430  147.4730 O   0  0  0  0  0  0  0  0  0  0  0  0
  189.5070  177.1860  147.5920 C   0  0  0  0  0  0  0  0  0  0  0  0
  191.0030  177.8580  140.8780 C   0  0  0  0  0  2  0  0  0  0  0  0
  191.5310  176.7320  140.0050 C   0  0  0  0  0  2  0  0  0  0  0  0
  191.0560  176.9030  138.5690 C   0  0  0  0  0  2  0  0  0  0  0  0
  190.1430  175.7550  138.1440 C   0  0  2  0  0  3  0  0  0  0  0  0
  192.3810  174.8100  137.2800 C   0  0  0  0  0  1  0  0  0  0  0  0
  190.4030  173.5430  137.3280 O   0  0  0  0  0  0  0  0  0  0  0  0
  190.9320  174.6180  137.5670 C   0  0  0  0  0  0  0  0  0  0  0  0
  189.3480  176.8590  136.1670 O   0  0  0  0  0  0  0  0  0  0  0  0
  189.0620  176.2100  137.2140 C   0  0  0  0  0  0  0  0  0  0  0  0
  187.7010  175.9450  137.5550 N   0  0  0  0  0  2  0  0  0  0  0  0
  186.5770  176.3930  136.7460 C   0  0  2  0  0  3  0  0  0  0  0  0
  185.6670  177.3010  137.5610 C   0  0  0  0  0  1  0  0  0  0  0  0
  185.8130  175.2120  136.2390 C   0  0  0  0  0  0  0  0  0  0  0  0
  184.9000  175.3610  135.4410 O   0  0  0  0  0  0  0  0  0  0  0  0
  186.1440  173.8480  136.7660 C   0  0  0  0  0  2  0  0  0  0  0  0
  184.1110  174.2070  137.9990 O   0  0  0  0  0  1  0  0  0  0  0  0
  185.0220  173.2280  137.5970 C   0  0  1  0  0  3  0  0  0  0  0  0
  184.3220  172.1290  136.8650 C   0  0  0  0  0  3  0  0  0  0  0  0
  183.1900  171.8060  137.1890 O   0  0  0  0  0  0  0  0  0  0  0  0
  188.9240  177.7400  142.3230 C   0  0  1  0  0  3  0  0  0  0  0  0
  188.5030  178.7640  141.2760 C   0  0  0  0  0  2  0  0  0  0  0  0
  187.6180  178.2020  140.3560 O   0  0  0  0  0  1  0  0  0  0  0  0
  188.0290  176.6610  142.3530 O   0  0  0  0  0  0  0  0  0  0  0  0
  187.7010  176.4890  143.6980 C   0  0  0  0  0  2  0  0  0  0  0  0
  187.4280  177.8430  144.3200 C   0  0  0  0  0  2  0  0  0  0  0  0
  180.2630  177.2720  139.6550 C   0  0  0  0  0  0  0  0  0  0  0  0
  183.1590  178.7680  143.6450 N   0  0  0  0  0  0  0  0  0  0  0  0
  180.0110  176.7730  138.5300 O   0  0  0  0  0  0  0  0  0  0  0  0
  185.3730  178.2750  142.9140 N   0  0  0  0  0  2  0  0  0  0  0  0
  183.9960  178.5860  142.6630 C   0  0  0  0  0  0  0  0  0  0  0  0
  179.1650  177.3600  140.6600 C   0  0  0  0  0  1  0  0  0  0  0  0
  185.9800  178.1660  144.2090 C   0  0  0  0  0  0  0  0  0  0  0  0
  183.5240  178.7080  141.2400 C   0  0  0  0  0  2  0  0  0  0  0  0
  181.7680  179.1380  143.3960 C   0  0  0  0  0  2  0  0  0  0  0  0
  185.3090  178.3560  145.2590 O   0  0  0  0  0  0  0  0  0  0  0  0
  182.0740  178.3190  141.1480 C   0  0  0  0  0  0  0  0  0  0  0  0
  181.2850  178.5050  142.1680 N   0  0  0  0  0  0  0  0  0  0  0  0
  181.5930  177.7300  139.9330 N   0  0  0  0  0  2  0  0  0  0  0  0
  1 11  1  6  0  0  0
  1 30  1  0  0  0  0
  1  3  1  0  0  0  0
  3  2  1  1  0  0  0
  3  4  1  0  0  0  0
  4  5  1  0  0  0  0
  5  6  1  0  0  0  0
  6  7  1  1  0  0  0
  6 10  1  0  0  0  0
  9 10  2  0  0  0  0
 10  8  1  0  0  0  0
 12 11  1  0  0  0  0
 13 12  1  0  0  0  0
 14 13  1  6  0  0  0
 15 17  1  0  0  0  0
 16 17  2  0  0  0  0
 17 14  1  0  0  0  0
 18 19  2  0  0  0  0
 19 20  1  0  0  0  0
 19 14  1  0  0  0  0
 21 20  1  0  0  0  0
 21 22  1  1  0  0  0
 23 21  1  0  0  0  0
 23 25  1  0  0  0  0
 24 23  2  0  0  0  0
 25 27  1  0  0  0  0
 27 26  1  6  0  0  0
 28 29  2  0  0  0  0
 28 27  1  0  0  0  0
 30 31  1  6  0  0  0
 30 33  1  0  0  0  0
 32 31  1  0  0  0  0
 33 34  1  0  0  0  0
 34 35  1  0  0  0  0
 36 48  1  0  0  0  0
 36 41  1  0  0  0  0
 38 36  2  0  0  0  0
 39 42  1  0  0  0  0
 40 39  1  0  0  0  0
 40 37  2  0  0  0  0
 42 35  1  0  0  0  0
 42 45  2  0  0  0  0
 43 40  1  0  0  0  0
 44 37  1  0  0  0  0
 46 43  1  0  0  0  0
 46 47  2  0  0  0  0
 47 44  1  0  0  0  0
 48 46  1  0  0  0  0
M  END
>  <MODEL>
3

>  <REMARK>
 VINA RESULT:      -6.5      2.634      7.872
  Name = 
  22 active torsions:
  status: ('A' for Active; 'I' for Inactive)
    1  A    between atoms: C_2  and  C_31
    2  A    between atoms: C_2  and  C_32
    3  A    between atoms: C_4  and  C_41
    4  A    between atoms: C_4  and  C_44
    5  A    between atoms: O_6  and  C_19
    6  A    between atoms: O_6  and  C_44
    7  A    between atoms: C_8  and  C_15
    8  A    between atoms: C_8  and  C_19
    9  A    between atoms: C_8  and  C_32
   10  A    between atoms: C_9  and  C_17
   11  A    between atoms: C_9  and  C_30
   12  A    between atoms: C_11  and  C_34
   13  A    between atoms: C_15  and  C_16
   14  A    between atoms: C_15  and  O_18
   15  A    between atoms: C_17  and  N_47
   16  A    between atoms: O_18  and  C_37
   17  A    between atoms: C_21  and  C_38
   18  A    between atoms: C_30  and  C_34
   19  A    between atoms: C_31  and  C_38
   20  A    between atoms: C_35  and  C_40
   21  A    between atoms: C_37  and  C_40
   22  A    between atoms: C_38  and  C_46
                            x       y       z     vdW  Elec       q    Type
                         _______ _______ _______ _____ _____    ______ ____

>  <TORSDO>
F 22

$$$$
=
 OpenBabel11042410183D

 48 48  0  0  1  0  0  0  0  0999 V2000
  186.8700  178.0120  139.7880 C   0  0  2  0  0  3  0  0  0  0  0  0
  184.9120  178.2790  138.2330 C   0  0  0  0  0  1  0  0  0  0  0  0
  185.5160  178.7010  139.5660 C   0  0  1  0  0  3  0  0  0  0  0  0
  184.6220  178.4280  140.6110 O   0  0  0  0  0  0  0  0  0  0  0  0
  183.3890  178.8910  140.1470 C   0  0  0  0  0  2  0  0  0  0  0  0
  182.2580  178.0800  140.7590 C   0  0  1  0  0  3  0  0  0  0  0  0
  181.7440  178.7920  141.9950 C   0  0  0  0  0  1  0  0  0  0  0  0
  180.1800  178.6950  139.7650 O   0  0  0  0  0  1  0  0  0  0  0  0
  181.1940  176.8560  138.8490 O   0  0  0  0  0  0  0  0  0  0  0  0
  181.1460  177.8880  139.7790 C   0  0  0  0  0  0  0  0  0  0  0  0
  187.6570  178.6460  140.9300 C   0  0  0  0  0  2  0  0  0  0  0  0
  187.3620  177.9270  142.2360 C   0  0  0  0  0  2  0  0  0  0  0  0
  188.5090  176.9960  142.6030 C   0  0  0  0  0  2  0  0  0  0  0  0
  189.7940  177.7770  142.8730 C   0  0  2  0  0  3  0  0  0  0  0  0
  191.6480  177.3140  141.1410 C   0  0  0  0  0  1  0  0  0  0  0  0
  191.4600  176.1120  143.1510 O   0  0  0  0  0  0  0  0  0  0  0  0
  191.0020  176.9990  142.4460 C   0  0  0  0  0  0  0  0  0  0  0  0
  190.7480  179.0840  144.6450 O   0  0  0  0  0  0  0  0  0  0  0  0
  189.8940  178.2190  144.3000 C   0  0  0  0  0  0  0  0  0  0  0  0
  189.0440  177.6100  145.2720 N   0  0  0  0  0  2  0  0  0  0  0  0
  189.1010  177.9300  146.6900 C   0  0  2  0  0  3  0  0  0  0  0  0
  190.1390  177.0620  147.3880 C   0  0  0  0  0  1  0  0  0  0  0  0
  187.7550  177.7300  147.3110 C   0  0  0  0  0  0  0  0  0  0  0  0
  187.6300  177.7130  148.5260 O   0  0  0  0  0  0  0  0  0  0  0  0
  186.5700  177.4940  146.4230 C   0  0  0  0  0  2  0  0  0  0  0  0
  185.7460  179.6320  147.1540 O   0  0  0  0  0  1  0  0  0  0  0  0
  185.3540  178.3410  146.7940 C   0  0  1  0  0  3  0  0  0  0  0  0
  184.3440  178.3870  145.6930 C   0  0  0  0  0  3  0  0  0  0  0  0
  183.7800  179.4360  145.4280 O   0  0  0  0  0  0  0  0  0  0  0  0
  187.7240  177.8940  138.5110 C   0  0  1  0  0  3  0  0  0  0  0  0
  189.0150  178.6990  138.5960 C   0  0  0  0  0  2  0  0  0  0  0  0
  188.9660  179.8100  137.7530 O   0  0  0  0  0  1  0  0  0  0  0  0
  187.9890  176.5630  138.1580 O   0  0  0  0  0  0  0  0  0  0  0  0
  187.9390  176.5320  136.7640 C   0  0  0  0  0  2  0  0  0  0  0  0
  187.9690  175.0910  136.2970 C   0  0  0  0  0  2  0  0  0  0  0  0
  196.1070  174.4120  138.8970 C   0  0  0  0  0  0  0  0  0  0  0  0
  192.2180  174.1460  135.5270 N   0  0  0  0  0  0  0  0  0  0  0  0
  196.6880  174.6960  139.9730 O   0  0  0  0  0  0  0  0  0  0  0  0
  190.4630  175.3120  136.6410 N   0  0  0  0  0  2  0  0  0  0  0  0
  191.8500  175.0350  136.4050 C   0  0  0  0  0  0  0  0  0  0  0  0
  196.6730  173.3290  138.0420 C   0  0  0  0  0  1  0  0  0  0  0  0
  189.3630  174.7020  135.9520 C   0  0  0  0  0  0  0  0  0  0  0  0
  192.8880  175.7960  137.1840 C   0  0  0  0  0  2  0  0  0  0  0  0
  193.6300  173.8990  135.2440 C   0  0  0  0  0  2  0  0  0  0  0  0
  189.5580  173.8490  135.0440 O   0  0  0  0  0  0  0  0  0  0  0  0
  194.1180  174.9490  137.3600 C   0  0  0  0  0  0  0  0  0  0  0  0
  194.4280  174.0600  136.4600 N   0  0  0  0  0  0  0  0  0  0  0  0
  194.9200  175.1300  138.5340 N   0  0  0  0  0  2  0  0  0  0  0  0
  1 11  1  1  0  0  0
  3  2  1  6  0  0  0
  3  1  1  0  0  0  0
  3  4  1  0  0  0  0
  5  4  1  0  0  0  0
  5  6  1  0  0  0  0
  6  7  1  1  0  0  0
  8 10  1  0  0  0  0
  9 10  2  0  0  0  0
 10  6  1  0  0  0  0
 11 12  1  0  0  0  0
 12 13  1  0  0  0  0
 14 13  1  1  0  0  0
 14 19  1  0  0  0  0
 15 17  1  0  0  0  0
 17 14  1  0  0  0  0
 17 16  2  0  0  0  0
 19 18  2  0  0  0  0
 19 20  1  0  0  0  0
 20 21  1  0  0  0  0
 21 23  1  0  0  0  0
 21 22  1  1  0  0  0
 23 24  2  0  0  0  0
 25 27  1  0  0  0  0
 25 23  1  0  0  0  0
 27 26  1  6  0  0  0
 28 27  1  0  0  0  0
 29 28  2  0  0  0  0
 30 31  1  1  0  0  0
 30  1  1  0  0  0  0
 32 31  1  0  0  0  0
 33 30  1  0  0  0  0
 34 33  1  0  0  0  0
 35 34  1  0  0  0  0
 36 38  2  0  0  0  0
 37 40  2  0  0  0  0
 40 39  1  0  0  0  0
 40 43  1  0  0  0  0
 41 36  1  0  0  0  0
 42 35  1  0  0  0  0
 42 39  1  0  0  0  0
 43 46  1  0  0  0  0
 44 37  1  0  0  0  0
 44 47  1  0  0  0  0
 45 42  2  0  0  0  0
 46 48  1  0  0  0  0
 47 46  2  0  0  0  0
 48 36  1  0  0  0  0
M  END
>  <MODEL>
4

>  <REMARK>
 VINA RESULT:      -6.5      2.338      7.083
  Name = 
  22 active torsions:
  status: ('A' for Active; 'I' for Inactive)
    1  A    between atoms: C_2  and  C_31
    2  A    between atoms: C_2  and  C_32
    3  A    between atoms: C_4  and  C_41
    4  A    between atoms: C_4  and  C_44
    5  A    between atoms: O_6  and  C_19
    6  A    between atoms: O_6  and  C_44
    7  A    between atoms: C_8  and  C_15
    8  A    between atoms: C_8  and  C_19
    9  A    between atoms: C_8  and  C_32
   10  A    between atoms: C_9  and  C_17
   11  A    between atoms: C_9  and  C_30
   12  A    between atoms: C_11  and  C_34
   13  A    between atoms: C_15  and  C_16
   14  A    between atoms: C_15  and  O_18
   15  A    between atoms: C_17  and  N_47
   16  A    between atoms: O_18  and  C_37
   17  A    between atoms: C_21  and  C_38
   18  A    between atoms: C_30  and  C_34
   19  A    between atoms: C_31  and  C_38
   20  A    between atoms: C_35  and  C_40
   21  A    between atoms: C_37  and  C_40
   22  A    between atoms: C_38  and  C_46
                            x       y       z     vdW  Elec       q    Type
                         _______ _______ _______ _____ _____    ______ ____

>  <TORSDO>
F 22

$$$$
=
 OpenBabel11042410183D

 48 48  0  0  1  0  0  0  0  0999 V2000
  188.9690  178.1070  142.9020 C   0  0  2  0  0  3  0  0  0  0  0  0
  188.5590  175.6540  143.2740 C   0  0  0  0  0  1  0  0  0  0  0  0
  188.4610  177.0450  143.8870 C   0  0  1  0  0  3  0  0  0  0  0  0
  189.1630  177.0890  145.1000 O   0  0  0  0  0  0  0  0  0  0  0  0
  188.5620  178.1260  145.8160 C   0  0  0  0  0  2  0  0  0  0  0  0
  187.3500  177.6100  146.5740 C   0  0  1  0  0  3  0  0  0  0  0  0
  187.6580  177.5980  148.0590 C   0  0  0  0  0  1  0  0  0  0  0  0
  185.3240  178.1100  145.4210 O   0  0  0  0  0  0  0  0  0  0  0  0
  185.9070  179.5980  147.0630 O   0  0  0  0  0  1  0  0  0  0  0  0
  186.1490  178.4580  146.3070 C   0  0  0  0  0  0  0  0  0  0  0  0
  188.0020  178.3210  141.7410 C   0  0  0  0  0  2  0  0  0  0  0  0
  186.7360  179.0040  142.2290 C   0  0  0  0  0  2  0  0  0  0  0  0
  185.5090  178.1900  141.8470 C   0  0  0  0  0  2  0  0  0  0  0  0
  184.4130  179.0760  141.2580 C   0  0  2  0  0  3  0  0  0  0  0  0
  182.5570  178.8650  143.0350 C   0  0  0  0  0  1  0  0  0  0  0  0
  182.3450  177.9830  140.8680 O   0  0  0  0  0  0  0  0  0  0  0  0
  183.0510  178.5940  141.6560 C   0  0  0  0  0  0  0  0  0  0  0  0
  184.0660  180.2260  139.1800 O   0  0  0  0  0  0  0  0  0  0  0  0
  184.5410  179.2160  139.7730 C   0  0  0  0  0  0  0  0  0  0  0  0
  185.1620  178.1650  139.0320 N   0  0  0  0  0  2  0  0  0  0  0  0
  185.2850  178.1790  137.5820 C   0  0  2  0  0  3  0  0  0  0  0  0
  184.4590  177.0580  136.9690 C   0  0  0  0  0  1  0  0  0  0  0  0
  186.7220  178.0380  137.1930 C   0  0  0  0  0  0  0  0  0  0  0  0
  187.5890  178.6670  137.7820 O   0  0  0  0  0  0  0  0  0  0  0  0
  187.0810  177.1590  136.0320 C   0  0  0  0  0  2  0  0  0  0  0  0
  187.8830  175.0290  136.8100 O   0  0  0  0  0  1  0  0  0  0  0  0
  188.2890  176.2630  136.2990 C   0  0  1  0  0  3  0  0  0  0  0  0
  189.1290  176.0730  135.0770 C   0  0  0  0  0  3  0  0  0  0  0  0
  190.2610  176.5280  135.0390 O   0  0  0  0  0  0  0  0  0  0  0  0
  190.4050  177.8570  142.4040 C   0  0  1  0  0  3  0  0  0  0  0  0
  191.4150  177.7980  143.5430 C   0  0  0  0  0  2  0  0  0  0  0  0
  191.7430  179.0800  143.9870 O   0  0  0  0  0  1  0  0  0  0  0  0
  190.5050  176.7210  141.5890 O   0  0  0  0  0  0  0  0  0  0  0  0
  191.3230  177.0990  140.5250 C   0  0  0  0  0  2  0  0  0  0  0  0
  190.5660  176.9140  139.2250 C   0  0  0  0  0  2  0  0  0  0  0  0
  198.0470  174.9220  135.5500 C   0  0  0  0  0  0  0  0  0  0  0  0
  193.0130  174.4130  136.5240 N   0  0  0  0  0  0  0  0  0  0  0  0
  199.1800  175.4620  135.5690 O   0  0  0  0  0  0  0  0  0  0  0  0
  192.4730  176.4540  137.6320 N   0  0  0  0  0  2  0  0  0  0  0  0
  193.2780  175.6700  136.7410 C   0  0  0  0  0  0  0  0  0  0  0  0
  197.9590  173.4520  135.3180 C   0  0  0  0  0  1  0  0  0  0  0  0
  191.3120  175.9860  138.3340 C   0  0  0  0  0  0  0  0  0  0  0  0
  194.4410  176.3240  136.0450 C   0  0  0  0  0  2  0  0  0  0  0  0
  193.7970  173.6260  135.5760 C   0  0  0  0  0  2  0  0  0  0  0  0
  190.9030  174.8020  138.1960 O   0  0  0  0  0  0  0  0  0  0  0  0
  195.5160  175.3060  135.7800 C   0  0  0  0  0  0  0  0  0  0  0  0
  195.1950  174.0570  135.5900 N   0  0  0  0  0  0  0  0  0  0  0  0
  196.8830  175.7340  135.7590 N   0  0  0  0  0  2  0  0  0  0  0  0
  1 11  1  6  0  0  0
  1  3  1  0  0  0  0
  3  2  1  6  0  0  0
  3  4  1  0  0  0  0
  4  5  1  0  0  0  0
  5  6  1  0  0  0  0
  6  7  1  1  0  0  0
  8 10  2  0  0  0  0
 10  6  1  0  0  0  0
 10  9  1  0  0  0  0
 11 12  1  0  0  0  0
 13 12  1  0  0  0  0
 14 17  1  0  0  0  0
 14 13  1  6  0  0  0
 16 17  2  0  0  0  0
 17 15  1  0  0  0  0
 18 19  2  0  0  0  0
 19 14  1  0  0  0  0
 20 19  1  0  0  0  0
 21 22  1  6  0  0  0
 21 20  1  0  0  0  0
 23 21  1  0  0  0  0
 23 24  2  0  0  0  0
 25 27  1  0  0  0  0
 25 23  1  0  0  0  0
 27 26  1  6  0  0  0
 28 27  1  0  0  0  0
 29 28  2  0  0  0  0
 30  1  1  0  0  0  0
 30 31  1  1  0  0  0
 31 32  1  0  0  0  0
 33 30  1  0  0  0  0
 34 33  1  0  0  0  0
 35 34  1  0  0  0  0
 36 38  2  0  0  0  0
 36 48  1  0  0  0  0
 37 40  2  0  0  0  0
 39 42  1  0  0  0  0
 40 39  1  0  0  0  0
 41 36  1  0  0  0  0
 42 35  1  0  0  0  0
 43 40  1  0  0  0  0
 44 47  1  0  0  0  0
 44 37  1  0  0  0  0
 45 42  2  0  0  0  0
 46 43  1  0  0  0  0
 47 46  2  0  0  0  0
 48 46  1  0  0  0  0
M  END
>  <MODEL>
5

>  <REMARK>
 VINA RESULT:      -6.4      2.211      3.158
  Name = 
  22 active torsions:
  status: ('A' for Active; 'I' for Inactive)
    1  A    between atoms: C_2  and  C_31
    2  A    between atoms: C_2  and  C_32
    3  A    between atoms: C_4  and  C_41
    4  A    between atoms: C_4  and  C_44
    5  A    between atoms: O_6  and  C_19
    6  A    between atoms: O_6  and  C_44
    7  A    between atoms: C_8  and  C_15
    8  A    between atoms: C_8  and  C_19
    9  A    between atoms: C_8  and  C_32
   10  A    between atoms: C_9  and  C_17
   11  A    between atoms: C_9  and  C_30
   12  A    between atoms: C_11  and  C_34
   13  A    between atoms: C_15  and  C_16
   14  A    between atoms: C_15  and  O_18
   15  A    between atoms: C_17  and  N_47
   16  A    between atoms: O_18  and  C_37
   17  A    between atoms: C_21  and  C_38
   18  A    between atoms: C_30  and  C_34
   19  A    between atoms: C_31  and  C_38
   20  A    between atoms: C_35  and  C_40
   21  A    between atoms: C_37  and  C_40
   22  A    between atoms: C_38  and  C_46
                            x       y       z     vdW  Elec       q    Type
                         _______ _______ _______ _____ _____    ______ ____

>  <TORSDO>
F 22

$$$$
=
 OpenBabel11042410183D

 48 48  0  0  1  0  0  0  0  0999 V2000
  188.7500  176.7590  138.4780 C   0  0  2  0  0  3  0  0  0  0  0  0
  191.1940  176.2270  138.2130 C   0  0  0  0  0  1  0  0  0  0  0  0
  190.0710  176.4810  139.2100 C   0  0  1  0  0  3  0  0  0  0  0  0
  190.4150  177.5340  140.0690 O   0  0  0  0  0  0  0  0  0  0  0  0
  191.4250  177.0110  140.8790 C   0  0  0  0  0  2  0  0  0  0  0  0
  191.1960  177.4080  142.3290 C   0  0  1  0  0  3  0  0  0  0  0  0
  189.9350  178.2450  142.4240 C   0  0  0  0  0  1  0  0  0  0  0  0
  190.3870  175.2190  142.8210 O   0  0  0  0  0  0  0  0  0  0  0  0
  191.7650  176.1320  144.4080 O   0  0  0  0  0  1  0  0  0  0  0  0
  191.0780  176.2010  143.2030 C   0  0  0  0  0  0  0  0  0  0  0  0
  188.7080  176.1000  137.1020 C   0  0  0  0  0  2  0  0  0  0  0  0
  187.5230  175.1530  137.0090 C   0  0  0  0  0  2  0  0  0  0  0  0
  186.3350  175.8490  136.3600 C   0  0  0  0  0  2  0  0  0  0  0  0
  185.0160  175.4000  136.9880 C   0  0  2  0  0  3  0  0  0  0  0  0
  183.7280  173.1900  137.3100 C   0  0  0  0  0  1  0  0  0  0  0  0
  184.9530  173.6720  135.3650 O   0  0  0  0  0  0  0  0  0  0  0  0
  184.5940  174.0590  136.4670 C   0  0  0  0  0  0  0  0  0  0  0  0
  183.9140  177.1730  135.8060 O   0  0  0  0  0  0  0  0  0  0  0  0
  183.9370  176.4250  136.8230 C   0  0  0  0  0  0  0  0  0  0  0  0
  182.9670  176.5770  137.8600 N   0  0  0  0  0  2  0  0  0  0  0  0
  181.9120  177.5790  137.8210 C   0  0  2  0  0  3  0  0  0  0  0  0
  182.4630  178.9420  138.2130 C   0  0  0  0  0  1  0  0  0  0  0  0
  180.8000  177.1840  138.7390 C   0  0  0  0  0  0  0  0  0  0  0  0
  180.6090  176.0080  139.0110 O   0  0  0  0  0  0  0  0  0  0  0  0
  179.8870  178.2450  139.2780 C   0  0  0  0  0  2  0  0  0  0  0  0
  179.3650  177.0670  141.3090 O   0  0  0  0  0  1  0  0  0  0  0  0
  179.8330  178.2820  140.8040 C   0  0  1  0  0  3  0  0  0  0  0  0
  181.1580  178.6250  141.4060 C   0  0  0  0  0  3  0  0  0  0  0  0
  181.2660  178.7370  142.6160 O   0  0  0  0  0  0  0  0  0  0  0  0
  188.3850  178.2540  138.4000 C   0  0  1  0  0  3  0  0  0  0  0  0
  188.9500  178.9290  137.1560 C   0  0  0  0  0  2  0  0  0  0  0  0
  189.0100  180.3130  137.3240 O   0  0  0  0  0  1  0  0  0  0  0  0
  187.0050  178.4790  138.5060 O   0  0  0  0  0  0  0  0  0  0  0  0
  186.6560  178.0430  139.7850 C   0  0  0  0  0  2  0  0  0  0  0  0
  185.4810  178.8580  140.2840 C   0  0  0  0  0  2  0  0  0  0  0  0
  189.7570  177.4390  147.5740 C   0  0  0  0  0  0  0  0  0  0  0  0
  185.6330  178.5470  144.6910 N   0  0  0  0  0  0  0  0  0  0  0  0
  190.9340  177.0760  147.8190 O   0  0  0  0  0  0  0  0  0  0  0  0
  186.3510  177.9820  142.4890 N   0  0  0  0  0  2  0  0  0  0  0  0
  186.4160  177.8510  143.9160 C   0  0  0  0  0  0  0  0  0  0  0  0
  189.0390  178.2680  148.5850 C   0  0  0  0  0  1  0  0  0  0  0  0
  185.4400  178.8260  141.7710 C   0  0  0  0  0  0  0  0  0  0  0  0
  187.4010  176.8860  144.5150 C   0  0  0  0  0  2  0  0  0  0  0  0
  185.6570  178.3780  146.1420 C   0  0  0  0  0  2  0  0  0  0  0  0
  184.5910  179.5320  142.3790 O   0  0  0  0  0  0  0  0  0  0  0  0
  187.8320  177.3720  145.8710 C   0  0  0  0  0  0  0  0  0  0  0  0
  187.0160  178.0820  146.5970 N   0  0  0  0  0  0  0  0  0  0  0  0
  189.1520  177.0530  146.3320 N   0  0  0  0  0  2  0  0  0  0  0  0
  1 11  1  6  0  0  0
  1  3  1  0  0  0  0
  3  2  1  6  0  0  0
  3  4  1  0  0  0  0
  4  5  1  0  0  0  0
  5  6  1  0  0  0  0
  6  7  1  6  0  0  0
  6 10  1  0  0  0  0
  8 10  2  0  0  0  0
 10  9  1  0  0  0  0
 12 11  1  0  0  0  0
 13 12  1  0  0  0  0
 14 13  1  6  0  0  0
 16 17  2  0  0  0  0
 17 14  1  0  0  0  0
 17 15  1  0  0  0  0
 18 19  2  0  0  0  0
 19 14  1  0  0  0  0
 19 20  1  0  0  0  0
 21 20  1  0  0  0  0
 21 22  1  1  0  0  0
 21 23  1  0  0  0  0
 23 24  2  0  0  0  0
 23 25  1  0  0  0  0
 25 27  1  0  0  0  0
 27 26  1  1  0  0  0
 27 28  1  0  0  0  0
 28 29  2  0  0  0  0
 30 31  1  6  0  0  0
 30  1  1  0  0  0  0
 30 33  1  0  0  0  0
 31 32  1  0  0  0  0
 33 34  1  0  0  0  0
 34 35  1  0  0  0  0
 35 42  1  0  0  0  0
 36 38  2  0  0  0  0
 36 41  1  0  0  0  0
 37 44  1  0  0  0  0
 39 40  1  0  0  0  0
 40 43  1  0  0  0  0
 40 37  2  0  0  0  0
 42 45  2  0  0  0  0
 42 39  1  0  0  0  0
 43 46  1  0  0  0  0
 44 47  1  0  0  0  0
 46 48  1  0  0  0  0
 46 47  2  0  0  0  0
 48 36  1  0  0  0  0
M  END
>  <MODEL>
6

>  <REMARK>
 VINA RESULT:      -6.3      3.433      7.054
  Name = 
  22 active torsions:
  status: ('A' for Active; 'I' for Inactive)
    1  A    between atoms: C_2  and  C_31
    2  A    between atoms: C_2  and  C_32
    3  A    between atoms: C_4  and  C_41
    4  A    between atoms: C_4  and  C_44
    5  A    between atoms: O_6  and  C_19
    6  A    between atoms: O_6  and  C_44
    7  A    between atoms: C_8  and  C_15
    8  A    between atoms: C_8  and  C_19
    9  A    between atoms: C_8  and  C_32
   10  A    between atoms: C_9  and  C_17
   11  A    between atoms: C_9  and  C_30
   12  A    between atoms: C_11  and  C_34
   13  A    between atoms: C_15  and  C_16
   14  A    between atoms: C_15  and  O_18
   15  A    between atoms: C_17  and  N_47
   16  A    between atoms: O_18  and  C_37
   17  A    between atoms: C_21  and  C_38
   18  A    between atoms: C_30  and  C_34
   19  A    between atoms: C_31  and  C_38
   20  A    between atoms: C_35  and  C_40
   21  A    between atoms: C_37  and  C_40
   22  A    between atoms: C_38  and  C_46
                            x       y       z     vdW  Elec       q    Type
                         _______ _______ _______ _____ _____    ______ ____

>  <TORSDO>
F 22

$$$$
=
 OpenBabel11042410183D

 48 48  0  0  1  0  0  0  0  0999 V2000
  189.3950  177.7290  142.4310 C   0  0  2  0  0  3  0  0  0  0  0  0
  190.2840  175.4580  143.0470 C   0  0  0  0  0  1  0  0  0  0  0  0
  189.0570  176.3610  143.0400 C   0  0  1  0  0  3  0  0  0  0  0  0
  188.5420  176.4870  144.3380 O   0  0  0  0  0  0  0  0  0  0  0  0
  189.5670  177.0940  145.0650 C   0  0  0  0  0  2  0  0  0  0  0  0
  188.9890  177.9270  146.1970 C   0  0  1  0  0  3  0  0  0  0  0  0
  187.4760  177.8170  146.1760 C   0  0  0  0  0  1  0  0  0  0  0  0
  190.6310  176.8900  147.5810 O   0  0  0  0  0  0  0  0  0  0  0  0
  188.8150  177.7410  148.6890 O   0  0  0  0  0  1  0  0  0  0  0  0
  189.5170  177.4750  147.5200 C   0  0  0  0  0  0  0  0  0  0  0  0
  188.1520  178.5870  142.2200 C   0  0  0  0  0  2  0  0  0  0  0  0
  186.9340  177.7040  142.0030 C   0  0  0  0  0  2  0  0  0  0  0  0
  185.8900  177.9600  143.0800 C   0  0  0  0  0  2  0  0  0  0  0  0
  184.8460  178.9730  142.6140 C   0  0  2  0  0  3  0  0  0  0  0  0
  184.0020  178.9970  145.0500 C   0  0  0  0  0  1  0  0  0  0  0  0
  182.5620  179.2170  143.2060 O   0  0  0  0  0  0  0  0  0  0  0  0
  183.7130  179.0740  143.5900 C   0  0  0  0  0  0  0  0  0  0  0  0
  183.7660  177.5950  140.9720 O   0  0  0  0  0  0  0  0  0  0  0  0
  184.3600  178.6810  141.2280 C   0  0  0  0  0  0  0  0  0  0  0  0
  184.6240  179.6260  140.1910 N   0  0  0  0  0  2  0  0  0  0  0  0
  184.2430  179.4120  138.8030 C   0  0  2  0  0  3  0  0  0  0  0  0
  182.8000  178.9350  138.7180 C   0  0  0  0  0  1  0  0  0  0  0  0
  185.1580  178.4110  138.1730 C   0  0  0  0  0  0  0  0  0  0  0  0
  186.3540  178.6400  138.0770 O   0  0  0  0  0  0  0  0  0  0  0  0
  184.5800  177.1480  137.6080 C   0  0  0  0  0  2  0  0  0  0  0  0
  185.3760  175.1450  136.5410 O   0  0  0  0  0  1  0  0  0  0  0  0
  185.4240  176.5390  136.4900 C   0  0  1  0  0  3  0  0  0  0  0  0
  185.0070  177.0290  135.1410 C   0  0  0  0  0  3  0  0  0  0  0  0
  183.8280  177.2380  134.9060 O   0  0  0  0  0  0  0  0  0  0  0  0
  190.2480  177.6450  141.1500 C   0  0  1  0  0  3  0  0  0  0  0  0
  191.7360  177.5000  141.4490 C   0  0  0  0  0  2  0  0  0  0  0  0
  192.4890  177.5660  140.2760 O   0  0  0  0  0  1  0  0  0  0  0  0
  189.8150  176.6370  140.2770 O   0  0  0  0  0  0  0  0  0  0  0  0
  189.5760  177.2790  139.0620 C   0  0  0  0  0  2  0  0  0  0  0  0
  188.9890  176.2840  138.0810 C   0  0  0  0  0  2  0  0  0  0  0  0
  197.3640  174.5780  137.4560 C   0  0  0  0  0  0  0  0  0  0  0  0
  192.3320  173.7060  136.7710 N   0  0  0  0  0  0  0  0  0  0  0  0
  198.3950  175.2250  137.7650 O   0  0  0  0  0  0  0  0  0  0  0  0
  191.3460  175.8100  137.3040 N   0  0  0  0  0  2  0  0  0  0  0  0
  192.4460  175.0000  136.8640 C   0  0  0  0  0  0  0  0  0  0  0  0
  197.4320  173.0880  137.4410 C   0  0  0  0  0  1  0  0  0  0  0  0
  190.0400  175.3260  137.6450 C   0  0  0  0  0  0  0  0  0  0  0  0
  193.7430  175.6690  136.5010 C   0  0  0  0  0  2  0  0  0  0  0  0
  193.4310  172.8820  136.2720 C   0  0  0  0  0  2  0  0  0  0  0  0
  189.7610  174.0990  137.5660 O   0  0  0  0  0  0  0  0  0  0  0  0
  194.8920  174.7360  136.7700 C   0  0  0  0  0  0  0  0  0  0  0  0
  194.7170  173.4480  136.6820 N   0  0  0  0  0  0  0  0  0  0  0  0
  196.1610  175.2910  137.1370 N   0  0  0  0  0  2  0  0  0  0  0  0
  1 11  1  6  0  0  0
  1  3  1  0  0  0  0
  3  2  1  1  0  0  0
  3  4  1  0  0  0  0
  4  5  1  0  0  0  0
  5  6  1  0  0  0  0
  6  7  1  1  0  0  0
  6 10  1  0  0  0  0
 10  8  2  0  0  0  0
 10  9  1  0  0  0  0
 12 11  1  0  0  0  0
 12 13  1  0  0  0  0
 14 13  1  1  0  0  0
 14 17  1  0  0  0  0
 16 17  2  0  0  0  0
 17 15  1  0  0  0  0
 18 19  2  0  0  0  0
 19 14  1  0  0  0  0
 20 19  1  0  0  0  0
 21 22  1  1  0  0  0
 21 20  1  0  0  0  0
 23 21  1  0  0  0  0
 24 23  2  0  0  0  0
 25 23  1  0  0  0  0
 27 26  1  6  0  0  0
 27 25  1  0  0  0  0
 28 27  1  0  0  0  0
 29 28  2  0  0  0  0
 30 31  1  1  0  0  0
 30  1  1  0  0  0  0
 32 31  1  0  0  0  0
 33 30  1  0  0  0  0
 34 33  1  0  0  0  0
 35 34  1  0  0  0  0
 36 38  2  0  0  0  0
 37 40  2  0  0  0  0
 39 42  1  0  0  0  0
 40 39  1  0  0  0  0
 41 36  1  0  0  0  0
 42 35  1  0  0  0  0
 43 46  1  0  0  0  0
 43 40  1  0  0  0  0
 44 47  1  0  0  0  0
 44 37  1  0  0  0  0
 45 42  2  0  0  0  0
 46 48  1  0  0  0  0
 47 46  2  0  0  0  0
 48 36  1  0  0  0  0
M  END
>  <MODEL>
7

>  <REMARK>
 VINA RESULT:      -6.2      1.766      2.032
  Name = 
  22 active torsions:
  status: ('A' for Active; 'I' for Inactive)
    1  A    between atoms: C_2  and  C_31
    2  A    between atoms: C_2  and  C_32
    3  A    between atoms: C_4  and  C_41
    4  A    between atoms: C_4  and  C_44
    5  A    between atoms: O_6  and  C_19
    6  A    between atoms: O_6  and  C_44
    7  A    between atoms: C_8  and  C_15
    8  A    between atoms: C_8  and  C_19
    9  A    between atoms: C_8  and  C_32
   10  A    between atoms: C_9  and  C_17
   11  A    between atoms: C_9  and  C_30
   12  A    between atoms: C_11  and  C_34
   13  A    between atoms: C_15  and  C_16
   14  A    between atoms: C_15  and  O_18
   15  A    between atoms: C_17  and  N_47
   16  A    between atoms: O_18  and  C_37
   17  A    between atoms: C_21  and  C_38
   18  A    between atoms: C_30  and  C_34
   19  A    between atoms: C_31  and  C_38
   20  A    between atoms: C_35  and  C_40
   21  A    between atoms: C_37  and  C_40
   22  A    between atoms: C_38  and  C_46
                            x       y       z     vdW  Elec       q    Type
                         _______ _______ _______ _____ _____    ______ ____

>  <TORSDO>
F 22

$$$$
=
 OpenBabel11042410183D

 48 48  0  0  1  0  0  0  0  0999 V2000
  183.1310  177.5940  140.4050 C   0  0  2  0  0  3  0  0  0  0  0  0
  180.6170  177.5230  140.4190 C   0  0  0  0  0  1  0  0  0  0  0  0
  181.8860  176.7920  139.9980 C   0  0  1  0  0  3  0  0  0  0  0  0
  181.8640  176.5380  138.6200 O   0  0  0  0  0  0  0  0  0  0  0  0
  181.9970  175.1520  138.5170 C   0  0  0  0  0  2  0  0  0  0  0  0
  181.8750  174.7180  137.0650 C   0  0  1  0  0  3  0  0  0  0  0  0
  181.3090  175.8630  136.2470 C   0  0  0  0  0  1  0  0  0  0  0  0
  184.2390  174.4460  137.2160 O   0  0  0  0  0  1  0  0  0  0  0  0
  183.2930  173.7120  135.2620 O   0  0  0  0  0  0  0  0  0  0  0  0
  183.2020  174.3030  136.5160 C   0  0  0  0  0  0  0  0  0  0  0  0
  182.8230  178.6190  141.4920 C   0  0  0  0  0  2  0  0  0  0  0  0
  183.5370  178.2500  142.7820 C   0  0  0  0  0  2  0  0  0  0  0  0
  184.9150  178.8940  142.8320 C   0  0  0  0  0  2  0  0  0  0  0  0
  185.9440  177.9590  143.4640 C   0  0  2  0  0  3  0  0  0  0  0  0
  185.6390  179.4500  145.5460 C   0  0  0  0  0  1  0  0  0  0  0  0
  186.3150  177.2040  145.6820 O   0  0  0  0  0  0  0  0  0  0  0  0
  185.9910  178.1290  144.9530 C   0  0  0  0  0  0  0  0  0  0  0  0
  187.4300  178.6770  141.7220 O   0  0  0  0  0  0  0  0  0  0  0  0
  187.2980  178.1120  142.8450 C   0  0  0  0  0  0  0  0  0  0  0  0
  188.4310  177.5620  143.5180 N   0  0  0  0  0  2  0  0  0  0  0  0
  189.7800  177.6100  142.9740 C   0  0  2  0  0  3  0  0  0  0  0  0
  190.0750  176.3470  142.1780 C   0  0  0  0  0  1  0  0  0  0  0  0
  190.7710  177.7670  144.0840 C   0  0  0  0  0  0  0  0  0  0  0  0
  191.4270  178.7920  144.1880 O   0  0  0  0  0  0  0  0  0  0  0  0
  190.9890  176.6260  145.0330 C   0  0  0  0  0  2  0  0  0  0  0  0
  189.6040  176.6950  146.9980 O   0  0  0  0  0  1  0  0  0  0  0  0
  190.8670  177.0260  146.5020 C   0  0  1  0  0  3  0  0  0  0  0  0
  191.9380  176.4100  147.3430 C   0  0  0  0  0  3  0  0  0  0  0  0
  191.8320  175.2520  147.7130 O   0  0  0  0  0  0  0  0  0  0  0  0
  183.8740  178.2340  139.2170 C   0  0  1  0  0  3  0  0  0  0  0  0
  183.3570  179.6300  138.8910 C   0  0  0  0  0  2  0  0  0  0  0  0
  184.3580  180.5860  139.0700 O   0  0  0  0  0  1  0  0  0  0  0  0
  185.2650  178.2450  139.3910 O   0  0  0  0  0  0  0  0  0  0  0  0
  185.7870  177.6770  138.2290 C   0  0  0  0  0  2  0  0  0  0  0  0
  187.2200  178.1370  138.0520 C   0  0  0  0  0  2  0  0  0  0  0  0
  195.0020  174.5650  138.4130 C   0  0  0  0  0  0  0  0  0  0  0  0
  190.0540  174.9080  137.0140 N   0  0  0  0  0  0  0  0  0  0  0  0
  196.0960  174.9440  138.8990 O   0  0  0  0  0  0  0  0  0  0  0  0
  189.4980  177.1610  137.5590 N   0  0  0  0  0  2  0  0  0  0  0  0
  190.4400  176.1360  137.2120 C   0  0  0  0  0  0  0  0  0  0  0  0
  194.7360  173.1020  138.3020 C   0  0  0  0  0  1  0  0  0  0  0  0
  188.0810  176.9790  137.6910 C   0  0  0  0  0  0  0  0  0  0  0  0
  191.8930  176.5010  137.0700 C   0  0  0  0  0  2  0  0  0  0  0  0
  191.0010  173.8730  136.6070 C   0  0  0  0  0  2  0  0  0  0  0  0
  187.5490  175.8540  137.4900 O   0  0  0  0  0  0  0  0  0  0  0  0
  192.7530  175.3180  137.4220 C   0  0  0  0  0  0  0  0  0  0  0  0
  192.3080  174.1090  137.2210 N   0  0  0  0  0  0  0  0  0  0  0  0
  194.0480  175.5490  137.9900 N   0  0  0  0  0  2  0  0  0  0  0  0
  1 11  1  1  0  0  0
  3  1  1  0  0  0  0
  3  2  1  6  0  0  0
  4  3  1  0  0  0  0
  5  4  1  0  0  0  0
  6  7  1  6  0  0  0
  6  5  1  0  0  0  0
  9 10  2  0  0  0  0
 10  6  1  0  0  0  0
 10  8  1  0  0  0  0
 11 12  1  0  0  0  0
 12 13  1  0  0  0  0
 14 13  1  6  0  0  0
 14 17  1  0  0  0  0
 17 15  1  0  0  0  0
 17 16  2  0  0  0  0
 18 19  2  0  0  0  0
 19 14  1  0  0  0  0
 19 20  1  0  0  0  0
 21 22  1  1  0  0  0
 21 20  1  0  0  0  0
 21 23  1  0  0  0  0
 23 24  2  0  0  0  0
 23 25  1  0  0  0  0
 25 27  1  0  0  0  0
 27 26  1  1  0  0  0
 27 28  1  0  0  0  0
 28 29  2  0  0  0  0
 30 31  1  1  0  0  0
 30 33  1  0  0  0  0
 30  1  1  0  0  0  0
 31 32  1  0  0  0  0
 34 33  1  0  0  0  0
 35 34  1  0  0  0  0
 36 38  2  0  0  0  0
 37 40  2  0  0  0  0
 39 42  1  0  0  0  0
 40 39  1  0  0  0  0
 41 36  1  0  0  0  0
 42 35  1  0  0  0  0
 43 40  1  0  0  0  0
 43 46  1  0  0  0  0
 44 37  1  0  0  0  0
 44 47  1  0  0  0  0
 45 42  2  0  0  0  0
 46 48  1  0  0  0  0
 47 46  2  0  0  0  0
 48 36  1  0  0  0  0
M  END
>  <MODEL>
8

>  <REMARK>
 VINA RESULT:      -6.1      1.994      7.548
  Name = 
  22 active torsions:
  status: ('A' for Active; 'I' for Inactive)
    1  A    between atoms: C_2  and  C_31
    2  A    between atoms: C_2  and  C_32
    3  A    between atoms: C_4  and  C_41
    4  A    between atoms: C_4  and  C_44
    5  A    between atoms: O_6  and  C_19
    6  A    between atoms: O_6  and  C_44
    7  A    between atoms: C_8  and  C_15
    8  A    between atoms: C_8  and  C_19
    9  A    between atoms: C_8  and  C_32
   10  A    between atoms: C_9  and  C_17
   11  A    between atoms: C_9  and  C_30
   12  A    between atoms: C_11  and  C_34
   13  A    between atoms: C_15  and  C_16
   14  A    between atoms: C_15  and  O_18
   15  A    between atoms: C_17  and  N_47
   16  A    between atoms: O_18  and  C_37
   17  A    between atoms: C_21  and  C_38
   18  A    between atoms: C_30  and  C_34
   19  A    between atoms: C_31  and  C_38
   20  A    between atoms: C_35  and  C_40
   21  A    between atoms: C_37  and  C_40
   22  A    between atoms: C_38  and  C_46
                            x       y       z     vdW  Elec       q    Type
                         _______ _______ _______ _____ _____    ______ ____

>  <TORSDO>
F 22

$$$$
=
 OpenBabel11042410183D

 48 48  0  0  1  0  0  0  0  0999 V2000
  188.7350  178.0460  142.8930 C   0  0  2  0  0  3  0  0  0  0  0  0
  190.3690  178.6330  144.7120 C   0  0  0  0  0  1  0  0  0  0  0  0
  189.5160  177.5250  144.1080 C   0  0  1  0  0  3  0  0  0  0  0  0
  188.6600  176.9890  145.0800 O   0  0  0  0  0  0  0  0  0  0  0  0
  188.8700  177.7830  146.2090 C   0  0  0  0  0  2  0  0  0  0  0  0
  187.7560  177.5650  147.2210 C   0  0  1  0  0  3  0  0  0  0  0  0
  188.1590  178.1820  148.5470 C   0  0  0  0  0  1  0  0  0  0  0  0
  185.7380  177.5220  145.9520 O   0  0  0  0  0  0  0  0  0  0  0  0
  186.0600  179.4090  147.2110 O   0  0  0  0  0  1  0  0  0  0  0  0
  186.4740  178.1670  146.7450 C   0  0  0  0  0  0  0  0  0  0  0  0
  187.3340  177.4480  142.8130 C   0  0  0  0  0  2  0  0  0  0  0  0
  186.3070  178.5430  142.5750 C   0  0  0  0  0  2  0  0  0  0  0  0
  184.9230  177.9420  142.3740 C   0  0  0  0  0  2  0  0  0  0  0  0
  183.8360  179.0130  142.4410 C   0  0  2  0  0  3  0  0  0  0  0  0
  182.6070  178.6200  144.6740 C   0  0  0  0  0  1  0  0  0  0  0  0
  184.1070  180.3990  144.3470 O   0  0  0  0  0  0  0  0  0  0  0  0
  183.5620  179.4220  143.8580 C   0  0  0  0  0  0  0  0  0  0  0  0
  182.6080  177.6320  140.9110 O   0  0  0  0  0  0  0  0  0  0  0  0
  182.5870  178.5910  141.7330 C   0  0  0  0  0  0  0  0  0  0  0  0
  181.3830  179.3240  141.9630 N   0  0  0  0  0  2  0  0  0  0  0  0
  180.1300  179.0290  141.2840 C   0  0  2  0  0  3  0  0  0  0  0  0
  179.8420  177.5350  141.3300 C   0  0  0  0  0  1  0  0  0  0  0  0
  180.1960  179.5010  139.8670 C   0  0  0  0  0  0  0  0  0  0  0  0
  180.3100  178.7000  138.9510 O   0  0  0  0  0  0  0  0  0  0  0  0
  180.1780  180.9750  139.5880 C   0  0  0  0  0  2  0  0  0  0  0  0
  180.1870  182.4100  137.6580 O   0  0  0  0  0  1  0  0  0  0  0  0
  180.8590  181.3530  138.2740 C   0  0  1  0  0  3  0  0  0  0  0  0
  182.3030  181.6920  138.4670 C   0  0  0  0  0  3  0  0  0  0  0  0
  183.1040  180.8120  138.7380 O   0  0  0  0  0  0  0  0  0  0  0  0
  189.4910  177.8980  141.5590 C   0  0  1  0  0  3  0  0  0  0  0  0
  190.7870  177.1100  141.7070 C   0  0  0  0  0  2  0  0  0  0  0  0
  190.5320  175.7390  141.7660 O   0  0  0  0  0  1  0  0  0  0  0  0
  188.6910  177.3580  140.5420 O   0  0  0  0  0  0  0  0  0  0  0  0
  188.5490  178.3790  139.6010 C   0  0  0  0  0  2  0  0  0  0  0  0
  188.0190  177.7920  138.3080 C   0  0  0  0  0  2  0  0  0  0  0  0
  195.8020  174.2270  138.6960 C   0  0  0  0  0  0  0  0  0  0  0  0
  190.9650  174.7670  137.0040 N   0  0  0  0  0  0  0  0  0  0  0  0
  196.8520  174.5310  139.3140 O   0  0  0  0  0  0  0  0  0  0  0  0
  190.3400  176.9090  137.8430 N   0  0  0  0  0  2  0  0  0  0  0  0
  191.3190  175.9520  137.4150 C   0  0  0  0  0  0  0  0  0  0  0  0
  195.5660  172.7980  138.3450 C   0  0  0  0  0  1  0  0  0  0  0  0
  188.9190  176.7060  137.8400 C   0  0  0  0  0  0  0  0  0  0  0  0
  192.7720  176.3370  137.4370 C   0  0  0  0  0  2  0  0  0  0  0  0
  191.9530  173.8080  136.5150 C   0  0  0  0  0  2  0  0  0  0  0  0
  188.4190  175.6230  137.4320 O   0  0  0  0  0  0  0  0  0  0  0  0
  193.6200  175.1160  137.6670 C   0  0  0  0  0  0  0  0  0  0  0  0
  193.2090  173.9520  137.2530 N   0  0  0  0  0  0  0  0  0  0  0  0
  194.8670  175.2620  138.3590 N   0  0  0  0  0  2  0  0  0  0  0  0
  1 11  1  6  0  0  0
  1  3  1  0  0  0  0
  3  2  1  1  0  0  0
  3  4  1  0  0  0  0
  4  5  1  0  0  0  0
  5  6  1  0  0  0  0
  6  7  1  1  0  0  0
  8 10  2  0  0  0  0
 10  9  1  0  0  0  0
 10  6  1  0  0  0  0
 12 11  1  0  0  0  0
 13 12  1  0  0  0  0
 14 13  1  1  0  0  0
 14 17  1  0  0  0  0
 17 16  2  0  0  0  0
 17 15  1  0  0  0  0
 18 19  2  0  0  0  0
 19 20  1  0  0  0  0
 19 14  1  0  0  0  0
 21 22  1  6  0  0  0
 21 20  1  0  0  0  0
 23 21  1  0  0  0  0
 24 23  2  0  0  0  0
 25 23  1  0  0  0  0
 27 26  1  1  0  0  0
 27 28  1  0  0  0  0
 27 25  1  0  0  0  0
 28 29  2  0  0  0  0
 30 31  1  1  0  0  0
 30  1  1  0  0  0  0
 31 32  1  0  0  0  0
 33 30  1  0  0  0  0
 34 33  1  0  0  0  0
 35 34  1  0  0  0  0
 36 38  2  0  0  0  0
 37 40  2  0  0  0  0
 40 43  1  0  0  0  0
 40 39  1  0  0  0  0
 41 36  1  0  0  0  0
 42 39  1  0  0  0  0
 42 35  1  0  0  0  0
 43 46  1  0  0  0  0
 44 37  1  0  0  0  0
 44 47  1  0  0  0  0
 45 42  2  0  0  0  0
 46 48  1  0  0  0  0
 47 46  2  0  0  0  0
 48 36  1  0  0  0  0
M  END
>  <MODEL>
9

>  <REMARK>
 VINA RESULT:      -6.1      2.434      3.511
  Name = 
  22 active torsions:
  status: ('A' for Active; 'I' for Inactive)
    1  A    between atoms: C_2  and  C_31
    2  A    between atoms: C_2  and  C_32
    3  A    between atoms: C_4  and  C_41
    4  A    between atoms: C_4  and  C_44
    5  A    between atoms: O_6  and  C_19
    6  A    between atoms: O_6  and  C_44
    7  A    between atoms: C_8  and  C_15
    8  A    between atoms: C_8  and  C_19
    9  A    between atoms: C_8  and  C_32
   10  A    between atoms: C_9  and  C_17
   11  A    between atoms: C_9  and  C_30
   12  A    between atoms: C_11  and  C_34
   13  A    between atoms: C_15  and  C_16
   14  A    between atoms: C_15  and  O_18
   15  A    between atoms: C_17  and  N_47
   16  A    between atoms: O_18  and  C_37
   17  A    between atoms: C_21  and  C_38
   18  A    between atoms: C_30  and  C_34
   19  A    between atoms: C_31  and  C_38
   20  A    between atoms: C_35  and  C_40
   21  A    between atoms: C_37  and  C_40
   22  A    between atoms: C_38  and  C_46
                            x       y       z     vdW  Elec       q    Type
                         _______ _______ _______ _____ _____    ______ ____

>  <TORSDO>
F 22

$$$$
