=
 OpenBabel11042413313D

 41 42  0  0  1  0  0  0  0  0999 V2000
  183.9000  178.4780  142.2270 C   0  0  0  0  0  0  0  0  0  0  0  0
  184.9330  178.4720  143.1700 C   0  0  0  0  0  3  0  0  0  0  0  0
  183.3370  178.9350  144.9280 C   0  0  0  0  0  3  0  0  0  0  0  0
  182.3030  178.9440  143.9860 C   0  0  0  0  0  3  0  0  0  0  0  0
  184.6610  178.6960  144.5270 C   0  0  0  0  0  0  0  0  0  0  0  0
  182.5840  178.7170  142.6370 C   0  0  0  0  0  3  0  0  0  0  0  0
  185.7520  178.6940  145.5190 C   0  0  0  0  0  0  0  0  0  0  0  0
  185.8230  179.6110  146.3820 O   0  0  0  0  0  0  0  0  0  0  0  0
  187.1220  177.1180  146.8750 C   0  0  0  0  0  1  0  0  0  0  0  0
  186.8040  177.6280  145.4800 C   0  0  2  0  0  3  0  0  0  0  0  0
  188.0080  178.1340  144.8430 N   0  0  0  0  0  2  0  0  0  0  0  0
  189.8670  177.9640  143.2340 N   0  0  0  0  0  2  0  0  0  0  0  0
  191.7110  177.5080  141.9040 O   0  0  0  0  0  0  0  0  0  0  0  0
  190.4580  177.5310  142.0020 C   0  0  0  0  0  0  0  0  0  0  0  0
  188.2170  176.3180  143.3940 O   0  0  0  0  0  0  0  0  0  0  0  0
  188.6700  177.4240  143.7970 C   0  0  0  0  0  0  0  0  0  0  0  0
  189.6880  177.1730  140.8890 O   0  0  0  0  0  0  0  0  0  0  0  0
  189.9520  177.6430  139.5730 C   0  0  2  0  0  3  0  0  0  0  0  0
  188.8530  178.5470  137.2320 S   0  0  0  0  0  1  0  0  0  0  0  0
  188.7010  178.3060  139.0260 C   0  0  0  0  0  2  0  0  0  0  0  0
  190.3510  176.4880  138.6650 C   0  0  0  0  0  2  0  0  0  0  0  0
  191.8520  176.4560  138.4480 C   0  0  0  0  0  2  0  0  0  0  0  0
  192.1690  176.0030  137.0370 C   0  0  0  0  0  1  0  0  0  0  0  0
  184.2120  178.2700  140.7840 C   0  0  0  0  0  2  0  0  0  0  0  0
  182.3260  180.7330  138.6060 C   0  0  0  0  0  2  0  0  0  0  0  0
  183.4870  179.8090  138.9440 C   0  0  0  0  0  2  0  0  0  0  0  0
  180.5230  178.9970  138.3810 C   0  0  0  0  0  2  0  0  0  0  0  0
  181.2830  177.7040  138.4500 C   0  0  0  0  0  3  0  0  0  0  0  0
  182.4320  177.5520  139.1250 C   0  0  0  0  0  0  0  0  0  0  0  0
  181.3300  180.0700  137.6620 C   0  0  0  0  0  2  0  0  0  0  0  0
  183.0430  178.7030  139.8990 C   0  0  1  0  0  3  0  0  0  0  0  0
  183.0560  176.1880  139.1260 C   0  0  0  0  0  2  0  0  0  0  0  0
  183.9480  175.5940  136.8980 N   0  0  0  0  0  0  0  0  0  0  0  0
  182.9730  175.5830  137.7600 C   0  0  0  0  0  3  0  0  0  0  0  0
  185.4070  177.4140  137.1780 O   0  0  0  0  0  0  0  0  0  0  0  0
  185.2540  176.1680  137.0660 C   0  0  0  0  0  0  0  0  0  0  0  0
  186.4070  175.3260  137.1010 N   0  0  0  0  0  2  0  0  0  0  0  0
  185.5950  173.1830  135.4690 O   0  0  0  0  0  0  0  0  0  0  0  0
  185.3690  172.9630  138.2100 O   0  0  0  0  0  1  0  0  0  0  0  0
  187.6940  172.9890  137.0180 O   0  0  0  0  0  1  0  0  0  0  0  0
  186.3070  173.5830  136.9490 P   0  0  0  0  0  0  0  0  0  0  0  0
  1  6  2  0  0  0  0
  1  2  1  0  0  0  0
  2  5  2  0  0  0  0
  4  3  2  0  0  0  0
  5  3  1  0  0  0  0
  5  7  1  0  0  0  0
  6  4  1  0  0  0  0
  7  8  2  0  0  0  0
 10  7  1  0  0  0  0
 10  9  1  1  0  0  0
 11 10  1  0  0  0  0
 12 16  1  0  0  0  0
 13 14  2  0  0  0  0
 14 12  1  0  0  0  0
 15 16  2  0  0  0  0
 16 11  1  0  0  0  0
 17 14  1  0  0  0  0
 18 21  1  6  0  0  0
 18 17  1  0  0  0  0
 19 20  1  0  0  0  0
 20 18  1  0  0  0  0
 22 21  1  0  0  0  0
 23 22  1  0  0  0  0
 24  1  1  0  0  0  0
 25 26  1  0  0  0  0
 26 31  1  0  0  0  0
 27 28  1  0  0  0  0
 28 29  2  0  0  0  0
 29 32  1  0  0  0  0
 29 31  1  0  0  0  0
 30 27  1  0  0  0  0
 30 25  1  0  0  0  0
 31 24  1  6  0  0  0
 33 36  1  0  0  0  0
 33 34  2  0  0  0  0
 34 32  1  0  0  0  0
 36 37  1  0  0  0  0
 36 35  2  0  0  0  0
 38 41  2  0  0  0  0
 41 40  1  0  0  0  0
 41 37  1  0  0  0  0
 41 39  1  0  0  0  0
M  END
>  <MODEL>
1

>  <REMARK>
 VINA RESULT:      -7.5      0.000      0.000
  Name = 
  14 active torsions:
  status: ('A' for Active; 'I' for Inactive)
    1  A    between atoms: N_1  and  C_30
    2  A    between atoms: C_3  and  C_29
    3  A    between atoms: C_3  and  C_30
    4  A    between atoms: O_5  and  C_24
    5  A    between atoms: O_5  and  C_25
    6  A    between atoms: C_12  and  C_19
    7  A    between atoms: C_13  and  C_18
    8  A    between atoms: C_13  and  C_25
    9  A    between atoms: C_19  and  C_36
   10  A    between atoms: C_22  and  C_32
   11  A    between atoms: C_23  and  C_25
   12  A    between atoms: C_26  and  N_27
   13  A    between atoms: C_31  and  C_32
   14  A    between atoms: N_34  and  P_40
                            x       y       z     vdW  Elec       q    Type
                         _______ _______ _______ _____ _____    ______ ____

>  <TORSDO>
F 14

$$$$
=
 OpenBabel11042413313D

 41 42  0  0  1  0  0  0  0  0999 V2000
  188.7060  178.0930  140.2940 C   0  0  0  0  0  0  0  0  0  0  0  0
  187.5050  178.6310  140.7650 C   0  0  0  0  0  3  0  0  0  0  0  0
  187.6390  177.2250  142.7280 C   0  0  0  0  0  3  0  0  0  0  0  0
  188.8400  176.6840  142.2580 C   0  0  0  0  0  3  0  0  0  0  0  0
  186.9630  178.2050  141.9860 C   0  0  0  0  0  0  0  0  0  0  0  0
  189.3720  177.1160  141.0410 C   0  0  0  0  0  3  0  0  0  0  0  0
  185.6930  178.7720  142.4780 C   0  0  0  0  0  0  0  0  0  0  0  0
  185.0910  179.6530  141.8050 O   0  0  0  0  0  0  0  0  0  0  0  0
  183.7000  178.8060  143.9700 C   0  0  0  0  0  1  0  0  0  0  0  0
  185.1340  178.3350  143.7970 C   0  0  2  0  0  3  0  0  0  0  0  0
  185.9620  178.8330  144.8830 N   0  0  0  0  0  2  0  0  0  0  0  0
  187.2670  178.5350  146.9520 N   0  0  0  0  0  2  0  0  0  0  0  0
  188.1840  178.1430  149.0460 O   0  0  0  0  0  0  0  0  0  0  0  0
  188.0930  177.7780  147.8460 C   0  0  0  0  0  0  0  0  0  0  0  0
  186.2350  176.7380  145.8720 O   0  0  0  0  0  0  0  0  0  0  0  0
  186.4840  177.9750  145.8960 C   0  0  0  0  0  0  0  0  0  0  0  0
  188.8360  176.6710  147.4200 O   0  0  0  0  0  0  0  0  0  0  0  0
  190.0480  176.7800  146.6830 C   0  0  2  0  0  3  0  0  0  0  0  0
  192.3870  175.7610  147.6810 S   0  0  0  0  0  1  0  0  0  0  0  0
  191.1780  177.1170  147.6380 C   0  0  0  0  0  2  0  0  0  0  0  0
  189.9330  177.8710  145.6280 C   0  0  0  0  0  2  0  0  0  0  0  0
  191.1080  177.8320  144.6690 C   0  0  0  0  0  2  0  0  0  0  0  0
  191.3060  179.1890  144.0260 C   0  0  0  0  0  1  0  0  0  0  0  0
  189.2500  178.5330  138.9770 C   0  0  0  0  0  2  0  0  0  0  0  0
  186.9510  178.1440  135.9890 C   0  0  0  0  0  2  0  0  0  0  0  0
  188.1560  178.7060  136.7290 C   0  0  0  0  0  2  0  0  0  0  0  0
  187.6740  175.7390  135.8740 C   0  0  0  0  0  2  0  0  0  0  0  0
  189.0880  175.7840  136.3770 C   0  0  0  0  0  3  0  0  0  0  0  0
  189.5380  176.6920  137.2550 C   0  0  0  0  0  0  0  0  0  0  0  0
  187.3370  176.9900  135.0720 C   0  0  0  0  0  2  0  0  0  0  0  0
  188.6160  177.7500  137.8280 C   0  0  1  0  0  3  0  0  0  0  0  0
  190.9710  176.5850  137.6850 C   0  0  0  0  0  2  0  0  0  0  0  0
  192.1750  174.4380  137.4590 N   0  0  0  0  0  0  0  0  0  0  0  0
  191.2900  175.1740  138.0660 C   0  0  0  0  0  3  0  0  0  0  0  0
  192.4880  175.0370  135.2080 O   0  0  0  0  0  0  0  0  0  0  0  0
  192.9950  174.8070  136.3390 C   0  0  0  0  0  0  0  0  0  0  0  0
  194.4110  174.9110  136.4930 N   0  0  0  0  0  2  0  0  0  0  0  0
  194.6830  175.7190  139.1740 O   0  0  0  0  0  1  0  0  0  0  0  0
  196.8880  174.7710  137.8120 O   0  0  0  0  0  0  0  0  0  0  0  0
  194.9070  173.2050  138.4850 O   0  0  0  0  0  1  0  0  0  0  0  0
  195.2190  174.6080  138.0190 P   0  0  0  0  0  0  0  0  0  0  0  0
  1  2  2  0  0  0  0
  1  6  1  0  0  0  0
  2  5  1  0  0  0  0
  4  3  1  0  0  0  0
  5  7  1  0  0  0  0
  5  3  2  0  0  0  0
  6  4  2  0  0  0  0
  7 10  1  0  0  0  0
  8  7  2  0  0  0  0
 10  9  1  1  0  0  0
 10 11  1  0  0  0  0
 11 16  1  0  0  0  0
 12 14  1  0  0  0  0
 14 13  2  0  0  0  0
 15 16  2  0  0  0  0
 16 12  1  0  0  0  0
 17 14  1  0  0  0  0
 18 21  1  6  0  0  0
 18 17  1  0  0  0  0
 18 20  1  0  0  0  0
 20 19  1  0  0  0  0
 22 21  1  0  0  0  0
 23 22  1  0  0  0  0
 24  1  1  0  0  0  0
 25 26  1  0  0  0  0
 26 31  1  0  0  0  0
 27 28  1  0  0  0  0
 28 29  2  0  0  0  0
 29 32  1  0  0  0  0
 29 31  1  0  0  0  0
 30 27  1  0  0  0  0
 30 25  1  0  0  0  0
 31 24  1  1  0  0  0
 32 34  1  0  0  0  0
 33 34  2  0  0  0  0
 35 36  2  0  0  0  0
 36 37  1  0  0  0  0
 36 33  1  0  0  0  0
 37 41  1  0  0  0  0
 39 41  2  0  0  0  0
 41 40  1  0  0  0  0
 41 38  1  0  0  0  0
M  END
>  <MODEL>
2

>  <REMARK>
 VINA RESULT:      -7.5      4.583      6.954
  Name = 
  14 active torsions:
  status: ('A' for Active; 'I' for Inactive)
    1  A    between atoms: N_1  and  C_30
    2  A    between atoms: C_3  and  C_29
    3  A    between atoms: C_3  and  C_30
    4  A    between atoms: O_5  and  C_24
    5  A    between atoms: O_5  and  C_25
    6  A    between atoms: C_12  and  C_19
    7  A    between atoms: C_13  and  C_18
    8  A    between atoms: C_13  and  C_25
    9  A    between atoms: C_19  and  C_36
   10  A    between atoms: C_22  and  C_32
   11  A    between atoms: C_23  and  C_25
   12  A    between atoms: C_26  and  N_27
   13  A    between atoms: C_31  and  C_32
   14  A    between atoms: N_34  and  P_40
                            x       y       z     vdW  Elec       q    Type
                         _______ _______ _______ _____ _____    ______ ____

>  <TORSDO>
F 14

$$$$
=
 OpenBabel11042413313D

 41 42  0  0  1  0  0  0  0  0999 V2000
  186.4830  177.6610  143.3430 C   0  0  0  0  0  0  0  0  0  0  0  0
  185.4030  177.8410  142.4740 C   0  0  0  0  0  3  0  0  0  0  0  0
  184.1950  179.0140  144.2100 C   0  0  0  0  0  3  0  0  0  0  0  0
  185.2730  178.8330  145.0820 C   0  0  0  0  0  3  0  0  0  0  0  0
  184.2520  178.5210  142.8980 C   0  0  0  0  0  0  0  0  0  0  0  0
  186.4160  178.1560  144.6500 C   0  0  0  0  0  3  0  0  0  0  0  0
  183.1120  178.7050  141.9800 C   0  0  0  0  0  0  0  0  0  0  0  0
  181.9870  179.0530  142.4330 O   0  0  0  0  0  0  0  0  0  0  0  0
  182.6700  179.5600  139.6840 C   0  0  0  0  0  1  0  0  0  0  0  0
  183.2730  178.4410  140.5150 C   0  0  2  0  0  3  0  0  0  0  0  0
  182.6620  177.1690  140.1650 N   0  0  0  0  0  2  0  0  0  0  0  0
  182.0590  175.4010  138.5570 N   0  0  0  0  0  2  0  0  0  0  0  0
  181.3040  173.9960  136.8740 O   0  0  0  0  0  0  0  0  0  0  0  0
  182.2740  174.6180  137.3760 C   0  0  0  0  0  0  0  0  0  0  0  0
  183.2890  177.2830  137.9210 O   0  0  0  0  0  0  0  0  0  0  0  0
  182.7060  176.6430  138.8390 C   0  0  0  0  0  0  0  0  0  0  0  0
  183.5370  174.4870  136.7860 O   0  0  0  0  0  0  0  0  0  0  0  0
  184.7110  174.1530  137.5170 C   0  0  2  0  0  3  0  0  0  0  0  0
  185.4010  175.5410  135.2590 S   0  0  0  0  0  1  0  0  0  0  0  0
  185.9230  174.6790  136.7710 C   0  0  0  0  0  2  0  0  0  0  0  0
  184.8280  172.6430  137.6760 C   0  0  0  0  0  2  0  0  0  0  0  0
  184.4670  171.9290  136.3880 C   0  0  0  0  0  2  0  0  0  0  0  0
  183.3380  170.9480  136.6300 C   0  0  0  0  0  1  0  0  0  0  0  0
  187.6850  176.9060  142.8860 C   0  0  0  0  0  2  0  0  0  0  0  0
  189.9510  177.5930  145.8460 C   0  0  0  0  0  2  0  0  0  0  0  0
  189.2270  176.6980  144.8510 C   0  0  0  0  0  2  0  0  0  0  0  0
  191.5250  178.7270  144.2480 C   0  0  0  0  0  2  0  0  0  0  0  0
  191.3210  177.9660  142.9690 C   0  0  0  0  0  3  0  0  0  0  0  0
  190.1670  177.3680  142.6360 C   0  0  0  0  0  0  0  0  0  0  0  0
  191.4090  177.8080  145.4570 C   0  0  0  0  0  2  0  0  0  0  0  0
  188.9560  177.4420  143.5450 C   0  0  1  0  0  3  0  0  0  0  0  0
  190.1090  176.6740  141.3080 C   0  0  0  0  0  2  0  0  0  0  0  0
  190.7860  177.2530  139.0020 N   0  0  0  0  0  0  0  0  0  0  0  0
  190.8720  177.4540  140.2850 C   0  0  0  0  0  3  0  0  0  0  0  0
  190.3940  175.1020  138.1420 O   0  0  0  0  0  0  0  0  0  0  0  0
  189.9780  176.2770  138.3250 C   0  0  0  0  0  0  0  0  0  0  0  0
  188.6830  176.6340  137.8400 N   0  0  0  0  0  2  0  0  0  0  0  0
  187.6440  178.5060  139.6640 O   0  0  0  0  0  1  0  0  0  0  0  0
  186.6040  178.3780  137.1110 O   0  0  0  0  0  0  0  0  0  0  0  0
  189.0170  179.2690  137.5720 O   0  0  0  0  0  1  0  0  0  0  0  0
  188.0110  178.2410  138.0360 P   0  0  0  0  0  0  0  0  0  0  0  0
  1  6  1  0  0  0  0
  2  5  1  0  0  0  0
  2  1  2  0  0  0  0
  3  4  1  0  0  0  0
  5  3  2  0  0  0  0
  6  4  2  0  0  0  0
  7  8  2  0  0  0  0
  7  5  1  0  0  0  0
 10  9  1  6  0  0  0
 10  7  1  0  0  0  0
 11 10  1  0  0  0  0
 12 16  1  0  0  0  0
 13 14  2  0  0  0  0
 14 12  1  0  0  0  0
 15 16  2  0  0  0  0
 16 11  1  0  0  0  0
 17 14  1  0  0  0  0
 17 18  1  0  0  0  0
 18 20  1  6  0  0  0
 18 21  1  0  0  0  0
 19 20  1  0  0  0  0
 22 23  1  0  0  0  0
 22 21  1  0  0  0  0
 24  1  1  0  0  0  0
 26 25  1  0  0  0  0
 27 30  1  0  0  0  0
 28 27  1  0  0  0  0
 29 28  2  0  0  0  0
 29 31  1  0  0  0  0
 30 25  1  0  0  0  0
 31 24  1  6  0  0  0
 31 26  1  0  0  0  0
 32 29  1  0  0  0  0
 33 34  2  0  0  0  0
 34 32  1  0  0  0  0
 35 36  2  0  0  0  0
 36 33  1  0  0  0  0
 37 41  1  0  0  0  0
 37 36  1  0  0  0  0
 39 41  2  0  0  0  0
 40 41  1  0  0  0  0
 41 38  1  0  0  0  0
M  END
>  <MODEL>
3

>  <REMARK>
 VINA RESULT:      -7.5      2.720      7.440
  Name = 
  14 active torsions:
  status: ('A' for Active; 'I' for Inactive)
    1  A    between atoms: N_1  and  C_30
    2  A    between atoms: C_3  and  C_29
    3  A    between atoms: C_3  and  C_30
    4  A    between atoms: O_5  and  C_24
    5  A    between atoms: O_5  and  C_25
    6  A    between atoms: C_12  and  C_19
    7  A    between atoms: C_13  and  C_18
    8  A    between atoms: C_13  and  C_25
    9  A    between atoms: C_19  and  C_36
   10  A    between atoms: C_22  and  C_32
   11  A    between atoms: C_23  and  C_25
   12  A    between atoms: C_26  and  N_27
   13  A    between atoms: C_31  and  C_32
   14  A    between atoms: N_34  and  P_40
                            x       y       z     vdW  Elec       q    Type
                         _______ _______ _______ _____ _____    ______ ____

>  <TORSDO>
F 14

$$$$
=
 OpenBabel11042413313D

 41 42  0  0  1  0  0  0  0  0999 V2000
  185.2690  178.3620  143.1180 C   0  0  0  0  0  0  0  0  0  0  0  0
  183.9360  178.4730  142.7090 C   0  0  0  0  0  3  0  0  0  0  0  0
  183.2840  179.0340  144.9690 C   0  0  0  0  0  3  0  0  0  0  0  0
  184.6160  178.9220  145.3810 C   0  0  0  0  0  3  0  0  0  0  0  0
  182.9340  178.8130  143.6280 C   0  0  0  0  0  0  0  0  0  0  0  0
  185.6070  178.5840  144.4560 C   0  0  0  0  0  3  0  0  0  0  0  0
  181.5290  178.9260  143.1950 C   0  0  0  0  0  0  0  0  0  0  0  0
  180.5970  178.8200  144.0400 O   0  0  0  0  0  0  0  0  0  0  0  0
  180.0640  180.1180  141.5730 C   0  0  0  0  0  1  0  0  0  0  0  0
  181.1990  179.1240  141.7470 C   0  0  2  0  0  3  0  0  0  0  0  0
  180.8540  177.8520  141.1330 N   0  0  0  0  0  2  0  0  0  0  0  0
  181.1140  176.1190  139.4010 N   0  0  0  0  0  2  0  0  0  0  0  0
  181.2640  174.7470  137.5370 O   0  0  0  0  0  0  0  0  0  0  0  0
  181.8740  175.3710  138.4430 C   0  0  0  0  0  0  0  0  0  0  0  0
  182.4480  178.0370  139.4400 O   0  0  0  0  0  0  0  0  0  0  0  0
  181.5230  177.3630  139.9720 C   0  0  0  0  0  0  0  0  0  0  0  0
  183.2690  175.2760  138.5050 O   0  0  0  0  0  0  0  0  0  0  0  0
  184.0760  174.8980  137.3960 C   0  0  2  0  0  3  0  0  0  0  0  0
  183.8930  172.2170  136.8670 S   0  0  0  0  0  1  0  0  0  0  0  0
  184.7550  173.5770  137.7090 C   0  0  0  0  0  2  0  0  0  0  0  0
  185.1340  175.9580  137.1220 C   0  0  0  0  0  2  0  0  0  0  0  0
  184.9210  176.6050  135.7660 C   0  0  0  0  0  2  0  0  0  0  0  0
  183.6870  176.0310  135.0990 C   0  0  0  0  0  1  0  0  0  0  0  0
  186.3160  177.9660  142.1330 C   0  0  0  0  0  2  0  0  0  0  0  0
  188.7420  176.9080  144.8460 C   0  0  0  0  0  2  0  0  0  0  0  0
  187.7950  176.6630  143.6810 C   0  0  0  0  0  2  0  0  0  0  0  0
  190.5190  178.1920  143.6170 C   0  0  0  0  0  2  0  0  0  0  0  0
  190.1020  178.0610  142.1810 C   0  0  0  0  0  3  0  0  0  0  0  0
  188.8290  177.9180  141.7850 C   0  0  0  0  0  0  0  0  0  0  0  0
  190.1980  176.9250  144.3990 C   0  0  0  0  0  2  0  0  0  0  0  0
  187.6940  177.9000  142.7900 C   0  0  1  0  0  3  0  0  0  0  0  0
  188.5700  177.8330  140.3100 C   0  0  0  0  0  2  0  0  0  0  0  0
  190.0650  177.8360  138.3410 N   0  0  0  0  0  0  0  0  0  0  0  0
  189.8390  177.5170  139.5830 C   0  0  0  0  0  3  0  0  0  0  0  0
  188.8790  179.7340  137.6270 O   0  0  0  0  0  0  0  0  0  0  0  0
  189.1810  178.5250  137.4430 C   0  0  0  0  0  0  0  0  0  0  0  0
  188.6210  177.8370  136.3230 N   0  0  0  0  0  2  0  0  0  0  0  0
  188.4880  175.1970  137.2850 O   0  0  0  0  0  1  0  0  0  0  0  0
  190.6300  175.9660  135.7240 O   0  0  0  0  0  1  0  0  0  0  0  0
  188.2210  175.7270  134.7370 O   0  0  0  0  0  0  0  0  0  0  0  0
  188.9700  176.1540  135.9790 P   0  0  0  0  0  0  0  0  0  0  0  0
  1  6  1  0  0  0  0
  2  1  2  0  0  0  0
  2  5  1  0  0  0  0
  3  4  1  0  0  0  0
  5  3  2  0  0  0  0
  6  4  2  0  0  0  0
  7  5  1  0  0  0  0
  7  8  2  0  0  0  0
 10  9  1  1  0  0  0
 10  7  1  0  0  0  0
 11 10  1  0  0  0  0
 12 16  1  0  0  0  0
 13 14  2  0  0  0  0
 14 17  1  0  0  0  0
 14 12  1  0  0  0  0
 15 16  2  0  0  0  0
 16 11  1  0  0  0  0
 18 21  1  1  0  0  0
 18 20  1  0  0  0  0
 18 17  1  0  0  0  0
 19 20  1  0  0  0  0
 22 21  1  0  0  0  0
 23 22  1  0  0  0  0
 24  1  1  0  0  0  0
 26 25  1  0  0  0  0
 27 30  1  0  0  0  0
 28 27  1  0  0  0  0
 29 28  2  0  0  0  0
 29 31  1  0  0  0  0
 30 25  1  0  0  0  0
 31 24  1  6  0  0  0
 31 26  1  0  0  0  0
 32 29  1  0  0  0  0
 33 34  2  0  0  0  0
 34 32  1  0  0  0  0
 36 35  2  0  0  0  0
 36 33  1  0  0  0  0
 37 36  1  0  0  0  0
 39 41  1  0  0  0  0
 40 41  2  0  0  0  0
 41 37  1  0  0  0  0
 41 38  1  0  0  0  0
M  END
>  <MODEL>
4

>  <REMARK>
 VINA RESULT:      -7.3      3.270      6.879
  Name = 
  14 active torsions:
  status: ('A' for Active; 'I' for Inactive)
    1  A    between atoms: N_1  and  C_30
    2  A    between atoms: C_3  and  C_29
    3  A    between atoms: C_3  and  C_30
    4  A    between atoms: O_5  and  C_24
    5  A    between atoms: O_5  and  C_25
    6  A    between atoms: C_12  and  C_19
    7  A    between atoms: C_13  and  C_18
    8  A    between atoms: C_13  and  C_25
    9  A    between atoms: C_19  and  C_36
   10  A    between atoms: C_22  and  C_32
   11  A    between atoms: C_23  and  C_25
   12  A    between atoms: C_26  and  N_27
   13  A    between atoms: C_31  and  C_32
   14  A    between atoms: N_34  and  P_40
                            x       y       z     vdW  Elec       q    Type
                         _______ _______ _______ _____ _____    ______ ____

>  <TORSDO>
F 14

$$$$
=
 OpenBabel11042413313D

 41 42  0  0  1  0  0  0  0  0999 V2000
  184.0770  178.6890  141.6750 C   0  0  0  0  0  0  0  0  0  0  0  0
  185.0260  178.6660  142.7010 C   0  0  0  0  0  3  0  0  0  0  0  0
  183.2580  178.7920  144.3470 C   0  0  0  0  0  3  0  0  0  0  0  0
  182.3070  178.8170  143.3220 C   0  0  0  0  0  3  0  0  0  0  0  0
  184.6260  178.7140  144.0440 C   0  0  0  0  0  0  0  0  0  0  0  0
  182.7160  178.7670  141.9870 C   0  0  0  0  0  3  0  0  0  0  0  0
  185.6290  178.6940  145.1250 C   0  0  0  0  0  0  0  0  0  0  0  0
  185.5560  179.5270  146.0700 O   0  0  0  0  0  0  0  0  0  0  0  0
  187.2590  177.3920  146.4830 C   0  0  0  0  0  1  0  0  0  0  0  0
  186.7620  177.7150  145.0850 C   0  0  2  0  0  3  0  0  0  0  0  0
  187.8490  178.2380  144.2720 N   0  0  0  0  0  2  0  0  0  0  0  0
  189.7880  177.9650  142.7770 N   0  0  0  0  0  2  0  0  0  0  0  0
  191.7640  177.5280  141.6440 O   0  0  0  0  0  0  0  0  0  0  0  0
  190.5370  177.2800  141.7650 C   0  0  0  0  0  0  0  0  0  0  0  0
  188.5670  176.1350  143.5650 O   0  0  0  0  0  0  0  0  0  0  0  0
  188.7210  177.3870  143.5320 C   0  0  0  0  0  0  0  0  0  0  0  0
  189.9420  176.3760  140.8780 O   0  0  0  0  0  0  0  0  0  0  0  0
  189.6740  176.6800  139.5140 C   0  0  2  0  0  3  0  0  0  0  0  0
  191.3730  175.4990  137.7200 S   0  0  0  0  0  1  0  0  0  0  0  0
  190.9880  176.9140  138.7930 C   0  0  0  0  0  2  0  0  0  0  0  0
  188.8080  177.9290  139.4080 C   0  0  0  0  0  2  0  0  0  0  0  0
  189.1640  178.7380  138.1750 C   0  0  0  0  0  2  0  0  0  0  0  0
  188.1430  178.5030  137.0810 C   0  0  0  0  0  1  0  0  0  0  0  0
  184.5220  178.6710  140.2520 C   0  0  0  0  0  2  0  0  0  0  0  0
  181.6130  180.4940  138.6470 C   0  0  0  0  0  2  0  0  0  0  0  0
  183.0870  180.2460  138.9340 C   0  0  0  0  0  2  0  0  0  0  0  0
  181.1210  178.3810  137.3780 C   0  0  0  0  0  2  0  0  0  0  0  0
  182.4800  177.7700  137.1920 C   0  0  0  0  0  3  0  0  0  0  0  0
  183.4990  177.9470  138.0460 C   0  0  0  0  0  0  0  0  0  0  0  0
  181.1890  179.9010  137.3090 C   0  0  0  0  0  2  0  0  0  0  0  0
  183.3320  178.7830  139.3000 C   0  0  1  0  0  3  0  0  0  0  0  0
  184.7870  177.2440  137.7390 C   0  0  0  0  0  2  0  0  0  0  0  0
  185.3120  175.5830  135.9850 N   0  0  0  0  0  0  0  0  0  0  0  0
  184.7590  176.7050  136.3440 C   0  0  0  0  0  3  0  0  0  0  0  0
  187.2090  174.9250  137.2060 O   0  0  0  0  0  0  0  0  0  0  0  0
  186.0400  174.6640  136.8170 C   0  0  0  0  0  0  0  0  0  0  0  0
  185.4410  173.4280  137.2100 N   0  0  0  0  0  2  0  0  0  0  0  0
  183.7160  172.9800  135.0340 O   0  0  0  0  0  0  0  0  0  0  0  0
  182.7080  174.0580  137.3660 O   0  0  0  0  0  1  0  0  0  0  0  0
  183.5190  171.5770  137.2330 O   0  0  0  0  0  1  0  0  0  0  0  0
  183.8230  172.9650  136.7200 P   0  0  0  0  0  0  0  0  0  0  0  0
  1  6  2  0  0  0  0
  1  2  1  0  0  0  0
  2  5  2  0  0  0  0
  4  3  2  0  0  0  0
  5  3  1  0  0  0  0
  5  7  1  0  0  0  0
  6  4  1  0  0  0  0
  7  8  2  0  0  0  0
 10  7  1  0  0  0  0
 10  9  1  1  0  0  0
 11 10  1  0  0  0  0
 12 16  1  0  0  0  0
 13 14  2  0  0  0  0
 14 12  1  0  0  0  0
 16 15  2  0  0  0  0
 16 11  1  0  0  0  0
 17 14  1  0  0  0  0
 18 20  1  6  0  0  0
 18 17  1  0  0  0  0
 19 20  1  0  0  0  0
 21 18  1  0  0  0  0
 22 21  1  0  0  0  0
 23 22  1  0  0  0  0
 24  1  1  0  0  0  0
 25 26  1  0  0  0  0
 26 31  1  0  0  0  0
 28 27  1  0  0  0  0
 28 29  2  0  0  0  0
 29 31  1  0  0  0  0
 30 27  1  0  0  0  0
 30 25  1  0  0  0  0
 31 24  1  1  0  0  0
 32 29  1  0  0  0  0
 33 34  2  0  0  0  0
 33 36  1  0  0  0  0
 34 32  1  0  0  0  0
 36 35  2  0  0  0  0
 36 37  1  0  0  0  0
 38 41  2  0  0  0  0
 41 37  1  0  0  0  0
 41 40  1  0  0  0  0
 41 39  1  0  0  0  0
M  END
>  <MODEL>
5

>  <REMARK>
 VINA RESULT:      -7.0      1.421      1.906
  Name = 
  14 active torsions:
  status: ('A' for Active; 'I' for Inactive)
    1  A    between atoms: N_1  and  C_30
    2  A    between atoms: C_3  and  C_29
    3  A    between atoms: C_3  and  C_30
    4  A    between atoms: O_5  and  C_24
    5  A    between atoms: O_5  and  C_25
    6  A    between atoms: C_12  and  C_19
    7  A    between atoms: C_13  and  C_18
    8  A    between atoms: C_13  and  C_25
    9  A    between atoms: C_19  and  C_36
   10  A    between atoms: C_22  and  C_32
   11  A    between atoms: C_23  and  C_25
   12  A    between atoms: C_26  and  N_27
   13  A    between atoms: C_31  and  C_32
   14  A    between atoms: N_34  and  P_40
                            x       y       z     vdW  Elec       q    Type
                         _______ _______ _______ _____ _____    ______ ____

>  <TORSDO>
F 14

$$$$
=
 OpenBabel11042413313D

 41 42  0  0  1  0  0  0  0  0999 V2000
  184.9820  178.7320  143.8520 C   0  0  0  0  0  0  0  0  0  0  0  0
  186.0580  178.0900  143.2320 C   0  0  0  0  0  3  0  0  0  0  0  0
  186.7910  177.2380  145.3730 C   0  0  0  0  0  3  0  0  0  0  0  0
  185.7170  177.8810  145.9970 C   0  0  0  0  0  3  0  0  0  0  0  0
  186.9690  177.3350  143.9850 C   0  0  0  0  0  0  0  0  0  0  0  0
  184.8150  178.6300  145.2370 C   0  0  0  0  0  3  0  0  0  0  0  0
  188.1050  176.6620  143.3280 C   0  0  0  0  0  0  0  0  0  0  0  0
  188.1220  175.4040  143.2270 O   0  0  0  0  0  0  0  0  0  0  0  0
  189.8230  178.3730  143.8940 C   0  0  0  0  0  1  0  0  0  0  0  0
  189.2620  177.4630  142.8150 C   0  0  2  0  0  3  0  0  0  0  0  0
  188.8570  178.2450  141.6580 N   0  0  0  0  0  2  0  0  0  0  0  0
  188.8490  178.7310  139.2420 N   0  0  0  0  0  2  0  0  0  0  0  0
  189.1980  179.2300  137.0050 O   0  0  0  0  0  0  0  0  0  0  0  0
  188.9140  178.3540  137.8610 C   0  0  0  0  0  0  0  0  0  0  0  0
  189.9880  176.8930  140.1290 O   0  0  0  0  0  0  0  0  0  0  0  0
  189.2580  177.9020  140.3320 C   0  0  0  0  0  0  0  0  0  0  0  0
  188.6320  177.0530  137.4270 O   0  0  0  0  0  0  0  0  0  0  0  0
  189.4570  176.3370  136.5150 C   0  0  2  0  0  3  0  0  0  0  0  0
  187.4200  174.8890  135.3940 S   0  0  0  0  0  1  0  0  0  0  0  0
  188.7070  176.1580  135.2080 C   0  0  0  0  0  2  0  0  0  0  0  0
  189.8180  174.9720  137.0840 C   0  0  0  0  0  2  0  0  0  0  0  0
  191.2400  174.9580  137.6100 C   0  0  0  0  0  2  0  0  0  0  0  0
  192.1000  175.9260  136.8240 C   0  0  0  0  0  1  0  0  0  0  0  0
  184.0430  179.5580  143.0410 C   0  0  0  0  0  2  0  0  0  0  0  0
  180.4870  178.5970  143.9310 C   0  0  0  0  0  2  0  0  0  0  0  0
  181.5800  179.5640  143.5030 C   0  0  0  0  0  2  0  0  0  0  0  0
  180.4870  177.1150  141.9010 C   0  0  0  0  0  2  0  0  0  0  0  0
  181.3940  177.8400  140.9490 C   0  0  0  0  0  3  0  0  0  0  0  0
  182.4060  178.6280  141.3400 C   0  0  0  0  0  0  0  0  0  0  0  0
  179.6780  178.0940  142.7420 C   0  0  0  0  0  2  0  0  0  0  0  0
  182.7220  178.8250  142.8100 C   0  0  1  0  0  3  0  0  0  0  0  0
  183.2430  179.2580  140.2670 C   0  0  0  0  0  2  0  0  0  0  0  0
  183.3130  178.4260  137.9410 N   0  0  0  0  0  0  0  0  0  0  0  0
  182.6550  178.9730  138.9210 C   0  0  0  0  0  3  0  0  0  0  0  0
  185.6240  178.8330  138.0660 O   0  0  0  0  0  0  0  0  0  0  0  0
  184.6850  178.0020  137.9410 C   0  0  0  0  0  0  0  0  0  0  0  0
  185.0060  176.6180  137.7880 N   0  0  0  0  0  2  0  0  0  0  0  0
  184.5180  173.8660  137.4720 O   0  0  0  0  0  1  0  0  0  0  0  0
  182.8790  175.6890  136.2050 O   0  0  0  0  0  0  0  0  0  0  0  0
  182.8610  175.3930  138.8010 O   0  0  0  0  0  1  0  0  0  0  0  0
  183.7790  175.3800  137.6010 P   0  0  0  0  0  0  0  0  0  0  0  0
  1  6  1  0  0  0  0
  2  1  2  0  0  0  0
  2  5  1  0  0  0  0
  3  4  1  0  0  0  0
  5  3  2  0  0  0  0
  6  4  2  0  0  0  0
  7  5  1  0  0  0  0
  8  7  2  0  0  0  0
 10  7  1  0  0  0  0
 10  9  1  1  0  0  0
 11 10  1  0  0  0  0
 12 16  1  0  0  0  0
 13 14  2  0  0  0  0
 14 12  1  0  0  0  0
 15 16  2  0  0  0  0
 16 11  1  0  0  0  0
 17 14  1  0  0  0  0
 18 20  1  6  0  0  0
 18 21  1  0  0  0  0
 18 17  1  0  0  0  0
 20 19  1  0  0  0  0
 21 22  1  0  0  0  0
 23 22  1  0  0  0  0
 24  1  1  0  0  0  0
 26 25  1  0  0  0  0
 27 30  1  0  0  0  0
 28 29  2  0  0  0  0
 28 27  1  0  0  0  0
 29 31  1  0  0  0  0
 30 25  1  0  0  0  0
 31 24  1  6  0  0  0
 31 26  1  0  0  0  0
 32 29  1  0  0  0  0
 33 36  1  0  0  0  0
 33 34  2  0  0  0  0
 34 32  1  0  0  0  0
 36 35  2  0  0  0  0
 37 36  1  0  0  0  0
 38 41  1  0  0  0  0
 39 41  2  0  0  0  0
 41 37  1  0  0  0  0
 41 40  1  0  0  0  0
M  END
>  <MODEL>
6

>  <REMARK>
 VINA RESULT:      -6.9      2.187      3.700
  Name = 
  14 active torsions:
  status: ('A' for Active; 'I' for Inactive)
    1  A    between atoms: N_1  and  C_30
    2  A    between atoms: C_3  and  C_29
    3  A    between atoms: C_3  and  C_30
    4  A    between atoms: O_5  and  C_24
    5  A    between atoms: O_5  and  C_25
    6  A    between atoms: C_12  and  C_19
    7  A    between atoms: C_13  and  C_18
    8  A    between atoms: C_13  and  C_25
    9  A    between atoms: C_19  and  C_36
   10  A    between atoms: C_22  and  C_32
   11  A    between atoms: C_23  and  C_25
   12  A    between atoms: C_26  and  N_27
   13  A    between atoms: C_31  and  C_32
   14  A    between atoms: N_34  and  P_40
                            x       y       z     vdW  Elec       q    Type
                         _______ _______ _______ _____ _____    ______ ____

>  <TORSDO>
F 14

$$$$
=
 OpenBabel11042413313D

 41 42  0  0  1  0  0  0  0  0999 V2000
  184.2120  178.7580  139.9770 C   0  0  0  0  0  0  0  0  0  0  0  0
  183.7350  177.4560  139.7950 C   0  0  0  0  0  3  0  0  0  0  0  0
  181.8210  178.3190  138.5940 C   0  0  0  0  0  3  0  0  0  0  0  0
  182.2950  179.6220  138.7770 C   0  0  0  0  0  3  0  0  0  0  0  0
  182.5390  177.2250  139.0990 C   0  0  0  0  0  0  0  0  0  0  0  0
  183.4880  179.8420  139.4690 C   0  0  0  0  0  3  0  0  0  0  0  0
  182.0370  175.8510  138.9120 C   0  0  0  0  0  0  0  0  0  0  0  0
  181.3180  175.3150  139.8010 O   0  0  0  0  0  0  0  0  0  0  0  0
  181.3670  174.0120  137.3730 C   0  0  0  0  0  1  0  0  0  0  0  0
  182.4090  175.0710  137.6890 C   0  0  2  0  0  3  0  0  0  0  0  0
  183.7150  174.4560  137.8660 N   0  0  0  0  0  2  0  0  0  0  0  0
  186.0600  174.0770  137.2090 N   0  0  0  0  0  2  0  0  0  0  0  0
  188.1290  173.5900  136.2830 O   0  0  0  0  0  0  0  0  0  0  0  0
  187.3060  174.4770  136.6240 C   0  0  0  0  0  0  0  0  0  0  0  0
  184.6700  175.5450  136.0370 O   0  0  0  0  0  0  0  0  0  0  0  0
  184.8110  174.7390  136.9970 C   0  0  0  0  0  0  0  0  0  0  0  0
  187.6560  175.8220  136.4590 O   0  0  0  0  0  0  0  0  0  0  0  0
  188.5850  176.4970  137.2990 C   0  0  2  0  0  3  0  0  0  0  0  0
  189.0550  178.6060  138.9810 S   0  0  0  0  0  1  0  0  0  0  0  0
  187.8650  177.6120  138.0330 C   0  0  0  0  0  2  0  0  0  0  0  0
  189.7210  177.0830  136.4720 C   0  0  0  0  0  2  0  0  0  0  0  0
  190.8940  176.1250  136.3970 C   0  0  0  0  0  2  0  0  0  0  0  0
  191.1840  175.5420  137.7660 C   0  0  0  0  0  1  0  0  0  0  0  0
  185.4670  178.9860  140.7480 C   0  0  0  0  0  2  0  0  0  0  0  0
  183.2240  178.9930  143.8020 C   0  0  0  0  0  2  0  0  0  0  0  0
  183.8220  178.3890  142.5410 C   0  0  0  0  0  2  0  0  0  0  0  0
  185.3070  179.0600  145.2070 C   0  0  0  0  0  2  0  0  0  0  0  0
  186.3020  178.3000  144.3780 C   0  0  0  0  0  3  0  0  0  0  0  0
  186.2660  178.2430  143.0380 C   0  0  0  0  0  0  0  0  0  0  0  0
  183.9090  178.4740  145.0600 C   0  0  0  0  0  2  0  0  0  0  0  0
  185.2000  178.9810  142.2520 C   0  0  1  0  0  3  0  0  0  0  0  0
  187.3500  177.4680  142.3510 C   0  0  0  0  0  2  0  0  0  0  0  0
  189.1610  176.0360  143.2350 N   0  0  0  0  0  0  0  0  0  0  0  0
  187.9300  176.4540  143.2860 C   0  0  0  0  0  3  0  0  0  0  0  0
  190.1880  176.0140  141.1220 O   0  0  0  0  0  0  0  0  0  0  0  0
  190.1810  176.4400  142.3070 C   0  0  0  0  0  0  0  0  0  0  0  0
  191.2150  177.3330  142.7260 N   0  0  0  0  0  2  0  0  0  0  0  0
  191.7020  176.7430  145.4330 O   0  0  0  0  0  1  0  0  0  0  0  0
  189.8040  178.6360  144.7760 O   0  0  0  0  0  1  0  0  0  0  0  0
  192.3570  179.0610  144.4100 O   0  0  0  0  0  0  0  0  0  0  0  0
  191.3020  177.9800  144.3520 P   0  0  0  0  0  0  0  0  0  0  0  0
  1 24  1  0  0  0  0
  2  1  1  0  0  0  0
  3  4  2  0  0  0  0
  3  5  1  0  0  0  0
  4  6  1  0  0  0  0
  5  2  2  0  0  0  0
  6  1  2  0  0  0  0
  7  5  1  0  0  0  0
  7  8  2  0  0  0  0
 10  9  1  1  0  0  0
 10 11  1  0  0  0  0
 10  7  1  0  0  0  0
 13 14  2  0  0  0  0
 14 12  1  0  0  0  0
 15 16  2  0  0  0  0
 16 12  1  0  0  0  0
 16 11  1  0  0  0  0
 17 14  1  0  0  0  0
 17 18  1  0  0  0  0
 18 21  1  6  0  0  0
 18 20  1  0  0  0  0
 20 19  1  0  0  0  0
 22 21  1  0  0  0  0
 22 23  1  0  0  0  0
 25 30  1  0  0  0  0
 26 25  1  0  0  0  0
 28 27  1  0  0  0  0
 29 28  2  0  0  0  0
 30 27  1  0  0  0  0
 31 24  1  6  0  0  0
 31 26  1  0  0  0  0
 31 29  1  0  0  0  0
 32 29  1  0  0  0  0
 32 34  1  0  0  0  0
 33 34  2  0  0  0  0
 35 36  2  0  0  0  0
 36 37  1  0  0  0  0
 36 33  1  0  0  0  0
 37 41  1  0  0  0  0
 41 40  2  0  0  0  0
 41 39  1  0  0  0  0
 41 38  1  0  0  0  0
M  END
>  <MODEL>
7

>  <REMARK>
 VINA RESULT:      -6.8      2.416      6.969
  Name = 
  14 active torsions:
  status: ('A' for Active; 'I' for Inactive)
    1  A    between atoms: N_1  and  C_30
    2  A    between atoms: C_3  and  C_29
    3  A    between atoms: C_3  and  C_30
    4  A    between atoms: O_5  and  C_24
    5  A    between atoms: O_5  and  C_25
    6  A    between atoms: C_12  and  C_19
    7  A    between atoms: C_13  and  C_18
    8  A    between atoms: C_13  and  C_25
    9  A    between atoms: C_19  and  C_36
   10  A    between atoms: C_22  and  C_32
   11  A    between atoms: C_23  and  C_25
   12  A    between atoms: C_26  and  N_27
   13  A    between atoms: C_31  and  C_32
   14  A    between atoms: N_34  and  P_40
                            x       y       z     vdW  Elec       q    Type
                         _______ _______ _______ _____ _____    ______ ____

>  <TORSDO>
F 14

$$$$
=
 OpenBabel11042413313D

 41 42  0  0  1  0  0  0  0  0999 V2000
  188.0650  177.0090  142.8190 C   0  0  0  0  0  0  0  0  0  0  0  0
  188.3230  177.4720  141.5250 C   0  0  0  0  0  3  0  0  0  0  0  0
  190.4700  176.3600  141.5480 C   0  0  0  0  0  3  0  0  0  0  0  0
  190.2160  175.8970  142.8430 C   0  0  0  0  0  3  0  0  0  0  0  0
  189.5240  177.1490  140.8770 C   0  0  0  0  0  0  0  0  0  0  0  0
  189.0150  176.2230  143.4790 C   0  0  0  0  0  3  0  0  0  0  0  0
  189.7940  177.6430  139.5140 C   0  0  0  0  0  0  0  0  0  0  0  0
  190.9670  177.9710  139.1830 O   0  0  0  0  0  0  0  0  0  0  0  0
  189.0650  178.7220  137.3930 C   0  0  0  0  0  1  0  0  0  0  0  0
  188.6750  177.7960  138.5310 C   0  0  2  0  0  3  0  0  0  0  0  0
  187.4850  178.2940  139.2010 N   0  0  0  0  0  2  0  0  0  0  0  0
  185.1020  178.9230  139.2450 N   0  0  0  0  0  2  0  0  0  0  0  0
  182.9480  179.7560  139.0340 O   0  0  0  0  0  0  0  0  0  0  0  0
  183.7390  178.8020  138.8190 C   0  0  0  0  0  0  0  0  0  0  0  0
  186.1140  178.0470  137.3290 O   0  0  0  0  0  0  0  0  0  0  0  0
  186.2260  178.3960  138.5370 C   0  0  0  0  0  0  0  0  0  0  0  0
  183.2460  177.6420  138.2110 O   0  0  0  0  0  0  0  0  0  0  0  0
  183.2180  176.3730  138.8540 C   0  0  2  0  0  3  0  0  0  0  0  0
  184.6760  174.6970  137.2520 S   0  0  0  0  0  1  0  0  0  0  0  0
  183.0500  175.2910  137.8030 C   0  0  0  0  0  2  0  0  0  0  0  0
  182.0620  176.3030  139.8430 C   0  0  0  0  0  2  0  0  0  0  0  0
  180.7630  176.7460  139.1980 C   0  0  0  0  0  2  0  0  0  0  0  0
  179.6100  175.9030  139.7060 C   0  0  0  0  0  1  0  0  0  0  0  0
  186.7970  177.3900  143.5040 C   0  0  0  0  0  2  0  0  0  0  0  0
  188.9190  177.5180  146.6420 C   0  0  0  0  0  2  0  0  0  0  0  0
  188.4460  178.0160  145.2850 C   0  0  0  0  0  2  0  0  0  0  0  0
  186.8000  177.8990  147.9380 C   0  0  0  0  0  2  0  0  0  0  0  0
  185.9390  178.6570  146.9690 C   0  0  0  0  0  3  0  0  0  0  0  0
  186.0260  178.5280  145.6370 C   0  0  0  0  0  0  0  0  0  0  0  0
  188.2660  178.2830  147.7860 C   0  0  0  0  0  2  0  0  0  0  0  0
  187.0140  177.5650  145.0070 C   0  0  1  0  0  3  0  0  0  0  0  0
  185.0740  179.3310  144.8030 C   0  0  0  0  0  2  0  0  0  0  0  0
  182.7380  178.6970  144.3000 N   0  0  0  0  0  0  0  0  0  0  0  0
  183.6620  178.9960  145.1660 C   0  0  0  0  0  3  0  0  0  0  0  0
  183.9890  178.4210  142.3300 O   0  0  0  0  0  0  0  0  0  0  0  0
  182.8710  178.6320  142.8710 C   0  0  0  0  0  0  0  0  0  0  0  0
  181.7260  178.8170  142.0380 N   0  0  0  0  0  2  0  0  0  0  0  0
  179.7850  178.0020  143.9040 O   0  0  0  0  0  1  0  0  0  0  0  0
  178.9830  178.9760  141.4500 O   0  0  0  0  0  0  0  0  0  0  0  0
  180.0700  180.5200  143.2560 O   0  0  0  0  0  1  0  0  0  0  0  0
  180.1260  179.1220  142.6860 P   0  0  0  0  0  0  0  0  0  0  0  0
  1  6  1  0  0  0  0
  1 24  1  0  0  0  0
  2  1  2  0  0  0  0
  3  4  1  0  0  0  0
  4  6  2  0  0  0  0
  5  2  1  0  0  0  0
  5  3  2  0  0  0  0
  7  5  1  0  0  0  0
  8  7  2  0  0  0  0
 10  9  1  6  0  0  0
 10 11  1  0  0  0  0
 10  7  1  0  0  0  0
 14 13  2  0  0  0  0
 14 12  1  0  0  0  0
 15 16  2  0  0  0  0
 16 11  1  0  0  0  0
 16 12  1  0  0  0  0
 17 14  1  0  0  0  0
 17 18  1  0  0  0  0
 18 20  1  6  0  0  0
 18 21  1  0  0  0  0
 19 20  1  0  0  0  0
 22 23  1  0  0  0  0
 22 21  1  0  0  0  0
 25 30  1  0  0  0  0
 26 25  1  0  0  0  0
 28 27  1  0  0  0  0
 29 28  2  0  0  0  0
 30 27  1  0  0  0  0
 31 24  1  6  0  0  0
 31 26  1  0  0  0  0
 31 29  1  0  0  0  0
 32 34  1  0  0  0  0
 32 29  1  0  0  0  0
 33 34  2  0  0  0  0
 35 36  2  0  0  0  0
 36 33  1  0  0  0  0
 37 41  1  0  0  0  0
 37 36  1  0  0  0  0
 39 41  2  0  0  0  0
 41 40  1  0  0  0  0
 41 38  1  0  0  0  0
M  END
>  <MODEL>
8

>  <REMARK>
 VINA RESULT:      -6.8      3.461      8.323
  Name = 
  14 active torsions:
  status: ('A' for Active; 'I' for Inactive)
    1  A    between atoms: N_1  and  C_30
    2  A    between atoms: C_3  and  C_29
    3  A    between atoms: C_3  and  C_30
    4  A    between atoms: O_5  and  C_24
    5  A    between atoms: O_5  and  C_25
    6  A    between atoms: C_12  and  C_19
    7  A    between atoms: C_13  and  C_18
    8  A    between atoms: C_13  and  C_25
    9  A    between atoms: C_19  and  C_36
   10  A    between atoms: C_22  and  C_32
   11  A    between atoms: C_23  and  C_25
   12  A    between atoms: C_26  and  N_27
   13  A    between atoms: C_31  and  C_32
   14  A    between atoms: N_34  and  P_40
                            x       y       z     vdW  Elec       q    Type
                         _______ _______ _______ _____ _____    ______ ____

>  <TORSDO>
F 14

$$$$
=
 OpenBabel11042413313D

 41 42  0  0  1  0  0  0  0  0999 V2000
  184.1170  178.3290  142.5290 C   0  0  0  0  0  0  0  0  0  0  0  0
  185.3860  177.9130  142.9410 C   0  0  0  0  0  3  0  0  0  0  0  0
  184.8800  178.5990  145.2050 C   0  0  0  0  0  3  0  0  0  0  0  0
  183.6110  179.0170  144.7940 C   0  0  0  0  0  3  0  0  0  0  0  0
  185.7780  178.0410  144.2820 C   0  0  0  0  0  0  0  0  0  0  0  0
  183.2300  178.8840  143.4570 C   0  0  0  0  0  3  0  0  0  0  0  0
  187.1190  177.6060  144.7140 C   0  0  0  0  0  0  0  0  0  0  0  0
  187.3750  177.4740  145.9420 O   0  0  0  0  0  0  0  0  0  0  0  0
  189.5610  177.7380  144.2450 C   0  0  0  0  0  1  0  0  0  0  0  0
  188.1950  177.3580  143.7010 C   0  0  2  0  0  3  0  0  0  0  0  0
  187.9140  178.0990  142.4810 N   0  0  0  0  0  2  0  0  0  0  0  0
  188.3310  178.6570  140.1180 N   0  0  0  0  0  2  0  0  0  0  0  0
  189.0530  179.2820  138.0040 O   0  0  0  0  0  0  0  0  0  0  0  0
  188.7490  178.3430  138.7830 C   0  0  0  0  0  0  0  0  0  0  0  0
  189.5560  177.0080  141.2330 O   0  0  0  0  0  0  0  0  0  0  0  0
  188.6370  177.8730  141.2720 C   0  0  0  0  0  0  0  0  0  0  0  0
  188.7920  177.0290  138.3030 O   0  0  0  0  0  0  0  0  0  0  0  0
  189.8540  176.5220  137.5030 C   0  0  2  0  0  3  0  0  0  0  0  0
  190.1360  176.3460  134.7850 S   0  0  0  0  0  1  0  0  0  0  0  0
  189.2690  175.8210  136.2920 C   0  0  0  0  0  2  0  0  0  0  0  0
  190.6980  175.5380  138.3010 C   0  0  0  0  0  2  0  0  0  0  0  0
  192.1650  175.6520  137.9340 C   0  0  0  0  0  2  0  0  0  0  0  0
  192.8170  176.7720  138.7200 C   0  0  0  0  0  1  0  0  0  0  0  0
  183.7300  178.2160  141.0930 C   0  0  0  0  0  2  0  0  0  0  0  0
  180.3290  179.8300  140.6490 C   0  0  0  0  0  2  0  0  0  0  0  0
  181.7350  179.4490  140.2090 C   0  0  0  0  0  2  0  0  0  0  0  0
  179.3350  177.5240  140.7520 C   0  0  0  0  0  2  0  0  0  0  0  0
  180.4070  176.6630  140.1500 C   0  0  0  0  0  3  0  0  0  0  0  0
  181.7150  176.9510  140.2110 C   0  0  0  0  0  0  0  0  0  0  0  0
  179.2800  178.8870  140.0740 C   0  0  0  0  0  2  0  0  0  0  0  0
  182.2100  178.1900  140.9310 C   0  0  1  0  0  3  0  0  0  0  0  0
  182.6670  175.9740  139.5890 C   0  0  0  0  0  2  0  0  0  0  0  0
  183.0420  175.1290  137.2960 N   0  0  0  0  0  0  0  0  0  0  0  0
  182.2660  175.6940  138.1750 C   0  0  0  0  0  3  0  0  0  0  0  0
  184.6340  173.5330  137.9610 O   0  0  0  0  0  0  0  0  0  0  0  0
  184.3920  174.6760  137.4880 C   0  0  0  0  0  0  0  0  0  0  0  0
  185.4860  175.5280  137.1480 N   0  0  0  0  0  2  0  0  0  0  0  0
  184.6920  178.1700  137.6980 O   0  0  0  0  0  1  0  0  0  0  0  0
  184.1400  177.0730  135.2260 O   0  0  0  0  0  0  0  0  0  0  0  0
  186.5800  177.6540  135.9620 O   0  0  0  0  0  1  0  0  0  0  0  0
  185.2620  177.1360  136.4890 P   0  0  0  0  0  0  0  0  0  0  0  0
  1  2  2  0  0  0  0
  1  6  1  0  0  0  0
  2  5  1  0  0  0  0
  4  3  1  0  0  0  0
  5  7  1  0  0  0  0
  5  3  2  0  0  0  0
  6  4  2  0  0  0  0
  7  8  2  0  0  0  0
 10  9  1  1  0  0  0
 10  7  1  0  0  0  0
 11 10  1  0  0  0  0
 12 16  1  0  0  0  0
 13 14  2  0  0  0  0
 14 12  1  0  0  0  0
 15 16  2  0  0  0  0
 16 11  1  0  0  0  0
 17 14  1  0  0  0  0
 18 20  1  6  0  0  0
 18 21  1  0  0  0  0
 18 17  1  0  0  0  0
 19 20  1  0  0  0  0
 22 21  1  0  0  0  0
 22 23  1  0  0  0  0
 24  1  1  0  0  0  0
 26 25  1  0  0  0  0
 26 31  1  0  0  0  0
 28 29  2  0  0  0  0
 28 27  1  0  0  0  0
 29 31  1  0  0  0  0
 30 25  1  0  0  0  0
 30 27  1  0  0  0  0
 31 24  1  6  0  0  0
 32 29  1  0  0  0  0
 33 36  1  0  0  0  0
 33 34  2  0  0  0  0
 34 32  1  0  0  0  0
 36 35  2  0  0  0  0
 37 36  1  0  0  0  0
 39 41  2  0  0  0  0
 40 41  1  0  0  0  0
 41 37  1  0  0  0  0
 41 38  1  0  0  0  0
M  END
>  <MODEL>
9

>  <REMARK>
 VINA RESULT:      -6.7      1.857      2.779
  Name = 
  14 active torsions:
  status: ('A' for Active; 'I' for Inactive)
    1  A    between atoms: N_1  and  C_30
    2  A    between atoms: C_3  and  C_29
    3  A    between atoms: C_3  and  C_30
    4  A    between atoms: O_5  and  C_24
    5  A    between atoms: O_5  and  C_25
    6  A    between atoms: C_12  and  C_19
    7  A    between atoms: C_13  and  C_18
    8  A    between atoms: C_13  and  C_25
    9  A    between atoms: C_19  and  C_36
   10  A    between atoms: C_22  and  C_32
   11  A    between atoms: C_23  and  C_25
   12  A    between atoms: C_26  and  N_27
   13  A    between atoms: C_31  and  C_32
   14  A    between atoms: N_34  and  P_40
                            x       y       z     vdW  Elec       q    Type
                         _______ _______ _______ _____ _____    ______ ____

>  <TORSDO>
F 14

$$$$
