=
 OpenBabel11032419113D

 42 45  0  0  1  0  0  0  0  0999 V2000
  190.2080  177.3060  146.8990 C   0  0  0  0  0  0  0  0  0  0  0  0
  190.5290  177.7260  145.5980 C   0  0  0  0  0  0  0  0  0  0  0  0
  191.9200  176.1600  146.2430 C   0  0  0  0  0  3  0  0  0  0  0  0
  188.7880  177.5060  147.0860 C   0  0  0  0  0  0  0  0  0  0  0  0
  191.6890  176.9590  145.1880 C   0  0  0  0  0  3  0  0  0  0  0  0
  188.3160  178.0150  145.9400 C   0  0  0  0  0  0  0  0  0  0  0  0
  189.4400  178.1230  144.9540 C   0  0  0  0  0  0  0  0  0  0  0  0
  190.9390  176.3200  147.2860 N   0  0  0  0  0  0  0  0  0  0  0  0
  188.0100  177.1050  148.2270 C   0  0  0  0  0  0  0  0  0  0  0  0
  187.3860  176.7810  149.1450 N   0  0  0  0  0  0  0  0  0  0  0  0
  186.9200  178.2540  145.7270 N   0  0  0  0  0  2  0  0  0  0  0  0
  184.1590  178.7960  145.4530 C   0  0  0  0  0  1  0  0  0  0  0  0
  186.3900  178.6340  144.4910 N   0  0  0  0  0  0  0  0  0  0  0  0
  185.1280  178.8810  144.3220 C   0  0  0  0  0  0  0  0  0  0  0  0
  184.6380  179.2950  142.9780 C   0  0  0  0  0  2  0  0  0  0  0  0
  184.2740  178.0660  142.1540 C   0  0  0  0  0  2  0  0  0  0  0  0
  184.1890  178.3540  140.6550 C   0  0  2  0  0  3  0  0  0  0  0  0
  184.9150  179.5730  140.2870 N   0  0  0  0  0  2  0  0  0  0  0  0
  184.4250  180.0410  139.1130 O   0  0  0  0  0  1  0  0  0  0  0  0
  182.7610  178.3140  140.1140 C   0  0  0  0  0  2  0  0  0  0  0  0
  180.8680  176.8160  139.5450 C   0  0  0  0  0  1  0  0  0  0  0  0
  182.3730  176.9050  139.6910 C   0  0  1  0  0  3  0  0  0  0  0  0
  183.0550  177.3540  137.4520 O   0  0  0  0  0  0  0  0  0  0  0  0
  183.0320  176.5300  138.4030 C   0  0  0  0  0  0  0  0  0  0  0  0
  183.6240  175.2820  138.2500 O   0  0  0  0  0  1  0  0  0  0  0  0
  189.3620  178.1070  143.5240 N   0  0  0  0  0  2  0  0  0  0  0  0
  188.7380  177.0590  142.7320 C   0  0  2  0  0  3  0  0  0  0  0  0
  188.9940  178.1170  140.4760 C   0  0  2  0  0  3  0  0  0  0  0  0
  190.6110  176.6760  141.1090 C   0  0  0  0  0  2  0  0  0  0  0  0
  189.7990  176.0640  142.2550 C   0  0  0  0  0  2  0  0  0  0  0  0
  189.7580  177.0150  140.0440 O   0  0  0  0  0  0  0  0  0  0  0  0
  187.9910  177.6620  141.5370 C   0  0  0  0  0  2  0  0  0  0  0  0
  188.2780  178.6900  139.3510 N   0  0  0  0  0  2  0  0  0  0  0  0
  187.5600  177.6060  138.7030 C   0  0  0  0  0  2  0  0  0  0  0  0
  187.6850  177.7480  137.1970 C   0  0  2  0  0  3  0  0  0  0  0  0
  187.7670  175.2570  137.3160 F   0  0  0  0  0  0  0  0  0  0  0  0
  186.4600  177.1420  136.5240 C   0  0  0  0  0  2  0  0  0  0  0  0
  187.7700  176.3920  136.5190 C   0  0  1  0  0  0  0  0  0  0  0  0
  188.4590  176.3610  135.1590 C   0  0  2  0  0  3  0  0  0  0  0  0
  188.5120  175.0580  134.6520 O   0  0  0  0  0  1  0  0  0  0  0  0
  190.7320  176.0950  135.8910 C   0  0  0  0  0  1  0  0  0  0  0  0
  189.7920  176.9680  135.1980 N   0  0  0  0  0  2  0  0  0  0  0  0
  1  4  1  0  0  0  0
  1  8  2  0  0  0  0
  2  1  1  0  0  0  0
  3  8  1  0  0  0  0
  4  9  1  0  0  0  0
  5  2  1  0  0  0  0
  5  3  2  0  0  0  0
  6  4  2  0  0  0  0
  7  2  2  0  0  0  0
  7  6  1  0  0  0  0
  9 10  3  0  0  0  0
 11  6  1  0  0  0  0
 13 11  1  0  0  0  0
 14 13  2  0  0  0  0
 14 12  1  0  0  0  0
 15 14  1  0  0  0  0
 16 15  1  0  0  0  0
 17 20  1  1  0  0  0
 17 16  1  0  0  0  0
 18 17  1  0  0  0  0
 19 18  1  0  0  0  0
 22 21  1  6  0  0  0
 22 20  1  0  0  0  0
 23 24  2  0  0  0  0
 24 22  1  0  0  0  0
 25 24  1  0  0  0  0
 26  7  1  0  0  0  0
 27 26  1  6  0  0  0
 28 33  1  6  0  0  0
 28 32  1  0  0  0  0
 29 30  1  0  0  0  0
 30 27  1  0  0  0  0
 31 28  1  0  0  0  0
 31 29  1  0  0  0  0
 32 27  1  0  0  0  0
 34 33  1  0  0  0  0
 35 34  1  1  0  0  0
 37 35  1  0  0  0  0
 38 37  1  0  0  0  0
 38 35  1  0  0  0  0
 38 36  1  1  0  0  0
 39 40  1  1  0  0  0
 39 42  1  0  0  0  0
 39 38  1  0  0  0  0
 42 41  1  0  0  0  0
M  END
>  <MODEL>
1

>  <REMARK>
 VINA RESULT:      -7.0      0.000      0.000
  Name = 
  17 active torsions:
  status: ('A' for Active; 'I' for Inactive)
    1  A    between atoms: C_1  and  C_39
    2  A    between atoms: N_2  and  C_16
    3  A    between atoms: C_7  and  N_11
    4  A    between atoms: C_7  and  C_42
    5  A    between atoms: C_8  and  C_15
    6  A    between atoms: N_9  and  C_13
    7  A    between atoms: N_9  and  C_29
    8  A    between atoms: C_12  and  C_30
    9  A    between atoms: C_12  and  C_36
   10  A    between atoms: C_16  and  C_17
   11  A    between atoms: C_16  and  C_36
   12  A    between atoms: C_17  and  C_41
   13  A    between atoms: N_18  and  C_28
   14  A    between atoms: N_18  and  N_31
   15  A    between atoms: C_20  and  N_37
   16  A    between atoms: C_35  and  C_41
   17  A    between atoms: N_37  and  C_39
                            x       y       z     vdW  Elec       q    Type
                         _______ _______ _______ _____ _____    ______ ____

>  <TORSDO>
F 17

$$$$
=
 OpenBabel11032419113D

 42 45  0  0  1  0  0  0  0  0999 V2000
  192.0440  175.4260  137.2940 C   0  0  0  0  0  0  0  0  0  0  0  0
  190.7550  175.2790  136.7580 C   0  0  0  0  0  0  0  0  0  0  0  0
  191.8660  173.4020  136.5550 C   0  0  0  0  0  3  0  0  0  0  0  0
  191.9750  176.4270  138.3360 C   0  0  0  0  0  0  0  0  0  0  0  0
  190.6660  173.9230  136.2530 C   0  0  0  0  0  3  0  0  0  0  0  0
  190.6990  176.8330  138.3960 C   0  0  0  0  0  0  0  0  0  0  0  0
  189.8930  176.0590  137.3960 C   0  0  0  0  0  0  0  0  0  0  0  0
  192.7040  174.3210  137.2830 N   0  0  0  0  0  0  0  0  0  0  0  0
  193.0360  176.8080  139.2280 C   0  0  0  0  0  0  0  0  0  0  0  0
  193.8880  177.1150  139.9470 N   0  0  0  0  0  0  0  0  0  0  0  0
  190.2370  177.7580  139.3860 N   0  0  0  0  0  2  0  0  0  0  0  0
  190.9590  177.5020  142.1070 C   0  0  0  0  0  1  0  0  0  0  0  0
  189.2770  177.4330  140.3480 N   0  0  0  0  0  0  0  0  0  0  0  0
  189.5700  177.2980  141.6030 C   0  0  0  0  0  0  0  0  0  0  0  0
  188.4900  176.9640  142.5730 C   0  0  0  0  0  2  0  0  0  0  0  0
  189.0880  176.6850  143.9470 C   0  0  0  0  0  2  0  0  0  0  0  0
  188.3120  177.3480  145.0840 C   0  0  2  0  0  3  0  0  0  0  0  0
  188.8480  176.9880  146.4000 N   0  0  0  0  0  2  0  0  0  0  0  0
  189.0760  178.1190  147.1090 O   0  0  0  0  0  1  0  0  0  0  0  0
  186.8000  177.1560  144.9740 C   0  0  0  0  0  2  0  0  0  0  0  0
  185.2330  178.5820  143.6840 C   0  0  0  0  0  1  0  0  0  0  0  0
  186.0780  178.4950  144.9380 C   0  0  1  0  0  3  0  0  0  0  0  0
  185.7090  178.5170  147.2920 O   0  0  0  0  0  1  0  0  0  0  0  0
  185.2160  178.6730  146.1450 C   0  0  0  0  0  0  0  0  0  0  0  0
  183.8750  179.0160  146.0120 O   0  0  0  0  0  0  0  0  0  0  0  0
  188.4920  175.7620  137.4350 N   0  0  0  0  0  2  0  0  0  0  0  0
  187.5020  176.2720  136.5000 C   0  0  2  0  0  3  0  0  0  0  0  0
  186.6590  178.1830  137.8830 C   0  0  2  0  0  3  0  0  0  0  0  0
  188.2980  178.6490  136.4030 C   0  0  0  0  0  2  0  0  0  0  0  0
  188.1310  177.3480  135.6110 C   0  0  0  0  0  2  0  0  0  0  0  0
  187.0470  179.0860  136.8750 O   0  0  0  0  0  0  0  0  0  0  0  0
  186.2940  176.8380  137.2540 C   0  0  0  0  0  2  0  0  0  0  0  0
  185.5100  178.7080  138.5990 N   0  0  0  0  0  2  0  0  0  0  0  0
  184.4780  177.6860  138.5590 C   0  0  0  0  0  2  0  0  0  0  0  0
  183.2520  178.1790  139.3050 C   0  0  2  0  0  3  0  0  0  0  0  0
  182.8410  175.7300  139.5470 F   0  0  0  0  0  0  0  0  0  0  0  0
  183.3440  177.7650  140.7680 C   0  0  0  0  0  2  0  0  0  0  0  0
  182.4230  177.0210  139.8320 C   0  0  1  0  0  0  0  0  0  0  0  0
  180.9430  177.3040  140.0660 C   0  0  2  0  0  3  0  0  0  0  0  0
  180.1440  176.3090  139.4910 O   0  0  0  0  0  1  0  0  0  0  0  0
  179.9300  179.3960  140.6750 C   0  0  0  0  0  1  0  0  0  0  0  0
  180.5510  178.6340  139.5970 N   0  0  0  0  0  2  0  0  0  0  0  0
  1  4  1  0  0  0  0
  2  1  1  0  0  0  0
  2  7  2  0  0  0  0
  3  8  1  0  0  0  0
  4  6  2  0  0  0  0
  4  9  1  0  0  0  0
  5  3  2  0  0  0  0
  5  2  1  0  0  0  0
  6 11  1  0  0  0  0
  7 26  1  0  0  0  0
  7  6  1  0  0  0  0
  8  1  2  0  0  0  0
  9 10  3  0  0  0  0
 11 13  1  0  0  0  0
 13 14  2  0  0  0  0
 14 12  1  0  0  0  0
 14 15  1  0  0  0  0
 15 16  1  0  0  0  0
 17 16  1  6  0  0  0
 17 18  1  0  0  0  0
 18 19  1  0  0  0  0
 20 17  1  0  0  0  0
 22 21  1  6  0  0  0
 22 20  1  0  0  0  0
 22 24  1  0  0  0  0
 24 23  1  0  0  0  0
 25 24  2  0  0  0  0
 27 32  1  0  0  0  0
 27 26  1  1  0  0  0
 28 33  1  6  0  0  0
 29 31  1  0  0  0  0
 30 29  1  0  0  0  0
 30 27  1  0  0  0  0
 31 28  1  0  0  0  0
 32 28  1  0  0  0  0
 34 33  1  0  0  0  0
 35 34  1  6  0  0  0
 35 38  1  0  0  0  0
 35 37  1  0  0  0  0
 38 36  1  6  0  0  0
 38 39  1  0  0  0  0
 38 37  1  0  0  0  0
 39 40  1  6  0  0  0
 42 39  1  0  0  0  0
 42 41  1  0  0  0  0
M  END
>  <MODEL>
2

>  <REMARK>
 VINA RESULT:      -6.9      3.119      7.713
  Name = 
  17 active torsions:
  status: ('A' for Active; 'I' for Inactive)
    1  A    between atoms: C_1  and  C_39
    2  A    between atoms: N_2  and  C_16
    3  A    between atoms: C_7  and  N_11
    4  A    between atoms: C_7  and  C_42
    5  A    between atoms: C_8  and  C_15
    6  A    between atoms: N_9  and  C_13
    7  A    between atoms: N_9  and  C_29
    8  A    between atoms: C_12  and  C_30
    9  A    between atoms: C_12  and  C_36
   10  A    between atoms: C_16  and  C_17
   11  A    between atoms: C_16  and  C_36
   12  A    between atoms: C_17  and  C_41
   13  A    between atoms: N_18  and  C_28
   14  A    between atoms: N_18  and  N_31
   15  A    between atoms: C_20  and  N_37
   16  A    between atoms: C_35  and  C_41
   17  A    between atoms: N_37  and  C_39
                            x       y       z     vdW  Elec       q    Type
                         _______ _______ _______ _____ _____    ______ ____

>  <TORSDO>
F 17

$$$$
=
 OpenBabel11032419113D

 42 45  0  0  1  0  0  0  0  0999 V2000
  189.5960  177.3570  140.3790 C   0  0  0  0  0  0  0  0  0  0  0  0
  188.6990  177.5660  141.4380 C   0  0  0  0  0  0  0  0  0  0  0  0
  190.7540  177.8980  142.1230 C   0  0  0  0  0  3  0  0  0  0  0  0
  188.9020  177.6660  139.1480 C   0  0  0  0  0  0  0  0  0  0  0  0
  189.4980  177.9080  142.5990 C   0  0  0  0  0  3  0  0  0  0  0  0
  187.6610  178.0400  139.4890 C   0  0  0  0  0  0  0  0  0  0  0  0
  187.5360  178.0130  140.9840 C   0  0  0  0  0  0  0  0  0  0  0  0
  190.8090  177.6320  140.7080 N   0  0  0  0  0  0  0  0  0  0  0  0
  189.4720  177.7030  137.8290 C   0  0  0  0  0  0  0  0  0  0  0  0
  189.9320  177.7320  136.7680 N   0  0  0  0  0  0  0  0  0  0  0  0
  186.7120  178.5110  138.5260 N   0  0  0  0  0  2  0  0  0  0  0  0
  184.2150  179.6420  139.2200 C   0  0  0  0  0  1  0  0  0  0  0  0
  185.5220  177.8390  138.2330 N   0  0  0  0  0  0  0  0  0  0  0  0
  184.3580  178.3200  138.5430 C   0  0  0  0  0  0  0  0  0  0  0  0
  183.1320  177.5530  138.1860 C   0  0  0  0  0  2  0  0  0  0  0  0
  182.6020  176.8150  139.4090 C   0  0  0  0  0  2  0  0  0  0  0  0
  181.1360  176.4040  139.2710 C   0  0  2  0  0  3  0  0  0  0  0  0
  180.8220  175.9290  137.9210 N   0  0  0  0  0  2  0  0  0  0  0  0
  181.2860  174.6630  137.7790 O   0  0  0  0  0  1  0  0  0  0  0  0
  180.1620  177.4660  139.7790 C   0  0  0  0  0  2  0  0  0  0  0  0
  180.6400  179.8450  140.2950 C   0  0  0  0  0  1  0  0  0  0  0  0
  180.8440  178.4160  140.7530 C   0  0  1  0  0  3  0  0  0  0  0  0
  179.2810  177.5410  142.3240 O   0  0  0  0  0  0  0  0  0  0  0  0
  180.3080  178.2430  142.1370 C   0  0  0  0  0  0  0  0  0  0  0  0
  180.9370  178.8470  143.2190 O   0  0  0  0  0  1  0  0  0  0  0  0
  186.6490  178.7790  141.8070 N   0  0  0  0  0  2  0  0  0  0  0  0
  185.4430  178.2670  142.4390 C   0  0  2  0  0  3  0  0  0  0  0  0
  186.3370  178.0270  144.7670 C   0  0  2  0  0  3  0  0  0  0  0  0
  185.2660  179.9540  144.2860 C   0  0  0  0  0  2  0  0  0  0  0  0
  184.6170  179.4260  143.0030 C   0  0  0  0  0  2  0  0  0  0  0  0
  185.3570  178.9230  145.2370 O   0  0  0  0  0  0  0  0  0  0  0  0
  185.8020  177.2730  143.5500 C   0  0  0  0  0  2  0  0  0  0  0  0
  186.6780  177.0780  145.8110 N   0  0  0  0  0  2  0  0  0  0  0  0
  187.2150  177.8410  146.9250 C   0  0  0  0  0  2  0  0  0  0  0  0
  188.4630  177.1560  147.4510 C   0  0  2  0  0  3  0  0  0  0  0  0
  189.5640  178.6430  145.7780 F   0  0  0  0  0  0  0  0  0  0  0  0
  189.3500  178.1780  148.1490 C   0  0  0  0  0  2  0  0  0  0  0  0
  189.7120  177.6850  146.7690 C   0  0  1  0  0  0  0  0  0  0  0  0
  190.9140  176.7470  146.7440 C   0  0  2  0  0  3  0  0  0  0  0  0
  191.6990  176.9050  147.8910 O   0  0  0  0  0  1  0  0  0  0  0  0
  191.7790  175.6500  144.7890 C   0  0  0  0  0  1  0  0  0  0  0  0
  191.7150  176.9060  145.5280 N   0  0  0  0  0  2  0  0  0  0  0  0
  1  8  1  0  0  0  0
  1  2  1  0  0  0  0
  2  5  2  0  0  0  0
  3  5  1  0  0  0  0
  4  6  1  0  0  0  0
  4  1  2  0  0  0  0
  6  7  2  0  0  0  0
  7  2  1  0  0  0  0
  7 26  1  0  0  0  0
  8  3  2  0  0  0  0
  9  4  1  0  0  0  0
 10  9  3  0  0  0  0
 11  6  1  0  0  0  0
 13 11  1  0  0  0  0
 13 14  2  0  0  0  0
 14 12  1  0  0  0  0
 15 14  1  0  0  0  0
 15 16  1  0  0  0  0
 17 16  1  6  0  0  0
 17 20  1  0  0  0  0
 18 17  1  0  0  0  0
 19 18  1  0  0  0  0
 20 22  1  0  0  0  0
 22 21  1  6  0  0  0
 22 24  1  0  0  0  0
 24 23  2  0  0  0  0
 24 25  1  0  0  0  0
 27 26  1  1  0  0  0
 27 30  1  0  0  0  0
 27 32  1  0  0  0  0
 28 31  1  0  0  0  0
 28 33  1  1  0  0  0
 29 31  1  0  0  0  0
 30 29  1  0  0  0  0
 32 28  1  0  0  0  0
 33 34  1  0  0  0  0
 35 34  1  6  0  0  0
 35 37  1  0  0  0  0
 38 36  1  6  0  0  0
 38 35  1  0  0  0  0
 38 37  1  0  0  0  0
 39 38  1  0  0  0  0
 39 40  1  1  0  0  0
 41 42  1  0  0  0  0
 42 39  1  0  0  0  0
M  END
>  <MODEL>
3

>  <REMARK>
 VINA RESULT:      -6.8      3.068      7.309
  Name = 
  17 active torsions:
  status: ('A' for Active; 'I' for Inactive)
    1  A    between atoms: C_1  and  C_39
    2  A    between atoms: N_2  and  C_16
    3  A    between atoms: C_7  and  N_11
    4  A    between atoms: C_7  and  C_42
    5  A    between atoms: C_8  and  C_15
    6  A    between atoms: N_9  and  C_13
    7  A    between atoms: N_9  and  C_29
    8  A    between atoms: C_12  and  C_30
    9  A    between atoms: C_12  and  C_36
   10  A    between atoms: C_16  and  C_17
   11  A    between atoms: C_16  and  C_36
   12  A    between atoms: C_17  and  C_41
   13  A    between atoms: N_18  and  C_28
   14  A    between atoms: N_18  and  N_31
   15  A    between atoms: C_20  and  N_37
   16  A    between atoms: C_35  and  C_41
   17  A    between atoms: N_37  and  C_39
                            x       y       z     vdW  Elec       q    Type
                         _______ _______ _______ _____ _____    ______ ____

>  <TORSDO>
F 17

$$$$
=
 OpenBabel11032419113D

 42 45  0  0  1  0  0  0  0  0999 V2000
  190.2660  177.2530  146.7250 C   0  0  0  0  0  0  0  0  0  0  0  0
  190.5970  177.4130  145.3700 C   0  0  0  0  0  0  0  0  0  0  0  0
  192.0180  176.0490  146.3310 C   0  0  0  0  0  3  0  0  0  0  0  0
  188.8380  177.4450  146.8530 C   0  0  0  0  0  0  0  0  0  0  0  0
  191.7830  176.6140  145.1350 C   0  0  0  0  0  3  0  0  0  0  0  0
  188.3710  177.7000  145.6230 C   0  0  0  0  0  0  0  0  0  0  0  0
  189.5090  177.6420  144.6480 C   0  0  0  0  0  0  0  0  0  0  0  0
  191.0160  176.3860  147.3100 N   0  0  0  0  0  0  0  0  0  0  0  0
  188.0520  177.2570  148.0430 C   0  0  0  0  0  0  0  0  0  0  0  0
  187.4210  177.1060  149.0000 N   0  0  0  0  0  0  0  0  0  0  0  0
  186.9740  177.8510  145.3510 N   0  0  0  0  0  2  0  0  0  0  0  0
  184.3360  178.8500  145.1600 C   0  0  0  0  0  1  0  0  0  0  0  0
  186.4790  178.3210  144.1320 N   0  0  0  0  0  0  0  0  0  0  0  0
  185.2730  178.7780  144.0010 C   0  0  0  0  0  0  0  0  0  0  0  0
  184.8190  179.2750  142.6730 C   0  0  0  0  0  2  0  0  0  0  0  0
  184.1270  178.1560  141.9030 C   0  0  0  0  0  2  0  0  0  0  0  0
  184.2500  178.3070  140.3870 C   0  0  2  0  0  3  0  0  0  0  0  0
  184.9340  179.5470  140.0110 N   0  0  0  0  0  2  0  0  0  0  0  0
  184.1430  180.2480  139.1630 O   0  0  0  0  0  1  0  0  0  0  0  0
  182.9260  178.1000  139.6520 C   0  0  0  0  0  2  0  0  0  0  0  0
  181.9510  175.8230  139.5260 C   0  0  0  0  0  1  0  0  0  0  0  0
  182.9250  176.7880  138.8820 C   0  0  1  0  0  3  0  0  0  0  0  0
  182.4320  176.0170  136.6820 O   0  0  0  0  0  0  0  0  0  0  0  0
  182.5550  177.0050  137.4510 C   0  0  0  0  0  0  0  0  0  0  0  0
  182.3400  178.2890  136.9650 O   0  0  0  0  0  1  0  0  0  0  0  0
  189.4550  177.3380  143.2490 N   0  0  0  0  0  2  0  0  0  0  0  0
  189.8600  178.2380  142.1810 C   0  0  2  0  0  3  0  0  0  0  0  0
  189.8180  176.5920  140.2930 C   0  0  2  0  0  3  0  0  0  0  0  0
  187.9490  177.8140  140.6140 C   0  0  0  0  0  2  0  0  0  0  0  0
  188.6240  178.8510  141.5180 C   0  0  0  0  0  2  0  0  0  0  0  0
  188.8520  177.3750  139.6310 O   0  0  0  0  0  0  0  0  0  0  0  0
  190.7110  177.4940  141.1470 C   0  0  0  0  0  2  0  0  0  0  0  0
  190.6330  175.8880  139.3200 N   0  0  0  0  0  2  0  0  0  0  0  0
  190.1040  176.2100  138.0060 C   0  0  0  0  0  2  0  0  0  0  0  0
  189.6510  174.9340  137.3190 C   0  0  2  0  0  3  0  0  0  0  0  0
  187.4910  176.1760  137.1980 F   0  0  0  0  0  0  0  0  0  0  0  0
  189.2900  175.2360  135.8700 C   0  0  0  0  0  2  0  0  0  0  0  0
  188.1980  175.0240  136.8900 C   0  0  1  0  0  0  0  0  0  0  0  0
  187.4580  173.6990  136.7360 C   0  0  2  0  0  3  0  0  0  0  0  0
  187.2570  173.3890  135.3860 O   0  0  0  0  0  1  0  0  0  0  0  0
  185.3100  172.6450  136.9540 C   0  0  0  0  0  1  0  0  0  0  0  0
  186.1950  173.6800  137.4770 N   0  0  0  0  0  2  0  0  0  0  0  0
  1  4  1  0  0  0  0
  1  8  2  0  0  0  0
  2  1  1  0  0  0  0
  3  8  1  0  0  0  0
  4  9  1  0  0  0  0
  5  2  1  0  0  0  0
  5  3  2  0  0  0  0
  6  4  2  0  0  0  0
  7  2  2  0  0  0  0
  7  6  1  0  0  0  0
  9 10  3  0  0  0  0
 11  6  1  0  0  0  0
 13 11  1  0  0  0  0
 14 13  2  0  0  0  0
 14 12  1  0  0  0  0
 15 14  1  0  0  0  0
 16 15  1  0  0  0  0
 17 20  1  6  0  0  0
 17 16  1  0  0  0  0
 18 17  1  0  0  0  0
 19 18  1  0  0  0  0
 22 21  1  1  0  0  0
 22 20  1  0  0  0  0
 23 24  2  0  0  0  0
 24 22  1  0  0  0  0
 25 24  1  0  0  0  0
 26  7  1  0  0  0  0
 27 26  1  1  0  0  0
 28 33  1  6  0  0  0
 28 32  1  0  0  0  0
 29 30  1  0  0  0  0
 30 27  1  0  0  0  0
 31 28  1  0  0  0  0
 31 29  1  0  0  0  0
 32 27  1  0  0  0  0
 34 33  1  0  0  0  0
 35 34  1  1  0  0  0
 37 38  1  0  0  0  0
 37 35  1  0  0  0  0
 38 36  1  1  0  0  0
 38 35  1  0  0  0  0
 39 40  1  6  0  0  0
 39 38  1  0  0  0  0
 39 42  1  0  0  0  0
 41 42  1  0  0  0  0
M  END
>  <MODEL>
4

>  <REMARK>
 VINA RESULT:      -6.8      1.614      2.139
  Name = 
  17 active torsions:
  status: ('A' for Active; 'I' for Inactive)
    1  A    between atoms: C_1  and  C_39
    2  A    between atoms: N_2  and  C_16
    3  A    between atoms: C_7  and  N_11
    4  A    between atoms: C_7  and  C_42
    5  A    between atoms: C_8  and  C_15
    6  A    between atoms: N_9  and  C_13
    7  A    between atoms: N_9  and  C_29
    8  A    between atoms: C_12  and  C_30
    9  A    between atoms: C_12  and  C_36
   10  A    between atoms: C_16  and  C_17
   11  A    between atoms: C_16  and  C_36
   12  A    between atoms: C_17  and  C_41
   13  A    between atoms: N_18  and  C_28
   14  A    between atoms: N_18  and  N_31
   15  A    between atoms: C_20  and  N_37
   16  A    between atoms: C_35  and  C_41
   17  A    between atoms: N_37  and  C_39
                            x       y       z     vdW  Elec       q    Type
                         _______ _______ _______ _____ _____    ______ ____

>  <TORSDO>
F 17

$$$$
=
 OpenBabel11032419113D

 42 45  0  0  1  0  0  0  0  0999 V2000
  183.0540  177.8290  139.3440 C   0  0  0  0  0  0  0  0  0  0  0  0
  184.2590  177.6860  138.6390 C   0  0  0  0  0  0  0  0  0  0  0  0
  182.6240  178.1150  137.2450 C   0  0  0  0  0  3  0  0  0  0  0  0
  183.3760  178.3100  140.6700 C   0  0  0  0  0  0  0  0  0  0  0  0
  183.9430  177.8630  137.2350 C   0  0  0  0  0  3  0  0  0  0  0  0
  184.7090  178.4410  140.7190 C   0  0  0  0  0  0  0  0  0  0  0  0
  185.2860  178.0720  139.3850 C   0  0  0  0  0  0  0  0  0  0  0  0
  182.0800  178.1750  138.5780 N   0  0  0  0  0  0  0  0  0  0  0  0
  182.4410  178.7070  141.6870 C   0  0  0  0  0  0  0  0  0  0  0  0
  181.6870  179.0270  142.5040 N   0  0  0  0  0  0  0  0  0  0  0  0
  185.3820  178.9880  141.8580 N   0  0  0  0  0  2  0  0  0  0  0  0
  184.6760  178.7450  144.5850 C   0  0  0  0  0  1  0  0  0  0  0  0
  186.1610  178.2210  142.7280 N   0  0  0  0  0  0  0  0  0  0  0  0
  185.8760  178.0920  143.9860 C   0  0  0  0  0  0  0  0  0  0  0  0
  186.7460  177.2460  144.8490 C   0  0  0  0  0  2  0  0  0  0  0  0
  187.7490  178.1170  145.5960 C   0  0  0  0  0  2  0  0  0  0  0  0
  188.7470  177.3070  146.4230 C   0  0  2  0  0  3  0  0  0  0  0  0
  188.7110  177.6740  147.8420 N   0  0  0  0  0  2  0  0  0  0  0  0
  187.4760  178.1400  148.1470 O   0  0  0  0  0  1  0  0  0  0  0  0
  190.1570  177.3070  145.8340 C   0  0  0  0  0  2  0  0  0  0  0  0
  191.1450  178.7890  144.1100 C   0  0  0  0  0  1  0  0  0  0  0  0
  190.1370  177.6870  144.3610 C   0  0  1  0  0  3  0  0  0  0  0  0
  191.6440  176.1870  143.2860 O   0  0  0  0  0  1  0  0  0  0  0  0
  190.4460  176.5080  143.4970 C   0  0  0  0  0  0  0  0  0  0  0  0
  189.4200  175.7600  142.9310 O   0  0  0  0  0  0  0  0  0  0  0  0
  186.5150  178.5210  138.8030 N   0  0  0  0  0  2  0  0  0  0  0  0
  187.8130  177.8980  139.0060 C   0  0  2  0  0  3  0  0  0  0  0  0
  188.2140  177.1350  136.6540 C   0  0  2  0  0  3  0  0  0  0  0  0
  189.0830  179.1360  137.2330 C   0  0  0  0  0  2  0  0  0  0  0  0
  188.9260  178.9140  138.7410 C   0  0  0  0  0  2  0  0  0  0  0  0
  189.3840  177.9180  136.5980 O   0  0  0  0  0  0  0  0  0  0  0  0
  187.9710  176.6770  138.0930 C   0  0  0  0  0  2  0  0  0  0  0  0
  188.3580  175.9730  135.7960 N   0  0  0  0  0  2  0  0  0  0  0  0
  189.0290  174.9470  136.5750 C   0  0  0  0  0  2  0  0  0  0  0  0
  190.4530  174.7850  136.0760 C   0  0  2  0  0  3  0  0  0  0  0  0
  190.9840  175.5850  138.3790 F   0  0  0  0  0  0  0  0  0  0  0  0
  191.1520  173.6910  136.8720 C   0  0  0  0  0  2  0  0  0  0  0  0
  191.4610  175.1410  137.1540 C   0  0  1  0  0  0  0  0  0  0  0  0
  192.8370  175.5860  136.6710 C   0  0  2  0  0  3  0  0  0  0  0  0
  193.3160  174.7360  135.6680 O   0  0  0  0  0  1  0  0  0  0  0  0
  194.9350  174.8160  137.5520 C   0  0  0  0  0  1  0  0  0  0  0  0
  193.7990  175.7040  137.7690 N   0  0  0  0  0  2  0  0  0  0  0  0
  1  4  1  0  0  0  0
  2  1  1  0  0  0  0
  2  7  2  0  0  0  0
  3  8  1  0  0  0  0
  4  6  2  0  0  0  0
  4  9  1  0  0  0  0
  5  3  2  0  0  0  0
  5  2  1  0  0  0  0
  6 11  1  0  0  0  0
  7  6  1  0  0  0  0
  8  1  2  0  0  0  0
  9 10  3  0  0  0  0
 11 13  1  0  0  0  0
 13 14  2  0  0  0  0
 14 12  1  0  0  0  0
 14 15  1  0  0  0  0
 15 16  1  0  0  0  0
 17 16  1  6  0  0  0
 17 18  1  0  0  0  0
 18 19  1  0  0  0  0
 20 17  1  0  0  0  0
 22 21  1  1  0  0  0
 22 20  1  0  0  0  0
 23 24  1  0  0  0  0
 24 22  1  0  0  0  0
 25 24  2  0  0  0  0
 26  7  1  0  0  0  0
 27 26  1  6  0  0  0
 28 33  1  6  0  0  0
 28 32  1  0  0  0  0
 29 30  1  0  0  0  0
 30 27  1  0  0  0  0
 31 28  1  0  0  0  0
 31 29  1  0  0  0  0
 32 27  1  0  0  0  0
 33 34  1  0  0  0  0
 35 34  1  1  0  0  0
 35 37  1  0  0  0  0
 35 38  1  0  0  0  0
 37 38  1  0  0  0  0
 38 36  1  1  0  0  0
 39 40  1  6  0  0  0
 39 38  1  0  0  0  0
 39 42  1  0  0  0  0
 41 42  1  0  0  0  0
M  END
>  <MODEL>
5

>  <REMARK>
 VINA RESULT:      -6.8      2.676      7.132
  Name = 
  17 active torsions:
  status: ('A' for Active; 'I' for Inactive)
    1  A    between atoms: C_1  and  C_39
    2  A    between atoms: N_2  and  C_16
    3  A    between atoms: C_7  and  N_11
    4  A    between atoms: C_7  and  C_42
    5  A    between atoms: C_8  and  C_15
    6  A    between atoms: N_9  and  C_13
    7  A    between atoms: N_9  and  C_29
    8  A    between atoms: C_12  and  C_30
    9  A    between atoms: C_12  and  C_36
   10  A    between atoms: C_16  and  C_17
   11  A    between atoms: C_16  and  C_36
   12  A    between atoms: C_17  and  C_41
   13  A    between atoms: N_18  and  C_28
   14  A    between atoms: N_18  and  N_31
   15  A    between atoms: C_20  and  N_37
   16  A    between atoms: C_35  and  C_41
   17  A    between atoms: N_37  and  C_39
                            x       y       z     vdW  Elec       q    Type
                         _______ _______ _______ _____ _____    ______ ____

>  <TORSDO>
F 17

$$$$
=
 OpenBabel11032419113D

 42 45  0  0  1  0  0  0  0  0999 V2000
  192.3180  175.4920  137.2880 C   0  0  0  0  0  0  0  0  0  0  0  0
  191.0650  175.3230  136.6790 C   0  0  0  0  0  0  0  0  0  0  0  0
  192.2340  173.4780  136.5070 C   0  0  0  0  0  3  0  0  0  0  0  0
  192.1650  176.4720  138.3420 C   0  0  0  0  0  0  0  0  0  0  0  0
  191.0390  173.9750  136.1460 C   0  0  0  0  0  3  0  0  0  0  0  0
  190.8780  176.8450  138.3370 C   0  0  0  0  0  0  0  0  0  0  0  0
  190.1490  176.0700  137.2800 C   0  0  0  0  0  0  0  0  0  0  0  0
  193.0050  174.4040  137.2960 N   0  0  0  0  0  0  0  0  0  0  0  0
  193.1640  176.8620  139.2990 C   0  0  0  0  0  0  0  0  0  0  0  0
  193.9670  177.1780  140.0690 N   0  0  0  0  0  0  0  0  0  0  0  0
  190.3380  177.7410  139.3140 N   0  0  0  0  0  2  0  0  0  0  0  0
  187.7020  178.3120  140.1640 C   0  0  0  0  0  1  0  0  0  0  0  0
  189.8900  177.3220  140.5700 N   0  0  0  0  0  0  0  0  0  0  0  0
  188.6930  177.5730  141.0000 C   0  0  0  0  0  0  0  0  0  0  0  0
  188.2810  177.0820  142.3450 C   0  0  0  0  0  2  0  0  0  0  0  0
  189.5090  176.6710  143.1490 C   0  0  0  0  0  2  0  0  0  0  0  0
  189.8750  177.6770  144.2390 C   0  0  2  0  0  3  0  0  0  0  0  0
  191.1940  178.2760  144.0150 N   0  0  0  0  0  2  0  0  0  0  0  0
  191.9050  177.4790  143.1820 O   0  0  0  0  0  1  0  0  0  0  0  0
  189.6940  177.1270  145.6540 C   0  0  0  0  0  2  0  0  0  0  0  0
  187.2860  177.5160  146.1030 C   0  0  0  0  0  1  0  0  0  0  0  0
  188.6940  177.9590  146.4430 C   0  0  1  0  0  3  0  0  0  0  0  0
  190.1040  177.8040  148.3570 O   0  0  0  0  0  0  0  0  0  0  0  0
  188.9280  177.8280  147.9120 C   0  0  0  0  0  0  0  0  0  0  0  0
  187.8560  177.7410  148.7930 O   0  0  0  0  0  1  0  0  0  0  0  0
  188.7560  175.7380  137.2350 N   0  0  0  0  0  2  0  0  0  0  0  0
  187.9010  175.8740  136.0660 C   0  0  2  0  0  3  0  0  0  0  0  0
  185.8240  176.6460  137.2340 C   0  0  2  0  0  3  0  0  0  0  0  0
  187.1870  178.2510  136.4240 C   0  0  0  0  0  2  0  0  0  0  0  0
  187.9840  177.3030  135.5230 C   0  0  0  0  0  2  0  0  0  0  0  0
  185.8440  177.8390  136.4850 O   0  0  0  0  0  0  0  0  0  0  0  0
  186.4530  175.5160  136.4180 C   0  0  0  0  0  2  0  0  0  0  0  0
  184.4550  176.2960  137.5660 N   0  0  0  0  0  2  0  0  0  0  0  0
  183.7540  177.5360  137.8530 C   0  0  0  0  0  2  0  0  0  0  0  0
  183.1360  177.4570  139.2370 C   0  0  2  0  0  3  0  0  0  0  0  0
  184.6090  179.4330  139.6290 F   0  0  0  0  0  0  0  0  0  0  0  0
  182.2990  178.7040  139.4940 C   0  0  0  0  0  2  0  0  0  0  0  0
  183.6570  178.5630  140.1380 C   0  0  1  0  0  0  0  0  0  0  0  0
  183.6040  178.2910  141.6380 C   0  0  2  0  0  3  0  0  0  0  0  0
  182.4660  178.8670  142.2140 O   0  0  0  0  0  1  0  0  0  0  0  0
  184.6230  178.7300  143.7680 C   0  0  0  0  0  1  0  0  0  0  0  0
  184.8220  178.7250  142.3240 N   0  0  0  0  0  2  0  0  0  0  0  0
  1  8  2  0  0  0  0
  1  4  1  0  0  0  0
  2  7  2  0  0  0  0
  2  1  1  0  0  0  0
  3  8  1  0  0  0  0
  4  9  1  0  0  0  0
  5  3  2  0  0  0  0
  5  2  1  0  0  0  0
  6  4  2  0  0  0  0
  6 11  1  0  0  0  0
  7  6  1  0  0  0  0
  9 10  3  0  0  0  0
 11 13  1  0  0  0  0
 12 14  1  0  0  0  0
 13 14  2  0  0  0  0
 14 15  1  0  0  0  0
 15 16  1  0  0  0  0
 17 16  1  6  0  0  0
 17 20  1  0  0  0  0
 18 17  1  0  0  0  0
 19 18  1  0  0  0  0
 20 22  1  0  0  0  0
 22 21  1  1  0  0  0
 22 24  1  0  0  0  0
 24 23  2  0  0  0  0
 24 25  1  0  0  0  0
 26  7  1  0  0  0  0
 27 32  1  0  0  0  0
 27 26  1  1  0  0  0
 28 33  1  6  0  0  0
 29 31  1  0  0  0  0
 30 27  1  0  0  0  0
 30 29  1  0  0  0  0
 31 28  1  0  0  0  0
 32 28  1  0  0  0  0
 33 34  1  0  0  0  0
 35 34  1  6  0  0  0
 35 37  1  0  0  0  0
 35 38  1  0  0  0  0
 37 38  1  0  0  0  0
 38 36  1  6  0  0  0
 38 39  1  0  0  0  0
 39 40  1  1  0  0  0
 39 42  1  0  0  0  0
 42 41  1  0  0  0  0
M  END
>  <MODEL>
6

>  <REMARK>
 VINA RESULT:      -6.7      3.044      8.138
  Name = 
  17 active torsions:
  status: ('A' for Active; 'I' for Inactive)
    1  A    between atoms: C_1  and  C_39
    2  A    between atoms: N_2  and  C_16
    3  A    between atoms: C_7  and  N_11
    4  A    between atoms: C_7  and  C_42
    5  A    between atoms: C_8  and  C_15
    6  A    between atoms: N_9  and  C_13
    7  A    between atoms: N_9  and  C_29
    8  A    between atoms: C_12  and  C_30
    9  A    between atoms: C_12  and  C_36
   10  A    between atoms: C_16  and  C_17
   11  A    between atoms: C_16  and  C_36
   12  A    between atoms: C_17  and  C_41
   13  A    between atoms: N_18  and  C_28
   14  A    between atoms: N_18  and  N_31
   15  A    between atoms: C_20  and  N_37
   16  A    between atoms: C_35  and  C_41
   17  A    between atoms: N_37  and  C_39
                            x       y       z     vdW  Elec       q    Type
                         _______ _______ _______ _____ _____    ______ ____

>  <TORSDO>
F 17

$$$$
=
 OpenBabel11032419113D

 42 45  0  0  1  0  0  0  0  0999 V2000
  186.9380  178.0330  143.1430 C   0  0  0  0  0  0  0  0  0  0  0  0
  187.9290  177.9860  142.1490 C   0  0  0  0  0  0  0  0  0  0  0  0
  188.2320  176.3580  143.5830 C   0  0  0  0  0  3  0  0  0  0  0  0
  185.7570  178.6280  142.5570 C   0  0  0  0  0  0  0  0  0  0  0  0
  188.7940  176.8700  142.4760 C   0  0  0  0  0  3  0  0  0  0  0  0
  186.0580  178.9070  141.2810 C   0  0  0  0  0  0  0  0  0  0  0  0
  187.4610  178.4550  141.0000 C   0  0  0  0  0  0  0  0  0  0  0  0
  187.0190  177.0390  143.9560 N   0  0  0  0  0  0  0  0  0  0  0  0
  184.4680  178.7630  143.1790 C   0  0  0  0  0  0  0  0  0  0  0  0
  183.4320  178.8720  143.6810 N   0  0  0  0  0  0  0  0  0  0  0  0
  185.0900  179.4230  140.3620 N   0  0  0  0  0  2  0  0  0  0  0  0
  182.8810  177.6720  140.1410 C   0  0  0  0  0  1  0  0  0  0  0  0
  184.7890  178.8080  139.1430 N   0  0  0  0  0  0  0  0  0  0  0  0
  183.7910  177.9930  139.0040 C   0  0  0  0  0  0  0  0  0  0  0  0
  183.5240  177.3870  137.6690 C   0  0  0  0  0  2  0  0  0  0  0  0
  183.3550  175.8780  137.8040 C   0  0  0  0  0  2  0  0  0  0  0  0
  184.5010  175.0890  137.1730 C   0  0  2  0  0  3  0  0  0  0  0  0
  185.6050  175.9580  136.7560 N   0  0  0  0  0  2  0  0  0  0  0  0
  186.7730  175.4320  137.1970 O   0  0  0  0  0  1  0  0  0  0  0  0
  184.0400  174.1290  136.0770 C   0  0  0  0  0  2  0  0  0  0  0  0
  184.9500  172.6300  137.8300 C   0  0  0  0  0  1  0  0  0  0  0  0
  184.2170  172.6800  136.5060 C   0  0  1  0  0  3  0  0  0  0  0  0
  182.7960  170.7780  136.3110 O   0  0  0  0  0  0  0  0  0  0  0  0
  182.8980  171.9910  136.6290 C   0  0  0  0  0  0  0  0  0  0  0  0
  181.7830  172.6770  137.0970 O   0  0  0  0  0  1  0  0  0  0  0  0
  188.0260  178.0700  139.7420 N   0  0  0  0  0  2  0  0  0  0  0  0
  189.2660  178.5900  139.1880 C   0  0  2  0  0  3  0  0  0  0  0  0
  190.1660  176.4450  138.2570 C   0  0  2  0  0  3  0  0  0  0  0  0
  188.9870  177.7490  136.8420 C   0  0  0  0  0  2  0  0  0  0  0  0
  189.0550  178.9970  137.7280 C   0  0  0  0  0  2  0  0  0  0  0  0
  190.1760  177.0080  136.9660 O   0  0  0  0  0  0  0  0  0  0  0  0
  190.3820  177.5440  139.2980 C   0  0  0  0  0  2  0  0  0  0  0  0
  191.2240  175.4580  138.3720 N   0  0  0  0  0  2  0  0  0  0  0  0
  192.0690  175.5980  137.1980 C   0  0  0  0  0  2  0  0  0  0  0  0
  193.5170  175.7310  137.6310 C   0  0  2  0  0  3  0  0  0  0  0  0
  193.5030  173.2690  137.2260 F   0  0  0  0  0  0  0  0  0  0  0  0
  194.4330  175.3770  136.4660 C   0  0  0  0  0  2  0  0  0  0  0  0
  194.2310  174.3920  137.5910 C   0  0  1  0  0  0  0  0  0  0  0  0
  195.4400  174.2450  138.5090 C   0  0  2  0  0  3  0  0  0  0  0  0
  195.5110  172.9540  139.0450 O   0  0  0  0  0  1  0  0  0  0  0  0
  196.7280  175.2190  140.2880 C   0  0  0  0  0  1  0  0  0  0  0  0
  195.4610  175.2580  139.5650 N   0  0  0  0  0  2  0  0  0  0  0  0
  1  8  2  0  0  0  0
  2  5  1  0  0  0  0
  2  1  1  0  0  0  0
  3  8  1  0  0  0  0
  4  1  1  0  0  0  0
  4  9  1  0  0  0  0
  5  3  2  0  0  0  0
  6  4  2  0  0  0  0
  7  6  1  0  0  0  0
  7  2  2  0  0  0  0
  9 10  3  0  0  0  0
 11  6  1  0  0  0  0
 13 11  1  0  0  0  0
 14 13  2  0  0  0  0
 14 12  1  0  0  0  0
 15 16  1  0  0  0  0
 15 14  1  0  0  0  0
 17 20  1  6  0  0  0
 17 16  1  0  0  0  0
 18 17  1  0  0  0  0
 18 19  1  0  0  0  0
 20 22  1  0  0  0  0
 22 24  1  0  0  0  0
 22 21  1  1  0  0  0
 23 24  2  0  0  0  0
 24 25  1  0  0  0  0
 26  7  1  0  0  0  0
 27 32  1  0  0  0  0
 27 26  1  6  0  0  0
 28 33  1  6  0  0  0
 28 32  1  0  0  0  0
 29 31  1  0  0  0  0
 29 30  1  0  0  0  0
 30 27  1  0  0  0  0
 31 28  1  0  0  0  0
 34 33  1  0  0  0  0
 35 34  1  6  0  0  0
 37 38  1  0  0  0  0
 37 35  1  0  0  0  0
 38 36  1  6  0  0  0
 38 35  1  0  0  0  0
 38 39  1  0  0  0  0
 39 40  1  1  0  0  0
 39 42  1  0  0  0  0
 42 41  1  0  0  0  0
M  END
>  <MODEL>
7

>  <REMARK>
 VINA RESULT:      -6.7      3.396      5.604
  Name = 
  17 active torsions:
  status: ('A' for Active; 'I' for Inactive)
    1  A    between atoms: C_1  and  C_39
    2  A    between atoms: N_2  and  C_16
    3  A    between atoms: C_7  and  N_11
    4  A    between atoms: C_7  and  C_42
    5  A    between atoms: C_8  and  C_15
    6  A    between atoms: N_9  and  C_13
    7  A    between atoms: N_9  and  C_29
    8  A    between atoms: C_12  and  C_30
    9  A    between atoms: C_12  and  C_36
   10  A    between atoms: C_16  and  C_17
   11  A    between atoms: C_16  and  C_36
   12  A    between atoms: C_17  and  C_41
   13  A    between atoms: N_18  and  C_28
   14  A    between atoms: N_18  and  N_31
   15  A    between atoms: C_20  and  N_37
   16  A    between atoms: C_35  and  C_41
   17  A    between atoms: N_37  and  C_39
                            x       y       z     vdW  Elec       q    Type
                         _______ _______ _______ _____ _____    ______ ____

>  <TORSDO>
F 17

$$$$
=
 OpenBabel11032419113D

 42 45  0  0  1  0  0  0  0  0999 V2000
  189.9200  177.7030  145.1010 C   0  0  0  0  0  0  0  0  0  0  0  0
  190.0280  177.8440  143.7090 C   0  0  0  0  0  0  0  0  0  0  0  0
  191.7200  176.6830  144.4750 C   0  0  0  0  0  3  0  0  0  0  0  0
  188.5130  177.7420  145.4380 C   0  0  0  0  0  0  0  0  0  0  0  0
  191.2500  177.1710  143.3160 C   0  0  0  0  0  3  0  0  0  0  0  0
  187.8450  177.8960  144.2870 C   0  0  0  0  0  0  0  0  0  0  0  0
  188.8260  177.9240  143.1530 C   0  0  0  0  0  0  0  0  0  0  0  0
  190.8410  176.9470  145.5860 N   0  0  0  0  0  0  0  0  0  0  0  0
  187.9370  177.5170  146.7360 C   0  0  0  0  0  0  0  0  0  0  0  0
  187.4740  177.3370  147.7800 N   0  0  0  0  0  0  0  0  0  0  0  0
  186.4150  177.8820  144.2250 N   0  0  0  0  0  2  0  0  0  0  0  0
  183.7560  178.8440  144.2740 C   0  0  0  0  0  1  0  0  0  0  0  0
  185.6990  178.0540  143.0370 N   0  0  0  0  0  0  0  0  0  0  0  0
  184.4760  178.4830  143.0180 C   0  0  0  0  0  0  0  0  0  0  0  0
  183.7820  178.6550  141.7110 C   0  0  0  0  0  2  0  0  0  0  0  0
  184.6700  178.1540  140.5780 C   0  0  0  0  0  2  0  0  0  0  0  0
  184.2490  178.6850  139.2080 C   0  0  2  0  0  3  0  0  0  0  0  0
  184.4510  180.1330  139.0930 N   0  0  0  0  0  2  0  0  0  0  0  0
  183.2780  180.7160  138.7480 O   0  0  0  0  0  1  0  0  0  0  0  0
  182.8490  178.2360  138.7920 C   0  0  0  0  0  2  0  0  0  0  0  0
  184.3070  177.0940  137.1430 C   0  0  0  0  0  1  0  0  0  0  0  0
  182.9150  177.1410  137.7380 C   0  0  1  0  0  3  0  0  0  0  0  0
  182.1050  175.7450  139.4910 O   0  0  0  0  0  1  0  0  0  0  0  0
  182.5660  175.8110  138.3220 C   0  0  0  0  0  0  0  0  0  0  0  0
  182.7420  174.6470  137.5830 O   0  0  0  0  0  0  0  0  0  0  0  0
  188.6020  177.5610  141.7860 N   0  0  0  0  0  2  0  0  0  0  0  0
  189.1360  178.2700  140.6340 C   0  0  2  0  0  3  0  0  0  0  0  0
  189.8290  176.2790  139.2800 C   0  0  2  0  0  3  0  0  0  0  0  0
  187.7820  177.1300  138.8560 C   0  0  0  0  0  2  0  0  0  0  0  0
  188.0390  178.4550  139.5810 C   0  0  0  0  0  2  0  0  0  0  0  0
  188.9650  176.6820  138.2430 O   0  0  0  0  0  0  0  0  0  0  0  0
  190.3270  177.5090  140.0400 C   0  0  0  0  0  2  0  0  0  0  0  0
  190.9630  175.5630  138.7260 N   0  0  0  0  0  2  0  0  0  0  0  0
  191.5000  176.3790  137.6490 C   0  0  0  0  0  2  0  0  0  0  0  0
  193.0150  176.3980  137.7380 C   0  0  2  0  0  3  0  0  0  0  0  0
  192.7510  174.0850  136.8400 F   0  0  0  0  0  0  0  0  0  0  0  0
  193.6090  176.2990  136.3390 C   0  0  0  0  0  2  0  0  0  0  0  0
  193.6140  175.0930  137.2460 C   0  0  1  0  0  0  0  0  0  0  0  0
  194.9920  174.7350  137.7920 C   0  0  2  0  0  3  0  0  0  0  0  0
  195.1710  175.2510  139.0810 O   0  0  0  0  0  1  0  0  0  0  0  0
  197.3260  174.5170  137.2670 C   0  0  0  0  0  1  0  0  0  0  0  0
  196.0700  175.1600  136.8970 N   0  0  0  0  0  2  0  0  0  0  0  0
  1  4  1  0  0  0  0
  1  8  2  0  0  0  0
  2  1  1  0  0  0  0
  3  8  1  0  0  0  0
  4  9  1  0  0  0  0
  5  2  1  0  0  0  0
  5  3  2  0  0  0  0
  6  4  2  0  0  0  0
  7  2  2  0  0  0  0
  7  6  1  0  0  0  0
  9 10  3  0  0  0  0
 11  6  1  0  0  0  0
 13 11  1  0  0  0  0
 14 13  2  0  0  0  0
 14 12  1  0  0  0  0
 15 14  1  0  0  0  0
 16 15  1  0  0  0  0
 17 20  1  1  0  0  0
 17 16  1  0  0  0  0
 18 17  1  0  0  0  0
 19 18  1  0  0  0  0
 22 21  1  1  0  0  0
 22 24  1  0  0  0  0
 22 20  1  0  0  0  0
 24 23  1  0  0  0  0
 25 24  2  0  0  0  0
 26  7  1  0  0  0  0
 27 26  1  1  0  0  0
 28 33  1  6  0  0  0
 28 32  1  0  0  0  0
 29 30  1  0  0  0  0
 30 27  1  0  0  0  0
 31 29  1  0  0  0  0
 31 28  1  0  0  0  0
 32 27  1  0  0  0  0
 34 33  1  0  0  0  0
 35 34  1  6  0  0  0
 37 38  1  0  0  0  0
 37 35  1  0  0  0  0
 38 36  1  6  0  0  0
 38 35  1  0  0  0  0
 38 39  1  0  0  0  0
 39 40  1  1  0  0  0
 42 41  1  0  0  0  0
 42 39  1  0  0  0  0
M  END
>  <MODEL>
8

>  <REMARK>
 VINA RESULT:      -6.6      2.598      3.563
  Name = 
  17 active torsions:
  status: ('A' for Active; 'I' for Inactive)
    1  A    between atoms: C_1  and  C_39
    2  A    between atoms: N_2  and  C_16
    3  A    between atoms: C_7  and  N_11
    4  A    between atoms: C_7  and  C_42
    5  A    between atoms: C_8  and  C_15
    6  A    between atoms: N_9  and  C_13
    7  A    between atoms: N_9  and  C_29
    8  A    between atoms: C_12  and  C_30
    9  A    between atoms: C_12  and  C_36
   10  A    between atoms: C_16  and  C_17
   11  A    between atoms: C_16  and  C_36
   12  A    between atoms: C_17  and  C_41
   13  A    between atoms: N_18  and  C_28
   14  A    between atoms: N_18  and  N_31
   15  A    between atoms: C_20  and  N_37
   16  A    between atoms: C_35  and  C_41
   17  A    between atoms: N_37  and  C_39
                            x       y       z     vdW  Elec       q    Type
                         _______ _______ _______ _____ _____    ______ ____

>  <TORSDO>
F 17

$$$$
=
 OpenBabel11032419113D

 42 45  0  0  1  0  0  0  0  0999 V2000
  189.8700  177.3560  141.5500 C   0  0  0  0  0  0  0  0  0  0  0  0
  188.8770  177.4800  142.5360 C   0  0  0  0  0  0  0  0  0  0  0  0
  190.8350  177.9840  143.3800 C   0  0  0  0  0  3  0  0  0  0  0  0
  189.2490  177.6110  140.2690 C   0  0  0  0  0  0  0  0  0  0  0  0
  189.5500  177.8820  143.7550 C   0  0  0  0  0  3  0  0  0  0  0  0
  187.9580  177.8740  140.5110 C   0  0  0  0  0  0  0  0  0  0  0  0
  187.7190  177.8270  141.9910 C   0  0  0  0  0  0  0  0  0  0  0  0
  191.0250  177.7330  141.9740 N   0  0  0  0  0  0  0  0  0  0  0  0
  189.9160  177.7070  138.9990 C   0  0  0  0  0  0  0  0  0  0  0  0
  190.4520  177.7840  137.9760 N   0  0  0  0  0  0  0  0  0  0  0  0
  187.0500  178.2670  139.4760 N   0  0  0  0  0  2  0  0  0  0  0  0
  184.7380  177.8180  137.9110 C   0  0  0  0  0  1  0  0  0  0  0  0
  185.8760  178.9850  139.7210 N   0  0  0  0  0  0  0  0  0  0  0  0
  184.7990  178.8150  139.0200 C   0  0  0  0  0  0  0  0  0  0  0  0
  183.5800  179.6060  139.3490 C   0  0  0  0  0  2  0  0  0  0  0  0
  182.3540  178.9680  138.7070 C   0  0  0  0  0  2  0  0  0  0  0  0
  181.1260  179.8780  138.7290 C   0  0  2  0  0  3  0  0  0  0  0  0
  180.1260  179.4290  139.7020 N   0  0  0  0  0  2  0  0  0  0  0  0
  180.2880  178.1020  139.9230 O   0  0  0  0  0  1  0  0  0  0  0  0
  180.5430  180.1370  137.3400 C   0  0  0  0  0  2  0  0  0  0  0  0
  181.3210  182.4020  137.9840 C   0  0  0  0  0  1  0  0  0  0  0  0
  180.3830  181.6280  137.0810 C   0  0  1  0  0  3  0  0  0  0  0  0
  180.7790  181.0320  134.8090 O   0  0  0  0  0  0  0  0  0  0  0  0
  180.6650  181.9580  135.6520 C   0  0  0  0  0  0  0  0  0  0  0  0
  180.7950  183.2810  135.2460 O   0  0  0  0  0  1  0  0  0  0  0  0
  186.7070  178.5070  142.7410 N   0  0  0  0  0  2  0  0  0  0  0  0
  185.4960  177.8920  143.2620 C   0  0  2  0  0  3  0  0  0  0  0  0
  185.6410  178.7520  145.6100 C   0  0  2  0  0  3  0  0  0  0  0  0
  184.4040  179.9630  144.1630 C   0  0  0  0  0  2  0  0  0  0  0  0
  184.3150  178.8540  143.1090 C   0  0  0  0  0  2  0  0  0  0  0  0
  184.4010  179.4000  145.4510 O   0  0  0  0  0  0  0  0  0  0  0  0
  185.6830  177.5010  144.7320 C   0  0  0  0  0  2  0  0  0  0  0  0
  185.8240  178.3720  146.9990 N   0  0  0  0  0  2  0  0  0  0  0  0
  187.1700  178.7660  147.3770 C   0  0  0  0  0  2  0  0  0  0  0  0
  188.1530  177.7000  146.9290 C   0  0  2  0  0  3  0  0  0  0  0  0
  189.5080  178.6540  148.7940 F   0  0  0  0  0  0  0  0  0  0  0  0
  188.3320  176.6710  148.0370 C   0  0  0  0  0  2  0  0  0  0  0  0
  189.4040  177.7040  147.7880 C   0  0  1  0  0  0  0  0  0  0  0  0
  190.6660  177.1420  147.1440 C   0  0  2  0  0  3  0  0  0  0  0  0
  190.4050  175.9270  146.5010 O   0  0  0  0  0  1  0  0  0  0  0  0
  192.4440  175.7280  147.9280 C   0  0  0  0  0  1  0  0  0  0  0  0
  191.7650  177.0070  148.1020 N   0  0  0  0  0  2  0  0  0  0  0  0
  1  8  1  0  0  0  0
  1  2  1  0  0  0  0
  2  5  2  0  0  0  0
  3  5  1  0  0  0  0
  4  6  1  0  0  0  0
  4  1  2  0  0  0  0
  6  7  2  0  0  0  0
  7  2  1  0  0  0  0
  7 26  1  0  0  0  0
  8  3  2  0  0  0  0
  9  4  1  0  0  0  0
 10  9  3  0  0  0  0
 11 13  1  0  0  0  0
 11  6  1  0  0  0  0
 12 14  1  0  0  0  0
 14 15  1  0  0  0  0
 14 13  2  0  0  0  0
 16 17  1  0  0  0  0
 16 15  1  0  0  0  0
 17 20  1  6  0  0  0
 17 18  1  0  0  0  0
 18 19  1  0  0  0  0
 22 20  1  0  0  0  0
 22 21  1  1  0  0  0
 23 24  2  0  0  0  0
 24 22  1  0  0  0  0
 25 24  1  0  0  0  0
 27 26  1  1  0  0  0
 27 32  1  0  0  0  0
 28 33  1  1  0  0  0
 29 31  1  0  0  0  0
 30 27  1  0  0  0  0
 30 29  1  0  0  0  0
 31 28  1  0  0  0  0
 32 28  1  0  0  0  0
 33 34  1  0  0  0  0
 35 34  1  1  0  0  0
 35 38  1  0  0  0  0
 35 37  1  0  0  0  0
 38 37  1  0  0  0  0
 38 36  1  1  0  0  0
 39 40  1  1  0  0  0
 39 38  1  0  0  0  0
 39 42  1  0  0  0  0
 41 42  1  0  0  0  0
M  END
>  <MODEL>
9

>  <REMARK>
 VINA RESULT:      -6.6      3.483      7.515
  Name = 
  17 active torsions:
  status: ('A' for Active; 'I' for Inactive)
    1  A    between atoms: C_1  and  C_39
    2  A    between atoms: N_2  and  C_16
    3  A    between atoms: C_7  and  N_11
    4  A    between atoms: C_7  and  C_42
    5  A    between atoms: C_8  and  C_15
    6  A    between atoms: N_9  and  C_13
    7  A    between atoms: N_9  and  C_29
    8  A    between atoms: C_12  and  C_30
    9  A    between atoms: C_12  and  C_36
   10  A    between atoms: C_16  and  C_17
   11  A    between atoms: C_16  and  C_36
   12  A    between atoms: C_17  and  C_41
   13  A    between atoms: N_18  and  C_28
   14  A    between atoms: N_18  and  N_31
   15  A    between atoms: C_20  and  N_37
   16  A    between atoms: C_35  and  C_41
   17  A    between atoms: N_37  and  C_39
                            x       y       z     vdW  Elec       q    Type
                         _______ _______ _______ _____ _____    ______ ____

>  <TORSDO>
F 17

$$$$
