=
 OpenBabel11042412103D

 37 40  0  0  0  0  0  0  0  0999 V2000
  189.4300  177.2810  145.5890 C   0  0  0  0  0  0  0  0  0  0  0  0
  190.4130  177.5350  144.6030 C   0  0  0  0  0  3  0  0  0  0  0  0
  188.6930  177.9980  143.0000 C   0  0  0  0  0  0  0  0  0  0  0  0
  186.7790  178.3990  142.0640 C   0  0  0  0  0  0  0  0  0  0  0  0
  188.1110  178.3560  141.8350 N   0  0  0  0  0  0  0  0  0  0  0  0
  188.0640  177.4160  145.2630 C   0  0  0  0  0  3  0  0  0  0  0  0
  187.7340  177.7790  143.9590 C   0  0  0  0  0  0  0  0  0  0  0  0
  190.0520  177.9030  143.2950 C   0  0  0  0  0  3  0  0  0  0  0  0
  186.5060  178.0330  143.3790 C   0  0  0  0  0  0  0  0  0  0  0  0
  185.7640  178.7850  141.0420 C   0  0  0  0  0  1  0  0  0  0  0  0
  189.0270  176.2770  147.7020 O   0  0  0  0  0  0  0  0  0  0  0  0
  189.8370  176.8880  146.9530 C   0  0  0  0  0  0  0  0  0  0  0  0
  191.1940  177.2250  147.4820 C   0  0  0  0  0  2  0  0  0  0  0  0
  192.1220  175.2940  146.4400 O   0  0  0  0  0  0  0  0  0  0  0  0
  192.8560  175.7170  148.5700 O   0  0  0  0  0  1  0  0  0  0  0  0
  192.0700  176.0200  147.4660 C   0  0  0  0  0  0  0  0  0  0  0  0
  185.1660  177.9110  144.0220 C   0  0  0  0  0  2  0  0  0  0  0  0
  184.7270  179.2630  144.5560 C   0  0  0  0  0  2  0  0  0  0  0  0
  183.7080  179.8110  143.7260 O   0  0  0  0  0  0  0  0  0  0  0  0
  182.5550  179.1100  143.3480 C   0  0  0  0  0  0  0  0  0  0  0  0
  180.0800  178.9490  141.5280 C   0  0  0  0  0  3  0  0  0  0  0  0
  181.3540  179.1320  141.1800 C   0  0  0  0  0  3  0  0  0  0  0  0
  182.4980  178.5700  141.9570 C   0  0  0  0  0  2  0  0  0  0  0  0
  181.5640  178.8890  144.2230 C   0  0  0  0  0  3  0  0  0  0  0  0
  180.2740  178.2370  143.9250 C   0  0  0  0  0  3  0  0  0  0  0  0
  179.6260  178.2650  142.7530 C   0  0  0  0  0  3  0  0  0  0  0  0
  188.7440  178.7600  140.6460 N   0  0  0  0  0  2  0  0  0  0  0  0
  188.4090  177.4080  138.6420 C   0  0  0  0  0  3  0  0  0  0  0  0
  188.8720  176.4930  137.6930 C   0  0  0  0  0  3  0  0  0  0  0  0
  190.5600  177.3520  139.7450 C   0  0  0  0  0  3  0  0  0  0  0  0
  190.1840  176.0040  137.7600 C   0  0  0  0  0  0  0  0  0  0  0  0
  191.0240  176.4370  138.7960 C   0  0  0  0  0  3  0  0  0  0  0  0
  189.2550  177.8530  139.6620 C   0  0  0  0  0  0  0  0  0  0  0  0
  191.2030  173.7810  137.1720 N   0  0  0  0  0  2  0  0  0  0  0  0
  190.6720  175.0410  136.7570 C   0  0  0  0  0  0  0  0  0  0  0  0
  190.6220  175.3260  135.5290 O   0  0  0  0  0  0  0  0  0  0  0  0
  191.6730  172.8510  136.2360 N   0  0  0  0  0  1  0  0  0  0  0  0
  1 12  1  0  0  0  0
  2  1  2  0  0  0  0
  3  8  2  0  0  0  0
  3  7  1  0  0  0  0
  4  9  2  0  0  0  0
  5  4  1  0  0  0  0
  5  3  1  0  0  0  0
  6  1  1  0  0  0  0
  7  6  2  0  0  0  0
  8  2  1  0  0  0  0
  9  7  1  0  0  0  0
  9 17  1  0  0  0  0
 10  4  1  0  0  0  0
 12 13  1  0  0  0  0
 12 11  2  0  0  0  0
 14 16  2  0  0  0  0
 16 13  1  0  0  0  0
 16 15  1  0  0  0  0
 17 18  1  0  0  0  0
 19 18  1  0  0  0  0
 20 19  1  0  0  0  0
 20 24  2  0  0  0  0
 21 26  1  0  0  0  0
 22 21  2  0  0  0  0
 22 23  1  0  0  0  0
 23 20  1  0  0  0  0
 25 24  1  0  0  0  0
 26 25  2  0  0  0  0
 27  5  1  0  0  0  0
 28 33  1  0  0  0  0
 29 31  1  0  0  0  0
 29 28  2  0  0  0  0
 31 32  2  0  0  0  0
 32 30  1  0  0  0  0
 33 30  2  0  0  0  0
 33 27  1  0  0  0  0
 35 34  1  0  0  0  0
 35 31  1  0  0  0  0
 36 35  2  0  0  0  0
 37 34  1  0  0  0  0
M  END
>  <MODEL>
1

>  <REMARK>
 VINA RESULT:      -8.6      0.000      0.000
  Name = 
  10 active torsions:
  status: ('A' for Active; 'I' for Inactive)
    1  A    between atoms: C_5  and  C_37
    2  A    between atoms: C_10  and  C_22
    3  A    between atoms: C_10  and  C_33
    4  A    between atoms: C_12  and  O_35
    5  A    between atoms: C_14  and  C_21
    6  A    between atoms: N_16  and  N_34
    7  A    between atoms: C_22  and  O_35
    8  A    between atoms: C_29  and  C_31
    9  A    between atoms: C_29  and  C_37
   10  A    between atoms: C_32  and  N_34
                            x       y       z     vdW  Elec       q    Type
                         _______ _______ _______ _____ _____    ______ ____

>  <TORSDO>
F 10

$$$$
=
 OpenBabel11042412103D

 37 40  0  0  0  0  0  0  0  0999 V2000
  192.1100  176.3300  137.6410 C   0  0  0  0  0  0  0  0  0  0  0  0
  191.1780  176.6640  136.6280 C   0  0  0  0  0  3  0  0  0  0  0  0
  189.6440  177.4530  138.2920 C   0  0  0  0  0  0  0  0  0  0  0  0
  188.7600  178.0960  140.1640 C   0  0  0  0  0  0  0  0  0  0  0  0
  188.5390  178.0070  138.8330 N   0  0  0  0  0  0  0  0  0  0  0  0
  191.7950  176.5910  138.9920 C   0  0  0  0  0  3  0  0  0  0  0  0
  190.5540  177.1550  139.2780 C   0  0  0  0  0  0  0  0  0  0  0  0
  189.9340  177.2370  136.9460 C   0  0  0  0  0  3  0  0  0  0  0  0
  190.0060  177.5620  140.4790 C   0  0  0  0  0  0  0  0  0  0  0  0
  187.7950  178.6820  141.1380 C   0  0  0  0  0  1  0  0  0  0  0  0
  194.2650  176.3960  136.6500 O   0  0  0  0  0  0  0  0  0  0  0  0
  193.4060  175.7230  137.2800 C   0  0  0  0  0  0  0  0  0  0  0  0
  193.7160  174.3010  137.6250 C   0  0  0  0  0  2  0  0  0  0  0  0
  195.2930  175.2850  139.1160 O   0  0  0  0  0  1  0  0  0  0  0  0
  195.4580  173.0130  138.8620 O   0  0  0  0  0  0  0  0  0  0  0  0
  194.8700  174.2360  138.5660 C   0  0  0  0  0  0  0  0  0  0  0  0
  190.6130  177.4280  141.8350 C   0  0  0  0  0  2  0  0  0  0  0  0
  190.1700  176.1220  142.4710 C   0  0  0  0  0  2  0  0  0  0  0  0
  190.0770  176.2710  143.8840 O   0  0  0  0  0  0  0  0  0  0  0  0
  189.0510  176.9800  144.5230 C   0  0  0  0  0  0  0  0  0  0  0  0
  187.5700  177.6340  147.1380 C   0  0  0  0  0  3  0  0  0  0  0  0
  188.8790  177.6820  146.8930 C   0  0  0  0  0  3  0  0  0  0  0  0
  189.4440  177.9930  145.5470 C   0  0  0  0  0  2  0  0  0  0  0  0
  187.7680  176.7910  144.1840 C   0  0  0  0  0  3  0  0  0  0  0  0
  186.6000  177.4160  144.8360 C   0  0  0  0  0  3  0  0  0  0  0  0
  186.5120  177.7800  146.1210 C   0  0  0  0  0  3  0  0  0  0  0  0
  187.4250  178.5400  138.1580 N   0  0  0  0  0  2  0  0  0  0  0  0
  185.0330  178.2640  138.5570 C   0  0  0  0  0  3  0  0  0  0  0  0
  183.8390  177.5590  138.3870 C   0  0  0  0  0  3  0  0  0  0  0  0
  186.1810  176.6520  137.1660 C   0  0  0  0  0  3  0  0  0  0  0  0
  183.8050  176.3990  137.6020 C   0  0  0  0  0  0  0  0  0  0  0  0
  184.9870  175.9470  136.9950 C   0  0  0  0  0  3  0  0  0  0  0  0
  186.2050  177.8230  137.9350 C   0  0  0  0  0  0  0  0  0  0  0  0
  181.3220  176.1830  137.9400 N   0  0  0  0  0  2  0  0  0  0  0  0
  182.5440  175.6570  137.4210 C   0  0  0  0  0  0  0  0  0  0  0  0
  182.5410  174.5550  136.8070 O   0  0  0  0  0  0  0  0  0  0  0  0
  180.1130  175.4940  137.7810 N   0  0  0  0  0  1  0  0  0  0  0  0
  1  6  1  0  0  0  0
  2  8  1  0  0  0  0
  2  1  2  0  0  0  0
  3  5  1  0  0  0  0
  3  7  1  0  0  0  0
  4  9  2  0  0  0  0
  4 10  1  0  0  0  0
  5  4  1  0  0  0  0
  6  7  2  0  0  0  0
  7  9  1  0  0  0  0
  8  3  2  0  0  0  0
  9 17  1  0  0  0  0
 11 12  2  0  0  0  0
 12 13  1  0  0  0  0
 12  1  1  0  0  0  0
 13 16  1  0  0  0  0
 16 15  2  0  0  0  0
 16 14  1  0  0  0  0
 17 18  1  0  0  0  0
 18 19  1  0  0  0  0
 19 20  1  0  0  0  0
 20 23  1  0  0  0  0
 22 21  2  0  0  0  0
 23 22  1  0  0  0  0
 24 20  2  0  0  0  0
 24 25  1  0  0  0  0
 25 26  2  0  0  0  0
 26 21  1  0  0  0  0
 27  5  1  0  0  0  0
 29 28  1  0  0  0  0
 30 33  1  0  0  0  0
 31 29  2  0  0  0  0
 32 30  2  0  0  0  0
 32 31  1  0  0  0  0
 33 27  1  0  0  0  0
 33 28  2  0  0  0  0
 35 31  1  0  0  0  0
 35 34  1  0  0  0  0
 36 35  2  0  0  0  0
 37 34  1  0  0  0  0
M  END
>  <MODEL>
2

>  <REMARK>
 VINA RESULT:      -8.6      3.695      7.482
  Name = 
  10 active torsions:
  status: ('A' for Active; 'I' for Inactive)
    1  A    between atoms: C_5  and  C_37
    2  A    between atoms: C_10  and  C_22
    3  A    between atoms: C_10  and  C_33
    4  A    between atoms: C_12  and  O_35
    5  A    between atoms: C_14  and  C_21
    6  A    between atoms: N_16  and  N_34
    7  A    between atoms: C_22  and  O_35
    8  A    between atoms: C_29  and  C_31
    9  A    between atoms: C_29  and  C_37
   10  A    between atoms: C_32  and  N_34
                            x       y       z     vdW  Elec       q    Type
                         _______ _______ _______ _____ _____    ______ ____

>  <TORSDO>
F 10

$$$$
=
 OpenBabel11042412103D

 37 40  0  0  0  0  0  0  0  0999 V2000
  185.0500  178.7650  142.5920 C   0  0  0  0  0  0  0  0  0  0  0  0
  184.3290  178.8050  141.3740 C   0  0  0  0  0  3  0  0  0  0  0  0
  186.3710  178.5340  140.1500 C   0  0  0  0  0  0  0  0  0  0  0  0
  188.4410  178.1700  139.6180 C   0  0  0  0  0  0  0  0  0  0  0  0
  187.2070  178.3740  139.1030 N   0  0  0  0  0  0  0  0  0  0  0  0
  186.4480  178.5830  142.5690 C   0  0  0  0  0  3  0  0  0  0  0  0
  187.0740  178.4680  141.3290 C   0  0  0  0  0  0  0  0  0  0  0  0
  184.9850  178.6830  140.1370 C   0  0  0  0  0  3  0  0  0  0  0  0
  188.3960  178.2330  141.0070 C   0  0  0  0  0  0  0  0  0  0  0  0
  189.6610  177.9160  138.7990 C   0  0  0  0  0  1  0  0  0  0  0  0
  183.1630  178.4570  144.0000 O   0  0  0  0  0  0  0  0  0  0  0  0
  184.3360  178.9040  143.8770 C   0  0  0  0  0  0  0  0  0  0  0  0
  184.9680  179.5950  145.0430 C   0  0  0  0  0  2  0  0  0  0  0  0
  185.6500  177.4340  145.7780 O   0  0  0  0  0  0  0  0  0  0  0  0
  185.3410  178.9890  147.4330 O   0  0  0  0  0  1  0  0  0  0  0  0
  185.3280  178.6060  146.0980 C   0  0  0  0  0  0  0  0  0  0  0  0
  189.5430  178.1050  141.9530 C   0  0  0  0  0  2  0  0  0  0  0  0
  189.9770  176.6530  142.0400 C   0  0  0  0  0  2  0  0  0  0  0  0
  189.5980  176.1020  143.2980 O   0  0  0  0  0  0  0  0  0  0  0  0
  189.8790  176.7110  144.5280 C   0  0  0  0  0  0  0  0  0  0  0  0
  191.2120  176.5120  147.2930 C   0  0  0  0  0  3  0  0  0  0  0  0
  191.7480  176.2750  146.0960 C   0  0  0  0  0  3  0  0  0  0  0  0
  191.3110  176.9810  144.8560 C   0  0  0  0  0  2  0  0  0  0  0  0
  188.8920  177.0860  145.3530 C   0  0  0  0  0  3  0  0  0  0  0  0
  189.0630  177.6610  146.7020 C   0  0  0  0  0  3  0  0  0  0  0  0
  190.0700  177.4100  147.5470 C   0  0  0  0  0  3  0  0  0  0  0  0
  186.8700  178.2780  137.7400 N   0  0  0  0  0  2  0  0  0  0  0  0
  186.9800  175.9230  137.1120 C   0  0  0  0  0  3  0  0  0  0  0  0
  186.4290  174.7940  136.5010 C   0  0  0  0  0  3  0  0  0  0  0  0
  185.0090  177.1990  136.5310 C   0  0  0  0  0  3  0  0  0  0  0  0
  185.1620  174.8560  135.9040 C   0  0  0  0  0  0  0  0  0  0  0  0
  184.4570  176.0690  135.9200 C   0  0  0  0  0  3  0  0  0  0  0  0
  186.2670  177.1250  137.1440 C   0  0  0  0  0  0  0  0  0  0  0  0
  185.3060  172.4340  135.2430 N   0  0  0  0  0  2  0  0  0  0  0  0
  184.5810  173.6650  135.2620 C   0  0  0  0  0  0  0  0  0  0  0  0
  183.4400  173.7280  134.7260 O   0  0  0  0  0  0  0  0  0  0  0  0
  184.7720  171.2900  134.6370 N   0  0  0  0  0  1  0  0  0  0  0  0
  1 12  1  0  0  0  0
  2  1  2  0  0  0  0
  3  7  1  0  0  0  0
  4  9  2  0  0  0  0
  5  4  1  0  0  0  0
  5  3  1  0  0  0  0
  6  1  1  0  0  0  0
  7  6  2  0  0  0  0
  8  3  2  0  0  0  0
  8  2  1  0  0  0  0
  9  7  1  0  0  0  0
  9 17  1  0  0  0  0
 10  4  1  0  0  0  0
 12 11  2  0  0  0  0
 12 13  1  0  0  0  0
 13 16  1  0  0  0  0
 14 16  2  0  0  0  0
 16 15  1  0  0  0  0
 17 18  1  0  0  0  0
 18 19  1  0  0  0  0
 19 20  1  0  0  0  0
 20 23  1  0  0  0  0
 20 24  2  0  0  0  0
 21 26  1  0  0  0  0
 22 21  2  0  0  0  0
 23 22  1  0  0  0  0
 24 25  1  0  0  0  0
 25 26  2  0  0  0  0
 27  5  1  0  0  0  0
 28 33  1  0  0  0  0
 29 28  2  0  0  0  0
 30 33  2  0  0  0  0
 31 32  2  0  0  0  0
 31 29  1  0  0  0  0
 32 30  1  0  0  0  0
 33 27  1  0  0  0  0
 34 35  1  0  0  0  0
 35 31  1  0  0  0  0
 36 35  2  0  0  0  0
 37 34  1  0  0  0  0
M  END
>  <MODEL>
3

>  <REMARK>
 VINA RESULT:      -8.4      3.103      6.799
  Name = 
  10 active torsions:
  status: ('A' for Active; 'I' for Inactive)
    1  A    between atoms: C_5  and  C_37
    2  A    between atoms: C_10  and  C_22
    3  A    between atoms: C_10  and  C_33
    4  A    between atoms: C_12  and  O_35
    5  A    between atoms: C_14  and  C_21
    6  A    between atoms: N_16  and  N_34
    7  A    between atoms: C_22  and  O_35
    8  A    between atoms: C_29  and  C_31
    9  A    between atoms: C_29  and  C_37
   10  A    between atoms: C_32  and  N_34
                            x       y       z     vdW  Elec       q    Type
                         _______ _______ _______ _____ _____    ______ ____

>  <TORSDO>
F 10

$$$$
=
 OpenBabel11042412103D

 37 40  0  0  0  0  0  0  0  0999 V2000
  189.9290  177.7410  140.7500 C   0  0  0  0  0  0  0  0  0  0  0  0
  189.8150  177.5130  139.3570 C   0  0  0  0  0  3  0  0  0  0  0  0
  187.4890  178.0830  139.4490 C   0  0  0  0  0  0  0  0  0  0  0  0
  185.5470  178.7830  140.1100 C   0  0  0  0  0  0  0  0  0  0  0  0
  186.2310  178.3370  139.0320 N   0  0  0  0  0  0  0  0  0  0  0  0
  188.8010  178.1680  141.4810 C   0  0  0  0  0  3  0  0  0  0  0  0
  187.5990  178.3300  140.7960 C   0  0  0  0  0  0  0  0  0  0  0  0
  188.5910  177.6900  138.6900 C   0  0  0  0  0  3  0  0  0  0  0  0
  186.3680  178.7800  141.2330 C   0  0  0  0  0  0  0  0  0  0  0  0
  184.1180  179.2090  140.0800 C   0  0  0  0  0  1  0  0  0  0  0  0
  192.2850  177.4500  140.7480 O   0  0  0  0  0  0  0  0  0  0  0  0
  191.2260  177.5400  141.4270 C   0  0  0  0  0  0  0  0  0  0  0  0
  191.3110  177.4140  142.9140 C   0  0  0  0  0  2  0  0  0  0  0  0
  192.0080  175.4870  144.1290 O   0  0  0  0  0  1  0  0  0  0  0  0
  190.1360  175.2150  142.8350 O   0  0  0  0  0  0  0  0  0  0  0  0
  191.1840  175.9860  143.3210 C   0  0  0  0  0  0  0  0  0  0  0  0
  185.9910  179.1570  142.6270 C   0  0  0  0  0  2  0  0  0  0  0  0
  185.3700  177.9650  143.3320 C   0  0  0  0  0  2  0  0  0  0  0  0
  186.3660  177.2460  144.0520 O   0  0  0  0  0  0  0  0  0  0  0  0
  186.9940  177.7360  145.2050 C   0  0  0  0  0  0  0  0  0  0  0  0
  189.0010  177.2540  147.4860 C   0  0  0  0  0  3  0  0  0  0  0  0
  189.1880  177.1110  146.1740 C   0  0  0  0  0  3  0  0  0  0  0  0
  188.4730  177.9360  145.1560 C   0  0  0  0  0  2  0  0  0  0  0  0
  186.2810  178.0620  146.2920 C   0  0  0  0  0  3  0  0  0  0  0  0
  186.8320  178.5090  147.5870 C   0  0  0  0  0  3  0  0  0  0  0  0
  188.0130  178.1560  148.1080 C   0  0  0  0  0  3  0  0  0  0  0  0
  185.7390  178.3050  137.7140 N   0  0  0  0  0  2  0  0  0  0  0  0
  183.7090  177.2030  136.9260 C   0  0  0  0  0  3  0  0  0  0  0  0
  183.0490  176.0930  136.3930 C   0  0  0  0  0  3  0  0  0  0  0  0
  185.8070  176.0040  136.8240 C   0  0  0  0  0  3  0  0  0  0  0  0
  183.7630  174.9310  136.0660 C   0  0  0  0  0  0  0  0  0  0  0  0
  185.1480  174.8930  136.2910 C   0  0  0  0  0  3  0  0  0  0  0  0
  185.0920  177.1690  137.1290 C   0  0  0  0  0  0  0  0  0  0  0  0
  183.3650  172.4490  135.9810 N   0  0  0  0  0  2  0  0  0  0  0  0
  183.0670  173.7620  135.5020 C   0  0  0  0  0  0  0  0  0  0  0  0
  182.2050  173.9170  134.5940 O   0  0  0  0  0  0  0  0  0  0  0  0
  182.7160  171.3240  135.4580 N   0  0  0  0  0  1  0  0  0  0  0  0
  1 12  1  0  0  0  0
  1  6  1  0  0  0  0
  2  1  2  0  0  0  0
  3  7  1  0  0  0  0
  4  9  2  0  0  0  0
  5  3  1  0  0  0  0
  5  4  1  0  0  0  0
  7  9  1  0  0  0  0
  7  6  2  0  0  0  0
  8  2  1  0  0  0  0
  8  3  2  0  0  0  0
  9 17  1  0  0  0  0
 10  4  1  0  0  0  0
 11 12  2  0  0  0  0
 12 13  1  0  0  0  0
 13 16  1  0  0  0  0
 15 16  2  0  0  0  0
 16 14  1  0  0  0  0
 17 18  1  0  0  0  0
 18 19  1  0  0  0  0
 19 20  1  0  0  0  0
 20 24  2  0  0  0  0
 21 26  1  0  0  0  0
 22 21  2  0  0  0  0
 23 20  1  0  0  0  0
 23 22  1  0  0  0  0
 24 25  1  0  0  0  0
 25 26  2  0  0  0  0
 27  5  1  0  0  0  0
 28 33  1  0  0  0  0
 29 28  2  0  0  0  0
 30 33  2  0  0  0  0
 31 32  2  0  0  0  0
 31 29  1  0  0  0  0
 32 30  1  0  0  0  0
 33 27  1  0  0  0  0
 35 34  1  0  0  0  0
 35 31  1  0  0  0  0
 36 35  2  0  0  0  0
 37 34  1  0  0  0  0
M  END
>  <MODEL>
4

>  <REMARK>
 VINA RESULT:      -8.4      3.831      5.949
  Name = 
  10 active torsions:
  status: ('A' for Active; 'I' for Inactive)
    1  A    between atoms: C_5  and  C_37
    2  A    between atoms: C_10  and  C_22
    3  A    between atoms: C_10  and  C_33
    4  A    between atoms: C_12  and  O_35
    5  A    between atoms: C_14  and  C_21
    6  A    between atoms: N_16  and  N_34
    7  A    between atoms: C_22  and  O_35
    8  A    between atoms: C_29  and  C_31
    9  A    between atoms: C_29  and  C_37
   10  A    between atoms: C_32  and  N_34
                            x       y       z     vdW  Elec       q    Type
                         _______ _______ _______ _____ _____    ______ ____

>  <TORSDO>
F 10

$$$$
=
 OpenBabel11042412103D

 37 40  0  0  0  0  0  0  0  0999 V2000
  192.8580  175.8890  137.1450 C   0  0  0  0  0  0  0  0  0  0  0  0
  191.8840  175.8820  136.1170 C   0  0  0  0  0  3  0  0  0  0  0  0
  190.2530  176.7420  137.6480 C   0  0  0  0  0  0  0  0  0  0  0  0
  189.2880  177.5960  139.3910 C   0  0  0  0  0  0  0  0  0  0  0  0
  189.0790  177.2210  138.1090 N   0  0  0  0  0  0  0  0  0  0  0  0
  192.5110  176.3560  138.4310 C   0  0  0  0  0  3  0  0  0  0  0  0
  191.2000  176.7760  138.6430 C   0  0  0  0  0  0  0  0  0  0  0  0
  190.5690  176.3160  136.3590 C   0  0  0  0  0  3  0  0  0  0  0  0
  190.6010  177.3210  139.7620 C   0  0  0  0  0  0  0  0  0  0  0  0
  188.2480  178.2110  140.2660 C   0  0  0  0  0  1  0  0  0  0  0  0
  195.0830  176.2140  136.3840 O   0  0  0  0  0  0  0  0  0  0  0  0
  194.2300  175.4200  136.8660 C   0  0  0  0  0  0  0  0  0  0  0  0
  194.6290  174.0020  137.1180 C   0  0  0  0  0  2  0  0  0  0  0  0
  195.2590  172.7150  139.0220 O   0  0  0  0  0  0  0  0  0  0  0  0
  195.6310  174.9710  139.1860 O   0  0  0  0  0  1  0  0  0  0  0  0
  195.1770  173.8550  138.4950 C   0  0  0  0  0  0  0  0  0  0  0  0
  191.2250  177.5420  141.0990 C   0  0  0  0  0  2  0  0  0  0  0  0
  190.5420  176.6680  142.1360 C   0  0  0  0  0  2  0  0  0  0  0  0
  190.3190  177.4080  143.3320 O   0  0  0  0  0  0  0  0  0  0  0  0
  189.2130  177.2130  144.1700 C   0  0  0  0  0  0  0  0  0  0  0  0
  186.2670  177.8450  144.7890 C   0  0  0  0  0  3  0  0  0  0  0  0
  186.8000  177.4190  143.6430 C   0  0  0  0  0  3  0  0  0  0  0  0
  188.0100  176.5480  143.5850 C   0  0  0  0  0  2  0  0  0  0  0  0
  189.2570  177.5630  145.4630 C   0  0  0  0  0  3  0  0  0  0  0  0
  188.1360  177.4820  146.4200 C   0  0  0  0  0  3  0  0  0  0  0  0
  186.8360  177.6070  146.1280 C   0  0  0  0  0  3  0  0  0  0  0  0
  187.8960  177.4440  137.3800 N   0  0  0  0  0  2  0  0  0  0  0  0
  185.5300  176.8900  137.1550 C   0  0  0  0  0  3  0  0  0  0  0  0
  184.5000  175.9530  137.0320 C   0  0  0  0  0  3  0  0  0  0  0  0
  187.1550  175.0990  137.1780 C   0  0  0  0  0  3  0  0  0  0  0  0
  184.7900  174.5830  136.9750 C   0  0  0  0  0  0  0  0  0  0  0  0
  186.1260  174.1620  137.0540 C   0  0  0  0  0  3  0  0  0  0  0  0
  186.8620  176.4680  137.2130 C   0  0  0  0  0  0  0  0  0  0  0  0
  183.9260  172.2320  137.2020 N   0  0  0  0  0  2  0  0  0  0  0  0
  183.7040  173.5960  136.8430 C   0  0  0  0  0  0  0  0  0  0  0  0
  182.5730  173.9540  136.4110 O   0  0  0  0  0  0  0  0  0  0  0  0
  182.9080  171.2770  137.0830 N   0  0  0  0  0  1  0  0  0  0  0  0
  1  6  1  0  0  0  0
  2  8  1  0  0  0  0
  2  1  2  0  0  0  0
  3  5  1  0  0  0  0
  3  7  1  0  0  0  0
  4  9  2  0  0  0  0
  4 10  1  0  0  0  0
  5  4  1  0  0  0  0
  6  7  2  0  0  0  0
  7  9  1  0  0  0  0
  8  3  2  0  0  0  0
  9 17  1  0  0  0  0
 11 12  2  0  0  0  0
 12 13  1  0  0  0  0
 12  1  1  0  0  0  0
 13 16  1  0  0  0  0
 16 14  2  0  0  0  0
 16 15  1  0  0  0  0
 17 18  1  0  0  0  0
 18 19  1  0  0  0  0
 19 20  1  0  0  0  0
 20 24  2  0  0  0  0
 21 26  1  0  0  0  0
 22 21  2  0  0  0  0
 23 22  1  0  0  0  0
 23 20  1  0  0  0  0
 24 25  1  0  0  0  0
 26 25  2  0  0  0  0
 27  5  1  0  0  0  0
 28 33  1  0  0  0  0
 29 28  2  0  0  0  0
 30 33  2  0  0  0  0
 31 29  1  0  0  0  0
 31 32  2  0  0  0  0
 32 30  1  0  0  0  0
 33 27  1  0  0  0  0
 35 31  1  0  0  0  0
 35 34  1  0  0  0  0
 36 35  2  0  0  0  0
 37 34  1  0  0  0  0
M  END
>  <MODEL>
5

>  <REMARK>
 VINA RESULT:      -8.4      3.789      7.372
  Name = 
  10 active torsions:
  status: ('A' for Active; 'I' for Inactive)
    1  A    between atoms: C_5  and  C_37
    2  A    between atoms: C_10  and  C_22
    3  A    between atoms: C_10  and  C_33
    4  A    between atoms: C_12  and  O_35
    5  A    between atoms: C_14  and  C_21
    6  A    between atoms: N_16  and  N_34
    7  A    between atoms: C_22  and  O_35
    8  A    between atoms: C_29  and  C_31
    9  A    between atoms: C_29  and  C_37
   10  A    between atoms: C_32  and  N_34
                            x       y       z     vdW  Elec       q    Type
                         _______ _______ _______ _____ _____    ______ ____

>  <TORSDO>
F 10

$$$$
=
 OpenBabel11042412103D

 37 40  0  0  0  0  0  0  0  0999 V2000
  185.4560  178.3880  144.3830 C   0  0  0  0  0  0  0  0  0  0  0  0
  184.4430  178.8480  143.5070 C   0  0  0  0  0  3  0  0  0  0  0  0
  185.9530  178.6580  141.6550 C   0  0  0  0  0  0  0  0  0  0  0  0
  187.6640  178.1890  140.4100 C   0  0  0  0  0  0  0  0  0  0  0  0
  186.4050  178.6820  140.3830 N   0  0  0  0  0  0  0  0  0  0  0  0
  186.7210  178.0400  143.8650 C   0  0  0  0  0  3  0  0  0  0  0  0
  186.9310  178.1860  142.4960 C   0  0  0  0  0  0  0  0  0  0  0  0
  184.6820  178.9820  142.1280 C   0  0  0  0  0  3  0  0  0  0  0  0
  188.0300  177.8790  141.7160 C   0  0  0  0  0  0  0  0  0  0  0  0
  188.5220  178.0120  139.2030 C   0  0  0  0  0  1  0  0  0  0  0  0
  184.0660  178.6270  146.2920 O   0  0  0  0  0  0  0  0  0  0  0  0
  185.1800  178.2640  145.8280 C   0  0  0  0  0  0  0  0  0  0  0  0
  186.2150  177.7370  146.7700 C   0  0  0  0  0  2  0  0  0  0  0  0
  187.6030  178.5910  148.5070 O   0  0  0  0  0  1  0  0  0  0  0  0
  186.0550  180.0590  147.6660 O   0  0  0  0  0  0  0  0  0  0  0  0
  186.6590  178.8080  147.7050 C   0  0  0  0  0  0  0  0  0  0  0  0
  189.3450  177.3520  142.1840 C   0  0  0  0  0  2  0  0  0  0  0  0
  190.1880  178.4890  142.7340 C   0  0  0  0  0  2  0  0  0  0  0  0
  190.1320  178.4960  144.1570 O   0  0  0  0  0  0  0  0  0  0  0  0
  190.5040  177.4050  144.9530 C   0  0  0  0  0  0  0  0  0  0  0  0
  191.5280  176.3870  147.6690 C   0  0  0  0  0  3  0  0  0  0  0  0
  190.5010  177.2000  147.4230 C   0  0  0  0  0  3  0  0  0  0  0  0
  189.6880  177.1280  146.1730 C   0  0  0  0  0  2  0  0  0  0  0  0
  191.5230  176.6090  144.6000 C   0  0  0  0  0  3  0  0  0  0  0  0
  192.0570  175.4830  145.3910 C   0  0  0  0  0  3  0  0  0  0  0  0
  192.0620  175.3870  146.7260 C   0  0  0  0  0  3  0  0  0  0  0  0
  185.6840  179.0030  139.2190 N   0  0  0  0  0  2  0  0  0  0  0  0
  183.6530  177.6800  138.9330 C   0  0  0  0  0  3  0  0  0  0  0  0
  182.9010  176.7290  138.2380 C   0  0  0  0  0  3  0  0  0  0  0  0
  185.4360  177.4530  137.3140 C   0  0  0  0  0  3  0  0  0  0  0  0
  183.4080  176.1370  137.0730 C   0  0  0  0  0  0  0  0  0  0  0  0
  184.6840  176.5030  136.6180 C   0  0  0  0  0  3  0  0  0  0  0  0
  184.9160  178.0570  138.4660 C   0  0  0  0  0  0  0  0  0  0  0  0
  181.5620  174.4310  136.9990 N   0  0  0  0  0  2  0  0  0  0  0  0
  182.6140  175.1370  136.3390 C   0  0  0  0  0  0  0  0  0  0  0  0
  182.8610  174.9000  135.1240 O   0  0  0  0  0  0  0  0  0  0  0  0
  180.7950  173.4750  136.3210 N   0  0  0  0  0  1  0  0  0  0  0  0
  1 12  1  0  0  0  0
  2  1  2  0  0  0  0
  3  8  2  0  0  0  0
  3  7  1  0  0  0  0
  4  9  2  0  0  0  0
  5  4  1  0  0  0  0
  5  3  1  0  0  0  0
  6  1  1  0  0  0  0
  7  6  2  0  0  0  0
  8  2  1  0  0  0  0
  9 17  1  0  0  0  0
  9  7  1  0  0  0  0
 10  4  1  0  0  0  0
 12 11  2  0  0  0  0
 12 13  1  0  0  0  0
 13 16  1  0  0  0  0
 15 16  2  0  0  0  0
 16 14  1  0  0  0  0
 17 18  1  0  0  0  0
 18 19  1  0  0  0  0
 19 20  1  0  0  0  0
 20 23  1  0  0  0  0
 22 21  2  0  0  0  0
 23 22  1  0  0  0  0
 24 20  2  0  0  0  0
 24 25  1  0  0  0  0
 25 26  2  0  0  0  0
 26 21  1  0  0  0  0
 27  5  1  0  0  0  0
 29 28  2  0  0  0  0
 30 33  2  0  0  0  0
 31 29  1  0  0  0  0
 32 31  2  0  0  0  0
 32 30  1  0  0  0  0
 33 28  1  0  0  0  0
 33 27  1  0  0  0  0
 35 34  1  0  0  0  0
 35 31  1  0  0  0  0
 36 35  2  0  0  0  0
 37 34  1  0  0  0  0
M  END
>  <MODEL>
6

>  <REMARK>
 VINA RESULT:      -8.3      3.664      7.120
  Name = 
  10 active torsions:
  status: ('A' for Active; 'I' for Inactive)
    1  A    between atoms: C_5  and  C_37
    2  A    between atoms: C_10  and  C_22
    3  A    between atoms: C_10  and  C_33
    4  A    between atoms: C_12  and  O_35
    5  A    between atoms: C_14  and  C_21
    6  A    between atoms: N_16  and  N_34
    7  A    between atoms: C_22  and  O_35
    8  A    between atoms: C_29  and  C_31
    9  A    between atoms: C_29  and  C_37
   10  A    between atoms: C_32  and  N_34
                            x       y       z     vdW  Elec       q    Type
                         _______ _______ _______ _____ _____    ______ ____

>  <TORSDO>
F 10

$$$$
=
 OpenBabel11042412103D

 37 40  0  0  0  0  0  0  0  0999 V2000
  183.6430  178.8400  142.2930 C   0  0  0  0  0  0  0  0  0  0  0  0
  183.1660  178.8570  140.9610 C   0  0  0  0  0  3  0  0  0  0  0  0
  185.4090  178.6290  140.1490 C   0  0  0  0  0  0  0  0  0  0  0  0
  187.5490  178.3120  140.0210 C   0  0  0  0  0  0  0  0  0  0  0  0
  186.4320  178.4840  139.2800 N   0  0  0  0  0  0  0  0  0  0  0  0
  185.0250  178.6900  142.5370 C   0  0  0  0  0  3  0  0  0  0  0  0
  185.8760  178.5850  141.4400 C   0  0  0  0  0  0  0  0  0  0  0  0
  184.0470  178.7450  139.8720 C   0  0  0  0  0  3  0  0  0  0  0  0
  187.2410  178.3810  141.3770 C   0  0  0  0  0  0  0  0  0  0  0  0
  188.9080  178.0840  139.4510 C   0  0  0  0  0  1  0  0  0  0  0  0
  183.0390  178.6100  144.5770 O   0  0  0  0  0  0  0  0  0  0  0  0
  182.6950  178.9670  143.4190 C   0  0  0  0  0  0  0  0  0  0  0  0
  181.3110  179.4910  143.2080 C   0  0  0  0  0  2  0  0  0  0  0  0
  180.0930  177.7870  142.0730 O   0  0  0  0  0  0  0  0  0  0  0  0
  179.7120  177.9390  144.3280 O   0  0  0  0  0  1  0  0  0  0  0  0
  180.3330  178.3680  143.1620 C   0  0  0  0  0  0  0  0  0  0  0  0
  188.1900  178.2830  142.5240 C   0  0  0  0  0  2  0  0  0  0  0  0
  188.2720  176.8450  143.0030 C   0  0  0  0  0  2  0  0  0  0  0  0
  187.4240  176.6560  144.1320 O   0  0  0  0  0  0  0  0  0  0  0  0
  187.5260  177.4030  145.3130 C   0  0  0  0  0  0  0  0  0  0  0  0
  188.3770  177.5070  148.2670 C   0  0  0  0  0  3  0  0  0  0  0  0
  189.0920  177.1150  147.2120 C   0  0  0  0  0  3  0  0  0  0  0  0
  188.8950  177.6750  145.8430 C   0  0  0  0  0  2  0  0  0  0  0  0
  186.4340  177.8980  145.9120 C   0  0  0  0  0  3  0  0  0  0  0  0
  186.4070  178.6280  147.1950 C   0  0  0  0  0  3  0  0  0  0  0  0
  187.2500  178.4570  148.2210 C   0  0  0  0  0  3  0  0  0  0  0  0
  186.3620  178.3750  137.8790 N   0  0  0  0  0  2  0  0  0  0  0  0
  184.9320  176.5430  137.1340 C   0  0  0  0  0  3  0  0  0  0  0  0
  184.7540  175.3140  136.4920 C   0  0  0  0  0  3  0  0  0  0  0  0
  187.2910  176.4750  136.6060 C   0  0  0  0  0  3  0  0  0  0  0  0
  185.8410  174.6590  135.8980 C   0  0  0  0  0  0  0  0  0  0  0  0
  187.1130  175.2470  135.9630 C   0  0  0  0  0  3  0  0  0  0  0  0
  186.1970  177.1360  137.1800 C   0  0  0  0  0  0  0  0  0  0  0  0
  184.3720  172.7300  135.2310 N   0  0  0  0  0  2  0  0  0  0  0  0
  185.6510  173.3660  135.2190 C   0  0  0  0  0  0  0  0  0  0  0  0
  186.6190  172.8150  134.6260 O   0  0  0  0  0  0  0  0  0  0  0  0
  184.1700  171.4990  134.5940 N   0  0  0  0  0  1  0  0  0  0  0  0
  1  6  1  0  0  0  0
  1 12  1  0  0  0  0
  2  1  2  0  0  0  0
  3  7  1  0  0  0  0
  4  9  2  0  0  0  0
  5  4  1  0  0  0  0
  5  3  1  0  0  0  0
  7  6  2  0  0  0  0
  8  3  2  0  0  0  0
  8  2  1  0  0  0  0
  9  7  1  0  0  0  0
  9 17  1  0  0  0  0
 10  4  1  0  0  0  0
 12 11  2  0  0  0  0
 13 12  1  0  0  0  0
 14 16  2  0  0  0  0
 16 13  1  0  0  0  0
 16 15  1  0  0  0  0
 17 18  1  0  0  0  0
 18 19  1  0  0  0  0
 19 20  1  0  0  0  0
 20 23  1  0  0  0  0
 20 24  2  0  0  0  0
 22 21  2  0  0  0  0
 23 22  1  0  0  0  0
 24 25  1  0  0  0  0
 25 26  2  0  0  0  0
 26 21  1  0  0  0  0
 27  5  1  0  0  0  0
 28 33  1  0  0  0  0
 29 28  2  0  0  0  0
 30 33  2  0  0  0  0
 31 32  2  0  0  0  0
 31 29  1  0  0  0  0
 32 30  1  0  0  0  0
 33 27  1  0  0  0  0
 35 34  1  0  0  0  0
 35 31  1  0  0  0  0
 36 35  2  0  0  0  0
 37 34  1  0  0  0  0
M  END
>  <MODEL>
7

>  <REMARK>
 VINA RESULT:      -8.3      3.104      7.044
  Name = 
  10 active torsions:
  status: ('A' for Active; 'I' for Inactive)
    1  A    between atoms: C_5  and  C_37
    2  A    between atoms: C_10  and  C_22
    3  A    between atoms: C_10  and  C_33
    4  A    between atoms: C_12  and  O_35
    5  A    between atoms: C_14  and  C_21
    6  A    between atoms: N_16  and  N_34
    7  A    between atoms: C_22  and  O_35
    8  A    between atoms: C_29  and  C_31
    9  A    between atoms: C_29  and  C_37
   10  A    between atoms: C_32  and  N_34
                            x       y       z     vdW  Elec       q    Type
                         _______ _______ _______ _____ _____    ______ ____

>  <TORSDO>
F 10

$$$$
=
 OpenBabel11042412103D

 37 40  0  0  0  0  0  0  0  0999 V2000
  184.5450  178.8730  143.9040 C   0  0  0  0  0  0  0  0  0  0  0  0
  183.2470  178.7610  143.3500 C   0  0  0  0  0  3  0  0  0  0  0  0
  184.1910  178.6430  141.1500 C   0  0  0  0  0  0  0  0  0  0  0  0
  185.5760  178.4770  139.4910 C   0  0  0  0  0  0  0  0  0  0  0  0
  184.2620  178.5130  139.8090 N   0  0  0  0  0  0  0  0  0  0  0  0
  185.6710  178.8440  143.0550 C   0  0  0  0  0  3  0  0  0  0  0  0
  185.4550  178.7250  141.6840 C   0  0  0  0  0  0  0  0  0  0  0  0
  183.0580  178.6380  141.9630 C   0  0  0  0  0  3  0  0  0  0  0  0
  186.3510  178.6180  140.6380 C   0  0  0  0  0  0  0  0  0  0  0  0
  186.0990  178.3100  138.1040 C   0  0  0  0  0  1  0  0  0  0  0  0
  183.7270  178.8480  146.1330 O   0  0  0  0  0  0  0  0  0  0  0  0
  184.7140  179.0090  145.3650 C   0  0  0  0  0  0  0  0  0  0  0  0
  186.0390  179.3640  145.9600 C   0  0  0  0  0  2  0  0  0  0  0  0
  186.4330  177.0860  146.5360 O   0  0  0  0  0  0  0  0  0  0  0  0
  187.0160  178.6240  148.1330 O   0  0  0  0  0  1  0  0  0  0  0  0
  186.4930  178.2910  146.8900 C   0  0  0  0  0  0  0  0  0  0  0  0
  187.8390  178.6730  140.7200 C   0  0  0  0  0  2  0  0  0  0  0  0
  188.4170  177.2840  140.5120 C   0  0  0  0  0  2  0  0  0  0  0  0
  189.7330  177.2150  141.0510 O   0  0  0  0  0  0  0  0  0  0  0  0
  190.0100  176.8540  142.3770 C   0  0  0  0  0  0  0  0  0  0  0  0
  189.7930  177.5430  145.3660 C   0  0  0  0  0  3  0  0  0  0  0  0
  188.8240  177.5050  144.4530 C   0  0  0  0  0  3  0  0  0  0  0  0
  188.8500  176.5850  143.2780 C   0  0  0  0  0  2  0  0  0  0  0  0
  191.2730  176.7040  142.8010 C   0  0  0  0  0  3  0  0  0  0  0  0
  191.6910  176.4070  144.1850 C   0  0  0  0  0  3  0  0  0  0  0  0
  191.0500  176.7730  145.3010 C   0  0  0  0  0  3  0  0  0  0  0  0
  183.2020  178.3000  138.9080 N   0  0  0  0  0  2  0  0  0  0  0  0
  182.5260  180.6440  138.8560 C   0  0  0  0  0  3  0  0  0  0  0  0
  181.7350  181.6770  138.3470 C   0  0  0  0  0  3  0  0  0  0  0  0
  181.4730  179.0880  137.3330 C   0  0  0  0  0  3  0  0  0  0  0  0
  180.8110  181.4250  137.3230 C   0  0  0  0  0  0  0  0  0  0  0  0
  180.6830  180.1210  136.8220 C   0  0  0  0  0  3  0  0  0  0  0  0
  182.4100  179.3490  138.3410 C   0  0  0  0  0  0  0  0  0  0  0  0
  180.1570  182.9560  135.4380 N   0  0  0  0  0  2  0  0  0  0  0  0
  179.9790  182.5150  136.7850 C   0  0  0  0  0  0  0  0  0  0  0  0
  179.1060  183.0640  137.5130 O   0  0  0  0  0  0  0  0  0  0  0  0
  179.3780  183.9920  134.9060 N   0  0  0  0  0  1  0  0  0  0  0  0
  1 12  1  0  0  0  0
  2  1  1  0  0  0  0
  3  7  2  0  0  0  0
  3  8  1  0  0  0  0
  4  5  1  0  0  0  0
  4  9  2  0  0  0  0
  5  3  1  0  0  0  0
  6  1  2  0  0  0  0
  7  6  1  0  0  0  0
  8  2  2  0  0  0  0
  9 17  1  0  0  0  0
  9  7  1  0  0  0  0
 10  4  1  0  0  0  0
 12 13  1  0  0  0  0
 12 11  2  0  0  0  0
 13 16  1  0  0  0  0
 14 16  2  0  0  0  0
 16 15  1  0  0  0  0
 18 17  1  0  0  0  0
 18 19  1  0  0  0  0
 19 20  1  0  0  0  0
 20 24  2  0  0  0  0
 20 23  1  0  0  0  0
 22 21  2  0  0  0  0
 23 22  1  0  0  0  0
 24 25  1  0  0  0  0
 25 26  2  0  0  0  0
 26 21  1  0  0  0  0
 27  5  1  0  0  0  0
 29 28  1  0  0  0  0
 30 33  1  0  0  0  0
 31 29  2  0  0  0  0
 32 31  1  0  0  0  0
 32 30  2  0  0  0  0
 33 28  2  0  0  0  0
 33 27  1  0  0  0  0
 34 35  1  0  0  0  0
 35 31  1  0  0  0  0
 35 36  2  0  0  0  0
 37 34  1  0  0  0  0
M  END
>  <MODEL>
8

>  <REMARK>
 VINA RESULT:      -8.2      4.072      8.390
  Name = 
  10 active torsions:
  status: ('A' for Active; 'I' for Inactive)
    1  A    between atoms: C_5  and  C_37
    2  A    between atoms: C_10  and  C_22
    3  A    between atoms: C_10  and  C_33
    4  A    between atoms: C_12  and  O_35
    5  A    between atoms: C_14  and  C_21
    6  A    between atoms: N_16  and  N_34
    7  A    between atoms: C_22  and  O_35
    8  A    between atoms: C_29  and  C_31
    9  A    between atoms: C_29  and  C_37
   10  A    between atoms: C_32  and  N_34
                            x       y       z     vdW  Elec       q    Type
                         _______ _______ _______ _____ _____    ______ ____

>  <TORSDO>
F 10

$$$$
=
 OpenBabel11042412103D

 37 40  0  0  0  0  0  0  0  0999 V2000
  183.2200  178.7890  141.7820 C   0  0  0  0  0  0  0  0  0  0  0  0
  183.5600  179.1870  140.4660 C   0  0  0  0  0  3  0  0  0  0  0  0
  185.8560  178.6490  140.8890 C   0  0  0  0  0  0  0  0  0  0  0  0
  187.6840  177.9060  141.7880 C   0  0  0  0  0  0  0  0  0  0  0  0
  187.1750  178.4690  140.6680 N   0  0  0  0  0  0  0  0  0  0  0  0
  184.2240  178.2940  142.6410 C   0  0  0  0  0  3  0  0  0  0  0  0
  185.5300  178.2370  142.1590 C   0  0  0  0  0  0  0  0  0  0  0  0
  184.8850  179.1140  140.0040 C   0  0  0  0  0  3  0  0  0  0  0  0
  186.6850  177.7570  142.7450 C   0  0  0  0  0  0  0  0  0  0  0  0
  189.1120  177.5110  141.9540 C   0  0  0  0  0  1  0  0  0  0  0  0
  180.8790  178.8870  141.4060 O   0  0  0  0  0  0  0  0  0  0  0  0
  181.8210  178.8830  142.2440 C   0  0  0  0  0  0  0  0  0  0  0  0
  181.4930  179.0030  143.6970 C   0  0  0  0  0  2  0  0  0  0  0  0
  179.1930  179.4420  144.1340 O   0  0  0  0  0  1  0  0  0  0  0  0
  179.7570  177.2290  143.9420 O   0  0  0  0  0  0  0  0  0  0  0  0
  180.0870  178.5780  143.9480 C   0  0  0  0  0  0  0  0  0  0  0  0
  186.8350  177.2190  144.1280 C   0  0  0  0  0  2  0  0  0  0  0  0
  187.2070  178.3410  145.0800 C   0  0  0  0  0  2  0  0  0  0  0  0
  187.8160  177.8090  146.2520 O   0  0  0  0  0  0  0  0  0  0  0  0
  189.1870  177.5430  146.3610 C   0  0  0  0  0  0  0  0  0  0  0  0
  191.7040  176.2760  145.1270 C   0  0  0  0  0  3  0  0  0  0  0  0
  190.8450  177.1280  144.5660 C   0  0  0  0  0  3  0  0  0  0  0  0
  190.0940  178.1560  145.3450 C   0  0  0  0  0  2  0  0  0  0  0  0
  189.6690  176.8090  147.3740 C   0  0  0  0  0  3  0  0  0  0  0  0
  191.0750  176.3960  147.5520 C   0  0  0  0  0  3  0  0  0  0  0  0
  191.9600  176.1610  146.5750 C   0  0  0  0  0  3  0  0  0  0  0  0
  187.8820  178.6710  139.4680 N   0  0  0  0  0  2  0  0  0  0  0  0
  187.5810  176.7860  137.9480 C   0  0  0  0  0  3  0  0  0  0  0  0
  188.0960  175.7230  137.2010 C   0  0  0  0  0  3  0  0  0  0  0  0
  189.8150  177.3510  138.6840 C   0  0  0  0  0  3  0  0  0  0  0  0
  189.4750  175.4690  137.1860 C   0  0  0  0  0  0  0  0  0  0  0  0
  190.3310  176.2890  137.9370 C   0  0  0  0  0  3  0  0  0  0  0  0
  188.4380  177.6140  138.6790 C   0  0  0  0  0  0  0  0  0  0  0  0
  191.3500  173.8880  136.6270 N   0  0  0  0  0  2  0  0  0  0  0  0
  190.0170  174.3500  136.3960 C   0  0  0  0  0  0  0  0  0  0  0  0
  189.3060  173.7950  135.5140 O   0  0  0  0  0  0  0  0  0  0  0  0
  191.8860  172.8270  135.8870 N   0  0  0  0  0  1  0  0  0  0  0  0
  1 12  1  0  0  0  0
  1  6  1  0  0  0  0
  2  1  2  0  0  0  0
  3  7  1  0  0  0  0
  4 10  1  0  0  0  0
  4  9  2  0  0  0  0
  5  3  1  0  0  0  0
  5  4  1  0  0  0  0
  7  6  2  0  0  0  0
  7  9  1  0  0  0  0
  8  2  1  0  0  0  0
  8  3  2  0  0  0  0
  9 17  1  0  0  0  0
 11 12  2  0  0  0  0
 12 13  1  0  0  0  0
 13 16  1  0  0  0  0
 15 16  2  0  0  0  0
 16 14  1  0  0  0  0
 17 18  1  0  0  0  0
 18 19  1  0  0  0  0
 19 20  1  0  0  0  0
 20 24  2  0  0  0  0
 21 26  1  0  0  0  0
 22 21  2  0  0  0  0
 22 23  1  0  0  0  0
 23 20  1  0  0  0  0
 24 25  1  0  0  0  0
 26 25  2  0  0  0  0
 27  5  1  0  0  0  0
 28 33  1  0  0  0  0
 29 28  2  0  0  0  0
 31 29  1  0  0  0  0
 31 32  2  0  0  0  0
 32 30  1  0  0  0  0
 33 30  2  0  0  0  0
 33 27  1  0  0  0  0
 35 34  1  0  0  0  0
 35 31  1  0  0  0  0
 36 35  2  0  0  0  0
 37 34  1  0  0  0  0
M  END
>  <MODEL>
9

>  <REMARK>
 VINA RESULT:      -8.2      1.834      7.183
  Name = 
  10 active torsions:
  status: ('A' for Active; 'I' for Inactive)
    1  A    between atoms: C_5  and  C_37
    2  A    between atoms: C_10  and  C_22
    3  A    between atoms: C_10  and  C_33
    4  A    between atoms: C_12  and  O_35
    5  A    between atoms: C_14  and  C_21
    6  A    between atoms: N_16  and  N_34
    7  A    between atoms: C_22  and  O_35
    8  A    between atoms: C_29  and  C_31
    9  A    between atoms: C_29  and  C_37
   10  A    between atoms: C_32  and  N_34
                            x       y       z     vdW  Elec       q    Type
                         _______ _______ _______ _____ _____    ______ ____

>  <TORSDO>
F 10

$$$$
