=
 OpenBabel11042410523D

 63 70  0  0  1  0  0  0  0  0999 V2000
  185.1840  178.7500  142.1080 N   0  0  0  0  0  0  0  0  0  0  0  0
  184.3530  178.4070  139.7300 C   0  0  2  0  0  3  0  0  0  0  0  0
  184.2830  178.0160  141.2060 C   0  0  2  0  0  3  0  0  0  0  0  0
  182.9630  179.0000  139.8200 C   0  0  1  0  0  3  0  0  0  0  0  0
  183.1950  177.7440  139.0000 C   0  0  1  0  0  3  0  0  0  0  0  0
  182.8970  178.6230  141.2910 C   0  0  0  0  0  2  0  0  0  0  0  0
  183.1450  178.0480  137.4950 C   0  0  2  0  0  3  0  0  0  0  0  0
  182.0190  178.8350  137.2300 O   0  0  0  0  0  1  0  0  0  0  0  0
  183.1140  176.8900  136.6950 O   0  0  0  0  0  0  0  0  0  0  0  0
  182.4100  175.9400  137.4450 C   0  0  1  0  0  3  0  0  0  0  0  0
  181.1200  175.5530  136.7020 C   0  0  0  0  0  2  0  0  0  0  0  0
  183.6550  172.6150  136.8240 N   0  0  0  0  0  0  0  0  0  0  0  0
  183.2070  174.6960  137.5570 C   0  0  0  0  0  0  0  0  0  0  0  0
  182.6700  173.5990  137.1100 C   0  0  0  0  0  0  0  0  0  0  0  0
  181.0480  173.7290  136.4080 S   0  0  0  0  0  0  0  0  0  0  0  0
  186.0750  172.7650  137.1080 C   0  0  0  0  0  1  0  0  0  0  0  0
  184.6190  174.5970  137.7120 N   0  0  0  0  0  0  0  0  0  0  0  0
  184.8490  173.2510  137.2940 C   0  0  0  0  0  0  0  0  0  0  0  0
  183.3780  171.1860  136.7900 C   0  0  0  0  0  2  0  0  0  0  0  0
  182.7750  170.8350  135.5850 O   0  0  0  0  0  1  0  0  0  0  0  0
  184.3340  179.4850  143.0310 C   0  0  0  0  0  2  0  0  0  0  0  0
  185.0130  179.5900  144.3870 C   0  0  0  0  0  2  0  0  0  0  0  0
  184.1740  178.8760  145.4310 C   0  0  0  0  0  2  0  0  0  0  0  0
  185.0010  178.4550  146.6090 C   0  0  0  0  0  3  0  0  0  0  0  0
  186.3230  178.3060  146.5280 C   0  0  0  0  0  3  0  0  0  0  0  0
  187.0850  177.9080  147.7510 C   0  0  0  0  0  2  0  0  0  0  0  0
  188.5560  178.2430  147.5900 C   0  0  2  0  0  3  0  0  0  0  0  0
  189.3520  176.9970  147.7270 C   0  0  2  0  0  3  0  0  0  0  0  0
  189.2460  177.9260  148.7770 O   0  0  0  0  0  0  0  0  0  0  0  0
  190.7270  177.0620  147.0550 C   0  0  0  0  0  2  0  0  0  0  0  0
  190.8310  176.4490  145.6580 C   0  0  0  0  0  2  0  0  0  0  0  0
  191.5260  177.3630  144.7630 N   0  0  0  0  0  2  0  0  0  0  0  0
  190.8360  178.6400  144.8610 C   0  0  0  0  0  2  0  0  0  0  0  0
  191.1640  179.4780  143.6480 C   0  0  0  0  0  1  0  0  0  0  0  0
  186.0250  177.8860  142.9410 C   0  0  0  0  0  2  0  0  0  0  0  0
  187.7390  178.5150  141.2280 C   0  0  0  0  0  3  0  0  0  0  0  0
  189.4630  176.4920  142.1210 C   0  0  0  0  0  3  0  0  0  0  0  0
  187.3470  177.6720  142.2790 C   0  0  0  0  0  0  0  0  0  0  0  0
  188.2090  176.6540  142.7130 C   0  0  0  0  0  3  0  0  0  0  0  0
  188.9950  178.3530  140.6310 C   0  0  0  0  0  3  0  0  0  0  0  0
  189.8590  177.3440  141.0800 C   0  0  0  0  0  0  0  0  0  0  0  0
  191.2420  177.2360  140.5290 C   0  0  0  0  0  2  0  0  0  0  0  0
  191.2370  176.7180  139.1700 N   0  0  0  0  0  0  0  0  0  0  0  0
  190.0180  176.0730  138.6850 C   0  0  0  0  0  2  0  0  0  0  0  0
  191.4830  174.5010  137.6070 O   0  0  0  0  0  0  0  0  0  0  0  0
  190.3020  175.2400  137.4180 C   0  0  0  0  0  2  0  0  0  0  0  0
  193.4700  177.2600  138.7070 O   0  0  0  0  0  0  0  0  0  0  0  0
  192.4790  176.5070  138.4830 C   0  0  0  0  0  0  0  0  0  0  0  0
  192.5650  175.3980  137.4540 C   0  0  1  0  0  3  0  0  0  0  0  0
  193.8780  174.6380  137.6590 C   0  0  0  0  0  2  0  0  0  0  0  0
  194.8610  176.1560  135.9770 N   0  0  0  0  0  0  0  0  0  0  0  0
  197.3230  175.0860  136.1770 O   0  0  0  0  0  0  0  0  0  0  0  0
  196.9730  175.5230  134.9500 O   0  0  0  0  0  0  0  0  0  0  0  0
  194.9230  174.7780  136.5270 C   0  0  1  0  0  0  0  0  0  0  0  0
  196.6200  174.0370  138.1070 O   0  0  0  0  0  0  0  0  0  0  0  0
  193.7270  176.3110  135.2380 O   0  0  0  0  0  1  0  0  0  0  0  0
  196.0170  176.5540  135.1300 C   0  0  0  0  0  2  0  0  0  0  0  0
  196.3340  174.5660  137.0020 C   0  0  0  0  0  0  0  0  0  0  0  0
  194.5810  173.7420  135.4250 C   0  0  0  0  0  2  0  0  0  0  0  0
  194.5720  172.3030  135.8700 C   0  0  0  0  0  0  0  0  0  0  0  0
  193.7050  171.8860  136.6890 O   0  0  0  0  0  0  0  0  0  0  0  0
  196.7990  171.5410  135.4690 C   0  0  0  0  0  2  0  0  0  0  0  0
  195.5230  171.4020  135.3070 N   0  0  0  0  0  0  0  0  0  0  0  0
  1 35  1  0  0  0  0
  1 21  1  0  0  0  0
  2  4  1  0  0  0  0
  2  3  1  0  0  0  0
  3  6  1  0  0  0  0
  3  1  1  0  0  0  0
  4  6  1  0  0  0  0
  5  2  1  0  0  0  0
  5  4  1  0  0  0  0
  7  5  1  0  0  0  0
  8  7  1  0  0  0  0
  9 10  1  0  0  0  0
  9  7  1  0  0  0  0
 10 13  1  0  0  0  0
 11 10  1  0  0  0  0
 12 14  1  0  0  0  0
 12 18  1  0  0  0  0
 13 17  1  0  0  0  0
 14 13  2  0  0  0  0
 15 11  1  0  0  0  0
 15 14  1  0  0  0  0
 16 18  1  0  0  0  0
 18 17  2  0  0  0  0
 19 12  1  0  0  0  0
 20 19  1  0  0  0  0
 21 22  1  0  0  0  0
 22 23  1  0  0  0  0
 23 24  1  0  0  0  0
 25 24  2  0  0  0  0
 25 26  1  0  0  0  0
 27 28  1  0  0  0  0
 27 26  1  0  0  0  0
 27 29  1  0  0  0  0
 28 29  1  0  0  0  0
 30 28  1  0  0  0  0
 31 30  1  0  0  0  0
 32 33  1  0  0  0  0
 32 31  1  0  0  0  0
 34 33  1  0  0  0  0
 36 38  1  0  0  0  0
 37 39  1  0  0  0  0
 38 39  2  0  0  0  0
 38 35  1  0  0  0  0
 40 41  1  0  0  0  0
 40 36  2  0  0  0  0
 41 37  2  0  0  0  0
 42 41  1  0  0  0  0
 43 42  1  0  0  0  0
 44 43  1  0  0  0  0
 46 45  1  0  0  0  0
 46 44  1  0  0  0  0
 48 47  2  0  0  0  0
 48 43  1  0  0  0  0
 49 45  1  0  0  0  0
 49 50  1  0  0  0  0
 49 48  1  0  0  0  0
 51 54  1  0  0  0  0
 52 58  1  0  0  0  0
 53 57  1  0  0  0  0
 53 52  1  0  0  0  0
 54 58  1  0  0  0  0
 54 50  1  0  0  0  0
 56 51  1  0  0  0  0
 57 51  1  0  0  0  0
 58 55  2  0  0  0  0
 59 60  1  0  0  0  0
 59 54  1  0  0  0  0
 60 61  2  0  0  0  0
 63 62  2  0  0  0  0
 63 60  1  0  0  0  0
M  END
>  <MODEL>
1

>  <REMARK>
 VINA RESULT:      -7.3      0.000      0.000
  Name = 
  24 active torsions:
  status: ('A' for Active; 'I' for Inactive)
    1  A    between atoms: C_1  and  N_27
    2  A    between atoms: C_1  and  C_48
    3  A    between atoms: C_2  and  N_14
    4  A    between atoms: C_2  and  C_57
    5  A    between atoms: C_3  and  C_4
    6  A    between atoms: C_3  and  N_26
    7  A    between atoms: C_4  and  C_34
    8  A    between atoms: N_6  and  C_12
    9  A    between atoms: N_6  and  C_17
   10  A    between atoms: N_6  and  C_45
   11  A    between atoms: C_7  and  C_56
   12  A    between atoms: C_10  and  O_47
   13  A    between atoms: C_12  and  C_31
   14  A    between atoms: C_13  and  C_25
   15  A    between atoms: C_13  and  C_61
   16  A    between atoms: C_15  and  C_39
   17  A    between atoms: C_15  and  O_47
   18  A    between atoms: N_21  and  C_32
   19  A    between atoms: C_22  and  C_29
   20  A    between atoms: C_23  and  C_29
   21  A    between atoms: C_23  and  C_45
   22  A    between atoms: C_25  and  C_48
   23  A    between atoms: N_26  and  C_43
   24  A    between atoms: C_56  and  C_59
                            x       y       z     vdW  Elec       q    Type
                         _______ _______ _______ _____ _____    ______ ____

>  <TORSDO>
F 24

$$$$
=
 OpenBabel11042410523D

 63 70  0  0  1  0  0  0  0  0999 V2000
  184.8790  178.6620  141.9640 N   0  0  0  0  0  0  0  0  0  0  0  0
  184.2040  178.0490  139.5910 C   0  0  2  0  0  3  0  0  0  0  0  0
  184.0130  177.8510  141.0950 C   0  0  2  0  0  3  0  0  0  0  0  0
  182.8390  178.6960  139.5010 C   0  0  1  0  0  3  0  0  0  0  0  0
  183.0730  177.3390  138.8630 C   0  0  1  0  0  3  0  0  0  0  0  0
  182.6520  178.5110  140.9990 C   0  0  0  0  0  2  0  0  0  0  0  0
  183.1430  177.4510  137.3330 C   0  0  2  0  0  3  0  0  0  0  0  0
  182.0890  178.2580  136.8900 O   0  0  0  0  0  1  0  0  0  0  0  0
  183.0930  176.2050  136.6810 O   0  0  0  0  0  0  0  0  0  0  0  0
  184.0440  176.2830  135.6560 C   0  0  1  0  0  3  0  0  0  0  0  0
  185.2480  177.1120  136.1370 C   0  0  0  0  0  2  0  0  0  0  0  0
  186.1730  173.3760  135.6370 N   0  0  0  0  0  0  0  0  0  0  0  0
  184.5720  174.9320  135.3540 C   0  0  0  0  0  0  0  0  0  0  0  0
  185.8550  174.7500  135.4720 C   0  0  0  0  0  0  0  0  0  0  0  0
  186.8160  176.1450  135.9940 S   0  0  0  0  0  0  0  0  0  0  0  0
  184.6590  171.4620  135.6750 C   0  0  0  0  0  1  0  0  0  0  0  0
  183.8400  173.7110  135.3440 N   0  0  0  0  0  0  0  0  0  0  0  0
  184.8940  172.7560  135.4660 C   0  0  0  0  0  0  0  0  0  0  0  0
  187.4740  172.8070  135.3100 C   0  0  0  0  0  2  0  0  0  0  0  0
  187.9840  172.1010  136.3950 O   0  0  0  0  0  1  0  0  0  0  0  0
  183.9950  179.4680  142.7900 C   0  0  0  0  0  2  0  0  0  0  0  0
  184.6340  179.7100  144.1470 C   0  0  0  0  0  2  0  0  0  0  0  0
  183.8660  178.9500  145.2130 C   0  0  0  0  0  2  0  0  0  0  0  0
  184.7140  178.6910  146.4230 C   0  0  0  0  0  3  0  0  0  0  0  0
  186.0250  178.9220  146.4310 C   0  0  0  0  0  3  0  0  0  0  0  0
  186.8020  178.6630  147.6820 C   0  0  0  0  0  2  0  0  0  0  0  0
  187.5390  177.3410  147.5840 C   0  0  2  0  0  3  0  0  0  0  0  0
  188.8980  177.5880  147.0380 C   0  0  2  0  0  3  0  0  0  0  0  0
  187.8610  177.0780  146.2360 O   0  0  0  0  0  0  0  0  0  0  0  0
  189.9170  176.5000  147.3970 C   0  0  0  0  0  2  0  0  0  0  0  0
  191.3780  176.9420  147.4930 C   0  0  0  0  0  2  0  0  0  0  0  0
  191.9910  176.9280  146.1730 N   0  0  0  0  0  2  0  0  0  0  0  0
  191.7660  175.5980  145.6280 C   0  0  0  0  0  2  0  0  0  0  0  0
  191.9480  175.6370  144.1300 C   0  0  0  0  0  1  0  0  0  0  0  0
  185.6900  177.8750  142.8970 C   0  0  0  0  0  2  0  0  0  0  0  0
  187.4950  178.4720  141.2680 C   0  0  0  0  0  3  0  0  0  0  0  0
  189.2180  176.5610  142.3800 C   0  0  0  0  0  3  0  0  0  0  0  0
  187.0600  177.6730  142.3350 C   0  0  0  0  0  0  0  0  0  0  0  0
  187.9220  176.7090  142.8800 C   0  0  0  0  0  3  0  0  0  0  0  0
  188.7930  178.3240  140.7640 C   0  0  0  0  0  3  0  0  0  0  0  0
  189.6560  177.3700  141.3230 C   0  0  0  0  0  0  0  0  0  0  0  0
  191.0750  177.2820  140.8700 C   0  0  0  0  0  2  0  0  0  0  0  0
  191.1670  176.8770  139.4760 N   0  0  0  0  0  0  0  0  0  0  0  0
  189.9760  176.3120  138.8440 C   0  0  0  0  0  2  0  0  0  0  0  0
  191.4840  174.7890  137.7570 O   0  0  0  0  0  0  0  0  0  0  0  0
  190.3400  175.5770  137.5380 C   0  0  0  0  0  2  0  0  0  0  0  0
  193.4430  177.3850  139.2370 O   0  0  0  0  0  0  0  0  0  0  0  0
  192.4550  176.6840  138.8730 C   0  0  0  0  0  0  0  0  0  0  0  0
  192.5970  175.6620  137.7650 C   0  0  1  0  0  3  0  0  0  0  0  0
  193.8690  174.8460  138.0080 C   0  0  0  0  0  2  0  0  0  0  0  0
  194.7430  176.2190  136.1490 N   0  0  0  0  0  0  0  0  0  0  0  0
  197.3150  175.6170  136.6660 O   0  0  0  0  0  0  0  0  0  0  0  0
  197.0040  175.7890  135.3640 O   0  0  0  0  0  0  0  0  0  0  0  0
  194.9700  174.9750  136.9290 C   0  0  1  0  0  0  0  0  0  0  0  0
  196.6250  174.7870  138.7040 O   0  0  0  0  0  0  0  0  0  0  0  0
  193.6630  176.0650  135.3330 O   0  0  0  0  0  1  0  0  0  0  0  0
  195.8890  176.6620  135.3120 C   0  0  0  0  0  2  0  0  0  0  0  0
  196.3540  175.0780  137.5100 C   0  0  0  0  0  0  0  0  0  0  0  0
  194.8830  173.7360  136.0020 C   0  0  0  0  0  2  0  0  0  0  0  0
  194.6000  172.4290  136.6950 C   0  0  0  0  0  0  0  0  0  0  0  0
  195.3610  172.0050  137.6110 O   0  0  0  0  0  0  0  0  0  0  0  0
  192.4900  172.2020  135.6010 C   0  0  0  0  0  2  0  0  0  0  0  0
  193.4250  171.7020  136.3420 N   0  0  0  0  0  0  0  0  0  0  0  0
  1 21  1  0  0  0  0
  1 35  1  0  0  0  0
  2  3  1  0  0  0  0
  3  1  1  0  0  0  0
  4  2  1  0  0  0  0
  4  6  1  0  0  0  0
  5  4  1  0  0  0  0
  5  2  1  0  0  0  0
  6  3  1  0  0  0  0
  7  5  1  0  0  0  0
  8  7  1  0  0  0  0
  9  7  1  0  0  0  0
 10 11  1  0  0  0  0
 10  9  1  0  0  0  0
 13 14  2  0  0  0  0
 13 10  1  0  0  0  0
 14 12  1  0  0  0  0
 14 15  1  0  0  0  0
 15 11  1  0  0  0  0
 17 13  1  0  0  0  0
 17 18  2  0  0  0  0
 18 12  1  0  0  0  0
 18 16  1  0  0  0  0
 19 12  1  0  0  0  0
 19 20  1  0  0  0  0
 21 22  1  0  0  0  0
 22 23  1  0  0  0  0
 23 24  1  0  0  0  0
 24 25  2  0  0  0  0
 25 26  1  0  0  0  0
 27 26  1  0  0  0  0
 28 30  1  0  0  0  0
 28 27  1  0  0  0  0
 29 28  1  0  0  0  0
 29 27  1  0  0  0  0
 30 31  1  0  0  0  0
 32 31  1  0  0  0  0
 33 32  1  0  0  0  0
 34 33  1  0  0  0  0
 36 38  1  0  0  0  0
 37 39  1  0  0  0  0
 38 39  2  0  0  0  0
 38 35  1  0  0  0  0
 40 36  2  0  0  0  0
 40 41  1  0  0  0  0
 41 37  2  0  0  0  0
 42 41  1  0  0  0  0
 43 42  1  0  0  0  0
 44 43  1  0  0  0  0
 45 49  1  0  0  0  0
 46 45  1  0  0  0  0
 46 44  1  0  0  0  0
 48 47  2  0  0  0  0
 48 43  1  0  0  0  0
 49 50  1  0  0  0  0
 49 48  1  0  0  0  0
 51 54  1  0  0  0  0
 52 58  1  0  0  0  0
 53 52  1  0  0  0  0
 54 58  1  0  0  0  0
 54 50  1  0  0  0  0
 56 51  1  0  0  0  0
 57 53  1  0  0  0  0
 57 51  1  0  0  0  0
 58 55  2  0  0  0  0
 59 60  1  0  0  0  0
 59 54  1  0  0  0  0
 60 61  2  0  0  0  0
 62 63  2  0  0  0  0
 63 60  1  0  0  0  0
M  END
>  <MODEL>
2

>  <REMARK>
 VINA RESULT:      -7.2      1.685      1.974
  Name = 
  24 active torsions:
  status: ('A' for Active; 'I' for Inactive)
    1  A    between atoms: C_1  and  N_27
    2  A    between atoms: C_1  and  C_48
    3  A    between atoms: C_2  and  N_14
    4  A    between atoms: C_2  and  C_57
    5  A    between atoms: C_3  and  C_4
    6  A    between atoms: C_3  and  N_26
    7  A    between atoms: C_4  and  C_34
    8  A    between atoms: N_6  and  C_12
    9  A    between atoms: N_6  and  C_17
   10  A    between atoms: N_6  and  C_45
   11  A    between atoms: C_7  and  C_56
   12  A    between atoms: C_10  and  O_47
   13  A    between atoms: C_12  and  C_31
   14  A    between atoms: C_13  and  C_25
   15  A    between atoms: C_13  and  C_61
   16  A    between atoms: C_15  and  C_39
   17  A    between atoms: C_15  and  O_47
   18  A    between atoms: N_21  and  C_32
   19  A    between atoms: C_22  and  C_29
   20  A    between atoms: C_23  and  C_29
   21  A    between atoms: C_23  and  C_45
   22  A    between atoms: C_25  and  C_48
   23  A    between atoms: N_26  and  C_43
   24  A    between atoms: C_56  and  C_59
                            x       y       z     vdW  Elec       q    Type
                         _______ _______ _______ _____ _____    ______ ____

>  <TORSDO>
F 24

$$$$
=
 OpenBabel11042410523D

 63 70  0  0  1  0  0  0  0  0999 V2000
  185.2500  175.4890  137.2230 N   0  0  0  0  0  0  0  0  0  0  0  0
  183.4300  173.8580  136.5230 C   0  0  2  0  0  3  0  0  0  0  0  0
  184.9050  174.2590  136.4940 C   0  0  2  0  0  3  0  0  0  0  0  0
  183.7720  172.6570  137.3790 C   0  0  1  0  0  3  0  0  0  0  0  0
  183.3010  172.4550  135.9500 C   0  0  1  0  0  3  0  0  0  0  0  0
  185.2380  173.0610  137.3610 C   0  0  0  0  0  2  0  0  0  0  0  0
  181.8600  171.9230  135.9120 C   0  0  2  0  0  3  0  0  0  0  0  0
  181.8850  170.5770  135.5320 O   0  0  0  0  0  1  0  0  0  0  0  0
  181.0220  172.6460  135.0420 O   0  0  0  0  0  0  0  0  0  0  0  0
  179.9040  172.9950  135.8080 C   0  0  1  0  0  3  0  0  0  0  0  0
  180.0410  172.3940  137.2190 C   0  0  0  0  0  2  0  0  0  0  0  0
  180.2990  176.2670  137.2670 N   0  0  0  0  0  0  0  0  0  0  0  0
  179.8570  174.4650  135.9930 C   0  0  0  0  0  0  0  0  0  0  0  0
  179.8640  174.9160  137.2130 C   0  0  0  0  0  0  0  0  0  0  0  0
  179.9410  173.7110  138.5110 S   0  0  0  0  0  0  0  0  0  0  0  0
  180.9450  177.7270  135.4200 C   0  0  0  0  0  1  0  0  0  0  0  0
  180.2100  175.4570  135.0350 N   0  0  0  0  0  0  0  0  0  0  0  0
  180.4230  176.5910  135.8770 C   0  0  0  0  0  0  0  0  0  0  0  0
  179.9610  177.1780  138.3520 C   0  0  0  0  0  2  0  0  0  0  0  0
  178.9320  178.0330  137.9680 O   0  0  0  0  0  1  0  0  0  0  0  0
  186.4760  175.9930  136.6260 C   0  0  0  0  0  2  0  0  0  0  0  0
  187.6130  175.9130  137.6300 C   0  0  0  0  0  2  0  0  0  0  0  0
  188.4750  177.1560  137.5220 C   0  0  0  0  0  2  0  0  0  0  0  0
  189.8360  176.8370  136.9780 C   0  0  0  0  0  3  0  0  0  0  0  0
  190.9010  176.7060  137.7680 C   0  0  0  0  0  3  0  0  0  0  0  0
  192.2210  176.3630  137.1580 C   0  0  0  0  0  2  0  0  0  0  0  0
  192.6340  174.9560  137.5480 C   0  0  2  0  0  3  0  0  0  0  0  0
  194.1000  174.8130  137.3530 C   0  0  2  0  0  3  0  0  0  0  0  0
  193.1770  174.2950  136.4270 O   0  0  0  0  0  0  0  0  0  0  0  0
  194.7320  173.7010  138.1980 C   0  0  0  0  0  2  0  0  0  0  0  0
  196.1870  173.9120  138.6190 C   0  0  0  0  0  2  0  0  0  0  0  0
  196.8260  174.8790  137.7380 N   0  0  0  0  0  2  0  0  0  0  0  0
  197.5320  174.1090  136.7250 C   0  0  0  0  0  2  0  0  0  0  0  0
  198.3950  173.0700  137.4010 C   0  0  0  0  0  1  0  0  0  0  0  0
  184.2640  176.5630  137.0770 C   0  0  0  0  0  2  0  0  0  0  0  0
  183.4440  176.7840  139.4320 C   0  0  0  0  0  3  0  0  0  0  0  0
  184.7110  179.2700  139.7060 C   0  0  0  0  0  3  0  0  0  0  0  0
  184.1550  177.3310  138.3540 C   0  0  0  0  0  0  0  0  0  0  0  0
  184.7760  178.5820  138.4930 C   0  0  0  0  0  3  0  0  0  0  0  0
  183.3750  177.4730  140.6490 C   0  0  0  0  0  3  0  0  0  0  0  0
  184.0120  178.7150  140.7870 C   0  0  0  0  0  0  0  0  0  0  0  0
  184.0410  179.4040  142.1110 C   0  0  0  0  0  2  0  0  0  0  0  0
  184.6240  178.5570  143.1410 N   0  0  0  0  0  0  0  0  0  0  0  0
  183.9590  178.5000  144.4410 C   0  0  0  0  0  2  0  0  0  0  0  0
  186.1710  178.4830  145.3800 O   0  0  0  0  0  0  0  0  0  0  0  0
  184.8960  177.9070  145.5140 C   0  0  0  0  0  2  0  0  0  0  0  0
  186.4780  177.8910  141.8690 O   0  0  0  0  0  0  0  0  0  0  0  0
  185.9820  178.1120  143.0130 C   0  0  0  0  0  0  0  0  0  0  0  0
  186.7920  177.8690  144.2680 C   0  0  1  0  0  3  0  0  0  0  0  0
  188.1870  178.4710  144.0790 C   0  0  0  0  0  2  0  0  0  0  0  0
  189.4040  176.5760  143.0630 N   0  0  0  0  0  0  0  0  0  0  0  0
  191.8030  177.3820  143.9800 O   0  0  0  0  0  0  0  0  0  0  0  0
  191.6220  176.0470  143.9080 O   0  0  0  0  0  0  0  0  0  0  0  0
  189.3730  177.4900  144.2340 C   0  0  1  0  0  0  0  0  0  0  0  0
  190.8380  179.4190  144.4700 O   0  0  0  0  0  0  0  0  0  0  0  0
  188.3780  175.6830  143.1440 O   0  0  0  0  0  1  0  0  0  0  0  0
  190.6650  175.8090  142.8890 C   0  0  0  0  0  2  0  0  0  0  0  0
  190.7070  178.1830  144.2740 C   0  0  0  0  0  0  0  0  0  0  0  0
  189.1630  176.6830  145.5410 C   0  0  0  0  0  2  0  0  0  0  0  0
  189.6990  177.3280  146.7920 C   0  0  0  0  0  0  0  0  0  0  0  0
  190.8780  177.0980  147.1830 O   0  0  0  0  0  0  0  0  0  0  0  0
  188.2430  177.9350  148.5840 C   0  0  0  0  0  2  0  0  0  0  0  0
  188.8740  178.2510  147.5000 N   0  0  0  0  0  0  0  0  0  0  0  0
  2  4  1  0  0  0  0
  3  2  1  0  0  0  0
  3  1  1  0  0  0  0
  3  6  1  0  0  0  0
  5  2  1  0  0  0  0
  5  4  1  0  0  0  0
  6  4  1  0  0  0  0
  7  5  1  0  0  0  0
  8  7  1  0  0  0  0
  9 10  1  0  0  0  0
  9  7  1  0  0  0  0
 10 13  1  0  0  0  0
 10 11  1  0  0  0  0
 11 15  1  0  0  0  0
 12 19  1  0  0  0  0
 13 14  2  0  0  0  0
 14 12  1  0  0  0  0
 14 15  1  0  0  0  0
 16 18  1  0  0  0  0
 17 18  2  0  0  0  0
 17 13  1  0  0  0  0
 18 12  1  0  0  0  0
 20 19  1  0  0  0  0
 21  1  1  0  0  0  0
 21 22  1  0  0  0  0
 23 22  1  0  0  0  0
 24 23  1  0  0  0  0
 24 25  2  0  0  0  0
 26 27  1  0  0  0  0
 26 25  1  0  0  0  0
 28 27  1  0  0  0  0
 28 30  1  0  0  0  0
 29 28  1  0  0  0  0
 29 27  1  0  0  0  0
 30 31  1  0  0  0  0
 32 31  1  0  0  0  0
 33 34  1  0  0  0  0
 33 32  1  0  0  0  0
 35  1  1  0  0  0  0
 35 38  1  0  0  0  0
 36 40  1  0  0  0  0
 37 41  1  0  0  0  0
 38 39  1  0  0  0  0
 38 36  2  0  0  0  0
 39 37  2  0  0  0  0
 40 41  2  0  0  0  0
 41 42  1  0  0  0  0
 42 43  1  0  0  0  0
 43 44  1  0  0  0  0
 44 46  1  0  0  0  0
 45 46  1  0  0  0  0
 47 48  2  0  0  0  0
 48 43  1  0  0  0  0
 48 49  1  0  0  0  0
 49 45  1  0  0  0  0
 50 54  1  0  0  0  0
 50 49  1  0  0  0  0
 51 56  1  0  0  0  0
 51 54  1  0  0  0  0
 52 58  1  0  0  0  0
 53 52  1  0  0  0  0
 54 58  1  0  0  0  0
 54 59  1  0  0  0  0
 57 51  1  0  0  0  0
 57 53  1  0  0  0  0
 58 55  2  0  0  0  0
 59 60  1  0  0  0  0
 60 61  2  0  0  0  0
 60 63  1  0  0  0  0
 63 62  2  0  0  0  0
M  END
>  <MODEL>
3

>  <REMARK>
 VINA RESULT:      -6.2      2.585      8.838
  Name = 
  24 active torsions:
  status: ('A' for Active; 'I' for Inactive)
    1  A    between atoms: C_1  and  N_27
    2  A    between atoms: C_1  and  C_48
    3  A    between atoms: C_2  and  N_14
    4  A    between atoms: C_2  and  C_57
    5  A    between atoms: C_3  and  C_4
    6  A    between atoms: C_3  and  N_26
    7  A    between atoms: C_4  and  C_34
    8  A    between atoms: N_6  and  C_12
    9  A    between atoms: N_6  and  C_17
   10  A    between atoms: N_6  and  C_45
   11  A    between atoms: C_7  and  C_56
   12  A    between atoms: C_10  and  O_47
   13  A    between atoms: C_12  and  C_31
   14  A    between atoms: C_13  and  C_25
   15  A    between atoms: C_13  and  C_61
   16  A    between atoms: C_15  and  C_39
   17  A    between atoms: C_15  and  O_47
   18  A    between atoms: N_21  and  C_32
   19  A    between atoms: C_22  and  C_29
   20  A    between atoms: C_23  and  C_29
   21  A    between atoms: C_23  and  C_45
   22  A    between atoms: C_25  and  C_48
   23  A    between atoms: N_26  and  C_43
   24  A    between atoms: C_56  and  C_59
                            x       y       z     vdW  Elec       q    Type
                         _______ _______ _______ _____ _____    ______ ____

>  <TORSDO>
F 24

$$$$
=
 OpenBabel11042410523D

 63 70  0  0  1  0  0  0  0  0999 V2000
  185.0450  173.9870  135.4660 N   0  0  0  0  0  0  0  0  0  0  0  0
  182.5970  173.5380  135.9830 C   0  0  2  0  0  3  0  0  0  0  0  0
  183.9110  173.0560  135.3680 C   0  0  2  0  0  3  0  0  0  0  0  0
  182.7170  172.4890  137.0680 C   0  0  1  0  0  3  0  0  0  0  0  0
  181.6240  172.3700  136.0210 C   0  0  1  0  0  3  0  0  0  0  0  0
  184.0300  172.0160  136.4650 C   0  0  0  0  0  2  0  0  0  0  0  0
  180.2500  172.7160  136.6130 C   0  0  2  0  0  3  0  0  0  0  0  0
  179.3510  171.6890  136.3010 O   0  0  0  0  0  1  0  0  0  0  0  0
  179.7410  173.9470  136.1570 O   0  0  0  0  0  0  0  0  0  0  0  0
  179.0850  174.5080  137.2580 C   0  0  1  0  0  3  0  0  0  0  0  0
  179.5550  173.8090  138.5460 C   0  0  0  0  0  2  0  0  0  0  0  0
  180.7580  177.4960  138.3810 N   0  0  0  0  0  0  0  0  0  0  0  0
  179.4690  175.9320  137.4030 C   0  0  0  0  0  0  0  0  0  0  0  0
  180.0140  176.2950  138.5260 C   0  0  0  0  0  0  0  0  0  0  0  0
  180.2420  175.0320  139.7490 S   0  0  0  0  0  0  0  0  0  0  0  0
  181.0540  178.8640  136.3820 C   0  0  0  0  0  1  0  0  0  0  0  0
  179.6960  176.8650  136.3520 N   0  0  0  0  0  0  0  0  0  0  0  0
  180.4620  177.8620  137.0290 C   0  0  0  0  0  0  0  0  0  0  0  0
  181.0570  178.3950  139.4880 C   0  0  0  0  0  2  0  0  0  0  0  0
  179.8970  179.0240  139.9320 O   0  0  0  0  0  1  0  0  0  0  0  0
  186.0970  173.4460  134.6220 C   0  0  0  0  0  2  0  0  0  0  0  0
  187.2270  172.9080  135.4830 C   0  0  0  0  0  2  0  0  0  0  0  0
  187.2300  173.6230  136.8210 C   0  0  0  0  0  2  0  0  0  0  0  0
  188.5710  174.2210  137.1240 C   0  0  0  0  0  3  0  0  0  0  0  0
  189.7090  173.6000  136.8170 C   0  0  0  0  0  3  0  0  0  0  0  0
  191.0090  174.2680  137.1260 C   0  0  0  0  0  2  0  0  0  0  0  0
  191.5690  174.9370  135.8850 C   0  0  2  0  0  3  0  0  0  0  0  0
  192.8040  175.6760  136.2510 C   0  0  2  0  0  3  0  0  0  0  0  0
  191.5770  176.3350  136.0630 O   0  0  0  0  0  0  0  0  0  0  0  0
  193.7560  175.9140  135.0740 C   0  0  0  0  0  2  0  0  0  0  0  0
  195.2040  175.4580  135.2670 C   0  0  0  0  0  2  0  0  0  0  0  0
  195.3320  174.7240  136.5180 N   0  0  0  0  0  2  0  0  0  0  0  0
  195.6280  173.3460  136.1580 C   0  0  0  0  0  2  0  0  0  0  0  0
  194.5020  172.4570  136.6310 C   0  0  0  0  0  1  0  0  0  0  0  0
  184.7620  175.3260  134.9410 C   0  0  0  0  0  2  0  0  0  0  0  0
  184.1070  176.6090  136.9900 C   0  0  0  0  0  3  0  0  0  0  0  0
  186.5570  177.9720  136.9950 C   0  0  0  0  0  3  0  0  0  0  0  0
  185.0530  176.3540  135.9860 C   0  0  0  0  0  0  0  0  0  0  0  0
  186.2730  177.0480  135.9870 C   0  0  0  0  0  3  0  0  0  0  0  0
  184.3890  177.5360  138.0000 C   0  0  0  0  0  3  0  0  0  0  0  0
  185.6160  178.2150  138.0050 C   0  0  0  0  0  0  0  0  0  0  0  0
  185.9720  179.1180  139.1380 C   0  0  0  0  0  2  0  0  0  0  0  0
  186.0490  178.3920  140.3970 N   0  0  0  0  0  0  0  0  0  0  0  0
  184.9350  178.5250  141.3350 C   0  0  0  0  0  2  0  0  0  0  0  0
  186.6130  178.5550  143.0560 O   0  0  0  0  0  0  0  0  0  0  0  0
  185.3410  178.0440  142.7430 C   0  0  0  0  0  2  0  0  0  0  0  0
  188.1860  177.5060  140.0230 O   0  0  0  0  0  0  0  0  0  0  0  0
  187.3110  177.8890  140.8540 C   0  0  0  0  0  0  0  0  0  0  0  0
  187.5590  177.7820  142.3430 C   0  0  1  0  0  3  0  0  0  0  0  0
  188.9650  178.3070  142.6480 C   0  0  0  0  0  2  0  0  0  0  0  0
  190.5650  176.4520  142.9670 N   0  0  0  0  0  0  0  0  0  0  0  0
  191.8060  177.6320  145.0440 O   0  0  0  0  0  0  0  0  0  0  0  0
  191.7250  176.2870  145.0980 O   0  0  0  0  0  0  0  0  0  0  0  0
  189.7810  177.4940  143.6800 C   0  0  1  0  0  0  0  0  0  0  0  0
  190.7360  179.5910  144.4640 O   0  0  0  0  0  0  0  0  0  0  0  0
  189.7350  175.4650  142.5280 O   0  0  0  0  0  1  0  0  0  0  0  0
  191.6490  175.8180  143.7620 C   0  0  0  0  0  2  0  0  0  0  0  0
  190.7710  178.3340  144.4390 C   0  0  0  0  0  0  0  0  0  0  0  0
  188.7860  176.8350  144.6700 C   0  0  0  0  0  2  0  0  0  0  0  0
  188.4680  177.6430  145.9000 C   0  0  0  0  0  0  0  0  0  0  0  0
  187.5220  178.4810  145.8960 O   0  0  0  0  0  0  0  0  0  0  0  0
  188.7520  177.6790  148.2710 C   0  0  0  0  0  2  0  0  0  0  0  0
  189.2140  177.4070  147.0930 N   0  0  0  0  0  0  0  0  0  0  0  0
  2  5  1  0  0  0  0
  2  4  1  0  0  0  0
  3  1  1  0  0  0  0
  3  2  1  0  0  0  0
  3  6  1  0  0  0  0
  5  7  1  0  0  0  0
  5  4  1  0  0  0  0
  6  4  1  0  0  0  0
  8  7  1  0  0  0  0
  9  7  1  0  0  0  0
  9 10  1  0  0  0  0
 10 13  1  0  0  0  0
 10 11  1  0  0  0  0
 11 15  1  0  0  0  0
 12 14  1  0  0  0  0
 12 19  1  0  0  0  0
 13 14  2  0  0  0  0
 14 15  1  0  0  0  0
 16 18  1  0  0  0  0
 17 18  2  0  0  0  0
 17 13  1  0  0  0  0
 18 12  1  0  0  0  0
 19 20  1  0  0  0  0
 21  1  1  0  0  0  0
 21 22  1  0  0  0  0
 22 23  1  0  0  0  0
 23 24  1  0  0  0  0
 25 24  2  0  0  0  0
 25 26  1  0  0  0  0
 27 29  1  0  0  0  0
 27 28  1  0  0  0  0
 27 26  1  0  0  0  0
 29 28  1  0  0  0  0
 30 31  1  0  0  0  0
 30 28  1  0  0  0  0
 31 32  1  0  0  0  0
 33 32  1  0  0  0  0
 33 34  1  0  0  0  0
 35  1  1  0  0  0  0
 35 38  1  0  0  0  0
 36 40  1  0  0  0  0
 37 41  1  0  0  0  0
 38 39  1  0  0  0  0
 38 36  2  0  0  0  0
 39 37  2  0  0  0  0
 40 41  2  0  0  0  0
 41 42  1  0  0  0  0
 42 43  1  0  0  0  0
 43 48  1  0  0  0  0
 43 44  1  0  0  0  0
 44 46  1  0  0  0  0
 46 45  1  0  0  0  0
 47 48  2  0  0  0  0
 48 49  1  0  0  0  0
 49 50  1  0  0  0  0
 49 45  1  0  0  0  0
 50 54  1  0  0  0  0
 51 54  1  0  0  0  0
 51 57  1  0  0  0  0
 52 53  1  0  0  0  0
 54 58  1  0  0  0  0
 54 59  1  0  0  0  0
 56 51  1  0  0  0  0
 57 53  1  0  0  0  0
 58 55  2  0  0  0  0
 58 52  1  0  0  0  0
 59 60  1  0  0  0  0
 60 63  1  0  0  0  0
 61 60  2  0  0  0  0
 63 62  2  0  0  0  0
M  END
>  <MODEL>
4

>  <REMARK>
 VINA RESULT:      -6.0      2.790      8.981
  Name = 
  24 active torsions:
  status: ('A' for Active; 'I' for Inactive)
    1  A    between atoms: C_1  and  N_27
    2  A    between atoms: C_1  and  C_48
    3  A    between atoms: C_2  and  N_14
    4  A    between atoms: C_2  and  C_57
    5  A    between atoms: C_3  and  C_4
    6  A    between atoms: C_3  and  N_26
    7  A    between atoms: C_4  and  C_34
    8  A    between atoms: N_6  and  C_12
    9  A    between atoms: N_6  and  C_17
   10  A    between atoms: N_6  and  C_45
   11  A    between atoms: C_7  and  C_56
   12  A    between atoms: C_10  and  O_47
   13  A    between atoms: C_12  and  C_31
   14  A    between atoms: C_13  and  C_25
   15  A    between atoms: C_13  and  C_61
   16  A    between atoms: C_15  and  C_39
   17  A    between atoms: C_15  and  O_47
   18  A    between atoms: N_21  and  C_32
   19  A    between atoms: C_22  and  C_29
   20  A    between atoms: C_23  and  C_29
   21  A    between atoms: C_23  and  C_45
   22  A    between atoms: C_25  and  C_48
   23  A    between atoms: N_26  and  C_43
   24  A    between atoms: C_56  and  C_59
                            x       y       z     vdW  Elec       q    Type
                         _______ _______ _______ _____ _____    ______ ____

>  <TORSDO>
F 24

$$$$
=
 OpenBabel11042410523D

 63 70  0  0  1  0  0  0  0  0999 V2000
  185.0950  178.9830  142.2520 N   0  0  0  0  0  0  0  0  0  0  0  0
  182.6090  178.6870  142.6930 C   0  0  2  0  0  3  0  0  0  0  0  0
  184.0520  178.3780  143.0940 C   0  0  2  0  0  3  0  0  0  0  0  0
  182.4370  179.5160  143.9490 C   0  0  1  0  0  3  0  0  0  0  0  0
  181.6870  178.2050  143.8020 C   0  0  1  0  0  3  0  0  0  0  0  0
  183.8760  179.2200  144.3420 C   0  0  0  0  0  2  0  0  0  0  0  0
  180.1950  178.4470  143.5280 C   0  0  2  0  0  3  0  0  0  0  0  0
  179.4610  178.0780  144.6600 O   0  0  0  0  0  1  0  0  0  0  0  0
  179.7150  177.7490  142.4030 O   0  0  0  0  0  0  0  0  0  0  0  0
  178.9310  178.6720  141.7010 C   0  0  1  0  0  3  0  0  0  0  0  0
  179.5550  180.0740  141.8240 C   0  0  0  0  0  2  0  0  0  0  0  0
  179.7850  178.7020  138.1990 N   0  0  0  0  0  0  0  0  0  0  0  0
  178.9410  178.3460  140.2550 C   0  0  0  0  0  0  0  0  0  0  0  0
  179.3690  179.2610  139.4370 C   0  0  0  0  0  0  0  0  0  0  0  0
  179.9010  180.7910  140.1560 S   0  0  0  0  0  0  0  0  0  0  0  0
  179.7370  176.3630  137.5010 C   0  0  0  0  0  1  0  0  0  0  0  0
  178.9310  177.0460  139.6740 N   0  0  0  0  0  0  0  0  0  0  0  0
  179.4150  177.3270  138.3600 C   0  0  0  0  0  0  0  0  0  0  0  0
  179.8390  179.4550  136.9540 C   0  0  0  0  0  2  0  0  0  0  0  0
  180.8380  180.4230  137.0140 O   0  0  0  0  0  1  0  0  0  0  0  0
  185.8540  177.8820  141.6800 C   0  0  0  0  0  2  0  0  0  0  0  0
  186.7270  177.2450  142.7470 C   0  0  0  0  0  2  0  0  0  0  0  0
  187.8000  178.2280  143.1790 C   0  0  0  0  0  2  0  0  0  0  0  0
  187.8810  178.3350  144.6730 C   0  0  0  0  0  3  0  0  0  0  0  0
  186.9730  177.7770  145.4720 C   0  0  0  0  0  3  0  0  0  0  0  0
  187.1330  177.9040  146.9530 C   0  0  0  0  0  2  0  0  0  0  0  0
  188.5380  178.3580  147.2970 C   0  0  2  0  0  3  0  0  0  0  0  0
  189.4140  177.1650  147.4200 C   0  0  2  0  0  3  0  0  0  0  0  0
  188.9120  177.8330  148.5510 O   0  0  0  0  0  0  0  0  0  0  0  0
  190.9020  177.4630  147.2060 C   0  0  0  0  0  2  0  0  0  0  0  0
  191.5550  176.8220  145.9800 C   0  0  0  0  0  2  0  0  0  0  0  0
  191.5550  177.7610  144.8680 N   0  0  0  0  0  2  0  0  0  0  0  0
  191.5430  176.9600  143.6530 C   0  0  0  0  0  2  0  0  0  0  0  0
  190.5490  175.8350  143.8090 C   0  0  0  0  0  1  0  0  0  0  0  0
  184.5730  179.7420  141.1120 C   0  0  0  0  0  2  0  0  0  0  0  0
  183.3040  178.1640  139.6390 C   0  0  0  0  0  3  0  0  0  0  0  0
  185.4810  177.9540  137.8840 C   0  0  0  0  0  3  0  0  0  0  0  0
  184.4920  178.8600  139.9080 C   0  0  0  0  0  0  0  0  0  0  0  0
  185.5820  178.7420  139.0330 C   0  0  0  0  0  3  0  0  0  0  0  0
  183.2010  177.3710  138.4900 C   0  0  0  0  0  3  0  0  0  0  0  0
  184.2890  177.2690  137.6100 C   0  0  0  0  0  0  0  0  0  0  0  0
  184.1500  176.5210  136.3260 C   0  0  0  0  0  2  0  0  0  0  0  0
  185.1390  175.4590  136.2170 N   0  0  0  0  0  0  0  0  0  0  0  0
  184.9450  174.2550  137.0240 C   0  0  0  0  0  2  0  0  0  0  0  0
  187.3260  174.2970  137.3500 O   0  0  0  0  0  0  0  0  0  0  0  0
  186.2460  173.4310  137.1050 C   0  0  0  0  0  2  0  0  0  0  0  0
  186.5460  176.6040  134.7330 O   0  0  0  0  0  0  0  0  0  0  0  0
  186.4250  175.7380  135.6480 C   0  0  0  0  0  0  0  0  0  0  0  0
  187.6240  174.9470  136.1290 C   0  0  1  0  0  3  0  0  0  0  0  0
  188.7940  175.9100  136.3480 C   0  0  0  0  0  2  0  0  0  0  0  0
  190.0640  173.7940  136.2500 N   0  0  0  0  0  0  0  0  0  0  0  0
  192.1890  174.9080  135.0290 O   0  0  0  0  0  0  0  0  0  0  0  0
  192.4660  173.9080  135.8920 O   0  0  0  0  0  0  0  0  0  0  0  0
  190.1980  175.2650  136.4040 C   0  0  1  0  0  0  0  0  0  0  0  0
  190.8700  176.7500  134.5970 O   0  0  0  0  0  0  0  0  0  0  0  0
  189.5360  173.2530  137.3830 O   0  0  0  0  0  1  0  0  0  0  0  0
  191.3250  173.0690  135.9420 C   0  0  0  0  0  2  0  0  0  0  0  0
  191.1050  175.7330  135.3000 C   0  0  0  0  0  0  0  0  0  0  0  0
  190.8300  175.6050  137.7790 C   0  0  0  0  0  2  0  0  0  0  0  0
  189.9560  176.4020  138.7120 C   0  0  0  0  0  0  0  0  0  0  0  0
  189.7190  175.9900  139.8830 O   0  0  0  0  0  0  0  0  0  0  0  0
  188.8610  178.4920  139.0740 C   0  0  0  0  0  2  0  0  0  0  0  0
  189.4460  177.6600  138.2750 N   0  0  0  0  0  0  0  0  0  0  0  0
  1  3  1  0  0  0  0
  2  3  1  0  0  0  0
  2  5  1  0  0  0  0
  2  4  1  0  0  0  0
  3  6  1  0  0  0  0
  4  6  1  0  0  0  0
  5  4  1  0  0  0  0
  7  5  1  0  0  0  0
  7  8  1  0  0  0  0
  9  7  1  0  0  0  0
 10 11  1  0  0  0  0
 10  9  1  0  0  0  0
 12 18  1  0  0  0  0
 12 14  1  0  0  0  0
 13 10  1  0  0  0  0
 14 15  1  0  0  0  0
 14 13  2  0  0  0  0
 15 11  1  0  0  0  0
 16 18  1  0  0  0  0
 17 13  1  0  0  0  0
 18 17  2  0  0  0  0
 19 20  1  0  0  0  0
 19 12  1  0  0  0  0
 21  1  1  0  0  0  0
 21 22  1  0  0  0  0
 22 23  1  0  0  0  0
 23 24  1  0  0  0  0
 24 25  2  0  0  0  0
 25 26  1  0  0  0  0
 26 27  1  0  0  0  0
 27 28  1  0  0  0  0
 27 29  1  0  0  0  0
 28 29  1  0  0  0  0
 30 28  1  0  0  0  0
 31 30  1  0  0  0  0
 32 31  1  0  0  0  0
 33 34  1  0  0  0  0
 33 32  1  0  0  0  0
 35  1  1  0  0  0  0
 36 38  1  0  0  0  0
 37 39  1  0  0  0  0
 38 35  1  0  0  0  0
 39 38  2  0  0  0  0
 40 36  2  0  0  0  0
 41 37  2  0  0  0  0
 41 40  1  0  0  0  0
 42 41  1  0  0  0  0
 43 42  1  0  0  0  0
 43 44  1  0  0  0  0
 44 46  1  0  0  0  0
 46 45  1  0  0  0  0
 47 48  2  0  0  0  0
 48 49  1  0  0  0  0
 48 43  1  0  0  0  0
 49 50  1  0  0  0  0
 49 45  1  0  0  0  0
 50 54  1  0  0  0  0
 51 54  1  0  0  0  0
 51 56  1  0  0  0  0
 52 58  1  0  0  0  0
 52 53  1  0  0  0  0
 53 57  1  0  0  0  0
 54 59  1  0  0  0  0
 55 58  2  0  0  0  0
 57 51  1  0  0  0  0
 58 54  1  0  0  0  0
 59 60  1  0  0  0  0
 60 61  2  0  0  0  0
 63 60  1  0  0  0  0
 63 62  2  0  0  0  0
M  END
>  <MODEL>
5

>  <REMARK>
 VINA RESULT:      -4.8      2.920      5.665
  Name = 
  24 active torsions:
  status: ('A' for Active; 'I' for Inactive)
    1  A    between atoms: C_1  and  N_27
    2  A    between atoms: C_1  and  C_48
    3  A    between atoms: C_2  and  N_14
    4  A    between atoms: C_2  and  C_57
    5  A    between atoms: C_3  and  C_4
    6  A    between atoms: C_3  and  N_26
    7  A    between atoms: C_4  and  C_34
    8  A    between atoms: N_6  and  C_12
    9  A    between atoms: N_6  and  C_17
   10  A    between atoms: N_6  and  C_45
   11  A    between atoms: C_7  and  C_56
   12  A    between atoms: C_10  and  O_47
   13  A    between atoms: C_12  and  C_31
   14  A    between atoms: C_13  and  C_25
   15  A    between atoms: C_13  and  C_61
   16  A    between atoms: C_15  and  C_39
   17  A    between atoms: C_15  and  O_47
   18  A    between atoms: N_21  and  C_32
   19  A    between atoms: C_22  and  C_29
   20  A    between atoms: C_23  and  C_29
   21  A    between atoms: C_23  and  C_45
   22  A    between atoms: C_25  and  C_48
   23  A    between atoms: N_26  and  C_43
   24  A    between atoms: C_56  and  C_59
                            x       y       z     vdW  Elec       q    Type
                         _______ _______ _______ _____ _____    ______ ____

>  <TORSDO>
F 24

$$$$
=
 OpenBabel11042410523D

 63 70  0  0  1  0  0  0  0  0999 V2000
  185.8530  178.7560  143.9890 N   0  0  0  0  0  0  0  0  0  0  0  0
  187.7500  177.6990  145.3090 C   0  0  2  0  0  3  0  0  0  0  0  0
  186.8130  178.8880  145.0940 C   0  0  2  0  0  3  0  0  0  0  0  0
  187.0540  177.3830  146.6160 C   0  0  1  0  0  3  0  0  0  0  0  0
  188.4830  177.8940  146.6270 C   0  0  1  0  0  3  0  0  0  0  0  0
  186.1130  178.5580  146.3980 C   0  0  0  0  0  2  0  0  0  0  0  0
  189.4710  176.7680  146.9690 C   0  0  2  0  0  3  0  0  0  0  0  0
  188.8040  175.7940  147.7210 O   0  0  0  0  0  1  0  0  0  0  0  0
  190.6040  177.2170  147.6730 O   0  0  0  0  0  0  0  0  0  0  0  0
  191.7040  176.7700  146.9310 C   0  0  1  0  0  3  0  0  0  0  0  0
  191.5490  175.2660  146.6420 C   0  0  0  0  0  2  0  0  0  0  0  0
  191.2360  177.3970  143.4130 N   0  0  0  0  0  0  0  0  0  0  0  0
  191.7260  177.4390  145.6090 C   0  0  0  0  0  0  0  0  0  0  0  0
  191.6900  176.6820  144.5530 C   0  0  0  0  0  0  0  0  0  0  0  0
  191.6070  174.9320  144.8250 S   0  0  0  0  0  0  0  0  0  0  0  0
  190.6030  179.7490  143.2520 C   0  0  0  0  0  1  0  0  0  0  0  0
  191.3770  178.7910  145.3310 N   0  0  0  0  0  0  0  0  0  0  0  0
  191.1330  178.7310  143.9260 C   0  0  0  0  0  0  0  0  0  0  0  0
  191.5410  177.0060  142.0430 C   0  0  0  0  0  2  0  0  0  0  0  0
  190.6240  176.0610  141.5910 O   0  0  0  0  0  1  0  0  0  0  0  0
  186.4620  177.8620  143.0170 C   0  0  0  0  0  2  0  0  0  0  0  0
  186.6940  178.5990  141.7090 C   0  0  0  0  0  2  0  0  0  0  0  0
  188.1710  178.5660  141.3630 C   0  0  0  0  0  2  0  0  0  0  0  0
  188.4060  177.9670  140.0080 C   0  0  0  0  0  3  0  0  0  0  0  0
  189.2340  178.5210  139.1240 C   0  0  0  0  0  3  0  0  0  0  0  0
  189.4390  177.8540  137.8020 C   0  0  0  0  0  2  0  0  0  0  0  0
  190.0650  176.4850  137.9910 C   0  0  2  0  0  3  0  0  0  0  0  0
  191.4170  176.4850  137.3770 C   0  0  2  0  0  3  0  0  0  0  0  0
  190.3130  175.9000  136.7320 O   0  0  0  0  0  0  0  0  0  0  0  0
  192.3600  175.4220  137.9520 C   0  0  0  0  0  2  0  0  0  0  0  0
  193.7280  175.2930  137.2820 C   0  0  0  0  0  2  0  0  0  0  0  0
  194.5700  174.3770  138.0390 N   0  0  0  0  0  2  0  0  0  0  0  0
  195.8170  174.2590  137.3000 C   0  0  0  0  0  2  0  0  0  0  0  0
  195.5110  173.9670  135.8500 C   0  0  0  0  0  1  0  0  0  0  0  0
  184.5870  178.1240  144.3720 C   0  0  0  0  0  2  0  0  0  0  0  0
  182.3250  178.9510  143.6860 C   0  0  0  0  0  3  0  0  0  0  0  0
  182.8560  178.3580  140.9970 C   0  0  0  0  0  3  0  0  0  0  0  0
  183.5540  178.3780  143.3230 C   0  0  0  0  0  0  0  0  0  0  0  0
  183.8080  178.0730  141.9780 C   0  0  0  0  0  3  0  0  0  0  0  0
  181.3680  179.2360  142.7050 C   0  0  0  0  0  3  0  0  0  0  0  0
  181.6350  178.9430  141.3600 C   0  0  0  0  0  0  0  0  0  0  0  0
  180.6700  179.3470  140.2950 C   0  0  0  0  0  2  0  0  0  0  0  0
  180.2930  178.2180  139.4590 N   0  0  0  0  0  0  0  0  0  0  0  0
  179.4740  177.1640  140.0550 C   0  0  0  0  0  2  0  0  0  0  0  0
  180.8310  175.6330  138.7940 O   0  0  0  0  0  0  0  0  0  0  0  0
  179.5070  175.8860  139.1920 C   0  0  0  0  0  2  0  0  0  0  0  0
  181.4820  178.9250  137.5660 O   0  0  0  0  0  0  0  0  0  0  0  0
  181.0040  177.9650  138.2390 C   0  0  0  0  0  0  0  0  0  0  0  0
  181.1330  176.5380  137.7510 C   0  0  1  0  0  3  0  0  0  0  0  0
  182.5730  176.3040  137.2870 C   0  0  0  0  0  2  0  0  0  0  0  0
  182.6910  173.8470  137.0610 N   0  0  0  0  0  0  0  0  0  0  0  0
  181.6090  173.8330  134.5970 O   0  0  0  0  0  0  0  0  0  0  0  0
  182.5410  172.8870  134.8320 O   0  0  0  0  0  0  0  0  0  0  0  0
  182.7840  175.1240  136.3090 C   0  0  1  0  0  0  0  0  0  0  0  0
  180.9710  176.0210  134.9550 O   0  0  0  0  0  0  0  0  0  0  0  0
  183.8000  173.6820  137.8360 O   0  0  0  0  0  1  0  0  0  0  0  0
  182.5320  172.6280  136.2260 C   0  0  0  0  0  2  0  0  0  0  0  0
  181.7420  175.0640  135.2260 C   0  0  0  0  0  0  0  0  0  0  0  0
  184.1900  175.2720  135.6720 C   0  0  0  0  0  2  0  0  0  0  0  0
  185.0590  176.3500  136.2670 C   0  0  0  0  0  0  0  0  0  0  0  0
  184.7920  177.5710  136.0790 O   0  0  0  0  0  0  0  0  0  0  0  0
  186.8650  174.9140  136.8770 C   0  0  0  0  0  2  0  0  0  0  0  0
  186.1550  175.9730  137.0960 N   0  0  0  0  0  0  0  0  0  0  0  0
  1 35  1  0  0  0  0
  1  3  1  0  0  0  0
  2  4  1  0  0  0  0
  2  5  1  0  0  0  0
  3  2  1  0  0  0  0
  3  6  1  0  0  0  0
  4  5  1  0  0  0  0
  5  7  1  0  0  0  0
  6  4  1  0  0  0  0
  7  9  1  0  0  0  0
  7  8  1  0  0  0  0
 10  9  1  0  0  0  0
 11 10  1  0  0  0  0
 12 18  1  0  0  0  0
 12 14  1  0  0  0  0
 13 10  1  0  0  0  0
 14 15  1  0  0  0  0
 14 13  2  0  0  0  0
 15 11  1  0  0  0  0
 16 18  1  0  0  0  0
 17 13  1  0  0  0  0
 18 17  2  0  0  0  0
 19 12  1  0  0  0  0
 20 19  1  0  0  0  0
 21  1  1  0  0  0  0
 22 21  1  0  0  0  0
 23 22  1  0  0  0  0
 24 23  1  0  0  0  0
 25 24  2  0  0  0  0
 26 27  1  0  0  0  0
 26 25  1  0  0  0  0
 28 30  1  0  0  0  0
 28 27  1  0  0  0  0
 29 28  1  0  0  0  0
 29 27  1  0  0  0  0
 31 30  1  0  0  0  0
 31 32  1  0  0  0  0
 33 32  1  0  0  0  0
 34 33  1  0  0  0  0
 37 41  2  0  0  0  0
 37 39  1  0  0  0  0
 38 36  1  0  0  0  0
 38 35  1  0  0  0  0
 39 38  2  0  0  0  0
 40 36  2  0  0  0  0
 41 40  1  0  0  0  0
 42 41  1  0  0  0  0
 43 44  1  0  0  0  0
 43 42  1  0  0  0  0
 45 46  1  0  0  0  0
 46 44  1  0  0  0  0
 47 48  2  0  0  0  0
 48 43  1  0  0  0  0
 49 48  1  0  0  0  0
 49 45  1  0  0  0  0
 50 49  1  0  0  0  0
 51 56  1  0  0  0  0
 52 53  1  0  0  0  0
 52 58  1  0  0  0  0
 53 57  1  0  0  0  0
 54 51  1  0  0  0  0
 54 50  1  0  0  0  0
 55 58  2  0  0  0  0
 57 51  1  0  0  0  0
 58 54  1  0  0  0  0
 59 60  1  0  0  0  0
 59 54  1  0  0  0  0
 60 63  1  0  0  0  0
 61 60  2  0  0  0  0
 62 63  2  0  0  0  0
M  END
>  <MODEL>
6

>  <REMARK>
 VINA RESULT:      -4.8      2.960     10.455
  Name = 
  24 active torsions:
  status: ('A' for Active; 'I' for Inactive)
    1  A    between atoms: C_1  and  N_27
    2  A    between atoms: C_1  and  C_48
    3  A    between atoms: C_2  and  N_14
    4  A    between atoms: C_2  and  C_57
    5  A    between atoms: C_3  and  C_4
    6  A    between atoms: C_3  and  N_26
    7  A    between atoms: C_4  and  C_34
    8  A    between atoms: N_6  and  C_12
    9  A    between atoms: N_6  and  C_17
   10  A    between atoms: N_6  and  C_45
   11  A    between atoms: C_7  and  C_56
   12  A    between atoms: C_10  and  O_47
   13  A    between atoms: C_12  and  C_31
   14  A    between atoms: C_13  and  C_25
   15  A    between atoms: C_13  and  C_61
   16  A    between atoms: C_15  and  C_39
   17  A    between atoms: C_15  and  O_47
   18  A    between atoms: N_21  and  C_32
   19  A    between atoms: C_22  and  C_29
   20  A    between atoms: C_23  and  C_29
   21  A    between atoms: C_23  and  C_45
   22  A    between atoms: C_25  and  C_48
   23  A    between atoms: N_26  and  C_43
   24  A    between atoms: C_56  and  C_59
                            x       y       z     vdW  Elec       q    Type
                         _______ _______ _______ _____ _____    ______ ____

>  <TORSDO>
F 24

$$$$
=
 OpenBabel11042410523D

 63 70  0  0  1  0  0  0  0  0999 V2000
  184.6710  178.1600  139.8930 N   0  0  0  0  0  0  0  0  0  0  0  0
  182.3330  178.1720  138.8960 C   0  0  2  0  0  3  0  0  0  0  0  0
  183.7760  177.6710  138.8340 C   0  0  2  0  0  3  0  0  0  0  0  0
  181.8610  176.7770  139.2460 C   0  0  1  0  0  3  0  0  0  0  0  0
  181.5040  177.3780  137.8990 C   0  0  1  0  0  3  0  0  0  0  0  0
  183.2970  176.2790  139.1970 C   0  0  0  0  0  2  0  0  0  0  0  0
  180.0230  177.7850  137.8500 C   0  0  2  0  0  3  0  0  0  0  0  0
  179.2440  176.6360  137.6720 O   0  0  0  0  0  1  0  0  0  0  0  0
  179.7350  178.7150  136.8330 O   0  0  0  0  0  0  0  0  0  0  0  0
  178.9400  179.6950  137.4410 C   0  0  1  0  0  3  0  0  0  0  0  0
  179.2850  179.7780  138.9390 C   0  0  0  0  0  2  0  0  0  0  0  0
  180.3770  182.9740  137.0250 N   0  0  0  0  0  0  0  0  0  0  0  0
  179.2590  181.0260  136.8740 C   0  0  0  0  0  0  0  0  0  0  0  0
  179.6610  181.9480  137.6980 C   0  0  0  0  0  0  0  0  0  0  0  0
  179.7910  181.4930  139.4060 S   0  0  0  0  0  0  0  0  0  0  0  0
  180.8520  183.1760  134.6390 C   0  0  0  0  0  1  0  0  0  0  0  0
  179.5720  181.3230  135.5170 N   0  0  0  0  0  0  0  0  0  0  0  0
  180.2240  182.5860  135.6550 C   0  0  0  0  0  0  0  0  0  0  0  0
  180.5200  184.3280  137.5430 C   0  0  0  0  0  2  0  0  0  0  0  0
  181.4480  185.0420  136.7900 O   0  0  0  0  0  1  0  0  0  0  0  0
  185.8470  178.6940  139.2260 C   0  0  0  0  0  2  0  0  0  0  0  0
  186.1430  177.8860  137.9730 C   0  0  0  0  0  2  0  0  0  0  0  0
  187.4740  178.3230  137.3900 C   0  0  0  0  0  2  0  0  0  0  0  0
  188.2030  177.1750  136.7580 C   0  0  0  0  0  3  0  0  0  0  0  0
  188.3910  177.0950  135.4420 C   0  0  0  0  0  3  0  0  0  0  0  0
  189.1490  175.9330  134.8860 C   0  0  0  0  0  2  0  0  0  0  0  0
  190.2130  175.4760  135.8660 C   0  0  2  0  0  3  0  0  0  0  0  0
  190.4550  174.0230  135.6710 C   0  0  2  0  0  3  0  0  0  0  0  0
  189.6710  174.5070  136.7340 O   0  0  0  0  0  0  0  0  0  0  0  0
  191.8310  173.5540  136.1570 C   0  0  0  0  0  2  0  0  0  0  0  0
  192.3050  174.1120  137.5000 C   0  0  0  0  0  2  0  0  0  0  0  0
  193.5200  174.8910  137.3150 N   0  0  0  0  0  2  0  0  0  0  0  0
  194.6270  173.9490  137.3840 C   0  0  0  0  0  2  0  0  0  0  0  0
  195.3550  174.1310  138.6950 C   0  0  0  0  0  1  0  0  0  0  0  0
  184.1180  179.2710  140.6740 C   0  0  0  0  0  2  0  0  0  0  0  0
  183.2550  179.2600  143.0240 C   0  0  0  0  0  3  0  0  0  0  0  0
  185.6770  178.2170  143.9750 C   0  0  0  0  0  3  0  0  0  0  0  0
  184.3090  179.0120  142.1330 C   0  0  0  0  0  0  0  0  0  0  0  0
  185.5240  178.5010  142.6160 C   0  0  0  0  0  3  0  0  0  0  0  0
  183.4070  178.9770  144.3870 C   0  0  0  0  0  3  0  0  0  0  0  0
  184.6180  178.4520  144.8620 C   0  0  0  0  0  0  0  0  0  0  0  0
  184.7510  178.0410  146.2900 C   0  0  0  0  0  2  0  0  0  0  0  0
  186.1450  177.8610  146.6670 N   0  0  0  0  0  0  0  0  0  0  0  0
  186.6460  178.6030  147.8230 C   0  0  0  0  0  2  0  0  0  0  0  0
  188.6600  178.8980  146.5460 O   0  0  0  0  0  0  0  0  0  0  0  0
  188.1880  178.6200  147.8410 C   0  0  0  0  0  2  0  0  0  0  0  0
  186.6800  176.4230  144.8940 O   0  0  0  0  0  0  0  0  0  0  0  0
  187.0690  177.2910  145.7290 C   0  0  0  0  0  0  0  0  0  0  0  0
  188.5220  177.7110  145.7890 C   0  0  1  0  0  3  0  0  0  0  0  0
  189.0190  177.9670  144.3630 C   0  0  0  0  0  2  0  0  0  0  0  0
  191.0670  176.7690  145.0510 N   0  0  0  0  0  0  0  0  0  0  0  0
  190.7190  174.7730  143.2790 O   0  0  0  0  0  0  0  0  0  0  0  0
  191.9990  175.1160  143.5300 O   0  0  0  0  0  0  0  0  0  0  0  0
  190.1960  177.0820  143.8890 C   0  0  1  0  0  0  0  0  0  0  0  0
  188.5600  175.5270  142.9790 O   0  0  0  0  0  0  0  0  0  0  0  0
  191.7700  177.8770  145.4180 O   0  0  0  0  0  1  0  0  0  0  0  0
  192.0370  175.6630  144.8370 C   0  0  0  0  0  2  0  0  0  0  0  0
  189.7480  175.7650  143.3190 C   0  0  0  0  0  0  0  0  0  0  0  0
  190.9920  177.8720  142.8180 C   0  0  0  0  0  2  0  0  0  0  0  0
  190.5250  177.6860  141.3980 C   0  0  0  0  0  0  0  0  0  0  0  0
  189.3960  178.1140  141.0280 O   0  0  0  0  0  0  0  0  0  0  0  0
  191.2610  177.1990  139.1790 C   0  0  0  0  0  2  0  0  0  0  0  0
  191.4040  177.0700  140.4590 N   0  0  0  0  0  0  0  0  0  0  0  0
  1 35  1  0  0  0  0
  2  4  1  0  0  0  0
  3  2  1  0  0  0  0
  3  6  1  0  0  0  0
  3  1  1  0  0  0  0
  5  2  1  0  0  0  0
  5  4  1  0  0  0  0
  6  4  1  0  0  0  0
  7  5  1  0  0  0  0
  8  7  1  0  0  0  0
  9 10  1  0  0  0  0
  9  7  1  0  0  0  0
 10 11  1  0  0  0  0
 11 15  1  0  0  0  0
 12 19  1  0  0  0  0
 12 14  1  0  0  0  0
 13 10  1  0  0  0  0
 13 14  2  0  0  0  0
 14 15  1  0  0  0  0
 16 18  1  0  0  0  0
 17 18  2  0  0  0  0
 17 13  1  0  0  0  0
 18 12  1  0  0  0  0
 20 19  1  0  0  0  0
 21  1  1  0  0  0  0
 22 21  1  0  0  0  0
 23 22  1  0  0  0  0
 24 23  1  0  0  0  0
 25 24  2  0  0  0  0
 26 25  1  0  0  0  0
 26 27  1  0  0  0  0
 27 29  1  0  0  0  0
 28 27  1  0  0  0  0
 28 30  1  0  0  0  0
 28 29  1  0  0  0  0
 30 31  1  0  0  0  0
 32 33  1  0  0  0  0
 32 31  1  0  0  0  0
 33 34  1  0  0  0  0
 35 38  1  0  0  0  0
 36 40  1  0  0  0  0
 37 41  1  0  0  0  0
 38 39  1  0  0  0  0
 38 36  2  0  0  0  0
 39 37  2  0  0  0  0
 40 41  2  0  0  0  0
 41 42  1  0  0  0  0
 42 43  1  0  0  0  0
 43 44  1  0  0  0  0
 44 46  1  0  0  0  0
 45 46  1  0  0  0  0
 47 48  2  0  0  0  0
 48 49  1  0  0  0  0
 48 43  1  0  0  0  0
 49 45  1  0  0  0  0
 50 49  1  0  0  0  0
 51 56  1  0  0  0  0
 52 58  1  0  0  0  0
 52 53  1  0  0  0  0
 53 57  1  0  0  0  0
 54 50  1  0  0  0  0
 54 51  1  0  0  0  0
 55 58  2  0  0  0  0
 57 51  1  0  0  0  0
 58 54  1  0  0  0  0
 59 54  1  0  0  0  0
 60 59  1  0  0  0  0
 61 60  2  0  0  0  0
 62 63  2  0  0  0  0
 63 60  1  0  0  0  0
M  END
>  <MODEL>
7

>  <REMARK>
 VINA RESULT:      -4.5      3.556      8.696
  Name = 
  24 active torsions:
  status: ('A' for Active; 'I' for Inactive)
    1  A    between atoms: C_1  and  N_27
    2  A    between atoms: C_1  and  C_48
    3  A    between atoms: C_2  and  N_14
    4  A    between atoms: C_2  and  C_57
    5  A    between atoms: C_3  and  C_4
    6  A    between atoms: C_3  and  N_26
    7  A    between atoms: C_4  and  C_34
    8  A    between atoms: N_6  and  C_12
    9  A    between atoms: N_6  and  C_17
   10  A    between atoms: N_6  and  C_45
   11  A    between atoms: C_7  and  C_56
   12  A    between atoms: C_10  and  O_47
   13  A    between atoms: C_12  and  C_31
   14  A    between atoms: C_13  and  C_25
   15  A    between atoms: C_13  and  C_61
   16  A    between atoms: C_15  and  C_39
   17  A    between atoms: C_15  and  O_47
   18  A    between atoms: N_21  and  C_32
   19  A    between atoms: C_22  and  C_29
   20  A    between atoms: C_23  and  C_29
   21  A    between atoms: C_23  and  C_45
   22  A    between atoms: C_25  and  C_48
   23  A    between atoms: N_26  and  C_43
   24  A    between atoms: C_56  and  C_59
                            x       y       z     vdW  Elec       q    Type
                         _______ _______ _______ _____ _____    ______ ____

>  <TORSDO>
F 24

$$$$
