=
 OpenBabel11032420173D

 28 32  0  0  1  0  0  0  0  0999 V2000
  186.4250  177.7920  144.0550 C   0  0  0  0  0  0  0  0  0  0  0  0
  183.5670  177.4420  141.0270 O   0  0  0  0  0  0  0  0  0  0  0  0
  191.3640  177.1630  140.3210 O   0  0  0  0  0  1  0  0  0  0  0  0
  184.4450  179.7480  144.1470 C   0  0  0  0  0  3  0  0  0  0  0  0
  189.2480  178.0700  139.3060 C   0  0  0  0  0  0  0  0  0  0  0  0
  187.5440  176.9150  144.0210 C   0  0  0  0  0  2  0  0  0  0  0  0
  183.5410  179.7810  140.2250 O   0  0  0  0  0  0  0  0  0  0  0  0
  184.1710  178.4260  140.0650 S   0  0  0  0  0  0  0  0  0  0  0  0
  185.0900  177.3970  137.7120 C   0  0  0  0  0  0  0  0  0  0  0  0
  185.8780  178.5310  140.2960 N   0  0  2  0  0  0  0  0  0  0  0  0
  190.9330  176.7350  144.4310 O   0  0  0  0  0  0  0  0  0  0  0  0
  187.8570  177.7240  141.0850 C   0  0  0  0  0  0  0  0  0  0  0  0
  186.3140  177.6730  138.0650 N   0  0  0  0  0  0  0  0  0  0  0  0
  183.9600  177.8600  138.4550 N   0  0  0  0  0  2  0  0  0  0  0  0
  189.8210  176.7270  143.8430 C   0  0  0  0  0  0  0  0  0  0  0  0
  186.0370  178.4120  142.8500 C   0  0  0  0  0  0  0  0  0  0  0  0
  190.0210  177.5170  140.4120 C   0  0  1  0  0  3  0  0  0  0  0  0
  184.8620  176.5210  136.5350 C   0  0  0  0  0  1  0  0  0  0  0  0
  189.6920  176.2050  142.4490 C   0  0  0  0  0  2  0  0  0  0  0  0
  185.0400  179.4010  142.9330 C   0  0  0  0  0  3  0  0  0  0  0  0
  185.8470  178.1480  145.2790 C   0  0  0  0  0  3  0  0  0  0  0  0
  184.8470  179.1170  145.3230 C   0  0  0  0  0  3  0  0  0  0  0  0
  188.6890  177.3380  144.4310 N   0  0  0  0  0  2  0  0  0  0  0  0
  187.9980  178.1020  139.7110 C   0  0  0  0  0  0  0  0  0  0  0  0
  189.2440  177.2790  141.4770 C   0  0  0  0  0  0  0  0  0  0  0  0
  186.7450  178.5960  139.1240 C   0  0  2  0  0  3  0  0  0  0  0  0
  189.7530  178.4580  137.9610 C   0  0  0  0  0  1  0  0  0  0  0  0
  186.6040  178.1050  141.4750 C   0  0  1  0  0  3  0  0  0  0  0  0
  1 21  1  0  0  0  0
  4 22  1  0  0  0  0
  5 24  2  0  0  0  0
  5 17  1  0  0  0  0
  6  1  1  0  0  0  0
  6 23  1  0  0  0  0
  8  7  2  0  0  0  0
  8  2  2  0  0  0  0
  9 13  2  0  0  0  0
  9 14  1  0  0  0  0
 10  8  1  6  0  0  0
 10 28  1  0  0  0  0
 12 25  2  0  0  0  0
 14  8  1  0  0  0  0
 15 23  1  0  0  0  0
 15 11  2  0  0  0  0
 16 20  1  0  0  0  0
 16  1  2  0  0  0  0
 17  3  1  6  0  0  0
 17 25  1  0  0  0  0
 18  9  1  0  0  0  0
 19 15  1  0  0  0  0
 20  4  2  0  0  0  0
 21 22  2  0  0  0  0
 24 12  1  0  0  0  0
 25 19  1  0  0  0  0
 26 13  1  6  0  0  0
 26 24  1  0  0  0  0
 26 10  1  0  0  0  0
 27  5  1  0  0  0  0
 28 12  1  1  0  0  0
 28 16  1  0  0  0  0
M  END
>  <MODEL>
1

>  <REMARK>
 VINA RESULT:      -9.0      0.000      0.000
  Name = 
  0 active torsions:
  status: ('A' for Active; 'I' for Inactive)
                            x       y       z     vdW  Elec       q    Type
                         _______ _______ _______ _____ _____    ______ ____

>  <TORSDO>
F 0

$$$$
=
 OpenBabel11032420173D

 28 32  0  0  1  0  0  0  0  0999 V2000
  187.5720  177.6440  146.1530 C   0  0  0  0  0  0  0  0  0  0  0  0
  183.7100  177.8780  144.5750 O   0  0  0  0  0  0  0  0  0  0  0  0
  190.4500  177.0690  140.6640 O   0  0  0  0  0  1  0  0  0  0  0  0
  186.0530  179.7250  147.2070 C   0  0  0  0  0  3  0  0  0  0  0  0
  188.2300  178.2530  140.6940 C   0  0  0  0  0  0  0  0  0  0  0  0
  188.4660  176.6910  145.5910 C   0  0  0  0  0  2  0  0  0  0  0  0
  183.6420  180.2890  144.0330 O   0  0  0  0  0  0  0  0  0  0  0  0
  183.9850  178.9170  143.5250 S   0  0  0  0  0  0  0  0  0  0  0  0
  183.7360  178.1010  140.9340 C   0  0  0  0  0  0  0  0  0  0  0  0
  185.6370  178.8590  143.0300 N   0  0  2  0  0  0  0  0  0  0  0  0
  191.6800  176.1980  144.5360 O   0  0  0  0  0  0  0  0  0  0  0  0
  187.6530  177.8110  142.8600 C   0  0  0  0  0  0  0  0  0  0  0  0
  185.0210  178.2360  140.7640 N   0  0  0  0  0  0  0  0  0  0  0  0
  183.0700  178.5610  142.1130 N   0  0  0  0  0  2  0  0  0  0  0  0
  190.4330  176.3460  144.4660 C   0  0  0  0  0  0  0  0  0  0  0  0
  186.8050  178.4290  145.2690 C   0  0  0  0  0  0  0  0  0  0  0  0
  189.3140  177.5150  141.3330 C   0  0  0  0  0  0  0  0  0  0  0  0
  182.9440  177.3900  139.8980 C   0  0  0  0  0  1  0  0  0  0  0  0
  189.6870  176.0030  143.2180 C   0  0  0  0  0  2  0  0  0  0  0  0
  186.0560  179.4780  145.8330 C   0  0  0  0  0  3  0  0  0  0  0  0
  187.5910  177.8970  147.5290 C   0  0  0  0  0  3  0  0  0  0  0  0
  186.8200  178.9310  148.0580 C   0  0  0  0  0  3  0  0  0  0  0  0
  189.7210  176.9710  145.5160 N   0  0  0  0  0  2  0  0  0  0  0  0
  187.2670  178.3360  141.5840 C   0  0  1  0  0  3  0  0  0  0  0  0
  189.0150  177.2150  142.6040 C   0  0  0  0  0  0  0  0  0  0  0  0
  185.9530  178.9920  141.6120 C   0  0  2  0  0  3  0  0  0  0  0  0
  188.1870  178.7540  139.2940 C   0  0  0  0  0  1  0  0  0  0  0  0
  186.7230  178.2410  143.7640 C   0  0  1  0  0  3  0  0  0  0  0  0
  1 21  1  0  0  0  0
  3 17  1  0  0  0  0
  4 22  1  0  0  0  0
  5 17  2  0  0  0  0
  6  1  1  0  0  0  0
  8  7  2  0  0  0  0
  8  2  2  0  0  0  0
  9 14  1  0  0  0  0
 10  8  1  6  0  0  0
 10 28  1  0  0  0  0
 13  9  2  0  0  0  0
 14  8  1  0  0  0  0
 15 11  2  0  0  0  0
 15 23  1  0  0  0  0
 16 20  1  0  0  0  0
 16  1  2  0  0  0  0
 17 25  1  0  0  0  0
 18  9  1  0  0  0  0
 19 15  1  0  0  0  0
 20  4  2  0  0  0  0
 21 22  2  0  0  0  0
 23  6  1  0  0  0  0
 24  5  1  1  0  0  0
 24 26  1  0  0  0  0
 24 12  1  0  0  0  0
 25 12  2  0  0  0  0
 25 19  1  0  0  0  0
 26 13  1  6  0  0  0
 26 10  1  0  0  0  0
 27  5  1  0  0  0  0
 28 12  1  6  0  0  0
 28 16  1  0  0  0  0
M  END
>  <MODEL>
2

>  <REMARK>
 VINA RESULT:      -7.8      2.088      2.616
  Name = 
  0 active torsions:
  status: ('A' for Active; 'I' for Inactive)
                            x       y       z     vdW  Elec       q    Type
                         _______ _______ _______ _____ _____    ______ ____

>  <TORSDO>
F 0

$$$$
=
 OpenBabel11032420173D

 28 32  0  0  1  0  0  0  0  0999 V2000
  186.5460  177.9460  142.4010 C   0  0  0  0  0  0  0  0  0  0  0  0
  190.0410  175.6710  142.1390 O   0  0  0  0  0  0  0  0  0  0  0  0
  186.7510  178.6880  148.5770 O   0  0  0  0  0  1  0  0  0  0  0  0
  188.2900  178.7930  140.4030 C   0  0  0  0  0  3  0  0  0  0  0  0
  188.9300  178.3040  147.3790 C   0  0  0  0  0  0  0  0  0  0  0  0
  185.6480  177.6700  143.4680 C   0  0  0  0  0  2  0  0  0  0  0  0
  191.7070  177.4960  142.0910 O   0  0  0  0  0  0  0  0  0  0  0  0
  190.9230  176.5620  142.9680 S   0  0  0  0  0  0  0  0  0  0  0  0
  191.8100  175.5170  145.3250 C   0  0  0  0  0  0  0  0  0  0  0  0
  189.9850  177.4570  144.1050 N   0  0  2  0  0  0  0  0  0  0  0  0
  183.6480  179.1000  145.8440 O   0  0  0  0  0  0  0  0  0  0  0  0
  188.0870  177.8140  145.3140 C   0  0  0  0  0  0  0  0  0  0  0  0
  191.0850  176.3770  145.9830 N   0  0  0  0  0  0  0  0  0  0  0  0
  191.9900  175.5970  143.9100 N   0  0  0  0  0  2  0  0  0  0  0  0
  184.6180  178.4660  145.3550 C   0  0  0  0  0  0  0  0  0  0  0  0
  187.9200  178.0280  142.7010 C   0  0  0  0  0  0  0  0  0  0  0  0
  187.4770  178.4260  147.4190 C   0  0  1  0  0  3  0  0  0  0  0  0
  192.4180  174.3790  146.0600 C   0  0  0  0  0  1  0  0  0  0  0  0
  185.5020  177.6270  146.2190 C   0  0  0  0  0  2  0  0  0  0  0  0
  188.7740  178.4670  141.6720 C   0  0  0  0  0  3  0  0  0  0  0  0
  186.0500  178.2900  141.1380 C   0  0  0  0  0  3  0  0  0  0  0  0
  186.9260  178.7020  140.1340 C   0  0  0  0  0  3  0  0  0  0  0  0
  184.9830  178.6370  143.9990 N   0  0  0  0  0  2  0  0  0  0  0  0
  189.2300  177.8790  146.1730 C   0  0  0  0  0  0  0  0  0  0  0  0
  186.9320  178.1310  146.2320 C   0  0  0  0  0  0  0  0  0  0  0  0
  190.4910  177.6170  145.4650 C   0  0  2  0  0  3  0  0  0  0  0  0
  189.8830  178.5440  148.4970 C   0  0  0  0  0  1  0  0  0  0  0  0
  188.5550  177.6860  144.0370 C   0  0  1  0  0  3  0  0  0  0  0  0
  1 16  1  0  0  0  0
  1  6  1  0  0  0  0
  2  8  2  0  0  0  0
  4 20  1  0  0  0  0
  5 17  1  0  0  0  0
  5 27  1  0  0  0  0
  6 23  1  0  0  0  0
  7  8  2  0  0  0  0
  8 14  1  0  0  0  0
  9 13  2  0  0  0  0
  9 18  1  0  0  0  0
 10  8  1  1  0  0  0
 10 26  1  0  0  0  0
 12 24  1  0  0  0  0
 12 25  2  0  0  0  0
 14  9  1  0  0  0  0
 15 11  2  0  0  0  0
 15 19  1  0  0  0  0
 17  3  1  1  0  0  0
 19 25  1  0  0  0  0
 20 16  2  0  0  0  0
 21  1  2  0  0  0  0
 22  4  2  0  0  0  0
 22 21  1  0  0  0  0
 23 15  1  0  0  0  0
 24  5  2  0  0  0  0
 25 17  1  0  0  0  0
 26 13  1  1  0  0  0
 26 24  1  0  0  0  0
 28 16  1  6  0  0  0
 28 10  1  0  0  0  0
 28 12  1  0  0  0  0
M  END
>  <MODEL>
3

>  <REMARK>
 VINA RESULT:      -7.7      3.197      7.035
  Name = 
  0 active torsions:
  status: ('A' for Active; 'I' for Inactive)
                            x       y       z     vdW  Elec       q    Type
                         _______ _______ _______ _____ _____    ______ ____

>  <TORSDO>
F 0

$$$$
=
 OpenBabel11032420173D

 28 32  0  0  1  0  0  0  0  0999 V2000
  184.8480  179.2000  142.5630 C   0  0  0  0  0  0  0  0  0  0  0  0
  185.7810  179.7770  146.5950 O   0  0  0  0  0  0  0  0  0  0  0  0
  190.2220  176.4350  141.0740 O   0  0  0  0  0  1  0  0  0  0  0  0
  182.8210  178.4250  144.3070 C   0  0  0  0  0  3  0  0  0  0  0  0
  189.4480  176.2610  143.4610 C   0  0  0  0  0  0  0  0  0  0  0  0
  185.8650  179.4500  141.6000 C   0  0  0  0  0  2  0  0  0  0  0  0
  185.1440  177.5570  147.4780 O   0  0  0  0  0  0  0  0  0  0  0  0
  186.2560  178.3830  146.8930 S   0  0  0  0  0  0  0  0  0  0  0  0
  188.8960  178.1210  147.5250 C   0  0  0  0  0  0  0  0  0  0  0  0
  186.8700  177.6310  145.4670 N   0  0  2  0  0  0  0  0  0  0  0  0
  187.3170  178.2720  138.7390 O   0  0  0  0  0  0  0  0  0  0  0  0
  187.6870  177.7100  143.3410 C   0  0  0  0  0  0  0  0  0  0  0  0
  189.1010  177.4710  146.4140 N   0  0  0  0  0  0  0  0  0  0  0  0
  187.5830  178.4490  147.9850 N   0  0  0  0  0  2  0  0  0  0  0  0
  187.1960  178.5730  139.9540 C   0  0  0  0  0  0  0  0  0  0  0  0
  185.1980  178.4650  143.7140 C   0  0  0  0  0  0  0  0  0  0  0  0
  189.3230  176.7420  142.0900 C   0  0  0  0  0  0  0  0  0  0  0  0
  190.0660  178.5920  148.3090 C   0  0  0  0  0  1  0  0  0  0  0  0
  188.3880  178.6330  140.8530 C   0  0  0  0  0  2  0  0  0  0  0  0
  184.1490  178.0820  144.5700 C   0  0  0  0  0  3  0  0  0  0  0  0
  183.5180  179.5310  142.2820 C   0  0  0  0  0  3  0  0  0  0  0  0
  182.5050  179.1550  143.1620 C   0  0  0  0  0  3  0  0  0  0  0  0
  185.9170  178.7270  140.5360 N   0  0  0  0  0  2  0  0  0  0  0  0
  188.5360  176.8980  144.1600 C   0  0  1  0  0  3  0  0  0  0  0  0
  188.3110  177.6120  141.9710 C   0  0  0  0  0  0  0  0  0  0  0  0
  188.0900  176.8360  145.5580 C   0  0  2  0  0  3  0  0  0  0  0  0
  190.4500  175.2940  143.9860 C   0  0  0  0  0  1  0  0  0  0  0  0
  186.6050  178.0490  144.1040 C   0  0  1  0  0  3  0  0  0  0  0  0
  1 16  1  0  0  0  0
  2  8  2  0  0  0  0
  3 17  1  0  0  0  0
  4 20  1  0  0  0  0
  5 27  1  0  0  0  0
  5 24  1  0  0  0  0
  6  1  1  0  0  0  0
  8  7  2  0  0  0  0
  8 14  1  0  0  0  0
  9 14  1  0  0  0  0
  9 18  1  0  0  0  0
 10 26  1  0  0  0  0
 10  8  1  1  0  0  0
 11 15  2  0  0  0  0
 13  9  2  0  0  0  0
 15 23  1  0  0  0  0
 15 19  1  0  0  0  0
 16 28  1  0  0  0  0
 16 20  2  0  0  0  0
 17  5  2  0  0  0  0
 19 25  1  0  0  0  0
 21  1  2  0  0  0  0
 21 22  1  0  0  0  0
 22  4  2  0  0  0  0
 23  6  1  0  0  0  0
 24 12  1  6  0  0  0
 24 26  1  0  0  0  0
 25 17  1  0  0  0  0
 25 12  2  0  0  0  0
 26 13  1  1  0  0  0
 28 12  1  6  0  0  0
 28 10  1  0  0  0  0
M  END
>  <MODEL>
4

>  <REMARK>
 VINA RESULT:      -7.5      2.973      5.875
  Name = 
  0 active torsions:
  status: ('A' for Active; 'I' for Inactive)
                            x       y       z     vdW  Elec       q    Type
                         _______ _______ _______ _____ _____    ______ ____

>  <TORSDO>
F 0

$$$$
=
 OpenBabel11032420173D

 28 32  0  0  1  0  0  0  0  0999 V2000
  186.1400  178.5920  142.3740 C   0  0  0  0  0  0  0  0  0  0  0  0
  190.2170  178.6710  143.2880 O   0  0  0  0  0  0  0  0  0  0  0  0
  186.8800  177.1470  136.3660 O   0  0  0  0  0  1  0  0  0  0  0  0
  186.8010  177.1850  144.6840 C   0  0  0  0  0  3  0  0  0  0  0  0
  188.6950  176.4480  137.9610 C   0  0  0  0  0  0  0  0  0  0  0  0
  185.7200  179.1780  141.1490 C   0  0  0  0  0  2  0  0  0  0  0  0
  190.5880  176.2590  143.6820 O   0  0  0  0  0  0  0  0  0  0  0  0
  190.5890  177.3590  142.6580 S   0  0  0  0  0  0  0  0  0  0  0  0
  192.2610  177.4910  140.5070 C   0  0  0  0  0  0  0  0  0  0  0  0
  189.5090  176.9750  141.3690 N   0  0  2  0  0  0  0  0  0  0  0  0
  183.6690  178.7680  138.4450 O   0  0  0  0  0  0  0  0  0  0  0  0
  187.9420  177.5470  139.8170 C   0  0  0  0  0  0  0  0  0  0  0  0
  191.3000  177.0790  139.7300 N   0  0  0  0  0  0  0  0  0  0  0  0
  192.1430  177.4920  141.9320 N   0  0  0  0  0  2  0  0  0  0  0  0
  184.7360  178.8410  139.1060 C   0  0  0  0  0  0  0  0  0  0  0  0
  187.2760  177.7580  142.3490 C   0  0  0  0  0  0  0  0  0  0  0  0
  187.4390  177.1140  137.6400 C   0  0  0  0  0  0  0  0  0  0  0  0
  193.4980  178.0370  139.8920 C   0  0  0  0  0  1  0  0  0  0  0  0
  186.0570  178.9740  138.4220 C   0  0  0  0  0  2  0  0  0  0  0  0
  187.5770  177.0550  143.5300 C   0  0  0  0  0  3  0  0  0  0  0  0
  185.3460  178.7130  143.5200 C   0  0  0  0  0  3  0  0  0  0  0  0
  185.6840  178.0190  144.6800 C   0  0  0  0  0  3  0  0  0  0  0  0
  184.7290  178.6600  140.5090 N   0  0  0  0  0  2  0  0  0  0  0  0
  188.9840  176.7840  139.1980 C   0  0  1  0  0  3  0  0  0  0  0  0
  186.9630  177.7890  138.6950 C   0  0  0  0  0  0  0  0  0  0  0  0
  190.0530  176.4150  140.1360 C   0  0  2  0  0  3  0  0  0  0  0  0
  189.5270  175.6100  137.0550 C   0  0  0  0  0  1  0  0  0  0  0  0
  188.1960  177.5520  141.1600 C   0  0  1  0  0  3  0  0  0  0  0  0
  1 21  1  0  0  0  0
  3 17  1  0  0  0  0
  6  1  1  0  0  0  0
  8  2  2  0  0  0  0
  8  7  2  0  0  0  0
  9 14  1  0  0  0  0
 10  8  1  6  0  0  0
 11 15  2  0  0  0  0
 13  9  2  0  0  0  0
 14  8  1  0  0  0  0
 15 23  1  0  0  0  0
 16  1  2  0  0  0  0
 16 20  1  0  0  0  0
 17  5  2  0  0  0  0
 17 25  1  0  0  0  0
 18  9  1  0  0  0  0
 19 25  1  0  0  0  0
 19 15  1  0  0  0  0
 20  4  2  0  0  0  0
 21 22  2  0  0  0  0
 22  4  1  0  0  0  0
 23  6  1  0  0  0  0
 24  5  1  1  0  0  0
 24 12  1  0  0  0  0
 24 26  1  0  0  0  0
 25 12  2  0  0  0  0
 26 13  1  6  0  0  0
 26 10  1  0  0  0  0
 27  5  1  0  0  0  0
 28 12  1  6  0  0  0
 28 10  1  0  0  0  0
 28 16  1  0  0  0  0
M  END
>  <MODEL>
5

>  <REMARK>
 VINA RESULT:      -7.4      2.688      5.396
  Name = 
  0 active torsions:
  status: ('A' for Active; 'I' for Inactive)
                            x       y       z     vdW  Elec       q    Type
                         _______ _______ _______ _____ _____    ______ ____

>  <TORSDO>
F 0

$$$$
=
 OpenBabel11032420173D

 28 32  0  0  1  0  0  0  0  0999 V2000
  184.4240  178.3270  141.3880 C   0  0  0  0  0  0  0  0  0  0  0  0
  186.2940  176.8080  137.9740 O   0  0  0  0  0  0  0  0  0  0  0  0
  189.4430  177.9750  145.0510 O   0  0  0  0  0  1  0  0  0  0  0  0
  183.9470  179.8210  139.0870 C   0  0  0  0  0  3  0  0  0  0  0  0
  189.8250  178.2130  142.5760 C   0  0  0  0  0  0  0  0  0  0  0  0
  184.7060  177.7060  142.6350 C   0  0  0  0  0  2  0  0  0  0  0  0
  187.3360  178.8840  137.1270 O   0  0  0  0  0  0  0  0  0  0  0  0
  187.5170  177.6800  138.0090 S   0  0  0  0  0  0  0  0  0  0  0  0
  189.8880  176.4080  138.4510 C   0  0  0  0  0  0  0  0  0  0  0  0
  187.8660  178.1720  139.6250 N   0  0  2  0  0  0  0  0  0  0  0  0
  185.3950  178.3000  145.9310 O   0  0  0  0  0  0  0  0  0  0  0  0
  187.6640  177.9560  141.8850 C   0  0  0  0  0  0  0  0  0  0  0  0
  189.9890  176.9910  139.6120 N   0  0  0  0  0  0  0  0  0  0  0  0
  188.8850  176.7720  137.5000 N   0  0  0  0  0  2  0  0  0  0  0  0
  185.5850  177.9500  144.7370 C   0  0  0  0  0  0  0  0  0  0  0  0
  185.5070  178.6010  140.5290 C   0  0  0  0  0  0  0  0  0  0  0  0
  188.9680  178.0600  143.7460 C   0  0  1  0  0  3  0  0  0  0  0  0
  190.8060  175.2860  138.1280 C   0  0  0  0  0  1  0  0  0  0  0  0
  186.7840  177.1440  144.3550 C   0  0  0  0  0  2  0  0  0  0  0  0
  185.2340  179.3650  139.3790 C   0  0  0  0  0  3  0  0  0  0  0  0
  183.1340  178.7960  141.1120 C   0  0  0  0  0  3  0  0  0  0  0  0
  182.8930  179.5330  139.9530 C   0  0  0  0  0  3  0  0  0  0  0  0
  184.7460  178.4250  143.7030 N   0  0  0  0  0  2  0  0  0  0  0  0
  189.0460  178.0720  141.5280 C   0  0  0  0  0  0  0  0  0  0  0  0
  187.6880  177.8890  143.3920 C   0  0  0  0  0  0  0  0  0  0  0  0
  189.2530  178.1750  140.0770 C   0  0  2  0  0  3  0  0  0  0  0  0
  191.3000  178.4170  142.5620 C   0  0  0  0  0  1  0  0  0  0  0  0
  186.9400  178.1460  140.7410 C   0  0  1  0  0  3  0  0  0  0  0  0
  1  6  1  0  0  0  0
  2  8  2  0  0  0  0
  4 20  2  0  0  0  0
  4 22  1  0  0  0  0
  5 17  1  0  0  0  0
  6 23  1  0  0  0  0
  7  8  2  0  0  0  0
  9 13  2  0  0  0  0
 10  8  1  6  0  0  0
 10 26  1  0  0  0  0
 10 28  1  0  0  0  0
 12 25  2  0  0  0  0
 14  8  1  0  0  0  0
 14  9  1  0  0  0  0
 15 11  2  0  0  0  0
 16  1  2  0  0  0  0
 17  3  1  6  0  0  0
 18  9  1  0  0  0  0
 19 15  1  0  0  0  0
 20 16  1  0  0  0  0
 21  1  1  0  0  0  0
 22 21  2  0  0  0  0
 23 15  1  0  0  0  0
 24 12  1  0  0  0  0
 24  5  2  0  0  0  0
 25 17  1  0  0  0  0
 25 19  1  0  0  0  0
 26 13  1  6  0  0  0
 26 24  1  0  0  0  0
 27  5  1  0  0  0  0
 28 16  1  1  0  0  0
 28 12  1  0  0  0  0
M  END
>  <MODEL>
6

>  <REMARK>
 VINA RESULT:      -7.4      2.703      4.109
  Name = 
  0 active torsions:
  status: ('A' for Active; 'I' for Inactive)
                            x       y       z     vdW  Elec       q    Type
                         _______ _______ _______ _____ _____    ______ ____

>  <TORSDO>
F 0

$$$$
=
 OpenBabel11032420173D

 28 32  0  0  1  0  0  0  0  0999 V2000
  185.0890  177.3170  136.9410 C   0  0  0  0  0  0  0  0  0  0  0  0
  188.7480  176.3620  138.7180 O   0  0  0  0  0  0  0  0  0  0  0  0
  182.1990  178.8230  142.2440 O   0  0  0  0  0  1  0  0  0  0  0  0
  187.2860  178.4630  135.6720 C   0  0  0  0  0  3  0  0  0  0  0  0
  184.7020  179.0670  142.1740 C   0  0  0  0  0  0  0  0  0  0  0  0
  183.8990  176.8810  137.5870 C   0  0  0  0  0  2  0  0  0  0  0  0
  189.7250  178.6280  138.8710 O   0  0  0  0  0  0  0  0  0  0  0  0
  188.8860  177.5940  139.5670 S   0  0  0  0  0  0  0  0  0  0  0  0
  188.8030  177.2080  142.2660 C   0  0  0  0  0  0  0  0  0  0  0  0
  187.3360  178.2440  139.9520 N   0  0  2  0  0  0  0  0  0  0  0  0
  180.7360  177.8150  138.4880 O   0  0  0  0  0  0  0  0  0  0  0  0
  185.0720  178.0720  140.1520 C   0  0  0  0  0  0  0  0  0  0  0  0
  187.6650  177.8410  142.3250 N   0  0  0  0  0  0  0  0  0  0  0  0
  189.5950  177.1740  141.0760 N   0  0  0  0  0  2  0  0  0  0  0  0
  181.9460  177.4970  138.6170 C   0  0  0  0  0  0  0  0  0  0  0  0
  186.0950  177.9000  137.7380 C   0  0  0  0  0  0  0  0  0  0  0  0
  183.4210  178.6880  141.5910 C   0  0  1  0  0  3  0  0  0  0  0  0
  189.2640  176.4450  143.4540 C   0  0  0  0  0  1  0  0  0  0  0  0
  182.5050  177.1220  139.9510 C   0  0  0  0  0  2  0  0  0  0  0  0
  187.1870  178.4770  137.0650 C   0  0  0  0  0  3  0  0  0  0  0  0
  185.1700  177.3160  135.5440 C   0  0  0  0  0  3  0  0  0  0  0  0
  186.2770  177.8780  134.9100 C   0  0  0  0  0  3  0  0  0  0  0  0
  182.8450  177.6180  137.5310 N   0  0  0  0  0  2  0  0  0  0  0  0
  185.6260  178.6280  141.3500 C   0  0  0  0  0  0  0  0  0  0  0  0
  183.5850  178.0830  140.4070 C   0  0  0  0  0  0  0  0  0  0  0  0
  187.0910  178.7300  141.3060 C   0  0  2  0  0  3  0  0  0  0  0  0
  184.9300  179.7510  143.4760 C   0  0  0  0  0  1  0  0  0  0  0  0
  186.0970  177.9600  139.2550 C   0  0  1  0  0  3  0  0  0  0  0  0
  1  6  1  0  0  0  0
  1 16  1  0  0  0  0
  2  8  2  0  0  0  0
  4 20  1  0  0  0  0
  5 27  1  0  0  0  0
  7  8  2  0  0  0  0
  8 14  1  0  0  0  0
  9 13  2  0  0  0  0
  9 18  1  0  0  0  0
 10  8  1  1  0  0  0
 10 26  1  0  0  0  0
 11 15  2  0  0  0  0
 12 25  2  0  0  0  0
 12 24  1  0  0  0  0
 14  9  1  0  0  0  0
 15 19  1  0  0  0  0
 17  5  1  0  0  0  0
 17  3  1  1  0  0  0
 19 25  1  0  0  0  0
 20 16  2  0  0  0  0
 21  1  2  0  0  0  0
 22 21  1  0  0  0  0
 22  4  2  0  0  0  0
 23  6  1  0  0  0  0
 23 15  1  0  0  0  0
 24  5  2  0  0  0  0
 25 17  1  0  0  0  0
 26 24  1  1  0  0  0
 26 13  1  0  0  0  0
 28 16  1  6  0  0  0
 28 10  1  0  0  0  0
 28 12  1  0  0  0  0
M  END
>  <MODEL>
7

>  <REMARK>
 VINA RESULT:      -7.0      2.357      7.017
  Name = 
  0 active torsions:
  status: ('A' for Active; 'I' for Inactive)
                            x       y       z     vdW  Elec       q    Type
                         _______ _______ _______ _____ _____    ______ ____

>  <TORSDO>
F 0

$$$$
=
 OpenBabel11032420173D

 28 32  0  0  1  0  0  0  0  0999 V2000
  191.1070  175.9160  138.3490 C   0  0  0  0  0  0  0  0  0  0  0  0
  190.6880  176.0990  142.5020 O   0  0  0  0  0  0  0  0  0  0  0  0
  185.2790  177.6830  137.0610 O   0  0  0  0  0  1  0  0  0  0  0  0
  193.1800  177.2640  139.6290 C   0  0  0  0  0  3  0  0  0  0  0  0
  186.2670  178.4410  139.2460 C   0  0  0  0  0  0  0  0  0  0  0  0
  190.0390  175.3570  137.5940 C   0  0  0  0  0  2  0  0  0  0  0  0
  191.1040  178.5110  142.8440 O   0  0  0  0  0  0  0  0  0  0  0  0
  190.0610  177.4620  142.5810 S   0  0  0  0  0  0  0  0  0  0  0  0
  187.4900  177.5520  143.4880 C   0  0  0  0  0  0  0  0  0  0  0  0
  189.2040  177.8220  141.1280 N   0  0  2  0  0  0  0  0  0  0  0  0
  188.1480  175.7360  134.7710 O   0  0  0  0  0  0  0  0  0  0  0  0
  188.1880  177.2070  139.1840 C   0  0  0  0  0  0  0  0  0  0  0  0
  187.0830  177.9260  142.3080 N   0  0  0  0  0  0  0  0  0  0  0  0
  188.8770  177.4780  143.8280 N   0  0  0  0  0  2  0  0  0  0  0  0
  188.4360  175.7120  135.9960 C   0  0  0  0  0  0  0  0  0  0  0  0
  190.7820  176.8330  139.3690 C   0  0  0  0  0  0  0  0  0  0  0  0
  186.3130  177.6990  137.9920 C   0  0  0  0  0  0  0  0  0  0  0  0
  186.4840  177.1270  144.4950 C   0  0  0  0  0  1  0  0  0  0  0  0
  187.3640  175.7080  137.0370 C   0  0  0  0  0  2  0  0  0  0  0  0
  191.8530  177.5030  139.9900 C   0  0  0  0  0  3  0  0  0  0  0  0
  192.4330  175.6850  137.9670 C   0  0  0  0  0  3  0  0  0  0  0  0
  193.4720  176.3500  138.6170 C   0  0  0  0  0  3  0  0  0  0  0  0
  189.7780  175.8290  136.4250 N   0  0  0  0  0  2  0  0  0  0  0  0
  187.3260  178.0720  139.9310 C   0  0  1  0  0  3  0  0  0  0  0  0
  187.4170  176.9440  137.9140 C   0  0  0  0  0  0  0  0  0  0  0  0
  187.9030  178.4760  141.2200 C   0  0  2  0  0  3  0  0  0  0  0  0
  185.2030  179.3780  139.6990 C   0  0  0  0  0  1  0  0  0  0  0  0
  189.3800  177.1600  139.8510 C   0  0  1  0  0  3  0  0  0  0  0  0
  1 16  1  0  0  0  0
  2  8  2  0  0  0  0
  3 17  1  0  0  0  0
  4 20  1  0  0  0  0
  5 27  1  0  0  0  0
  5 24  1  0  0  0  0
  6  1  1  0  0  0  0
  8  7  2  0  0  0  0
  8 14  1  0  0  0  0
  9 14  1  0  0  0  0
  9 18  1  0  0  0  0
 10 26  1  0  0  0  0
 10  8  1  1  0  0  0
 11 15  2  0  0  0  0
 13  9  2  0  0  0  0
 15 23  1  0  0  0  0
 15 19  1  0  0  0  0
 16 28  1  0  0  0  0
 16 20  2  0  0  0  0
 17  5  2  0  0  0  0
 19 25  1  0  0  0  0
 21  1  2  0  0  0  0
 21 22  1  0  0  0  0
 22  4  2  0  0  0  0
 23  6  1  0  0  0  0
 24 12  1  6  0  0  0
 24 26  1  0  0  0  0
 25 17  1  0  0  0  0
 25 12  2  0  0  0  0
 26 13  1  1  0  0  0
 28 12  1  6  0  0  0
 28 10  1  0  0  0  0
M  END
>  <MODEL>
8

>  <REMARK>
 VINA RESULT:      -7.0      2.978      6.804
  Name = 
  0 active torsions:
  status: ('A' for Active; 'I' for Inactive)
                            x       y       z     vdW  Elec       q    Type
                         _______ _______ _______ _____ _____    ______ ____

>  <TORSDO>
F 0

$$$$
=
 OpenBabel11032420173D

 28 32  0  0  1  0  0  0  0  0999 V2000
  184.5880  178.9100  139.8430 C   0  0  0  0  0  0  0  0  0  0  0  0
  183.4090  180.1690  143.6490 O   0  0  0  0  0  0  0  0  0  0  0  0
  190.2030  176.8640  141.5800 O   0  0  0  0  0  1  0  0  0  0  0  0
  182.0350  178.0650  140.5650 C   0  0  0  0  0  3  0  0  0  0  0  0
  188.3880  176.8920  143.3210 C   0  0  0  0  0  0  0  0  0  0  0  0
  185.9210  179.1870  139.4320 C   0  0  0  0  0  2  0  0  0  0  0  0
  182.5950  178.0170  144.5510 O   0  0  0  0  0  0  0  0  0  0  0  0
  183.7840  178.9220  144.3990 S   0  0  0  0  0  0  0  0  0  0  0  0
  185.8010  179.1730  146.2170 C   0  0  0  0  0  0  0  0  0  0  0  0
  185.0660  178.0920  143.5960 N   0  0  2  0  0  0  0  0  0  0  0  0
  188.6600  177.8790  137.8580 O   0  0  0  0  0  0  0  0  0  0  0  0
  186.8000  178.0120  142.1200 C   0  0  0  0  0  0  0  0  0  0  0  0
  186.5660  178.4200  145.4780 N   0  0  0  0  0  0  0  0  0  0  0  0
  184.4080  179.3460  145.9440 N   0  0  0  0  0  2  0  0  0  0  0  0
  187.9440  178.3190  138.7950 C   0  0  0  0  0  0  0  0  0  0  0  0
  184.3920  178.4030  141.1440 C   0  0  0  0  0  0  0  0  0  0  0  0
  188.9050  177.1580  141.9840 C   0  0  0  0  0  0  0  0  0  0  0  0
  186.4070  179.9270  147.3450 C   0  0  0  0  0  1  0  0  0  0  0  0
  188.5440  178.6900  140.1120 C   0  0  0  0  0  2  0  0  0  0  0  0
  183.0920  177.9770  141.4730 C   0  0  0  0  0  3  0  0  0  0  0  0
  183.5390  178.9840  138.9200 C   0  0  0  0  0  3  0  0  0  0  0  0
  182.2580  178.5730  139.2870 C   0  0  0  0  0  3  0  0  0  0  0  0
  186.5350  178.3440  138.6760 N   0  0  0  0  0  2  0  0  0  0  0  0
  187.2060  177.4650  143.3790 C   0  0  1  0  0  3  0  0  0  0  0  0
  188.0140  177.8310  141.2420 C   0  0  0  0  0  0  0  0  0  0  0  0
  186.1460  177.5220  144.3940 C   0  0  2  0  0  3  0  0  0  0  0  0
  189.0800  176.1780  144.4280 C   0  0  0  0  0  1  0  0  0  0  0  0
  185.4620  178.2740  142.2130 C   0  0  1  0  0  3  0  0  0  0  0  0
  1 16  1  0  0  0  0
  2  8  2  0  0  0  0
  3 17  1  0  0  0  0
  4 20  1  0  0  0  0
  5 24  1  0  0  0  0
  5 27  1  0  0  0  0
  6  1  1  0  0  0  0
  8  7  2  0  0  0  0
  8 14  1  0  0  0  0
  9 18  1  0  0  0  0
 10 26  1  0  0  0  0
 10  8  1  1  0  0  0
 11 15  2  0  0  0  0
 12 28  1  0  0  0  0
 13  9  2  0  0  0  0
 14  9  1  0  0  0  0
 15 19  1  0  0  0  0
 16 20  2  0  0  0  0
 17  5  2  0  0  0  0
 19 25  1  0  0  0  0
 21 22  1  0  0  0  0
 21  1  2  0  0  0  0
 22  4  2  0  0  0  0
 23 15  1  0  0  0  0
 23  6  1  0  0  0  0
 24 12  1  6  0  0  0
 24 26  1  0  0  0  0
 25 17  1  0  0  0  0
 25 12  2  0  0  0  0
 26 13  1  1  0  0  0
 28 16  1  6  0  0  0
 28 10  1  0  0  0  0
M  END
>  <MODEL>
9

>  <REMARK>
 VINA RESULT:      -6.8      2.501      5.413
  Name = 
  0 active torsions:
  status: ('A' for Active; 'I' for Inactive)
                            x       y       z     vdW  Elec       q    Type
                         _______ _______ _______ _____ _____    ______ ____

>  <TORSDO>
F 0

$$$$
