=
 OpenBabel11032420203D

 32 35  0  0  1  0  0  0  0  0999 V2000
  187.8230  177.0120  144.0620 N   0  0  0  0  0  0  0  0  0  0  0  0
  189.3430  177.9110  148.2300 C   0  0  0  0  0  3  0  0  0  0  0  0
  190.1770  176.3750  144.0830 C   0  0  0  0  0  0  0  0  0  0  0  0
  191.2560  176.3110  144.7290 O   0  0  0  0  0  0  0  0  0  0  0  0
  187.0800  178.2520  147.3540 C   0  0  0  0  0  3  0  0  0  0  0  0
  186.9230  177.5450  144.9240 C   0  0  0  0  0  0  0  0  0  0  0  0
  189.7750  177.4100  146.9880 C   0  0  0  0  0  3  0  0  0  0  0  0
  187.5430  177.7560  146.1370 C   0  0  0  0  0  0  0  0  0  0  0  0
  188.0050  178.3270  148.4120 C   0  0  0  0  0  3  0  0  0  0  0  0
  188.8370  177.3480  145.9570 C   0  0  0  0  0  0  0  0  0  0  0  0
  188.9880  176.9020  144.6930 N   0  0  0  0  0  0  0  0  0  0  0  0
  185.4800  177.7740  144.6030 C   0  0  1  0  0  3  0  0  0  0  0  0
  185.1100  179.2210  144.8680 C   0  0  0  0  0  2  0  0  0  0  0  0
  185.3610  178.7560  143.4510 C   0  0  2  0  0  3  0  0  0  0  0  0
  184.0330  178.5360  142.7520 C   0  0  0  0  0  2  0  0  0  0  0  0
  184.2360  178.3810  141.2530 C   0  0  0  0  0  2  0  0  0  0  0  0
  182.9060  178.4090  140.5070 C   0  0  2  0  0  3  0  0  0  0  0  0
  182.8720  179.5070  139.4440 C   0  0  0  0  0  2  0  0  0  0  0  0
  184.2090  180.0110  139.1710 N   0  0  0  0  0  1  0  0  0  0  0  0
  181.8170  178.5900  141.4550 N   0  0  0  0  0  2  0  0  0  0  0  0
  180.8510  179.4790  140.8330 C   0  0  0  0  0  1  0  0  0  0  0  0
  190.1410  175.8640  142.6800 C   0  0  0  0  0  2  0  0  0  0  0  0
  191.2160  177.7260  141.6560 O   0  0  0  0  0  0  0  0  0  0  0  0
  189.0580  177.2790  140.8970 N   0  0  0  0  0  2  0  0  0  0  0  0
  190.1890  177.0000  141.7180 C   0  0  0  0  0  0  0  0  0  0  0  0
  189.0650  178.3530  139.9960 N   0  0  0  0  0  2  0  0  0  0  0  0
  186.7050  177.9650  137.1410 C   0  0  0  0  0  3  0  0  0  0  0  0
  188.5780  178.2140  138.6620 C   0  0  0  0  0  0  0  0  0  0  0  0
  187.2010  178.1040  138.4420 C   0  0  0  0  0  3  0  0  0  0  0  0
  187.5860  177.9370  136.0560 C   0  0  0  0  0  3  0  0  0  0  0  0
  189.4590  178.1840  137.5710 C   0  0  0  0  0  3  0  0  0  0  0  0
  188.9640  178.0450  136.2710 C   0  0  0  0  0  3  0  0  0  0  0  0
  1 11  1  0  0  0  0
  1  6  2  0  0  0  0
  2  9  1  0  0  0  0
  3 11  1  0  0  0  0
  3  4  2  0  0  0  0
  5  9  2  0  0  0  0
  6  8  1  0  0  0  0
  7  2  2  0  0  0  0
  8  5  1  0  0  0  0
 10  8  2  0  0  0  0
 10  7  1  0  0  0  0
 11 10  1  0  0  0  0
 12 13  1  0  0  0  0
 12  6  1  1  0  0  0
 14 15  1  6  0  0  0
 14 12  1  0  0  0  0
 14 13  1  0  0  0  0
 16 15  1  0  0  0  0
 17 18  1  6  0  0  0
 17 16  1  0  0  0  0
 17 20  1  0  0  0  0
 19 18  1  0  0  0  0
 21 20  1  0  0  0  0
 22  3  1  0  0  0  0
 23 25  2  0  0  0  0
 24 25  1  0  0  0  0
 25 22  1  0  0  0  0
 26 24  1  0  0  0  0
 27 29  1  0  0  0  0
 28 26  1  0  0  0  0
 29 28  2  0  0  0  0
 30 32  1  0  0  0  0
 30 27  2  0  0  0  0
 31 28  1  0  0  0  0
 32 31  2  0  0  0  0
M  END
>  <MODEL>
1

>  <REMARK>
 VINA RESULT:      -8.8      0.000      0.000
  Name = 
  10 active torsions:
  status: ('A' for Active; 'I' for Inactive)
    1  A    between atoms: C_1  and  C_5
    2  A    between atoms: N_3  and  C_14
    3  A    between atoms: N_3  and  N_27
    4  A    between atoms: C_5  and  N_16
    5  A    between atoms: C_5  and  C_25
    6  A    between atoms: C_6  and  C_9
    7  A    between atoms: C_6  and  C_30
    8  A    between atoms: C_8  and  C_17
    9  A    between atoms: C_21  and  C_25
   10  A    between atoms: C_21  and  C_28
                            x       y       z     vdW  Elec       q    Type
                         _______ _______ _______ _____ _____    ______ ____

>  <TORSDO>
F 10

$$$$
=
 OpenBabel11032420203D

 32 35  0  0  1  0  0  0  0  0999 V2000
  187.7920  176.9840  144.1590 N   0  0  0  0  0  0  0  0  0  0  0  0
  189.3890  177.9660  148.2790 C   0  0  0  0  0  3  0  0  0  0  0  0
  190.1390  176.3220  144.1570 C   0  0  0  0  0  0  0  0  0  0  0  0
  191.2280  176.2620  144.7880 O   0  0  0  0  0  0  0  0  0  0  0  0
  187.1160  178.3110  147.4310 C   0  0  0  0  0  3  0  0  0  0  0  0
  186.9110  177.5470  145.0220 C   0  0  0  0  0  0  0  0  0  0  0  0
  189.7960  177.4310  147.0430 C   0  0  0  0  0  3  0  0  0  0  0  0
  187.5540  177.7800  146.2190 C   0  0  0  0  0  0  0  0  0  0  0  0
  188.0580  178.4010  148.4730 C   0  0  0  0  0  3  0  0  0  0  0  0
  188.8400  177.3540  146.0290 C   0  0  0  0  0  0  0  0  0  0  0  0
  188.9660  176.8760  144.7740 N   0  0  0  0  0  0  0  0  0  0  0  0
  185.4660  177.7850  144.7180 C   0  0  1  0  0  3  0  0  0  0  0  0
  185.1340  179.2550  144.8800 C   0  0  0  0  0  2  0  0  0  0  0  0
  185.3390  178.6780  143.4970 C   0  0  2  0  0  3  0  0  0  0  0  0
  183.9890  178.4350  142.8490 C   0  0  0  0  0  2  0  0  0  0  0  0
  184.1580  178.0330  141.3920 C   0  0  0  0  0  2  0  0  0  0  0  0
  183.5810  179.0880  140.4540 C   0  0  2  0  0  3  0  0  0  0  0  0
  182.4600  178.5230  139.5830 C   0  0  0  0  0  2  0  0  0  0  0  0
  181.5180  177.7500  140.3790 N   0  0  0  0  0  1  0  0  0  0  0  0
  184.6410  179.6350  139.6220 N   0  0  0  0  0  2  0  0  0  0  0  0
  185.1920  178.5340  138.8510 C   0  0  0  0  0  1  0  0  0  0  0  0
  190.0750  175.7790  142.7680 C   0  0  0  0  0  2  0  0  0  0  0  0
  191.3550  177.5610  141.8440 O   0  0  0  0  0  0  0  0  0  0  0  0
  189.3220  177.1390  140.7840 N   0  0  0  0  0  2  0  0  0  0  0  0
  190.3060  176.8680  141.7780 C   0  0  0  0  0  0  0  0  0  0  0  0
  189.5020  178.1710  139.8520 N   0  0  0  0  0  2  0  0  0  0  0  0
  190.3330  176.6720  136.5450 C   0  0  0  0  0  3  0  0  0  0  0  0
  189.4900  177.9190  138.4470 C   0  0  0  0  0  0  0  0  0  0  0  0
  190.3300  176.9320  137.9190 C   0  0  0  0  0  3  0  0  0  0  0  0
  189.4940  177.3980  135.6940 C   0  0  0  0  0  3  0  0  0  0  0  0
  188.6500  178.6450  137.5900 C   0  0  0  0  0  3  0  0  0  0  0  0
  188.6520  178.3850  136.2160 C   0  0  0  0  0  3  0  0  0  0  0  0
  1 11  1  0  0  0  0
  1  6  2  0  0  0  0
  2  9  1  0  0  0  0
  3 11  1  0  0  0  0
  3  4  2  0  0  0  0
  5  9  2  0  0  0  0
  6  8  1  0  0  0  0
  7  2  2  0  0  0  0
  8  5  1  0  0  0  0
 10  8  2  0  0  0  0
 10  7  1  0  0  0  0
 11 10  1  0  0  0  0
 12 13  1  0  0  0  0
 12  6  1  1  0  0  0
 14 15  1  6  0  0  0
 14 12  1  0  0  0  0
 14 13  1  0  0  0  0
 16 15  1  0  0  0  0
 17 18  1  6  0  0  0
 17 16  1  0  0  0  0
 18 19  1  0  0  0  0
 20 17  1  0  0  0  0
 21 20  1  0  0  0  0
 22  3  1  0  0  0  0
 24 25  1  0  0  0  0
 25 23  2  0  0  0  0
 25 22  1  0  0  0  0
 26 24  1  0  0  0  0
 27 29  1  0  0  0  0
 28 26  1  0  0  0  0
 29 28  2  0  0  0  0
 30 32  1  0  0  0  0
 30 27  2  0  0  0  0
 31 28  1  0  0  0  0
 32 31  2  0  0  0  0
M  END
>  <MODEL>
2

>  <REMARK>
 VINA RESULT:      -8.5      0.817      1.634
  Name = 
  10 active torsions:
  status: ('A' for Active; 'I' for Inactive)
    1  A    between atoms: C_1  and  C_5
    2  A    between atoms: N_3  and  C_14
    3  A    between atoms: N_3  and  N_27
    4  A    between atoms: C_5  and  N_16
    5  A    between atoms: C_5  and  C_25
    6  A    between atoms: C_6  and  C_9
    7  A    between atoms: C_6  and  C_30
    8  A    between atoms: C_8  and  C_17
    9  A    between atoms: C_21  and  C_25
   10  A    between atoms: C_21  and  C_28
                            x       y       z     vdW  Elec       q    Type
                         _______ _______ _______ _____ _____    ______ ____

>  <TORSDO>
F 10

$$$$
=
 OpenBabel11032420203D

 32 35  0  0  1  0  0  0  0  0999 V2000
  186.6500  177.4370  144.4700 N   0  0  0  0  0  0  0  0  0  0  0  0
  188.8870  177.9890  148.3660 C   0  0  0  0  0  3  0  0  0  0  0  0
  185.0750  178.4660  146.0210 C   0  0  0  0  0  0  0  0  0  0  0  0
  184.8540  178.8950  147.1850 O   0  0  0  0  0  0  0  0  0  0  0  0
  189.7300  177.0250  146.2770 C   0  0  0  0  0  3  0  0  0  0  0  0
  187.9350  177.0070  144.4860 C   0  0  0  0  0  0  0  0  0  0  0  0
  187.6220  178.2030  147.7860 C   0  0  0  0  0  3  0  0  0  0  0  0
  188.4650  177.2470  145.7370 C   0  0  0  0  0  0  0  0  0  0  0  0
  189.9330  177.4060  147.6170 C   0  0  0  0  0  3  0  0  0  0  0  0
  187.4500  177.8150  146.4570 C   0  0  0  0  0  0  0  0  0  0  0  0
  186.3570  177.9210  145.6730 N   0  0  0  0  0  0  0  0  0  0  0  0
  188.6530  176.4450  143.3010 C   0  0  1  0  0  3  0  0  0  0  0  0
  188.1760  177.1230  142.0320 C   0  0  0  0  0  2  0  0  0  0  0  0
  189.4960  177.5270  142.6500 C   0  0  2  0  0  3  0  0  0  0  0  0
  190.6300  176.8740  141.8850 C   0  0  0  0  0  2  0  0  0  0  0  0
  190.7490  177.4680  140.4910 C   0  0  0  0  0  2  0  0  0  0  0  0
  190.4150  176.4370  139.4170 C   0  0  2  0  0  3  0  0  0  0  0  0
  191.5650  176.2500  138.4300 C   0  0  0  0  0  2  0  0  0  0  0  0
  191.6330  174.8740  137.9610 N   0  0  0  0  0  1  0  0  0  0  0  0
  189.2050  176.8380  138.7150 N   0  0  0  0  0  2  0  0  0  0  0  0
  189.4210  178.1890  138.2270 C   0  0  0  0  0  1  0  0  0  0  0  0
  183.9930  178.5620  144.9950 C   0  0  0  0  0  2  0  0  0  0  0  0
  184.9530  180.4410  143.8920 O   0  0  0  0  0  0  0  0  0  0  0  0
  184.4150  178.6410  142.5120 N   0  0  0  0  0  0  0  0  0  0  0  0
  184.4930  179.2740  143.7860 C   0  0  0  0  0  0  0  0  0  0  0  0
  184.8580  179.2930  141.3520 N   0  0  0  0  0  0  0  0  0  0  0  0
  185.6440  177.9680  137.9620 C   0  0  0  0  0  3  0  0  0  0  0  0
  184.6820  178.7180  140.0580 C   0  0  0  0  0  0  0  0  0  0  0  0
  185.7970  178.5300  139.2340 C   0  0  0  0  0  3  0  0  0  0  0  0
  184.3750  177.5930  137.5100 C   0  0  0  0  0  3  0  0  0  0  0  0
  183.4100  178.3410  139.6020 C   0  0  0  0  0  3  0  0  0  0  0  0
  183.2580  177.7800  138.3300 C   0  0  0  0  0  3  0  0  0  0  0  0
  1  6  2  0  0  0  0
  1 11  1  0  0  0  0
  3  4  2  0  0  0  0
  5  9  1  0  0  0  0
  6  8  1  0  0  0  0
  7  2  1  0  0  0  0
  8  5  2  0  0  0  0
  8 10  1  0  0  0  0
  9  2  2  0  0  0  0
 10  7  2  0  0  0  0
 11  3  1  0  0  0  0
 11 10  1  0  0  0  0
 12  6  1  1  0  0  0
 13 14  1  0  0  0  0
 13 12  1  0  0  0  0
 14 15  1  6  0  0  0
 14 12  1  0  0  0  0
 16 15  1  0  0  0  0
 17 18  1  6  0  0  0
 17 16  1  0  0  0  0
 19 18  1  0  0  0  0
 20 17  1  0  0  0  0
 21 20  1  0  0  0  0
 22  3  1  0  0  0  0
 24 25  1  0  0  0  0
 25 23  2  0  0  0  0
 25 22  1  0  0  0  0
 26 24  2  0  0  0  0
 27 29  1  0  0  0  0
 28 26  1  0  0  0  0
 29 28  2  0  0  0  0
 30 27  2  0  0  0  0
 30 32  1  0  0  0  0
 31 28  1  0  0  0  0
 32 31  2  0  0  0  0
M  END
>  <MODEL>
3

>  <REMARK>
 VINA RESULT:      -8.3      2.518      5.452
  Name = 
  10 active torsions:
  status: ('A' for Active; 'I' for Inactive)
    1  A    between atoms: C_1  and  C_5
    2  A    between atoms: N_3  and  C_14
    3  A    between atoms: N_3  and  N_27
    4  A    between atoms: C_5  and  N_16
    5  A    between atoms: C_5  and  C_25
    6  A    between atoms: C_6  and  C_9
    7  A    between atoms: C_6  and  C_30
    8  A    between atoms: C_8  and  C_17
    9  A    between atoms: C_21  and  C_25
   10  A    between atoms: C_21  and  C_28
                            x       y       z     vdW  Elec       q    Type
                         _______ _______ _______ _____ _____    ______ ____

>  <TORSDO>
F 10

$$$$
=
 OpenBabel11032420203D

 32 35  0  0  1  0  0  0  0  0999 V2000
  188.2000  177.7770  143.8600 N   0  0  0  0  0  0  0  0  0  0  0  0
  191.6950  176.6740  146.5170 C   0  0  0  0  0  3  0  0  0  0  0  0
  190.1820  177.8410  142.4420 C   0  0  0  0  0  0  0  0  0  0  0  0
  191.4330  177.7170  142.3550 O   0  0  0  0  0  0  0  0  0  0  0  0
  189.3320  176.8460  147.1430 C   0  0  0  0  0  3  0  0  0  0  0  0
  187.9050  177.5240  145.1580 C   0  0  0  0  0  0  0  0  0  0  0  0
  191.3950  177.0360  145.1900 C   0  0  0  0  0  3  0  0  0  0  0  0
  189.0720  177.2070  145.8220 C   0  0  0  0  0  0  0  0  0  0  0  0
  190.6700  176.5780  147.4860 C   0  0  0  0  0  3  0  0  0  0  0  0
  190.0600  177.2970  144.8800 C   0  0  0  0  0  0  0  0  0  0  0  0
  189.5130  177.6450  143.6970 N   0  0  0  0  0  0  0  0  0  0  0  0
  186.5210  177.5180  145.7250 C   0  0  1  0  0  3  0  0  0  0  0  0
  186.4280  178.4920  146.8830 C   0  0  0  0  0  2  0  0  0  0  0  0
  185.8800  178.8800  145.5280 C   0  0  2  0  0  3  0  0  0  0  0  0
  184.3730  178.7190  145.5300 C   0  0  0  0  0  2  0  0  0  0  0  0
  183.7580  179.4080  144.3220 C   0  0  0  0  0  2  0  0  0  0  0  0
  183.6280  178.4510  143.1420 C   0  0  2  0  0  3  0  0  0  0  0  0
  184.9240  178.3590  142.3380 C   0  0  0  0  0  2  0  0  0  0  0  0
  184.9640  179.3710  141.2930 N   0  0  0  0  0  1  0  0  0  0  0  0
  182.5310  178.8760  142.2860 N   0  0  0  0  0  2  0  0  0  0  0  0
  181.3530  178.9930  143.1260 C   0  0  0  0  0  1  0  0  0  0  0  0
  189.3990  178.1630  141.2120 C   0  0  0  0  0  2  0  0  0  0  0  0
  190.3420  176.1620  140.3300 O   0  0  0  0  0  0  0  0  0  0  0  0
  189.6640  177.7300  138.7430 N   0  0  0  0  0  2  0  0  0  0  0  0
  189.8210  177.2830  140.0870 C   0  0  0  0  0  0  0  0  0  0  0  0
  190.0710  176.9320  137.6640 N   0  0  0  0  0  2  0  0  0  0  0  0
  187.3010  174.5750  136.8650 C   0  0  0  0  0  3  0  0  0  0  0  0
  189.3840  175.7280  137.3240 C   0  0  0  0  0  0  0  0  0  0  0  0
  187.9910  175.7450  137.1960 C   0  0  0  0  0  3  0  0  0  0  0  0
  188.0020  173.3830  136.6590 C   0  0  0  0  0  3  0  0  0  0  0  0
  190.0850  174.5300  137.1180 C   0  0  0  0  0  3  0  0  0  0  0  0
  189.3950  173.3610  136.7860 C   0  0  0  0  0  3  0  0  0  0  0  0
  1  6  2  0  0  0  0
  2  9  1  0  0  0  0
  3 11  1  0  0  0  0
  4  3  2  0  0  0  0
  5  9  2  0  0  0  0
  6  8  1  0  0  0  0
  7  2  2  0  0  0  0
  8  5  1  0  0  0  0
 10  7  1  0  0  0  0
 10  8  2  0  0  0  0
 11  1  1  0  0  0  0
 11 10  1  0  0  0  0
 12  6  1  6  0  0  0
 12 13  1  0  0  0  0
 14 15  1  1  0  0  0
 14 12  1  0  0  0  0
 14 13  1  0  0  0  0
 16 15  1  0  0  0  0
 17 18  1  6  0  0  0
 17 16  1  0  0  0  0
 19 18  1  0  0  0  0
 20 21  1  0  0  0  0
 20 17  1  0  0  0  0
 22  3  1  0  0  0  0
 24 25  1  0  0  0  0
 25 23  2  0  0  0  0
 25 22  1  0  0  0  0
 26 24  1  0  0  0  0
 27 29  1  0  0  0  0
 28 26  1  0  0  0  0
 29 28  2  0  0  0  0
 30 32  1  0  0  0  0
 30 27  2  0  0  0  0
 31 28  1  0  0  0  0
 32 31  2  0  0  0  0
M  END
>  <MODEL>
4

>  <REMARK>
 VINA RESULT:      -8.2      2.088      2.720
  Name = 
  10 active torsions:
  status: ('A' for Active; 'I' for Inactive)
    1  A    between atoms: C_1  and  C_5
    2  A    between atoms: N_3  and  C_14
    3  A    between atoms: N_3  and  N_27
    4  A    between atoms: C_5  and  N_16
    5  A    between atoms: C_5  and  C_25
    6  A    between atoms: C_6  and  C_9
    7  A    between atoms: C_6  and  C_30
    8  A    between atoms: C_8  and  C_17
    9  A    between atoms: C_21  and  C_25
   10  A    between atoms: C_21  and  C_28
                            x       y       z     vdW  Elec       q    Type
                         _______ _______ _______ _____ _____    ______ ____

>  <TORSDO>
F 10

$$$$
=
 OpenBabel11032420203D

 32 35  0  0  1  0  0  0  0  0999 V2000
  187.7370  177.7330  143.5530 N   0  0  0  0  0  0  0  0  0  0  0  0
  191.6030  176.7860  145.7100 C   0  0  0  0  0  3  0  0  0  0  0  0
  189.4850  177.7310  141.8530 C   0  0  0  0  0  0  0  0  0  0  0  0
  190.7100  177.6080  141.5860 O   0  0  0  0  0  0  0  0  0  0  0  0
  189.3580  176.9820  146.6730 C   0  0  0  0  0  3  0  0  0  0  0  0
  187.6440  177.5480  144.8920 C   0  0  0  0  0  0  0  0  0  0  0  0
  191.1050  177.0770  144.4260 C   0  0  0  0  0  3  0  0  0  0  0  0
  188.9000  177.2710  145.3890 C   0  0  0  0  0  0  0  0  0  0  0  0
  190.7360  176.7380  146.8250 C   0  0  0  0  0  3  0  0  0  0  0  0
  189.7350  177.3160  144.3060 C   0  0  0  0  0  0  0  0  0  0  0  0
  189.0130  177.5980  143.2020 N   0  0  0  0  0  0  0  0  0  0  0  0
  186.3600  177.5660  145.6590 C   0  0  1  0  0  3  0  0  0  0  0  0
  186.4030  178.6450  146.7240 C   0  0  0  0  0  2  0  0  0  0  0  0
  185.6480  178.8890  145.4370 C   0  0  2  0  0  3  0  0  0  0  0  0
  184.1640  178.6950  145.6810 C   0  0  0  0  0  2  0  0  0  0  0  0
  183.3460  179.4910  144.6760 C   0  0  0  0  0  2  0  0  0  0  0  0
  182.6860  178.5780  143.6480 C   0  0  2  0  0  3  0  0  0  0  0  0
  183.2710  178.7750  142.2510 C   0  0  0  0  0  2  0  0  0  0  0  0
  184.5240  178.0510  142.1010 N   0  0  0  0  0  1  0  0  0  0  0  0
  181.2510  178.8150  143.6340 N   0  0  0  0  0  2  0  0  0  0  0  0
  180.8090  178.6850  142.2560 C   0  0  0  0  0  1  0  0  0  0  0  0
  188.5230  177.9850  140.7390 C   0  0  0  0  0  2  0  0  0  0  0  0
  189.5240  178.7260  138.7090 O   0  0  0  0  0  0  0  0  0  0  0  0
  189.3950  176.4120  138.9720 N   0  0  0  0  0  2  0  0  0  0  0  0
  189.1830  177.7470  139.4250 C   0  0  0  0  0  0  0  0  0  0  0  0
  189.9950  176.1570  137.7310 N   0  0  0  0  0  2  0  0  0  0  0  0
  193.6800  175.6940  138.0090 C   0  0  0  0  0  3  0  0  0  0  0  0
  191.2880  175.5590  137.6350 C   0  0  0  0  0  0  0  0  0  0  0  0
  192.4050  176.2640  138.0960 C   0  0  0  0  0  3  0  0  0  0  0  0
  193.8410  174.4180  137.4610 C   0  0  0  0  0  3  0  0  0  0  0  0
  191.4520  174.2790  137.0850 C   0  0  0  0  0  3  0  0  0  0  0  0
  192.7260  173.7100  136.9990 C   0  0  0  0  0  3  0  0  0  0  0  0
  1  6  2  0  0  0  0
  2  9  1  0  0  0  0
  3 11  1  0  0  0  0
  4  3  2  0  0  0  0
  5  9  2  0  0  0  0
  6  8  1  0  0  0  0
  7  2  2  0  0  0  0
  8  5  1  0  0  0  0
 10  7  1  0  0  0  0
 10  8  2  0  0  0  0
 11  1  1  0  0  0  0
 11 10  1  0  0  0  0
 12  6  1  6  0  0  0
 12 13  1  0  0  0  0
 14 12  1  0  0  0  0
 14 15  1  1  0  0  0
 14 13  1  0  0  0  0
 16 15  1  0  0  0  0
 17 18  1  6  0  0  0
 17 16  1  0  0  0  0
 19 18  1  0  0  0  0
 20 17  1  0  0  0  0
 21 20  1  0  0  0  0
 22  3  1  0  0  0  0
 23 25  2  0  0  0  0
 24 25  1  0  0  0  0
 25 22  1  0  0  0  0
 26 24  1  0  0  0  0
 27 29  1  0  0  0  0
 28 26  1  0  0  0  0
 28 29  2  0  0  0  0
 30 27  2  0  0  0  0
 31 28  1  0  0  0  0
 32 31  2  0  0  0  0
 32 30  1  0  0  0  0
M  END
>  <MODEL>
5

>  <REMARK>
 VINA RESULT:      -8.2      2.538      3.516
  Name = 
  10 active torsions:
  status: ('A' for Active; 'I' for Inactive)
    1  A    between atoms: C_1  and  C_5
    2  A    between atoms: N_3  and  C_14
    3  A    between atoms: N_3  and  N_27
    4  A    between atoms: C_5  and  N_16
    5  A    between atoms: C_5  and  C_25
    6  A    between atoms: C_6  and  C_9
    7  A    between atoms: C_6  and  C_30
    8  A    between atoms: C_8  and  C_17
    9  A    between atoms: C_21  and  C_25
   10  A    between atoms: C_21  and  C_28
                            x       y       z     vdW  Elec       q    Type
                         _______ _______ _______ _____ _____    ______ ____

>  <TORSDO>
F 10

$$$$
=
 OpenBabel11032420203D

 32 35  0  0  1  0  0  0  0  0999 V2000
  186.6830  177.4540  144.5310 N   0  0  0  0  0  0  0  0  0  0  0  0
  188.7230  178.1080  148.5190 C   0  0  0  0  0  3  0  0  0  0  0  0
  184.9900  178.3830  146.0190 C   0  0  0  0  0  0  0  0  0  0  0  0
  184.6970  178.7920  147.1740 O   0  0  0  0  0  0  0  0  0  0  0  0
  189.7050  177.2050  146.4630 C   0  0  0  0  0  3  0  0  0  0  0  0
  187.9890  177.0960  144.5990 C   0  0  0  0  0  0  0  0  0  0  0  0
  187.4730  178.2540  147.8880 C   0  0  0  0  0  3  0  0  0  0  0  0
  188.4520  177.3580  145.8720 C   0  0  0  0  0  0  0  0  0  0  0  0
  189.8300  177.5890  147.8120 C   0  0  0  0  0  3  0  0  0  0  0  0
  187.3780  177.8640  146.5510 C   0  0  0  0  0  0  0  0  0  0  0  0
  186.3140  177.9130  145.7230 N   0  0  0  0  0  0  0  0  0  0  0  0
  188.7850  176.5820  143.4430 C   0  0  1  0  0  3  0  0  0  0  0  0
  188.1890  177.0740  142.1390 C   0  0  0  0  0  2  0  0  0  0  0  0
  189.4220  177.7440  142.7010 C   0  0  2  0  0  3  0  0  0  0  0  0
  190.6480  177.2440  141.9620 C   0  0  0  0  0  2  0  0  0  0  0  0
  190.2530  176.6000  140.6430 C   0  0  0  0  0  2  0  0  0  0  0  0
  190.7510  177.4160  139.4550 C   0  0  2  0  0  3  0  0  0  0  0  0
  189.6290  177.7230  138.4640 C   0  0  0  0  0  2  0  0  0  0  0  0
  189.0450  179.0300  138.7240 N   0  0  0  0  0  1  0  0  0  0  0  0
  191.8310  176.7030  138.7900 N   0  0  0  0  0  2  0  0  0  0  0  0
  191.3960  176.4380  137.4300 C   0  0  0  0  0  1  0  0  0  0  0  0
  183.9480  178.4240  144.9500 C   0  0  0  0  0  2  0  0  0  0  0  0
  184.8420  180.3780  143.9250 O   0  0  0  0  0  0  0  0  0  0  0  0
  184.4380  178.5900  142.4840 N   0  0  0  0  0  0  0  0  0  0  0  0
  184.4460  179.1920  143.7760 C   0  0  0  0  0  0  0  0  0  0  0  0
  184.8810  179.2950  141.3560 N   0  0  0  0  0  0  0  0  0  0  0  0
  185.2770  177.9670  137.8990 C   0  0  0  0  0  3  0  0  0  0  0  0
  184.5580  178.8670  140.0330 C   0  0  0  0  0  0  0  0  0  0  0  0
  185.5750  178.3890  139.1980 C   0  0  0  0  0  3  0  0  0  0  0  0
  183.9610  178.0200  137.4290 C   0  0  0  0  0  3  0  0  0  0  0  0
  183.2390  178.9200  139.5590 C   0  0  0  0  0  3  0  0  0  0  0  0
  182.9420  178.4980  138.2600 C   0  0  0  0  0  3  0  0  0  0  0  0
  1  6  2  0  0  0  0
  1 11  1  0  0  0  0
  3  4  2  0  0  0  0
  5  9  1  0  0  0  0
  6  8  1  0  0  0  0
  7  2  1  0  0  0  0
  8  5  2  0  0  0  0
  8 10  1  0  0  0  0
  9  2  2  0  0  0  0
 10  7  2  0  0  0  0
 11  3  1  0  0  0  0
 11 10  1  0  0  0  0
 12  6  1  1  0  0  0
 13 14  1  0  0  0  0
 13 12  1  0  0  0  0
 14 15  1  6  0  0  0
 14 12  1  0  0  0  0
 16 15  1  0  0  0  0
 17 18  1  6  0  0  0
 17 16  1  0  0  0  0
 18 19  1  0  0  0  0
 20 17  1  0  0  0  0
 21 20  1  0  0  0  0
 22  3  1  0  0  0  0
 24 25  1  0  0  0  0
 25 23  2  0  0  0  0
 25 22  1  0  0  0  0
 26 24  2  0  0  0  0
 27 29  1  0  0  0  0
 28 26  1  0  0  0  0
 29 28  2  0  0  0  0
 30 27  2  0  0  0  0
 30 32  1  0  0  0  0
 31 28  1  0  0  0  0
 32 31  2  0  0  0  0
M  END
>  <MODEL>
6

>  <REMARK>
 VINA RESULT:      -8.1      2.461      5.478
  Name = 
  10 active torsions:
  status: ('A' for Active; 'I' for Inactive)
    1  A    between atoms: C_1  and  C_5
    2  A    between atoms: N_3  and  C_14
    3  A    between atoms: N_3  and  N_27
    4  A    between atoms: C_5  and  N_16
    5  A    between atoms: C_5  and  C_25
    6  A    between atoms: C_6  and  C_9
    7  A    between atoms: C_6  and  C_30
    8  A    between atoms: C_8  and  C_17
    9  A    between atoms: C_21  and  C_25
   10  A    between atoms: C_21  and  C_28
                            x       y       z     vdW  Elec       q    Type
                         _______ _______ _______ _____ _____    ______ ____

>  <TORSDO>
F 10

$$$$
=
 OpenBabel11032420203D

 32 35  0  0  1  0  0  0  0  0999 V2000
  188.7050  178.2970  145.2890 N   0  0  0  0  0  0  0  0  0  0  0  0
  191.6800  175.7030  147.5060 C   0  0  0  0  0  3  0  0  0  0  0  0
  187.9660  178.2430  147.6120 C   0  0  0  0  0  0  0  0  0  0  0  0
  188.1500  177.8020  148.7780 O   0  0  0  0  0  0  0  0  0  0  0  0
  191.6800  176.2840  145.1250 C   0  0  0  0  0  3  0  0  0  0  0  0
  189.7070  177.7680  144.5450 C   0  0  0  0  0  0  0  0  0  0  0  0
  190.5070  176.4530  147.7150 C   0  0  0  0  0  3  0  0  0  0  0  0
  190.5160  177.0120  145.3670 C   0  0  0  0  0  0  0  0  0  0  0  0
  192.2630  175.6200  146.2210 C   0  0  0  0  0  3  0  0  0  0  0  0
  189.9500  177.0980  146.6100 C   0  0  0  0  0  0  0  0  0  0  0  0
  188.8530  177.8800  146.5430 N   0  0  0  0  0  0  0  0  0  0  0  0
  189.9180  178.0490  143.0910 C   0  0  1  0  0  3  0  0  0  0  0  0
  189.8880  176.7550  142.3010 C   0  0  0  0  0  2  0  0  0  0  0  0
  188.6760  177.6590  142.3080 C   0  0  2  0  0  3  0  0  0  0  0  0
  188.6360  178.4580  141.0200 C   0  0  0  0  0  2  0  0  0  0  0  0
  188.4220  177.5400  139.8260 C   0  0  0  0  0  2  0  0  0  0  0  0
  188.5960  178.2910  138.5100 C   0  0  2  0  0  3  0  0  0  0  0  0
  187.3860  178.1190  137.5930 C   0  0  0  0  0  2  0  0  0  0  0  0
  186.1760  178.6270  138.2210 N   0  0  0  0  0  1  0  0  0  0  0  0
  189.8060  177.8350  137.8430 N   0  0  0  0  0  2  0  0  0  0  0  0
  190.1510  176.5460  138.4170 C   0  0  0  0  0  1  0  0  0  0  0  0
  186.8290  179.1790  147.3630 C   0  0  0  0  0  2  0  0  0  0  0  0
  185.7700  177.2350  146.4840 O   0  0  0  0  0  0  0  0  0  0  0  0
  184.7370  179.2590  145.9590 N   0  0  0  0  0  2  0  0  0  0  0  0
  185.7550  178.4900  146.5940 C   0  0  0  0  0  0  0  0  0  0  0  0
  183.7240  178.6400  145.2120 N   0  0  0  0  0  2  0  0  0  0  0  0
  185.0180  178.6280  141.7190 C   0  0  0  0  0  3  0  0  0  0  0  0
  183.7470  178.6350  143.7850 C   0  0  0  0  0  0  0  0  0  0  0  0
  184.9760  178.6320  143.1180 C   0  0  0  0  0  3  0  0  0  0  0  0
  183.8290  178.6260  140.9840 C   0  0  0  0  0  3  0  0  0  0  0  0
  182.5560  178.6330  143.0440 C   0  0  0  0  0  3  0  0  0  0  0  0
  182.5970  178.6290  141.6460 C   0  0  0  0  0  3  0  0  0  0  0  0
  1 11  1  0  0  0  0
  2  7  1  0  0  0  0
  3  4  2  0  0  0  0
  5  8  2  0  0  0  0
  5  9  1  0  0  0  0
  6  1  2  0  0  0  0
  6  8  1  0  0  0  0
  8 10  1  0  0  0  0
  9  2  2  0  0  0  0
 10  7  2  0  0  0  0
 11 10  1  0  0  0  0
 11  3  1  0  0  0  0
 12  6  1  1  0  0  0
 13 14  1  0  0  0  0
 13 12  1  0  0  0  0
 14 15  1  6  0  0  0
 14 12  1  0  0  0  0
 16 15  1  0  0  0  0
 17 18  1  6  0  0  0
 17 16  1  0  0  0  0
 18 19  1  0  0  0  0
 20 21  1  0  0  0  0
 20 17  1  0  0  0  0
 22  3  1  0  0  0  0
 23 25  2  0  0  0  0
 24 25  1  0  0  0  0
 25 22  1  0  0  0  0
 26 24  1  0  0  0  0
 27 29  1  0  0  0  0
 28 26  1  0  0  0  0
 29 28  2  0  0  0  0
 30 32  1  0  0  0  0
 30 27  2  0  0  0  0
 31 28  1  0  0  0  0
 32 31  2  0  0  0  0
M  END
>  <MODEL>
7

>  <REMARK>
 VINA RESULT:      -8.0      2.323      5.721
  Name = 
  10 active torsions:
  status: ('A' for Active; 'I' for Inactive)
    1  A    between atoms: C_1  and  C_5
    2  A    between atoms: N_3  and  C_14
    3  A    between atoms: N_3  and  N_27
    4  A    between atoms: C_5  and  N_16
    5  A    between atoms: C_5  and  C_25
    6  A    between atoms: C_6  and  C_9
    7  A    between atoms: C_6  and  C_30
    8  A    between atoms: C_8  and  C_17
    9  A    between atoms: C_21  and  C_25
   10  A    between atoms: C_21  and  C_28
                            x       y       z     vdW  Elec       q    Type
                         _______ _______ _______ _____ _____    ______ ____

>  <TORSDO>
F 10

$$$$
=
 OpenBabel11032420203D

 32 35  0  0  1  0  0  0  0  0999 V2000
  186.7030  178.7040  143.3950 N   0  0  0  0  0  0  0  0  0  0  0  0
  182.3890  178.9250  142.0430 C   0  0  0  0  0  3  0  0  0  0  0  0
  186.7460  178.6260  140.9580 C   0  0  0  0  0  0  0  0  0  0  0  0
  186.0910  178.6070  139.8820 O   0  0  0  0  0  0  0  0  0  0  0  0
  183.2430  178.9460  144.3400 C   0  0  0  0  0  3  0  0  0  0  0  0
  185.7730  178.7780  144.3780 C   0  0  0  0  0  0  0  0  0  0  0  0
  183.6960  178.8210  141.5310 C   0  0  0  0  0  3  0  0  0  0  0  0
  184.5230  178.8380  143.7990 C   0  0  0  0  0  0  0  0  0  0  0  0
  182.1640  178.9890  143.4370 C   0  0  0  0  0  3  0  0  0  0  0  0
  184.7450  178.7800  142.4500 C   0  0  0  0  0  0  0  0  0  0  0  0
  186.0720  178.6980  142.2240 N   0  0  0  0  0  0  0  0  0  0  0  0
  186.0910  178.8630  145.8370 C   0  0  1  0  0  3  0  0  0  0  0  0
  185.2350  177.8830  146.6150 C   0  0  0  0  0  2  0  0  0  0  0  0
  186.6770  177.5450  146.3120 C   0  0  2  0  0  3  0  0  0  0  0  0
  187.5230  177.7990  147.5440 C   0  0  0  0  0  2  0  0  0  0  0  0
  188.7180  176.8590  147.5780 C   0  0  0  0  0  2  0  0  0  0  0  0
  189.9530  177.5080  146.9630 C   0  0  2  0  0  3  0  0  0  0  0  0
  190.1220  177.1280  145.4920 C   0  0  0  0  0  2  0  0  0  0  0  0
  190.1620  178.3130  144.6480 N   0  0  0  0  0  1  0  0  0  0  0  0
  191.1350  177.1270  147.7220 N   0  0  0  0  0  2  0  0  0  0  0  0
  191.7170  175.9740  147.0570 C   0  0  0  0  0  1  0  0  0  0  0  0
  188.2380  178.6050  140.8980 C   0  0  0  0  0  2  0  0  0  0  0  0
  188.9890  179.0610  138.6840 O   0  0  0  0  0  0  0  0  0  0  0  0
  188.7580  176.8020  139.2150 N   0  0  0  0  0  2  0  0  0  0  0  0
  188.6930  178.1880  139.5430 C   0  0  0  0  0  0  0  0  0  0  0  0
  189.1620  176.3790  137.9410 N   0  0  0  0  0  2  0  0  0  0  0  0
  192.8430  175.8080  137.9510 C   0  0  0  0  0  3  0  0  0  0  0  0
  190.4280  175.7550  137.7280 C   0  0  0  0  0  0  0  0  0  0  0  0
  191.5930  176.4040  138.1530 C   0  0  0  0  0  3  0  0  0  0  0  0
  192.9310  174.5610  137.3250 C   0  0  0  0  0  3  0  0  0  0  0  0
  190.5200  174.5040  137.1000 C   0  0  0  0  0  3  0  0  0  0  0  0
  191.7690  173.9090  136.8990 C   0  0  0  0  0  3  0  0  0  0  0  0
  1  6  2  0  0  0  0
  2  9  1  0  0  0  0
  3 11  1  0  0  0  0
  4  3  2  0  0  0  0
  7  2  2  0  0  0  0
  7 10  1  0  0  0  0
  8  5  1  0  0  0  0
  8  6  1  0  0  0  0
  9  5  2  0  0  0  0
 10  8  2  0  0  0  0
 11 10  1  0  0  0  0
 11  1  1  0  0  0  0
 12  6  1  6  0  0  0
 12 14  1  0  0  0  0
 12 13  1  0  0  0  0
 14 13  1  0  0  0  0
 14 15  1  1  0  0  0
 15 16  1  0  0  0  0
 17 18  1  6  0  0  0
 17 16  1  0  0  0  0
 17 20  1  0  0  0  0
 19 18  1  0  0  0  0
 21 20  1  0  0  0  0
 22  3  1  0  0  0  0
 23 25  2  0  0  0  0
 24 25  1  0  0  0  0
 25 22  1  0  0  0  0
 26 24  1  0  0  0  0
 27 29  1  0  0  0  0
 28 26  1  0  0  0  0
 28 29  2  0  0  0  0
 30 27  2  0  0  0  0
 31 28  1  0  0  0  0
 32 31  2  0  0  0  0
 32 30  1  0  0  0  0
M  END
>  <MODEL>
8

>  <REMARK>
 VINA RESULT:      -7.8      2.664      6.303
  Name = 
  10 active torsions:
  status: ('A' for Active; 'I' for Inactive)
    1  A    between atoms: C_1  and  C_5
    2  A    between atoms: N_3  and  C_14
    3  A    between atoms: N_3  and  N_27
    4  A    between atoms: C_5  and  N_16
    5  A    between atoms: C_5  and  C_25
    6  A    between atoms: C_6  and  C_9
    7  A    between atoms: C_6  and  C_30
    8  A    between atoms: C_8  and  C_17
    9  A    between atoms: C_21  and  C_25
   10  A    between atoms: C_21  and  C_28
                            x       y       z     vdW  Elec       q    Type
                         _______ _______ _______ _____ _____    ______ ____

>  <TORSDO>
F 10

$$$$
=
 OpenBabel11032420203D

 32 35  0  0  1  0  0  0  0  0999 V2000
  186.1930  177.8560  142.0010 N   0  0  0  0  0  0  0  0  0  0  0  0
  184.2590  178.7300  146.0000 C   0  0  0  0  0  3  0  0  0  0  0  0
  184.0300  178.8680  141.5070 C   0  0  0  0  0  0  0  0  0  0  0  0
  182.9500  179.3400  141.9510 O   0  0  0  0  0  0  0  0  0  0  0  0
  186.4500  177.7130  145.5840 C   0  0  0  0  0  3  0  0  0  0  0  0
  186.9050  177.5020  143.0980 C   0  0  0  0  0  0  0  0  0  0  0  0
  184.0210  178.8410  144.6170 C   0  0  0  0  0  3  0  0  0  0  0  0
  186.1790  177.8350  144.2230 C   0  0  0  0  0  0  0  0  0  0  0  0
  185.4650  178.1710  146.4800 C   0  0  0  0  0  3  0  0  0  0  0  0
  185.0140  178.3780  143.7530 C   0  0  0  0  0  0  0  0  0  0  0  0
  185.0400  178.3820  142.4050 N   0  0  0  0  0  0  0  0  0  0  0  0
  188.2840  176.9240  143.0600 C   0  0  1  0  0  3  0  0  0  0  0  0
  189.1910  177.7940  142.2120 C   0  0  0  0  0  2  0  0  0  0  0  0
  189.2600  177.8810  143.7200 C   0  0  2  0  0  3  0  0  0  0  0  0
  190.4600  177.0970  144.2150 C   0  0  0  0  0  2  0  0  0  0  0  0
  190.9670  177.6650  145.5310 C   0  0  0  0  0  2  0  0  0  0  0  0
  190.7470  176.6860  146.6800 C   0  0  2  0  0  3  0  0  0  0  0  0
  189.3530  176.8280  147.2890 C   0  0  0  0  0  2  0  0  0  0  0  0
  189.2490  178.0460  148.0790 N   0  0  0  0  0  1  0  0  0  0  0  0
  191.7660  176.8900  147.6980 N   0  0  0  0  0  2  0  0  0  0  0  0
  192.5630  175.6770  147.7540 C   0  0  0  0  0  1  0  0  0  0  0  0
  184.2600  178.8500  140.0320 C   0  0  0  0  0  2  0  0  0  0  0  0
  182.9450  176.8660  140.1130 O   0  0  0  0  0  0  0  0  0  0  0  0
  184.1450  177.1890  138.1390 N   0  0  0  0  0  2  0  0  0  0  0  0
  183.7310  177.5880  139.4430 C   0  0  0  0  0  0  0  0  0  0  0  0
  183.6800  175.9970  137.5670 N   0  0  0  0  0  2  0  0  0  0  0  0
  184.8540  172.4820  137.1970 C   0  0  0  0  0  3  0  0  0  0  0  0
  184.5460  174.8820  137.3560 C   0  0  0  0  0  0  0  0  0  0  0  0
  184.0200  173.5860  137.4010 C   0  0  0  0  0  3  0  0  0  0  0  0
  186.2170  172.6700  136.9470 C   0  0  0  0  0  3  0  0  0  0  0  0
  185.9130  175.0680  137.1050 C   0  0  0  0  0  3  0  0  0  0  0  0
  186.7470  173.9640  136.9010 C   0  0  0  0  0  3  0  0  0  0  0  0
  1 11  1  0  0  0  0
  1  6  2  0  0  0  0
  2  9  1  0  0  0  0
  3  4  2  0  0  0  0
  3 11  1  0  0  0  0
  5  9  2  0  0  0  0
  6  8  1  0  0  0  0
  7  2  2  0  0  0  0
  8  5  1  0  0  0  0
 10  8  2  0  0  0  0
 10  7  1  0  0  0  0
 11 10  1  0  0  0  0
 12  6  1  6  0  0  0
 12 14  1  0  0  0  0
 13 12  1  0  0  0  0
 13 14  1  0  0  0  0
 14 15  1  1  0  0  0
 15 16  1  0  0  0  0
 17 16  1  6  0  0  0
 17 18  1  0  0  0  0
 17 20  1  0  0  0  0
 18 19  1  0  0  0  0
 20 21  1  0  0  0  0
 22  3  1  0  0  0  0
 24 25  1  0  0  0  0
 25 22  1  0  0  0  0
 25 23  2  0  0  0  0
 26 24  1  0  0  0  0
 27 29  1  0  0  0  0
 28 29  2  0  0  0  0
 28 26  1  0  0  0  0
 30 27  2  0  0  0  0
 31 28  1  0  0  0  0
 32 30  1  0  0  0  0
 32 31  2  0  0  0  0
M  END
>  <MODEL>
9

>  <REMARK>
 VINA RESULT:      -7.6      3.495      6.888
  Name = 
  10 active torsions:
  status: ('A' for Active; 'I' for Inactive)
    1  A    between atoms: C_1  and  C_5
    2  A    between atoms: N_3  and  C_14
    3  A    between atoms: N_3  and  N_27
    4  A    between atoms: C_5  and  N_16
    5  A    between atoms: C_5  and  C_25
    6  A    between atoms: C_6  and  C_9
    7  A    between atoms: C_6  and  C_30
    8  A    between atoms: C_8  and  C_17
    9  A    between atoms: C_21  and  C_25
   10  A    between atoms: C_21  and  C_28
                            x       y       z     vdW  Elec       q    Type
                         _______ _______ _______ _____ _____    ______ ____

>  <TORSDO>
F 10

$$$$
