=
 OpenBabel11032420343D

 69 75  0  0  1  0  0  0  0  0999 V2000
  184.3280  175.4450  136.2430 C   0  0  0  0  0  0  0  0  0  0  0  0
  186.6970  178.1020  136.3960 C   0  0  2  0  0  3  0  0  0  0  0  0
  187.5740  175.8940  135.4570 C   0  0  1  0  0  3  0  0  0  0  0  0
  179.4220  173.3800  134.5980 F   0  0  0  0  0  0  0  0  0  0  0  0
  183.1020  174.8800  136.0890 C   0  0  0  0  0  0  0  0  0  0  0  0
  181.6430  172.9550  135.2480 C   0  0  0  0  0  0  0  0  0  0  0  0
  185.5840  174.6150  136.2720 C   0  0  0  0  0  2  0  0  0  0  0  0
  182.8930  173.4250  135.8760 C   0  0  0  0  0  0  0  0  0  0  0  0
  185.5570  177.4440  137.1830 C   0  0  1  0  0  3  0  0  0  0  0  0
  181.8750  175.7280  136.1180 C   0  0  0  0  0  0  0  0  0  0  0  0
  180.5280  175.0810  135.9350 C   0  0  0  0  0  2  0  0  0  0  0  0
  180.5690  173.7720  135.1970 C   0  0  0  0  0  0  0  0  0  0  0  0
  183.5330  178.4730  137.8510 C   0  0  1  0  0  3  0  0  0  0  0  0
  183.2520  177.5760  136.7510 N   0  0  0  0  0  0  0  0  0  0  0  0
  180.7340  177.8530  136.6880 C   0  0  0  0  0  1  0  0  0  0  0  0
  184.9730  178.4190  138.1110 N   0  0  0  0  0  2  0  0  0  0  0  0
  187.1240  177.3180  135.1460 C   0  0  0  0  0  2  0  0  0  0  0  0
  184.4540  176.9550  136.2570 C   0  0  2  0  0  3  0  0  0  0  0  0
  183.7610  172.5820  136.2220 O   0  0  0  0  0  0  0  0  0  0  0  0
  181.9590  177.0150  136.4940 C   0  0  0  0  0  0  0  0  0  0  0  0
  186.4860  174.8930  135.0800 C   0  0  0  0  0  2  0  0  0  0  0  0
  188.2680  177.4920  138.1590 C   0  0  0  0  0  0  0  0  0  0  0  0
  188.6610  176.6000  139.0280 C   0  0  0  0  0  3  0  0  0  0  0  0
  187.8630  178.3790  137.2930 C   0  0  0  0  0  3  0  0  0  0  0  0
  189.9720  176.7220  139.7300 C   0  0  1  0  0  3  0  0  0  0  0  0
  191.4070  175.4790  138.2390 O   0  0  0  0  0  1  0  0  0  0  0  0
  191.1380  176.7560  138.7370 C   0  0  0  0  0  2  0  0  0  0  0  0
  189.9520  177.9600  140.6170 C   0  0  0  0  0  2  0  0  0  0  0  0
  187.8200  177.5620  141.7760 O   0  0  0  0  0  0  0  0  0  0  0  0
  188.3100  178.7420  142.2010 O   0  0  0  0  0  0  0  0  0  0  0  0
  189.1820  177.7180  141.9070 C   0  0  0  0  0  0  0  0  0  0  0  0
  189.8590  177.1260  143.1530 C   0  0  1  0  0  3  0  0  0  0  0  0
  190.6990  175.0710  143.0620 C   0  0  0  0  0  1  0  0  0  0  0  0
  191.0000  176.4050  142.7750 O   0  0  0  0  0  0  0  0  0  0  0  0
  191.6630  178.5840  144.1960 C   0  0  0  0  0  1  0  0  0  0  0  0
  190.1910  178.1840  144.2180 C   0  0  2  0  0  3  0  0  0  0  0  0
  188.4980  177.1160  145.5710 O   0  0  0  0  0  1  0  0  0  0  0  0
  189.7770  177.6820  145.6050 C   0  0  1  0  0  3  0  0  0  0  0  0
  190.8000  176.6890  146.1460 C   0  0  0  0  0  2  0  0  0  0  0  0
  192.2840  176.2630  147.9820 O   0  0  0  0  0  1  0  0  0  0  0  0
  191.1410  176.9730  147.6010 C   0  0  0  0  0  2  0  0  0  0  0  0
  190.0430  175.6230  135.3720 C   0  0  0  0  0  2  0  0  0  0  0  0
  188.8630  175.5750  134.7540 C   0  0  0  0  0  3  0  0  0  0  0  0
  183.1360  179.8960  137.4840 C   0  0  0  0  0  2  0  0  0  0  0  0
  182.4060  181.6450  138.9410 O   0  0  0  0  0  1  0  0  0  0  0  0
  182.0460  180.4010  138.4120 C   0  0  1  0  0  3  0  0  0  0  0  0
  180.7550  180.5320  137.6260 C   0  0  0  0  0  2  0  0  0  0  0  0
  179.8460  181.5580  138.2820 C   0  0  1  0  0  3  0  0  0  0  0  0
  178.9380  182.1500  137.2140 C   0  0  0  0  0  1  0  0  0  0  0  0
  178.9830  177.2990  140.2630 C   0  0  0  0  0  2  0  0  0  0  0  0
  181.2870  177.9880  141.0930 N   0  0  0  0  0  2  0  0  0  0  0  0
  179.5470  179.7590  141.3260 C   0  0  2  0  0  3  0  0  0  0  0  0
  179.0230  180.9110  139.4010 C   0  0  2  0  0  3  0  0  0  0  0  0
  178.9390  178.5330  139.3430 C   0  0  0  0  0  2  0  0  0  0  0  0
  178.9420  181.8410  140.6030 C   0  0  0  0  0  2  0  0  0  0  0  0
  179.6710  179.6940  139.8730 N   0  0  2  0  0  0  0  0  0  0  0  0
  179.5610  181.1550  141.7240 N   0  0  0  0  0  2  0  0  0  0  0  0
  180.6800  178.9800  141.9980 C   0  0  1  0  0  3  0  0  0  0  0  0
  180.3940  176.8780  140.7100 C   0  0  0  0  0  2  0  0  0  0  0  0
  180.2070  178.3550  143.3040 C   0  0  0  0  0  2  0  0  0  0  0  0
  181.3780  178.1830  144.2570 C   0  0  0  0  0  2  0  0  0  0  0  0
  182.4180  179.2700  144.0280 C   0  0  0  0  0  2  0  0  0  0  0  0
  184.6120  178.4000  143.6800 O   0  0  0  0  0  0  0  0  0  0  0  0
  184.0910  178.9290  145.8480 O   0  0  0  0  0  1  0  0  0  0  0  0
  183.7630  178.8270  144.5030 C   0  0  0  0  0  0  0  0  0  0  0  0
  181.6450  171.6430  134.6590 N   0  0  0  0  0  2  0  0  0  0  0  0
  180.7360  170.5510  134.9870 C   0  0  0  0  0  2  0  0  0  0  0  0
  179.0780  171.0010  136.7100 N   0  0  0  0  0  1  0  0  0  0  0  0
  180.4350  170.5420  136.4760 C   0  0  0  0  0  2  0  0  0  0  0  0
  1  7  1  0  0  0  0
  2  9  1  0  0  0  0
  2 24  1  1  0  0  0
  3 43  1  6  0  0  0
  4 12  1  0  0  0  0
  5 10  1  0  0  0  0
  5  1  2  0  0  0  0
  6  8  1  0  0  0  0
  8  5  1  0  0  0  0
  8 19  2  0  0  0  0
  9 16  1  1  0  0  0
 10 20  2  0  0  0  0
 11 10  1  0  0  0  0
 12  6  2  0  0  0  0
 12 11  1  0  0  0  0
 13 44  1  6  0  0  0
 13 16  1  0  0  0  0
 14 13  1  0  0  0  0
 17  3  1  0  0  0  0
 17  2  1  0  0  0  0
 18  1  1  1  0  0  0
 18 14  1  0  0  0  0
 18  9  1  0  0  0  0
 20 15  1  0  0  0  0
 20 14  1  0  0  0  0
 21  3  1  0  0  0  0
 21  7  1  0  0  0  0
 22 23  2  0  0  0  0
 23 25  1  0  0  0  0
 24 22  2  0  0  0  0
 25 27  1  6  0  0  0
 25 28  1  0  0  0  0
 26 27  1  0  0  0  0
 28 31  1  0  0  0  0
 29 31  1  0  0  0  0
 29 30  1  0  0  0  0
 31 30  1  0  0  0  0
 31 32  1  0  0  0  0
 32 34  1  6  0  0  0
 32 36  1  0  0  0  0
 34 33  1  0  0  0  0
 36 35  1  1  0  0  0
 36 38  1  0  0  0  0
 38 37  1  6  0  0  0
 38 39  1  0  0  0  0
 39 41  1  0  0  0  0
 41 40  1  0  0  0  0
 43 42  2  0  0  0  0
 44 46  1  0  0  0  0
 46 45  1  6  0  0  0
 47 48  1  0  0  0  0
 47 46  1  0  0  0  0
 48 49  1  6  0  0  0
 50 59  1  0  0  0  0
 51 58  1  0  0  0  0
 52 57  1  1  0  0  0
 52 58  1  0  0  0  0
 53 48  1  6  0  0  0
 53 56  1  0  0  0  0
 53 55  1  0  0  0  0
 54 50  1  0  0  0  0
 55 57  1  0  0  0  0
 56 54  1  6  0  0  0
 56 52  1  0  0  0  0
 58 60  1  1  0  0  0
 59 51  1  0  0  0  0
 60 61  1  0  0  0  0
 62 61  1  0  0  0  0
 62 65  1  0  0  0  0
 63 65  2  0  0  0  0
 65 64  1  0  0  0  0
 66 67  1  0  0  0  0
 66  6  1  0  0  0  0
 67 69  1  0  0  0  0
 69 68  1  0  0  0  0
M  END
>  <MODEL>
1

>  <REMARK>
 VINA RESULT:      -5.6      0.000      0.000
  Name = 
  24 active torsions:
  status: ('A' for Active; 'I' for Inactive)
    1  A    between atoms: C_3  and  C_53
    2  A    between atoms: C_5  and  C_13
    3  A    between atoms: C_7  and  C_43
    4  A    between atoms: C_7  and  C_67
    5  A    between atoms: C_11  and  N_26
    6  A    between atoms: C_21  and  C_43
    7  A    between atoms: N_26  and  C_27
    8  A    between atoms: C_27  and  C_48
    9  A    between atoms: C_28  and  C_41
   10  A    between atoms: C_30  and  C_35
   11  A    between atoms: C_30  and  C_38
   12  A    between atoms: C_32  and  C_44
   13  A    between atoms: C_32  and  C_55
   14  A    between atoms: C_33  and  C_35
   15  A    between atoms: C_33  and  C_41
   16  A    between atoms: C_37  and  O_40
   17  A    between atoms: C_37  and  C_66
   18  A    between atoms: C_37  and  C_67
   19  A    between atoms: C_43  and  C_65
   20  A    between atoms: C_44  and  C_51
   21  A    between atoms: C_51  and  C_62
   22  A    between atoms: C_59  and  C_60
   23  A    between atoms: C_59  and  C_66
   24  A    between atoms: C_60  and  C_69
                            x       y       z     vdW  Elec       q    Type
                         _______ _______ _______ _____ _____    ______ ____

>  <TORSDO>
F 24

$$$$
=
 OpenBabel11032420343D

 69 75  0  0  1  0  0  0  0  0999 V2000
  187.5060  177.6480  143.4090 C   0  0  0  0  0  0  0  0  0  0  0  0
  185.3310  178.9650  140.9140 C   0  0  2  0  0  3  0  0  0  0  0  0
  184.3850  178.9140  143.2880 C   0  0  1  0  0  3  0  0  0  0  0  0
  192.3800  177.6310  146.1090 F   0  0  0  0  0  0  0  0  0  0  0  0
  188.6980  177.3930  144.0110 C   0  0  0  0  0  0  0  0  0  0  0  0
  190.0840  177.1160  146.1420 C   0  0  0  0  0  0  0  0  0  0  0  0
  186.1970  177.3940  144.1070 C   0  0  0  0  0  2  0  0  0  0  0  0
  188.8200  176.9090  145.4100 C   0  0  0  0  0  0  0  0  0  0  0  0
  186.3450  177.8450  141.1730 C   0  0  1  0  0  3  0  0  0  0  0  0
  189.9750  177.6070  143.2710 C   0  0  0  0  0  0  0  0  0  0  0  0
  191.2830  177.3280  143.9620 C   0  0  0  0  0  2  0  0  0  0  0  0
  191.2140  177.4040  145.4620 C   0  0  0  0  0  0  0  0  0  0  0  0
  188.3680  177.4810  140.0010 C   0  0  1  0  0  3  0  0  0  0  0  0
  188.6820  178.0260  141.3040 N   0  0  0  0  0  0  0  0  0  0  0  0
  191.2090  177.9210  141.1440 C   0  0  0  0  0  1  0  0  0  0  0  0
  186.9110  177.3900  139.8980 N   0  0  0  0  0  2  0  0  0  0  0  0
  184.9630  179.7740  142.1680 C   0  0  0  0  0  2  0  0  0  0  0  0
  187.4890  178.3230  142.0530 C   0  0  2  0  0  3  0  0  0  0  0  0
  187.8650  176.3240  145.9860 O   0  0  0  0  0  0  0  0  0  0  0  0
  189.9500  177.8570  141.9510 C   0  0  0  0  0  0  0  0  0  0  0  0
  185.4280  178.6790  144.3760 C   0  0  0  0  0  2  0  0  0  0  0  0
  183.4110  179.1700  139.4240 C   0  0  0  0  0  0  0  0  0  0  0  0
  182.7130  179.9250  138.6200 C   0  0  0  0  0  3  0  0  0  0  0  0
  184.1120  178.4250  140.2350 C   0  0  0  0  0  3  0  0  0  0  0  0
  181.6720  179.3490  137.7180 C   0  0  1  0  0  3  0  0  0  0  0  0
  181.2010  181.7080  137.5050 O   0  0  0  0  0  1  0  0  0  0  0  0
  180.8970  180.4480  136.9840 C   0  0  0  0  0  2  0  0  0  0  0  0
  182.3320  178.3790  136.7470 C   0  0  0  0  0  2  0  0  0  0  0  0
  180.5010  177.1260  135.6880 O   0  0  0  0  0  0  0  0  0  0  0  0
  180.2230  177.2390  137.0010 O   0  0  0  0  0  0  0  0  0  0  0  0
  181.5310  177.0930  136.6010 C   0  0  0  0  0  0  0  0  0  0  0  0
  182.1270  175.7250  136.9680 C   0  0  1  0  0  3  0  0  0  0  0  0
  180.8110  174.3480  138.1130 C   0  0  0  0  0  1  0  0  0  0  0  0
  181.1540  174.7280  136.8130 O   0  0  0  0  0  0  0  0  0  0  0  0
  183.1450  174.3830  135.0630 C   0  0  0  0  0  1  0  0  0  0  0  0
  183.4020  175.3920  136.1770 C   0  0  2  0  0  3  0  0  0  0  0  0
  184.0240  173.8520  137.9330 O   0  0  0  0  0  1  0  0  0  0  0  0
  184.4960  174.8960  137.1290 C   0  0  1  0  0  3  0  0  0  0  0  0
  185.7340  174.4680  136.3500 C   0  0  0  0  0  2  0  0  0  0  0  0
  187.2360  175.1400  134.6030 O   0  0  0  0  0  1  0  0  0  0  0  0
  186.3070  175.6170  135.5330 C   0  0  0  0  0  2  0  0  0  0  0  0
  182.2680  178.8500  144.5860 C   0  0  0  0  0  2  0  0  0  0  0  0
  183.1470  179.5410  143.8590 C   0  0  0  0  0  3  0  0  0  0  0  0
  188.8990  178.3970  138.9070 C   0  0  0  0  0  2  0  0  0  0  0  0
  187.8190  178.6280  136.7860 O   0  0  0  0  0  1  0  0  0  0  0  0
  188.6510  177.7910  137.5380 C   0  0  1  0  0  3  0  0  0  0  0  0
  189.9810  177.6210  136.8290 C   0  0  0  0  0  2  0  0  0  0  0  0
  190.0430  176.2610  136.1530 C   0  0  1  0  0  3  0  0  0  0  0  0
  190.6490  176.4380  134.7690 C   0  0  0  0  0  1  0  0  0  0  0  0
  192.4140  172.1320  135.7660 C   0  0  0  0  0  2  0  0  0  0  0  0
  193.8960  173.8800  134.6620 N   0  0  0  0  0  2  0  0  0  0  0  0
  193.0500  174.5350  136.9160 C   0  0  2  0  0  3  0  0  0  0  0  0
  190.8710  175.2800  136.9910 C   0  0  2  0  0  3  0  0  0  0  0  0
  191.3030  173.1820  135.9530 C   0  0  0  0  0  2  0  0  0  0  0  0
  191.7160  176.0350  138.0070 C   0  0  0  0  0  2  0  0  0  0  0  0
  191.8080  174.5510  136.1470 N   0  0  2  0  0  0  0  0  0  0  0  0
  193.1090  175.7460  137.7140 N   0  0  0  0  0  2  0  0  0  0  0  0
  194.2580  174.4270  135.9830 C   0  0  1  0  0  3  0  0  0  0  0  0
  193.4490  172.4740  134.6820 C   0  0  0  0  0  2  0  0  0  0  0  0
  195.3830  173.6400  136.6430 C   0  0  0  0  0  2  0  0  0  0  0  0
  196.4910  174.5810  137.0870 C   0  0  0  0  0  2  0  0  0  0  0  0
  197.0220  175.3760  135.9040 C   0  0  0  0  0  2  0  0  0  0  0  0
  198.2010  173.4050  135.2560 O   0  0  0  0  0  1  0  0  0  0  0  0
  199.1550  175.3850  134.6080 O   0  0  0  0  0  0  0  0  0  0  0  0
  198.1620  174.6630  135.2540 C   0  0  0  0  0  0  0  0  0  0  0  0
  190.0410  177.0540  147.5780 N   0  0  0  0  0  2  0  0  0  0  0  0
  189.5520  178.0990  148.4710 C   0  0  0  0  0  2  0  0  0  0  0  0
  187.3580  179.0610  148.0520 N   0  0  0  0  0  1  0  0  0  0  0  0
  188.0550  177.9560  148.6830 C   0  0  0  0  0  2  0  0  0  0  0  0
  1  5  2  0  0  0  0
  1  7  1  0  0  0  0
  2 24  1  1  0  0  0
  2  9  1  0  0  0  0
  2 17  1  0  0  0  0
  3 43  1  1  0  0  0
  3 21  1  0  0  0  0
  5  8  1  0  0  0  0
  6 66  1  0  0  0  0
  7 21  1  0  0  0  0
  8 19  2  0  0  0  0
  8  6  1  0  0  0  0
  9 16  1  6  0  0  0
  9 18  1  0  0  0  0
 10 11  1  0  0  0  0
 10  5  1  0  0  0  0
 11 12  1  0  0  0  0
 12  4  1  0  0  0  0
 12  6  2  0  0  0  0
 13 44  1  6  0  0  0
 13 14  1  0  0  0  0
 14 20  1  0  0  0  0
 14 18  1  0  0  0  0
 15 20  1  0  0  0  0
 16 13  1  0  0  0  0
 17  3  1  0  0  0  0
 18  1  1  1  0  0  0
 20 10  2  0  0  0  0
 22 24  2  0  0  0  0
 23 22  2  0  0  0  0
 25 28  1  6  0  0  0
 25 23  1  0  0  0  0
 27 26  1  0  0  0  0
 27 25  1  0  0  0  0
 29 31  1  0  0  0  0
 29 30  1  0  0  0  0
 31 28  1  0  0  0  0
 31 32  1  0  0  0  0
 31 30  1  0  0  0  0
 32 34  1  6  0  0  0
 34 33  1  0  0  0  0
 36 35  1  6  0  0  0
 36 32  1  0  0  0  0
 36 38  1  0  0  0  0
 38 37  1  6  0  0  0
 39 38  1  0  0  0  0
 40 41  1  0  0  0  0
 41 39  1  0  0  0  0
 43 42  2  0  0  0  0
 46 45  1  6  0  0  0
 46 44  1  0  0  0  0
 47 46  1  0  0  0  0
 48 49  1  6  0  0  0
 48 47  1  0  0  0  0
 50 54  1  0  0  0  0
 51 59  1  0  0  0  0
 51 58  1  0  0  0  0
 52 57  1  6  0  0  0
 53 48  1  6  0  0  0
 53 55  1  0  0  0  0
 56 54  1  1  0  0  0
 56 52  1  0  0  0  0
 56 53  1  0  0  0  0
 57 55  1  0  0  0  0
 58 60  1  1  0  0  0
 58 52  1  0  0  0  0
 59 50  1  0  0  0  0
 60 61  1  0  0  0  0
 62 61  1  0  0  0  0
 64 65  2  0  0  0  0
 65 63  1  0  0  0  0
 65 62  1  0  0  0  0
 66 67  1  0  0  0  0
 67 69  1  0  0  0  0
 68 69  1  0  0  0  0
M  END
>  <MODEL>
2

>  <REMARK>
 VINA RESULT:      -5.6      4.569     12.185
  Name = 
  24 active torsions:
  status: ('A' for Active; 'I' for Inactive)
    1  A    between atoms: C_3  and  C_53
    2  A    between atoms: C_5  and  C_13
    3  A    between atoms: C_7  and  C_43
    4  A    between atoms: C_7  and  C_67
    5  A    between atoms: C_11  and  N_26
    6  A    between atoms: C_21  and  C_43
    7  A    between atoms: N_26  and  C_27
    8  A    between atoms: C_27  and  C_48
    9  A    between atoms: C_28  and  C_41
   10  A    between atoms: C_30  and  C_35
   11  A    between atoms: C_30  and  C_38
   12  A    between atoms: C_32  and  C_44
   13  A    between atoms: C_32  and  C_55
   14  A    between atoms: C_33  and  C_35
   15  A    between atoms: C_33  and  C_41
   16  A    between atoms: C_37  and  O_40
   17  A    between atoms: C_37  and  C_66
   18  A    between atoms: C_37  and  C_67
   19  A    between atoms: C_43  and  C_65
   20  A    between atoms: C_44  and  C_51
   21  A    between atoms: C_51  and  C_62
   22  A    between atoms: C_59  and  C_60
   23  A    between atoms: C_59  and  C_66
   24  A    between atoms: C_60  and  C_69
                            x       y       z     vdW  Elec       q    Type
                         _______ _______ _______ _____ _____    ______ ____

>  <TORSDO>
F 24

$$$$
=
 OpenBabel11032420343D

 69 75  0  0  1  0  0  0  0  0999 V2000
  187.4640  177.5830  142.9440 C   0  0  0  0  0  0  0  0  0  0  0  0
  185.4550  178.9530  140.3390 C   0  0  2  0  0  3  0  0  0  0  0  0
  184.3400  178.8070  142.6340 C   0  0  1  0  0  3  0  0  0  0  0  0
  192.1280  177.5450  145.9920 F   0  0  0  0  0  0  0  0  0  0  0  0
  188.6130  177.3260  143.6230 C   0  0  0  0  0  0  0  0  0  0  0  0
  189.8450  176.9970  145.8400 C   0  0  0  0  0  0  0  0  0  0  0  0
  186.1120  177.2870  143.5340 C   0  0  0  0  0  2  0  0  0  0  0  0
  188.6410  176.7970  145.0100 C   0  0  0  0  0  0  0  0  0  0  0  0
  186.4660  177.8380  140.6350 C   0  0  1  0  0  3  0  0  0  0  0  0
  189.9370  177.5820  142.9860 C   0  0  0  0  0  0  0  0  0  0  0  0
  191.1960  177.3000  143.7620 C   0  0  0  0  0  2  0  0  0  0  0  0
  191.0160  177.3240  145.2540 C   0  0  0  0  0  0  0  0  0  0  0  0
  188.5760  177.5440  139.6040 C   0  0  1  0  0  3  0  0  0  0  0  0
  188.7850  178.0490  140.9440 N   0  0  0  0  0  0  0  0  0  0  0  0
  191.3180  177.9860  140.9670 C   0  0  0  0  0  1  0  0  0  0  0  0
  187.1320  177.4350  139.3910 N   0  0  0  0  0  2  0  0  0  0  0  0
  184.9830  179.7130  141.5880 C   0  0  0  0  0  2  0  0  0  0  0  0
  187.5350  178.3040  141.6120 C   0  0  2  0  0  3  0  0  0  0  0  0
  187.6570  176.1790  145.4950 O   0  0  0  0  0  0  0  0  0  0  0  0
  190.0050  177.8770  141.6760 C   0  0  0  0  0  0  0  0  0  0  0  0
  185.3040  178.5510  143.7870 C   0  0  0  0  0  2  0  0  0  0  0  0
  183.1650  179.0620  139.5110 C   0  0  0  0  0  0  0  0  0  0  0  0
  182.0310  179.7100  139.4790 C   0  0  0  0  0  3  0  0  0  0  0  0
  184.2980  178.4180  139.5550 C   0  0  0  0  0  3  0  0  0  0  0  0
  180.9640  179.3630  138.4950 C   0  0  1  0  0  3  0  0  0  0  0  0
  179.7360  180.8680  137.0610 O   0  0  0  0  0  1  0  0  0  0  0  0
  179.9170  180.4770  138.3890 C   0  0  0  0  0  2  0  0  0  0  0  0
  181.6040  179.0610  137.1460 C   0  0  0  0  0  2  0  0  0  0  0  0
  179.9190  177.6820  136.0030 O   0  0  0  0  0  0  0  0  0  0  0  0
  180.0590  177.2120  137.2580 O   0  0  0  0  0  0  0  0  0  0  0  0
  181.1600  177.7120  136.6000 C   0  0  0  0  0  0  0  0  0  0  0  0
  182.1740  176.6250  136.2090 C   0  0  1  0  0  3  0  0  0  0  0  0
  183.8030  177.2080  134.8150 C   0  0  0  0  0  1  0  0  0  0  0  0
  183.4640  177.1730  136.1700 O   0  0  0  0  0  0  0  0  0  0  0  0
  182.9800  175.5540  138.3710 C   0  0  0  0  0  1  0  0  0  0  0  0
  182.1160  175.3910  137.1250 C   0  0  2  0  0  3  0  0  0  0  0  0
  183.8960  173.9350  136.3820 O   0  0  0  0  0  1  0  0  0  0  0  0
  182.5120  174.1360  136.3400 C   0  0  1  0  0  3  0  0  0  0  0  0
  181.7660  172.9150  136.8660 C   0  0  0  0  0  2  0  0  0  0  0  0
  182.9920  170.8820  137.2120 O   0  0  0  0  0  1  0  0  0  0  0  0
  182.2970  171.6280  136.2550 C   0  0  0  0  0  2  0  0  0  0  0  0
  182.4040  178.9040  144.1890 C   0  0  0  0  0  2  0  0  0  0  0  0
  183.0520  179.3970  143.1330 C   0  0  0  0  0  3  0  0  0  0  0  0
  189.1690  178.5040  138.5820 C   0  0  0  0  0  2  0  0  0  0  0  0
  188.5350  179.2740  136.4100 O   0  0  0  0  0  1  0  0  0  0  0  0
  188.7370  178.1220  137.1790 C   0  0  1  0  0  3  0  0  0  0  0  0
  189.8190  177.2680  136.5470 C   0  0  0  0  0  2  0  0  0  0  0  0
  189.3900  175.8100  136.5280 C   0  0  1  0  0  3  0  0  0  0  0  0
  189.1390  175.4000  135.0840 C   0  0  0  0  0  1  0  0  0  0  0  0
  193.0720  173.0040  135.3520 C   0  0  0  0  0  2  0  0  0  0  0  0
  193.9040  175.3880  135.0530 N   0  0  0  0  0  2  0  0  0  0  0  0
  192.7660  174.9710  137.2330 C   0  0  2  0  0  3  0  0  0  0  0  0
  190.4640  174.9240  137.1690 C   0  0  2  0  0  3  0  0  0  0  0  0
  191.6560  173.5290  135.6540 C   0  0  0  0  0  2  0  0  0  0  0  0
  190.9360  175.5310  138.4820 C   0  0  0  0  0  2  0  0  0  0  0  0
  191.6390  174.8440  136.3130 N   0  0  2  0  0  0  0  0  0  0  0  0
  192.3550  175.8090  138.3450 N   0  0  0  0  0  2  0  0  0  0  0  0
  193.9820  175.5600  136.5150 C   0  0  1  0  0  3  0  0  0  0  0  0
  193.9770  173.9890  134.5940 C   0  0  0  0  0  2  0  0  0  0  0  0
  195.2760  174.9980  137.0920 C   0  0  0  0  0  2  0  0  0  0  0  0
  196.1670  174.4820  135.9740 C   0  0  0  0  0  2  0  0  0  0  0  0
  197.3900  173.7810  136.5470 C   0  0  0  0  0  2  0  0  0  0  0  0
  199.1800  175.0800  135.6510 O   0  0  0  0  0  1  0  0  0  0  0  0
  199.0430  172.9250  134.8850 O   0  0  0  0  0  0  0  0  0  0  0  0
  198.5770  173.9760  135.6620 C   0  0  0  0  0  0  0  0  0  0  0  0
  189.6980  176.8850  147.2660 N   0  0  0  0  0  2  0  0  0  0  0  0
  189.4140  177.9780  148.1900 C   0  0  0  0  0  2  0  0  0  0  0  0
  187.1600  178.7070  147.6360 N   0  0  0  0  0  1  0  0  0  0  0  0
  187.9510  177.9600  148.5980 C   0  0  0  0  0  2  0  0  0  0  0  0
  1  7  1  0  0  0  0
  1  5  2  0  0  0  0
  2 24  1  1  0  0  0
  2  9  1  0  0  0  0
  2 17  1  0  0  0  0
  3 43  1  1  0  0  0
  3 21  1  0  0  0  0
  5  8  1  0  0  0  0
  6 66  1  0  0  0  0
  7 21  1  0  0  0  0
  8 19  2  0  0  0  0
  8  6  1  0  0  0  0
  9 16  1  6  0  0  0
  9 18  1  0  0  0  0
 10  5  1  0  0  0  0
 10 11  1  0  0  0  0
 11 12  1  0  0  0  0
 12  6  2  0  0  0  0
 12  4  1  0  0  0  0
 13 44  1  6  0  0  0
 13 14  1  0  0  0  0
 14 18  1  0  0  0  0
 14 20  1  0  0  0  0
 15 20  1  0  0  0  0
 16 13  1  0  0  0  0
 17  3  1  0  0  0  0
 18  1  1  1  0  0  0
 20 10  2  0  0  0  0
 22 24  2  0  0  0  0
 23 22  2  0  0  0  0
 25 28  1  6  0  0  0
 25 23  1  0  0  0  0
 26 27  1  0  0  0  0
 27 25  1  0  0  0  0
 29 31  1  0  0  0  0
 29 30  1  0  0  0  0
 31 28  1  0  0  0  0
 31 30  1  0  0  0  0
 32 34  1  1  0  0  0
 32 31  1  0  0  0  0
 32 36  1  0  0  0  0
 33 34  1  0  0  0  0
 36 35  1  1  0  0  0
 38 37  1  1  0  0  0
 38 39  1  0  0  0  0
 38 36  1  0  0  0  0
 41 39  1  0  0  0  0
 41 40  1  0  0  0  0
 43 42  2  0  0  0  0
 46 45  1  6  0  0  0
 46 44  1  0  0  0  0
 47 46  1  0  0  0  0
 48 49  1  6  0  0  0
 48 47  1  0  0  0  0
 50 54  1  0  0  0  0
 51 58  1  0  0  0  0
 52 57  1  1  0  0  0
 53 48  1  6  0  0  0
 53 55  1  0  0  0  0
 56 54  1  1  0  0  0
 56 53  1  0  0  0  0
 56 52  1  0  0  0  0
 57 55  1  0  0  0  0
 58 60  1  1  0  0  0
 58 52  1  0  0  0  0
 59 51  1  0  0  0  0
 59 50  1  0  0  0  0
 61 62  1  0  0  0  0
 61 60  1  0  0  0  0
 63 65  1  0  0  0  0
 64 65  2  0  0  0  0
 65 62  1  0  0  0  0
 66 67  1  0  0  0  0
 67 69  1  0  0  0  0
 68 69  1  0  0  0  0
M  END
>  <MODEL>
3

>  <REMARK>
 VINA RESULT:      -5.3      4.491     12.150
  Name = 
  24 active torsions:
  status: ('A' for Active; 'I' for Inactive)
    1  A    between atoms: C_3  and  C_53
    2  A    between atoms: C_5  and  C_13
    3  A    between atoms: C_7  and  C_43
    4  A    between atoms: C_7  and  C_67
    5  A    between atoms: C_11  and  N_26
    6  A    between atoms: C_21  and  C_43
    7  A    between atoms: N_26  and  C_27
    8  A    between atoms: C_27  and  C_48
    9  A    between atoms: C_28  and  C_41
   10  A    between atoms: C_30  and  C_35
   11  A    between atoms: C_30  and  C_38
   12  A    between atoms: C_32  and  C_44
   13  A    between atoms: C_32  and  C_55
   14  A    between atoms: C_33  and  C_35
   15  A    between atoms: C_33  and  C_41
   16  A    between atoms: C_37  and  O_40
   17  A    between atoms: C_37  and  C_66
   18  A    between atoms: C_37  and  C_67
   19  A    between atoms: C_43  and  C_65
   20  A    between atoms: C_44  and  C_51
   21  A    between atoms: C_51  and  C_62
   22  A    between atoms: C_59  and  C_60
   23  A    between atoms: C_59  and  C_66
   24  A    between atoms: C_60  and  C_69
                            x       y       z     vdW  Elec       q    Type
                         _______ _______ _______ _____ _____    ______ ____

>  <TORSDO>
F 24

$$$$
=
 OpenBabel11032420343D

 69 75  0  0  1  0  0  0  0  0999 V2000
  187.2700  177.5440  143.3100 C   0  0  0  0  0  0  0  0  0  0  0  0
  185.4040  179.0290  140.6630 C   0  0  2  0  0  3  0  0  0  0  0  0
  184.1900  178.8510  142.9050 C   0  0  1  0  0  3  0  0  0  0  0  0
  191.7990  177.3160  146.5480 F   0  0  0  0  0  0  0  0  0  0  0  0
  188.3820  177.2420  144.0290 C   0  0  0  0  0  0  0  0  0  0  0  0
  189.5120  176.8260  146.2860 C   0  0  0  0  0  0  0  0  0  0  0  0
  185.8870  177.2650  143.8360 C   0  0  0  0  0  2  0  0  0  0  0  0
  188.3390  176.6770  145.4020 C   0  0  0  0  0  0  0  0  0  0  0  0
  186.3750  177.8830  140.9700 C   0  0  1  0  0  3  0  0  0  0  0  0
  189.7380  177.4830  143.4550 C   0  0  0  0  0  0  0  0  0  0  0  0
  190.9550  177.1510  144.2750 C   0  0  0  0  0  2  0  0  0  0  0  0
  190.7140  177.1400  145.7590 C   0  0  0  0  0  0  0  0  0  0  0  0
  188.5190  177.5650  140.0200 C   0  0  1  0  0  3  0  0  0  0  0  0
  188.6830  178.0300  141.3800 N   0  0  0  0  0  0  0  0  0  0  0  0
  191.2110  177.9060  141.5070 C   0  0  0  0  0  1  0  0  0  0  0  0
  187.0830  177.4970  139.7450 N   0  0  0  0  0  2  0  0  0  0  0  0
  184.8970  179.7680  141.9110 C   0  0  0  0  0  2  0  0  0  0  0  0
  187.4120  178.2980  142.0030 C   0  0  2  0  0  3  0  0  0  0  0  0
  187.3220  176.0700  145.8290 O   0  0  0  0  0  0  0  0  0  0  0  0
  189.8670  177.8100  142.1580 C   0  0  0  0  0  0  0  0  0  0  0  0
  185.0990  178.5410  144.0900 C   0  0  0  0  0  2  0  0  0  0  0  0
  184.4770  177.7260  138.8220 C   0  0  0  0  0  0  0  0  0  0  0  0
  184.6970  176.9150  137.8220 C   0  0  0  0  0  3  0  0  0  0  0  0
  184.2690  178.5430  139.8170 C   0  0  0  0  0  3  0  0  0  0  0  0
  183.5790  176.1950  137.1440 C   0  0  1  0  0  3  0  0  0  0  0  0
  183.8350  173.9040  136.4250 O   0  0  0  0  0  1  0  0  0  0  0  0
  184.1020  175.2300  136.0750 C   0  0  0  0  0  2  0  0  0  0  0  0
  182.7370  175.4760  138.1900 C   0  0  0  0  0  2  0  0  0  0  0  0
  180.4550  175.4910  139.1040 O   0  0  0  0  0  0  0  0  0  0  0  0
  180.4850  174.6220  138.0750 O   0  0  0  0  0  0  0  0  0  0  0  0
  181.2530  175.7620  138.0150 C   0  0  0  0  0  0  0  0  0  0  0  0
  180.7430  176.7800  136.9830 C   0  0  1  0  0  3  0  0  0  0  0  0
  180.1380  175.8620  135.0520 C   0  0  0  0  0  1  0  0  0  0  0  0
  179.6410  176.2490  136.2990 O   0  0  0  0  0  0  0  0  0  0  0  0
  178.9310  178.4870  137.5010 C   0  0  0  0  0  1  0  0  0  0  0  0
  180.4140  178.1490  137.6000 C   0  0  2  0  0  3  0  0  0  0  0  0
  181.4830  178.9650  135.5920 O   0  0  0  0  0  1  0  0  0  0  0  0
  181.2720  179.2390  136.9480 C   0  0  1  0  0  3  0  0  0  0  0  0
  180.6350  180.6100  137.1370 C   0  0  0  0  0  2  0  0  0  0  0  0
  180.8760  182.6890  138.3110 O   0  0  0  0  0  1  0  0  0  0  0  0
  181.2030  181.3300  138.3510 C   0  0  0  0  0  2  0  0  0  0  0  0
  181.8780  178.7180  143.8060 C   0  0  0  0  0  2  0  0  0  0  0  0
  182.8960  179.4580  143.3650 C   0  0  0  0  0  3  0  0  0  0  0  0
  189.1770  178.5370  139.0500 C   0  0  0  0  0  2  0  0  0  0  0  0
  188.2190  179.7430  137.2220 O   0  0  0  0  0  1  0  0  0  0  0  0
  188.5160  178.4570  137.6860 C   0  0  1  0  0  3  0  0  0  0  0  0
  189.4640  177.7710  136.7210 C   0  0  0  0  0  2  0  0  0  0  0  0
  188.7810  176.5740  136.0800 C   0  0  1  0  0  3  0  0  0  0  0  0
  188.5990  176.8600  134.5970 C   0  0  0  0  0  1  0  0  0  0  0  0
  192.8120  174.4820  134.5980 C   0  0  0  0  0  2  0  0  0  0  0  0
  193.5420  176.3360  136.1800 N   0  0  0  0  0  2  0  0  0  0  0  0
  191.7320  174.8760  137.0850 C   0  0  2  0  0  3  0  0  0  0  0  0
  189.6110  175.3030  136.2940 C   0  0  2  0  0  3  0  0  0  0  0  0
  191.3510  174.9570  134.7070 C   0  0  0  0  0  2  0  0  0  0  0  0
  189.5460  174.8670  137.7500 C   0  0  0  0  0  2  0  0  0  0  0  0
  191.0170  175.5560  136.0080 N   0  0  2  0  0  0  0  0  0  0  0  0
  190.9010  174.9030  138.2740 N   0  0  0  0  0  2  0  0  0  0  0  0
  193.0840  175.5470  137.3380 C   0  0  1  0  0  3  0  0  0  0  0  0
  193.8630  175.5370  134.9820 C   0  0  0  0  0  2  0  0  0  0  0  0
  194.1210  174.5230  137.7830 C   0  0  0  0  0  2  0  0  0  0  0  0
  195.3120  175.2240  138.4160 C   0  0  0  0  0  2  0  0  0  0  0  0
  196.0570  174.2780  139.3450 C   0  0  0  0  0  2  0  0  0  0  0  0
  197.5600  175.0170  141.0450 O   0  0  0  0  0  1  0  0  0  0  0  0
  198.2970  175.2820  138.8920 O   0  0  0  0  0  0  0  0  0  0  0  0
  197.3360  174.8920  139.8140 C   0  0  0  0  0  0  0  0  0  0  0  0
  189.3030  176.6820  147.7020 N   0  0  0  0  0  2  0  0  0  0  0  0
  188.5480  177.5910  148.5580 C   0  0  0  0  0  2  0  0  0  0  0  0
  187.1480  179.0820  147.2410 N   0  0  0  0  0  1  0  0  0  0  0  0
  188.4330  178.9580  147.9050 C   0  0  0  0  0  2  0  0  0  0  0  0
  1  7  1  0  0  0  0
  1  5  2  0  0  0  0
  2 24  1  1  0  0  0
  2  9  1  0  0  0  0
  2 17  1  0  0  0  0
  3 43  1  1  0  0  0
  3 21  1  0  0  0  0
  5  8  1  0  0  0  0
  6 66  1  0  0  0  0
  7 21  1  0  0  0  0
  8 19  2  0  0  0  0
  8  6  1  0  0  0  0
  9 16  1  6  0  0  0
  9 18  1  0  0  0  0
 10  5  1  0  0  0  0
 10 11  1  0  0  0  0
 11 12  1  0  0  0  0
 12  6  2  0  0  0  0
 12  4  1  0  0  0  0
 13 44  1  6  0  0  0
 13 14  1  0  0  0  0
 14 18  1  0  0  0  0
 14 20  1  0  0  0  0
 15 20  1  0  0  0  0
 16 13  1  0  0  0  0
 17  3  1  0  0  0  0
 18  1  1  1  0  0  0
 20 10  2  0  0  0  0
 22 24  2  0  0  0  0
 23 22  2  0  0  0  0
 25 27  1  6  0  0  0
 25 23  1  0  0  0  0
 25 28  1  0  0  0  0
 27 26  1  0  0  0  0
 30 29  1  0  0  0  0
 31 30  1  0  0  0  0
 31 28  1  0  0  0  0
 31 29  1  0  0  0  0
 32 34  1  1  0  0  0
 32 36  1  0  0  0  0
 32 31  1  0  0  0  0
 33 34  1  0  0  0  0
 36 35  1  6  0  0  0
 38 37  1  6  0  0  0
 38 39  1  0  0  0  0
 38 36  1  0  0  0  0
 39 41  1  0  0  0  0
 40 41  1  0  0  0  0
 43 42  2  0  0  0  0
 46 45  1  6  0  0  0
 46 44  1  0  0  0  0
 47 46  1  0  0  0  0
 48 49  1  6  0  0  0
 48 47  1  0  0  0  0
 50 54  1  0  0  0  0
 50 59  1  0  0  0  0
 51 58  1  0  0  0  0
 52 58  1  0  0  0  0
 52 57  1  1  0  0  0
 53 48  1  1  0  0  0
 53 55  1  0  0  0  0
 55 57  1  0  0  0  0
 56 54  1  6  0  0  0
 56 53  1  0  0  0  0
 56 52  1  0  0  0  0
 58 60  1  6  0  0  0
 59 51  1  0  0  0  0
 60 61  1  0  0  0  0
 61 62  1  0  0  0  0
 62 65  1  0  0  0  0
 64 65  2  0  0  0  0
 65 63  1  0  0  0  0
 66 67  1  0  0  0  0
 68 69  1  0  0  0  0
 69 67  1  0  0  0  0
M  END
>  <MODEL>
4

>  <REMARK>
 VINA RESULT:      -5.3      4.184     11.708
  Name = 
  24 active torsions:
  status: ('A' for Active; 'I' for Inactive)
    1  A    between atoms: C_3  and  C_53
    2  A    between atoms: C_5  and  C_13
    3  A    between atoms: C_7  and  C_43
    4  A    between atoms: C_7  and  C_67
    5  A    between atoms: C_11  and  N_26
    6  A    between atoms: C_21  and  C_43
    7  A    between atoms: N_26  and  C_27
    8  A    between atoms: C_27  and  C_48
    9  A    between atoms: C_28  and  C_41
   10  A    between atoms: C_30  and  C_35
   11  A    between atoms: C_30  and  C_38
   12  A    between atoms: C_32  and  C_44
   13  A    between atoms: C_32  and  C_55
   14  A    between atoms: C_33  and  C_35
   15  A    between atoms: C_33  and  C_41
   16  A    between atoms: C_37  and  O_40
   17  A    between atoms: C_37  and  C_66
   18  A    between atoms: C_37  and  C_67
   19  A    between atoms: C_43  and  C_65
   20  A    between atoms: C_44  and  C_51
   21  A    between atoms: C_51  and  C_62
   22  A    between atoms: C_59  and  C_60
   23  A    between atoms: C_59  and  C_66
   24  A    between atoms: C_60  and  C_69
                            x       y       z     vdW  Elec       q    Type
                         _______ _______ _______ _____ _____    ______ ____

>  <TORSDO>
F 24

$$$$
=
 OpenBabel11032420343D

 69 75  0  0  1  0  0  0  0  0999 V2000
  187.8710  177.5460  143.2290 C   0  0  0  0  0  0  0  0  0  0  0  0
  186.0710  178.7910  140.4180 C   0  0  2  0  0  3  0  0  0  0  0  0
  184.8620  178.9540  142.6640 C   0  0  1  0  0  3  0  0  0  0  0  0
  192.4010  177.4750  146.4720 F   0  0  0  0  0  0  0  0  0  0  0  0
  188.9710  177.2750  143.9800 C   0  0  0  0  0  0  0  0  0  0  0  0
  190.0900  177.0800  146.2720 C   0  0  0  0  0  0  0  0  0  0  0  0
  186.4790  177.4070  143.7850 C   0  0  0  0  0  2  0  0  0  0  0  0
  188.9060  176.8850  145.4120 C   0  0  0  0  0  0  0  0  0  0  0  0
  186.9820  177.6420  140.8650 C   0  0  1  0  0  3  0  0  0  0  0  0
  190.3340  177.3710  143.3820 C   0  0  0  0  0  0  0  0  0  0  0  0
  191.5370  177.0780  144.2370 C   0  0  0  0  0  2  0  0  0  0  0  0
  191.3040  177.2620  145.7100 C   0  0  0  0  0  0  0  0  0  0  0  0
  189.1010  177.0960  139.9620 C   0  0  1  0  0  3  0  0  0  0  0  0
  189.2970  177.7150  141.2550 N   0  0  0  0  0  0  0  0  0  0  0  0
  191.8150  177.4730  141.3970 C   0  0  0  0  0  1  0  0  0  0  0  0
  187.6610  177.0710  139.6960 N   0  0  0  0  0  2  0  0  0  0  0  0
  185.6110  179.7040  141.5660 C   0  0  0  0  0  2  0  0  0  0  0  0
  188.0460  178.1240  141.8390 C   0  0  2  0  0  3  0  0  0  0  0  0
  187.8610  176.3910  145.9100 O   0  0  0  0  0  0  0  0  0  0  0  0
  190.4720  177.5290  142.0540 C   0  0  0  0  0  0  0  0  0  0  0  0
  185.7610  178.7450  143.8790 C   0  0  0  0  0  2  0  0  0  0  0  0
  185.0160  178.0060  138.3650 C   0  0  0  0  0  0  0  0  0  0  0  0
  185.1340  177.7560  137.0880 C   0  0  0  0  0  3  0  0  0  0  0  0
  184.9060  178.2660  139.6380 C   0  0  0  0  0  3  0  0  0  0  0  0
  184.0980  176.9760  136.3490 C   0  0  1  0  0  3  0  0  0  0  0  0
  185.8240  176.9030  134.6630 O   0  0  0  0  0  1  0  0  0  0  0  0
  184.4420  176.8570  134.8610 C   0  0  0  0  0  2  0  0  0  0  0  0
  183.9380  175.6090  137.0020 C   0  0  0  0  0  2  0  0  0  0  0  0
  182.5050  173.6140  136.9080 O   0  0  0  0  0  0  0  0  0  0  0  0
  182.7450  174.0120  135.6450 O   0  0  0  0  0  0  0  0  0  0  0  0
  182.6120  174.9590  136.6350 C   0  0  0  0  0  0  0  0  0  0  0  0
  181.3160  175.7770  136.5180 C   0  0  1  0  0  3  0  0  0  0  0  0
  180.0270  176.5990  134.9060 C   0  0  0  0  0  1  0  0  0  0  0  0
  180.6350  175.4210  135.3460 O   0  0  0  0  0  0  0  0  0  0  0  0
  178.9310  175.6380  137.3890 C   0  0  0  0  0  1  0  0  0  0  0  0
  180.4120  175.6510  137.7540 C   0  0  2  0  0  3  0  0  0  0  0  0
  181.2260  177.9010  138.0920 O   0  0  0  0  0  1  0  0  0  0  0  0
  180.7240  176.7730  138.7500 C   0  0  1  0  0  3  0  0  0  0  0  0
  179.4890  177.1230  139.5710 C   0  0  0  0  0  2  0  0  0  0  0  0
  179.4430  177.6360  141.9150 O   0  0  0  0  0  1  0  0  0  0  0  0
  179.5930  176.5940  140.9940 C   0  0  0  0  0  2  0  0  0  0  0  0
  182.4140  179.0820  143.0710 C   0  0  0  0  0  2  0  0  0  0  0  0
  183.6050  179.6810  143.0460 C   0  0  0  0  0  3  0  0  0  0  0  0
  189.8030  177.9050  138.8800 C   0  0  0  0  0  2  0  0  0  0  0  0
  188.7600  179.5330  137.4750 O   0  0  0  0  0  1  0  0  0  0  0  0
  188.8670  178.1590  137.7130 C   0  0  1  0  0  3  0  0  0  0  0  0
  189.4200  177.4670  136.4810 C   0  0  0  0  0  2  0  0  0  0  0  0
  189.3610  175.9590  136.6580 C   0  0  1  0  0  3  0  0  0  0  0  0
  187.9050  175.5230  136.5990 C   0  0  0  0  0  1  0  0  0  0  0  0
  193.7470  175.9330  134.7680 C   0  0  0  0  0  2  0  0  0  0  0  0
  193.9560  174.7350  137.0020 N   0  0  0  0  0  2  0  0  0  0  0  0
  192.0680  173.9290  135.5840 C   0  0  2  0  0  3  0  0  0  0  0  0
  190.1860  175.2570  135.5730 C   0  0  2  0  0  3  0  0  0  0  0  0
  192.2790  176.2770  135.0820 C   0  0  0  0  0  2  0  0  0  0  0  0
  189.7900  173.7910  135.4720 C   0  0  0  0  0  2  0  0  0  0  0  0
  191.6010  175.2730  135.9170 N   0  0  2  0  0  0  0  0  0  0  0  0
  190.9690  173.0020  135.7820 N   0  0  0  0  0  2  0  0  0  0  0  0
  193.2740  173.5510  136.4470 C   0  0  1  0  0  3  0  0  0  0  0  0
  194.6080  175.5950  135.9970 C   0  0  0  0  0  2  0  0  0  0  0  0
  194.2280  172.6460  135.6770 C   0  0  0  0  0  2  0  0  0  0  0  0
  195.3250  172.1370  136.5970 C   0  0  0  0  0  2  0  0  0  0  0  0
  196.6920  172.3340  135.9590 C   0  0  0  0  0  2  0  0  0  0  0  0
  198.5160  173.8480  136.2340 O   0  0  0  0  0  0  0  0  0  0  0  0
  197.1510  173.6030  138.0590 O   0  0  0  0  0  1  0  0  0  0  0  0
  197.5160  173.2920  136.7570 C   0  0  0  0  0  0  0  0  0  0  0  0
  189.8820  177.1210  147.6940 N   0  0  0  0  0  2  0  0  0  0  0  0
  189.7320  178.3230  148.5080 C   0  0  0  0  0  2  0  0  0  0  0  0
  187.3570  177.9510  148.1320 N   0  0  0  0  0  1  0  0  0  0  0  0
  188.3390  178.3840  149.1100 C   0  0  0  0  0  2  0  0  0  0  0  0
  1  7  1  0  0  0  0
  1  5  2  0  0  0  0
  2 24  1  1  0  0  0
  2  9  1  0  0  0  0
  2 17  1  0  0  0  0
  3 43  1  1  0  0  0
  3 21  1  0  0  0  0
  5  8  1  0  0  0  0
  6 66  1  0  0  0  0
  7 21  1  0  0  0  0
  8 19  2  0  0  0  0
  8  6  1  0  0  0  0
  9 16  1  6  0  0  0
  9 18  1  0  0  0  0
 10  5  1  0  0  0  0
 10 11  1  0  0  0  0
 11 12  1  0  0  0  0
 12  6  2  0  0  0  0
 12  4  1  0  0  0  0
 13 44  1  6  0  0  0
 13 14  1  0  0  0  0
 14 18  1  0  0  0  0
 14 20  1  0  0  0  0
 15 20  1  0  0  0  0
 16 13  1  0  0  0  0
 17  3  1  0  0  0  0
 18  1  1  1  0  0  0
 20 10  2  0  0  0  0
 22 24  2  0  0  0  0
 23 22  2  0  0  0  0
 25 27  1  6  0  0  0
 25 28  1  0  0  0  0
 25 23  1  0  0  0  0
 26 27  1  0  0  0  0
 30 31  1  0  0  0  0
 30 29  1  0  0  0  0
 31 29  1  0  0  0  0
 31 28  1  0  0  0  0
 32 34  1  6  0  0  0
 32 31  1  0  0  0  0
 32 36  1  0  0  0  0
 33 34  1  0  0  0  0
 36 35  1  6  0  0  0
 36 38  1  0  0  0  0
 38 37  1  6  0  0  0
 38 39  1  0  0  0  0
 39 41  1  0  0  0  0
 41 40  1  0  0  0  0
 43 42  2  0  0  0  0
 46 45  1  6  0  0  0
 46 44  1  0  0  0  0
 47 48  1  0  0  0  0
 47 46  1  0  0  0  0
 48 49  1  6  0  0  0
 50 54  1  0  0  0  0
 50 59  1  0  0  0  0
 52 57  1  1  0  0  0
 52 56  1  0  0  0  0
 52 58  1  0  0  0  0
 53 56  1  0  0  0  0
 53 48  1  1  0  0  0
 55 53  1  0  0  0  0
 55 57  1  0  0  0  0
 56 54  1  6  0  0  0
 58 60  1  6  0  0  0
 58 51  1  0  0  0  0
 59 51  1  0  0  0  0
 60 61  1  0  0  0  0
 62 61  1  0  0  0  0
 62 65  1  0  0  0  0
 63 65  2  0  0  0  0
 65 64  1  0  0  0  0
 66 67  1  0  0  0  0
 67 69  1  0  0  0  0
 68 69  1  0  0  0  0
M  END
>  <MODEL>
5

>  <REMARK>
 VINA RESULT:      -5.2      4.482     12.036
  Name = 
  24 active torsions:
  status: ('A' for Active; 'I' for Inactive)
    1  A    between atoms: C_3  and  C_53
    2  A    between atoms: C_5  and  C_13
    3  A    between atoms: C_7  and  C_43
    4  A    between atoms: C_7  and  C_67
    5  A    between atoms: C_11  and  N_26
    6  A    between atoms: C_21  and  C_43
    7  A    between atoms: N_26  and  C_27
    8  A    between atoms: C_27  and  C_48
    9  A    between atoms: C_28  and  C_41
   10  A    between atoms: C_30  and  C_35
   11  A    between atoms: C_30  and  C_38
   12  A    between atoms: C_32  and  C_44
   13  A    between atoms: C_32  and  C_55
   14  A    between atoms: C_33  and  C_35
   15  A    between atoms: C_33  and  C_41
   16  A    between atoms: C_37  and  O_40
   17  A    between atoms: C_37  and  C_66
   18  A    between atoms: C_37  and  C_67
   19  A    between atoms: C_43  and  C_65
   20  A    between atoms: C_44  and  C_51
   21  A    between atoms: C_51  and  C_62
   22  A    between atoms: C_59  and  C_60
   23  A    between atoms: C_59  and  C_66
   24  A    between atoms: C_60  and  C_69
                            x       y       z     vdW  Elec       q    Type
                         _______ _______ _______ _____ _____    ______ ____

>  <TORSDO>
F 24

$$$$
=
 OpenBabel11032420343D

 69 75  0  0  1  0  0  0  0  0999 V2000
  184.5470  175.7380  136.4050 C   0  0  0  0  0  0  0  0  0  0  0  0
  187.0620  178.2430  136.7070 C   0  0  2  0  0  3  0  0  0  0  0  0
  187.8280  176.0260  135.6930 C   0  0  1  0  0  3  0  0  0  0  0  0
  179.5620  174.0320  134.5940 F   0  0  0  0  0  0  0  0  0  0  0  0
  183.2930  175.2530  136.2070 C   0  0  0  0  0  0  0  0  0  0  0  0
  181.7420  173.4520  135.2640 C   0  0  0  0  0  0  0  0  0  0  0  0
  185.7510  174.8360  136.4220 C   0  0  0  0  0  2  0  0  0  0  0  0
  183.0040  173.8230  135.9320 C   0  0  0  0  0  0  0  0  0  0  0  0
  185.8710  177.6230  137.4470 C   0  0  1  0  0  3  0  0  0  0  0  0
  182.1170  176.1700  136.2500 C   0  0  0  0  0  0  0  0  0  0  0  0
  180.7390  175.6110  136.0170 C   0  0  0  0  0  2  0  0  0  0  0  0
  180.7180  174.3320  135.2280 C   0  0  0  0  0  0  0  0  0  0  0  0
  183.8980  178.7420  138.1220 C   0  0  1  0  0  3  0  0  0  0  0  0
  183.5870  177.9070  136.9810 N   0  0  0  0  0  0  0  0  0  0  0  0
  181.0910  178.3340  136.8860 C   0  0  0  0  0  1  0  0  0  0  0  0
  185.3270  178.5930  138.4030 N   0  0  0  0  0  2  0  0  0  0  0  0
  187.4680  177.4860  135.4330 C   0  0  0  0  0  2  0  0  0  0  0  0
  184.7600  177.2370  136.4830 C   0  0  2  0  0  3  0  0  0  0  0  0
  183.8150  172.9160  136.2580 O   0  0  0  0  0  0  0  0  0  0  0  0
  182.2680  177.4340  136.6800 C   0  0  0  0  0  0  0  0  0  0  0  0
  186.6920  175.1070  135.2570 C   0  0  0  0  0  2  0  0  0  0  0  0
  188.7860  177.3850  138.2030 C   0  0  0  0  0  0  0  0  0  0  0  0
  189.3360  176.3480  138.7740 C   0  0  0  0  0  3  0  0  0  0  0  0
  188.2250  178.4160  137.6340 C   0  0  0  0  0  3  0  0  0  0  0  0
  190.6530  176.4490  139.4690 C   0  0  1  0  0  3  0  0  0  0  0  0
  193.0420  176.5180  139.1220 O   0  0  0  0  0  1  0  0  0  0  0  0
  191.8080  176.5540  138.4680 C   0  0  0  0  0  2  0  0  0  0  0  0
  190.6260  177.6340  140.4250 C   0  0  0  0  0  2  0  0  0  0  0  0
  191.9240  176.8940  142.3780 O   0  0  0  0  0  0  0  0  0  0  0  0
  191.1030  175.8890  142.0190 O   0  0  0  0  0  0  0  0  0  0  0  0
  190.6750  177.1890  141.8790 C   0  0  0  0  0  0  0  0  0  0  0  0
  189.5710  177.5720  142.8790 C   0  0  1  0  0  3  0  0  0  0  0  0
  187.5800  176.6360  143.1850 C   0  0  0  0  0  1  0  0  0  0  0  0
  188.9480  176.4140  143.3630 O   0  0  0  0  0  0  0  0  0  0  0  0
  191.3070  179.2720  143.6290 C   0  0  0  0  0  1  0  0  0  0  0  0
  190.0810  178.4570  144.0270 C   0  0  2  0  0  3  0  0  0  0  0  0
  191.7410  177.5410  145.5260 O   0  0  0  0  0  1  0  0  0  0  0  0
  190.3670  177.6000  145.2640 C   0  0  1  0  0  3  0  0  0  0  0  0
  189.6030  178.1260  146.4730 C   0  0  0  0  0  2  0  0  0  0  0  0
  189.2900  177.8850  148.8400 O   0  0  0  0  0  1  0  0  0  0  0  0
  190.1030  177.5040  147.7680 C   0  0  0  0  0  2  0  0  0  0  0  0
  189.8880  174.6630  135.4210 C   0  0  0  0  0  2  0  0  0  0  0  0
  189.1090  175.6600  135.0000 C   0  0  0  0  0  3  0  0  0  0  0  0
  183.5910  180.1990  137.8060 C   0  0  0  0  0  2  0  0  0  0  0  0
  182.6530  182.1810  138.7570 O   0  0  0  0  0  1  0  0  0  0  0  0
  182.6580  180.7850  138.8500 C   0  0  1  0  0  3  0  0  0  0  0  0
  181.2590  180.2510  138.6120 C   0  0  0  0  0  2  0  0  0  0  0  0
  180.3540  180.6170  139.7780 C   0  0  1  0  0  3  0  0  0  0  0  0
  178.9400  180.8020  139.2510 C   0  0  0  0  0  1  0  0  0  0  0  0
  183.2590  177.2620  141.5450 C   0  0  0  0  0  2  0  0  0  0  0  0
  184.1440  179.4740  142.4360 N   0  0  0  0  0  2  0  0  0  0  0  0
  181.6860  179.1660  142.7310 C   0  0  2  0  0  3  0  0  0  0  0  0
  180.3980  179.5270  140.8560 C   0  0  2  0  0  3  0  0  0  0  0  0
  182.2270  178.0140  140.6840 C   0  0  0  0  0  2  0  0  0  0  0  0
  179.6480  179.9820  142.0990 C   0  0  0  0  0  2  0  0  0  0  0  0
  181.7700  179.2810  141.2770 N   0  0  2  0  0  0  0  0  0  0  0  0
  180.6010  180.0110  143.1940 N   0  0  0  0  0  2  0  0  0  0  0  0
  183.0140  179.5620  143.3800 C   0  0  1  0  0  3  0  0  0  0  0  0
  184.4660  178.1060  141.9900 C   0  0  0  0  0  2  0  0  0  0  0  0
  183.2590  178.7560  144.6480 C   0  0  0  0  0  2  0  0  0  0  0  0
  184.5380  179.2210  145.3260 C   0  0  0  0  0  2  0  0  0  0  0  0
  185.3480  178.0290  145.8140 C   0  0  0  0  0  2  0  0  0  0  0  0
  186.0660  179.5430  147.5130 O   0  0  0  0  0  0  0  0  0  0  0  0
  186.7570  177.3730  147.7660 O   0  0  0  0  0  1  0  0  0  0  0  0
  186.0870  178.3670  147.0670 C   0  0  0  0  0  0  0  0  0  0  0  0
  181.6790  172.1670  134.6220 N   0  0  0  0  0  2  0  0  0  0  0  0
  181.6150  170.8720  135.2920 C   0  0  0  0  0  2  0  0  0  0  0  0
  179.3040  171.1900  134.5980 N   0  0  0  0  0  1  0  0  0  0  0  0
  180.1690  170.4600  135.5080 C   0  0  0  0  0  2  0  0  0  0  0  0
  1  7  1  0  0  0  0
  2  9  1  0  0  0  0
  2 24  1  1  0  0  0
  3 43  1  6  0  0  0
  4 12  1  0  0  0  0
  5 10  1  0  0  0  0
  5  1  2  0  0  0  0
  6  8  1  0  0  0  0
  8  5  1  0  0  0  0
  8 19  2  0  0  0  0
  9 16  1  1  0  0  0
 10 20  2  0  0  0  0
 11 10  1  0  0  0  0
 12  6  2  0  0  0  0
 12 11  1  0  0  0  0
 13 44  1  6  0  0  0
 13 16  1  0  0  0  0
 14 13  1  0  0  0  0
 17  3  1  0  0  0  0
 17  2  1  0  0  0  0
 18  1  1  1  0  0  0
 18 14  1  0  0  0  0
 18  9  1  0  0  0  0
 20 15  1  0  0  0  0
 20 14  1  0  0  0  0
 21  3  1  0  0  0  0
 21  7  1  0  0  0  0
 22 23  2  0  0  0  0
 23 25  1  0  0  0  0
 24 22  2  0  0  0  0
 25 27  1  6  0  0  0
 25 28  1  0  0  0  0
 27 26  1  0  0  0  0
 28 31  1  0  0  0  0
 30 29  1  0  0  0  0
 31 30  1  0  0  0  0
 31 29  1  0  0  0  0
 31 32  1  0  0  0  0
 32 34  1  1  0  0  0
 32 36  1  0  0  0  0
 33 34  1  0  0  0  0
 36 35  1  6  0  0  0
 36 38  1  0  0  0  0
 38 37  1  1  0  0  0
 38 39  1  0  0  0  0
 39 41  1  0  0  0  0
 41 40  1  0  0  0  0
 43 42  2  0  0  0  0
 44 46  1  0  0  0  0
 46 45  1  6  0  0  0
 47 46  1  0  0  0  0
 47 48  1  0  0  0  0
 48 49  1  6  0  0  0
 50 59  1  0  0  0  0
 51 58  1  0  0  0  0
 52 57  1  1  0  0  0
 52 58  1  0  0  0  0
 53 48  1  6  0  0  0
 53 56  1  0  0  0  0
 53 55  1  0  0  0  0
 54 50  1  0  0  0  0
 55 57  1  0  0  0  0
 56 54  1  6  0  0  0
 56 52  1  0  0  0  0
 58 60  1  1  0  0  0
 59 51  1  0  0  0  0
 60 61  1  0  0  0  0
 61 62  1  0  0  0  0
 62 65  1  0  0  0  0
 65 63  2  0  0  0  0
 65 64  1  0  0  0  0
 66  6  1  0  0  0  0
 66 67  1  0  0  0  0
 67 69  1  0  0  0  0
 68 69  1  0  0  0  0
M  END
>  <MODEL>
6

>  <REMARK>
 VINA RESULT:      -4.6      1.425      2.079
  Name = 
  24 active torsions:
  status: ('A' for Active; 'I' for Inactive)
    1  A    between atoms: C_3  and  C_53
    2  A    between atoms: C_5  and  C_13
    3  A    between atoms: C_7  and  C_43
    4  A    between atoms: C_7  and  C_67
    5  A    between atoms: C_11  and  N_26
    6  A    between atoms: C_21  and  C_43
    7  A    between atoms: N_26  and  C_27
    8  A    between atoms: C_27  and  C_48
    9  A    between atoms: C_28  and  C_41
   10  A    between atoms: C_30  and  C_35
   11  A    between atoms: C_30  and  C_38
   12  A    between atoms: C_32  and  C_44
   13  A    between atoms: C_32  and  C_55
   14  A    between atoms: C_33  and  C_35
   15  A    between atoms: C_33  and  C_41
   16  A    between atoms: C_37  and  O_40
   17  A    between atoms: C_37  and  C_66
   18  A    between atoms: C_37  and  C_67
   19  A    between atoms: C_43  and  C_65
   20  A    between atoms: C_44  and  C_51
   21  A    between atoms: C_51  and  C_62
   22  A    between atoms: C_59  and  C_60
   23  A    between atoms: C_59  and  C_66
   24  A    between atoms: C_60  and  C_69
                            x       y       z     vdW  Elec       q    Type
                         _______ _______ _______ _____ _____    ______ ____

>  <TORSDO>
F 24

$$$$
=
 OpenBabel11032420343D

 69 75  0  0  1  0  0  0  0  0999 V2000
  187.5430  177.6230  143.3360 C   0  0  0  0  0  0  0  0  0  0  0  0
  185.2890  179.0400  140.9680 C   0  0  2  0  0  3  0  0  0  0  0  0
  184.4000  178.8400  143.3560 C   0  0  1  0  0  3  0  0  0  0  0  0
  192.4790  177.5400  145.9180 F   0  0  0  0  0  0  0  0  0  0  0  0
  188.7520  177.3560  143.8950 C   0  0  0  0  0  0  0  0  0  0  0  0
  190.1930  176.9850  145.9750 C   0  0  0  0  0  0  0  0  0  0  0  0
  186.2550  177.3080  144.0470 C   0  0  0  0  0  2  0  0  0  0  0  0
  188.9150  176.7980  145.2620 C   0  0  0  0  0  0  0  0  0  0  0  0
  186.3260  177.9240  141.1400 C   0  0  1  0  0  3  0  0  0  0  0  0
  190.0080  177.6320  143.1390 C   0  0  0  0  0  0  0  0  0  0  0  0
  191.3360  177.3390  143.7840 C   0  0  0  0  0  2  0  0  0  0  0  0
  191.3020  177.3300  145.2870 C   0  0  0  0  0  0  0  0  0  0  0  0
  188.3270  177.6610  139.9040 C   0  0  1  0  0  3  0  0  0  0  0  0
  188.6630  178.1380  141.2280 N   0  0  0  0  0  0  0  0  0  0  0  0
  191.1870  178.0850  141.0060 C   0  0  0  0  0  1  0  0  0  0  0  0
  186.8690  177.5510  139.8300 N   0  0  0  0  0  2  0  0  0  0  0  0
  184.9380  179.7710  142.2730 C   0  0  0  0  0  2  0  0  0  0  0  0
  187.4820  178.3730  142.0200 C   0  0  2  0  0  3  0  0  0  0  0  0
  187.9840  176.1650  145.8250 O   0  0  0  0  0  0  0  0  0  0  0  0
  189.9480  177.9550  141.8360 C   0  0  0  0  0  0  0  0  0  0  0  0
  185.4720  178.5630  144.4050 C   0  0  0  0  0  2  0  0  0  0  0  0
  184.0210  178.3840  138.9910 C   0  0  0  0  0  0  0  0  0  0  0  0
  183.9880  178.2610  137.6910 C   0  0  0  0  0  3  0  0  0  0  0  0
  184.0620  178.5170  140.2870 C   0  0  0  0  0  3  0  0  0  0  0  0
  182.9070  177.4900  137.0100 C   0  0  1  0  0  3  0  0  0  0  0  0
  181.8570  179.2070  135.6750 O   0  0  0  0  0  1  0  0  0  0  0  0
  181.6670  178.3580  136.7680 C   0  0  0  0  0  2  0  0  0  0  0  0
  183.4480  176.9070  135.7110 C   0  0  0  0  0  2  0  0  0  0  0  0
  184.4240  174.8030  134.8920 O   0  0  0  0  0  0  0  0  0  0  0  0
  183.1090  174.7940  134.6000 O   0  0  0  0  0  0  0  0  0  0  0  0
  183.5340  175.3880  135.7660 C   0  0  0  0  0  0  0  0  0  0  0  0
  183.1360  174.6020  137.0250 C   0  0  1  0  0  3  0  0  0  0  0  0
  184.9750  174.1990  138.2050 C   0  0  0  0  0  1  0  0  0  0  0  0
  183.8770  175.0590  138.1230 O   0  0  0  0  0  0  0  0  0  0  0  0
  181.2980  175.4300  138.5740 C   0  0  0  0  0  1  0  0  0  0  0  0
  181.6260  174.6450  137.3090 C   0  0  2  0  0  3  0  0  0  0  0  0
  180.2020  173.0800  138.4750 O   0  0  0  0  0  1  0  0  0  0  0  0
  181.0640  173.2220  137.3830 C   0  0  1  0  0  3  0  0  0  0  0  0
  180.3630  172.8510  136.0810 C   0  0  0  0  0  2  0  0  0  0  0  0
  180.6120  170.6220  135.2300 O   0  0  0  0  0  1  0  0  0  0  0  0
  181.1980  171.8910  135.2470 C   0  0  0  0  0  2  0  0  0  0  0  0
  182.3390  178.6780  144.7340 C   0  0  0  0  0  2  0  0  0  0  0  0
  183.1650  179.4130  143.9890 C   0  0  0  0  0  3  0  0  0  0  0  0
  188.8170  178.6450  138.8510 C   0  0  0  0  0  2  0  0  0  0  0  0
  189.2470  178.9170  136.5160 O   0  0  0  0  0  1  0  0  0  0  0  0
  188.8710  177.9830  137.4870 C   0  0  1  0  0  3  0  0  0  0  0  0
  189.8820  176.8530  137.5300 C   0  0  0  0  0  2  0  0  0  0  0  0
  189.2610  175.5750  136.9910 C   0  0  1  0  0  3  0  0  0  0  0  0
  187.9080  175.9140  136.3860 C   0  0  0  0  0  1  0  0  0  0  0  0
  193.3090  176.4020  134.5940 C   0  0  0  0  0  2  0  0  0  0  0  0
  194.0240  175.7880  136.9560 N   0  0  0  0  0  2  0  0  0  0  0  0
  192.3700  174.2150  135.9500 C   0  0  2  0  0  3  0  0  0  0  0  0
  190.1800  174.9290  135.9470 C   0  0  2  0  0  3  0  0  0  0  0  0
  191.8320  176.3750  135.0270 C   0  0  0  0  0  2  0  0  0  0  0  0
  190.2370  173.4230  136.1520 C   0  0  0  0  0  2  0  0  0  0  0  0
  191.5460  175.4110  136.1010 N   0  0  2  0  0  0  0  0  0  0  0  0
  191.6170  173.0760  136.4420 N   0  0  0  0  0  2  0  0  0  0  0  0
  193.6920  174.3740  136.7050 C   0  0  1  0  0  3  0  0  0  0  0  0
  194.3160  176.5760  135.7440 C   0  0  0  0  0  2  0  0  0  0  0  0
  194.8170  173.6370  135.9880 C   0  0  0  0  0  2  0  0  0  0  0  0
  195.2730  172.4460  136.8140 C   0  0  0  0  0  2  0  0  0  0  0  0
  196.7720  172.2360  136.6650 C   0  0  0  0  0  2  0  0  0  0  0  0
  198.6440  173.6970  136.9050 O   0  0  0  0  0  0  0  0  0  0  0  0
  196.9900  173.9440  138.4720 O   0  0  0  0  0  1  0  0  0  0  0  0
  197.5320  173.3200  137.3570 C   0  0  0  0  0  0  0  0  0  0  0  0
  190.1850  176.8420  147.4060 N   0  0  0  0  0  2  0  0  0  0  0  0
  189.9670  177.9100  148.3770 C   0  0  0  0  0  2  0  0  0  0  0  0
  187.5550  177.9560  148.6940 N   0  0  0  0  0  1  0  0  0  0  0  0
  188.6730  178.6450  148.0730 C   0  0  0  0  0  2  0  0  0  0  0  0
  1  5  2  0  0  0  0
  1  7  1  0  0  0  0
  2 24  1  1  0  0  0
  2  9  1  0  0  0  0
  2 17  1  0  0  0  0
  3 43  1  1  0  0  0
  3 21  1  0  0  0  0
  5  8  1  0  0  0  0
  6 66  1  0  0  0  0
  7 21  1  0  0  0  0
  8 19  2  0  0  0  0
  8  6  1  0  0  0  0
  9 16  1  6  0  0  0
  9 18  1  0  0  0  0
 10 11  1  0  0  0  0
 10  5  1  0  0  0  0
 11 12  1  0  0  0  0
 12  4  1  0  0  0  0
 12  6  2  0  0  0  0
 13 44  1  6  0  0  0
 13 14  1  0  0  0  0
 14 20  1  0  0  0  0
 14 18  1  0  0  0  0
 15 20  1  0  0  0  0
 16 13  1  0  0  0  0
 17  3  1  0  0  0  0
 18  1  1  1  0  0  0
 20 10  2  0  0  0  0
 22 24  2  0  0  0  0
 23 22  2  0  0  0  0
 25 28  1  6  0  0  0
 25 23  1  0  0  0  0
 26 27  1  0  0  0  0
 27 25  1  0  0  0  0
 28 31  1  0  0  0  0
 29 31  1  0  0  0  0
 30 29  1  0  0  0  0
 30 31  1  0  0  0  0
 31 32  1  0  0  0  0
 32 36  1  0  0  0  0
 32 34  1  1  0  0  0
 34 33  1  0  0  0  0
 36 38  1  0  0  0  0
 36 35  1  1  0  0  0
 38 37  1  1  0  0  0
 39 38  1  0  0  0  0
 40 41  1  0  0  0  0
 41 39  1  0  0  0  0
 43 42  2  0  0  0  0
 46 45  1  6  0  0  0
 46 47  1  0  0  0  0
 46 44  1  0  0  0  0
 48 49  1  6  0  0  0
 48 47  1  0  0  0  0
 50 54  1  0  0  0  0
 50 59  1  0  0  0  0
 52 56  1  0  0  0  0
 52 57  1  1  0  0  0
 52 58  1  0  0  0  0
 53 56  1  0  0  0  0
 53 55  1  0  0  0  0
 53 48  1  1  0  0  0
 55 57  1  0  0  0  0
 56 54  1  6  0  0  0
 58 60  1  6  0  0  0
 58 51  1  0  0  0  0
 59 51  1  0  0  0  0
 60 61  1  0  0  0  0
 62 61  1  0  0  0  0
 62 65  1  0  0  0  0
 63 65  2  0  0  0  0
 65 64  1  0  0  0  0
 66 67  1  0  0  0  0
 69 67  1  0  0  0  0
 69 68  1  0  0  0  0
M  END
>  <MODEL>
7

>  <REMARK>
 VINA RESULT:      -4.3      4.392     12.092
  Name = 
  24 active torsions:
  status: ('A' for Active; 'I' for Inactive)
    1  A    between atoms: C_3  and  C_53
    2  A    between atoms: C_5  and  C_13
    3  A    between atoms: C_7  and  C_43
    4  A    between atoms: C_7  and  C_67
    5  A    between atoms: C_11  and  N_26
    6  A    between atoms: C_21  and  C_43
    7  A    between atoms: N_26  and  C_27
    8  A    between atoms: C_27  and  C_48
    9  A    between atoms: C_28  and  C_41
   10  A    between atoms: C_30  and  C_35
   11  A    between atoms: C_30  and  C_38
   12  A    between atoms: C_32  and  C_44
   13  A    between atoms: C_32  and  C_55
   14  A    between atoms: C_33  and  C_35
   15  A    between atoms: C_33  and  C_41
   16  A    between atoms: C_37  and  O_40
   17  A    between atoms: C_37  and  C_66
   18  A    between atoms: C_37  and  C_67
   19  A    between atoms: C_43  and  C_65
   20  A    between atoms: C_44  and  C_51
   21  A    between atoms: C_51  and  C_62
   22  A    between atoms: C_59  and  C_60
   23  A    between atoms: C_59  and  C_66
   24  A    between atoms: C_60  and  C_69
                            x       y       z     vdW  Elec       q    Type
                         _______ _______ _______ _____ _____    ______ ____

>  <TORSDO>
F 24

$$$$
=
 OpenBabel11032420343D

 69 75  0  0  1  0  0  0  0  0999 V2000
  187.6880  177.6410  143.1200 C   0  0  0  0  0  0  0  0  0  0  0  0
  185.3490  179.0870  140.8540 C   0  0  2  0  0  3  0  0  0  0  0  0
  184.6070  178.9950  143.2980 C   0  0  1  0  0  3  0  0  0  0  0  0
  192.7700  177.4140  145.3920 F   0  0  0  0  0  0  0  0  0  0  0  0
  188.9170  177.3370  143.6110 C   0  0  0  0  0  0  0  0  0  0  0  0
  190.4710  176.9620  145.6080 C   0  0  0  0  0  0  0  0  0  0  0  0
  186.4350  177.4040  143.9200 C   0  0  0  0  0  2  0  0  0  0  0  0
  189.1430  176.8110  144.9820 C   0  0  0  0  0  0  0  0  0  0  0  0
  186.3470  177.9320  140.9960 C   0  0  1  0  0  3  0  0  0  0  0  0
  190.1340  177.5350  142.7700 C   0  0  0  0  0  0  0  0  0  0  0  0
  191.4860  177.2020  143.3400 C   0  0  0  0  0  2  0  0  0  0  0  0
  191.5470  177.2380  144.8410 C   0  0  0  0  0  0  0  0  0  0  0  0
  188.2530  177.5450  139.6470 C   0  0  1  0  0  3  0  0  0  0  0  0
  188.6920  178.0450  140.9320 N   0  0  0  0  0  0  0  0  0  0  0  0
  191.1920  177.8740  140.5540 C   0  0  0  0  0  1  0  0  0  0  0  0
  186.7890  177.4970  139.6670 N   0  0  0  0  0  2  0  0  0  0  0  0
  185.1130  179.8710  142.1550 C   0  0  0  0  0  2  0  0  0  0  0  0
  187.5750  178.3540  141.7880 C   0  0  2  0  0  3  0  0  0  0  0  0
  188.2240  176.2370  145.6220 O   0  0  0  0  0  0  0  0  0  0  0  0
  190.0040  177.8230  141.4640 C   0  0  0  0  0  0  0  0  0  0  0  0
  185.7310  178.7020  144.2860 C   0  0  0  0  0  2  0  0  0  0  0  0
  184.0360  178.0040  139.1080 C   0  0  0  0  0  0  0  0  0  0  0  0
  184.0200  177.4140  137.9430 C   0  0  0  0  0  3  0  0  0  0  0  0
  184.0610  178.6000  140.2680 C   0  0  0  0  0  3  0  0  0  0  0  0
  182.8170  176.6730  137.4620 C   0  0  1  0  0  3  0  0  0  0  0  0
  183.3740  174.4190  136.7990 O   0  0  0  0  0  1  0  0  0  0  0  0
  183.1700  175.7150  136.3190 C   0  0  0  0  0  2  0  0  0  0  0  0
  182.1770  175.9410  138.6340 C   0  0  0  0  0  2  0  0  0  0  0  0
  179.9430  174.9140  138.6200 O   0  0  0  0  0  0  0  0  0  0  0  0
  180.0870  175.6120  137.4770 O   0  0  0  0  0  0  0  0  0  0  0  0
  180.6630  176.0880  138.6330 C   0  0  0  0  0  0  0  0  0  0  0  0
  179.9740  177.3510  139.1750 C   0  0  1  0  0  3  0  0  0  0  0  0
  180.1840  177.2470  141.3840 C   0  0  0  0  0  1  0  0  0  0  0  0
  180.7100  177.8690  140.2490 O   0  0  0  0  0  0  0  0  0  0  0  0
  179.6620  177.8140  136.6940 C   0  0  0  0  0  1  0  0  0  0  0  0
  179.7340  178.4170  138.0930 C   0  0  2  0  0  3  0  0  0  0  0  0
  181.4110  179.7040  136.9220 O   0  0  0  0  0  1  0  0  0  0  0  0
  180.8160  179.4980  138.1720 C   0  0  1  0  0  3  0  0  0  0  0  0
  180.2410  180.7970  138.7240 C   0  0  0  0  0  2  0  0  0  0  0  0
  179.0260  181.1880  140.7560 O   0  0  0  0  0  1  0  0  0  0  0  0
  178.9620  180.5540  139.5110 C   0  0  0  0  0  2  0  0  0  0  0  0
  182.2710  179.0190  144.1450 C   0  0  0  0  0  2  0  0  0  0  0  0
  183.4400  179.6410  143.9880 C   0  0  0  0  0  3  0  0  0  0  0  0
  188.7150  178.4760  138.5350 C   0  0  0  0  0  2  0  0  0  0  0  0
  188.8770  178.6170  136.1540 O   0  0  0  0  0  1  0  0  0  0  0  0
  188.8490  177.7180  137.2270 C   0  0  1  0  0  3  0  0  0  0  0  0
  190.1340  176.9140  137.2550 C   0  0  0  0  0  2  0  0  0  0  0  0
  189.8290  175.4350  137.0780 C   0  0  1  0  0  3  0  0  0  0  0  0
  188.3870  175.2930  136.6140 C   0  0  0  0  0  1  0  0  0  0  0  0
  193.7850  176.4430  134.5990 C   0  0  0  0  0  2  0  0  0  0  0  0
  194.5580  176.0340  136.9870 N   0  0  0  0  0  2  0  0  0  0  0  0
  193.0350  174.2730  136.0930 C   0  0  2  0  0  3  0  0  0  0  0  0
  190.7940  174.8040  136.0670 C   0  0  2  0  0  3  0  0  0  0  0  0
  192.3170  176.3220  135.0460 C   0  0  0  0  0  2  0  0  0  0  0  0
  190.9750  173.3230  136.3620 C   0  0  0  0  0  2  0  0  0  0  0  0
  192.1160  175.4050  136.1790 N   0  0  2  0  0  0  0  0  0  0  0  0
  192.3800  173.1080  136.6600 N   0  0  0  0  0  2  0  0  0  0  0  0
  194.3420  174.5850  136.8240 C   0  0  1  0  0  3  0  0  0  0  0  0
  194.7790  176.7680  135.7270 C   0  0  0  0  0  2  0  0  0  0  0  0
  195.5210  173.9010  136.1430 C   0  0  0  0  0  2  0  0  0  0  0  0
  196.4960  173.3780  137.1850 C   0  0  0  0  0  2  0  0  0  0  0  0
  197.7170  174.2800  137.2740 C   0  0  0  0  0  2  0  0  0  0  0  0
  199.1430  172.8510  136.0010 O   0  0  0  0  0  1  0  0  0  0  0  0
  198.9800  175.0100  135.2490 O   0  0  0  0  0  0  0  0  0  0  0  0
  198.6640  174.0050  136.1520 C   0  0  0  0  0  0  0  0  0  0  0  0
  190.5480  176.8610  147.0410 N   0  0  0  0  0  2  0  0  0  0  0  0
  191.6210  176.2320  147.8030 C   0  0  0  0  0  2  0  0  0  0  0  0
  193.5030  176.7610  149.2510 N   0  0  0  0  0  1  0  0  0  0  0  0
  192.1910  177.2080  148.8180 C   0  0  0  0  0  2  0  0  0  0  0  0
  1  5  2  0  0  0  0
  1  7  1  0  0  0  0
  2 24  1  1  0  0  0
  2  9  1  0  0  0  0
  2 17  1  0  0  0  0
  3 43  1  1  0  0  0
  3 21  1  0  0  0  0
  5  8  1  0  0  0  0
  6 66  1  0  0  0  0
  7 21  1  0  0  0  0
  8  6  1  0  0  0  0
  8 19  2  0  0  0  0
  9 16  1  6  0  0  0
  9 18  1  0  0  0  0
 10 11  1  0  0  0  0
 10  5  1  0  0  0  0
 11 12  1  0  0  0  0
 12  4  1  0  0  0  0
 12  6  2  0  0  0  0
 13 44  1  6  0  0  0
 13 16  1  0  0  0  0
 13 14  1  0  0  0  0
 14 20  1  0  0  0  0
 14 18  1  0  0  0  0
 15 20  1  0  0  0  0
 17  3  1  0  0  0  0
 18  1  1  1  0  0  0
 20 10  2  0  0  0  0
 22 24  2  0  0  0  0
 23 22  2  0  0  0  0
 25 27  1  6  0  0  0
 25 23  1  0  0  0  0
 25 28  1  0  0  0  0
 27 26  1  0  0  0  0
 29 31  1  0  0  0  0
 30 29  1  0  0  0  0
 30 31  1  0  0  0  0
 31 28  1  0  0  0  0
 31 32  1  0  0  0  0
 32 34  1  1  0  0  0
 34 33  1  0  0  0  0
 36 35  1  6  0  0  0
 36 38  1  0  0  0  0
 36 32  1  0  0  0  0
 38 37  1  6  0  0  0
 38 39  1  0  0  0  0
 39 41  1  0  0  0  0
 41 40  1  0  0  0  0
 43 42  2  0  0  0  0
 46 45  1  6  0  0  0
 46 47  1  0  0  0  0
 46 44  1  0  0  0  0
 48 49  1  6  0  0  0
 48 47  1  0  0  0  0
 50 54  1  0  0  0  0
 50 59  1  0  0  0  0
 52 56  1  0  0  0  0
 52 57  1  1  0  0  0
 52 58  1  0  0  0  0
 53 56  1  0  0  0  0
 53 55  1  0  0  0  0
 53 48  1  1  0  0  0
 55 57  1  0  0  0  0
 56 54  1  6  0  0  0
 58 60  1  6  0  0  0
 58 51  1  0  0  0  0
 59 51  1  0  0  0  0
 60 61  1  0  0  0  0
 61 62  1  0  0  0  0
 63 65  1  0  0  0  0
 64 65  2  0  0  0  0
 65 62  1  0  0  0  0
 66 67  1  0  0  0  0
 67 69  1  0  0  0  0
 69 68  1  0  0  0  0
M  END
>  <MODEL>
8

>  <REMARK>
 VINA RESULT:      -4.2      4.738     12.370
  Name = 
  24 active torsions:
  status: ('A' for Active; 'I' for Inactive)
    1  A    between atoms: C_3  and  C_53
    2  A    between atoms: C_5  and  C_13
    3  A    between atoms: C_7  and  C_43
    4  A    between atoms: C_7  and  C_67
    5  A    between atoms: C_11  and  N_26
    6  A    between atoms: C_21  and  C_43
    7  A    between atoms: N_26  and  C_27
    8  A    between atoms: C_27  and  C_48
    9  A    between atoms: C_28  and  C_41
   10  A    between atoms: C_30  and  C_35
   11  A    between atoms: C_30  and  C_38
   12  A    between atoms: C_32  and  C_44
   13  A    between atoms: C_32  and  C_55
   14  A    between atoms: C_33  and  C_35
   15  A    between atoms: C_33  and  C_41
   16  A    between atoms: C_37  and  O_40
   17  A    between atoms: C_37  and  C_66
   18  A    between atoms: C_37  and  C_67
   19  A    between atoms: C_43  and  C_65
   20  A    between atoms: C_44  and  C_51
   21  A    between atoms: C_51  and  C_62
   22  A    between atoms: C_59  and  C_60
   23  A    between atoms: C_59  and  C_66
   24  A    between atoms: C_60  and  C_69
                            x       y       z     vdW  Elec       q    Type
                         _______ _______ _______ _____ _____    ______ ____

>  <TORSDO>
F 24

$$$$
=
 OpenBabel11032420343D

 69 75  0  0  1  0  0  0  0  0999 V2000
  187.4370  177.7460  143.0360 C   0  0  0  0  0  0  0  0  0  0  0  0
  185.1430  179.0270  140.6300 C   0  0  2  0  0  3  0  0  0  0  0  0
  184.2810  178.9280  143.0330 C   0  0  1  0  0  3  0  0  0  0  0  0
  192.3990  177.8360  145.5690 F   0  0  0  0  0  0  0  0  0  0  0  0
  188.6540  177.5180  143.5950 C   0  0  0  0  0  0  0  0  0  0  0  0
  190.1200  177.2590  145.6750 C   0  0  0  0  0  0  0  0  0  0  0  0
  186.1590  177.4500  143.7750 C   0  0  0  0  0  2  0  0  0  0  0  0
  188.8370  177.0250  144.9840 C   0  0  0  0  0  0  0  0  0  0  0  0
  186.1950  177.9320  140.8420 C   0  0  1  0  0  3  0  0  0  0  0  0
  189.9000  177.7730  142.8140 C   0  0  0  0  0  0  0  0  0  0  0  0
  191.2370  177.5240  143.4580 C   0  0  0  0  0  2  0  0  0  0  0  0
  191.2180  177.5840  144.9600 C   0  0  0  0  0  0  0  0  0  0  0  0
  188.1860  177.6340  139.5990 C   0  0  1  0  0  3  0  0  0  0  0  0
  188.5300  178.1750  140.8960 N   0  0  0  0  0  0  0  0  0  0  0  0
  191.0520  178.1400  140.6500 C   0  0  0  0  0  1  0  0  0  0  0  0
  186.7290  177.5050  139.5450 N   0  0  0  0  0  2  0  0  0  0  0  0
  184.7970  179.8140  141.9030 C   0  0  0  0  0  2  0  0  0  0  0  0
  187.3550  178.4330  141.6880 C   0  0  2  0  0  3  0  0  0  0  0  0
  187.9190  176.4090  145.5860 O   0  0  0  0  0  0  0  0  0  0  0  0
  189.8230  178.0350  141.4980 C   0  0  0  0  0  0  0  0  0  0  0  0
  185.3660  178.7110  144.0830 C   0  0  0  0  0  2  0  0  0  0  0  0
  183.5000  178.9020  138.8320 C   0  0  0  0  0  0  0  0  0  0  0  0
  183.0880  179.3560  137.6790 C   0  0  0  0  0  3  0  0  0  0  0  0
  183.9160  178.4610  139.9870 C   0  0  0  0  0  3  0  0  0  0  0  0
  182.0510  178.6350  136.8840 C   0  0  1  0  0  3  0  0  0  0  0  0
  180.1920  177.1020  137.0470 O   0  0  0  0  0  1  0  0  0  0  0  0
  181.0520  177.9120  137.7930 C   0  0  0  0  0  2  0  0  0  0  0  0
  181.3550  179.6220  135.9550 C   0  0  0  0  0  2  0  0  0  0  0  0
  179.0330  180.0810  136.6210 O   0  0  0  0  0  0  0  0  0  0  0  0
  179.4550  181.1040  135.8540 O   0  0  0  0  0  0  0  0  0  0  0  0
  180.3470  180.4850  136.7000 C   0  0  0  0  0  0  0  0  0  0  0  0
  180.7610  181.3650  137.8910 C   0  0  1  0  0  3  0  0  0  0  0  0
  182.5280  182.7000  138.0660 C   0  0  0  0  0  1  0  0  0  0  0  0
  181.2940  182.5740  137.4230 O   0  0  0  0  0  0  0  0  0  0  0  0
  179.0540  183.0200  138.7940 C   0  0  0  0  0  1  0  0  0  0  0  0
  179.6160  181.6050  138.8880 C   0  0  2  0  0  3  0  0  0  0  0  0
  179.0760  181.5640  141.2430 O   0  0  0  0  0  1  0  0  0  0  0  0
  180.0850  181.2920  140.3120 C   0  0  1  0  0  3  0  0  0  0  0  0
  180.5520  179.8450  140.4190 C   0  0  0  0  0  2  0  0  0  0  0  0
  180.0800  178.0440  141.9330 O   0  0  0  0  0  1  0  0  0  0  0  0
  179.4910  178.9600  141.0550 C   0  0  0  0  0  2  0  0  0  0  0  0
  182.4670  178.9860  144.7310 C   0  0  0  0  0  2  0  0  0  0  0  0
  183.0460  179.5160  143.6530 C   0  0  0  0  0  3  0  0  0  0  0  0
  188.6540  178.5740  138.4970 C   0  0  0  0  0  2  0  0  0  0  0  0
  187.6150  179.3590  136.4920 O   0  0  0  0  0  1  0  0  0  0  0  0
  188.0140  178.2030  137.1720 C   0  0  1  0  0  3  0  0  0  0  0  0
  189.0230  177.4400  136.3360 C   0  0  0  0  0  2  0  0  0  0  0  0
  188.5100  176.0370  136.0500 C   0  0  1  0  0  3  0  0  0  0  0  0
  187.2270  176.1490  135.2410 C   0  0  0  0  0  1  0  0  0  0  0  0
  193.0520  176.2930  134.5950 C   0  0  0  0  0  2  0  0  0  0  0  0
  193.1580  175.8380  137.0950 N   0  0  0  0  0  2  0  0  0  0  0  0
  191.6140  174.3270  135.8470 C   0  0  2  0  0  3  0  0  0  0  0  0
  189.5660  175.2230  135.2930 C   0  0  2  0  0  3  0  0  0  0  0  0
  191.5210  176.4320  134.6780 C   0  0  0  0  0  2  0  0  0  0  0  0
  189.4180  173.7420  135.6090 C   0  0  0  0  0  2  0  0  0  0  0  0
  190.9060  175.5980  135.7220 N   0  0  2  0  0  0  0  0  0  0  0  0
  190.6570  173.3060  136.2310 N   0  0  0  0  0  2  0  0  0  0  0  0
  192.7450  174.4410  136.8720 C   0  0  1  0  0  3  0  0  0  0  0  0
  193.7910  176.4840  135.9300 C   0  0  0  0  0  2  0  0  0  0  0  0
  193.9180  173.5480  136.4860 C   0  0  0  0  0  2  0  0  0  0  0  0
  194.7390  173.2010  137.7160 C   0  0  0  0  0  2  0  0  0  0  0  0
  196.2020  173.5600  137.5010 C   0  0  0  0  0  2  0  0  0  0  0  0
  196.7840  171.3780  138.2710 O   0  0  0  0  0  1  0  0  0  0  0  0
  198.1200  172.2310  136.6170 O   0  0  0  0  0  0  0  0  0  0  0  0
  197.0550  172.3340  137.5000 C   0  0  0  0  0  0  0  0  0  0  0  0
  190.1270  177.1820  147.1110 N   0  0  0  0  0  2  0  0  0  0  0  0
  191.1240  176.5020  147.9310 C   0  0  0  0  0  2  0  0  0  0  0  0
  193.3710  175.6660  147.5200 N   0  0  0  0  0  1  0  0  0  0  0  0
  191.9920  175.6000  147.0710 C   0  0  0  0  0  2  0  0  0  0  0  0
  1  5  2  0  0  0  0
  1  7  1  0  0  0  0
  2 24  1  1  0  0  0
  2  9  1  0  0  0  0
  2 17  1  0  0  0  0
  3 43  1  1  0  0  0
  3 21  1  0  0  0  0
  5  8  1  0  0  0  0
  6 66  1  0  0  0  0
  7 21  1  0  0  0  0
  8 19  2  0  0  0  0
  8  6  1  0  0  0  0
  9 16  1  6  0  0  0
  9 18  1  0  0  0  0
 10 11  1  0  0  0  0
 10  5  1  0  0  0  0
 11 12  1  0  0  0  0
 12  4  1  0  0  0  0
 12  6  2  0  0  0  0
 13 44  1  6  0  0  0
 13 14  1  0  0  0  0
 14 20  1  0  0  0  0
 14 18  1  0  0  0  0
 15 20  1  0  0  0  0
 16 13  1  0  0  0  0
 17  3  1  0  0  0  0
 18  1  1  1  0  0  0
 20 10  2  0  0  0  0
 22 24  2  0  0  0  0
 23 22  2  0  0  0  0
 25 28  1  1  0  0  0
 25 23  1  0  0  0  0
 25 27  1  0  0  0  0
 26 27  1  0  0  0  0
 28 31  1  0  0  0  0
 29 31  1  0  0  0  0
 30 29  1  0  0  0  0
 30 31  1  0  0  0  0
 31 32  1  0  0  0  0
 32 34  1  6  0  0  0
 32 36  1  0  0  0  0
 34 33  1  0  0  0  0
 36 35  1  1  0  0  0
 36 38  1  0  0  0  0
 38 39  1  0  0  0  0
 38 37  1  1  0  0  0
 39 41  1  0  0  0  0
 41 40  1  0  0  0  0
 43 42  2  0  0  0  0
 46 45  1  6  0  0  0
 46 44  1  0  0  0  0
 47 46  1  0  0  0  0
 48 49  1  6  0  0  0
 48 47  1  0  0  0  0
 50 54  1  0  0  0  0
 50 59  1  0  0  0  0
 52 57  1  1  0  0  0
 52 58  1  0  0  0  0
 53 55  1  0  0  0  0
 53 56  1  0  0  0  0
 53 48  1  1  0  0  0
 55 57  1  0  0  0  0
 56 54  1  6  0  0  0
 56 52  1  0  0  0  0
 58 60  1  6  0  0  0
 58 51  1  0  0  0  0
 59 51  1  0  0  0  0
 60 61  1  0  0  0  0
 62 61  1  0  0  0  0
 64 65  2  0  0  0  0
 65 62  1  0  0  0  0
 65 63  1  0  0  0  0
 66 67  1  0  0  0  0
 69 68  1  0  0  0  0
 69 67  1  0  0  0  0
M  END
>  <MODEL>
9

>  <REMARK>
 VINA RESULT:      -3.9      4.398     11.974
  Name = 
  24 active torsions:
  status: ('A' for Active; 'I' for Inactive)
    1  A    between atoms: C_3  and  C_53
    2  A    between atoms: C_5  and  C_13
    3  A    between atoms: C_7  and  C_43
    4  A    between atoms: C_7  and  C_67
    5  A    between atoms: C_11  and  N_26
    6  A    between atoms: C_21  and  C_43
    7  A    between atoms: N_26  and  C_27
    8  A    between atoms: C_27  and  C_48
    9  A    between atoms: C_28  and  C_41
   10  A    between atoms: C_30  and  C_35
   11  A    between atoms: C_30  and  C_38
   12  A    between atoms: C_32  and  C_44
   13  A    between atoms: C_32  and  C_55
   14  A    between atoms: C_33  and  C_35
   15  A    between atoms: C_33  and  C_41
   16  A    between atoms: C_37  and  O_40
   17  A    between atoms: C_37  and  C_66
   18  A    between atoms: C_37  and  C_67
   19  A    between atoms: C_43  and  C_65
   20  A    between atoms: C_44  and  C_51
   21  A    between atoms: C_51  and  C_62
   22  A    between atoms: C_59  and  C_60
   23  A    between atoms: C_59  and  C_66
   24  A    between atoms: C_60  and  C_69
                            x       y       z     vdW  Elec       q    Type
                         _______ _______ _______ _____ _____    ______ ____

>  <TORSDO>
F 24

$$$$
