=
 OpenBabel11042412303D

 31 34  0  0  1  0  0  0  0  0999 V2000
  189.0430  177.0410  140.6590 C   0  0  1  0  0  3  0  0  0  0  0  0
  188.9170  177.4120  143.3810 N   0  0  0  0  0  0  0  0  0  0  0  0
  187.1280  178.4540  140.4730 C   0  0  0  0  0  2  0  0  0  0  0  0
  188.5390  177.3630  142.1590 C   0  0  0  0  0  0  0  0  0  0  0  0
  188.4630  178.2230  139.9140 C   0  0  2  0  0  3  0  0  0  0  0  0
  187.4050  178.0900  141.9490 C   0  0  2  0  0  3  0  0  0  0  0  0
  190.0930  177.4710  145.4090 C   0  0  0  0  0  3  0  0  0  0  0  0
  192.5130  175.1160  146.8750 O   0  0  0  0  0  1  0  0  0  0  0  0
  192.5110  174.1780  144.5620 O   0  0  0  0  0  1  0  0  0  0  0  0
  190.0850  177.1240  144.0250 C   0  0  0  0  0  0  0  0  0  0  0  0
  191.8250  175.8470  145.8910 C   0  0  0  0  0  0  0  0  0  0  0  0
  191.0780  177.2340  147.7400 C   0  0  0  0  0  1  0  0  0  0  0  0
  191.8330  175.4370  144.6320 C   0  0  0  0  0  0  0  0  0  0  0  0
  191.0130  176.0920  143.5920 C   0  0  0  0  0  3  0  0  0  0  0  0
  190.9880  176.8990  146.3270 C   0  0  0  0  0  0  0  0  0  0  0  0
  186.4610  178.0150  143.0480 C   0  0  0  0  0  0  0  0  0  0  0  0
  186.5500  178.1420  144.5160 C   0  0  0  0  0  3  0  0  0  0  0  0
  184.4350  178.2730  141.6320 C   0  0  0  0  0  3  0  0  0  0  0  0
  184.5650  178.4640  143.8900 N   0  0  0  0  0  0  0  0  0  0  0  0
  183.1400  178.5430  142.1610 C   0  0  0  0  0  3  0  0  0  0  0  0
  185.2830  178.4090  145.0040 N   0  0  0  0  0  2  0  0  0  0  0  0
  185.1950  178.2360  142.8320 C   0  0  0  0  0  0  0  0  0  0  0  0
  182.2240  179.0250  144.4130 N   0  0  0  0  0  1  0  0  0  0  0  0
  183.2930  178.7210  143.4840 C   0  0  0  0  0  0  0  0  0  0  0  0
  188.6310  178.3120  138.4390 C   0  0  0  0  0  0  0  0  0  0  0  0
  187.9260  177.2190  137.6580 C   0  0  0  0  0  1  0  0  0  0  0  0
  189.1170  179.2600  137.9190 O   0  0  0  0  0  0  0  0  0  0  0  0
  190.7260  175.9390  139.1870 O   0  0  0  0  0  1  0  0  0  0  0  0
  190.4800  176.6310  140.3930 C   0  0  1  0  0  3  0  0  0  0  0  0
  192.6860  177.4720  140.2870 O   0  0  0  0  0  1  0  0  0  0  0  0
  191.3560  177.8410  140.4860 C   0  0  0  0  0  2  0  0  0  0  0  0
  1 29  1  1  0  0  0
  1  4  1  0  0  0  0
  2 10  1  0  0  0  0
  3  6  1  0  0  0  0
  4  2  2  0  0  0  0
  5 25  1  6  0  0  0
  5  3  1  0  0  0  0
  5  1  1  0  0  0  0
  6  4  1  0  0  0  0
  6 16  1  6  0  0  0
  7 15  1  0  0  0  0
  9 13  1  0  0  0  0
 10  7  2  0  0  0  0
 11 15  2  0  0  0  0
 11  8  1  0  0  0  0
 13 11  1  0  0  0  0
 14 10  1  0  0  0  0
 14 13  2  0  0  0  0
 15 12  1  0  0  0  0
 16 17  2  0  0  0  0
 17 21  1  0  0  0  0
 18 20  1  0  0  0  0
 18 22  2  0  0  0  0
 19 21  1  0  0  0  0
 20 24  2  0  0  0  0
 22 16  1  0  0  0  0
 22 19  1  0  0  0  0
 24 19  1  0  0  0  0
 24 23  1  0  0  0  0
 26 25  1  0  0  0  0
 27 25  2  0  0  0  0
 29 28  1  6  0  0  0
 29 31  1  0  0  0  0
 30 31  1  0  0  0  0
M  END
>  <MODEL>
1

>  <REMARK>
 VINA RESULT:      -9.0      0.000      0.000
  Name = 
  5 active torsions:
  status: ('A' for Active; 'I' for Inactive)
    1  A    between atoms: C_3  and  C_31
    2  A    between atoms: C_6  and  C_28
    3  A    between atoms: C_9  and  C_27
    4  A    between atoms: C_11  and  N_21
    5  A    between atoms: C_26  and  C_27
                            x       y       z     vdW  Elec       q    Type
                         _______ _______ _______ _____ _____    ______ ____

>  <TORSDO>
F 5

$$$$
=
 OpenBabel11042412303D

 31 34  0  0  1  0  0  0  0  0999 V2000
  189.6580  178.3430  143.6900 C   0  0  1  0  0  3  0  0  0  0  0  0
  188.2170  178.1390  141.3570 N   0  0  0  0  0  0  0  0  0  0  0  0
  187.7580  177.4580  144.8310 C   0  0  0  0  0  2  0  0  0  0  0  0
  188.4640  178.2280  142.6100 C   0  0  0  0  0  0  0  0  0  0  0  0
  189.2110  177.3160  144.7060 C   0  0  2  0  0  3  0  0  0  0  0  0
  187.4110  177.8050  143.3650 C   0  0  2  0  0  3  0  0  0  0  0  0
  189.7000  176.9320  139.9990 C   0  0  0  0  0  3  0  0  0  0  0  0
  190.1480  176.8870  136.3450 O   0  0  0  0  0  1  0  0  0  0  0  0
  188.7290  178.9360  136.4710 O   0  0  0  0  0  1  0  0  0  0  0  0
  188.9930  178.1480  140.2340 C   0  0  0  0  0  0  0  0  0  0  0  0
  189.8730  177.3950  137.6270 C   0  0  0  0  0  0  0  0  0  0  0  0
  190.9590  175.3760  138.4320 C   0  0  0  0  0  1  0  0  0  0  0  0
  189.1740  178.5110  137.7630 C   0  0  0  0  0  0  0  0  0  0  0  0
  188.7410  179.0060  139.0870 C   0  0  0  0  0  3  0  0  0  0  0  0
  190.1970  176.5790  138.7350 C   0  0  0  0  0  0  0  0  0  0  0  0
  186.1200  178.1670  142.8100 C   0  0  0  0  0  0  0  0  0  0  0  0
  185.4190  177.9090  141.5360 C   0  0  0  0  0  3  0  0  0  0  0  0
  185.1100  178.8320  144.9800 C   0  0  0  0  0  3  0  0  0  0  0  0
  184.0270  178.4420  143.0240 N   0  0  0  0  0  0  0  0  0  0  0  0
  183.7150  179.0580  145.1570 C   0  0  0  0  0  3  0  0  0  0  0  0
  184.0670  178.1300  141.7350 N   0  0  0  0  0  2  0  0  0  0  0  0
  185.1360  178.4800  143.6050 C   0  0  0  0  0  0  0  0  0  0  0  0
  181.6980  178.8140  143.7370 N   0  0  0  0  0  1  0  0  0  0  0  0
  183.1220  178.7390  143.9940 C   0  0  0  0  0  0  0  0  0  0  0  0
  190.0060  177.1210  145.9480 C   0  0  0  0  0  0  0  0  0  0  0  0
  189.3660  177.6920  147.2000 C   0  0  0  0  0  1  0  0  0  0  0  0
  190.9600  176.4200  145.9780 O   0  0  0  0  0  0  0  0  0  0  0  0
  192.0440  178.8900  144.1630 O   0  0  0  0  0  1  0  0  0  0  0  0
  191.1090  178.3620  143.2460 C   0  0  1  0  0  3  0  0  0  0  0  0
  192.4280  177.0510  141.7870 O   0  0  0  0  0  1  0  0  0  0  0  0
  191.5090  176.9800  142.8330 C   0  0  0  0  0  2  0  0  0  0  0  0
  1 29  1  6  0  0  0
  1  5  1  0  0  0  0
  2  4  2  0  0  0  0
  4  6  1  0  0  0  0
  4  1  1  0  0  0  0
  5  3  1  0  0  0  0
  5 25  1  1  0  0  0
  6 16  1  1  0  0  0
  6  3  1  0  0  0  0
  7 10  1  0  0  0  0
  8 11  1  0  0  0  0
  9 13  1  0  0  0  0
 10  2  1  0  0  0  0
 11 13  2  0  0  0  0
 11 15  1  0  0  0  0
 12 15  1  0  0  0  0
 13 14  1  0  0  0  0
 14 10  2  0  0  0  0
 15  7  2  0  0  0  0
 16 22  1  0  0  0  0
 17 21  1  0  0  0  0
 17 16  2  0  0  0  0
 18 20  1  0  0  0  0
 19 22  1  0  0  0  0
 19 24  1  0  0  0  0
 21 19  1  0  0  0  0
 22 18  2  0  0  0  0
 23 24  1  0  0  0  0
 24 20  2  0  0  0  0
 25 27  2  0  0  0  0
 25 26  1  0  0  0  0
 29 28  1  1  0  0  0
 30 31  1  0  0  0  0
 31 29  1  0  0  0  0
M  END
>  <MODEL>
2

>  <REMARK>
 VINA RESULT:      -8.9      1.671      5.637
  Name = 
  5 active torsions:
  status: ('A' for Active; 'I' for Inactive)
    1  A    between atoms: C_3  and  C_31
    2  A    between atoms: C_6  and  C_28
    3  A    between atoms: C_9  and  C_27
    4  A    between atoms: C_11  and  N_21
    5  A    between atoms: C_26  and  C_27
                            x       y       z     vdW  Elec       q    Type
                         _______ _______ _______ _____ _____    ______ ____

>  <TORSDO>
F 5

$$$$
=
 OpenBabel11042412303D

 31 34  0  0  1  0  0  0  0  0999 V2000
  189.9290  177.7420  144.3900 C   0  0  1  0  0  3  0  0  0  0  0  0
  189.4250  177.4000  141.7090 N   0  0  0  0  0  0  0  0  0  0  0  0
  187.5680  177.7260  144.7400 C   0  0  0  0  0  2  0  0  0  0  0  0
  189.2310  177.7130  142.9350 C   0  0  0  0  0  0  0  0  0  0  0  0
  188.8230  177.1560  145.2380 C   0  0  2  0  0  3  0  0  0  0  0  0
  187.9040  177.7960  143.2320 C   0  0  2  0  0  3  0  0  0  0  0  0
  190.1710  176.4090  139.7190 C   0  0  0  0  0  3  0  0  0  0  0  0
  193.2790  176.8680  137.8000 O   0  0  0  0  0  1  0  0  0  0  0  0
  194.0150  178.0220  139.8870 O   0  0  0  0  0  1  0  0  0  0  0  0
  190.4960  176.9230  141.0090 C   0  0  0  0  0  0  0  0  0  0  0  0
  192.4270  176.7760  138.9140 C   0  0  0  0  0  0  0  0  0  0  0  0
  190.8740  175.7160  137.3760 C   0  0  0  0  0  1  0  0  0  0  0  0
  192.7830  177.3160  140.0690 C   0  0  0  0  0  0  0  0  0  0  0  0
  191.8630  177.3670  141.2250 C   0  0  0  0  0  3  0  0  0  0  0  0
  191.1250  176.2690  138.6990 C   0  0  0  0  0  0  0  0  0  0  0  0
  187.1060  178.3630  142.1610 C   0  0  0  0  0  0  0  0  0  0  0  0
  187.2800  178.5330  140.7050 C   0  0  0  0  0  3  0  0  0  0  0  0
  184.9750  178.3760  143.4380 C   0  0  0  0  0  3  0  0  0  0  0  0
  185.2350  178.6450  141.2000 N   0  0  0  0  0  0  0  0  0  0  0  0
  183.7030  178.5940  142.8350 C   0  0  0  0  0  3  0  0  0  0  0  0
  186.0320  178.7380  140.1420 N   0  0  0  0  0  2  0  0  0  0  0  0
  185.8130  178.4580  142.2950 C   0  0  0  0  0  0  0  0  0  0  0  0
  182.8810  178.8770  140.5140 N   0  0  0  0  0  1  0  0  0  0  0  0
  183.9120  178.6690  141.5090 C   0  0  0  0  0  0  0  0  0  0  0  0
  189.0080  177.0490  146.7100 C   0  0  0  0  0  0  0  0  0  0  0  0
  188.2910  178.1170  147.5150 C   0  0  0  0  0  1  0  0  0  0  0  0
  189.5170  176.1020  147.2110 O   0  0  0  0  0  0  0  0  0  0  0  0
  191.9470  177.5050  145.8350 O   0  0  0  0  0  1  0  0  0  0  0  0
  191.3510  177.2470  144.5810 C   0  0  1  0  0  3  0  0  0  0  0  0
  192.1130  175.1190  145.2710 O   0  0  0  0  0  1  0  0  0  0  0  0
  191.4000  175.7830  144.2730 C   0  0  0  0  0  2  0  0  0  0  0  0
  1 29  1  6  0  0  0
  1  5  1  0  0  0  0
  2  4  2  0  0  0  0
  3  5  1  0  0  0  0
  4  6  1  0  0  0  0
  4  1  1  0  0  0  0
  5 25  1  1  0  0  0
  6 16  1  1  0  0  0
  6  3  1  0  0  0  0
  7 10  1  0  0  0  0
  8 11  1  0  0  0  0
  9 13  1  0  0  0  0
 10 14  2  0  0  0  0
 10  2  1  0  0  0  0
 11 13  2  0  0  0  0
 12 15  1  0  0  0  0
 13 14  1  0  0  0  0
 15 11  1  0  0  0  0
 15  7  2  0  0  0  0
 16 22  1  0  0  0  0
 17 16  2  0  0  0  0
 19 24  1  0  0  0  0
 19 22  1  0  0  0  0
 20 18  1  0  0  0  0
 21 17  1  0  0  0  0
 21 19  1  0  0  0  0
 22 18  2  0  0  0  0
 23 24  1  0  0  0  0
 24 20  2  0  0  0  0
 25 27  2  0  0  0  0
 25 26  1  0  0  0  0
 29 28  1  1  0  0  0
 31 29  1  0  0  0  0
 31 30  1  0  0  0  0
M  END
>  <MODEL>
3

>  <REMARK>
 VINA RESULT:      -8.9      1.993      5.517
  Name = 
  5 active torsions:
  status: ('A' for Active; 'I' for Inactive)
    1  A    between atoms: C_3  and  C_31
    2  A    between atoms: C_6  and  C_28
    3  A    between atoms: C_9  and  C_27
    4  A    between atoms: C_11  and  N_21
    5  A    between atoms: C_26  and  C_27
                            x       y       z     vdW  Elec       q    Type
                         _______ _______ _______ _____ _____    ______ ____

>  <TORSDO>
F 5

$$$$
=
 OpenBabel11042412303D

 31 34  0  0  1  0  0  0  0  0999 V2000
  188.4480  178.2270  140.7280 C   0  0  1  0  0  3  0  0  0  0  0  0
  186.0230  178.0840  142.0150 N   0  0  0  0  0  0  0  0  0  0  0  0
  189.4030  177.0980  142.6010 C   0  0  0  0  0  2  0  0  0  0  0  0
  187.2910  178.0960  141.8470 C   0  0  0  0  0  0  0  0  0  0  0  0
  189.3570  177.0900  141.1360 C   0  0  2  0  0  3  0  0  0  0  0  0
  187.9480  177.5280  142.8970 C   0  0  2  0  0  3  0  0  0  0  0  0
  183.6880  178.0300  141.8060 C   0  0  0  0  0  3  0  0  0  0  0  0
  181.3840  180.1090  139.8260 O   0  0  0  0  0  1  0  0  0  0  0  0
  183.5010  180.8240  138.7130 O   0  0  0  0  0  1  0  0  0  0  0  0
  184.9530  178.2470  141.1840 C   0  0  0  0  0  0  0  0  0  0  0  0
  182.5530  179.4060  140.1660 C   0  0  0  0  0  0  0  0  0  0  0  0
  181.1630  178.3230  141.8390 C   0  0  0  0  0  1  0  0  0  0  0  0
  183.6990  179.6950  139.5710 C   0  0  0  0  0  0  0  0  0  0  0  0
  184.9760  179.0820  139.9940 C   0  0  0  0  0  3  0  0  0  0  0  0
  182.4900  178.5380  141.2800 C   0  0  0  0  0  0  0  0  0  0  0  0
  187.3430  177.8210  144.1820 C   0  0  0  0  0  0  0  0  0  0  0  0
  185.9700  177.7890  144.7250 C   0  0  0  0  0  3  0  0  0  0  0  0
  189.4720  177.7620  145.4620 C   0  0  0  0  0  3  0  0  0  0  0  0
  187.3640  177.7180  146.3020 N   0  0  0  0  0  0  0  0  0  0  0  0
  189.5290  177.7260  146.8850 C   0  0  0  0  0  3  0  0  0  0  0  0
  186.0520  177.7490  146.1060 N   0  0  0  0  0  2  0  0  0  0  0  0
  188.0650  177.7740  145.2660 C   0  0  0  0  0  0  0  0  0  0  0  0
  187.8600  177.5490  148.7090 N   0  0  0  0  0  1  0  0  0  0  0  0
  188.2610  177.6240  147.3190 C   0  0  0  0  0  0  0  0  0  0  0  0
  190.6280  176.8670  140.3960 C   0  0  0  0  0  0  0  0  0  0  0  0
  191.8310  177.5860  140.9800 C   0  0  0  0  0  1  0  0  0  0  0  0
  190.7210  176.0530  139.5400 O   0  0  0  0  0  0  0  0  0  0  0  0
  189.0320  179.0990  138.4660 O   0  0  0  0  0  1  0  0  0  0  0  0
  188.0960  178.4040  139.2620 C   0  0  1  0  0  3  0  0  0  0  0  0
  188.2960  177.0090  137.3650 O   0  0  0  0  0  1  0  0  0  0  0  0
  187.8030  177.0620  138.6680 C   0  0  0  0  0  2  0  0  0  0  0  0
  1 29  1  6  0  0  0
  1  5  1  0  0  0  0
  1  4  1  0  0  0  0
  3  6  1  0  0  0  0
  4  2  2  0  0  0  0
  4  6  1  0  0  0  0
  5 25  1  6  0  0  0
  5  3  1  0  0  0  0
  6 16  1  1  0  0  0
  8 11  1  0  0  0  0
  9 13  1  0  0  0  0
 10  7  2  0  0  0  0
 10  2  1  0  0  0  0
 11 15  2  0  0  0  0
 13 14  2  0  0  0  0
 13 11  1  0  0  0  0
 14 10  1  0  0  0  0
 15  7  1  0  0  0  0
 15 12  1  0  0  0  0
 16 17  2  0  0  0  0
 16 22  1  0  0  0  0
 17 21  1  0  0  0  0
 18 20  1  0  0  0  0
 19 24  1  0  0  0  0
 20 24  2  0  0  0  0
 21 19  1  0  0  0  0
 22 18  2  0  0  0  0
 22 19  1  0  0  0  0
 24 23  1  0  0  0  0
 25 26  1  0  0  0  0
 27 25  2  0  0  0  0
 29 28  1  6  0  0  0
 30 31  1  0  0  0  0
 31 29  1  0  0  0  0
M  END
>  <MODEL>
4

>  <REMARK>
 VINA RESULT:      -8.5      2.450      6.633
  Name = 
  5 active torsions:
  status: ('A' for Active; 'I' for Inactive)
    1  A    between atoms: C_3  and  C_31
    2  A    between atoms: C_6  and  C_28
    3  A    between atoms: C_9  and  C_27
    4  A    between atoms: C_11  and  N_21
    5  A    between atoms: C_26  and  C_27
                            x       y       z     vdW  Elec       q    Type
                         _______ _______ _______ _____ _____    ______ ____

>  <TORSDO>
F 5

$$$$
=
 OpenBabel11042412303D

 31 34  0  0  1  0  0  0  0  0999 V2000
  188.0930  177.1630  142.1590 C   0  0  1  0  0  3  0  0  0  0  0  0
  187.1070  177.6230  144.6840 N   0  0  0  0  0  0  0  0  0  0  0  0
  186.5030  178.7510  141.3520 C   0  0  0  0  0  2  0  0  0  0  0  0
  187.1540  177.5760  143.4060 C   0  0  0  0  0  0  0  0  0  0  0  0
  187.9170  178.3730  141.2690 C   0  0  2  0  0  3  0  0  0  0  0  0
  186.2350  178.4040  142.8340 C   0  0  2  0  0  3  0  0  0  0  0  0
  189.2380  176.8060  145.2230 C   0  0  0  0  0  3  0  0  0  0  0  0
  191.4610  177.5260  148.0690 O   0  0  0  0  0  1  0  0  0  0  0  0
  189.3910  178.5580  149.0070 O   0  0  0  0  0  1  0  0  0  0  0  0
  187.9590  177.2410  145.6800 C   0  0  0  0  0  0  0  0  0  0  0  0
  190.2670  177.3210  147.3560 C   0  0  0  0  0  0  0  0  0  0  0  0
  191.6920  176.3100  145.6680 C   0  0  0  0  0  1  0  0  0  0  0  0
  189.1230  177.7910  147.8280 C   0  0  0  0  0  0  0  0  0  0  0  0
  187.8680  177.7230  147.0490 C   0  0  0  0  0  3  0  0  0  0  0  0
  190.3690  176.7770  146.0550 C   0  0  0  0  0  0  0  0  0  0  0  0
  184.9770  178.4540  143.5540 C   0  0  0  0  0  0  0  0  0  0  0  0
  184.5660  178.8370  144.9190 C   0  0  0  0  0  3  0  0  0  0  0  0
  183.5440  178.3250  141.5280 C   0  0  0  0  0  3  0  0  0  0  0  0
  182.9050  178.9100  143.6260 N   0  0  0  0  0  0  0  0  0  0  0  0
  182.1440  178.5920  141.5410 C   0  0  0  0  0  3  0  0  0  0  0  0
  183.2070  179.0950  144.9050 N   0  0  0  0  0  2  0  0  0  0  0  0
  183.8550  178.5470  142.8960 C   0  0  0  0  0  0  0  0  0  0  0  0
  180.5210  179.3900  143.2360 N   0  0  0  0  0  1  0  0  0  0  0  0
  181.8420  179.0040  142.7850 C   0  0  0  0  0  0  0  0  0  0  0  0
  188.5740  178.4030  139.9360 C   0  0  0  0  0  0  0  0  0  0  0  0
  188.3240  177.1720  139.0830 C   0  0  0  0  0  1  0  0  0  0  0  0
  189.0900  179.3820  139.5120 O   0  0  0  0  0  0  0  0  0  0  0  0
  189.9320  175.6270  141.4710 O   0  0  0  0  0  1  0  0  0  0  0  0
  189.4860  176.6060  142.3850 C   0  0  1  0  0  3  0  0  0  0  0  0
  191.5070  177.5090  141.5550 O   0  0  0  0  0  1  0  0  0  0  0  0
  190.4590  177.7420  142.4450 C   0  0  0  0  0  2  0  0  0  0  0  0
  1 29  1  1  0  0  0
  1  4  1  0  0  0  0
  2 10  1  0  0  0  0
  3  6  1  0  0  0  0
  4  2  2  0  0  0  0
  5 25  1  6  0  0  0
  5  3  1  0  0  0  0
  5  1  1  0  0  0  0
  6  4  1  0  0  0  0
  6 16  1  6  0  0  0
  7 10  2  0  0  0  0
  7 15  1  0  0  0  0
 10 14  1  0  0  0  0
 11 13  1  0  0  0  0
 11  8  1  0  0  0  0
 12 15  1  0  0  0  0
 13  9  1  0  0  0  0
 14 13  2  0  0  0  0
 15 11  2  0  0  0  0
 16 17  2  0  0  0  0
 18 20  1  0  0  0  0
 18 22  2  0  0  0  0
 19 21  1  0  0  0  0
 20 24  2  0  0  0  0
 21 17  1  0  0  0  0
 22 16  1  0  0  0  0
 22 19  1  0  0  0  0
 24 23  1  0  0  0  0
 24 19  1  0  0  0  0
 26 25  1  0  0  0  0
 27 25  2  0  0  0  0
 29 28  1  6  0  0  0
 29 31  1  0  0  0  0
 30 31  1  0  0  0  0
M  END
>  <MODEL>
5

>  <REMARK>
 VINA RESULT:      -8.4      1.746      2.508
  Name = 
  5 active torsions:
  status: ('A' for Active; 'I' for Inactive)
    1  A    between atoms: C_3  and  C_31
    2  A    between atoms: C_6  and  C_28
    3  A    between atoms: C_9  and  C_27
    4  A    between atoms: C_11  and  N_21
    5  A    between atoms: C_26  and  C_27
                            x       y       z     vdW  Elec       q    Type
                         _______ _______ _______ _____ _____    ______ ____

>  <TORSDO>
F 5

$$$$
=
 OpenBabel11042412303D

 31 34  0  0  1  0  0  0  0  0999 V2000
  186.1200  177.7310  142.9800 C   0  0  1  0  0  3  0  0  0  0  0  0
  188.7480  177.5800  142.1870 N   0  0  0  0  0  0  0  0  0  0  0  0
  186.9100  178.1790  145.1880 C   0  0  0  0  0  2  0  0  0  0  0  0
  187.7250  177.5630  142.9560 C   0  0  0  0  0  0  0  0  0  0  0  0
  185.9560  178.6420  144.1770 C   0  0  2  0  0  3  0  0  0  0  0  0
  188.0700  177.7460  144.2620 C   0  0  2  0  0  3  0  0  0  0  0  0
  189.9330  176.8980  140.2820 C   0  0  0  0  0  3  0  0  0  0  0  0
  188.8610  176.4650  136.7870 O   0  0  0  0  0  1  0  0  0  0  0  0
  186.8640  177.7330  137.5820 O   0  0  0  0  0  1  0  0  0  0  0  0
  188.9210  177.7330  140.8410 C   0  0  0  0  0  0  0  0  0  0  0  0
  188.9250  177.0090  138.0820 C   0  0  0  0  0  0  0  0  0  0  0  0
  191.0110  175.7780  138.2710 C   0  0  0  0  0  1  0  0  0  0  0  0
  187.9240  177.7410  138.5450 C   0  0  0  0  0  0  0  0  0  0  0  0
  187.8830  178.2150  139.9440 C   0  0  0  0  0  3  0  0  0  0  0  0
  189.9870  176.5870  138.9140 C   0  0  0  0  0  0  0  0  0  0  0  0
  189.3150  177.0970  144.6260 C   0  0  0  0  0  0  0  0  0  0  0  0
  190.5750  176.7790  143.9250 C   0  0  0  0  0  3  0  0  0  0  0  0
  188.9560  177.2640  147.0790 C   0  0  0  0  0  3  0  0  0  0  0  0
  190.8940  176.7690  146.0070 N   0  0  0  0  0  0  0  0  0  0  0  0
  189.9810  177.0200  148.0390 C   0  0  0  0  0  3  0  0  0  0  0  0
  191.5540  176.5520  144.8760 N   0  0  0  0  0  2  0  0  0  0  0  0
  189.6800  177.0480  145.8770 C   0  0  0  0  0  0  0  0  0  0  0  0
  192.4080  176.5300  147.9350 N   0  0  0  0  0  1  0  0  0  0  0  0
  191.1140  176.8100  147.3470 C   0  0  0  0  0  0  0  0  0  0  0  0
  184.5900  179.0240  144.6240 C   0  0  0  0  0  0  0  0  0  0  0  0
  184.1800  178.4400  145.9630 C   0  0  0  0  0  1  0  0  0  0  0  0
  183.9590  179.8600  144.0680 O   0  0  0  0  0  0  0  0  0  0  0  0
  183.9850  177.6730  141.6940 O   0  0  0  0  0  1  0  0  0  0  0  0
  185.3500  178.0340  141.7080 C   0  0  1  0  0  3  0  0  0  0  0  0
  184.8270  179.7730  140.1960 O   0  0  0  0  0  1  0  0  0  0  0  0
  185.5070  179.4860  141.3790 C   0  0  0  0  0  2  0  0  0  0  0  0
  1 29  1  6  0  0  0
  1  5  1  0  0  0  0
  2  4  2  0  0  0  0
  4  1  1  0  0  0  0
  4  6  1  0  0  0  0
  5 25  1  1  0  0  0
  5  3  1  0  0  0  0
  6 16  1  1  0  0  0
  6  3  1  0  0  0  0
  7 10  1  0  0  0  0
  8 11  1  0  0  0  0
  9 13  1  0  0  0  0
 10  2  1  0  0  0  0
 11 13  2  0  0  0  0
 11 15  1  0  0  0  0
 12 15  1  0  0  0  0
 13 14  1  0  0  0  0
 14 10  2  0  0  0  0
 15  7  2  0  0  0  0
 16 22  1  0  0  0  0
 17 16  2  0  0  0  0
 17 21  1  0  0  0  0
 18 20  1  0  0  0  0
 19 24  1  0  0  0  0
 21 19  1  0  0  0  0
 22 19  1  0  0  0  0
 22 18  2  0  0  0  0
 24 23  1  0  0  0  0
 24 20  2  0  0  0  0
 25 26  1  0  0  0  0
 27 25  2  0  0  0  0
 29 28  1  1  0  0  0
 30 31  1  0  0  0  0
 31 29  1  0  0  0  0
M  END
>  <MODEL>
6

>  <REMARK>
 VINA RESULT:      -8.4      3.369      6.966
  Name = 
  5 active torsions:
  status: ('A' for Active; 'I' for Inactive)
    1  A    between atoms: C_3  and  C_31
    2  A    between atoms: C_6  and  C_28
    3  A    between atoms: C_9  and  C_27
    4  A    between atoms: C_11  and  N_21
    5  A    between atoms: C_26  and  C_27
                            x       y       z     vdW  Elec       q    Type
                         _______ _______ _______ _____ _____    ______ ____

>  <TORSDO>
F 5

$$$$
=
 OpenBabel11042412303D

 31 34  0  0  1  0  0  0  0  0999 V2000
  186.6940  178.7510  140.9530 C   0  0  1  0  0  3  0  0  0  0  0  0
  188.7970  177.1630  141.7360 N   0  0  0  0  0  0  0  0  0  0  0  0
  187.1810  178.1240  138.7020 C   0  0  0  0  0  2  0  0  0  0  0  0
  188.0560  177.8840  140.9830 C   0  0  0  0  0  0  0  0  0  0  0  0
  186.0810  178.2580  139.6610 C   0  0  2  0  0  3  0  0  0  0  0  0
  188.2980  177.6530  139.6620 C   0  0  2  0  0  3  0  0  0  0  0  0
  190.0090  176.8760  143.7230 C   0  0  0  0  0  3  0  0  0  0  0  0
  189.0850  177.4840  147.2340 O   0  0  0  0  0  1  0  0  0  0  0  0
  186.7890  177.6300  146.2660 O   0  0  0  0  0  1  0  0  0  0  0  0
  188.7520  176.8080  143.0530 C   0  0  0  0  0  0  0  0  0  0  0  0
  188.9390  177.1280  145.8820 C   0  0  0  0  0  0  0  0  0  0  0  0
  191.3650  177.0010  145.8700 C   0  0  0  0  0  1  0  0  0  0  0  0
  187.7400  177.1280  145.3210 C   0  0  0  0  0  0  0  0  0  0  0  0
  187.5540  176.8990  143.8720 C   0  0  0  0  0  3  0  0  0  0  0  0
  190.1180  176.9670  145.1190 C   0  0  0  0  0  0  0  0  0  0  0  0
  189.6990  177.4220  139.3640 C   0  0  0  0  0  0  0  0  0  0  0  0
  190.9760  177.7190  140.0420 C   0  0  0  0  0  3  0  0  0  0  0  0
  189.2850  175.7140  137.6070 C   0  0  0  0  0  3  0  0  0  0  0  0
  191.2530  176.1690  138.6420 N   0  0  0  0  0  0  0  0  0  0  0  0
  190.3070  174.8760  137.0740 C   0  0  0  0  0  3  0  0  0  0  0  0
  191.9500  176.8910  139.5110 N   0  0  0  0  0  2  0  0  0  0  0  0
  190.0390  176.4640  138.5470 C   0  0  0  0  0  0  0  0  0  0  0  0
  192.7060  174.4970  137.5650 N   0  0  0  0  0  1  0  0  0  0  0  0
  191.4240  175.1370  137.7740 C   0  0  0  0  0  0  0  0  0  0  0  0
  184.8030  178.8500  139.1840 C   0  0  0  0  0  0  0  0  0  0  0  0
  183.7670  177.8340  138.7380 C   0  0  0  0  0  1  0  0  0  0  0  0
  184.5550  180.0010  139.3200 O   0  0  0  0  0  0  0  0  0  0  0  0
  185.3120  180.1540  142.4820 O   0  0  0  0  0  1  0  0  0  0  0  0
  185.8200  178.8700  142.1880 C   0  0  1  0  0  3  0  0  0  0  0  0
  183.4910  178.5110  142.3600 O   0  0  0  0  0  1  0  0  0  0  0  0
  184.7040  177.8780  142.0910 C   0  0  0  0  0  2  0  0  0  0  0  0
  1  4  1  0  0  0  0
  1 29  1  1  0  0  0
  2 10  1  0  0  0  0
  3  5  1  0  0  0  0
  3  6  1  0  0  0  0
  4  2  2  0  0  0  0
  5 25  1  6  0  0  0
  5  1  1  0  0  0  0
  6 16  1  6  0  0  0
  6  4  1  0  0  0  0
  7 15  1  0  0  0  0
 10  7  2  0  0  0  0
 10 14  1  0  0  0  0
 11  8  1  0  0  0  0
 13 11  1  0  0  0  0
 13  9  1  0  0  0  0
 14 13  2  0  0  0  0
 15 12  1  0  0  0  0
 15 11  2  0  0  0  0
 16 17  2  0  0  0  0
 18 22  2  0  0  0  0
 19 21  1  0  0  0  0
 20 18  1  0  0  0  0
 20 24  2  0  0  0  0
 21 17  1  0  0  0  0
 22 19  1  0  0  0  0
 22 16  1  0  0  0  0
 23 24  1  0  0  0  0
 24 19  1  0  0  0  0
 25 27  2  0  0  0  0
 26 25  1  0  0  0  0
 29 28  1  6  0  0  0
 31 29  1  0  0  0  0
 31 30  1  0  0  0  0
M  END
>  <MODEL>
7

>  <REMARK>
 VINA RESULT:      -8.0      3.344      6.010
  Name = 
  5 active torsions:
  status: ('A' for Active; 'I' for Inactive)
    1  A    between atoms: C_3  and  C_31
    2  A    between atoms: C_6  and  C_28
    3  A    between atoms: C_9  and  C_27
    4  A    between atoms: C_11  and  N_21
    5  A    between atoms: C_26  and  C_27
                            x       y       z     vdW  Elec       q    Type
                         _______ _______ _______ _____ _____    ______ ____

>  <TORSDO>
F 5

$$$$
=
 OpenBabel11042412303D

 31 34  0  0  1  0  0  0  0  0999 V2000
  188.5540  178.3190  140.4890 C   0  0  1  0  0  3  0  0  0  0  0  0
  186.1870  178.3660  141.8870 N   0  0  0  0  0  0  0  0  0  0  0  0
  189.4590  176.9870  142.2510 C   0  0  0  0  0  2  0  0  0  0  0  0
  187.4410  178.2500  141.6560 C   0  0  0  0  0  0  0  0  0  0  0  0
  189.3490  177.0690  140.7920 C   0  0  2  0  0  3  0  0  0  0  0  0
  188.0760  177.5540  142.6410 C   0  0  2  0  0  3  0  0  0  0  0  0
  185.1950  178.2510  139.7650 C   0  0  0  0  0  3  0  0  0  0  0  0
  181.6770  177.8610  138.7540 O   0  0  0  0  0  1  0  0  0  0  0  0
  181.2640  178.4020  141.1560 O   0  0  0  0  0  1  0  0  0  0  0  0
  185.1070  178.6920  141.1190 C   0  0  0  0  0  0  0  0  0  0  0  0
  182.7850  178.2720  139.5150 C   0  0  0  0  0  0  0  0  0  0  0  0
  184.0860  177.6960  137.5460 C   0  0  0  0  0  1  0  0  0  0  0  0
  182.6270  178.6290  140.7800 C   0  0  0  0  0  0  0  0  0  0  0  0
  183.7780  178.9320  141.6570 C   0  0  0  0  0  3  0  0  0  0  0  0
  184.0670  178.1030  138.9430 C   0  0  0  0  0  0  0  0  0  0  0  0
  187.5630  177.8370  143.9680 C   0  0  0  0  0  0  0  0  0  0  0  0
  186.2230  177.8780  144.5870 C   0  0  0  0  0  3  0  0  0  0  0  0
  189.7490  177.5800  145.1220 C   0  0  0  0  0  3  0  0  0  0  0  0
  187.6920  177.6480  146.0780 N   0  0  0  0  0  0  0  0  0  0  0  0
  189.8810  177.4820  146.5370 C   0  0  0  0  0  3  0  0  0  0  0  0
  186.3770  177.7770  145.9580 N   0  0  0  0  0  2  0  0  0  0  0  0
  188.3390  177.6970  145.0070 C   0  0  0  0  0  0  0  0  0  0  0  0
  188.3050  177.3480  148.4450 N   0  0  0  0  0  1  0  0  0  0  0  0
  188.6340  177.4510  147.0390 C   0  0  0  0  0  0  0  0  0  0  0  0
  190.5540  176.7520  139.9780 C   0  0  0  0  0  0  0  0  0  0  0  0
  191.8150  177.4760  140.4130 C   0  0  0  0  0  1  0  0  0  0  0  0
  190.5610  175.8730  139.1840 O   0  0  0  0  0  0  0  0  0  0  0  0
  189.0630  179.3980  138.2990 O   0  0  0  0  0  1  0  0  0  0  0  0
  188.1610  178.6170  139.0540 C   0  0  1  0  0  3  0  0  0  0  0  0
  187.6880  177.5670  136.9900 O   0  0  0  0  0  1  0  0  0  0  0  0
  187.8750  177.3270  138.3510 C   0  0  0  0  0  2  0  0  0  0  0  0
  1 29  1  6  0  0  0
  1  5  1  0  0  0  0
  1  4  1  0  0  0  0
  3  6  1  0  0  0  0
  4  2  2  0  0  0  0
  4  6  1  0  0  0  0
  5 25  1  6  0  0  0
  5  3  1  0  0  0  0
  6 16  1  1  0  0  0
  7 10  1  0  0  0  0
  8 11  1  0  0  0  0
 10 14  2  0  0  0  0
 10  2  1  0  0  0  0
 11 13  2  0  0  0  0
 12 15  1  0  0  0  0
 13  9  1  0  0  0  0
 13 14  1  0  0  0  0
 15 11  1  0  0  0  0
 15  7  2  0  0  0  0
 16 17  2  0  0  0  0
 16 22  1  0  0  0  0
 17 21  1  0  0  0  0
 18 20  1  0  0  0  0
 19 24  1  0  0  0  0
 20 24  2  0  0  0  0
 21 19  1  0  0  0  0
 22 18  2  0  0  0  0
 22 19  1  0  0  0  0
 24 23  1  0  0  0  0
 25 26  1  0  0  0  0
 27 25  2  0  0  0  0
 29 28  1  6  0  0  0
 30 31  1  0  0  0  0
 31 29  1  0  0  0  0
M  END
>  <MODEL>
8

>  <REMARK>
 VINA RESULT:      -7.9      2.713      6.705
  Name = 
  5 active torsions:
  status: ('A' for Active; 'I' for Inactive)
    1  A    between atoms: C_3  and  C_31
    2  A    between atoms: C_6  and  C_28
    3  A    between atoms: C_9  and  C_27
    4  A    between atoms: C_11  and  N_21
    5  A    between atoms: C_26  and  C_27
                            x       y       z     vdW  Elec       q    Type
                         _______ _______ _______ _____ _____    ______ ____

>  <TORSDO>
F 5

$$$$
=
 OpenBabel11042412303D

 31 34  0  0  1  0  0  0  0  0999 V2000
  182.8270  178.2740  141.7220 C   0  0  1  0  0  3  0  0  0  0  0  0
  185.5610  178.3840  141.4610 N   0  0  0  0  0  0  0  0  0  0  0  0
  183.1220  178.7770  144.0370 C   0  0  0  0  0  2  0  0  0  0  0  0
  184.4140  178.2610  142.0150 C   0  0  0  0  0  0  0  0  0  0  0  0
  182.3450  179.1550  142.8540 C   0  0  2  0  0  3  0  0  0  0  0  0
  184.4770  178.4660  143.3610 C   0  0  2  0  0  3  0  0  0  0  0  0
  187.3950  178.5110  140.0040 C   0  0  0  0  0  3  0  0  0  0  0  0
  187.8050  177.3900  136.5220 O   0  0  0  0  0  1  0  0  0  0  0  0
  185.3200  177.1850  136.6360 O   0  0  0  0  0  1  0  0  0  0  0  0
  185.9790  178.5640  140.1740 C   0  0  0  0  0  0  0  0  0  0  0  0
  187.1750  177.9020  137.6690 C   0  0  0  0  0  0  0  0  0  0  0  0
  189.4310  178.2230  138.5110 C   0  0  0  0  0  1  0  0  0  0  0  0
  185.8550  177.8780  137.7690 C   0  0  0  0  0  0  0  0  0  0  0  0
  185.1570  178.2740  139.0100 C   0  0  0  0  0  3  0  0  0  0  0  0
  187.9980  178.2520  138.7640 C   0  0  0  0  0  0  0  0  0  0  0  0
  185.6830  177.9370  143.9690 C   0  0  0  0  0  0  0  0  0  0  0  0
  187.0020  177.4980  143.4700 C   0  0  0  0  0  3  0  0  0  0  0  0
  185.1000  178.6280  146.2830 C   0  0  0  0  0  3  0  0  0  0  0  0
  187.1280  177.9490  145.5240 N   0  0  0  0  0  0  0  0  0  0  0  0
  186.0320  178.6200  147.3610 C   0  0  0  0  0  3  0  0  0  0  0  0
  187.8890  177.5030  144.5320 N   0  0  0  0  0  2  0  0  0  0  0  0
  185.9310  178.1690  145.2280 C   0  0  0  0  0  0  0  0  0  0  0  0
  188.4580  178.1660  147.5850 N   0  0  0  0  0  1  0  0  0  0  0  0
  187.2240  178.2850  146.8370 C   0  0  0  0  0  0  0  0  0  0  0  0
  180.8880  179.4000  143.0210 C   0  0  0  0  0  0  0  0  0  0  0  0
  180.1240  178.2510  143.6530 C   0  0  0  0  0  1  0  0  0  0  0  0
  180.4070  180.4690  142.8450 O   0  0  0  0  0  0  0  0  0  0  0  0
  181.0190  177.9840  140.0300 O   0  0  0  0  0  1  0  0  0  0  0  0
  182.2960  178.5130  140.3210 C   0  0  1  0  0  3  0  0  0  0  0  0
  181.1430  180.3610  139.4040 O   0  0  0  0  0  1  0  0  0  0  0  0
  182.3290  179.9810  140.0320 C   0  0  0  0  0  2  0  0  0  0  0  0
  1 29  1  6  0  0  0
  1  4  1  0  0  0  0
  1  5  1  0  0  0  0
  2  4  2  0  0  0  0
  4  6  1  0  0  0  0
  5 25  1  1  0  0  0
  5  3  1  0  0  0  0
  6 16  1  1  0  0  0
  6  3  1  0  0  0  0
  7 10  1  0  0  0  0
  8 11  1  0  0  0  0
  9 13  1  0  0  0  0
 10  2  1  0  0  0  0
 11 13  2  0  0  0  0
 11 15  1  0  0  0  0
 12 15  1  0  0  0  0
 13 14  1  0  0  0  0
 14 10  2  0  0  0  0
 15  7  2  0  0  0  0
 16 22  1  0  0  0  0
 17 16  2  0  0  0  0
 17 21  1  0  0  0  0
 18 20  1  0  0  0  0
 19 24  1  0  0  0  0
 21 19  1  0  0  0  0
 22 19  1  0  0  0  0
 22 18  2  0  0  0  0
 24 20  2  0  0  0  0
 24 23  1  0  0  0  0
 25 26  1  0  0  0  0
 27 25  2  0  0  0  0
 29 28  1  1  0  0  0
 30 31  1  0  0  0  0
 31 29  1  0  0  0  0
M  END
>  <MODEL>
9

>  <REMARK>
 VINA RESULT:      -7.8      3.978      7.472
  Name = 
  5 active torsions:
  status: ('A' for Active; 'I' for Inactive)
    1  A    between atoms: C_3  and  C_31
    2  A    between atoms: C_6  and  C_28
    3  A    between atoms: C_9  and  C_27
    4  A    between atoms: C_11  and  N_21
    5  A    between atoms: C_26  and  C_27
                            x       y       z     vdW  Elec       q    Type
                         _______ _______ _______ _____ _____    ______ ____

>  <TORSDO>
F 5

$$$$
