=
 OpenBabel11032419533D

 48 52  0  0  1  0  0  0  0  0999 V2000
  190.5810  176.9020  143.0230 C   0  0  1  0  0  3  0  0  0  0  0  0
  188.9400  177.5450  141.1650 C   0  0  0  0  0  0  0  0  0  0  0  0
  186.2700  178.1830  141.4220 C   0  0  0  0  0  0  0  0  0  0  0  0
  186.8950  178.3580  140.2180 C   0  0  0  0  0  0  0  0  0  0  0  0
  186.9250  177.6800  142.5440 C   0  0  0  0  0  3  0  0  0  0  0  0
  188.2480  178.0280  140.0250 C   0  0  0  0  0  0  0  0  0  0  0  0
  185.0270  178.5640  141.3110 O   0  0  0  0  0  0  0  0  0  0  0  0
  184.8920  178.9740  140.0600 C   0  0  0  0  0  0  0  0  0  0  0  0
  188.2860  177.3670  142.3870 C   0  0  0  0  0  0  0  0  0  0  0  0
  186.0280  178.8670  139.3230 N   0  0  0  0  0  0  0  0  0  0  0  0
  189.1250  176.8580  143.4910 C   0  0  0  0  0  2  0  0  0  0  0  0
  190.6800  177.1560  141.2070 S   0  0  0  0  0  0  0  0  0  0  0  0
  191.3450  177.9580  143.7630 C   0  0  0  0  0  0  0  0  0  0  0  0
  191.8860  177.6780  145.0530 N   0  0  0  0  0  2  0  0  0  0  0  0
  191.4030  179.1640  143.3020 N   0  0  0  0  0  2  0  0  0  0  0  0
  191.7880  176.4010  145.6200 N   0  0  0  0  0  2  0  0  0  0  0  0
  192.4260  175.7920  147.8700 C   0  0  0  0  0  1  0  0  0  0  0  0
  191.4530  176.5800  147.0210 C   0  0  2  0  0  3  0  0  0  0  0  0
  190.0960  176.0960  147.2660 N   0  0  0  0  0  2  0  0  0  0  0  0
  188.6830  177.6940  148.4320 N   0  0  0  0  0  0  0  0  0  0  0  0
  187.7960  178.8400  148.2370 C   0  0  0  0  0  2  0  0  0  0  0  0
  186.5440  178.4250  147.4770 C   0  0  1  0  0  3  0  0  0  0  0  0
  185.6370  179.6250  147.3060 C   0  0  0  0  0  1  0  0  0  0  0  0
  187.9260  176.7410  146.2680 C   0  0  0  0  0  2  0  0  0  0  0  0
  186.9430  177.8930  146.1090 C   0  0  0  0  0  2  0  0  0  0  0  0
  189.7810  178.1790  149.0630 O   0  0  0  0  0  1  0  0  0  0  0  0
  189.1190  177.1860  147.1220 C   0  0  2  0  0  3  0  0  0  0  0  0
  188.0460  177.8300  137.5480 C   0  0  0  0  0  2  0  0  0  0  0  0
  188.9370  178.2530  138.7030 C   0  0  2  0  0  3  0  0  0  0  0  0
  189.1700  176.9290  137.9920 C   0  0  2  0  0  3  0  0  0  0  0  0
  190.3270  177.0860  137.0240 C   0  0  0  0  0  2  0  0  0  0  0  0
  191.0070  174.7480  138.1750 O   0  0  0  0  0  0  0  0  0  0  0  0
  192.7340  176.4880  138.0770 O   0  0  0  0  0  0  0  0  0  0  0  0
  191.5810  175.8610  137.3440 S   0  0  0  0  0  0  0  0  0  0  0  0
  192.1580  175.2050  135.7980 C   0  0  0  0  0  1  0  0  0  0  0  0
  183.6120  179.4930  139.5060 C   0  0  0  0  0  2  0  0  0  0  0  0
  183.3500  177.5630  138.1870 O   0  0  0  0  0  0  0  0  0  0  0  0
  182.8080  178.3840  138.9090 C   0  0  0  0  0  0  0  0  0  0  0  0
  181.3470  178.2710  139.2170 C   0  0  0  0  0  2  0  0  0  0  0  0
  181.1270  177.8160  140.6540 C   0  0  0  0  0  2  0  0  0  0  0  0
  178.9310  178.5400  141.2290 O   0  0  0  0  0  1  0  0  0  0  0  0
  180.2850  178.8230  141.4290 C   0  0  1  0  0  3  0  0  0  0  0  0
  179.8100  179.6610  143.6240 O   0  0  0  0  0  1  0  0  0  0  0  0
  180.6190  178.7630  142.9160 C   0  0  2  0  0  3  0  0  0  0  0  0
  182.4890  178.6260  144.1620 O   0  0  0  0  0  0  0  0  0  0  0  0
  182.0610  179.1110  143.1330 C   0  0  0  0  0  2  0  0  0  0  0  0
  183.1350  178.8370  144.2330 C   0  0  0  0  0  2  0  0  0  0  0  0
  184.2440  179.8410  144.2220 O   0  0  0  0  0  1  0  0  0  0  0  0
  1 11  1  0  0  0  0
  1 13  1  1  0  0  0
  2 12  1  0  0  0  0
  2  9  1  0  0  0  0
  3  5  1  0  0  0  0
  4  3  2  0  0  0  0
  6  4  1  0  0  0  0
  6  2  2  0  0  0  0
  7  3  1  0  0  0  0
  8  7  1  0  0  0  0
  9  5  2  0  0  0  0
  9 11  1  0  0  0  0
 10  8  2  0  0  0  0
 10  4  1  0  0  0  0
 12  1  1  0  0  0  0
 13 14  1  0  0  0  0
 14 16  1  0  0  0  0
 15 13  2  0  0  0  0
 16 18  1  0  0  0  0
 18 19  1  0  0  0  0
 18 17  1  1  0  0  0
 20 26  1  0  0  0  0
 21 20  1  0  0  0  0
 22 23  1  6  0  0  0
 22 21  1  0  0  0  0
 24 27  1  0  0  0  0
 25 24  1  0  0  0  0
 25 22  1  0  0  0  0
 27 19  1  1  0  0  0
 27 20  1  0  0  0  0
 28 30  1  0  0  0  0
 28 29  1  0  0  0  0
 29  6  1  1  0  0  0
 30 31  1  6  0  0  0
 30 29  1  0  0  0  0
 31 34  1  0  0  0  0
 34 33  2  0  0  0  0
 34 32  2  0  0  0  0
 35 34  1  0  0  0  0
 36  8  1  0  0  0  0
 37 38  2  0  0  0  0
 38 39  1  0  0  0  0
 38 36  1  0  0  0  0
 39 40  1  0  0  0  0
 40 42  1  0  0  0  0
 42 41  1  1  0  0  0
 42 44  1  0  0  0  0
 44 46  1  0  0  0  0
 44 43  1  1  0  0  0
 45 47  1  0  0  0  0
 46 45  1  0  0  0  0
 48 47  1  0  0  0  0
M  END
>  <MODEL>
1

>  <REMARK>
 VINA RESULT:      -8.1      0.000      0.000
  Name = 
  16 active torsions:
  status: ('A' for Active; 'I' for Inactive)
    1  A    between atoms: C_3  and  C_24
    2  A    between atoms: C_10  and  C_19
    3  A    between atoms: C_10  and  C_46
    4  A    between atoms: C_13  and  C_34
    5  A    between atoms: C_14  and  C_43
    6  A    between atoms: C_18  and  C_34
    7  A    between atoms: C_18  and  C_44
    8  A    between atoms: S_22  and  C_28
    9  A    between atoms: C_28  and  C_47
   10  A    between atoms: N_29  and  N_30
   11  A    between atoms: N_29  and  C_33
   12  A    between atoms: C_33  and  N_45
   13  A    between atoms: C_36  and  C_37
   14  A    between atoms: C_36  and  C_46
   15  A    between atoms: C_37  and  C_44
   16  A    between atoms: C_42  and  N_45
                            x       y       z     vdW  Elec       q    Type
                         _______ _______ _______ _____ _____    ______ ____

>  <TORSDO>
F 16

$$$$
=
 OpenBabel11032419533D

 48 52  0  0  1  0  0  0  0  0999 V2000
  185.3720  177.6960  137.1470 C   0  0  1  0  0  3  0  0  0  0  0  0
  187.8350  177.5250  137.8270 C   0  0  0  0  0  0  0  0  0  0  0  0
  188.9160  177.8640  140.3410 C   0  0  0  0  0  0  0  0  0  0  0  0
  189.7030  177.3990  139.3230 C   0  0  0  0  0  0  0  0  0  0  0  0
  187.5720  178.1890  140.1670 C   0  0  0  0  0  3  0  0  0  0  0  0
  189.2090  177.2290  138.0180 C   0  0  0  0  0  0  0  0  0  0  0  0
  189.6310  177.9250  141.4320 O   0  0  0  0  0  0  0  0  0  0  0  0
  190.8360  177.4990  141.0900 C   0  0  0  0  0  0  0  0  0  0  0  0
  187.0460  178.0040  138.8770 C   0  0  0  0  0  0  0  0  0  0  0  0
  190.9450  177.1560  139.7800 N   0  0  0  0  0  0  0  0  0  0  0  0
  185.6330  178.2710  138.5410 C   0  0  0  0  0  2  0  0  0  0  0  0
  186.9500  177.2940  136.2970 S   0  0  0  0  0  0  0  0  0  0  0  0
  184.4750  176.4980  137.2260 C   0  0  0  0  0  0  0  0  0  0  0  0
  183.1920  176.6040  137.8400 N   0  0  0  0  0  2  0  0  0  0  0  0
  184.9080  175.3350  136.8630 N   0  0  0  0  0  2  0  0  0  0  0  0
  182.7090  177.8330  138.3080 N   0  0  0  0  0  2  0  0  0  0  0  0
  180.6880  177.2430  139.4940 C   0  0  0  0  0  1  0  0  0  0  0  0
  182.1530  177.5990  139.6270 C   0  0  2  0  0  3  0  0  0  0  0  0
  182.2850  178.8080  140.4360 N   0  0  0  0  0  2  0  0  0  0  0  0
  182.0480  179.1840  142.8260 N   0  0  0  0  0  0  0  0  0  0  0  0
  182.5330  178.7530  144.1370 C   0  0  0  0  0  2  0  0  0  0  0  0
  183.9980  179.1300  144.3150 C   0  0  1  0  0  3  0  0  0  0  0  0
  184.4670  178.6910  145.6860 C   0  0  0  0  0  1  0  0  0  0  0  0
  184.3040  178.7970  141.8650 C   0  0  0  0  0  2  0  0  0  0  0  0
  184.8260  178.4310  143.2480 C   0  0  0  0  0  2  0  0  0  0  0  0
  180.7630  178.7560  142.7490 O   0  0  0  0  0  1  0  0  0  0  0  0
  182.8050  178.4890  141.7740 C   0  0  2  0  0  3  0  0  0  0  0  0
  189.9930  175.1720  136.8470 C   0  0  0  0  0  2  0  0  0  0  0  0
  190.0750  176.6880  136.9090 C   0  0  2  0  0  3  0  0  0  0  0  0
  191.1950  175.8300  137.4760 C   0  0  2  0  0  3  0  0  0  0  0  0
  192.3410  175.7950  136.4850 C   0  0  0  0  0  2  0  0  0  0  0  0
  193.6340  173.7400  137.6520 O   0  0  0  0  0  0  0  0  0  0  0  0
  194.1330  175.9930  138.4870 O   0  0  0  0  0  0  0  0  0  0  0  0
  193.8220  175.1800  137.2610 S   0  0  0  0  0  0  0  0  0  0  0  0
  195.1740  175.3080  136.1160 C   0  0  0  0  0  1  0  0  0  0  0  0
  191.9710  177.4130  142.0480 C   0  0  0  0  0  2  0  0  0  0  0  0
  191.7960  178.7700  143.9620 O   0  0  0  0  0  0  0  0  0  0  0  0
  191.5110  177.7040  143.4390 C   0  0  0  0  0  0  0  0  0  0  0  0
  190.6810  176.6990  144.1770 C   0  0  0  0  0  2  0  0  0  0  0  0
  189.3160  177.2740  144.5310 C   0  0  0  0  0  2  0  0  0  0  0  0
  187.9760  178.1700  146.2870 O   0  0  0  0  0  1  0  0  0  0  0  0
  189.2670  177.7260  145.9870 C   0  0  1  0  0  3  0  0  0  0  0  0
  188.7500  176.4960  147.9780 O   0  0  0  0  0  1  0  0  0  0  0  0
  189.6560  176.5770  146.9130 C   0  0  2  0  0  3  0  0  0  0  0  0
  191.6640  175.7530  147.5070 O   0  0  0  0  0  0  0  0  0  0  0  0
  191.0390  176.7940  147.4480 C   0  0  0  0  0  2  0  0  0  0  0  0
  192.2710  175.8970  147.7850 C   0  0  0  0  0  2  0  0  0  0  0  0
  193.1410  176.4840  148.8510 O   0  0  0  0  0  1  0  0  0  0  0  0
  1 13  1  1  0  0  0
  1 11  1  0  0  0  0
  2  6  2  0  0  0  0
  2  9  1  0  0  0  0
  3  7  1  0  0  0  0
  4 10  1  0  0  0  0
  4  3  2  0  0  0  0
  5  3  1  0  0  0  0
  6  4  1  0  0  0  0
  8  7  1  0  0  0  0
  8 36  1  0  0  0  0
  9  5  2  0  0  0  0
 10  8  2  0  0  0  0
 11  9  1  0  0  0  0
 12  1  1  0  0  0  0
 12  2  1  0  0  0  0
 13 14  1  0  0  0  0
 14 16  1  0  0  0  0
 15 13  2  0  0  0  0
 16 18  1  0  0  0  0
 18 17  1  6  0  0  0
 18 19  1  0  0  0  0
 20 21  1  0  0  0  0
 21 22  1  0  0  0  0
 22 23  1  1  0  0  0
 24 25  1  0  0  0  0
 25 22  1  0  0  0  0
 26 20  1  0  0  0  0
 27 19  1  6  0  0  0
 27 24  1  0  0  0  0
 27 20  1  0  0  0  0
 28 29  1  0  0  0  0
 28 30  1  0  0  0  0
 29 30  1  0  0  0  0
 29  6  1  1  0  0  0
 30 31  1  6  0  0  0
 31 34  1  0  0  0  0
 34 32  2  0  0  0  0
 34 33  2  0  0  0  0
 35 34  1  0  0  0  0
 36 38  1  0  0  0  0
 38 37  2  0  0  0  0
 38 39  1  0  0  0  0
 39 40  1  0  0  0  0
 40 42  1  0  0  0  0
 42 41  1  1  0  0  0
 42 44  1  0  0  0  0
 44 46  1  0  0  0  0
 44 43  1  1  0  0  0
 45 47  1  0  0  0  0
 46 45  1  0  0  0  0
 47 48  1  0  0  0  0
M  END
>  <MODEL>
2

>  <REMARK>
 VINA RESULT:      -8.0      3.016      7.872
  Name = 
  16 active torsions:
  status: ('A' for Active; 'I' for Inactive)
    1  A    between atoms: C_3  and  C_24
    2  A    between atoms: C_10  and  C_19
    3  A    between atoms: C_10  and  C_46
    4  A    between atoms: C_13  and  C_34
    5  A    between atoms: C_14  and  C_43
    6  A    between atoms: C_18  and  C_34
    7  A    between atoms: C_18  and  C_44
    8  A    between atoms: S_22  and  C_28
    9  A    between atoms: C_28  and  C_47
   10  A    between atoms: N_29  and  N_30
   11  A    between atoms: N_29  and  C_33
   12  A    between atoms: C_33  and  N_45
   13  A    between atoms: C_36  and  C_37
   14  A    between atoms: C_36  and  C_46
   15  A    between atoms: C_37  and  C_44
   16  A    between atoms: C_42  and  N_45
                            x       y       z     vdW  Elec       q    Type
                         _______ _______ _______ _____ _____    ______ ____

>  <TORSDO>
F 16

$$$$
=
 OpenBabel11032419533D

 48 52  0  0  1  0  0  0  0  0999 V2000
  190.6280  176.8640  143.0910 C   0  0  1  0  0  3  0  0  0  0  0  0
  188.9880  177.5370  141.2440 C   0  0  0  0  0  0  0  0  0  0  0  0
  186.3160  178.1660  141.5110 C   0  0  0  0  0  0  0  0  0  0  0  0
  186.9420  178.3640  140.3100 C   0  0  0  0  0  0  0  0  0  0  0  0
  186.9710  177.6440  142.6240 C   0  0  0  0  0  3  0  0  0  0  0  0
  188.2950  178.0400  140.1130 C   0  0  0  0  0  0  0  0  0  0  0  0
  185.0720  178.5470  141.4050 O   0  0  0  0  0  0  0  0  0  0  0  0
  184.9380  178.9790  140.1620 C   0  0  0  0  0  0  0  0  0  0  0  0
  188.3330  177.3360  142.4620 C   0  0  0  0  0  0  0  0  0  0  0  0
  186.0750  178.8870  139.4240 N   0  0  0  0  0  0  0  0  0  0  0  0
  189.1720  176.8090  143.5580 C   0  0  0  0  0  2  0  0  0  0  0  0
  190.7280  177.1520  141.2800 S   0  0  0  0  0  0  0  0  0  0  0  0
  191.3900  177.9080  143.8510 C   0  0  0  0  0  0  0  0  0  0  0  0
  191.8450  177.6390  145.1760 N   0  0  0  0  0  2  0  0  0  0  0  0
  191.5220  179.1000  143.3670 N   0  0  0  0  0  2  0  0  0  0  0  0
  191.6650  176.3810  145.7650 N   0  0  0  0  0  2  0  0  0  0  0  0
  192.5520  175.7960  147.9350 C   0  0  0  0  0  1  0  0  0  0  0  0
  191.5050  176.5960  147.1910 C   0  0  2  0  0  3  0  0  0  0  0  0
  190.1760  176.1570  147.6080 N   0  0  0  0  0  2  0  0  0  0  0  0
  188.6370  177.8060  148.5160 N   0  0  0  0  0  0  0  0  0  0  0  0
  187.7180  178.8830  148.1500 C   0  0  0  0  0  2  0  0  0  0  0  0
  186.5270  178.3310  147.3770 C   0  0  1  0  0  3  0  0  0  0  0  0
  185.5850  179.4620  147.0290 C   0  0  0  0  0  1  0  0  0  0  0  0
  188.0410  176.5910  146.4350 C   0  0  0  0  0  2  0  0  0  0  0  0
  187.0230  177.6720  146.0990 C   0  0  0  0  0  2  0  0  0  0  0  0
  189.6780  178.4060  149.1450 O   0  0  0  0  0  1  0  0  0  0  0  0
  189.1650  177.1790  147.2940 C   0  0  2  0  0  3  0  0  0  0  0  0
  188.0710  177.9460  137.6310 C   0  0  0  0  0  2  0  0  0  0  0  0
  188.9850  178.2890  138.7950 C   0  0  2  0  0  3  0  0  0  0  0  0
  189.1630  176.9870  138.0310 C   0  0  2  0  0  3  0  0  0  0  0  0
  190.3190  177.1370  137.0630 C   0  0  0  0  0  2  0  0  0  0  0  0
  191.6980  175.1040  135.9570 O   0  0  0  0  0  0  0  0  0  0  0  0
  190.9690  174.8240  138.2830 O   0  0  0  0  0  0  0  0  0  0  0  0
  191.4860  175.8070  137.2690 S   0  0  0  0  0  0  0  0  0  0  0  0
  193.0320  176.4730  137.8370 C   0  0  0  0  0  1  0  0  0  0  0  0
  183.6570  179.5050  139.6170 C   0  0  0  0  0  2  0  0  0  0  0  0
  181.9500  178.2500  140.6380 O   0  0  0  0  0  0  0  0  0  0  0  0
  182.6040  178.4450  139.6270 C   0  0  0  0  0  0  0  0  0  0  0  0
  182.3380  177.6440  138.3900 C   0  0  0  0  0  2  0  0  0  0  0  0
  183.4580  176.6430  138.1380 C   0  0  0  0  0  2  0  0  0  0  0  0
  184.9390  176.9700  136.2990 O   0  0  0  0  0  1  0  0  0  0  0  0
  183.6920  176.4400  136.6440 C   0  0  1  0  0  3  0  0  0  0  0  0
  182.3440  174.6120  135.8770 O   0  0  0  0  0  1  0  0  0  0  0  0
  183.6360  174.9560  136.2940 C   0  0  2  0  0  3  0  0  0  0  0  0
  184.6970  173.1780  137.1750 O   0  0  0  0  0  0  0  0  0  0  0  0
  184.0130  174.1330  137.4880 C   0  0  0  0  0  2  0  0  0  0  0  0
  184.8160  172.8180  137.7440 C   0  0  0  0  0  2  0  0  0  0  0  0
  186.2930  173.0470  137.8200 O   0  0  0  0  0  1  0  0  0  0  0  0
  1 11  1  0  0  0  0
  1 13  1  1  0  0  0
  2 12  1  0  0  0  0
  2  9  1  0  0  0  0
  3  5  1  0  0  0  0
  4  3  2  0  0  0  0
  6  4  1  0  0  0  0
  6  2  2  0  0  0  0
  7  3  1  0  0  0  0
  8  7  1  0  0  0  0
  9  5  2  0  0  0  0
  9 11  1  0  0  0  0
 10  8  2  0  0  0  0
 10  4  1  0  0  0  0
 12  1  1  0  0  0  0
 13 14  1  0  0  0  0
 14 16  1  0  0  0  0
 15 13  2  0  0  0  0
 16 18  1  0  0  0  0
 18 19  1  0  0  0  0
 18 17  1  1  0  0  0
 20 26  1  0  0  0  0
 21 20  1  0  0  0  0
 22 23  1  6  0  0  0
 22 21  1  0  0  0  0
 24 27  1  0  0  0  0
 25 24  1  0  0  0  0
 25 22  1  0  0  0  0
 27 19  1  1  0  0  0
 27 20  1  0  0  0  0
 28 30  1  0  0  0  0
 28 29  1  0  0  0  0
 29  6  1  1  0  0  0
 30 31  1  6  0  0  0
 30 29  1  0  0  0  0
 31 34  1  0  0  0  0
 32 34  2  0  0  0  0
 34 35  1  0  0  0  0
 34 33  2  0  0  0  0
 36 38  1  0  0  0  0
 36  8  1  0  0  0  0
 38 37  2  0  0  0  0
 39 38  1  0  0  0  0
 40 39  1  0  0  0  0
 42 41  1  1  0  0  0
 42 40  1  0  0  0  0
 44 43  1  1  0  0  0
 44 42  1  0  0  0  0
 44 46  1  0  0  0  0
 45 46  1  0  0  0  0
 45 47  1  0  0  0  0
 47 48  1  0  0  0  0
M  END
>  <MODEL>
3

>  <REMARK>
 VINA RESULT:      -7.8      1.947      3.599
  Name = 
  16 active torsions:
  status: ('A' for Active; 'I' for Inactive)
    1  A    between atoms: C_3  and  C_24
    2  A    between atoms: C_10  and  C_19
    3  A    between atoms: C_10  and  C_46
    4  A    between atoms: C_13  and  C_34
    5  A    between atoms: C_14  and  C_43
    6  A    between atoms: C_18  and  C_34
    7  A    between atoms: C_18  and  C_44
    8  A    between atoms: S_22  and  C_28
    9  A    between atoms: C_28  and  C_47
   10  A    between atoms: N_29  and  N_30
   11  A    between atoms: N_29  and  C_33
   12  A    between atoms: C_33  and  N_45
   13  A    between atoms: C_36  and  C_37
   14  A    between atoms: C_36  and  C_46
   15  A    between atoms: C_37  and  C_44
   16  A    between atoms: C_42  and  N_45
                            x       y       z     vdW  Elec       q    Type
                         _______ _______ _______ _____ _____    ______ ____

>  <TORSDO>
F 16

$$$$
=
 OpenBabel11032419533D

 48 52  0  0  1  0  0  0  0  0999 V2000
  190.6750  176.8760  143.4380 C   0  0  1  0  0  3  0  0  0  0  0  0
  190.4660  177.1200  140.8980 C   0  0  0  0  0  0  0  0  0  0  0  0
  188.2640  177.9490  139.4610 C   0  0  0  0  0  0  0  0  0  0  0  0
  189.4640  177.7800  138.8240 C   0  0  0  0  0  0  0  0  0  0  0  0
  188.0940  177.7100  140.8230 C   0  0  0  0  0  3  0  0  0  0  0  0
  190.6120  177.3380  139.5040 C   0  0  0  0  0  0  0  0  0  0  0  0
  187.3810  178.3590  138.5920 O   0  0  0  0  0  0  0  0  0  0  0  0
  188.0290  178.4460  137.4410 C   0  0  0  0  0  0  0  0  0  0  0  0
  189.2330  177.2920  141.5320 C   0  0  0  0  0  0  0  0  0  0  0  0
  189.3380  178.0940  137.5220 N   0  0  0  0  0  0  0  0  0  0  0  0
  189.2210  177.0320  142.9860 C   0  0  0  0  0  2  0  0  0  0  0  0
  191.7920  176.6590  141.9970 S   0  0  0  0  0  0  0  0  0  0  0  0
  191.0960  178.0410  144.2830 C   0  0  0  0  0  0  0  0  0  0  0  0
  190.5510  178.2100  145.5910 N   0  0  0  0  0  2  0  0  0  0  0  0
  191.8480  178.9680  143.7870 N   0  0  0  0  0  2  0  0  0  0  0  0
  189.6810  177.2620  146.1440 N   0  0  0  0  0  2  0  0  0  0  0  0
  188.9610  178.0820  148.3000 C   0  0  0  0  0  1  0  0  0  0  0  0
  188.6300  177.9940  146.8260 C   0  0  2  0  0  3  0  0  0  0  0  0
  187.3580  177.2970  146.6580 N   0  0  0  0  0  2  0  0  0  0  0  0
  185.1390  178.2470  146.3650 N   0  0  0  0  0  0  0  0  0  0  0  0
  184.3260  179.0840  145.4830 C   0  0  0  0  0  2  0  0  0  0  0  0
  184.1090  178.3960  144.1420 C   0  0  1  0  0  3  0  0  0  0  0  0
  183.2500  179.2750  143.2590 C   0  0  0  0  0  1  0  0  0  0  0  0
  186.3600  177.3600  144.3950 C   0  0  0  0  0  2  0  0  0  0  0  0
  185.4560  178.1680  143.4740 C   0  0  0  0  0  2  0  0  0  0  0  0
  185.3170  178.9690  147.4990 O   0  0  0  0  0  1  0  0  0  0  0  0
  186.4650  178.0470  145.7600 C   0  0  2  0  0  3  0  0  0  0  0  0
  191.7430  176.6760  137.3830 C   0  0  0  0  0  2  0  0  0  0  0  0
  191.9370  177.1830  138.8020 C   0  0  2  0  0  3  0  0  0  0  0  0
  192.1930  175.7240  138.4610 C   0  0  2  0  0  3  0  0  0  0  0  0
  193.6860  175.5040  138.3220 C   0  0  0  0  0  2  0  0  0  0  0  0
  194.7200  174.4630  136.0630 O   0  0  0  0  0  0  0  0  0  0  0  0
  192.7280  173.3680  136.9880 O   0  0  0  0  0  0  0  0  0  0  0  0
  194.0180  174.0610  137.3300 S   0  0  0  0  0  0  0  0  0  0  0  0
  195.0520  172.9490  138.2510 C   0  0  0  0  0  1  0  0  0  0  0  0
  187.3820  178.8790  136.1730 C   0  0  0  0  0  2  0  0  0  0  0  0
  188.2510  177.2800  134.6830 O   0  0  0  0  0  0  0  0  0  0  0  0
  187.2550  177.7300  135.2270 C   0  0  0  0  0  0  0  0  0  0  0  0
  185.9130  177.1190  134.9680 C   0  0  0  0  0  2  0  0  0  0  0  0
  185.1410  176.9290  136.2670 C   0  0  0  0  0  2  0  0  0  0  0  0
  183.0750  175.9340  135.6170 O   0  0  0  0  0  1  0  0  0  0  0  0
  183.6450  177.1330  136.0560 C   0  0  1  0  0  3  0  0  0  0  0  0
  181.9900  178.5360  137.0760 O   0  0  0  0  0  1  0  0  0  0  0  0
  182.9820  177.5860  137.3530 C   0  0  2  0  0  3  0  0  0  0  0  0
  183.6540  178.1190  139.4330 O   0  0  0  0  0  0  0  0  0  0  0  0
  184.0050  178.1830  138.2710 C   0  0  0  0  0  2  0  0  0  0  0  0
  184.1340  178.4300  139.8070 C   0  0  0  0  0  2  0  0  0  0  0  0
  184.8900  179.6800  140.1310 O   0  0  0  0  0  1  0  0  0  0  0  0
  1 13  1  6  0  0  0
  2  9  1  0  0  0  0
  2 12  1  0  0  0  0
  3  5  1  0  0  0  0
  4  3  2  0  0  0  0
  4  6  1  0  0  0  0
  5  9  2  0  0  0  0
  6  2  2  0  0  0  0
  7  3  1  0  0  0  0
  8 10  2  0  0  0  0
  8  7  1  0  0  0  0
  9 11  1  0  0  0  0
 10  4  1  0  0  0  0
 11  1  1  0  0  0  0
 12  1  1  0  0  0  0
 13 14  1  0  0  0  0
 14 16  1  0  0  0  0
 15 13  2  0  0  0  0
 16 18  1  0  0  0  0
 18 17  1  1  0  0  0
 19 18  1  0  0  0  0
 20 26  1  0  0  0  0
 21 20  1  0  0  0  0
 22 23  1  6  0  0  0
 22 21  1  0  0  0  0
 24 27  1  0  0  0  0
 25 22  1  0  0  0  0
 25 24  1  0  0  0  0
 27 20  1  0  0  0  0
 27 19  1  1  0  0  0
 28 30  1  0  0  0  0
 28 29  1  0  0  0  0
 29  6  1  1  0  0  0
 30 31  1  6  0  0  0
 30 29  1  0  0  0  0
 32 34  2  0  0  0  0
 33 34  2  0  0  0  0
 34 35  1  0  0  0  0
 34 31  1  0  0  0  0
 36  8  1  0  0  0  0
 37 38  2  0  0  0  0
 38 36  1  0  0  0  0
 39 38  1  0  0  0  0
 39 40  1  0  0  0  0
 42 41  1  1  0  0  0
 42 40  1  0  0  0  0
 42 44  1  0  0  0  0
 44 43  1  6  0  0  0
 44 46  1  0  0  0  0
 45 47  1  0  0  0  0
 46 45  1  0  0  0  0
 47 48  1  0  0  0  0
M  END
>  <MODEL>
4

>  <REMARK>
 VINA RESULT:      -7.8      2.437      4.097
  Name = 
  16 active torsions:
  status: ('A' for Active; 'I' for Inactive)
    1  A    between atoms: C_3  and  C_24
    2  A    between atoms: C_10  and  C_19
    3  A    between atoms: C_10  and  C_46
    4  A    between atoms: C_13  and  C_34
    5  A    between atoms: C_14  and  C_43
    6  A    between atoms: C_18  and  C_34
    7  A    between atoms: C_18  and  C_44
    8  A    between atoms: S_22  and  C_28
    9  A    between atoms: C_28  and  C_47
   10  A    between atoms: N_29  and  N_30
   11  A    between atoms: N_29  and  C_33
   12  A    between atoms: C_33  and  N_45
   13  A    between atoms: C_36  and  C_37
   14  A    between atoms: C_36  and  C_46
   15  A    between atoms: C_37  and  C_44
   16  A    between atoms: C_42  and  N_45
                            x       y       z     vdW  Elec       q    Type
                         _______ _______ _______ _____ _____    ______ ____

>  <TORSDO>
F 16

$$$$
=
 OpenBabel11032419533D

 48 52  0  0  1  0  0  0  0  0999 V2000
  185.4200  177.5010  137.0030 C   0  0  1  0  0  3  0  0  0  0  0  0
  185.8340  178.2860  139.4050 C   0  0  0  0  0  0  0  0  0  0  0  0
  184.0340  178.3440  141.4930 C   0  0  0  0  0  0  0  0  0  0  0  0
  185.3570  178.6030  141.7310 C   0  0  0  0  0  0  0  0  0  0  0  0
  183.5410  178.0550  140.2220 C   0  0  0  0  0  3  0  0  0  0  0  0
  186.3120  178.6090  140.7010 C   0  0  0  0  0  0  0  0  0  0  0  0
  183.3820  178.4100  142.6210 O   0  0  0  0  0  0  0  0  0  0  0  0
  184.2900  178.6980  143.5390 C   0  0  0  0  0  0  0  0  0  0  0  0
  184.4800  178.0280  139.1770 C   0  0  0  0  0  0  0  0  0  0  0  0
  185.5470  178.8350  143.0430 N   0  0  0  0  0  0  0  0  0  0  0  0
  184.1180  177.7050  137.7820 C   0  0  0  0  0  2  0  0  0  0  0  0
  186.8600  178.1260  137.9550 S   0  0  0  0  0  0  0  0  0  0  0  0
  185.5960  176.0590  136.6320 C   0  0  0  0  0  0  0  0  0  0  0  0
  186.4750  175.6960  135.5690 N   0  0  0  0  0  2  0  0  0  0  0  0
  184.8550  175.1510  137.1780 N   0  0  0  0  0  2  0  0  0  0  0  0
  187.2480  176.6570  134.9050 N   0  0  0  0  0  2  0  0  0  0  0  0
  188.4500  174.5680  134.7290 C   0  0  0  0  0  1  0  0  0  0  0  0
  188.5610  176.0770  134.6910 C   0  0  2  0  0  3  0  0  0  0  0  0
  189.4710  176.5210  135.7440 N   0  0  0  0  0  2  0  0  0  0  0  0
  191.0560  175.4970  137.2770 N   0  0  0  0  0  0  0  0  0  0  0  0
  192.1110  174.4890  137.3760 C   0  0  0  0  0  2  0  0  0  0  0  0
  193.3190  174.8950  136.5420 C   0  0  1  0  0  3  0  0  0  0  0  0
  194.4010  173.8460  136.6790 C   0  0  0  0  0  1  0  0  0  0  0  0
  191.7530  175.9960  134.9470 C   0  0  0  0  0  2  0  0  0  0  0  0
  192.9040  175.0070  135.0830 C   0  0  0  0  0  2  0  0  0  0  0  0
  190.0170  175.0170  138.0040 O   0  0  0  0  0  1  0  0  0  0  0  0
  190.6050  175.5940  135.8790 C   0  0  2  0  0  3  0  0  0  0  0  0
  188.6490  177.8980  140.2020 C   0  0  0  0  0  2  0  0  0  0  0  0
  187.7720  178.8660  140.9770 C   0  0  2  0  0  3  0  0  0  0  0  0
  188.4020  177.6690  141.6710 C   0  0  2  0  0  3  0  0  0  0  0  0
  189.6210  178.1330  142.4450 C   0  0  0  0  0  2  0  0  0  0  0  0
  190.5470  175.6060  142.3390 O   0  0  0  0  0  0  0  0  0  0  0  0
  192.0930  177.3290  143.1520 O   0  0  0  0  0  0  0  0  0  0  0  0
  190.9940  177.0320  142.1700 S   0  0  0  0  0  0  0  0  0  0  0  0
  191.6050  177.2660  140.5190 C   0  0  0  0  0  1  0  0  0  0  0  0
  183.9640  178.8700  144.9810 C   0  0  0  0  0  2  0  0  0  0  0  0
  185.4060  179.7290  146.6300 O   0  0  0  0  0  0  0  0  0  0  0  0
  185.2080  178.8470  145.8090 C   0  0  0  0  0  0  0  0  0  0  0  0
  186.1920  177.7300  145.6480 C   0  0  0  0  0  2  0  0  0  0  0  0
  186.9740  177.5030  146.9350 C   0  0  0  0  0  2  0  0  0  0  0  0
  188.9010  178.0640  145.6510 O   0  0  0  0  0  1  0  0  0  0  0  0
  188.4390  177.1960  146.6450 C   0  0  1  0  0  3  0  0  0  0  0  0
  189.0740  178.6250  148.4610 O   0  0  0  0  0  1  0  0  0  0  0  0
  189.2770  177.3530  147.9100 C   0  0  2  0  0  3  0  0  0  0  0  0
  191.0150  175.9990  147.4520 O   0  0  0  0  0  0  0  0  0  0  0  0
  190.7290  177.1730  147.5890 C   0  0  0  0  0  2  0  0  0  0  0  0
  191.6880  175.9660  147.3390 C   0  0  0  0  0  2  0  0  0  0  0  0
  192.0380  175.7930  145.8950 O   0  0  0  0  0  1  0  0  0  0  0  0
  1 13  1  1  0  0  0
  1 11  1  0  0  0  0
  1 12  1  0  0  0  0
  2  6  1  0  0  0  0
  3  4  1  0  0  0  0
  3  7  1  0  0  0  0
  4 10  1  0  0  0  0
  5  3  2  0  0  0  0
  6  4  2  0  0  0  0
  7  8  1  0  0  0  0
  8 36  1  0  0  0  0
  9  2  2  0  0  0  0
  9  5  1  0  0  0  0
 10  8  2  0  0  0  0
 11  9  1  0  0  0  0
 12  2  1  0  0  0  0
 13 15  2  0  0  0  0
 14 13  1  0  0  0  0
 16 14  1  0  0  0  0
 18 17  1  1  0  0  0
 18 16  1  0  0  0  0
 18 19  1  0  0  0  0
 20 21  1  0  0  0  0
 20 26  1  0  0  0  0
 22 23  1  6  0  0  0
 22 21  1  0  0  0  0
 24 25  1  0  0  0  0
 24 27  1  0  0  0  0
 25 22  1  0  0  0  0
 27 19  1  1  0  0  0
 27 20  1  0  0  0  0
 28 29  1  0  0  0  0
 28 30  1  0  0  0  0
 29  6  1  6  0  0  0
 29 30  1  0  0  0  0
 30 31  1  1  0  0  0
 34 32  2  0  0  0  0
 34 31  1  0  0  0  0
 34 33  2  0  0  0  0
 35 34  1  0  0  0  0
 36 38  1  0  0  0  0
 38 37  2  0  0  0  0
 39 38  1  0  0  0  0
 39 40  1  0  0  0  0
 42 41  1  6  0  0  0
 42 40  1  0  0  0  0
 42 44  1  0  0  0  0
 44 43  1  6  0  0  0
 45 46  1  0  0  0  0
 46 44  1  0  0  0  0
 47 45  1  0  0  0  0
 48 47  1  0  0  0  0
M  END
>  <MODEL>
5

>  <REMARK>
 VINA RESULT:      -7.6      3.030      8.764
  Name = 
  16 active torsions:
  status: ('A' for Active; 'I' for Inactive)
    1  A    between atoms: C_3  and  C_24
    2  A    between atoms: C_10  and  C_19
    3  A    between atoms: C_10  and  C_46
    4  A    between atoms: C_13  and  C_34
    5  A    between atoms: C_14  and  C_43
    6  A    between atoms: C_18  and  C_34
    7  A    between atoms: C_18  and  C_44
    8  A    between atoms: S_22  and  C_28
    9  A    between atoms: C_28  and  C_47
   10  A    between atoms: N_29  and  N_30
   11  A    between atoms: N_29  and  C_33
   12  A    between atoms: C_33  and  N_45
   13  A    between atoms: C_36  and  C_37
   14  A    between atoms: C_36  and  C_46
   15  A    between atoms: C_37  and  C_44
   16  A    between atoms: C_42  and  N_45
                            x       y       z     vdW  Elec       q    Type
                         _______ _______ _______ _____ _____    ______ ____

>  <TORSDO>
F 16

$$$$
=
 OpenBabel11032419533D

 48 52  0  0  1  0  0  0  0  0999 V2000
  189.6940  177.7340  142.3610 C   0  0  1  0  0  3  0  0  0  0  0  0
  187.2450  178.0790  143.0240 C   0  0  0  0  0  0  0  0  0  0  0  0
  185.1090  178.6080  141.3630 C   0  0  0  0  0  0  0  0  0  0  0  0
  184.8860  178.3320  142.6840 C   0  0  0  0  0  0  0  0  0  0  0  0
  186.3850  178.6450  140.8050 C   0  0  0  0  0  3  0  0  0  0  0  0
  185.9390  178.0780  143.5790 C   0  0  0  0  0  0  0  0  0  0  0  0
  183.9600  178.8070  140.7750 O   0  0  0  0  0  0  0  0  0  0  0  0
  183.0470  178.6480  141.7190 C   0  0  0  0  0  0  0  0  0  0  0  0
  187.4550  178.3680  141.6730 C   0  0  0  0  0  0  0  0  0  0  0  0
  183.5650  178.3520  142.9390 N   0  0  0  0  0  0  0  0  0  0  0  0
  188.8620  178.3350  141.2250 C   0  0  0  0  0  2  0  0  0  0  0  0
  188.7320  177.6850  143.9250 S   0  0  0  0  0  0  0  0  0  0  0  0
  190.1970  176.3730  141.9870 C   0  0  0  0  0  0  0  0  0  0  0  0
  190.5790  176.0950  140.6410 N   0  0  0  0  0  2  0  0  0  0  0  0
  190.1630  175.4070  142.8470 N   0  0  0  0  0  2  0  0  0  0  0  0
  190.5680  177.0960  139.6620 N   0  0  0  0  0  2  0  0  0  0  0  0
  191.6520  175.6480  138.0590 C   0  0  0  0  0  1  0  0  0  0  0  0
  190.4020  176.4380  138.3790 C   0  0  2  0  0  3  0  0  0  0  0  0
  190.1840  177.4400  137.3390 N   0  0  0  0  0  2  0  0  0  0  0  0
  188.0500  178.5740  137.6010 N   0  0  0  0  0  0  0  0  0  0  0  0
  186.6800  178.6340  137.0900 C   0  0  0  0  0  2  0  0  0  0  0  0
  185.9320  177.3470  137.4120 C   0  0  1  0  0  3  0  0  0  0  0  0
  184.5150  177.4450  136.8910 C   0  0  0  0  0  1  0  0  0  0  0  0
  188.0930  176.1260  137.1940 C   0  0  0  0  0  2  0  0  0  0  0  0
  186.6390  176.1790  136.7430 C   0  0  0  0  0  2  0  0  0  0  0  0
  188.6390  179.7340  137.2160 O   0  0  0  0  0  1  0  0  0  0  0  0
  188.7700  177.4760  136.9360 C   0  0  2  0  0  3  0  0  0  0  0  0
  185.2720  178.9820  145.8050 C   0  0  0  0  0  2  0  0  0  0  0  0
  185.6840  177.7440  145.0280 C   0  0  2  0  0  3  0  0  0  0  0  0
  186.6810  178.4620  145.9240 C   0  0  2  0  0  3  0  0  0  0  0  0
  186.8080  177.7020  147.2290 C   0  0  0  0  0  2  0  0  0  0  0  0
  188.3110  177.8790  149.4570 O   0  0  0  0  0  0  0  0  0  0  0  0
  188.9200  179.3370  147.5810 O   0  0  0  0  0  0  0  0  0  0  0  0
  188.4100  177.9750  147.9600 S   0  0  0  0  0  0  0  0  0  0  0  0
  189.5390  176.7400  147.3640 C   0  0  0  0  0  1  0  0  0  0  0  0
  181.5860  178.7930  141.4720 C   0  0  0  0  0  2  0  0  0  0  0  0
  180.5660  177.0170  140.3160 O   0  0  0  0  0  0  0  0  0  0  0  0
  181.1860  178.0640  140.2310 C   0  0  0  0  0  0  0  0  0  0  0  0
  181.5250  178.6340  138.8880 C   0  0  0  0  0  2  0  0  0  0  0  0
  180.4640  179.6270  138.4340 C   0  0  0  0  0  2  0  0  0  0  0  0
  182.2970  181.1220  138.7310 O   0  0  0  0  0  1  0  0  0  0  0  0
  180.9000  181.0640  138.7040 C   0  0  1  0  0  3  0  0  0  0  0  0
  180.2910  181.3220  136.4010 O   0  0  0  0  0  1  0  0  0  0  0  0
  180.3570  181.9960  137.6270 C   0  0  2  0  0  3  0  0  0  0  0  0
  180.6180  184.1810  137.1500 O   0  0  0  0  0  0  0  0  0  0  0  0
  181.2450  183.1960  137.4910 C   0  0  0  0  0  2  0  0  0  0  0  0
  181.0670  184.6890  137.0710 C   0  0  0  0  0  2  0  0  0  0  0  0
  181.1400  184.8870  135.5900 O   0  0  0  0  0  1  0  0  0  0  0  0
  1 13  1  6  0  0  0
  1 12  1  0  0  0  0
  2  6  1  0  0  0  0
  2 12  1  0  0  0  0
  3  4  1  0  0  0  0
  4 10  1  0  0  0  0
  4  6  2  0  0  0  0
  5  3  2  0  0  0  0
  5  9  1  0  0  0  0
  7  3  1  0  0  0  0
  7  8  1  0  0  0  0
  8 10  2  0  0  0  0
  9  2  2  0  0  0  0
 11  9  1  0  0  0  0
 11  1  1  0  0  0  0
 13 15  2  0  0  0  0
 14 13  1  0  0  0  0
 16 14  1  0  0  0  0
 18 17  1  6  0  0  0
 18 16  1  0  0  0  0
 19 18  1  0  0  0  0
 21 22  1  0  0  0  0
 21 20  1  0  0  0  0
 22 23  1  6  0  0  0
 25 24  1  0  0  0  0
 25 22  1  0  0  0  0
 26 20  1  0  0  0  0
 27 24  1  0  0  0  0
 27 19  1  1  0  0  0
 27 20  1  0  0  0  0
 28 30  1  0  0  0  0
 29  6  1  6  0  0  0
 29 28  1  0  0  0  0
 29 30  1  0  0  0  0
 30 31  1  1  0  0  0
 31 34  1  0  0  0  0
 33 34  2  0  0  0  0
 34 32  2  0  0  0  0
 35 34  1  0  0  0  0
 36  8  1  0  0  0  0
 38 37  2  0  0  0  0
 38 36  1  0  0  0  0
 39 38  1  0  0  0  0
 40 42  1  0  0  0  0
 40 39  1  0  0  0  0
 42 41  1  6  0  0  0
 44 43  1  6  0  0  0
 44 42  1  0  0  0  0
 45 46  1  0  0  0  0
 46 44  1  0  0  0  0
 47 45  1  0  0  0  0
 48 47  1  0  0  0  0
M  END
>  <MODEL>
6

>  <REMARK>
 VINA RESULT:      -7.3      3.253      7.461
  Name = 
  16 active torsions:
  status: ('A' for Active; 'I' for Inactive)
    1  A    between atoms: C_3  and  C_24
    2  A    between atoms: C_10  and  C_19
    3  A    between atoms: C_10  and  C_46
    4  A    between atoms: C_13  and  C_34
    5  A    between atoms: C_14  and  C_43
    6  A    between atoms: C_18  and  C_34
    7  A    between atoms: C_18  and  C_44
    8  A    between atoms: S_22  and  C_28
    9  A    between atoms: C_28  and  C_47
   10  A    between atoms: N_29  and  N_30
   11  A    between atoms: N_29  and  C_33
   12  A    between atoms: C_33  and  N_45
   13  A    between atoms: C_36  and  C_37
   14  A    between atoms: C_36  and  C_46
   15  A    between atoms: C_37  and  C_44
   16  A    between atoms: C_42  and  N_45
                            x       y       z     vdW  Elec       q    Type
                         _______ _______ _______ _____ _____    ______ ____

>  <TORSDO>
F 16

$$$$
=
 OpenBabel11032419533D

 48 52  0  0  1  0  0  0  0  0999 V2000
  183.3690  178.6320  139.5400 C   0  0  1  0  0  3  0  0  0  0  0  0
  184.9570  178.5090  141.5450 C   0  0  0  0  0  0  0  0  0  0  0  0
  184.3170  178.7300  144.2170 C   0  0  0  0  0  0  0  0  0  0  0  0
  185.5820  178.3580  143.8530 C   0  0  0  0  0  0  0  0  0  0  0  0
  183.3190  179.0170  143.2880 C   0  0  0  0  0  3  0  0  0  0  0  0
  185.9680  178.2510  142.5060 C   0  0  0  0  0  0  0  0  0  0  0  0
  184.2430  178.7500  145.5200 O   0  0  0  0  0  0  0  0  0  0  0  0
  185.4420  178.3890  145.9490 C   0  0  0  0  0  0  0  0  0  0  0  0
  183.6710  178.8930  141.9330 C   0  0  0  0  0  0  0  0  0  0  0  0
  186.3260  178.1330  144.9510 N   0  0  0  0  0  0  0  0  0  0  0  0
  182.7160  179.1290  140.8320 C   0  0  0  0  0  2  0  0  0  0  0  0
  185.1660  178.3410  139.7820 S   0  0  0  0  0  0  0  0  0  0  0  0
  182.6800  177.4000  139.0370 C   0  0  0  0  0  0  0  0  0  0  0  0
  181.9510  177.4370  137.8120 N   0  0  0  0  0  2  0  0  0  0  0  0
  182.6280  176.3370  139.7710 N   0  0  0  0  0  2  0  0  0  0  0  0
  181.9260  178.5890  137.0160 N   0  0  0  0  0  2  0  0  0  0  0  0
  181.3410  178.5800  134.6710 C   0  0  0  0  0  1  0  0  0  0  0  0
  180.8210  178.4430  136.0860 C   0  0  2  0  0  3  0  0  0  0  0  0
  179.8270  179.4820  136.3380 N   0  0  0  0  0  2  0  0  0  0  0  0
  180.0690  181.5760  137.5480 N   0  0  0  0  0  0  0  0  0  0  0  0
  180.7970  182.8450  137.5670 C   0  0  0  0  0  2  0  0  0  0  0  0
  180.4260  183.6930  136.3570 C   0  0  1  0  0  3  0  0  0  0  0  0
  181.1770  185.0050  136.4130 C   0  0  0  0  0  1  0  0  0  0  0  0
  180.1250  181.5830  135.0660 C   0  0  0  0  0  2  0  0  0  0  0  0
  180.8070  182.9450  135.0880 C   0  0  0  0  0  2  0  0  0  0  0  0
  180.5090  180.8820  138.6270 O   0  0  0  0  0  1  0  0  0  0  0  0
  180.4530  180.8130  136.3500 C   0  0  2  0  0  3  0  0  0  0  0  0
  188.2930  179.0020  142.0050 C   0  0  0  0  0  2  0  0  0  0  0  0
  187.3560  177.8110  142.1130 C   0  0  2  0  0  3  0  0  0  0  0  0
  187.7300  178.3790  140.7530 C   0  0  2  0  0  3  0  0  0  0  0  0
  188.7960  177.5010  140.1280 C   0  0  0  0  0  2  0  0  0  0  0  0
  190.2440  177.4770  137.8560 O   0  0  0  0  0  0  0  0  0  0  0  0
  188.4660  179.1590  138.0300 O   0  0  0  0  0  0  0  0  0  0  0  0
  188.8540  177.7460  138.3640 S   0  0  0  0  0  0  0  0  0  0  0  0
  187.7160  176.6270  137.5840 C   0  0  0  0  0  1  0  0  0  0  0  0
  185.7930  178.2860  147.3910 C   0  0  0  0  0  2  0  0  0  0  0  0
  187.8300  178.9910  148.3340 O   0  0  0  0  0  0  0  0  0  0  0  0
  187.2750  178.2180  147.5700 C   0  0  0  0  0  0  0  0  0  0  0  0
  188.0700  177.1860  146.8300 C   0  0  0  0  0  2  0  0  0  0  0  0
  189.2860  176.7530  147.6380 C   0  0  0  0  0  2  0  0  0  0  0  0
  191.6670  176.7560  147.7260 O   0  0  0  0  0  1  0  0  0  0  0  0
  190.5790  177.2430  146.9960 C   0  0  1  0  0  3  0  0  0  0  0  0
  191.8260  176.0100  145.3620 O   0  0  0  0  0  1  0  0  0  0  0  0
  190.6660  176.7720  145.5480 C   0  0  2  0  0  3  0  0  0  0  0  0
  191.6860  177.9560  143.9280 O   0  0  0  0  0  0  0  0  0  0  0  0
  190.6890  177.9520  144.6250 C   0  0  0  0  0  2  0  0  0  0  0  0
  191.6670  178.5250  143.5500 C   0  0  0  0  0  2  0  0  0  0  0  0
  191.6480  177.7430  142.2750 O   0  0  0  0  0  1  0  0  0  0  0  0
  1 13  1  1  0  0  0
  1 12  1  0  0  0  0
  1 11  1  0  0  0  0
  2  9  2  0  0  0  0
  2  6  1  0  0  0  0
  3  7  1  0  0  0  0
  4  3  1  0  0  0  0
  4 10  1  0  0  0  0
  5  3  2  0  0  0  0
  6  4  2  0  0  0  0
  7  8  1  0  0  0  0
  8 36  1  0  0  0  0
  9  5  1  0  0  0  0
 10  8  2  0  0  0  0
 11  9  1  0  0  0  0
 12  2  1  0  0  0  0
 13 15  2  0  0  0  0
 14 13  1  0  0  0  0
 16 14  1  0  0  0  0
 18 17  1  6  0  0  0
 18 19  1  0  0  0  0
 18 16  1  0  0  0  0
 20 21  1  0  0  0  0
 20 26  1  0  0  0  0
 22 23  1  1  0  0  0
 22 21  1  0  0  0  0
 24 25  1  0  0  0  0
 24 27  1  0  0  0  0
 25 22  1  0  0  0  0
 27 19  1  6  0  0  0
 27 20  1  0  0  0  0
 28 29  1  0  0  0  0
 29  6  1  1  0  0  0
 30 31  1  6  0  0  0
 30 28  1  0  0  0  0
 30 29  1  0  0  0  0
 32 34  2  0  0  0  0
 33 34  2  0  0  0  0
 34 31  1  0  0  0  0
 35 34  1  0  0  0  0
 36 38  1  0  0  0  0
 38 37  2  0  0  0  0
 39 38  1  0  0  0  0
 39 40  1  0  0  0  0
 42 40  1  0  0  0  0
 42 41  1  1  0  0  0
 44 43  1  1  0  0  0
 44 42  1  0  0  0  0
 45 46  1  0  0  0  0
 46 44  1  0  0  0  0
 47 45  1  0  0  0  0
 48 47  1  0  0  0  0
M  END
>  <MODEL>
7

>  <REMARK>
 VINA RESULT:      -7.2      3.558      9.934
  Name = 
  16 active torsions:
  status: ('A' for Active; 'I' for Inactive)
    1  A    between atoms: C_3  and  C_24
    2  A    between atoms: C_10  and  C_19
    3  A    between atoms: C_10  and  C_46
    4  A    between atoms: C_13  and  C_34
    5  A    between atoms: C_14  and  C_43
    6  A    between atoms: C_18  and  C_34
    7  A    between atoms: C_18  and  C_44
    8  A    between atoms: S_22  and  C_28
    9  A    between atoms: C_28  and  C_47
   10  A    between atoms: N_29  and  N_30
   11  A    between atoms: N_29  and  C_33
   12  A    between atoms: C_33  and  N_45
   13  A    between atoms: C_36  and  C_37
   14  A    between atoms: C_36  and  C_46
   15  A    between atoms: C_37  and  C_44
   16  A    between atoms: C_42  and  N_45
                            x       y       z     vdW  Elec       q    Type
                         _______ _______ _______ _____ _____    ______ ____

>  <TORSDO>
F 16

$$$$
=
 OpenBabel11032419533D

 48 52  0  0  1  0  0  0  0  0999 V2000
  190.1410  177.4020  142.1460 C   0  0  1  0  0  3  0  0  0  0  0  0
  190.5310  176.8270  139.6810 C   0  0  0  0  0  0  0  0  0  0  0  0
  192.9370  176.7110  138.3390 C   0  0  0  0  0  0  0  0  0  0  0  0
  191.7960  176.2740  137.7230 C   0  0  0  0  0  0  0  0  0  0  0  0
  192.9440  177.2290  139.6330 C   0  0  0  0  0  3  0  0  0  0  0  0
  190.5410  176.3320  138.3520 C   0  0  0  0  0  0  0  0  0  0  0  0
  193.9450  176.5450  137.5270 O   0  0  0  0  0  0  0  0  0  0  0  0
  193.4320  176.0080  136.4310 C   0  0  0  0  0  0  0  0  0  0  0  0
  191.7050  177.2740  140.2950 C   0  0  0  0  0  0  0  0  0  0  0  0
  192.0890  175.8170  136.4920 N   0  0  0  0  0  0  0  0  0  0  0  0
  191.5540  177.7630  141.6800 C   0  0  0  0  0  2  0  0  0  0  0  0
  189.0890  176.9030  140.7260 S   0  0  0  0  0  0  0  0  0  0  0  0
  190.1860  176.3310  143.1940 C   0  0  0  0  0  0  0  0  0  0  0  0
  189.7300  176.6060  144.5180 N   0  0  0  0  0  2  0  0  0  0  0  0
  190.7580  175.1990  142.9450 N   0  0  0  0  0  2  0  0  0  0  0  0
  189.1620  177.8430  144.8490 N   0  0  0  0  0  2  0  0  0  0  0  0
  187.3540  176.3710  144.2140 C   0  0  0  0  0  1  0  0  0  0  0  0
  187.7280  177.6430  144.9430 C   0  0  2  0  0  3  0  0  0  0  0  0
  187.0350  178.7730  144.3290 N   0  0  0  0  0  2  0  0  0  0  0  0
  185.1280  178.9720  142.8340 N   0  0  0  0  0  0  0  0  0  0  0  0
  183.7410  178.5510  142.6360 C   0  0  0  0  0  2  0  0  0  0  0  0
  182.8430  179.1450  143.7130 C   0  0  1  0  0  3  0  0  0  0  0  0
  181.4130  178.7090  143.4730 C   0  0  0  0  0  1  0  0  0  0  0  0
  184.7660  179.0020  145.2900 C   0  0  0  0  0  2  0  0  0  0  0  0
  183.3010  178.6470  145.0760 C   0  0  0  0  0  2  0  0  0  0  0  0
  185.8450  178.3500  141.8650 O   0  0  0  0  0  1  0  0  0  0  0  0
  185.6100  178.4650  144.1290 C   0  0  2  0  0  3  0  0  0  0  0  0
  189.1580  176.3980  136.2790 C   0  0  0  0  0  2  0  0  0  0  0  0
  189.2940  175.8210  137.6770 C   0  0  2  0  0  3  0  0  0  0  0  0
  188.3290  176.9640  137.4030 C   0  0  2  0  0  3  0  0  0  0  0  0
  186.9230  176.4080  137.2960 C   0  0  0  0  0  2  0  0  0  0  0  0
  184.9310  177.5930  135.9230 O   0  0  0  0  0  0  0  0  0  0  0  0
  186.4410  179.0570  137.1880 O   0  0  0  0  0  0  0  0  0  0  0  0
  185.7330  177.7300  137.1880 S   0  0  0  0  0  0  0  0  0  0  0  0
  184.6440  177.6480  138.5880 C   0  0  0  0  0  1  0  0  0  0  0  0
  194.2480  175.6580  135.2370 C   0  0  0  0  0  2  0  0  0  0  0  0
  194.5490  173.4540  136.0020 O   0  0  0  0  0  0  0  0  0  0  0  0
  195.0690  174.4370  135.4980 C   0  0  0  0  0  0  0  0  0  0  0  0
  196.5170  174.4140  135.1180 C   0  0  0  0  0  2  0  0  0  0  0  0
  197.2530  173.2940  135.8410 C   0  0  0  0  0  2  0  0  0  0  0  0
  198.0560  175.2180  136.9970 O   0  0  0  0  0  1  0  0  0  0  0  0
  197.9980  173.8220  137.0630 C   0  0  1  0  0  3  0  0  0  0  0  0
  196.5100  172.2540  138.0960 O   0  0  0  0  0  1  0  0  0  0  0  0
  197.2950  173.3860  138.3440 C   0  0  2  0  0  3  0  0  0  0  0  0
  196.6040  174.6900  140.0430 O   0  0  0  0  0  0  0  0  0  0  0  0
  196.4270  174.4960  138.8560 C   0  0  0  0  0  2  0  0  0  0  0  0
  196.1660  175.1790  140.2360 C   0  0  0  0  0  2  0  0  0  0  0  0
  197.2680  176.1070  140.6400 O   0  0  0  0  0  1  0  0  0  0  0  0
  1 13  1  1  0  0  0
  2  9  1  0  0  0  0
  2 12  1  0  0  0  0
  3  5  1  0  0  0  0
  4  3  2  0  0  0  0
  4  6  1  0  0  0  0
  5  9  2  0  0  0  0
  6  2  2  0  0  0  0
  7  3  1  0  0  0  0
  8 10  2  0  0  0  0
  8  7  1  0  0  0  0
  9 11  1  0  0  0  0
 10  4  1  0  0  0  0
 11  1  1  0  0  0  0
 12  1  1  0  0  0  0
 13 14  1  0  0  0  0
 14 16  1  0  0  0  0
 15 13  2  0  0  0  0
 16 18  1  0  0  0  0
 18 17  1  6  0  0  0
 19 18  1  0  0  0  0
 20 27  1  0  0  0  0
 21 20  1  0  0  0  0
 21 22  1  0  0  0  0
 22 23  1  6  0  0  0
 22 25  1  0  0  0  0
 25 24  1  0  0  0  0
 26 20  1  0  0  0  0
 27 19  1  1  0  0  0
 27 24  1  0  0  0  0
 28 30  1  0  0  0  0
 28 29  1  0  0  0  0
 29  6  1  1  0  0  0
 30 31  1  6  0  0  0
 30 29  1  0  0  0  0
 32 34  2  0  0  0  0
 33 34  2  0  0  0  0
 34 31  1  0  0  0  0
 34 35  1  0  0  0  0
 36 38  1  0  0  0  0
 36  8  1  0  0  0  0
 38 37  2  0  0  0  0
 39 38  1  0  0  0  0
 39 40  1  0  0  0  0
 40 42  1  0  0  0  0
 42 41  1  6  0  0  0
 42 44  1  0  0  0  0
 44 43  1  6  0  0  0
 44 46  1  0  0  0  0
 45 47  1  0  0  0  0
 46 45  1  0  0  0  0
 47 48  1  0  0  0  0
M  END
>  <MODEL>
8

>  <REMARK>
 VINA RESULT:      -7.0      3.492      9.585
  Name = 
  16 active torsions:
  status: ('A' for Active; 'I' for Inactive)
    1  A    between atoms: C_3  and  C_24
    2  A    between atoms: C_10  and  C_19
    3  A    between atoms: C_10  and  C_46
    4  A    between atoms: C_13  and  C_34
    5  A    between atoms: C_14  and  C_43
    6  A    between atoms: C_18  and  C_34
    7  A    between atoms: C_18  and  C_44
    8  A    between atoms: S_22  and  C_28
    9  A    between atoms: C_28  and  C_47
   10  A    between atoms: N_29  and  N_30
   11  A    between atoms: N_29  and  C_33
   12  A    between atoms: C_33  and  N_45
   13  A    between atoms: C_36  and  C_37
   14  A    between atoms: C_36  and  C_46
   15  A    between atoms: C_37  and  C_44
   16  A    between atoms: C_42  and  N_45
                            x       y       z     vdW  Elec       q    Type
                         _______ _______ _______ _____ _____    ______ ____

>  <TORSDO>
F 16

$$$$
=
 OpenBabel11032419533D

 48 52  0  0  1  0  0  0  0  0999 V2000
  182.2540  178.5420  140.2570 C   0  0  1  0  0  3  0  0  0  0  0  0
  184.2210  178.4780  141.8950 C   0  0  0  0  0  0  0  0  0  0  0  0
  184.1480  178.8360  144.6280 C   0  0  0  0  0  0  0  0  0  0  0  0
  185.3070  178.4200  144.0300 C   0  0  0  0  0  0  0  0  0  0  0  0
  182.9830  179.1000  143.9110 C   0  0  0  0  0  3  0  0  0  0  0  0
  185.4050  178.2440  142.6400 C   0  0  0  0  0  0  0  0  0  0  0  0
  184.3450  178.9170  145.9160 O   0  0  0  0  0  0  0  0  0  0  0  0
  185.6020  178.5510  146.1070 C   0  0  0  0  0  0  0  0  0  0  0  0
  183.0460  178.9070  142.5210 C   0  0  0  0  0  0  0  0  0  0  0  0
  186.2590  178.2300  144.9620 N   0  0  0  0  0  0  0  0  0  0  0  0
  181.8870  179.1120  141.6290 C   0  0  0  0  0  2  0  0  0  0  0  0
  184.0590  178.2250  140.1380 S   0  0  0  0  0  0  0  0  0  0  0  0
  181.4620  177.3030  139.9680 C   0  0  0  0  0  0  0  0  0  0  0  0
  181.4710  176.7370  138.6580 N   0  0  0  0  0  2  0  0  0  0  0  0
  180.6640  176.8170  140.8610 N   0  0  0  0  0  2  0  0  0  0  0  0
  182.2720  177.2710  137.6410 N   0  0  0  0  0  2  0  0  0  0  0  0
  180.2090  176.4610  136.6790 C   0  0  0  0  0  1  0  0  0  0  0  0
  181.5500  177.1020  136.3940 C   0  0  2  0  0  3  0  0  0  0  0  0
  182.3160  176.2410  135.4970 N   0  0  0  0  0  2  0  0  0  0  0  0
  184.6630  175.6140  135.5700 N   0  0  0  0  0  0  0  0  0  0  0  0
  185.6800  174.9610  136.3940 C   0  0  0  0  0  2  0  0  0  0  0  0
  185.3730  173.4780  136.5480 C   0  0  1  0  0  3  0  0  0  0  0  0
  186.4500  172.8250  137.3870 C   0  0  0  0  0  1  0  0  0  0  0  0
  182.9500  174.0460  136.4450 C   0  0  0  0  0  2  0  0  0  0  0  0
  184.0270  173.3160  137.2370 C   0  0  0  0  0  2  0  0  0  0  0  0
  184.9980  176.9280  135.5410 O   0  0  0  0  0  1  0  0  0  0  0  0
  183.3550  175.5090  136.2350 C   0  0  2  0  0  3  0  0  0  0  0  0
  187.7220  178.8580  141.9530 C   0  0  0  0  0  2  0  0  0  0  0  0
  186.6770  177.7570  141.9920 C   0  0  2  0  0  3  0  0  0  0  0  0
  186.9460  178.5220  140.7050 C   0  0  2  0  0  3  0  0  0  0  0  0
  187.8230  177.6760  139.8030 C   0  0  0  0  0  2  0  0  0  0  0  0
  188.9040  179.5370  138.1830 O   0  0  0  0  0  0  0  0  0  0  0  0
  186.5740  178.9000  137.7530 O   0  0  0  0  0  0  0  0  0  0  0  0
  187.9260  178.3950  138.1760 S   0  0  0  0  0  0  0  0  0  0  0  0
  188.4730  177.1570  137.0270 C   0  0  0  0  0  1  0  0  0  0  0  0
  186.2430  178.5070  147.4490 C   0  0  0  0  0  2  0  0  0  0  0  0
  188.4880  178.6600  148.1360 O   0  0  0  0  0  0  0  0  0  0  0  0
  187.6990  178.1950  147.3290 C   0  0  0  0  0  0  0  0  0  0  0  0
  188.1820  177.2930  146.2350 C   0  0  0  0  0  2  0  0  0  0  0  0
  189.6880  177.4210  146.0480 C   0  0  0  0  0  2  0  0  0  0  0  0
  189.1300  176.4280  143.9550 O   0  0  0  0  0  1  0  0  0  0  0  0
  190.1720  176.5760  144.8750 C   0  0  1  0  0  3  0  0  0  0  0  0
  191.8330  178.3000  144.9900 O   0  0  0  0  0  1  0  0  0  0  0  0
  191.3740  177.2350  144.2050 C   0  0  2  0  0  3  0  0  0  0  0  0
  191.5810  177.1500  141.9650 O   0  0  0  0  0  0  0  0  0  0  0  0
  190.9900  177.7420  142.8470 C   0  0  0  0  0  2  0  0  0  0  0  0
  191.3990  177.4350  141.3720 C   0  0  0  0  0  2  0  0  0  0  0  0
  190.6960  176.2380  140.8130 O   0  0  0  0  0  1  0  0  0  0  0  0
  1 13  1  1  0  0  0
  1 11  1  0  0  0  0
  2  9  2  0  0  0  0
  2  6  1  0  0  0  0
  3  7  1  0  0  0  0
  4  3  1  0  0  0  0
  4 10  1  0  0  0  0
  5  3  2  0  0  0  0
  6  4  2  0  0  0  0
  7  8  1  0  0  0  0
  8 36  1  0  0  0  0
  9  5  1  0  0  0  0
 10  8  2  0  0  0  0
 11  9  1  0  0  0  0
 12  1  1  0  0  0  0
 12  2  1  0  0  0  0
 13 15  2  0  0  0  0
 14 13  1  0  0  0  0
 16 14  1  0  0  0  0
 18 17  1  1  0  0  0
 18 16  1  0  0  0  0
 19 18  1  0  0  0  0
 20 27  1  0  0  0  0
 20 21  1  0  0  0  0
 21 22  1  0  0  0  0
 22 25  1  0  0  0  0
 22 23  1  1  0  0  0
 24 25  1  0  0  0  0
 26 20  1  0  0  0  0
 27 19  1  6  0  0  0
 27 24  1  0  0  0  0
 28 29  1  0  0  0  0
 29  6  1  1  0  0  0
 30 31  1  6  0  0  0
 30 28  1  0  0  0  0
 30 29  1  0  0  0  0
 33 34  2  0  0  0  0
 34 32  2  0  0  0  0
 34 31  1  0  0  0  0
 35 34  1  0  0  0  0
 38 36  1  0  0  0  0
 38 37  2  0  0  0  0
 39 38  1  0  0  0  0
 40 39  1  0  0  0  0
 42 41  1  6  0  0  0
 42 40  1  0  0  0  0
 44 42  1  0  0  0  0
 44 43  1  1  0  0  0
 45 46  1  0  0  0  0
 46 44  1  0  0  0  0
 47 45  1  0  0  0  0
 48 47  1  0  0  0  0
M  END
>  <MODEL>
9

>  <REMARK>
 VINA RESULT:      -6.8      3.380      9.515
  Name = 
  16 active torsions:
  status: ('A' for Active; 'I' for Inactive)
    1  A    between atoms: C_3  and  C_24
    2  A    between atoms: C_10  and  C_19
    3  A    between atoms: C_10  and  C_46
    4  A    between atoms: C_13  and  C_34
    5  A    between atoms: C_14  and  C_43
    6  A    between atoms: C_18  and  C_34
    7  A    between atoms: C_18  and  C_44
    8  A    between atoms: S_22  and  C_28
    9  A    between atoms: C_28  and  C_47
   10  A    between atoms: N_29  and  N_30
   11  A    between atoms: N_29  and  C_33
   12  A    between atoms: C_33  and  N_45
   13  A    between atoms: C_36  and  C_37
   14  A    between atoms: C_36  and  C_46
   15  A    between atoms: C_37  and  C_44
   16  A    between atoms: C_42  and  N_45
                            x       y       z     vdW  Elec       q    Type
                         _______ _______ _______ _____ _____    ______ ____

>  <TORSDO>
F 16

$$$$
