=
 OpenBabel11042410533D

 26 29  0  0  1  0  0  0  0  0999 V2000
  190.7730  178.5290  143.9530 C   0  0  0  0  0  2  0  0  0  0  0  0
  188.6610  176.9330  147.8770 N   0  0  0  0  0  0  0  0  0  0  0  0
  190.0160  177.5210  141.8250 C   0  0  2  0  0  3  0  0  0  0  0  0
  189.3950  178.2920  144.5890 C   0  0  1  0  0  3  0  0  0  0  0  0
  188.6960  177.0240  142.4130 C   0  0  2  0  0  3  0  0  0  0  0  0
  188.3980  177.6180  146.7450 C   0  0  0  0  0  0  0  0  0  0  0  0
  191.6550  176.4000  145.8650 C   0  0  0  0  0  1  0  0  0  0  0  0
  190.3910  176.7300  140.7380 O   0  0  0  0  0  1  0  0  0  0  0  0
  188.3160  177.7590  143.6760 C   0  0  0  0  0  0  0  0  0  0  0  0
  187.0140  177.8580  144.0130 C   0  0  0  0  0  0  0  0  0  0  0  0
  190.3410  176.7940  146.4460 C   0  0  0  0  0  0  0  0  0  0  0  0
  186.5480  178.4290  145.3110 C   0  0  0  0  0  3  0  0  0  0  0  0
  189.4080  177.5720  145.8600 N   0  0  0  0  0  0  0  0  0  0  0  0
  191.1070  177.5030  142.8810 C   0  0  0  0  0  2  0  0  0  0  0  0
  188.7560  175.6520  142.6720 O   0  0  0  0  0  1  0  0  0  0  0  0
  189.8900  176.4030  147.6890 C   0  0  0  0  0  3  0  0  0  0  0  0
  187.1360  178.3460  146.5140 C   0  0  0  0  0  0  0  0  0  0  0  0
  186.4550  178.9000  147.6340 N   0  0  0  0  0  1  0  0  0  0  0  0
  186.0610  177.4520  143.0610 O   0  0  0  0  0  0  0  0  0  0  0  0
  182.7290  179.0050  143.6950 C   0  0  0  0  0  3  0  0  0  0  0  0
  184.7870  178.0060  142.8660 C   0  0  0  0  0  0  0  0  0  0  0  0
  180.9890  179.5540  142.1620 F   0  0  0  0  0  0  0  0  0  0  0  0
  182.9920  178.5660  141.3290 C   0  0  0  0  0  3  0  0  0  0  0  0
  182.2240  179.0490  142.3920 C   0  0  0  0  0  0  0  0  0  0  0  0
  184.0040  178.4830  143.9310 C   0  0  0  0  0  3  0  0  0  0  0  0
  184.2670  178.0450  141.5680 C   0  0  0  0  0  3  0  0  0  0  0  0
  3  8  1  6  0  0  0
  3  5  1  0  0  0  0
  3 14  1  0  0  0  0
  4  1  1  6  0  0  0
  4 13  1  0  0  0  0
  5 15  1  1  0  0  0
  5  9  1  0  0  0  0
  6  2  2  0  0  0  0
  7 11  1  0  0  0  0
  9 10  2  0  0  0  0
  9  4  1  0  0  0  0
 10 12  1  0  0  0  0
 11 16  2  0  0  0  0
 12 17  2  0  0  0  0
 13 11  1  0  0  0  0
 13  6  1  0  0  0  0
 14  1  1  0  0  0  0
 16  2  1  0  0  0  0
 17  6  1  0  0  0  0
 17 18  1  0  0  0  0
 19 10  1  0  0  0  0
 20 25  1  0  0  0  0
 21 19  1  0  0  0  0
 21 25  2  0  0  0  0
 22 24  1  0  0  0  0
 23 26  2  0  0  0  0
 23 24  1  0  0  0  0
 24 20  2  0  0  0  0
 26 21  1  0  0  0  0
M  END
>  <MODEL>
1

>  <REMARK>
 VINA RESULT:      -9.0      0.000      0.000
  Name = 
  2 active torsions:
  status: ('A' for Active; 'I' for Inactive)
    1  A    between atoms: O_1  and  C_5
    2  A    between atoms: O_1  and  C_15
                            x       y       z     vdW  Elec       q    Type
                         _______ _______ _______ _____ _____    ______ ____

>  <TORSDO>
F 2

$$$$
=
 OpenBabel11042410533D

 26 29  0  0  1  0  0  0  0  0999 V2000
  182.0090  177.4370  139.0440 C   0  0  0  0  0  2  0  0  0  0  0  0
  179.7000  180.5850  141.7220 N   0  0  0  0  0  0  0  0  0  0  0  0
  184.4310  177.8390  138.7400 C   0  0  2  0  0  3  0  0  0  0  0  0
  182.0370  178.1290  140.4150 C   0  0  1  0  0  3  0  0  0  0  0  0
  184.5370  178.7450  139.9660 C   0  0  2  0  0  3  0  0  0  0  0  0
  180.6590  179.6380  141.8010 C   0  0  0  0  0  0  0  0  0  0  0  0
  180.4370  179.8510  138.2260 C   0  0  0  0  0  1  0  0  0  0  0  0
  185.4300  178.1510  137.8180 O   0  0  0  0  0  1  0  0  0  0  0  0
  183.3950  178.5410  140.9320 C   0  0  0  0  0  0  0  0  0  0  0  0
  183.5850  178.8110  142.2400 C   0  0  0  0  0  0  0  0  0  0  0  0
  180.3470  179.9280  139.7120 C   0  0  0  0  0  0  0  0  0  0  0  0
  182.4820  178.7880  143.2460 C   0  0  0  0  0  3  0  0  0  0  0  0
  181.0610  179.2010  140.5960 N   0  0  0  0  0  0  0  0  0  0  0  0
  183.0640  177.9800  138.0930 C   0  0  0  0  0  2  0  0  0  0  0  0
  184.5910  180.0880  139.5850 O   0  0  0  0  0  1  0  0  0  0  0  0
  179.5040  180.7760  140.3990 C   0  0  0  0  0  3  0  0  0  0  0  0
  181.1970  179.1350  143.0780 C   0  0  0  0  0  0  0  0  0  0  0  0
  180.3420  179.1130  144.2160 N   0  0  0  0  0  1  0  0  0  0  0  0
  184.8990  179.0690  142.6690 O   0  0  0  0  0  0  0  0  0  0  0  0
  185.7790  178.5790  146.2610 C   0  0  0  0  0  3  0  0  0  0  0  0
  185.5010  178.5950  143.8440 C   0  0  0  0  0  0  0  0  0  0  0  0
  187.4240  177.1640  147.2460 F   0  0  0  0  0  0  0  0  0  0  0  0
  187.1780  177.1730  144.8750 C   0  0  0  0  0  3  0  0  0  0  0  0
  186.7990  177.6320  146.1390 C   0  0  0  0  0  0  0  0  0  0  0  0
  185.1340  179.0600  145.1180 C   0  0  0  0  0  3  0  0  0  0  0  0
  186.5320  177.6550  143.7340 C   0  0  0  0  0  3  0  0  0  0  0  0
  2  6  2  0  0  0  0
  3  8  1  6  0  0  0
  3  5  1  0  0  0  0
  4  1  1  6  0  0  0
  4 13  1  0  0  0  0
  4  9  1  0  0  0  0
  5 15  1  6  0  0  0
  5  9  1  0  0  0  0
  6 17  1  0  0  0  0
  7 11  1  0  0  0  0
  9 10  2  0  0  0  0
 10 19  1  0  0  0  0
 10 12  1  0  0  0  0
 11 16  2  0  0  0  0
 11 13  1  0  0  0  0
 13  6  1  0  0  0  0
 14  3  1  0  0  0  0
 14  1  1  0  0  0  0
 16  2  1  0  0  0  0
 17 12  2  0  0  0  0
 17 18  1  0  0  0  0
 19 21  1  0  0  0  0
 21 25  1  0  0  0  0
 23 24  2  0  0  0  0
 24 20  1  0  0  0  0
 24 22  1  0  0  0  0
 25 20  2  0  0  0  0
 26 21  2  0  0  0  0
 26 23  1  0  0  0  0
M  END
>  <MODEL>
2

>  <REMARK>
 VINA RESULT:      -8.7      4.340      7.856
  Name = 
  2 active torsions:
  status: ('A' for Active; 'I' for Inactive)
    1  A    between atoms: O_1  and  C_5
    2  A    between atoms: O_1  and  C_15
                            x       y       z     vdW  Elec       q    Type
                         _______ _______ _______ _____ _____    ______ ____

>  <TORSDO>
F 2

$$$$
=
 OpenBabel11042410533D

 26 29  0  0  1  0  0  0  0  0999 V2000
  183.0740  176.9350  138.3300 C   0  0  0  0  0  2  0  0  0  0  0  0
  179.2880  179.2470  139.9840 N   0  0  0  0  0  0  0  0  0  0  0  0
  185.2570  178.0510  138.6590 C   0  0  2  0  0  3  0  0  0  0  0  0
  182.5080  177.6100  139.5890 C   0  0  1  0  0  3  0  0  0  0  0  0
  184.7420  178.9530  139.7800 C   0  0  2  0  0  3  0  0  0  0  0  0
  180.4160  178.6360  140.4050 C   0  0  0  0  0  0  0  0  0  0  0  0
  181.1730  178.7540  136.9010 C   0  0  0  0  0  1  0  0  0  0  0  0
  186.3430  178.6460  138.0170 O   0  0  0  0  0  1  0  0  0  0  0  0
  183.4810  178.4160  140.4150 C   0  0  0  0  0  0  0  0  0  0  0  0
  183.2020  178.7380  141.6940 C   0  0  0  0  0  0  0  0  0  0  0  0
  180.6440  178.8080  138.2930 C   0  0  0  0  0  0  0  0  0  0  0  0
  181.9130  178.3860  142.3620 C   0  0  0  0  0  3  0  0  0  0  0  0
  181.2540  178.3360  139.4000 N   0  0  0  0  0  0  0  0  0  0  0  0
  184.1530  177.7680  137.6550 C   0  0  0  0  0  2  0  0  0  0  0  0
  184.5120  180.2470  139.3070 O   0  0  0  0  0  1  0  0  0  0  0  0
  179.4320  179.3640  138.6450 C   0  0  0  0  0  3  0  0  0  0  0  0
  180.6870  178.3260  141.8210 C   0  0  0  0  0  0  0  0  0  0  0  0
  179.5870  178.0510  142.6810 N   0  0  0  0  0  1  0  0  0  0  0  0
  184.2050  179.3840  142.4390 O   0  0  0  0  0  0  0  0  0  0  0  0
  186.7050  177.4390  144.4090 C   0  0  0  0  0  3  0  0  0  0  0  0
  184.9320  178.8410  143.5090 C   0  0  0  0  0  0  0  0  0  0  0  0
  186.9540  177.2300  146.7700 F   0  0  0  0  0  0  0  0  0  0  0  0
  185.2030  178.6000  145.9100 C   0  0  0  0  0  3  0  0  0  0  0  0
  186.2950  177.7520  145.7080 C   0  0  0  0  0  0  0  0  0  0  0  0
  186.0250  177.9780  143.3140 C   0  0  0  0  0  3  0  0  0  0  0  0
  184.5240  179.1380  144.8130 C   0  0  0  0  0  3  0  0  0  0  0  0
  2  6  2  0  0  0  0
  3  8  1  6  0  0  0
  3  5  1  0  0  0  0
  4  1  1  6  0  0  0
  4  9  1  0  0  0  0
  5 15  1  6  0  0  0
  5  9  1  0  0  0  0
  6 17  1  0  0  0  0
  7 11  1  0  0  0  0
  9 10  2  0  0  0  0
 10 12  1  0  0  0  0
 10 19  1  0  0  0  0
 11 16  2  0  0  0  0
 11 13  1  0  0  0  0
 13  4  1  0  0  0  0
 13  6  1  0  0  0  0
 14  1  1  0  0  0  0
 14  3  1  0  0  0  0
 16  2  1  0  0  0  0
 17 12  2  0  0  0  0
 17 18  1  0  0  0  0
 19 21  1  0  0  0  0
 20 24  1  0  0  0  0
 21 26  2  0  0  0  0
 24 23  2  0  0  0  0
 24 22  1  0  0  0  0
 25 21  1  0  0  0  0
 25 20  2  0  0  0  0
 26 23  1  0  0  0  0
M  END
>  <MODEL>
3

>  <REMARK>
 VINA RESULT:      -8.4      4.716      8.066
  Name = 
  2 active torsions:
  status: ('A' for Active; 'I' for Inactive)
    1  A    between atoms: O_1  and  C_5
    2  A    between atoms: O_1  and  C_15
                            x       y       z     vdW  Elec       q    Type
                         _______ _______ _______ _____ _____    ______ ____

>  <TORSDO>
F 2

$$$$
=
 OpenBabel11042410533D

 26 29  0  0  1  0  0  0  0  0999 V2000
  182.2170  177.2420  138.9810 C   0  0  0  0  0  2  0  0  0  0  0  0
  180.1100  180.2680  141.9500 N   0  0  0  0  0  0  0  0  0  0  0  0
  184.5310  177.8070  138.3150 C   0  0  2  0  0  3  0  0  0  0  0  0
  182.3990  177.9590  140.3280 C   0  0  1  0  0  3  0  0  0  0  0  0
  184.7530  178.7410  139.5050 C   0  0  2  0  0  3  0  0  0  0  0  0
  181.1360  179.3930  141.8920 C   0  0  0  0  0  0  0  0  0  0  0  0
  180.3700  179.5240  138.3900 C   0  0  0  0  0  1  0  0  0  0  0  0
  185.3570  178.1710  137.2510 O   0  0  0  0  0  1  0  0  0  0  0  0
  183.7840  178.4750  140.6330 C   0  0  0  0  0  0  0  0  0  0  0  0
  184.1460  178.7820  141.8950 C   0  0  0  0  0  0  0  0  0  0  0  0
  180.4970  179.6220  139.8710 C   0  0  0  0  0  0  0  0  0  0  0  0
  183.2100  178.7000  143.0550 C   0  0  0  0  0  3  0  0  0  0  0  0
  181.3850  178.9630  140.6440 N   0  0  0  0  0  0  0  0  0  0  0  0
  183.0770  177.8400  137.8780 C   0  0  0  0  0  2  0  0  0  0  0  0
  184.6520  180.0770  139.1090 O   0  0  0  0  0  1  0  0  0  0  0  0
  179.7070  180.4210  140.6700 C   0  0  0  0  0  3  0  0  0  0  0  0
  181.8930  178.9530  143.0790 C   0  0  0  0  0  0  0  0  0  0  0  0
  181.2200  178.8910  144.3310 N   0  0  0  0  0  1  0  0  0  0  0  0
  185.4880  179.1400  142.1210 O   0  0  0  0  0  0  0  0  0  0  0  0
  187.6530  176.7410  143.9850 C   0  0  0  0  0  3  0  0  0  0  0  0
  186.5380  178.2720  142.4580 C   0  0  0  0  0  0  0  0  0  0  0  0
  189.7510  175.7900  143.3710 F   0  0  0  0  0  0  0  0  0  0  0  0
  188.6810  177.2970  141.8650 C   0  0  0  0  0  3  0  0  0  0  0  0
  188.7060  176.5990  143.0760 C   0  0  0  0  0  0  0  0  0  0  0  0
  186.5750  177.5760  143.6780 C   0  0  0  0  0  3  0  0  0  0  0  0
  187.6020  178.1310  141.5610 C   0  0  0  0  0  3  0  0  0  0  0  0
  3  8  1  6  0  0  0
  3  5  1  0  0  0  0
  4  1  1  6  0  0  0
  4  9  1  0  0  0  0
  4 13  1  0  0  0  0
  5 15  1  6  0  0  0
  5  9  1  0  0  0  0
  6  2  2  0  0  0  0
  6 17  1  0  0  0  0
  7 11  1  0  0  0  0
  9 10  2  0  0  0  0
 10 19  1  0  0  0  0
 10 12  1  0  0  0  0
 11 13  1  0  0  0  0
 11 16  2  0  0  0  0
 12 17  2  0  0  0  0
 13  6  1  0  0  0  0
 14  3  1  0  0  0  0
 14  1  1  0  0  0  0
 16  2  1  0  0  0  0
 17 18  1  0  0  0  0
 19 21  1  0  0  0  0
 21 25  2  0  0  0  0
 23 24  1  0  0  0  0
 24 22  1  0  0  0  0
 24 20  2  0  0  0  0
 25 20  1  0  0  0  0
 26 23  2  0  0  0  0
 26 21  1  0  0  0  0
M  END
>  <MODEL>
4

>  <REMARK>
 VINA RESULT:      -8.2      4.087      7.810
  Name = 
  2 active torsions:
  status: ('A' for Active; 'I' for Inactive)
    1  A    between atoms: O_1  and  C_5
    2  A    between atoms: O_1  and  C_15
                            x       y       z     vdW  Elec       q    Type
                         _______ _______ _______ _____ _____    ______ ____

>  <TORSDO>
F 2

$$$$
=
 OpenBabel11042410533D

 26 29  0  0  1  0  0  0  0  0999 V2000
  190.1600  178.4580  144.5890 C   0  0  0  0  0  2  0  0  0  0  0  0
  185.4730  178.0200  144.0850 N   0  0  0  0  0  0  0  0  0  0  0  0
  191.5400  176.7670  143.4260 C   0  0  2  0  0  3  0  0  0  0  0  0
  189.0520  178.3210  143.5340 C   0  0  1  0  0  3  0  0  0  0  0  0
  190.4240  176.3740  142.4580 C   0  0  2  0  0  3  0  0  0  0  0  0
  186.5880  178.2860  143.3720 C   0  0  0  0  0  0  0  0  0  0  0  0
  188.1630  177.1270  146.3800 C   0  0  0  0  0  1  0  0  0  0  0  0
  192.4310  175.7060  143.5950 O   0  0  0  0  0  1  0  0  0  0  0  0
  189.3580  177.4380  142.3480 C   0  0  0  0  0  0  0  0  0  0  0  0
  188.6370  177.5300  141.2120 C   0  0  0  0  0  0  0  0  0  0  0  0
  187.2970  177.5740  145.2530 C   0  0  0  0  0  0  0  0  0  0  0  0
  187.4650  178.4430  141.0620 C   0  0  0  0  0  3  0  0  0  0  0  0
  187.7170  178.0460  144.0600 N   0  0  0  0  0  0  0  0  0  0  0  0
  190.9590  177.1760  144.7680 C   0  0  0  0  0  2  0  0  0  0  0  0
  189.8380  175.1660  142.8440 O   0  0  0  0  0  1  0  0  0  0  0  0
  185.9190  177.5620  145.2750 C   0  0  0  0  0  3  0  0  0  0  0  0
  186.5620  178.7960  141.9890 C   0  0  0  0  0  0  0  0  0  0  0  0
  185.4720  179.6180  141.5860 N   0  0  0  0  0  1  0  0  0  0  0  0
  189.0560  176.7650  140.1090 O   0  0  0  0  0  0  0  0  0  0  0  0
  189.0560  178.5700  136.8440 C   0  0  0  0  0  3  0  0  0  0  0  0
  188.8610  177.0760  138.7540 C   0  0  0  0  0  0  0  0  0  0  0  0
  188.1480  177.9130  134.7410 F   0  0  0  0  0  0  0  0  0  0  0  0
  187.9350  176.4390  136.6020 C   0  0  0  0  0  3  0  0  0  0  0  0
  188.3790  177.6420  136.0480 C   0  0  0  0  0  0  0  0  0  0  0  0
  189.2940  178.2890  138.1920 C   0  0  0  0  0  3  0  0  0  0  0  0
  188.1740  176.1600  137.9510 C   0  0  0  0  0  3  0  0  0  0  0  0
  1 14  1  0  0  0  0
  2 16  1  0  0  0  0
  3  8  1  1  0  0  0
  3 14  1  0  0  0  0
  4 13  1  0  0  0  0
  4  1  1  1  0  0  0
  5 15  1  1  0  0  0
  5  3  1  0  0  0  0
  6 13  1  0  0  0  0
  6  2  2  0  0  0  0
  9  5  1  0  0  0  0
  9  4  1  0  0  0  0
 10  9  2  0  0  0  0
 11 16  2  0  0  0  0
 11  7  1  0  0  0  0
 12 10  1  0  0  0  0
 12 17  2  0  0  0  0
 13 11  1  0  0  0  0
 17  6  1  0  0  0  0
 18 17  1  0  0  0  0
 19 10  1  0  0  0  0
 20 25  1  0  0  0  0
 21 19  1  0  0  0  0
 22 24  1  0  0  0  0
 23 26  2  0  0  0  0
 24 23  1  0  0  0  0
 24 20  2  0  0  0  0
 25 21  2  0  0  0  0
 26 21  1  0  0  0  0
M  END
>  <MODEL>
5

>  <REMARK>
 VINA RESULT:      -8.1      3.660      5.145
  Name = 
  2 active torsions:
  status: ('A' for Active; 'I' for Inactive)
    1  A    between atoms: O_1  and  C_5
    2  A    between atoms: O_1  and  C_15
                            x       y       z     vdW  Elec       q    Type
                         _______ _______ _______ _____ _____    ______ ____

>  <TORSDO>
F 2

$$$$
=
 OpenBabel11042410533D

 26 29  0  0  1  0  0  0  0  0999 V2000
  186.6680  176.7530  145.1290 C   0  0  0  0  0  2  0  0  0  0  0  0
  190.4900  178.4570  142.9140 N   0  0  0  0  0  0  0  0  0  0  0  0
  184.6720  178.2140  145.1300 C   0  0  2  0  0  3  0  0  0  0  0  0
  187.1420  177.3540  143.7970 C   0  0  1  0  0  3  0  0  0  0  0  0
  185.1540  179.0440  143.9400 C   0  0  2  0  0  3  0  0  0  0  0  0
  189.2280  178.0450  142.6700 C   0  0  0  0  0  0  0  0  0  0  0  0
  189.0330  178.2100  146.2490 C   0  0  0  0  0  1  0  0  0  0  0  0
  183.8060  178.9640  145.9260 O   0  0  0  0  0  1  0  0  0  0  0  0
  186.2020  178.3250  143.1240 C   0  0  0  0  0  0  0  0  0  0  0  0
  186.3340  178.6240  141.8160 C   0  0  0  0  0  0  0  0  0  0  0  0
  189.3490  178.2070  144.7930 C   0  0  0  0  0  0  0  0  0  0  0  0
  187.4340  178.0830  140.9630 C   0  0  0  0  0  3  0  0  0  0  0  0
  188.5120  177.8630  143.7920 N   0  0  0  0  0  0  0  0  0  0  0  0
  185.8530  177.7350  145.9560 C   0  0  0  0  0  2  0  0  0  0  0  0
  185.6600  180.2740  144.3690 O   0  0  0  0  0  1  0  0  0  0  0  0
  190.5690  178.5670  144.2590 C   0  0  0  0  0  3  0  0  0  0  0  0
  188.7010  177.8140  141.3130 C   0  0  0  0  0  0  0  0  0  0  0  0
  189.6000  177.3830  140.2970 N   0  0  0  0  0  1  0  0  0  0  0  0
  185.3500  179.4400  141.2300 O   0  0  0  0  0  0  0  0  0  0  0  0
  182.8580  179.2300  138.4620 C   0  0  0  0  0  3  0  0  0  0  0  0
  184.2870  179.0140  140.4180 C   0  0  0  0  0  0  0  0  0  0  0  0
  181.0610  177.6980  138.1440 F   0  0  0  0  0  0  0  0  0  0  0  0
  182.4410  177.4740  140.0750 C   0  0  0  0  0  3  0  0  0  0  0  0
  182.1100  178.1280  138.8850 C   0  0  0  0  0  0  0  0  0  0  0  0
  183.9400  179.6730  139.2270 C   0  0  0  0  0  3  0  0  0  0  0  0
  183.5240  177.9190  140.8380 C   0  0  0  0  0  3  0  0  0  0  0  0
  1 14  1  0  0  0  0
  2 16  1  0  0  0  0
  3  8  1  1  0  0  0
  3 14  1  0  0  0  0
  4  1  1  1  0  0  0
  5 15  1  1  0  0  0
  5  3  1  0  0  0  0
  6  2  2  0  0  0  0
  6 13  1  0  0  0  0
  9  4  1  0  0  0  0
  9  5  1  0  0  0  0
 10  9  2  0  0  0  0
 11  7  1  0  0  0  0
 12 17  2  0  0  0  0
 12 10  1  0  0  0  0
 13  4  1  0  0  0  0
 13 11  1  0  0  0  0
 16 11  2  0  0  0  0
 17  6  1  0  0  0  0
 18 17  1  0  0  0  0
 19 10  1  0  0  0  0
 20 24  2  0  0  0  0
 20 25  1  0  0  0  0
 21 26  1  0  0  0  0
 21 19  1  0  0  0  0
 22 24  1  0  0  0  0
 23 26  2  0  0  0  0
 24 23  1  0  0  0  0
 25 21  2  0  0  0  0
M  END
>  <MODEL>
6

>  <REMARK>
 VINA RESULT:      -8.0      2.630      4.593
  Name = 
  2 active torsions:
  status: ('A' for Active; 'I' for Inactive)
    1  A    between atoms: O_1  and  C_5
    2  A    between atoms: O_1  and  C_15
                            x       y       z     vdW  Elec       q    Type
                         _______ _______ _______ _____ _____    ______ ____

>  <TORSDO>
F 2

$$$$
=
 OpenBabel11042410533D

 26 29  0  0  1  0  0  0  0  0999 V2000
  190.1860  178.2510  144.5650 C   0  0  0  0  0  2  0  0  0  0  0  0
  185.6000  178.2030  143.3930 N   0  0  0  0  0  0  0  0  0  0  0  0
  191.5210  176.3120  143.8060 C   0  0  2  0  0  3  0  0  0  0  0  0
  189.2310  178.0970  143.3710 C   0  0  1  0  0  3  0  0  0  0  0  0
  190.5180  175.9160  142.7230 C   0  0  2  0  0  3  0  0  0  0  0  0
  186.8270  178.2770  142.8380 C   0  0  0  0  0  0  0  0  0  0  0  0
  187.8190  177.3350  146.1540 C   0  0  0  0  0  1  0  0  0  0  0  0
  192.2550  175.1990  144.2180 O   0  0  0  0  0  1  0  0  0  0  0  0
  189.6040  177.0560  142.3420 C   0  0  0  0  0  0  0  0  0  0  0  0
  189.0660  177.0810  141.1060 C   0  0  0  0  0  0  0  0  0  0  0  0
  187.1780  177.7260  144.8670 C   0  0  0  0  0  0  0  0  0  0  0  0
  188.0360  178.0770  140.6850 C   0  0  0  0  0  3  0  0  0  0  0  0
  187.8130  178.0130  143.7110 N   0  0  0  0  0  0  0  0  0  0  0  0
  190.8050  176.9290  144.9940 C   0  0  0  0  0  2  0  0  0  0  0  0
  189.7520  174.8220  143.1350 O   0  0  0  0  0  1  0  0  0  0  0  0
  185.8180  177.8470  144.6790 C   0  0  0  0  0  3  0  0  0  0  0  0
  187.0550  178.6200  141.4220 C   0  0  0  0  0  0  0  0  0  0  0  0
  186.1320  179.4890  140.7750 N   0  0  0  0  0  1  0  0  0  0  0  0
  189.5500  176.1560  140.1640 O   0  0  0  0  0  0  0  0  0  0  0  0
  192.9100  177.1760  138.9070 C   0  0  0  0  0  3  0  0  0  0  0  0
  190.6800  176.3100  139.3470 C   0  0  0  0  0  0  0  0  0  0  0  0
  193.9360  176.7620  136.7960 F   0  0  0  0  0  0  0  0  0  0  0  0
  191.7460  175.9140  137.2020 C   0  0  0  0  0  3  0  0  0  0  0  0
  192.8760  176.6170  137.6260 C   0  0  0  0  0  0  0  0  0  0  0  0
  191.8160  177.0250  139.7630 C   0  0  0  0  0  3  0  0  0  0  0  0
  190.6530  175.7640  138.0590 C   0  0  0  0  0  3  0  0  0  0  0  0
  1 14  1  0  0  0  0
  2 16  1  0  0  0  0
  3  8  1  1  0  0  0
  3 14  1  0  0  0  0
  4 13  1  0  0  0  0
  4  1  1  1  0  0  0
  5 15  1  1  0  0  0
  5  3  1  0  0  0  0
  6  2  2  0  0  0  0
  6 13  1  0  0  0  0
  9  5  1  0  0  0  0
  9  4  1  0  0  0  0
 10  9  2  0  0  0  0
 11  7  1  0  0  0  0
 12 10  1  0  0  0  0
 12 17  2  0  0  0  0
 13 11  1  0  0  0  0
 16 11  2  0  0  0  0
 17  6  1  0  0  0  0
 18 17  1  0  0  0  0
 19 10  1  0  0  0  0
 20 25  1  0  0  0  0
 21 25  2  0  0  0  0
 21 19  1  0  0  0  0
 22 24  1  0  0  0  0
 23 24  1  0  0  0  0
 23 26  2  0  0  0  0
 24 20  2  0  0  0  0
 26 21  1  0  0  0  0
M  END
>  <MODEL>
7

>  <REMARK>
 VINA RESULT:      -7.9      4.016      6.370
  Name = 
  2 active torsions:
  status: ('A' for Active; 'I' for Inactive)
    1  A    between atoms: O_1  and  C_5
    2  A    between atoms: O_1  and  C_15
                            x       y       z     vdW  Elec       q    Type
                         _______ _______ _______ _____ _____    ______ ____

>  <TORSDO>
F 2

$$$$
=
 OpenBabel11042410533D

 26 29  0  0  1  0  0  0  0  0999 V2000
  189.7410  174.7940  137.2150 C   0  0  0  0  0  2  0  0  0  0  0  0
  187.5760  179.0010  137.3610 N   0  0  0  0  0  0  0  0  0  0  0  0
  192.1030  174.7630  137.9470 C   0  0  2  0  0  3  0  0  0  0  0  0
  189.4400  175.9820  138.1410 C   0  0  1  0  0  3  0  0  0  0  0  0
  191.9870  176.0760  138.7210 C   0  0  2  0  0  3  0  0  0  0  0  0
  188.1240  178.0710  138.1700 C   0  0  0  0  0  0  0  0  0  0  0  0
  189.3460  176.8150  135.0400 C   0  0  0  0  0  1  0  0  0  0  0  0
  193.4220  174.5530  137.5430 O   0  0  0  0  0  1  0  0  0  0  0  0
  190.5550  176.4170  139.0610 C   0  0  0  0  0  0  0  0  0  0  0  0
  190.3020  177.1800  140.1440 C   0  0  0  0  0  0  0  0  0  0  0  0
  188.7240  177.5070  136.2040 C   0  0  0  0  0  0  0  0  0  0  0  0
  188.9410  177.6960  140.4780 C   0  0  0  0  0  3  0  0  0  0  0  0
  188.8130  177.1350  137.4980 N   0  0  0  0  0  0  0  0  0  0  0  0
  191.1860  174.7760  136.7380 C   0  0  0  0  0  2  0  0  0  0  0  0
  192.5580  177.1270  137.9980 O   0  0  0  0  0  1  0  0  0  0  0  0
  187.9600  178.6510  136.1130 C   0  0  0  0  0  3  0  0  0  0  0  0
  187.9710  178.0840  139.6370 C   0  0  0  0  0  0  0  0  0  0  0  0
  186.7790  178.6280  140.1930 N   0  0  0  0  0  1  0  0  0  0  0  0
  191.3700  177.4440  141.0210 O   0  0  0  0  0  0  0  0  0  0  0  0
  191.2950  178.4710  144.6070 C   0  0  0  0  0  3  0  0  0  0  0  0
  191.3290  177.3990  142.4230 C   0  0  0  0  0  0  0  0  0  0  0  0
  191.2910  177.1280  146.5750 F   0  0  0  0  0  0  0  0  0  0  0  0
  191.3370  176.0570  144.4460 C   0  0  0  0  0  3  0  0  0  0  0  0
  191.3050  177.2170  145.2240 C   0  0  0  0  0  0  0  0  0  0  0  0
  191.3090  178.5610  143.2120 C   0  0  0  0  0  3  0  0  0  0  0  0
  191.3510  176.1500  143.0520 C   0  0  0  0  0  3  0  0  0  0  0  0
  2  6  2  0  0  0  0
  3  8  1  6  0  0  0
  3  5  1  0  0  0  0
  4  1  1  6  0  0  0
  4  9  1  0  0  0  0
  5 15  1  6  0  0  0
  5  9  1  0  0  0  0
  6 17  1  0  0  0  0
  7 11  1  0  0  0  0
  9 10  2  0  0  0  0
 10 12  1  0  0  0  0
 10 19  1  0  0  0  0
 11 13  1  0  0  0  0
 13  4  1  0  0  0  0
 13  6  1  0  0  0  0
 14  1  1  0  0  0  0
 14  3  1  0  0  0  0
 16 11  2  0  0  0  0
 16  2  1  0  0  0  0
 17 18  1  0  0  0  0
 17 12  2  0  0  0  0
 19 21  1  0  0  0  0
 20 24  1  0  0  0  0
 21 26  2  0  0  0  0
 21 25  1  0  0  0  0
 23 24  2  0  0  0  0
 24 22  1  0  0  0  0
 25 20  2  0  0  0  0
 26 23  1  0  0  0  0
M  END
>  <MODEL>
8

>  <REMARK>
 VINA RESULT:      -7.9      4.990      7.990
  Name = 
  2 active torsions:
  status: ('A' for Active; 'I' for Inactive)
    1  A    between atoms: O_1  and  C_5
    2  A    between atoms: O_1  and  C_15
                            x       y       z     vdW  Elec       q    Type
                         _______ _______ _______ _____ _____    ______ ____

>  <TORSDO>
F 2

$$$$
=
 OpenBabel11042410533D

 26 29  0  0  1  0  0  0  0  0999 V2000
  182.9530  180.0340  138.6780 C   0  0  0  0  0  2  0  0  0  0  0  0
  186.7400  177.2790  137.9840 N   0  0  0  0  0  0  0  0  0  0  0  0
  181.3950  179.3100  140.4580 C   0  0  2  0  0  3  0  0  0  0  0  0
  184.1350  179.3750  139.4060 C   0  0  1  0  0  3  0  0  0  0  0  0
  182.4340  178.4260  141.1480 C   0  0  2  0  0  3  0  0  0  0  0  0
  186.1850  178.0930  138.9070 C   0  0  0  0  0  0  0  0  0  0  0  0
  183.3730  177.8290  136.6950 C   0  0  0  0  0  1  0  0  0  0  0  0
  180.1070  178.8480  140.7310 O   0  0  0  0  0  1  0  0  0  0  0  0
  183.8480  178.8000  140.7720 C   0  0  0  0  0  0  0  0  0  0  0  0
  184.8480  178.5370  141.6360 C   0  0  0  0  0  0  0  0  0  0  0  0
  184.6580  177.7990  137.4480 C   0  0  0  0  0  0  0  0  0  0  0  0
  186.2900  178.7280  141.2980 C   0  0  0  0  0  3  0  0  0  0  0  0
  184.9250  178.4460  138.6020 N   0  0  0  0  0  0  0  0  0  0  0  0
  181.6310  179.3350  138.9580 C   0  0  0  0  0  2  0  0  0  0  0  0
  182.2130  177.0790  140.8490 O   0  0  0  0  0  1  0  0  0  0  0  0
  185.7720  177.0850  137.0610 C   0  0  0  0  0  3  0  0  0  0  0  0
  186.8970  178.5490  140.1150 C   0  0  0  0  0  0  0  0  0  0  0  0
  188.3090  178.7100  140.0530 N   0  0  0  0  0  1  0  0  0  0  0  0
  184.4980  178.1190  142.9330 O   0  0  0  0  0  0  0  0  0  0  0  0
  187.3030  177.5510  145.3260 C   0  0  0  0  0  3  0  0  0  0  0  0
  185.3110  178.1720  144.0750 C   0  0  0  0  0  0  0  0  0  0  0  0
  187.5890  178.3480  147.5540 F   0  0  0  0  0  0  0  0  0  0  0  0
  185.6240  178.9600  146.3510 C   0  0  0  0  0  3  0  0  0  0  0  0
  186.8470  178.2890  146.4220 C   0  0  0  0  0  0  0  0  0  0  0  0
  186.5370  177.4910  144.1590 C   0  0  0  0  0  3  0  0  0  0  0  0
  184.8590  178.8980  145.1830 C   0  0  0  0  0  3  0  0  0  0  0  0
  1 14  1  0  0  0  0
  2  6  2  0  0  0  0
  3  8  1  6  0  0  0
  3  5  1  0  0  0  0
  4  1  1  6  0  0  0
  4  9  1  0  0  0  0
  5 15  1  6  0  0  0
  6 17  1  0  0  0  0
  7 11  1  0  0  0  0
  9  5  1  0  0  0  0
  9 10  2  0  0  0  0
 10 19  1  0  0  0  0
 11 13  1  0  0  0  0
 12 10  1  0  0  0  0
 13  6  1  0  0  0  0
 13  4  1  0  0  0  0
 14  3  1  0  0  0  0
 16 11  2  0  0  0  0
 16  2  1  0  0  0  0
 17 12  2  0  0  0  0
 18 17  1  0  0  0  0
 19 21  1  0  0  0  0
 20 24  1  0  0  0  0
 21 25  1  0  0  0  0
 21 26  2  0  0  0  0
 23 24  2  0  0  0  0
 24 22  1  0  0  0  0
 25 20  2  0  0  0  0
 26 23  1  0  0  0  0
M  END
>  <MODEL>
9

>  <REMARK>
 VINA RESULT:      -7.7      4.129      7.677
  Name = 
  2 active torsions:
  status: ('A' for Active; 'I' for Inactive)
    1  A    between atoms: O_1  and  C_5
    2  A    between atoms: O_1  and  C_15
                            x       y       z     vdW  Elec       q    Type
                         _______ _______ _______ _____ _____    ______ ____

>  <TORSDO>
F 2

$$$$
