=
 OpenBabel11042410033D

 38 42  0  0  1  0  0  0  0  0999 V2000
  188.3720  178.6350  141.3790 S   0  0  0  0  0  0  0  0  0  0  0  0
  190.3760  177.2920  138.2740 C   0  0  2  0  0  3  0  0  0  0  0  0
  187.1350  178.0100  139.1120 N   0  0  0  0  0  0  0  0  0  0  0  0
  188.9690  178.7600  136.8140 C   0  0  0  0  0  2  0  0  0  0  0  0
  189.3820  177.0790  139.4260 C   0  0  1  0  0  3  0  0  0  0  0  0
  186.7080  178.1110  137.8850 C   0  0  0  0  0  0  0  0  0  0  0  0
  189.6860  177.4270  136.9200 C   0  0  0  0  0  2  0  0  0  0  0  0
  189.1670  177.0390  141.6430 C   0  0  1  0  0  3  0  0  0  0  0  0
  187.5320  178.5380  136.7890 N   0  0  0  0  0  2  0  0  0  0  0  0
  190.0910  176.8470  140.6150 O   0  0  0  0  0  0  0  0  0  0  0  0
  188.4760  178.2990  139.6070 C   0  0  2  0  0  3  0  0  0  0  0  0
  190.9840  174.9750  138.2590 O   0  0  0  0  0  0  0  0  0  0  0  0
  192.7600  176.4820  138.0840 N   0  0  0  0  0  2  0  0  0  0  0  0
  193.7720  175.4420  138.0080 C   0  0  0  0  0  1  0  0  0  0  0  0
  191.3710  176.1750  138.2060 C   0  0  0  0  0  0  0  0  0  0  0  0
  184.9880  177.7450  137.5570 S   0  0  0  0  0  0  0  0  0  0  0  0
  184.4360  178.2630  139.2170 C   0  0  0  0  0  2  0  0  0  0  0  0
  182.2060  179.5040  139.2640 N   0  0  0  0  0  2  0  0  0  0  0  0
  183.6300  179.5190  139.1290 C   0  0  0  0  0  0  0  0  0  0  0  0
  184.2160  180.6200  138.9630 O   0  0  0  0  0  0  0  0  0  0  0  0
  180.0620  178.4100  138.6670 C   0  0  1  0  0  3  0  0  0  0  0  0
  181.1580  177.5270  138.0560 C   0  0  2  0  0  0  0  0  0  0  0  0
  181.4000  178.2910  139.3400 C   0  0  1  0  0  0  0  0  0  0  0  0
  181.3640  177.6080  140.5580 O   0  0  0  0  0  1  0  0  0  0  0  0
  180.1920  178.2840  137.1650 C   0  0  0  0  0  2  0  0  0  0  0  0
  182.0010  174.9420  137.6750 S   0  0  0  0  0  1  0  0  0  0  0  0
  180.7240  176.0870  138.2750 C   0  0  0  0  0  2  0  0  0  0  0  0
  189.8660  177.0320  142.9910 C   0  0  0  0  0  2  0  0  0  0  0  0
  188.9080  176.6230  144.0970 C   0  0  0  0  0  2  0  0  0  0  0  0
  188.8460  177.6970  145.1800 C   0  0  2  0  0  3  0  0  0  0  0  0
  189.2830  177.0430  146.4870 C   0  0  0  0  0  1  0  0  0  0  0  0
  186.9610  177.9350  146.6290 C   0  0  0  0  0  2  0  0  0  0  0  0
  184.8610  178.7280  143.1800 O   0  0  0  0  0  1  0  0  0  0  0  0
  185.1740  178.0960  144.3810 C   0  0  1  0  0  3  0  0  0  0  0  0
  186.6170  177.5650  144.3250 C   0  0  0  0  0  2  0  0  0  0  0  0
  184.9560  179.0700  145.5410 C   0  0  0  0  0  2  0  0  0  0  0  0
  187.4890  178.2470  145.2930 N   0  0  0  0  0  0  0  0  0  0  0  0
  185.5590  178.5250  146.8370 C   0  0  0  0  0  2  0  0  0  0  0  0
  1  8  1  0  0  0  0
  2 15  1  6  0  0  0
  2  5  1  0  0  0  0
  4  7  1  0  0  0  0
  5 11  1  0  0  0  0
  5 10  1  1  0  0  0
  6  3  2  0  0  0  0
  7  2  1  0  0  0  0
  8 28  1  1  0  0  0
  9  4  1  0  0  0  0
  9  6  1  0  0  0  0
 10  8  1  0  0  0  0
 11  3  1  1  0  0  0
 11  1  1  0  0  0  0
 13 15  1  0  0  0  0
 14 13  1  0  0  0  0
 15 12  2  0  0  0  0
 16  6  1  0  0  0  0
 16 17  1  0  0  0  0
 18 23  1  0  0  0  0
 19 17  1  0  0  0  0
 19 18  1  0  0  0  0
 20 19  2  0  0  0  0
 21 25  1  6  0  0  0
 21 23  1  0  0  0  0
 22 27  1  1  0  0  0
 22 21  1  0  0  0  0
 22 23  1  0  0  0  0
 23 24  1  1  0  0  0
 25 22  1  0  0  0  0
 26 27  1  0  0  0  0
 28 29  1  0  0  0  0
 29 30  1  0  0  0  0
 30 37  1  0  0  0  0
 30 31  1  1  0  0  0
 32 38  1  0  0  0  0
 34 33  1  6  0  0  0
 34 36  1  0  0  0  0
 35 34  1  0  0  0  0
 35 37  1  0  0  0  0
 36 38  1  0  0  0  0
 37 32  1  0  0  0  0
M  END
>  <MODEL>
1

>  <REMARK>
 VINA RESULT:      -8.2      0.000      0.000
  Name = 
  10 active torsions:
  status: ('A' for Active; 'I' for Inactive)
    1  A    between atoms: C_5  and  C_38
    2  A    between atoms: S_9  and  C_20
    3  A    between atoms: S_9  and  C_29
    4  A    between atoms: C_10  and  C_16
    5  A    between atoms: C_13  and  N_15
    6  A    between atoms: C_21  and  C_31
    7  A    between atoms: C_21  and  C_32
    8  A    between atoms: C_25  and  C_32
    9  A    between atoms: C_26  and  C_29
   10  A    between atoms: N_27  and  C_31
                            x       y       z     vdW  Elec       q    Type
                         _______ _______ _______ _____ _____    ______ ____

>  <TORSDO>
F 10

$$$$
=
 OpenBabel11042410033D

 38 42  0  0  1  0  0  0  0  0999 V2000
  188.8330  178.3470  141.5930 S   0  0  0  0  0  0  0  0  0  0  0  0
  190.3650  177.4540  138.0840 C   0  0  2  0  0  3  0  0  0  0  0  0
  187.2770  177.9620  139.4740 N   0  0  0  0  0  0  0  0  0  0  0  0
  188.7340  179.0420  137.0410 C   0  0  0  0  0  2  0  0  0  0  0  0
  189.5590  177.0720  139.3350 C   0  0  1  0  0  3  0  0  0  0  0  0
  186.6690  178.1960  138.3460 C   0  0  0  0  0  0  0  0  0  0  0  0
  189.4770  177.7290  136.8740 C   0  0  0  0  0  2  0  0  0  0  0  0
  189.6790  176.7570  141.5360 C   0  0  1  0  0  3  0  0  0  0  0  0
  187.3130  178.7800  137.2020 N   0  0  0  0  0  2  0  0  0  0  0  0
  190.4410  176.7200  140.3670 O   0  0  0  0  0  0  0  0  0  0  0  0
  188.6740  178.2310  139.7980 C   0  0  2  0  0  3  0  0  0  0  0  0
  192.5900  176.6350  137.7430 O   0  0  0  0  0  0  0  0  0  0  0  0
  190.8810  175.0870  137.3760 N   0  0  0  0  0  2  0  0  0  0  0  0
  191.7900  174.0080  137.0290 C   0  0  0  0  0  1  0  0  0  0  0  0
  191.3530  176.3860  137.7310 C   0  0  0  0  0  0  0  0  0  0  0  0
  184.9250  177.8180  138.2320 S   0  0  0  0  0  0  0  0  0  0  0  0
  184.4150  179.3430  139.0940 C   0  0  0  0  0  2  0  0  0  0  0  0
  183.2060  178.3910  141.1300 N   0  0  0  0  0  2  0  0  0  0  0  0
  184.3130  179.1010  140.5650 C   0  0  0  0  0  0  0  0  0  0  0  0
  185.2340  179.5000  141.3230 O   0  0  0  0  0  0  0  0  0  0  0  0
  180.7280  178.3250  141.0630 C   0  0  1  0  0  3  0  0  0  0  0  0
  181.1540  179.0720  139.7930 C   0  0  2  0  0  0  0  0  0  0  0  0
  182.0230  177.9830  140.3820 C   0  0  1  0  0  0  0  0  0  0  0  0
  182.0340  176.7200  139.7860 O   0  0  0  0  0  1  0  0  0  0  0  0
  180.3890  179.7890  140.8880 C   0  0  0  0  0  2  0  0  0  0  0  0
  180.7940  179.2340  137.0760 S   0  0  0  0  0  1  0  0  0  0  0  0
  180.2390  178.5870  138.6800 C   0  0  0  0  0  2  0  0  0  0  0  0
  190.5740  176.6100  142.7550 C   0  0  0  0  0  2  0  0  0  0  0  0
  189.7470  176.5260  144.0270 C   0  0  0  0  0  2  0  0  0  0  0  0
  190.2780  177.4980  145.0780 C   0  0  2  0  0  3  0  0  0  0  0  0
  191.4230  176.7960  145.8020 C   0  0  0  0  0  1  0  0  0  0  0  0
  189.3660  177.0910  147.2490 C   0  0  0  0  0  2  0  0  0  0  0  0
  185.9700  178.8790  145.7660 O   0  0  0  0  0  1  0  0  0  0  0  0
  186.7480  177.8950  146.3690 C   0  0  1  0  0  3  0  0  0  0  0  0
  187.9140  177.5160  145.4390 C   0  0  0  0  0  2  0  0  0  0  0  0
  187.2290  178.3920  147.7350 C   0  0  0  0  0  2  0  0  0  0  0  0
  189.2160  177.8810  146.0180 N   0  0  0  0  0  0  0  0  0  0  0  0
  188.3160  177.4750  148.3010 C   0  0  0  0  0  2  0  0  0  0  0  0
  2 15  1  6  0  0  0
  2  5  1  0  0  0  0
  4  9  1  0  0  0  0
  5 11  1  0  0  0  0
  5 10  1  1  0  0  0
  6  3  2  0  0  0  0
  7  4  1  0  0  0  0
  7  2  1  0  0  0  0
  8  1  1  0  0  0  0
  8 28  1  1  0  0  0
  9  6  1  0  0  0  0
 10  8  1  0  0  0  0
 11  3  1  1  0  0  0
 11  1  1  0  0  0  0
 13 15  1  0  0  0  0
 14 13  1  0  0  0  0
 15 12  2  0  0  0  0
 16  6  1  0  0  0  0
 16 17  1  0  0  0  0
 17 19  1  0  0  0  0
 19 18  1  0  0  0  0
 19 20  2  0  0  0  0
 21 25  1  1  0  0  0
 22 27  1  6  0  0  0
 22 23  1  0  0  0  0
 22 25  1  0  0  0  0
 22 21  1  0  0  0  0
 23 24  1  6  0  0  0
 23 21  1  0  0  0  0
 23 18  1  0  0  0  0
 26 27  1  0  0  0  0
 28 29  1  0  0  0  0
 29 30  1  0  0  0  0
 30 31  1  1  0  0  0
 30 37  1  0  0  0  0
 32 38  1  0  0  0  0
 34 33  1  6  0  0  0
 34 36  1  0  0  0  0
 35 37  1  0  0  0  0
 35 34  1  0  0  0  0
 36 38  1  0  0  0  0
 37 32  1  0  0  0  0
M  END
>  <MODEL>
2

>  <REMARK>
 VINA RESULT:      -8.1      1.586      2.017
  Name = 
  10 active torsions:
  status: ('A' for Active; 'I' for Inactive)
    1  A    between atoms: C_5  and  C_38
    2  A    between atoms: S_9  and  C_20
    3  A    between atoms: S_9  and  C_29
    4  A    between atoms: C_10  and  C_16
    5  A    between atoms: C_13  and  N_15
    6  A    between atoms: C_21  and  C_31
    7  A    between atoms: C_21  and  C_32
    8  A    between atoms: C_25  and  C_32
    9  A    between atoms: C_26  and  C_29
   10  A    between atoms: N_27  and  C_31
                            x       y       z     vdW  Elec       q    Type
                         _______ _______ _______ _____ _____    ______ ____

>  <TORSDO>
F 10

$$$$
=
 OpenBabel11042410033D

 38 42  0  0  1  0  0  0  0  0999 V2000
  188.7480  178.2920  141.5620 S   0  0  0  0  0  0  0  0  0  0  0  0
  190.4670  177.4360  138.1310 C   0  0  2  0  0  3  0  0  0  0  0  0
  187.3070  177.9160  139.3620 N   0  0  0  0  0  0  0  0  0  0  0  0
  188.8840  179.0240  137.0180 C   0  0  0  0  0  2  0  0  0  0  0  0
  189.5980  177.0390  139.3350 C   0  0  1  0  0  3  0  0  0  0  0  0
  186.7580  178.1570  138.2050 C   0  0  0  0  0  0  0  0  0  0  0  0
  189.6420  177.7160  136.8790 C   0  0  0  0  0  2  0  0  0  0  0  0
  189.6050  176.7070  141.5370 C   0  0  1  0  0  3  0  0  0  0  0  0
  187.4580  178.7530  137.1010 N   0  0  0  0  0  2  0  0  0  0  0  0
  190.4270  176.6830  140.4100 O   0  0  0  0  0  0  0  0  0  0  0  0
  188.6840  178.1900  139.7600 C   0  0  2  0  0  3  0  0  0  0  0  0
  192.7100  176.6170  137.9430 O   0  0  0  0  0  0  0  0  0  0  0  0
  191.0330  175.0910  137.3850 N   0  0  0  0  0  2  0  0  0  0  0  0
  191.9650  174.0210  137.0750 C   0  0  0  0  0  1  0  0  0  0  0  0
  191.4780  176.3750  137.8220 C   0  0  0  0  0  0  0  0  0  0  0  0
  185.0240  177.7710  137.9980 S   0  0  0  0  0  0  0  0  0  0  0  0
  185.2090  177.3270  136.2380 C   0  0  0  0  0  2  0  0  0  0  0  0
  184.1750  175.0640  135.6700 N   0  0  0  0  0  2  0  0  0  0  0  0
  184.0580  176.4840  135.7900 C   0  0  0  0  0  0  0  0  0  0  0  0
  182.9520  177.0300  135.5430 O   0  0  0  0  0  0  0  0  0  0  0  0
  185.7920  174.0230  137.2360 C   0  0  1  0  0  3  0  0  0  0  0  0
  185.3450  172.8950  136.2970 C   0  0  2  0  0  0  0  0  0  0  0  0
  185.4250  174.3260  135.8110 C   0  0  1  0  0  0  0  0  0  0  0  0
  186.5050  174.7190  135.0170 O   0  0  0  0  0  1  0  0  0  0  0  0
  184.9910  172.8570  137.7710 C   0  0  0  0  0  2  0  0  0  0  0  0
  186.1530  170.6310  134.9700 S   0  0  0  0  0  1  0  0  0  0  0  0
  186.5860  172.0750  135.9860 C   0  0  0  0  0  2  0  0  0  0  0  0
  190.4360  176.5540  142.8010 C   0  0  0  0  0  2  0  0  0  0  0  0
  189.5530  176.5940  144.0370 C   0  0  0  0  0  2  0  0  0  0  0  0
  190.1450  177.5280  145.0900 C   0  0  2  0  0  3  0  0  0  0  0  0
  191.2860  176.7760  145.7670 C   0  0  0  0  0  1  0  0  0  0  0  0
  189.3070  177.1410  147.2930 C   0  0  0  0  0  2  0  0  0  0  0  0
  185.8840  178.9700  145.9280 O   0  0  0  0  0  1  0  0  0  0  0  0
  186.6710  177.9770  146.5060 C   0  0  1  0  0  3  0  0  0  0  0  0
  187.7970  177.5800  145.5360 C   0  0  0  0  0  2  0  0  0  0  0  0
  187.2070  178.4720  147.8520 C   0  0  0  0  0  2  0  0  0  0  0  0
  189.1230  177.9290  146.0660 N   0  0  0  0  0  0  0  0  0  0  0  0
  188.3010  177.5420  148.3810 C   0  0  0  0  0  2  0  0  0  0  0  0
  2 15  1  6  0  0  0
  2  5  1  0  0  0  0
  4  9  1  0  0  0  0
  5 11  1  0  0  0  0
  5 10  1  1  0  0  0
  6  3  2  0  0  0  0
  7  4  1  0  0  0  0
  7  2  1  0  0  0  0
  8  1  1  0  0  0  0
  8 28  1  1  0  0  0
  9  6  1  0  0  0  0
 10  8  1  0  0  0  0
 11  3  1  1  0  0  0
 11  1  1  0  0  0  0
 13 15  1  0  0  0  0
 14 13  1  0  0  0  0
 15 12  2  0  0  0  0
 16  6  1  0  0  0  0
 17 16  1  0  0  0  0
 18 19  1  0  0  0  0
 18 23  1  0  0  0  0
 19 17  1  0  0  0  0
 20 19  2  0  0  0  0
 21 25  1  1  0  0  0
 22 27  1  6  0  0  0
 22 21  1  0  0  0  0
 22 25  1  0  0  0  0
 23 24  1  6  0  0  0
 23 22  1  0  0  0  0
 23 21  1  0  0  0  0
 26 27  1  0  0  0  0
 28 29  1  0  0  0  0
 29 30  1  0  0  0  0
 30 31  1  1  0  0  0
 30 37  1  0  0  0  0
 32 38  1  0  0  0  0
 34 33  1  6  0  0  0
 34 36  1  0  0  0  0
 35 37  1  0  0  0  0
 35 34  1  0  0  0  0
 36 38  1  0  0  0  0
 37 32  1  0  0  0  0
M  END
>  <MODEL>
3

>  <REMARK>
 VINA RESULT:      -7.7      2.944      3.727
  Name = 
  10 active torsions:
  status: ('A' for Active; 'I' for Inactive)
    1  A    between atoms: C_5  and  C_38
    2  A    between atoms: S_9  and  C_20
    3  A    between atoms: S_9  and  C_29
    4  A    between atoms: C_10  and  C_16
    5  A    between atoms: C_13  and  N_15
    6  A    between atoms: C_21  and  C_31
    7  A    between atoms: C_21  and  C_32
    8  A    between atoms: C_25  and  C_32
    9  A    between atoms: C_26  and  C_29
   10  A    between atoms: N_27  and  C_31
                            x       y       z     vdW  Elec       q    Type
                         _______ _______ _______ _____ _____    ______ ____

>  <TORSDO>
F 10

$$$$
=
 OpenBabel11042410033D

 38 42  0  0  1  0  0  0  0  0999 V2000
  189.1740  178.1380  139.9760 S   0  0  0  0  0  0  0  0  0  0  0  0
  191.2710  176.0790  137.3650 C   0  0  2  0  0  3  0  0  0  0  0  0
  187.9920  176.8610  137.9680 N   0  0  0  0  0  0  0  0  0  0  0  0
  189.8240  177.0260  135.5540 C   0  0  0  0  0  2  0  0  0  0  0  0
  190.2720  176.1490  138.5300 C   0  0  1  0  0  3  0  0  0  0  0  0
  187.5770  176.6020  136.7600 C   0  0  0  0  0  0  0  0  0  0  0  0
  190.5940  175.8050  136.0250 C   0  0  0  0  0  2  0  0  0  0  0  0
  190.0290  176.7120  140.6710 C   0  0  1  0  0  3  0  0  0  0  0  0
  188.3990  176.7450  135.5900 N   0  0  0  0  0  2  0  0  0  0  0  0
  190.9740  176.2840  139.7370 O   0  0  0  0  0  0  0  0  0  0  0  0
  189.3150  177.3320  138.3660 C   0  0  2  0  0  3  0  0  0  0  0  0
  191.9870  173.8110  137.6520 O   0  0  0  0  0  0  0  0  0  0  0  0
  193.6710  175.4230  137.7950 N   0  0  0  0  0  2  0  0  0  0  0  0
  194.7250  174.4510  138.0310 C   0  0  0  0  0  1  0  0  0  0  0  0
  192.3110  175.0300  137.6080 C   0  0  0  0  0  0  0  0  0  0  0  0
  185.8790  176.0870  136.5430 S   0  0  0  0  0  0  0  0  0  0  0  0
  185.2120  177.4340  137.5770 C   0  0  0  0  0  2  0  0  0  0  0  0
  182.9570  178.2090  138.4860 N   0  0  0  0  0  2  0  0  0  0  0  0
  183.7180  177.3730  137.6100 C   0  0  0  0  0  0  0  0  0  0  0  0
  183.1140  176.5950  136.8290 O   0  0  0  0  0  0  0  0  0  0  0  0
  182.5900  179.3760  140.6440 C   0  0  1  0  0  3  0  0  0  0  0  0
  183.7900  178.4480  140.8770 C   0  0  2  0  0  0  0  0  0  0  0  0
  183.5340  179.0620  139.5180 C   0  0  1  0  0  0  0  0  0  0  0  0
  184.3050  180.1510  139.1040 O   0  0  0  0  0  1  0  0  0  0  0  0
  182.4810  178.2120  141.6040 C   0  0  0  0  0  2  0  0  0  0  0  0
  186.0220  178.1110  142.4390 S   0  0  0  0  0  1  0  0  0  0  0  0
  184.7820  179.2290  141.7230 C   0  0  0  0  0  2  0  0  0  0  0  0
  190.7100  177.1080  141.9700 C   0  0  0  0  0  2  0  0  0  0  0  0
  189.7000  177.2190  143.1000 C   0  0  0  0  0  2  0  0  0  0  0  0
  189.9870  178.4500  143.9570 C   0  0  2  0  0  3  0  0  0  0  0  0
  191.4640  178.7870  143.7790 C   0  0  0  0  0  1  0  0  0  0  0  0
  190.5300  177.0950  145.8490 C   0  0  0  0  0  2  0  0  0  0  0  0
  186.8780  178.3000  147.3120 O   0  0  0  0  0  1  0  0  0  0  0  0
  187.8800  177.4170  146.9200 C   0  0  1  0  0  3  0  0  0  0  0  0
  188.2850  177.7070  145.4640 C   0  0  0  0  0  2  0  0  0  0  0  0
  189.0620  177.5250  147.8870 C   0  0  0  0  0  2  0  0  0  0  0  0
  189.6720  178.1870  145.3680 N   0  0  0  0  0  0  0  0  0  0  0  0
  190.2910  176.7990  147.3360 C   0  0  0  0  0  2  0  0  0  0  0  0
  1  8  1  0  0  0  0
  2 15  1  1  0  0  0
  2  5  1  0  0  0  0
  4  9  1  0  0  0  0
  4  7  1  0  0  0  0
  5 10  1  1  0  0  0
  6  3  2  0  0  0  0
  7  2  1  0  0  0  0
  8 28  1  1  0  0  0
  9  6  1  0  0  0  0
 10  8  1  0  0  0  0
 11  3  1  1  0  0  0
 11  5  1  0  0  0  0
 11  1  1  0  0  0  0
 13 14  1  0  0  0  0
 15 12  2  0  0  0  0
 15 13  1  0  0  0  0
 16  6  1  0  0  0  0
 16 17  1  0  0  0  0
 17 19  1  0  0  0  0
 18 23  1  0  0  0  0
 19 18  1  0  0  0  0
 20 19  2  0  0  0  0
 21 22  1  0  0  0  0
 21 25  1  6  0  0  0
 22 25  1  0  0  0  0
 22 27  1  1  0  0  0
 23 24  1  6  0  0  0
 23 21  1  0  0  0  0
 23 22  1  0  0  0  0
 27 26  1  0  0  0  0
 28 29  1  0  0  0  0
 29 30  1  0  0  0  0
 30 31  1  1  0  0  0
 30 37  1  0  0  0  0
 32 38  1  0  0  0  0
 34 33  1  1  0  0  0
 34 36  1  0  0  0  0
 35 34  1  0  0  0  0
 37 35  1  0  0  0  0
 37 32  1  0  0  0  0
 38 36  1  0  0  0  0
M  END
>  <MODEL>
4

>  <REMARK>
 VINA RESULT:      -7.6      2.231      3.162
  Name = 
  10 active torsions:
  status: ('A' for Active; 'I' for Inactive)
    1  A    between atoms: C_5  and  C_38
    2  A    between atoms: S_9  and  C_20
    3  A    between atoms: S_9  and  C_29
    4  A    between atoms: C_10  and  C_16
    5  A    between atoms: C_13  and  N_15
    6  A    between atoms: C_21  and  C_31
    7  A    between atoms: C_21  and  C_32
    8  A    between atoms: C_25  and  C_32
    9  A    between atoms: C_26  and  C_29
   10  A    between atoms: N_27  and  C_31
                            x       y       z     vdW  Elec       q    Type
                         _______ _______ _______ _____ _____    ______ ____

>  <TORSDO>
F 10

$$$$
=
 OpenBabel11042410033D

 38 42  0  0  1  0  0  0  0  0999 V2000
  188.7790  178.3820  141.6520 S   0  0  0  0  0  0  0  0  0  0  0  0
  190.3670  177.4540  138.1770 C   0  0  2  0  0  3  0  0  0  0  0  0
  187.2590  178.0060  139.5050 N   0  0  0  0  0  0  0  0  0  0  0  0
  188.7760  179.0570  137.0960 C   0  0  0  0  0  2  0  0  0  0  0  0
  189.5320  177.0870  139.4140 C   0  0  1  0  0  3  0  0  0  0  0  0
  186.6750  178.2430  138.3640 C   0  0  0  0  0  0  0  0  0  0  0  0
  189.5060  177.7340  136.9490 C   0  0  0  0  0  2  0  0  0  0  0  0
  189.6060  176.7820  141.6190 C   0  0  1  0  0  3  0  0  0  0  0  0
  187.3490  178.8120  137.2300 N   0  0  0  0  0  2  0  0  0  0  0  0
  190.3900  176.7300  140.4650 O   0  0  0  0  0  0  0  0  0  0  0  0
  188.6530  178.2600  139.8540 C   0  0  2  0  0  3  0  0  0  0  0  0
  192.5860  176.5770  137.9720 O   0  0  0  0  0  0  0  0  0  0  0  0
  190.8670  175.1080  137.3890 N   0  0  0  0  0  2  0  0  0  0  0  0
  191.7700  174.0180  137.0590 C   0  0  0  0  0  1  0  0  0  0  0  0
  191.3480  176.3720  137.8480 C   0  0  0  0  0  0  0  0  0  0  0  0
  184.9290  177.8860  138.2190 S   0  0  0  0  0  0  0  0  0  0  0  0
  185.1380  176.8730  136.7170 C   0  0  0  0  0  2  0  0  0  0  0  0
  184.6170  174.4330  137.2550 N   0  0  0  0  0  2  0  0  0  0  0  0
  185.5670  175.4870  137.0790 C   0  0  0  0  0  0  0  0  0  0  0  0
  186.7930  175.2320  137.2020 O   0  0  0  0  0  0  0  0  0  0  0  0
  182.6030  174.9740  135.9120 C   0  0  1  0  0  3  0  0  0  0  0  0
  182.3280  173.5960  136.5290 C   0  0  2  0  0  0  0  0  0  0  0  0
  183.1710  174.6210  137.2580 C   0  0  1  0  0  0  0  0  0  0  0  0
  182.6100  175.3390  138.3160 O   0  0  0  0  0  1  0  0  0  0  0  0
  182.4880  173.7500  135.0300 C   0  0  0  0  0  2  0  0  0  0  0  0
  180.3910  171.9610  137.5830 S   0  0  0  0  0  1  0  0  0  0  0  0
  180.8680  173.5960  136.9510 C   0  0  0  0  0  2  0  0  0  0  0  0
  190.4760  176.6300  142.8560 C   0  0  0  0  0  2  0  0  0  0  0  0
  189.6240  176.5790  144.1130 C   0  0  0  0  0  2  0  0  0  0  0  0
  190.1970  177.5010  145.1870 C   0  0  2  0  0  3  0  0  0  0  0  0
  191.3190  176.7370  145.8820 C   0  0  0  0  0  1  0  0  0  0  0  0
  189.3380  177.1290  147.3860 C   0  0  0  0  0  2  0  0  0  0  0  0
  185.9000  178.8770  145.9520 O   0  0  0  0  0  1  0  0  0  0  0  0
  186.6970  177.9070  146.5540 C   0  0  1  0  0  3  0  0  0  0  0  0
  187.8420  177.5160  145.6040 C   0  0  0  0  0  2  0  0  0  0  0  0
  187.2070  178.4290  147.8990 C   0  0  0  0  0  2  0  0  0  0  0  0
  189.1550  177.8960  146.1450 N   0  0  0  0  0  0  0  0  0  0  0  0
  188.3110  177.5270  148.4550 C   0  0  0  0  0  2  0  0  0  0  0  0
  2 15  1  6  0  0  0
  2  5  1  0  0  0  0
  4  9  1  0  0  0  0
  5 11  1  0  0  0  0
  5 10  1  1  0  0  0
  6  3  2  0  0  0  0
  7  4  1  0  0  0  0
  7  2  1  0  0  0  0
  8  1  1  0  0  0  0
  8 28  1  1  0  0  0
  9  6  1  0  0  0  0
 10  8  1  0  0  0  0
 11  3  1  1  0  0  0
 11  1  1  0  0  0  0
 13 15  1  0  0  0  0
 14 13  1  0  0  0  0
 15 12  2  0  0  0  0
 16  6  1  0  0  0  0
 17 19  1  0  0  0  0
 17 16  1  0  0  0  0
 18 23  1  0  0  0  0
 19 20  2  0  0  0  0
 19 18  1  0  0  0  0
 21 25  1  6  0  0  0
 21 22  1  0  0  0  0
 21 23  1  0  0  0  0
 22 27  1  1  0  0  0
 22 23  1  0  0  0  0
 23 24  1  1  0  0  0
 25 22  1  0  0  0  0
 27 26  1  0  0  0  0
 28 29  1  0  0  0  0
 29 30  1  0  0  0  0
 30 31  1  1  0  0  0
 30 37  1  0  0  0  0
 32 38  1  0  0  0  0
 34 33  1  6  0  0  0
 34 36  1  0  0  0  0
 35 37  1  0  0  0  0
 35 34  1  0  0  0  0
 36 38  1  0  0  0  0
 37 32  1  0  0  0  0
M  END
>  <MODEL>
5

>  <REMARK>
 VINA RESULT:      -7.5      2.507      2.877
  Name = 
  10 active torsions:
  status: ('A' for Active; 'I' for Inactive)
    1  A    between atoms: C_5  and  C_38
    2  A    between atoms: S_9  and  C_20
    3  A    between atoms: S_9  and  C_29
    4  A    between atoms: C_10  and  C_16
    5  A    between atoms: C_13  and  N_15
    6  A    between atoms: C_21  and  C_31
    7  A    between atoms: C_21  and  C_32
    8  A    between atoms: C_25  and  C_32
    9  A    between atoms: C_26  and  C_29
   10  A    between atoms: N_27  and  C_31
                            x       y       z     vdW  Elec       q    Type
                         _______ _______ _______ _____ _____    ______ ____

>  <TORSDO>
F 10

$$$$
=
 OpenBabel11042410033D

 38 42  0  0  1  0  0  0  0  0999 V2000
  188.8430  178.2650  140.6110 S   0  0  0  0  0  0  0  0  0  0  0  0
  191.1250  176.9610  137.6870 C   0  0  2  0  0  3  0  0  0  0  0  0
  187.7970  177.0580  138.4880 N   0  0  0  0  0  0  0  0  0  0  0  0
  189.4400  177.8510  136.0630 C   0  0  0  0  0  2  0  0  0  0  0  0
  190.1920  176.7030  138.8810 C   0  0  1  0  0  3  0  0  0  0  0  0
  187.3700  176.8810  137.2700 C   0  0  0  0  0  0  0  0  0  0  0  0
  190.4350  176.7400  136.3440 C   0  0  0  0  0  2  0  0  0  0  0  0
  189.9700  176.9410  141.0840 C   0  0  1  0  0  3  0  0  0  0  0  0
  188.0890  177.3160  136.1040 N   0  0  0  0  0  2  0  0  0  0  0  0
  190.9240  176.8100  140.0730 O   0  0  0  0  0  0  0  0  0  0  0  0
  189.0360  177.7050  138.9040 C   0  0  2  0  0  3  0  0  0  0  0  0
  193.4570  176.5880  138.0830 O   0  0  0  0  0  0  0  0  0  0  0  0
  192.2330  174.7050  137.4470 N   0  0  0  0  0  2  0  0  0  0  0  0
  193.3780  173.8120  137.5020 C   0  0  0  0  0  1  0  0  0  0  0  0
  192.3440  176.0940  137.7570 C   0  0  0  0  0  0  0  0  0  0  0  0
  185.7780  176.1000  137.0380 S   0  0  0  0  0  0  0  0  0  0  0  0
  184.8540  177.4840  137.7850 C   0  0  0  0  0  2  0  0  0  0  0  0
  182.4420  178.3080  137.9040 N   0  0  0  0  0  2  0  0  0  0  0  0
  183.4460  177.5010  137.2830 C   0  0  0  0  0  0  0  0  0  0  0  0
  183.1420  176.8160  136.2730 O   0  0  0  0  0  0  0  0  0  0  0  0
  181.3870  179.1790  139.9730 C   0  0  1  0  0  3  0  0  0  0  0  0
  182.5380  178.2820  140.4450 C   0  0  2  0  0  0  0  0  0  0  0  0
  182.6330  179.0500  139.1450 C   0  0  1  0  0  0  0  0  0  0  0  0
  183.4030  180.2140  139.0940 O   0  0  0  0  0  1  0  0  0  0  0  0
  181.0990  177.9010  140.7290 C   0  0  0  0  0  2  0  0  0  0  0  0
  184.7910  178.2410  142.0140 S   0  0  0  0  0  1  0  0  0  0  0  0
  183.1840  178.9930  141.6230 C   0  0  0  0  0  2  0  0  0  0  0  0
  190.6410  177.2860  142.4030 C   0  0  0  0  0  2  0  0  0  0  0  0
  189.6770  177.1080  143.5640 C   0  0  0  0  0  2  0  0  0  0  0  0
  190.2190  177.7850  144.8200 C   0  0  2  0  0  3  0  0  0  0  0  0
  191.2900  176.8660  145.3990 C   0  0  0  0  0  1  0  0  0  0  0  0
  189.3930  177.1940  146.9830 C   0  0  0  0  0  2  0  0  0  0  0  0
  185.8090  178.6990  145.6340 O   0  0  0  0  0  1  0  0  0  0  0  0
  186.6930  177.7720  146.1800 C   0  0  1  0  0  3  0  0  0  0  0  0
  187.8720  177.5520  145.2170 C   0  0  0  0  0  2  0  0  0  0  0  0
  187.1480  178.2530  147.5600 C   0  0  0  0  0  2  0  0  0  0  0  0
  189.1420  178.0180  145.7930 N   0  0  0  0  0  0  0  0  0  0  0  0
  188.3310  177.4240  148.0670 C   0  0  0  0  0  2  0  0  0  0  0  0
  1  8  1  0  0  0  0
  2 15  1  1  0  0  0
  2  5  1  0  0  0  0
  4  9  1  0  0  0  0
  4  7  1  0  0  0  0
  5 11  1  0  0  0  0
  5 10  1  1  0  0  0
  6  3  2  0  0  0  0
  7  2  1  0  0  0  0
  8 28  1  1  0  0  0
  9  6  1  0  0  0  0
 10  8  1  0  0  0  0
 11  3  1  1  0  0  0
 11  1  1  0  0  0  0
 13 14  1  0  0  0  0
 13 15  1  0  0  0  0
 15 12  2  0  0  0  0
 16  6  1  0  0  0  0
 16 17  1  0  0  0  0
 18 23  1  0  0  0  0
 19 17  1  0  0  0  0
 19 18  1  0  0  0  0
 20 19  2  0  0  0  0
 21 22  1  0  0  0  0
 21 25  1  6  0  0  0
 22 25  1  0  0  0  0
 22 27  1  1  0  0  0
 23 24  1  6  0  0  0
 23 21  1  0  0  0  0
 23 22  1  0  0  0  0
 27 26  1  0  0  0  0
 28 29  1  0  0  0  0
 29 30  1  0  0  0  0
 30 31  1  1  0  0  0
 30 37  1  0  0  0  0
 32 38  1  0  0  0  0
 34 33  1  6  0  0  0
 34 36  1  0  0  0  0
 35 37  1  0  0  0  0
 35 34  1  0  0  0  0
 36 38  1  0  0  0  0
 37 32  1  0  0  0  0
M  END
>  <MODEL>
6

>  <REMARK>
 VINA RESULT:      -7.5      1.838      2.464
  Name = 
  10 active torsions:
  status: ('A' for Active; 'I' for Inactive)
    1  A    between atoms: C_5  and  C_38
    2  A    between atoms: S_9  and  C_20
    3  A    between atoms: S_9  and  C_29
    4  A    between atoms: C_10  and  C_16
    5  A    between atoms: C_13  and  N_15
    6  A    between atoms: C_21  and  C_31
    7  A    between atoms: C_21  and  C_32
    8  A    between atoms: C_25  and  C_32
    9  A    between atoms: C_26  and  C_29
   10  A    between atoms: N_27  and  C_31
                            x       y       z     vdW  Elec       q    Type
                         _______ _______ _______ _____ _____    ______ ____

>  <TORSDO>
F 10

$$$$
=
 OpenBabel11042410033D

 38 42  0  0  1  0  0  0  0  0999 V2000
  187.9850  178.5260  140.9920 S   0  0  0  0  0  0  0  0  0  0  0  0
  190.2590  177.2060  138.0690 C   0  0  2  0  0  3  0  0  0  0  0  0
  186.9480  177.8660  138.6370 N   0  0  0  0  0  0  0  0  0  0  0  0
  188.9480  178.6390  136.4900 C   0  0  0  0  0  2  0  0  0  0  0  0
  189.1790  176.9800  139.1380 C   0  0  1  0  0  3  0  0  0  0  0  0
  186.6200  177.9530  137.3790 C   0  0  0  0  0  0  0  0  0  0  0  0
  189.6790  177.3210  136.6630 C   0  0  0  0  0  2  0  0  0  0  0  0
  188.7850  176.9470  141.3300 C   0  0  1  0  0  3  0  0  0  0  0  0
  187.5230  178.3900  136.3500 N   0  0  0  0  0  2  0  0  0  0  0  0
  189.7930  176.7670  140.3820 O   0  0  0  0  0  0  0  0  0  0  0  0
  188.2390  178.1830  139.2370 C   0  0  2  0  0  3  0  0  0  0  0  0
  190.9170  174.9110  138.2570 O   0  0  0  0  0  0  0  0  0  0  0  0
  192.6570  176.4310  137.9210 N   0  0  0  0  0  2  0  0  0  0  0  0
  193.6910  175.4090  137.9260 C   0  0  0  0  0  1  0  0  0  0  0  0
  191.2770  176.1080  138.0890 C   0  0  0  0  0  0  0  0  0  0  0  0
  184.9400  177.5530  136.9140 S   0  0  0  0  0  0  0  0  0  0  0  0
  184.2910  177.7780  138.6040 C   0  0  0  0  0  2  0  0  0  0  0  0
  182.2180  176.9400  139.8350 N   0  0  0  0  0  2  0  0  0  0  0  0
  183.2990  176.7070  138.9280 C   0  0  0  0  0  0  0  0  0  0  0  0
  183.3960  175.5850  138.3670 O   0  0  0  0  0  0  0  0  0  0  0  0
  181.1560  179.1730  140.0180 C   0  0  1  0  0  3  0  0  0  0  0  0
  180.7110  178.4030  141.2670 C   0  0  2  0  0  0  0  0  0  0  0  0
  182.0630  178.1480  140.6370 C   0  0  1  0  0  0  0  0  0  0  0  0
  183.2060  178.6870  141.2310 O   0  0  0  0  0  1  0  0  0  0  0  0
  179.7020  178.8030  140.2100 C   0  0  0  0  0  2  0  0  0  0  0  0
  180.0980  178.6280  143.9340 S   0  0  0  0  0  1  0  0  0  0  0  0
  180.7530  179.3910  142.4210 C   0  0  0  0  0  2  0  0  0  0  0  0
  189.3730  176.9610  142.7310 C   0  0  0  0  0  2  0  0  0  0  0  0
  188.6130  177.9230  143.6280 C   0  0  0  0  0  2  0  0  0  0  0  0
  187.5560  177.1790  144.4410 C   0  0  2  0  0  3  0  0  0  0  0  0
  186.2110  177.8270  144.1290 C   0  0  0  0  0  1  0  0  0  0  0  0
  186.9500  178.2270  146.5010 C   0  0  0  0  0  2  0  0  0  0  0  0
  190.6480  176.9830  147.8090 O   0  0  0  0  0  1  0  0  0  0  0  0
  189.6090  177.8690  147.5380 C   0  0  1  0  0  3  0  0  0  0  0  0
  189.2200  177.7720  146.0520 C   0  0  0  0  0  2  0  0  0  0  0  0
  188.4310  177.5750  148.4700 C   0  0  0  0  0  2  0  0  0  0  0  0
  187.8560  177.2520  145.8770 N   0  0  0  0  0  0  0  0  0  0  0  0
  187.1730  178.3200  148.0170 C   0  0  0  0  0  2  0  0  0  0  0  0
  1  8  1  0  0  0  0
  2 15  1  6  0  0  0
  2  5  1  0  0  0  0
  4  7  1  0  0  0  0
  5 11  1  0  0  0  0
  5 10  1  1  0  0  0
  6  3  2  0  0  0  0
  7  2  1  0  0  0  0
  8 28  1  1  0  0  0
  9  4  1  0  0  0  0
  9  6  1  0  0  0  0
 10  8  1  0  0  0  0
 11  3  1  1  0  0  0
 11  1  1  0  0  0  0
 13 14  1  0  0  0  0
 13 15  1  0  0  0  0
 15 12  2  0  0  0  0
 16  6  1  0  0  0  0
 16 17  1  0  0  0  0
 17 19  1  0  0  0  0
 18 23  1  0  0  0  0
 19 18  1  0  0  0  0
 20 19  2  0  0  0  0
 21 25  1  6  0  0  0
 21 23  1  0  0  0  0
 21 22  1  0  0  0  0
 22 27  1  1  0  0  0
 23 24  1  1  0  0  0
 23 22  1  0  0  0  0
 25 22  1  0  0  0  0
 27 26  1  0  0  0  0
 28 29  1  0  0  0  0
 29 30  1  0  0  0  0
 30 31  1  1  0  0  0
 30 37  1  0  0  0  0
 32 38  1  0  0  0  0
 34 33  1  6  0  0  0
 34 36  1  0  0  0  0
 35 34  1  0  0  0  0
 37 35  1  0  0  0  0
 37 32  1  0  0  0  0
 38 36  1  0  0  0  0
M  END
>  <MODEL>
7

>  <REMARK>
 VINA RESULT:      -7.3      2.157      2.844
  Name = 
  10 active torsions:
  status: ('A' for Active; 'I' for Inactive)
    1  A    between atoms: C_5  and  C_38
    2  A    between atoms: S_9  and  C_20
    3  A    between atoms: S_9  and  C_29
    4  A    between atoms: C_10  and  C_16
    5  A    between atoms: C_13  and  N_15
    6  A    between atoms: C_21  and  C_31
    7  A    between atoms: C_21  and  C_32
    8  A    between atoms: C_25  and  C_32
    9  A    between atoms: C_26  and  C_29
   10  A    between atoms: N_27  and  C_31
                            x       y       z     vdW  Elec       q    Type
                         _______ _______ _______ _____ _____    ______ ____

>  <TORSDO>
F 10

$$$$
=
 OpenBabel11042410033D

 38 42  0  0  1  0  0  0  0  0999 V2000
  183.8510  178.9960  143.8600 S   0  0  0  0  0  0  0  0  0  0  0  0
  186.5770  178.8370  141.0320 C   0  0  2  0  0  3  0  0  0  0  0  0
  183.3310  177.8590  141.5160 N   0  0  0  0  0  0  0  0  0  0  0  0
  184.7980  179.4300  139.3740 C   0  0  0  0  0  2  0  0  0  0  0  0
  185.6980  178.1540  142.0910 C   0  0  1  0  0  3  0  0  0  0  0  0
  183.0450  177.7440  140.2500 C   0  0  0  0  0  0  0  0  0  0  0  0
  186.0610  178.6230  139.6130 C   0  0  0  0  0  2  0  0  0  0  0  0
  185.2910  177.9970  144.2750 C   0  0  1  0  0  3  0  0  0  0  0  0
  183.6670  178.5300  139.2200 N   0  0  0  0  0  2  0  0  0  0  0  0
  186.2960  178.2930  143.3530 O   0  0  0  0  0  0  0  0  0  0  0  0
  184.2960  178.7680  142.1250 C   0  0  2  0  0  3  0  0  0  0  0  0
  188.7020  178.6350  142.1190 O   0  0  0  0  0  0  0  0  0  0  0  0
  188.5310  177.5820  140.0420 N   0  0  0  0  0  2  0  0  0  0  0  0
  189.8950  177.0820  140.0650 C   0  0  0  0  0  1  0  0  0  0  0  0
  187.9920  178.3550  141.1140 C   0  0  0  0  0  0  0  0  0  0  0  0
  181.7730  176.5810  139.7740 S   0  0  0  0  0  0  0  0  0  0  0  0
  182.8970  175.5920  138.7330 C   0  0  0  0  0  2  0  0  0  0  0  0
  182.7300  173.7780  136.9450 N   0  0  0  0  0  2  0  0  0  0  0  0
  182.1190  174.8120  137.7220 C   0  0  0  0  0  0  0  0  0  0  0  0
  180.8930  175.0460  137.5710 O   0  0  0  0  0  0  0  0  0  0  0  0
  184.7100  173.1860  135.5730 C   0  0  1  0  0  3  0  0  0  0  0  0
  185.0760  174.4980  136.2800 C   0  0  2  0  0  0  0  0  0  0  0  0
  184.1600  173.4900  136.9380 C   0  0  1  0  0  0  0  0  0  0  0  0
  184.6630  172.6670  137.9480 O   0  0  0  0  0  1  0  0  0  0  0  0
  184.9140  174.4540  134.7730 C   0  0  0  0  0  2  0  0  0  0  0  0
  187.2570  176.0100  136.9810 S   0  0  0  0  0  1  0  0  0  0  0  0
  186.5300  174.3680  136.7030 C   0  0  0  0  0  2  0  0  0  0  0  0
  185.7540  178.3270  145.6840 C   0  0  0  0  0  2  0  0  0  0  0  0
  187.2720  178.3630  145.7620 C   0  0  0  0  0  2  0  0  0  0  0  0
  187.7820  177.3480  146.7810 C   0  0  2  0  0  3  0  0  0  0  0  0
  187.7420  178.0240  148.1480 C   0  0  0  0  0  1  0  0  0  0  0  0
  190.0090  177.1240  147.6170 C   0  0  0  0  0  2  0  0  0  0  0  0
  191.0930  176.9040  143.6540 O   0  0  0  0  0  1  0  0  0  0  0  0
  191.0960  177.3700  144.9660 C   0  0  1  0  0  3  0  0  0  0  0  0
  189.6690  177.7730  145.3750 C   0  0  0  0  0  2  0  0  0  0  0  0
  191.6870  176.2990  145.8860 C   0  0  0  0  0  2  0  0  0  0  0  0
  189.1450  176.9130  146.4470 N   0  0  0  0  0  0  0  0  0  0  0  0
  191.4430  176.6440  147.3570 C   0  0  0  0  0  2  0  0  0  0  0  0
  1  8  1  0  0  0  0
  2 15  1  6  0  0  0
  2  5  1  0  0  0  0
  4  7  1  0  0  0  0
  5 11  1  0  0  0  0
  5 10  1  1  0  0  0
  6  3  2  0  0  0  0
  7  2  1  0  0  0  0
  8 28  1  1  0  0  0
  9  4  1  0  0  0  0
  9  6  1  0  0  0  0
 10  8  1  0  0  0  0
 11  3  1  1  0  0  0
 11  1  1  0  0  0  0
 13 14  1  0  0  0  0
 13 15  1  0  0  0  0
 15 12  2  0  0  0  0
 16  6  1  0  0  0  0
 17 16  1  0  0  0  0
 18 19  1  0  0  0  0
 19 17  1  0  0  0  0
 20 19  2  0  0  0  0
 21 25  1  6  0  0  0
 21 22  1  0  0  0  0
 21 23  1  0  0  0  0
 22 27  1  1  0  0  0
 22 23  1  0  0  0  0
 23 18  1  0  0  0  0
 23 24  1  1  0  0  0
 25 22  1  0  0  0  0
 27 26  1  0  0  0  0
 28 29  1  0  0  0  0
 29 30  1  0  0  0  0
 30 31  1  1  0  0  0
 34 33  1  6  0  0  0
 34 35  1  0  0  0  0
 34 36  1  0  0  0  0
 35 37  1  0  0  0  0
 36 38  1  0  0  0  0
 37 30  1  0  0  0  0
 37 32  1  0  0  0  0
 38 32  1  0  0  0  0
M  END
>  <MODEL>
8

>  <REMARK>
 VINA RESULT:      -7.3      3.058      5.145
  Name = 
  10 active torsions:
  status: ('A' for Active; 'I' for Inactive)
    1  A    between atoms: C_5  and  C_38
    2  A    between atoms: S_9  and  C_20
    3  A    between atoms: S_9  and  C_29
    4  A    between atoms: C_10  and  C_16
    5  A    between atoms: C_13  and  N_15
    6  A    between atoms: C_21  and  C_31
    7  A    between atoms: C_21  and  C_32
    8  A    between atoms: C_25  and  C_32
    9  A    between atoms: C_26  and  C_29
   10  A    between atoms: N_27  and  C_31
                            x       y       z     vdW  Elec       q    Type
                         _______ _______ _______ _____ _____    ______ ____

>  <TORSDO>
F 10

$$$$
=
 OpenBabel11042410033D

 38 42  0  0  1  0  0  0  0  0999 V2000
  187.4740  178.5660  141.6860 S   0  0  0  0  0  0  0  0  0  0  0  0
  190.8550  177.4370  143.3440 C   0  0  2  0  0  3  0  0  0  0  0  0
  189.2510  177.1270  140.3340 N   0  0  0  0  0  0  0  0  0  0  0  0
  192.0200  178.0130  141.2040 C   0  0  0  0  0  2  0  0  0  0  0  0
  189.4630  177.1160  142.7780 C   0  0  1  0  0  3  0  0  0  0  0  0
  190.3220  176.8350  139.6510 C   0  0  0  0  0  0  0  0  0  0  0  0
  191.9800  177.0600  142.3850 C   0  0  0  0  0  2  0  0  0  0  0  0
  187.2770  177.4290  143.0700 C   0  0  1  0  0  3  0  0  0  0  0  0
  191.6360  177.3040  139.9940 N   0  0  0  0  0  2  0  0  0  0  0  0
  188.4910  177.3780  143.7560 O   0  0  0  0  0  0  0  0  0  0  0  0
  189.1660  177.9540  141.5330 C   0  0  2  0  0  3  0  0  0  0  0  0
  191.6830  175.6390  144.6930 O   0  0  0  0  0  0  0  0  0  0  0  0
  190.5950  177.3490  145.8530 N   0  0  0  0  0  2  0  0  0  0  0  0
  190.7850  176.7300  147.1540 C   0  0  0  0  0  1  0  0  0  0  0  0
  191.0780  176.7460  144.6530 C   0  0  0  0  0  0  0  0  0  0  0  0
  190.1380  175.8370  138.1790 S   0  0  0  0  0  0  0  0  0  0  0  0
  188.4120  176.3550  137.8970 C   0  0  0  0  0  2  0  0  0  0  0  0
  187.0660  177.6690  136.1720 N   0  0  0  0  0  2  0  0  0  0  0  0
  188.3270  177.2570  136.7070 C   0  0  0  0  0  0  0  0  0  0  0  0
  189.3850  177.6900  136.1830 O   0  0  0  0  0  0  0  0  0  0  0  0
  184.7470  177.0840  135.5160 C   0  0  1  0  0  3  0  0  0  0  0  0
  185.3520  175.7940  136.0850 C   0  0  2  0  0  0  0  0  0  0  0  0
  185.7760  177.1480  136.6090 C   0  0  1  0  0  0  0  0  0  0  0  0
  185.2760  177.5940  137.8340 O   0  0  0  0  0  1  0  0  0  0  0  0
  184.9770  175.8890  134.6180 C   0  0  0  0  0  2  0  0  0  0  0  0
  184.8410  173.5440  137.5740 S   0  0  0  0  0  1  0  0  0  0  0  0
  184.2610  175.1340  136.9120 C   0  0  0  0  0  2  0  0  0  0  0  0
  186.1720  177.9260  143.9870 C   0  0  0  0  0  2  0  0  0  0  0  0
  184.9200  178.2610  143.1950 C   0  0  0  0  0  2  0  0  0  0  0  0
  184.1010  179.3320  143.9110 C   0  0  2  0  0  3  0  0  0  0  0  0
  184.1320  179.0000  145.4000 C   0  0  0  0  0  1  0  0  0  0  0  0
  181.8620  178.6160  144.3360 C   0  0  0  0  0  2  0  0  0  0  0  0
  181.2420  179.3680  140.3380 O   0  0  0  0  0  1  0  0  0  0  0  0
  181.2540  178.6400  141.5250 C   0  0  1  0  0  3  0  0  0  0  0  0
  182.6720  178.6450  142.1210 C   0  0  0  0  0  2  0  0  0  0  0  0
  180.2140  179.2180  142.4870 C   0  0  0  0  0  2  0  0  0  0  0  0
  182.7220  179.3600  143.4050 N   0  0  0  0  0  0  0  0  0  0  0  0
  180.3910  178.6450  143.8950 C   0  0  0  0  0  2  0  0  0  0  0  0
  1  8  1  0  0  0  0
  2 15  1  1  0  0  0
  4  7  1  0  0  0  0
  5  2  1  0  0  0  0
  5 10  1  1  0  0  0
  6  9  1  0  0  0  0
  6  3  2  0  0  0  0
  7  2  1  0  0  0  0
  8 10  1  0  0  0  0
  8 28  1  1  0  0  0
  9  4  1  0  0  0  0
 11  3  1  6  0  0  0
 11  1  1  0  0  0  0
 11  5  1  0  0  0  0
 13 14  1  0  0  0  0
 15 12  2  0  0  0  0
 15 13  1  0  0  0  0
 16  6  1  0  0  0  0
 17 16  1  0  0  0  0
 18 23  1  0  0  0  0
 18 19  1  0  0  0  0
 19 17  1  0  0  0  0
 20 19  2  0  0  0  0
 21 25  1  6  0  0  0
 21 22  1  0  0  0  0
 21 23  1  0  0  0  0
 22 23  1  0  0  0  0
 22 27  1  1  0  0  0
 23 24  1  1  0  0  0
 25 22  1  0  0  0  0
 27 26  1  0  0  0  0
 29 30  1  0  0  0  0
 29 28  1  0  0  0  0
 30 31  1  1  0  0  0
 34 33  1  6  0  0  0
 34 35  1  0  0  0  0
 34 36  1  0  0  0  0
 35 37  1  0  0  0  0
 36 38  1  0  0  0  0
 37 30  1  0  0  0  0
 37 32  1  0  0  0  0
 38 32  1  0  0  0  0
M  END
>  <MODEL>
9

>  <REMARK>
 VINA RESULT:      -7.1      2.769      5.239
  Name = 
  10 active torsions:
  status: ('A' for Active; 'I' for Inactive)
    1  A    between atoms: C_5  and  C_38
    2  A    between atoms: S_9  and  C_20
    3  A    between atoms: S_9  and  C_29
    4  A    between atoms: C_10  and  C_16
    5  A    between atoms: C_13  and  N_15
    6  A    between atoms: C_21  and  C_31
    7  A    between atoms: C_21  and  C_32
    8  A    between atoms: C_25  and  C_32
    9  A    between atoms: C_26  and  C_29
   10  A    between atoms: N_27  and  C_31
                            x       y       z     vdW  Elec       q    Type
                         _______ _______ _______ _____ _____    ______ ____

>  <TORSDO>
F 10

$$$$
