=
 OpenBabel11042411313D

 36 40  0  0  1  0  0  0  0  0999 V2000
  183.7210  178.5510  143.1860 N   0  0  0  0  0  0  0  0  0  0  0  0
  188.7690  177.2720  141.5410 C   0  0  0  0  0  0  0  0  0  0  0  0
  190.0130  176.6200  141.5590 C   0  0  0  0  0  0  0  0  0  0  0  0
  186.6710  177.8910  142.6060 C   0  0  0  0  0  0  0  0  0  0  0  0
  183.0730  179.1910  139.7280 C   0  0  2  0  0  3  0  0  0  0  0  0
  186.0080  177.9110  143.7680 C   0  0  0  0  0  2  0  0  0  0  0  0
  183.8150  178.7010  141.9040 C   0  0  0  0  0  0  0  0  0  0  0  0
  181.3050  178.6360  141.5030 C   0  0  0  0  0  1  0  0  0  0  0  0
  184.5870  179.4690  139.7950 C   0  0  0  0  0  2  0  0  0  0  0  0
  188.3930  178.0230  140.4140 C   0  0  0  0  0  0  0  0  0  0  0  0
  185.0260  179.0060  141.1560 C   0  0  2  0  0  3  0  0  0  0  0  0
  187.8980  177.2250  142.6300 C   0  0  0  0  0  3  0  0  0  0  0  0
  189.2690  178.1030  139.3200 C   0  0  0  0  0  0  0  0  0  0  0  0
  190.4620  177.4510  139.3610 N   0  0  0  0  0  0  0  0  0  0  0  0
  187.1730  178.6210  140.3790 N   0  0  0  0  0  0  0  0  0  0  0  0
  190.8450  176.7220  140.4430 C   0  0  0  0  0  3  0  0  0  0  0  0
  182.6850  178.7370  141.0560 N   0  0  0  0  0  0  0  0  0  0  0  0
  184.8330  178.7690  144.0910 C   0  0  0  0  0  2  0  0  0  0  0  0
  186.2770  178.5580  141.4060 C   0  0  0  0  0  0  0  0  0  0  0  0
  182.8000  178.1500  138.7440 N   0  0  0  0  0  0  0  0  0  0  0  0
  182.2420  178.3570  137.5430 C   0  0  0  0  0  3  0  0  0  0  0  0
  182.7220  176.2250  137.7870 C   0  0  0  0  0  3  0  0  0  0  0  0
  182.1720  177.1350  136.8960 C   0  0  0  0  0  3  0  0  0  0  0  0
  183.0990  176.8740  138.9040 N   0  0  0  0  0  0  0  0  0  0  0  0
  190.5630  175.6480  142.9660 S   0  0  0  0  0  0  0  0  0  0  0  0
  191.4560  177.0470  143.7070 C   0  0  1  0  0  3  0  0  0  0  0  0
  191.4680  178.1200  142.8160 O   0  0  0  0  0  1  0  0  0  0  0  0
  190.2790  179.0130  145.1650 O   0  0  0  0  0  0  0  0  0  0  0  0
  190.6380  177.5470  145.2470 P   0  0  1  0  0  0  0  0  0  0  0  0
  189.2300  176.6330  145.4600 O   0  0  0  0  0  1  0  0  0  0  0  0
  192.0520  175.8640  146.6160 C   0  0  0  0  0  1  0  0  0  0  0  0
  191.7280  177.2800  146.5940 N   0  0  0  0  0  2  0  0  0  0  0  0
  188.8980  178.8640  138.0860 C   0  0  0  0  0  2  0  0  0  0  0  0
  188.6670  177.9190  136.9180 C   0  0  0  0  0  2  0  0  0  0  0  0
  186.4610  177.8940  136.8930 C   0  0  0  0  0  1  0  0  0  0  0  0
  187.5690  177.0970  137.1760 O   0  0  0  0  0  0  0  0  0  0  0  0
  1 18  1  0  0  0  0
  2  3  1  0  0  0  0
  2 12  1  0  0  0  0
  3 25  1  0  0  0  0
  4 12  2  0  0  0  0
  4  6  1  0  0  0  0
  5 20  1  6  0  0  0
  5  9  1  0  0  0  0
  5 17  1  0  0  0  0
  6 18  1  0  0  0  0
  7  1  2  0  0  0  0
 10  2  2  0  0  0  0
 11  9  1  6  0  0  0
 11 19  1  0  0  0  0
 11  7  1  0  0  0  0
 13 14  2  0  0  0  0
 13 10  1  0  0  0  0
 14 16  1  0  0  0  0
 15 10  1  0  0  0  0
 15 19  2  0  0  0  0
 16  3  2  0  0  0  0
 17  8  1  0  0  0  0
 17  7  1  0  0  0  0
 19  4  1  0  0  0  0
 20 24  1  0  0  0  0
 21 20  1  0  0  0  0
 22 24  2  0  0  0  0
 23 21  2  0  0  0  0
 23 22  1  0  0  0  0
 25 26  1  0  0  0  0
 26 27  1  6  0  0  0
 26 29  1  0  0  0  0
 29 28  2  6  0  0  0
 29 30  1  0  0  0  0
 29 32  1  0  0  0  0
 32 31  1  0  0  0  0
 33 13  1  0  0  0  0
 34 36  1  0  0  0  0
 34 33  1  0  0  0  0
 35 36  1  0  0  0  0
M  END
>  <MODEL>
1

>  <REMARK>
 VINA RESULT:      -8.0      0.000      0.000
  Name = 
  8 active torsions:
  status: ('A' for Active; 'I' for Inactive)
    1  A    between atoms: S_1  and  C_4
    2  A    between atoms: S_1  and  C_8
    3  A    between atoms: C_4  and  P_32
    4  A    between atoms: C_10  and  C_13
    5  A    between atoms: C_10  and  C_26
    6  A    between atoms: C_11  and  N_15
    7  A    between atoms: C_13  and  O_23
    8  A    between atoms: N_21  and  P_32
                            x       y       z     vdW  Elec       q    Type
                         _______ _______ _______ _____ _____    ______ ____

>  <TORSDO>
F 8

$$$$
=
 OpenBabel11042411313D

 36 40  0  0  1  0  0  0  0  0999 V2000
  182.1630  178.8300  141.8980 N   0  0  0  0  0  0  0  0  0  0  0  0
  187.5030  177.6860  141.9570 C   0  0  0  0  0  0  0  0  0  0  0  0
  188.7030  177.1150  142.4140 C   0  0  0  0  0  0  0  0  0  0  0  0
  185.1690  178.2890  142.2840 C   0  0  0  0  0  0  0  0  0  0  0  0
  182.5510  179.0600  138.3510 C   0  0  2  0  0  3  0  0  0  0  0  0
  184.1920  178.3930  143.1920 C   0  0  0  0  0  2  0  0  0  0  0  0
  182.6290  178.8490  140.6900 C   0  0  0  0  0  0  0  0  0  0  0  0
  180.3530  178.5920  139.5870 C   0  0  0  0  0  1  0  0  0  0  0  0
  183.9710  179.4320  138.8210 C   0  0  0  0  0  2  0  0  0  0  0  0
  187.4580  178.2900  140.6890 C   0  0  0  0  0  0  0  0  0  0  0  0
  183.9980  179.1440  140.2970 C   0  0  2  0  0  3  0  0  0  0  0  0
  186.3510  177.7030  142.7430 C   0  0  0  0  0  3  0  0  0  0  0  0
  188.6170  178.3050  139.8950 C   0  0  0  0  0  0  0  0  0  0  0  0
  189.7600  177.7330  140.3590 N   0  0  0  0  0  0  0  0  0  0  0  0
  186.2890  178.8070  140.2290 N   0  0  0  0  0  0  0  0  0  0  0  0
  189.8250  177.1470  141.5850 C   0  0  0  0  0  3  0  0  0  0  0  0
  181.8000  178.7280  139.5530 N   0  0  0  0  0  0  0  0  0  0  0  0
  182.9520  179.2090  143.0550 C   0  0  0  0  0  2  0  0  0  0  0  0
  185.1310  178.8000  140.9510 C   0  0  0  0  0  0  0  0  0  0  0  0
  182.6090  177.9060  137.4610 N   0  0  0  0  0  0  0  0  0  0  0  0
  182.0320  177.8390  136.2530 C   0  0  0  0  0  3  0  0  0  0  0  0
  183.1110  175.9690  136.6710 C   0  0  0  0  0  3  0  0  0  0  0  0
  182.3310  176.6000  135.7130 C   0  0  0  0  0  3  0  0  0  0  0  0
  183.2650  176.7910  137.7250 N   0  0  0  0  0  0  0  0  0  0  0  0
  188.8360  176.3320  144.0250 S   0  0  0  0  0  0  0  0  0  0  0  0
  189.6400  177.7820  144.7700 C   0  0  1  0  0  3  0  0  0  0  0  0
  189.0140  178.0960  145.9760 O   0  0  0  0  0  1  0  0  0  0  0  0
  191.7900  176.1940  144.2850 O   0  0  0  0  0  0  0  0  0  0  0  0
  191.3920  177.4220  145.0730 P   0  0  1  0  0  0  0  0  0  0  0  0
  192.3320  178.7390  144.5780 O   0  0  0  0  0  1  0  0  0  0  0  0
  192.1250  175.7690  146.9270 C   0  0  0  0  0  1  0  0  0  0  0  0
  191.6350  177.1290  146.7840 N   0  0  0  0  0  2  0  0  0  0  0  0
  188.6080  178.9070  138.5250 C   0  0  0  0  0  2  0  0  0  0  0  0
  188.7460  177.8300  137.4610 C   0  0  0  0  0  2  0  0  0  0  0  0
  186.6870  177.9170  136.6720 C   0  0  0  0  0  1  0  0  0  0  0  0
  188.0120  178.1800  136.3270 O   0  0  0  0  0  0  0  0  0  0  0  0
  1 18  1  0  0  0  0
  2  3  1  0  0  0  0
  2 12  1  0  0  0  0
  3 25  1  0  0  0  0
  4 12  2  0  0  0  0
  4  6  1  0  0  0  0
  5 20  1  6  0  0  0
  5  9  1  0  0  0  0
  5 17  1  0  0  0  0
  7  1  2  0  0  0  0
 10  2  2  0  0  0  0
 11  9  1  6  0  0  0
 11  7  1  0  0  0  0
 11 19  1  0  0  0  0
 13 14  2  0  0  0  0
 13 10  1  0  0  0  0
 14 16  1  0  0  0  0
 15 10  1  0  0  0  0
 15 19  2  0  0  0  0
 16  3  2  0  0  0  0
 17  8  1  0  0  0  0
 17  7  1  0  0  0  0
 18  6  1  0  0  0  0
 19  4  1  0  0  0  0
 20 24  1  0  0  0  0
 21 20  1  0  0  0  0
 22 24  2  0  0  0  0
 23 21  2  0  0  0  0
 23 22  1  0  0  0  0
 25 26  1  0  0  0  0
 26 29  1  0  0  0  0
 26 27  1  1  0  0  0
 29 28  2  6  0  0  0
 29 32  1  0  0  0  0
 30 29  1  0  0  0  0
 32 31  1  0  0  0  0
 33 13  1  0  0  0  0
 34 33  1  0  0  0  0
 36 35  1  0  0  0  0
 36 34  1  0  0  0  0
M  END
>  <MODEL>
2

>  <REMARK>
 VINA RESULT:      -7.7      1.253      1.749
  Name = 
  8 active torsions:
  status: ('A' for Active; 'I' for Inactive)
    1  A    between atoms: S_1  and  C_4
    2  A    between atoms: S_1  and  C_8
    3  A    between atoms: C_4  and  P_32
    4  A    between atoms: C_10  and  C_13
    5  A    between atoms: C_10  and  C_26
    6  A    between atoms: C_11  and  N_15
    7  A    between atoms: C_13  and  O_23
    8  A    between atoms: N_21  and  P_32
                            x       y       z     vdW  Elec       q    Type
                         _______ _______ _______ _____ _____    ______ ____

>  <TORSDO>
F 8

$$$$
=
 OpenBabel11042411313D

 36 40  0  0  1  0  0  0  0  0999 V2000
  190.9340  176.6960  139.3920 N   0  0  0  0  0  0  0  0  0  0  0  0
  185.9390  176.7690  137.1870 C   0  0  0  0  0  0  0  0  0  0  0  0
  184.8580  176.3220  136.4080 C   0  0  0  0  0  0  0  0  0  0  0  0
  188.2850  176.6810  137.8260 C   0  0  0  0  0  0  0  0  0  0  0  0
  189.4350  178.4540  142.1220 C   0  0  2  0  0  3  0  0  0  0  0  0
  189.4840  176.1930  137.4890 C   0  0  0  0  0  2  0  0  0  0  0  0
  190.1150  177.3110  140.1840 C   0  0  0  0  0  0  0  0  0  0  0  0
  191.5910  177.0690  142.2390 C   0  0  0  0  0  1  0  0  0  0  0  0
  188.5160  178.8830  140.9610 C   0  0  0  0  0  2  0  0  0  0  0  0
  185.7520  177.8210  138.1000 C   0  0  0  0  0  0  0  0  0  0  0  0
  188.9060  178.0210  139.7930 C   0  0  2  0  0  3  0  0  0  0  0  0
  187.2140  176.2170  137.0590 C   0  0  0  0  0  3  0  0  0  0  0  0
  184.4810  178.4050  138.2220 C   0  0  0  0  0  0  0  0  0  0  0  0
  183.4500  177.9430  137.4650 N   0  0  0  0  0  0  0  0  0  0  0  0
  186.7870  178.2270  138.8810 N   0  0  0  0  0  0  0  0  0  0  0  0
  183.6110  176.9290  136.5740 C   0  0  0  0  0  3  0  0  0  0  0  0
  190.3830  177.5040  141.5570 N   0  0  0  0  0  0  0  0  0  0  0  0
  190.8020  176.7150  137.9480 C   0  0  0  0  0  2  0  0  0  0  0  0
  188.0360  177.6800  138.8160 C   0  0  0  0  0  0  0  0  0  0  0  0
  188.6480  177.8140  143.1690 N   0  0  0  0  0  0  0  0  0  0  0  0
  188.9220  177.8730  144.4800 C   0  0  0  0  0  3  0  0  0  0  0  0
  187.0880  176.7040  144.1520 C   0  0  0  0  0  3  0  0  0  0  0  0
  187.9380  177.1650  145.1470 C   0  0  0  0  0  3  0  0  0  0  0  0
  187.5460  177.1190  142.9560 N   0  0  0  0  0  0  0  0  0  0  0  0
  185.0230  174.9870  135.2180 S   0  0  0  0  0  0  0  0  0  0  0  0
  183.8030  173.9450  136.0730 C   0  0  1  0  0  3  0  0  0  0  0  0
  182.8820  173.4490  135.1500 O   0  0  0  0  0  1  0  0  0  0  0  0
  185.2240  173.0420  138.2040 O   0  0  0  0  0  1  0  0  0  0  0  0
  184.6460  172.5640  136.8920 P   0  0  1  0  0  0  0  0  0  0  0  0
  183.5370  171.3200  137.1850 O   0  0  0  0  0  0  0  0  0  0  0  0
  187.1910  172.2460  136.5350 C   0  0  0  0  0  1  0  0  0  0  0  0
  185.9350  171.9780  135.8580 N   0  0  0  0  0  2  0  0  0  0  0  0
  184.2270  179.5060  139.2040 C   0  0  0  0  0  2  0  0  0  0  0  0
  183.9580  178.9410  140.5900 C   0  0  0  0  0  2  0  0  0  0  0  0
  184.4470  179.0060  142.7410 C   0  0  0  0  0  1  0  0  0  0  0  0
  184.9180  179.4050  141.4910 O   0  0  0  0  0  0  0  0  0  0  0  0
  1  7  2  0  0  0  0
  2 10  1  0  0  0  0
  3 16  2  0  0  0  0
  3  2  1  0  0  0  0
  4 19  2  0  0  0  0
  5  9  1  6  0  0  0
  5 20  1  0  0  0  0
  6  4  1  0  0  0  0
  6 18  1  0  0  0  0
  7 17  1  0  0  0  0
 10 13  1  0  0  0  0
 10 15  2  0  0  0  0
 11  7  1  0  0  0  0
 11  9  1  1  0  0  0
 12  2  2  0  0  0  0
 12  4  1  0  0  0  0
 13 33  1  0  0  0  0
 14 13  2  0  0  0  0
 16 14  1  0  0  0  0
 17  5  1  0  0  0  0
 17  8  1  0  0  0  0
 18  1  1  0  0  0  0
 19 15  1  0  0  0  0
 19 11  1  0  0  0  0
 20 21  1  0  0  0  0
 21 23  2  0  0  0  0
 22 23  1  0  0  0  0
 24 20  1  0  0  0  0
 24 22  2  0  0  0  0
 25 26  1  0  0  0  0
 25  3  1  0  0  0  0
 26 27  1  6  0  0  0
 26 29  1  0  0  0  0
 29 30  2  1  0  0  0
 29 28  1  0  0  0  0
 32 31  1  0  0  0  0
 32 29  1  0  0  0  0
 33 34  1  0  0  0  0
 34 36  1  0  0  0  0
 36 35  1  0  0  0  0
M  END
>  <MODEL>
3

>  <REMARK>
 VINA RESULT:      -7.3      3.851      8.061
  Name = 
  8 active torsions:
  status: ('A' for Active; 'I' for Inactive)
    1  A    between atoms: S_1  and  C_4
    2  A    between atoms: S_1  and  C_8
    3  A    between atoms: C_4  and  P_32
    4  A    between atoms: C_10  and  C_13
    5  A    between atoms: C_10  and  C_26
    6  A    between atoms: C_11  and  N_15
    7  A    between atoms: C_13  and  O_23
    8  A    between atoms: N_21  and  P_32
                            x       y       z     vdW  Elec       q    Type
                         _______ _______ _______ _____ _____    ______ ____

>  <TORSDO>
F 8

$$$$
=
 OpenBabel11042411313D

 36 40  0  0  1  0  0  0  0  0999 V2000
  183.6430  178.2630  138.4870 N   0  0  0  0  0  0  0  0  0  0  0  0
  188.7580  177.9180  140.3710 C   0  0  0  0  0  0  0  0  0  0  0  0
  189.7930  177.9210  141.3200 C   0  0  0  0  0  0  0  0  0  0  0  0
  186.4600  178.3860  139.7210 C   0  0  0  0  0  0  0  0  0  0  0  0
  184.7420  176.0080  135.9380 C   0  0  2  0  0  3  0  0  0  0  0  0
  185.3340  179.0080  140.0880 C   0  0  0  0  0  2  0  0  0  0  0  0
  184.3380  177.4800  137.7260 C   0  0  0  0  0  0  0  0  0  0  0  0
  182.3130  176.3480  136.6880 C   0  0  0  0  0  1  0  0  0  0  0  0
  186.0660  176.7170  136.2870 C   0  0  0  0  0  2  0  0  0  0  0  0
  189.0130  177.4710  139.0630 C   0  0  0  0  0  0  0  0  0  0  0  0
  185.7780  177.5320  137.5180 C   0  0  2  0  0  3  0  0  0  0  0  0
  187.4770  178.3780  140.6780 C   0  0  0  0  0  3  0  0  0  0  0  0
  190.3030  177.0280  138.7290 C   0  0  0  0  0  0  0  0  0  0  0  0
  191.2820  177.0310  139.6720 N   0  0  0  0  0  0  0  0  0  0  0  0
  188.0020  177.4300  138.1550 N   0  0  0  0  0  0  0  0  0  0  0  0
  191.0570  177.4620  140.9420 C   0  0  0  0  0  3  0  0  0  0  0  0
  183.7440  176.5390  136.8550 N   0  0  0  0  0  0  0  0  0  0  0  0
  184.2150  179.3990  139.1840 C   0  0  0  0  0  2  0  0  0  0  0  0
  186.7270  177.8290  138.4330 C   0  0  0  0  0  0  0  0  0  0  0  0
  184.8830  174.5700  136.1280 N   0  0  0  0  0  0  0  0  0  0  0  0
  184.7280  173.9320  137.2970 C   0  0  0  0  0  3  0  0  0  0  0  0
  185.1850  172.4820  135.7070 C   0  0  0  0  0  3  0  0  0  0  0  0
  184.9180  172.5800  137.0650 C   0  0  0  0  0  3  0  0  0  0  0  0
  185.1540  173.7120  135.1620 N   0  0  0  0  0  0  0  0  0  0  0  0
  189.5430  178.4820  143.0080 S   0  0  0  0  0  0  0  0  0  0  0  0
  191.2280  178.0230  143.5120 C   0  0  1  0  0  3  0  0  0  0  0  0
  191.8870  179.1430  144.0180 O   0  0  0  0  0  1  0  0  0  0  0  0
  191.6950  175.4430  144.2220 O   0  0  0  0  0  0  0  0  0  0  0  0
  191.1540  176.7360  144.7890 P   0  0  1  0  0  0  0  0  0  0  0  0
  192.0910  177.2050  146.1170 O   0  0  0  0  0  1  0  0  0  0  0  0
  189.3140  177.2100  146.5490 C   0  0  0  0  0  1  0  0  0  0  0  0
  189.4880  176.5110  145.2870 N   0  0  0  0  0  2  0  0  0  0  0  0
  190.6130  176.5140  137.3580 C   0  0  0  0  0  2  0  0  0  0  0  0
  191.3960  175.2130  137.4350 C   0  0  0  0  0  2  0  0  0  0  0  0
  189.8190  173.8210  136.7690 C   0  0  0  0  0  1  0  0  0  0  0  0
  190.5710  174.1820  137.8860 O   0  0  0  0  0  0  0  0  0  0  0  0
  1 18  1  0  0  0  0
  2 12  1  0  0  0  0
  2  3  2  0  0  0  0
  3 25  1  0  0  0  0
  4  6  1  0  0  0  0
  4 12  2  0  0  0  0
  5 20  1  1  0  0  0
  5  9  1  0  0  0  0
  5 17  1  0  0  0  0
  7  1  2  0  0  0  0
  8 17  1  0  0  0  0
 10  2  1  0  0  0  0
 11  9  1  1  0  0  0
 11  7  1  0  0  0  0
 11 19  1  0  0  0  0
 13 10  2  0  0  0  0
 13 14  1  0  0  0  0
 14 16  2  0  0  0  0
 15 19  2  0  0  0  0
 15 10  1  0  0  0  0
 16  3  1  0  0  0  0
 17  7  1  0  0  0  0
 18  6  1  0  0  0  0
 19  4  1  0  0  0  0
 20 21  1  0  0  0  0
 22 23  1  0  0  0  0
 23 21  2  0  0  0  0
 24 22  2  0  0  0  0
 24 20  1  0  0  0  0
 25 26  1  0  0  0  0
 26 27  1  1  0  0  0
 26 29  1  0  0  0  0
 29 28  2  6  0  0  0
 29 32  1  0  0  0  0
 29 30  1  0  0  0  0
 32 31  1  0  0  0  0
 33 34  1  0  0  0  0
 33 13  1  0  0  0  0
 34 36  1  0  0  0  0
 35 36  1  0  0  0  0
M  END
>  <MODEL>
4

>  <REMARK>
 VINA RESULT:      -6.8      2.581      3.714
  Name = 
  8 active torsions:
  status: ('A' for Active; 'I' for Inactive)
    1  A    between atoms: S_1  and  C_4
    2  A    between atoms: S_1  and  C_8
    3  A    between atoms: C_4  and  P_32
    4  A    between atoms: C_10  and  C_13
    5  A    between atoms: C_10  and  C_26
    6  A    between atoms: C_11  and  N_15
    7  A    between atoms: C_13  and  O_23
    8  A    between atoms: N_21  and  P_32
                            x       y       z     vdW  Elec       q    Type
                         _______ _______ _______ _____ _____    ______ ____

>  <TORSDO>
F 8

$$$$
=
 OpenBabel11042411313D

 36 40  0  0  1  0  0  0  0  0999 V2000
  190.0550  176.8410  136.9760 N   0  0  0  0  0  0  0  0  0  0  0  0
  184.6050  177.0510  137.2570 C   0  0  0  0  0  0  0  0  0  0  0  0
  183.2770  176.6920  136.9720 C   0  0  0  0  0  0  0  0  0  0  0  0
  186.9870  176.9680  136.7670 C   0  0  0  0  0  0  0  0  0  0  0  0
  189.9810  178.0320  140.3470 C   0  0  2  0  0  3  0  0  0  0  0  0
  187.8950  176.6020  135.8550 C   0  0  0  0  0  2  0  0  0  0  0  0
  189.6930  177.2720  138.1420 C   0  0  0  0  0  0  0  0  0  0  0  0
  191.9180  176.7530  139.2550 C   0  0  0  0  0  1  0  0  0  0  0  0
  188.6580  178.6090  139.8080 C   0  0  0  0  0  2  0  0  0  0  0  0
  184.8780  177.9200  138.3270 C   0  0  0  0  0  0  0  0  0  0  0  0
  188.4610  177.9790  138.4570 C   0  0  2  0  0  3  0  0  0  0  0  0
  185.6720  176.5910  136.4840 C   0  0  0  0  0  3  0  0  0  0  0  0
  183.8130  178.4130  139.0990 C   0  0  0  0  0  0  0  0  0  0  0  0
  182.5390  178.0390  138.8070 N   0  0  0  0  0  0  0  0  0  0  0  0
  186.1650  178.2360  138.6280 N   0  0  0  0  0  0  0  0  0  0  0  0
  182.2540  177.2010  137.7750 C   0  0  0  0  0  3  0  0  0  0  0  0
  190.5480  177.2400  139.2660 N   0  0  0  0  0  0  0  0  0  0  0  0
  189.2970  177.1010  135.7670 C   0  0  0  0  0  2  0  0  0  0  0  0
  187.2360  177.7690  137.9230 C   0  0  0  0  0  0  0  0  0  0  0  0
  189.7190  177.1850  141.5050 N   0  0  0  0  0  0  0  0  0  0  0  0
  188.5860  177.1950  142.2210 C   0  0  0  0  0  3  0  0  0  0  0  0
  189.9690  175.6860  143.0270 C   0  0  0  0  0  3  0  0  0  0  0  0
  188.7110  176.2400  143.2160 C   0  0  0  0  0  3  0  0  0  0  0  0
  190.5590  176.2810  141.9740 N   0  0  0  0  0  0  0  0  0  0  0  0
  182.8520  175.5900  135.6190 S   0  0  0  0  0  0  0  0  0  0  0  0
  182.4370  174.2190  136.7390 C   0  0  1  0  0  3  0  0  0  0  0  0
  181.2100  173.6690  136.3710 O   0  0  0  0  0  1  0  0  0  0  0  0
  183.1020  171.5900  136.8940 O   0  0  0  0  0  1  0  0  0  0  0  0
  183.7250  172.9450  136.6470 P   0  0  1  0  0  0  0  0  0  0  0  0
  184.4320  172.9670  135.1100 O   0  0  0  0  0  0  0  0  0  0  0  0
  186.2410  173.0240  137.2570 C   0  0  0  0  0  1  0  0  0  0  0  0
  184.9440  173.2650  137.8660 N   0  0  0  0  0  2  0  0  0  0  0  0
  184.0580  179.3160  140.2660 C   0  0  0  0  0  2  0  0  0  0  0  0
  184.0810  178.5250  141.5650 C   0  0  0  0  0  2  0  0  0  0  0  0
  184.9290  179.3780  143.4150 C   0  0  0  0  0  1  0  0  0  0  0  0
  185.2890  178.7330  142.2320 O   0  0  0  0  0  0  0  0  0  0  0  0
  1  7  2  0  0  0  0
  2 10  1  0  0  0  0
  3  2  2  0  0  0  0
  3 16  1  0  0  0  0
  4 19  1  0  0  0  0
  5  9  1  6  0  0  0
  5 20  1  0  0  0  0
  6  4  1  0  0  0  0
  7 11  1  0  0  0  0
  7 17  1  0  0  0  0
  8 17  1  0  0  0  0
 10 15  1  0  0  0  0
 10 13  2  0  0  0  0
 11  9  1  1  0  0  0
 12  4  2  0  0  0  0
 12  2  1  0  0  0  0
 13 33  1  0  0  0  0
 14 13  1  0  0  0  0
 16 14  2  0  0  0  0
 17  5  1  0  0  0  0
 18  6  1  0  0  0  0
 18  1  1  0  0  0  0
 19 11  1  0  0  0  0
 19 15  2  0  0  0  0
 20 24  1  0  0  0  0
 20 21  1  0  0  0  0
 21 23  2  0  0  0  0
 22 23  1  0  0  0  0
 24 22  2  0  0  0  0
 25 26  1  0  0  0  0
 25  3  1  0  0  0  0
 26 27  1  6  0  0  0
 29 30  2  6  0  0  0
 29 26  1  0  0  0  0
 29 28  1  0  0  0  0
 29 32  1  0  0  0  0
 31 32  1  0  0  0  0
 33 34  1  0  0  0  0
 34 36  1  0  0  0  0
 36 35  1  0  0  0  0
M  END
>  <MODEL>
5

>  <REMARK>
 VINA RESULT:      -6.6      3.836      8.507
  Name = 
  8 active torsions:
  status: ('A' for Active; 'I' for Inactive)
    1  A    between atoms: S_1  and  C_4
    2  A    between atoms: S_1  and  C_8
    3  A    between atoms: C_4  and  P_32
    4  A    between atoms: C_10  and  C_13
    5  A    between atoms: C_10  and  C_26
    6  A    between atoms: C_11  and  N_15
    7  A    between atoms: C_13  and  O_23
    8  A    between atoms: N_21  and  P_32
                            x       y       z     vdW  Elec       q    Type
                         _______ _______ _______ _____ _____    ______ ____

>  <TORSDO>
F 8

$$$$
=
 OpenBabel11042411313D

 36 40  0  0  1  0  0  0  0  0999 V2000
  187.3700  177.9410  143.2190 N   0  0  0  0  0  0  0  0  0  0  0  0
  189.6470  176.8410  138.3790 C   0  0  0  0  0  0  0  0  0  0  0  0
  190.4770  176.1840  137.4550 C   0  0  0  0  0  0  0  0  0  0  0  0
  188.9770  177.3390  140.6650 C   0  0  0  0  0  0  0  0  0  0  0  0
  184.5360  179.0030  141.3140 C   0  0  2  0  0  3  0  0  0  0  0  0
  189.3310  177.2210  141.9490 C   0  0  0  0  0  2  0  0  0  0  0  0
  186.5460  178.2470  142.2680 C   0  0  0  0  0  0  0  0  0  0  0  0
  184.4920  178.2470  143.7650 C   0  0  0  0  0  1  0  0  0  0  0  0
  185.6740  179.2610  140.3070 C   0  0  0  0  0  2  0  0  0  0  0  0
  188.6570  177.7270  137.9190 C   0  0  0  0  0  0  0  0  0  0  0  0
  186.9000  178.6330  140.9100 C   0  0  2  0  0  3  0  0  0  0  0  0
  189.7970  176.6670  139.7550 C   0  0  0  0  0  3  0  0  0  0  0  0
  188.5110  177.9340  136.5380 C   0  0  0  0  0  0  0  0  0  0  0  0
  189.3190  177.2740  135.6670 N   0  0  0  0  0  0  0  0  0  0  0  0
  187.8290  178.3320  138.8100 N   0  0  0  0  0  0  0  0  0  0  0  0
  190.2850  176.4160  136.0920 C   0  0  0  0  0  3  0  0  0  0  0  0
  185.1580  178.3930  142.4810 N   0  0  0  0  0  0  0  0  0  0  0  0
  188.8100  178.0400  143.0800 C   0  0  0  0  0  2  0  0  0  0  0  0
  187.9160  178.1500  140.1590 C   0  0  0  0  0  0  0  0  0  0  0  0
  183.5560  178.0920  140.7350 N   0  0  0  0  0  0  0  0  0  0  0  0
  182.2360  178.1390  140.9630 C   0  0  0  0  0  3  0  0  0  0  0  0
  182.6940  176.5130  139.5540 C   0  0  0  0  0  3  0  0  0  0  0  0
  181.6460  177.1320  140.2200 C   0  0  0  0  0  3  0  0  0  0  0  0
  183.8470  177.1230  139.8870 N   0  0  0  0  0  0  0  0  0  0  0  0
  191.7660  175.0440  137.9680 S   0  0  0  0  0  0  0  0  0  0  0  0
  193.0930  176.2330  137.6110 C   0  0  1  0  0  3  0  0  0  0  0  0
  193.5310  176.8170  138.7990 O   0  0  0  0  0  1  0  0  0  0  0  0
  193.9570  174.1650  136.0760 O   0  0  0  0  0  1  0  0  0  0  0  0
  194.4790  175.3790  136.8100 P   0  0  1  0  0  0  0  0  0  0  0  0
  195.2250  176.4250  135.7090 O   0  0  0  0  0  0  0  0  0  0  0  0
  195.2930  173.5240  138.4230 C   0  0  0  0  0  1  0  0  0  0  0  0
  195.6350  174.8800  138.0310 N   0  0  0  0  0  2  0  0  0  0  0  0
  187.4500  178.8430  136.0010 C   0  0  0  0  0  2  0  0  0  0  0  0
  186.7960  178.2400  134.7680 C   0  0  0  0  0  2  0  0  0  0  0  0
  185.9290  176.2120  134.6750 C   0  0  0  0  0  1  0  0  0  0  0  0
  185.6690  177.5030  135.1350 O   0  0  0  0  0  0  0  0  0  0  0  0
  2 12  1  0  0  0  0
  3 25  1  0  0  0  0
  3  2  1  0  0  0  0
  4  6  1  0  0  0  0
  5  9  1  6  0  0  0
  5 17  1  0  0  0  0
  6 18  1  0  0  0  0
  7 17  1  0  0  0  0
  7  1  2  0  0  0  0
 10  2  2  0  0  0  0
 10 15  1  0  0  0  0
 11  9  1  6  0  0  0
 11  7  1  0  0  0  0
 12  4  2  0  0  0  0
 13 10  1  0  0  0  0
 14 16  1  0  0  0  0
 14 13  2  0  0  0  0
 15 19  2  0  0  0  0
 16  3  2  0  0  0  0
 17  8  1  0  0  0  0
 18  1  1  0  0  0  0
 19  4  1  0  0  0  0
 19 11  1  0  0  0  0
 20 21  1  0  0  0  0
 20  5  1  0  0  0  0
 22 24  2  0  0  0  0
 22 23  1  0  0  0  0
 23 21  2  0  0  0  0
 24 20  1  0  0  0  0
 26 25  1  0  0  0  0
 26 27  1  1  0  0  0
 28 29  1  0  0  0  0
 29 30  2  6  0  0  0
 29 26  1  0  0  0  0
 29 32  1  0  0  0  0
 32 31  1  0  0  0  0
 33 13  1  0  0  0  0
 34 36  1  0  0  0  0
 34 33  1  0  0  0  0
 35 36  1  0  0  0  0
M  END
>  <MODEL>
6

>  <REMARK>
 VINA RESULT:      -6.4      3.422      4.901
  Name = 
  8 active torsions:
  status: ('A' for Active; 'I' for Inactive)
    1  A    between atoms: S_1  and  C_4
    2  A    between atoms: S_1  and  C_8
    3  A    between atoms: C_4  and  P_32
    4  A    between atoms: C_10  and  C_13
    5  A    between atoms: C_10  and  C_26
    6  A    between atoms: C_11  and  N_15
    7  A    between atoms: C_13  and  O_23
    8  A    between atoms: N_21  and  P_32
                            x       y       z     vdW  Elec       q    Type
                         _______ _______ _______ _____ _____    ______ ____

>  <TORSDO>
F 8

$$$$
=
 OpenBabel11042411313D

 36 40  0  0  1  0  0  0  0  0999 V2000
  181.4700  178.8760  142.7720 N   0  0  0  0  0  0  0  0  0  0  0  0
  186.8550  177.9800  142.6040 C   0  0  0  0  0  0  0  0  0  0  0  0
  188.1170  177.5700  143.0660 C   0  0  0  0  0  0  0  0  0  0  0  0
  184.5230  178.5500  142.9980 C   0  0  0  0  0  0  0  0  0  0  0  0
  181.5660  178.3310  139.2390 C   0  0  2  0  0  3  0  0  0  0  0  0
  183.6150  178.8130  143.9450 C   0  0  0  0  0  2  0  0  0  0  0  0
  181.8380  178.6450  141.5520 C   0  0  0  0  0  0  0  0  0  0  0  0
  179.5010  178.0640  140.7380 C   0  0  0  0  0  1  0  0  0  0  0  0
  182.9950  178.8530  139.4900 C   0  0  0  0  0  2  0  0  0  0  0  0
  186.6770  178.2860  141.2440 C   0  0  0  0  0  0  0  0  0  0  0  0
  183.1540  178.8990  140.9840 C   0  0  2  0  0  3  0  0  0  0  0  0
  185.7680  178.1250  143.4660 C   0  0  0  0  0  3  0  0  0  0  0  0
  187.7670  178.1700  140.3660 C   0  0  0  0  0  0  0  0  0  0  0  0
  188.9740  177.7590  140.8400 N   0  0  0  0  0  0  0  0  0  0  0  0
  185.4480  178.6440  140.7880 N   0  0  0  0  0  0  0  0  0  0  0  0
  189.1670  177.4610  142.1520 C   0  0  0  0  0  3  0  0  0  0  0  0
  180.9310  178.2440  140.5460 N   0  0  0  0  0  0  0  0  0  0  0  0
  182.3240  179.5310  143.7450 C   0  0  0  0  0  2  0  0  0  0  0  0
  184.3520  178.7520  141.5940 C   0  0  0  0  0  0  0  0  0  0  0  0
  181.6200  177.0130  138.6190 N   0  0  0  0  0  0  0  0  0  0  0  0
  181.8140  176.7870  137.3120 C   0  0  0  0  0  3  0  0  0  0  0  0
  181.6320  174.8740  138.3830 C   0  0  0  0  0  3  0  0  0  0  0  0
  181.8250  175.4160  137.1200 C   0  0  0  0  0  3  0  0  0  0  0  0
  181.5130  175.8730  139.2770 N   0  0  0  0  0  0  0  0  0  0  0  0
  188.4210  177.1680  144.7900 S   0  0  0  0  0  0  0  0  0  0  0  0
  190.2190  177.0610  144.5480 C   0  0  1  0  0  3  0  0  0  0  0  0
  190.7010  178.2800  144.0710 O   0  0  0  0  0  1  0  0  0  0  0  0
  191.6600  177.9190  146.6860 O   0  0  0  0  0  0  0  0  0  0  0  0
  191.0250  176.6660  146.1250 P   0  0  1  0  0  0  0  0  0  0  0  0
  189.8720  176.0820  147.2170 O   0  0  0  0  0  1  0  0  0  0  0  0
  192.0320  174.8880  144.5350 C   0  0  0  0  0  1  0  0  0  0  0  0
  192.2580  175.4490  145.8560 N   0  0  0  0  0  2  0  0  0  0  0  0
  187.6170  178.4540  138.9050 C   0  0  0  0  0  2  0  0  0  0  0  0
  187.5800  177.1620  138.1050 C   0  0  0  0  0  2  0  0  0  0  0  0
  189.0800  178.0180  136.7310 C   0  0  0  0  0  1  0  0  0  0  0  0
  188.8320  176.9110  137.5410 O   0  0  0  0  0  0  0  0  0  0  0  0
  1 18  1  0  0  0  0
  2  3  1  0  0  0  0
  2 12  1  0  0  0  0
  3 25  1  0  0  0  0
  4 12  2  0  0  0  0
  4  6  1  0  0  0  0
  5 20  1  1  0  0  0
  5  9  1  0  0  0  0
  5 17  1  0  0  0  0
  7  1  2  0  0  0  0
 10  2  2  0  0  0  0
 11  9  1  6  0  0  0
 11  7  1  0  0  0  0
 11 19  1  0  0  0  0
 13 14  2  0  0  0  0
 13 10  1  0  0  0  0
 14 16  1  0  0  0  0
 15 10  1  0  0  0  0
 15 19  2  0  0  0  0
 16  3  2  0  0  0  0
 17  8  1  0  0  0  0
 17  7  1  0  0  0  0
 18  6  1  0  0  0  0
 19  4  1  0  0  0  0
 20 24  1  0  0  0  0
 21 20  1  0  0  0  0
 22 24  2  0  0  0  0
 23 21  2  0  0  0  0
 23 22  1  0  0  0  0
 26 27  1  1  0  0  0
 26 25  1  0  0  0  0
 26 29  1  0  0  0  0
 29 28  2  1  0  0  0
 29 30  1  0  0  0  0
 31 32  1  0  0  0  0
 32 29  1  0  0  0  0
 33 13  1  0  0  0  0
 34 33  1  0  0  0  0
 35 36  1  0  0  0  0
 36 34  1  0  0  0  0
M  END
>  <MODEL>
7

>  <REMARK>
 VINA RESULT:      -5.8      1.581      2.065
  Name = 
  8 active torsions:
  status: ('A' for Active; 'I' for Inactive)
    1  A    between atoms: S_1  and  C_4
    2  A    between atoms: S_1  and  C_8
    3  A    between atoms: C_4  and  P_32
    4  A    between atoms: C_10  and  C_13
    5  A    between atoms: C_10  and  C_26
    6  A    between atoms: C_11  and  N_15
    7  A    between atoms: C_13  and  O_23
    8  A    between atoms: N_21  and  P_32
                            x       y       z     vdW  Elec       q    Type
                         _______ _______ _______ _____ _____    ______ ____

>  <TORSDO>
F 8

$$$$
=
 OpenBabel11042411313D

 36 40  0  0  1  0  0  0  0  0999 V2000
  185.8340  178.3730  137.6470 N   0  0  0  0  0  0  0  0  0  0  0  0
  187.9670  177.6530  142.6220 C   0  0  0  0  0  0  0  0  0  0  0  0
  187.9930  177.3200  143.9870 C   0  0  0  0  0  0  0  0  0  0  0  0
  186.7550  178.1690  140.5770 C   0  0  0  0  0  0  0  0  0  0  0  0
  189.1110  177.5890  136.4500 C   0  0  2  0  0  3  0  0  0  0  0  0
  185.5510  178.4660  140.0740 C   0  0  0  0  0  2  0  0  0  0  0  0
  187.0890  178.0720  137.5460 C   0  0  0  0  0  0  0  0  0  0  0  0
  186.9340  177.3560  135.1120 C   0  0  0  0  0  1  0  0  0  0  0  0
  189.4420  178.1750  137.8360 C   0  0  0  0  0  2  0  0  0  0  0  0
  189.1740  177.8580  141.9320 C   0  0  0  0  0  0  0  0  0  0  0  0
  188.1220  178.3300  138.5380 C   0  0  2  0  0  3  0  0  0  0  0  0
  186.7680  177.8210  141.9290 C   0  0  0  0  0  3  0  0  0  0  0  0
  190.3900  177.7190  142.6220 C   0  0  0  0  0  0  0  0  0  0  0  0
  190.3840  177.3830  143.9390 N   0  0  0  0  0  0  0  0  0  0  0  0
  189.1520  178.1410  140.6040 N   0  0  0  0  0  0  0  0  0  0  0  0
  189.2270  177.1840  144.6250 C   0  0  0  0  0  3  0  0  0  0  0  0
  187.6580  177.5710  136.3540 N   0  0  0  0  0  0  0  0  0  0  0  0
  185.2880  179.1240  138.7620 C   0  0  0  0  0  2  0  0  0  0  0  0
  188.0000  178.2670  139.8830 C   0  0  0  0  0  0  0  0  0  0  0  0
  189.6370  176.2330  136.3450 N   0  0  0  0  0  0  0  0  0  0  0  0
  190.4010  175.7820  135.3400 C   0  0  0  0  0  3  0  0  0  0  0  0
  190.0960  174.1860  136.8210 C   0  0  0  0  0  3  0  0  0  0  0  0
  190.7150  174.4620  135.6110 C   0  0  0  0  0  3  0  0  0  0  0  0
  189.4480  175.2870  137.2460 N   0  0  0  0  0  0  0  0  0  0  0  0
  186.4910  177.0490  144.9340 S   0  0  0  0  0  0  0  0  0  0  0  0
  186.4070  178.7820  145.4780 C   0  0  1  0  0  3  0  0  0  0  0  0
  185.4180  179.4510  144.7580 O   0  0  0  0  0  1  0  0  0  0  0  0
  186.0820  180.2830  147.7180 O   0  0  0  0  0  1  0  0  0  0  0  0
  186.0170  178.8480  147.2490 P   0  0  1  0  0  0  0  0  0  0  0  0
  184.4590  178.2410  147.5060 O   0  0  0  0  0  0  0  0  0  0  0  0
  188.4530  178.5870  148.0880 C   0  0  0  0  0  1  0  0  0  0  0  0
  187.1830  177.8830  148.1340 N   0  0  0  0  0  2  0  0  0  0  0  0
  191.7000  177.8960  141.9210 C   0  0  0  0  0  2  0  0  0  0  0  0
  191.7200  177.1270  140.6100 C   0  0  0  0  0  2  0  0  0  0  0  0
  192.7400  176.7250  138.6950 C   0  0  0  0  0  1  0  0  0  0  0  0
  192.8360  177.4920  139.8560 O   0  0  0  0  0  0  0  0  0  0  0  0
  1 18  1  0  0  0  0
  2  3  2  0  0  0  0
  3 16  1  0  0  0  0
  3 25  1  0  0  0  0
  4 12  2  0  0  0  0
  5 20  1  1  0  0  0
  5  9  1  0  0  0  0
  6  4  1  0  0  0  0
  7  1  2  0  0  0  0
  7 11  1  0  0  0  0
  8 17  1  0  0  0  0
 10  2  1  0  0  0  0
 10 13  2  0  0  0  0
 11  9  1  6  0  0  0
 11 19  1  0  0  0  0
 12  2  1  0  0  0  0
 13 14  1  0  0  0  0
 14 16  2  0  0  0  0
 15 10  1  0  0  0  0
 17  5  1  0  0  0  0
 17  7  1  0  0  0  0
 18  6  1  0  0  0  0
 19  4  1  0  0  0  0
 19 15  2  0  0  0  0
 20 24  1  0  0  0  0
 21 23  2  0  0  0  0
 21 20  1  0  0  0  0
 22 24  2  0  0  0  0
 23 22  1  0  0  0  0
 25 26  1  0  0  0  0
 26 27  1  6  0  0  0
 26 29  1  0  0  0  0
 29 30  2  1  0  0  0
 29 28  1  0  0  0  0
 29 32  1  0  0  0  0
 31 32  1  0  0  0  0
 33 13  1  0  0  0  0
 34 33  1  0  0  0  0
 35 36  1  0  0  0  0
 36 34  1  0  0  0  0
M  END
>  <MODEL>
8

>  <REMARK>
 VINA RESULT:      -5.6      3.132      5.484
  Name = 
  8 active torsions:
  status: ('A' for Active; 'I' for Inactive)
    1  A    between atoms: S_1  and  C_4
    2  A    between atoms: S_1  and  C_8
    3  A    between atoms: C_4  and  P_32
    4  A    between atoms: C_10  and  C_13
    5  A    between atoms: C_10  and  C_26
    6  A    between atoms: C_11  and  N_15
    7  A    between atoms: C_13  and  O_23
    8  A    between atoms: N_21  and  P_32
                            x       y       z     vdW  Elec       q    Type
                         _______ _______ _______ _____ _____    ______ ____

>  <TORSDO>
F 8

$$$$
=
 OpenBabel11042411313D

 36 40  0  0  1  0  0  0  0  0999 V2000
  190.3380  174.3080  136.3130 N   0  0  0  0  0  0  0  0  0  0  0  0
  185.0180  175.2030  137.1600 C   0  0  0  0  0  0  0  0  0  0  0  0
  183.6580  174.8860  137.3190 C   0  0  0  0  0  0  0  0  0  0  0  0
  187.2800  174.6100  136.4890 C   0  0  0  0  0  0  0  0  0  0  0  0
  190.8490  177.2060  138.3450 C   0  0  2  0  0  3  0  0  0  0  0  0
  188.0170  173.6990  135.8440 C   0  0  0  0  0  2  0  0  0  0  0  0
  190.1830  175.3600  137.0500 C   0  0  0  0  0  0  0  0  0  0  0  0
  192.5630  175.3400  137.9430 C   0  0  0  0  0  1  0  0  0  0  0  0
  189.4560  177.5060  137.7570 C   0  0  0  0  0  2  0  0  0  0  0  0
  185.4750  176.4930  137.4800 C   0  0  0  0  0  0  0  0  0  0  0  0
  189.0270  176.2440  137.0630 C   0  0  2  0  0  3  0  0  0  0  0  0
  185.9340  174.2780  136.6590 C   0  0  0  0  0  3  0  0  0  0  0  0
  184.5600  177.4440  137.9600 C   0  0  0  0  0  0  0  0  0  0  0  0
  183.2530  177.1050  138.1160 N   0  0  0  0  0  0  0  0  0  0  0  0
  186.7960  176.7880  137.3640 N   0  0  0  0  0  0  0  0  0  0  0  0
  182.7910  175.8640  137.8100 C   0  0  0  0  0  3  0  0  0  0  0  0
  191.2180  175.8850  137.8560 N   0  0  0  0  0  0  0  0  0  0  0  0
  189.3860  173.9100  135.2930 C   0  0  0  0  0  2  0  0  0  0  0  0
  187.7280  175.8960  136.9210 C   0  0  0  0  0  0  0  0  0  0  0  0
  190.7840  177.2010  139.8010 N   0  0  0  0  0  0  0  0  0  0  0  0
  189.7030  176.8650  140.5200 C   0  0  0  0  0  3  0  0  0  0  0  0
  191.3690  177.3660  141.8650 C   0  0  0  0  0  3  0  0  0  0  0  0
  190.0420  176.9630  141.8590 C   0  0  0  0  0  3  0  0  0  0  0  0
  191.7950  177.5000  140.5950 N   0  0  0  0  0  0  0  0  0  0  0  0
  183.0020  173.2610  136.9260 S   0  0  0  0  0  0  0  0  0  0  0  0
  181.3590  173.9190  136.5110 C   0  0  1  0  0  3  0  0  0  0  0  0
  181.2460  174.0560  135.1280 O   0  0  0  0  0  1  0  0  0  0  0  0
  179.3100  172.2310  135.9360 O   0  0  0  0  0  0  0  0  0  0  0  0
  180.0770  172.7860  137.1140 P   0  0  1  0  0  0  0  0  0  0  0  0
  180.8020  171.5150  137.9640 O   0  0  0  0  0  1  0  0  0  0  0  0
  179.7530  174.1030  139.3200 C   0  0  0  0  0  1  0  0  0  0  0  0
  178.9840  173.6600  138.1710 N   0  0  0  0  0  2  0  0  0  0  0  0
  185.0060  178.8200  138.3440 C   0  0  0  0  0  2  0  0  0  0  0  0
  184.1680  179.3590  139.4920 C   0  0  0  0  0  2  0  0  0  0  0  0
  184.6170  178.7090  141.5530 C   0  0  0  0  0  1  0  0  0  0  0  0
  184.9830  179.6460  140.5880 O   0  0  0  0  0  0  0  0  0  0  0  0
  1  7  2  0  0  0  0
  2  3  2  0  0  0  0
  2 10  1  0  0  0  0
  3 16  1  0  0  0  0
  4 12  2  0  0  0  0
  4 19  1  0  0  0  0
  5  9  1  6  0  0  0
  5 20  1  0  0  0  0
  6  4  1  0  0  0  0
  7 11  1  0  0  0  0
  7 17  1  0  0  0  0
 10 13  2  0  0  0  0
 11  9  1  1  0  0  0
 12  2  1  0  0  0  0
 13 14  1  0  0  0  0
 13 33  1  0  0  0  0
 15 10  1  0  0  0  0
 16 14  2  0  0  0  0
 17  8  1  0  0  0  0
 17  5  1  0  0  0  0
 18  6  1  0  0  0  0
 18  1  1  0  0  0  0
 19 11  1  0  0  0  0
 19 15  2  0  0  0  0
 20 21  1  0  0  0  0
 20 24  1  0  0  0  0
 21 23  2  0  0  0  0
 23 22  1  0  0  0  0
 24 22  2  0  0  0  0
 25  3  1  0  0  0  0
 26 27  1  6  0  0  0
 26 25  1  0  0  0  0
 26 29  1  0  0  0  0
 29 28  2  6  0  0  0
 29 30  1  0  0  0  0
 29 32  1  0  0  0  0
 32 31  1  0  0  0  0
 33 34  1  0  0  0  0
 34 36  1  0  0  0  0
 36 35  1  0  0  0  0
M  END
>  <MODEL>
9

>  <REMARK>
 VINA RESULT:      -5.6      4.610      9.378
  Name = 
  8 active torsions:
  status: ('A' for Active; 'I' for Inactive)
    1  A    between atoms: S_1  and  C_4
    2  A    between atoms: S_1  and  C_8
    3  A    between atoms: C_4  and  P_32
    4  A    between atoms: C_10  and  C_13
    5  A    between atoms: C_10  and  C_26
    6  A    between atoms: C_11  and  N_15
    7  A    between atoms: C_13  and  O_23
    8  A    between atoms: N_21  and  P_32
                            x       y       z     vdW  Elec       q    Type
                         _______ _______ _______ _____ _____    ______ ____

>  <TORSDO>
F 8

$$$$
