=
 OpenBabel11032421183D

 52 55  0  0  1  0  0  0  0  0999 V2000
  187.2780  177.5640  142.0900 C   0  0  2  0  0  3  0  0  0  0  0  0
  188.3180  175.6480  143.1670 N   0  0  0  0  0  1  0  0  0  0  0  0
  183.5900  178.6910  142.3680 C   0  0  0  0  0  0  0  0  0  0  0  0
  184.9520  178.3050  141.9740 C   0  0  0  0  0  3  0  0  0  0  0  0
  183.9290  178.7600  144.8790 C   0  0  0  0  0  3  0  0  0  0  0  0
  187.3350  177.3490  144.5190 N   0  0  0  0  0  2  0  0  0  0  0  0
  185.1670  178.3270  145.1290 C   0  0  0  0  0  0  0  0  0  0  0  0
  186.0140  177.9920  142.7140 C   0  0  0  0  0  0  0  0  0  0  0  0
  183.1960  178.8990  143.6220 C   0  0  0  0  0  3  0  0  0  0  0  0
  186.0930  177.8750  144.1230 N   0  0  0  0  0  0  0  0  0  0  0  0
  188.0850  177.0760  143.2870 C   0  0  2  0  0  3  0  0  0  0  0  0
  183.1270  179.3060  140.0100 C   0  0  0  0  0  3  0  0  0  0  0  0
  182.6220  178.9430  141.2680 C   0  0  0  0  0  0  0  0  0  0  0  0
  180.8870  179.4600  139.0960 C   0  0  0  0  0  0  0  0  0  0  0  0
  181.2180  178.8220  141.4260 C   0  0  0  0  0  0  0  0  0  0  0  0
  180.3710  179.0840  140.3430 C   0  0  0  0  0  3  0  0  0  0  0  0
  182.2730  179.5610  138.9380 C   0  0  0  0  0  3  0  0  0  0  0  0
  180.1000  178.9690  136.7520 C   0  0  0  0  0  1  0  0  0  0  0  0
  180.0140  179.7290  137.9880 N   0  0  0  0  0  0  0  0  0  0  0  0
  179.0800  180.7040  138.0810 O   0  0  0  0  0  1  0  0  0  0  0  0
  179.3700  177.7620  142.4510 O   0  0  0  0  0  1  0  0  0  0  0  0
  180.5880  178.3910  142.7100 C   0  0  0  0  0  2  0  0  0  0  0  0
  186.5590  179.0370  146.9860 N   0  0  0  0  0  0  0  0  0  0  0  0
  185.6050  178.2850  146.5390 C   0  0  0  0  0  3  0  0  0  0  0  0
  186.9350  178.9610  148.3040 O   0  0  0  0  0  0  0  0  0  0  0  0
  187.8070  177.9260  148.7330 C   0  0  0  0  0  2  0  0  0  0  0  0
  189.1730  178.0680  148.0760 C   0  0  1  0  0  3  0  0  0  0  0  0
  190.0860  178.6060  148.9850 O   0  0  0  0  0  1  0  0  0  0  0  0
  189.6890  176.7320  147.5580 C   0  0  0  0  0  2  0  0  0  0  0  0
  191.0630  176.8340  147.2010 O   0  0  0  0  0  0  0  0  0  0  0  0
  190.8940  178.4880  144.8100 C   0  0  0  0  0  2  0  0  0  0  0  0
  191.5540  176.3480  145.9860 C   0  0  0  0  0  0  0  0  0  0  0  0
  191.7570  177.9330  142.6000 C   0  0  0  0  0  2  0  0  0  0  0  0
  190.8860  178.9270  143.3570 C   0  0  0  0  0  2  0  0  0  0  0  0
  191.4660  177.1600  144.8100 N   0  0  0  0  0  0  0  0  0  0  0  0
  192.0800  175.2030  145.9210 O   0  0  0  0  0  0  0  0  0  0  0  0
  191.9280  176.7300  143.5080 C   0  0  0  0  0  2  0  0  0  0  0  0
  188.0010  178.7420  141.4530 C   0  0  0  0  0  2  0  0  0  0  0  0
  188.7750  178.2930  140.3010 N   0  0  0  0  0  2  0  0  0  0  0  0
  186.9290  178.1170  138.8380 C   0  0  0  0  0  3  0  0  0  0  0  0
  188.2090  178.0990  139.0310 N   0  0  0  0  0  0  0  0  0  0  0  0
  186.3650  177.9050  137.4690 C   0  0  2  0  0  3  0  0  0  0  0  0
  186.0990  176.4590  137.1510 C   0  0  0  0  0  0  0  0  0  0  0  0
  187.0440  175.6360  137.2750 O   0  0  0  0  0  0  0  0  0  0  0  0
  184.8240  175.9790  136.7070 N   0  0  0  0  0  2  0  0  0  0  0  0
  183.6310  176.8000  136.5880 C   0  0  0  0  0  2  0  0  0  0  0  0
  182.4780  176.1420  137.3230 C   0  0  0  0  0  2  0  0  0  0  0  0
  182.8590  175.8750  138.7680 C   0  0  0  0  0  2  0  0  0  0  0  0
  181.6150  175.6680  139.6110 C   0  0  0  0  0  1  0  0  0  0  0  0
  187.6130  179.7460  136.5620 O   0  0  0  0  0  0  0  0  0  0  0  0
  187.1670  178.5790  136.4000 C   0  0  0  0  0  0  0  0  0  0  0  0
  187.4550  177.8790  135.1970 N   0  0  0  0  0  1  0  0  0  0  0  0
  1 38  1  1  0  0  0
  1  8  1  0  0  0  0
  1 11  1  0  0  0  0
  3  9  2  0  0  0  0
  4  3  1  0  0  0  0
  4  8  2  0  0  0  0
  5  7  2  0  0  0  0
  7 24  1  0  0  0  0
  8 10  1  0  0  0  0
  9  5  1  0  0  0  0
 10  6  1  0  0  0  0
 10  7  1  0  0  0  0
 11  2  1  6  0  0  0
 11  6  1  0  0  0  0
 12 13  1  0  0  0  0
 13 15  2  0  0  0  0
 13  3  1  0  0  0  0
 14 16  2  0  0  0  0
 15 22  1  0  0  0  0
 16 15  1  0  0  0  0
 17 14  1  0  0  0  0
 17 12  2  0  0  0  0
 18 19  1  0  0  0  0
 19 20  1  0  0  0  0
 19 14  1  0  0  0  0
 21 22  1  0  0  0  0
 23 25  1  0  0  0  0
 24 23  2  0  0  0  0
 25 26  1  0  0  0  0
 27 26  1  0  0  0  0
 27 28  1  1  0  0  0
 29 27  1  0  0  0  0
 30 29  1  0  0  0  0
 32 30  1  0  0  0  0
 33 34  1  0  0  0  0
 33 37  1  0  0  0  0
 34 31  1  0  0  0  0
 35 31  1  0  0  0  0
 35 32  1  0  0  0  0
 36 32  2  0  0  0  0
 37 35  1  0  0  0  0
 39 38  1  0  0  0  0
 40 41  2  0  0  0  0
 41 39  1  0  0  0  0
 42 40  1  1  0  0  0
 43 44  2  0  0  0  0
 43 42  1  0  0  0  0
 45 43  1  0  0  0  0
 46 45  1  0  0  0  0
 46 47  1  0  0  0  0
 47 48  1  0  0  0  0
 48 49  1  0  0  0  0
 51 50  2  0  0  0  0
 51 42  1  0  0  0  0
 52 51  1  0  0  0  0
M  END
>  <MODEL>
1

>  <REMARK>
 VINA RESULT:      -7.3      0.000      0.000
  Name = 
  19 active torsions:
  status: ('A' for Active; 'I' for Inactive)
    1  A    between atoms: C_2  and  C_16
    2  A    between atoms: C_4  and  C_18
    3  A    between atoms: N_7  and  C_21
    4  A    between atoms: C_8  and  C_14
    5  A    between atoms: C_11  and  C_16
    6  A    between atoms: C_13  and  C_17
    7  A    between atoms: C_13  and  C_36
    8  A    between atoms: C_16  and  C_35
    9  A    between atoms: C_17  and  O_46
   10  A    between atoms: C_18  and  N_42
   11  A    between atoms: C_20  and  O_43
   12  A    between atoms: C_24  and  C_40
   13  A    between atoms: N_26  and  N_42
   14  A    between atoms: C_28  and  C_34
   15  A    between atoms: C_28  and  C_51
   16  A    between atoms: C_31  and  C_41
   17  A    between atoms: C_36  and  O_43
   18  A    between atoms: N_38  and  O_46
   19  A    between atoms: N_47  and  C_51
                            x       y       z     vdW  Elec       q    Type
                         _______ _______ _______ _____ _____    ______ ____

>  <TORSDO>
F 19

$$$$
=
 OpenBabel11032421183D

 52 55  0  0  1  0  0  0  0  0999 V2000
  186.9890  177.5930  142.1490 C   0  0  2  0  0  3  0  0  0  0  0  0
  188.1380  175.7230  143.1950 N   0  0  0  0  0  1  0  0  0  0  0  0
  183.3000  178.6420  142.6300 C   0  0  0  0  0  0  0  0  0  0  0  0
  184.6440  178.2800  142.1600 C   0  0  0  0  0  3  0  0  0  0  0  0
  183.7880  178.7680  145.1140 C   0  0  0  0  0  3  0  0  0  0  0  0
  187.1980  177.4280  144.5740 N   0  0  0  0  0  2  0  0  0  0  0  0
  185.0480  178.3690  145.2960 C   0  0  0  0  0  0  0  0  0  0  0  0
  185.7560  178.0050  142.8400 C   0  0  0  0  0  0  0  0  0  0  0  0
  182.9770  178.8660  143.9010 C   0  0  0  0  0  3  0  0  0  0  0  0
  185.9230  177.9180  144.2440 N   0  0  0  0  0  0  0  0  0  0  0  0
  187.8780  177.1480  143.3030 C   0  0  2  0  0  3  0  0  0  0  0  0
  182.6830  179.1090  140.2720 C   0  0  0  0  0  3  0  0  0  0  0  0
  182.2610  178.8500  141.5860 C   0  0  0  0  0  0  0  0  0  0  0  0
  180.3870  179.2750  139.5110 C   0  0  0  0  0  0  0  0  0  0  0  0
  180.8700  178.7890  141.8510 C   0  0  0  0  0  0  0  0  0  0  0  0
  179.9540  179.0040  140.8150 C   0  0  0  0  0  3  0  0  0  0  0  0
  181.7600  179.3190  139.2480 C   0  0  0  0  0  3  0  0  0  0  0  0
  178.9530  180.8290  138.1390 C   0  0  0  0  0  1  0  0  0  0  0  0
  179.4440  179.4970  138.4520 N   0  0  0  0  0  0  0  0  0  0  0  0
  178.9960  178.4560  137.7120 O   0  0  0  0  0  1  0  0  0  0  0  0
  178.9310  178.5510  143.1830 O   0  0  0  0  0  1  0  0  0  0  0  0
  180.3230  178.4690  143.2040 C   0  0  0  0  0  2  0  0  0  0  0  0
  186.6490  179.0010  147.0070 N   0  0  0  0  0  0  0  0  0  0  0  0
  185.5720  178.3640  146.6770 C   0  0  0  0  0  3  0  0  0  0  0  0
  187.1000  178.9660  148.3040 O   0  0  0  0  0  0  0  0  0  0  0  0
  187.9620  177.9200  148.7250 C   0  0  0  0  0  2  0  0  0  0  0  0
  189.3320  178.0610  148.0760 C   0  0  1  0  0  3  0  0  0  0  0  0
  190.2460  178.5770  148.9970 O   0  0  0  0  0  1  0  0  0  0  0  0
  189.8400  176.7280  147.5400 C   0  0  0  0  0  2  0  0  0  0  0  0
  191.1770  176.8570  147.0720 O   0  0  0  0  0  0  0  0  0  0  0  0
  190.9190  178.4250  144.6320 C   0  0  0  0  0  2  0  0  0  0  0  0
  191.5950  176.3160  145.8530 C   0  0  0  0  0  0  0  0  0  0  0  0
  191.6550  177.7690  142.4030 C   0  0  0  0  0  2  0  0  0  0  0  0
  190.8450  178.8100  143.1660 C   0  0  0  0  0  2  0  0  0  0  0  0
  191.4630  177.0850  144.6540 N   0  0  0  0  0  0  0  0  0  0  0  0
  192.0920  175.1570  145.8050 O   0  0  0  0  0  0  0  0  0  0  0  0
  191.8480  176.5970  143.3470 C   0  0  0  0  0  2  0  0  0  0  0  0
  187.6450  178.7750  141.4480 C   0  0  0  0  0  2  0  0  0  0  0  0
  187.3540  178.7360  140.0200 N   0  0  0  0  0  2  0  0  0  0  0  0
  188.7060  177.3130  138.7060 C   0  0  0  0  0  3  0  0  0  0  0  0
  188.3400  178.5070  139.0460 N   0  0  0  0  0  0  0  0  0  0  0  0
  189.7610  177.1100  137.6650 C   0  0  2  0  0  3  0  0  0  0  0  0
  189.2020  176.8080  136.3010 C   0  0  0  0  0  0  0  0  0  0  0  0
  189.7850  177.2930  135.2960 O   0  0  0  0  0  0  0  0  0  0  0  0
  188.0350  176.0020  136.0970 N   0  0  0  0  0  2  0  0  0  0  0  0
  187.3070  175.3240  137.1560 C   0  0  0  0  0  2  0  0  0  0  0  0
  185.8260  175.3010  136.8300 C   0  0  0  0  0  2  0  0  0  0  0  0
  185.3520  176.6890  136.4370 C   0  0  0  0  0  2  0  0  0  0  0  0
  185.0250  177.5040  137.6750 C   0  0  0  0  0  1  0  0  0  0  0  0
  190.5380  174.8900  138.1470 O   0  0  0  0  0  0  0  0  0  0  0  0
  190.8030  176.1190  138.0790 C   0  0  0  0  0  0  0  0  0  0  0  0
  192.1200  176.5700  138.3690 N   0  0  0  0  0  1  0  0  0  0  0  0
  1 38  1  1  0  0  0
  1  8  1  0  0  0  0
  1 11  1  0  0  0  0
  3  9  2  0  0  0  0
  4  3  1  0  0  0  0
  4  8  2  0  0  0  0
  5  7  2  0  0  0  0
  7 24  1  0  0  0  0
  8 10  1  0  0  0  0
  9  5  1  0  0  0  0
 10  6  1  0  0  0  0
 10  7  1  0  0  0  0
 11  2  1  6  0  0  0
 11  6  1  0  0  0  0
 12 13  1  0  0  0  0
 13 15  2  0  0  0  0
 13  3  1  0  0  0  0
 14 16  2  0  0  0  0
 15 22  1  0  0  0  0
 16 15  1  0  0  0  0
 17 14  1  0  0  0  0
 17 12  2  0  0  0  0
 18 19  1  0  0  0  0
 19 14  1  0  0  0  0
 20 19  1  0  0  0  0
 21 22  1  0  0  0  0
 23 25  1  0  0  0  0
 24 23  2  0  0  0  0
 25 26  1  0  0  0  0
 27 26  1  0  0  0  0
 27 28  1  1  0  0  0
 29 27  1  0  0  0  0
 30 29  1  0  0  0  0
 31 35  1  0  0  0  0
 32 30  1  0  0  0  0
 33 34  1  0  0  0  0
 33 37  1  0  0  0  0
 34 31  1  0  0  0  0
 35 32  1  0  0  0  0
 36 32  2  0  0  0  0
 37 35  1  0  0  0  0
 39 38  1  0  0  0  0
 40 41  2  0  0  0  0
 41 39  1  0  0  0  0
 42 51  1  0  0  0  0
 42 40  1  1  0  0  0
 43 42  1  0  0  0  0
 44 43  2  0  0  0  0
 45 43  1  0  0  0  0
 45 46  1  0  0  0  0
 47 46  1  0  0  0  0
 48 47  1  0  0  0  0
 48 49  1  0  0  0  0
 51 50  2  0  0  0  0
 51 52  1  0  0  0  0
M  END
>  <MODEL>
2

>  <REMARK>
 VINA RESULT:      -7.1      1.499      2.062
  Name = 
  19 active torsions:
  status: ('A' for Active; 'I' for Inactive)
    1  A    between atoms: C_2  and  C_16
    2  A    between atoms: C_4  and  C_18
    3  A    between atoms: N_7  and  C_21
    4  A    between atoms: C_8  and  C_14
    5  A    between atoms: C_11  and  C_16
    6  A    between atoms: C_13  and  C_17
    7  A    between atoms: C_13  and  C_36
    8  A    between atoms: C_16  and  C_35
    9  A    between atoms: C_17  and  O_46
   10  A    between atoms: C_18  and  N_42
   11  A    between atoms: C_20  and  O_43
   12  A    between atoms: C_24  and  C_40
   13  A    between atoms: N_26  and  N_42
   14  A    between atoms: C_28  and  C_34
   15  A    between atoms: C_28  and  C_51
   16  A    between atoms: C_31  and  C_41
   17  A    between atoms: C_36  and  O_43
   18  A    between atoms: N_38  and  O_46
   19  A    between atoms: N_47  and  C_51
                            x       y       z     vdW  Elec       q    Type
                         _______ _______ _______ _____ _____    ______ ____

>  <TORSDO>
F 19

$$$$
=
 OpenBabel11032421183D

 52 55  0  0  1  0  0  0  0  0999 V2000
  188.6180  178.0190  139.1200 C   0  0  2  0  0  3  0  0  0  0  0  0
  188.6970  179.7000  137.3650 N   0  0  0  0  0  1  0  0  0  0  0  0
  186.6170  178.1740  142.4230 C   0  0  0  0  0  0  0  0  0  0  0  0
  187.5990  178.0270  141.3410 C   0  0  0  0  0  3  0  0  0  0  0  0
  184.5450  178.5330  141.0080 C   0  0  0  0  0  3  0  0  0  0  0  0
  186.6020  178.7110  137.9330 N   0  0  0  0  0  2  0  0  0  0  0  0
  184.9370  178.6030  139.7340 C   0  0  0  0  0  0  0  0  0  0  0  0
  187.4600  178.1440  140.0210 C   0  0  0  0  0  0  0  0  0  0  0  0
  185.3120  178.3670  142.2410 C   0  0  0  0  0  3  0  0  0  0  0  0
  186.3060  178.5250  139.2940 N   0  0  0  0  0  0  0  0  0  0  0  0
  188.0430  178.4730  137.7840 C   0  0  2  0  0  3  0  0  0  0  0  0
  188.4280  177.5260  143.9890 C   0  0  0  0  0  3  0  0  0  0  0  0
  187.1220  178.0090  143.8120 C   0  0  0  0  0  0  0  0  0  0  0  0
  188.2000  177.6400  146.4000 C   0  0  0  0  0  0  0  0  0  0  0  0
  186.3550  178.3270  144.9620 C   0  0  0  0  0  0  0  0  0  0  0  0
  186.9010  178.1360  146.2360 C   0  0  0  0  0  3  0  0  0  0  0  0
  188.9610  177.3440  145.2650 C   0  0  0  0  0  3  0  0  0  0  0  0
  187.9930  177.7510  148.9100 C   0  0  0  0  0  1  0  0  0  0  0  0
  188.7550  177.4450  147.7100 N   0  0  0  0  0  0  0  0  0  0  0  0
  190.0100  176.9590  147.8510 O   0  0  0  0  0  1  0  0  0  0  0  0
  184.3770  178.8730  146.1350 O   0  0  0  0  0  1  0  0  0  0  0  0
  184.9760  178.8950  144.8750 C   0  0  0  0  0  2  0  0  0  0  0  0
  182.7750  178.1520  138.7270 N   0  0  0  0  0  0  0  0  0  0  0  0
  183.8930  178.8030  138.7070 C   0  0  0  0  0  3  0  0  0  0  0  0
  181.8350  178.3690  137.7490 O   0  0  0  0  0  0  0  0  0  0  0  0
  180.8370  177.3920  137.4980 C   0  0  0  0  0  2  0  0  0  0  0  0
  180.7380  176.4150  138.6620 C   0  0  1  0  0  3  0  0  0  0  0  0
  179.5620  176.6440  139.3780 O   0  0  0  0  0  1  0  0  0  0  0  0
  180.7750  174.9680  138.1850 C   0  0  0  0  0  2  0  0  0  0  0  0
  181.7390  174.8090  137.1510 O   0  0  0  0  0  0  0  0  0  0  0  0
  184.5900  175.4000  137.1130 C   0  0  0  0  0  2  0  0  0  0  0  0
  182.6650  173.7620  137.1500 C   0  0  0  0  0  0  0  0  0  0  0  0
  186.4080  173.7800  137.2070 C   0  0  0  0  0  2  0  0  0  0  0  0
  186.0930  175.2500  136.9600 C   0  0  0  0  0  2  0  0  0  0  0  0
  184.0650  174.0530  137.1260 N   0  0  0  0  0  0  0  0  0  0  0  0
  182.2720  172.5630  137.1770 O   0  0  0  0  0  0  0  0  0  0  0  0
  185.0920  173.0330  137.1010 C   0  0  0  0  0  2  0  0  0  0  0  0
  189.0640  176.5680  138.9990 C   0  0  0  0  0  2  0  0  0  0  0  0
  189.4910  176.2870  137.6330 N   0  0  0  0  0  2  0  0  0  0  0  0
  191.4850  175.0390  137.8490 C   0  0  0  0  0  3  0  0  0  0  0  0
  190.8240  176.0040  137.2950 N   0  0  0  0  0  0  0  0  0  0  0  0
  192.9040  174.7700  137.4610 C   0  0  2  0  0  3  0  0  0  0  0  0
  193.9000  175.6000  138.2260 C   0  0  0  0  0  0  0  0  0  0  0  0
  193.6140  176.8010  138.4690 O   0  0  0  0  0  0  0  0  0  0  0  0
  195.1570  175.0860  138.6820 N   0  0  0  0  0  2  0  0  0  0  0  0
  195.5850  173.7040  138.5350 C   0  0  0  0  0  2  0  0  0  0  0  0
  196.4610  173.5660  137.3050 C   0  0  0  0  0  2  0  0  0  0  0  0
  197.6050  174.5620  137.3580 C   0  0  0  0  0  2  0  0  0  0  0  0
  198.5400  174.3540  136.1820 C   0  0  0  0  0  1  0  0  0  0  0  0
  193.3880  175.9430  135.4210 O   0  0  0  0  0  0  0  0  0  0  0  0
  193.1260  174.8460  135.9820 C   0  0  0  0  0  0  0  0  0  0  0  0
  193.0710  173.6560  135.2060 N   0  0  0  0  0  1  0  0  0  0  0  0
  1 38  1  6  0  0  0
  1  8  1  0  0  0  0
  3 13  1  0  0  0  0
  4  3  1  0  0  0  0
  5  9  1  0  0  0  0
  6 10  1  0  0  0  0
  7  5  2  0  0  0  0
  8  4  2  0  0  0  0
  9  3  2  0  0  0  0
 10  7  1  0  0  0  0
 10  8  1  0  0  0  0
 11  2  1  1  0  0  0
 11  6  1  0  0  0  0
 11  1  1  0  0  0  0
 12 17  1  0  0  0  0
 13 12  2  0  0  0  0
 13 15  1  0  0  0  0
 14 19  1  0  0  0  0
 15 16  2  0  0  0  0
 16 14  1  0  0  0  0
 17 14  2  0  0  0  0
 19 20  1  0  0  0  0
 19 18  1  0  0  0  0
 22 15  1  0  0  0  0
 22 21  1  0  0  0  0
 24 23  2  0  0  0  0
 24  7  1  0  0  0  0
 25 23  1  0  0  0  0
 26 25  1  0  0  0  0
 26 27  1  0  0  0  0
 27 28  1  6  0  0  0
 29 27  1  0  0  0  0
 30 29  1  0  0  0  0
 31 35  1  0  0  0  0
 32 30  1  0  0  0  0
 32 36  2  0  0  0  0
 34 31  1  0  0  0  0
 34 33  1  0  0  0  0
 35 32  1  0  0  0  0
 37 35  1  0  0  0  0
 37 33  1  0  0  0  0
 39 38  1  0  0  0  0
 41 39  1  0  0  0  0
 41 40  2  0  0  0  0
 42 40  1  6  0  0  0
 42 43  1  0  0  0  0
 43 44  2  0  0  0  0
 43 45  1  0  0  0  0
 46 45  1  0  0  0  0
 47 48  1  0  0  0  0
 47 46  1  0  0  0  0
 49 48  1  0  0  0  0
 50 51  2  0  0  0  0
 51 42  1  0  0  0  0
 52 51  1  0  0  0  0
M  END
>  <MODEL>
3

>  <REMARK>
 VINA RESULT:      -6.9      4.074      9.511
  Name = 
  19 active torsions:
  status: ('A' for Active; 'I' for Inactive)
    1  A    between atoms: C_2  and  C_16
    2  A    between atoms: C_4  and  C_18
    3  A    between atoms: N_7  and  C_21
    4  A    between atoms: C_8  and  C_14
    5  A    between atoms: C_11  and  C_16
    6  A    between atoms: C_13  and  C_17
    7  A    between atoms: C_13  and  C_36
    8  A    between atoms: C_16  and  C_35
    9  A    between atoms: C_17  and  O_46
   10  A    between atoms: C_18  and  N_42
   11  A    between atoms: C_20  and  O_43
   12  A    between atoms: C_24  and  C_40
   13  A    between atoms: N_26  and  N_42
   14  A    between atoms: C_28  and  C_34
   15  A    between atoms: C_28  and  C_51
   16  A    between atoms: C_31  and  C_41
   17  A    between atoms: C_36  and  O_43
   18  A    between atoms: N_38  and  O_46
   19  A    between atoms: N_47  and  C_51
                            x       y       z     vdW  Elec       q    Type
                         _______ _______ _______ _____ _____    ______ ____

>  <TORSDO>
F 19

$$$$
=
 OpenBabel11032421183D

 52 55  0  0  1  0  0  0  0  0999 V2000
  189.9160  177.1050  142.1890 C   0  0  2  0  0  3  0  0  0  0  0  0
  188.0580  176.3730  143.5760 N   0  0  0  0  0  1  0  0  0  0  0  0
  190.3910  176.4990  138.4010 C   0  0  0  0  0  0  0  0  0  0  0  0
  190.4920  176.6450  139.8590 C   0  0  0  0  0  3  0  0  0  0  0  0
  188.1330  177.6000  138.0660 C   0  0  0  0  0  3  0  0  0  0  0  0
  187.6290  177.8190  141.7280 N   0  0  0  0  0  2  0  0  0  0  0  0
  187.6410  177.8810  139.2740 C   0  0  0  0  0  0  0  0  0  0  0  0
  189.6200  177.1200  140.7460 C   0  0  0  0  0  0  0  0  0  0  0  0
  189.3760  176.9420  137.6640 C   0  0  0  0  0  3  0  0  0  0  0  0
  188.2930  177.5610  140.5170 N   0  0  0  0  0  0  0  0  0  0  0  0
  188.5740  177.4880  142.8020 C   0  0  2  0  0  3  0  0  0  0  0  0
  192.7690  176.5920  137.6980 C   0  0  0  0  0  3  0  0  0  0  0  0
  191.5550  175.8860  137.7080 C   0  0  0  0  0  0  0  0  0  0  0  0
  193.8420  174.8360  136.4170 C   0  0  0  0  0  0  0  0  0  0  0  0
  191.5030  174.6210  137.0690 C   0  0  0  0  0  0  0  0  0  0  0  0
  192.6410  174.1160  136.4310 C   0  0  0  0  0  3  0  0  0  0  0  0
  193.8970  176.0750  137.0620 C   0  0  0  0  0  3  0  0  0  0  0  0
  196.1770  175.1420  135.5180 C   0  0  0  0  0  1  0  0  0  0  0  0
  195.0070  174.3140  135.7600 N   0  0  0  0  0  0  0  0  0  0  0  0
  195.0380  173.0220  135.3560 O   0  0  0  0  0  1  0  0  0  0  0  0
  189.6120  173.8970  135.8470 O   0  0  0  0  0  1  0  0  0  0  0  0
  190.2730  173.7720  137.0690 C   0  0  0  0  0  2  0  0  0  0  0  0
  185.4880  178.5130  138.3490 N   0  0  0  0  0  0  0  0  0  0  0  0
  186.3220  178.5430  139.3380 C   0  0  0  0  0  3  0  0  0  0  0  0
  184.2740  179.1470  138.4530 O   0  0  0  0  0  0  0  0  0  0  0  0
  183.0880  178.4710  138.0650 C   0  0  0  0  0  2  0  0  0  0  0  0
  182.0240  178.5890  139.1470 C   0  0  1  0  0  3  0  0  0  0  0  0
  182.5450  179.2570  140.2570 O   0  0  0  0  0  1  0  0  0  0  0  0
  180.7870  179.3210  138.6420 C   0  0  0  0  0  2  0  0  0  0  0  0
  181.1310  180.6220  138.1830 O   0  0  0  0  0  0  0  0  0  0  0  0
  181.3080  183.4620  137.5630 C   0  0  0  0  0  2  0  0  0  0  0  0
  180.7900  181.0760  136.9050 C   0  0  0  0  0  0  0  0  0  0  0  0
  180.8740  184.5040  135.4020 C   0  0  0  0  0  2  0  0  0  0  0  0
  181.1240  184.8030  136.8750 C   0  0  0  0  0  2  0  0  0  0  0  0
  180.8730  182.4720  136.6030 N   0  0  0  0  0  0  0  0  0  0  0  0
  180.4170  180.2610  136.0170 O   0  0  0  0  0  0  0  0  0  0  0  0
  180.5190  183.0320  135.3160 C   0  0  0  0  0  2  0  0  0  0  0  0
  190.9440  178.1690  142.5480 C   0  0  0  0  0  2  0  0  0  0  0  0
  191.8040  177.6920  143.6260 N   0  0  0  0  0  2  0  0  0  0  0  0
  190.6460  177.6590  145.6850 C   0  0  0  0  0  3  0  0  0  0  0  0
  191.3070  177.0350  144.7630 N   0  0  0  0  0  0  0  0  0  0  0  0
  190.1340  176.9230  146.8820 C   0  0  2  0  0  3  0  0  0  0  0  0
  189.3420  177.7910  147.8220 C   0  0  0  0  0  0  0  0  0  0  0  0
  189.9430  178.3210  148.7930 O   0  0  0  0  0  0  0  0  0  0  0  0
  187.9390  178.0330  147.6660 N   0  0  0  0  0  2  0  0  0  0  0  0
  187.1370  177.5450  146.5570 C   0  0  0  0  0  2  0  0  0  0  0  0
  186.0050  178.5140  146.2740 C   0  0  0  0  0  2  0  0  0  0  0  0
  185.4460  178.2800  144.8830 C   0  0  0  0  0  2  0  0  0  0  0  0
  184.4520  179.3690  144.5240 C   0  0  0  0  0  1  0  0  0  0  0  0
  191.1200  174.9030  147.7300 O   0  0  0  0  0  0  0  0  0  0  0  0
  191.2030  176.1520  147.5910 C   0  0  0  0  0  0  0  0  0  0  0  0
  192.3450  176.8380  148.0880 N   0  0  0  0  0  1  0  0  0  0  0  0
  1 38  1  6  0  0  0
  1 11  1  0  0  0  0
  3  4  1  0  0  0  0
  4  8  2  0  0  0  0
  5  7  2  0  0  0  0
  6 11  1  0  0  0  0
  7 24  1  0  0  0  0
  7 10  1  0  0  0  0
  8  1  1  0  0  0  0
  9  5  1  0  0  0  0
  9  3  2  0  0  0  0
 10  8  1  0  0  0  0
 10  6  1  0  0  0  0
 11  2  1  6  0  0  0
 12 13  1  0  0  0  0
 13  3  1  0  0  0  0
 14 16  2  0  0  0  0
 14 17  1  0  0  0  0
 15 22  1  0  0  0  0
 15 13  2  0  0  0  0
 16 15  1  0  0  0  0
 17 12  2  0  0  0  0
 18 19  1  0  0  0  0
 19 14  1  0  0  0  0
 20 19  1  0  0  0  0
 21 22  1  0  0  0  0
 23 25  1  0  0  0  0
 23 24  2  0  0  0  0
 26 25  1  0  0  0  0
 26 27  1  0  0  0  0
 27 28  1  1  0  0  0
 29 27  1  0  0  0  0
 30 29  1  0  0  0  0
 32 30  1  0  0  0  0
 33 34  1  0  0  0  0
 34 31  1  0  0  0  0
 35 32  1  0  0  0  0
 35 31  1  0  0  0  0
 36 32  2  0  0  0  0
 37 33  1  0  0  0  0
 37 35  1  0  0  0  0
 38 39  1  0  0  0  0
 39 41  1  0  0  0  0
 41 40  2  0  0  0  0
 42 40  1  6  0  0  0
 42 51  1  0  0  0  0
 42 43  1  0  0  0  0
 43 44  2  0  0  0  0
 45 43  1  0  0  0  0
 46 45  1  0  0  0  0
 47 46  1  0  0  0  0
 48 47  1  0  0  0  0
 49 48  1  0  0  0  0
 51 50  2  0  0  0  0
 51 52  1  0  0  0  0
M  END
>  <MODEL>
4

>  <REMARK>
 VINA RESULT:      -6.9      3.778     11.024
  Name = 
  19 active torsions:
  status: ('A' for Active; 'I' for Inactive)
    1  A    between atoms: C_2  and  C_16
    2  A    between atoms: C_4  and  C_18
    3  A    between atoms: N_7  and  C_21
    4  A    between atoms: C_8  and  C_14
    5  A    between atoms: C_11  and  C_16
    6  A    between atoms: C_13  and  C_17
    7  A    between atoms: C_13  and  C_36
    8  A    between atoms: C_16  and  C_35
    9  A    between atoms: C_17  and  O_46
   10  A    between atoms: C_18  and  N_42
   11  A    between atoms: C_20  and  O_43
   12  A    between atoms: C_24  and  C_40
   13  A    between atoms: N_26  and  N_42
   14  A    between atoms: C_28  and  C_34
   15  A    between atoms: C_28  and  C_51
   16  A    between atoms: C_31  and  C_41
   17  A    between atoms: C_36  and  O_43
   18  A    between atoms: N_38  and  O_46
   19  A    between atoms: N_47  and  C_51
                            x       y       z     vdW  Elec       q    Type
                         _______ _______ _______ _____ _____    ______ ____

>  <TORSDO>
F 19

$$$$
=
 OpenBabel11032421183D

 52 55  0  0  1  0  0  0  0  0999 V2000
  187.2570  177.5960  142.0440 C   0  0  2  0  0  3  0  0  0  0  0  0
  188.3570  175.6760  143.0520 N   0  0  0  0  0  1  0  0  0  0  0  0
  183.5670  178.6680  142.4640 C   0  0  0  0  0  0  0  0  0  0  0  0
  184.9200  178.3080  142.0180 C   0  0  0  0  0  3  0  0  0  0  0  0
  183.9880  178.6990  144.9630 C   0  0  0  0  0  3  0  0  0  0  0  0
  187.3970  177.3400  144.4660 N   0  0  0  0  0  2  0  0  0  0  0  0
  185.2390  178.2790  145.1640 C   0  0  0  0  0  0  0  0  0  0  0  0
  186.0090  177.9960  142.7170 C   0  0  0  0  0  0  0  0  0  0  0  0
  183.2110  178.8500  143.7330 C   0  0  0  0  0  3  0  0  0  0  0  0
  186.1370  177.8560  144.1210 N   0  0  0  0  0  0  0  0  0  0  0  0
  188.1090  177.0980  143.2050 C   0  0  2  0  0  3  0  0  0  0  0  0
  183.0140  179.1060  140.0850 C   0  0  0  0  0  3  0  0  0  0  0  0
  182.5590  178.9260  141.4010 C   0  0  0  0  0  0  0  0  0  0  0  0
  180.7470  179.4340  139.2900 C   0  0  0  0  0  0  0  0  0  0  0  0
  181.1640  178.9870  141.6500 C   0  0  0  0  0  0  0  0  0  0  0  0
  180.2800  179.2420  140.5960 C   0  0  0  0  0  3  0  0  0  0  0  0
  182.1220  179.3570  139.0430 C   0  0  0  0  0  3  0  0  0  0  0  0
  179.5600  178.6990  137.1910 C   0  0  0  0  0  1  0  0  0  0  0  0
  179.8360  179.6970  138.2120 N   0  0  0  0  0  0  0  0  0  0  0  0
  179.2050  180.8910  138.1320 O   0  0  0  0  0  1  0  0  0  0  0  0
  179.7890  179.8470  143.3700 O   0  0  0  0  0  1  0  0  0  0  0  0
  180.5800  178.7570  143.0060 C   0  0  0  0  0  2  0  0  0  0  0  0
  186.6480  179.0090  147.0000 N   0  0  0  0  0  0  0  0  0  0  0  0
  185.7240  178.2180  146.5580 C   0  0  0  0  0  3  0  0  0  0  0  0
  187.0710  178.9140  148.3030 O   0  0  0  0  0  0  0  0  0  0  0  0
  187.9250  177.8500  148.6940 C   0  0  0  0  0  2  0  0  0  0  0  0
  189.3060  178.0160  148.0770 C   0  0  1  0  0  3  0  0  0  0  0  0
  190.1890  178.5490  149.0180 O   0  0  0  0  0  1  0  0  0  0  0  0
  189.8510  176.6930  147.5540 C   0  0  0  0  0  2  0  0  0  0  0  0
  191.1800  176.8570  147.0740 O   0  0  0  0  0  0  0  0  0  0  0  0
  191.0130  178.4850  144.6660 C   0  0  0  0  0  2  0  0  0  0  0  0
  191.6000  176.3300  145.8490 C   0  0  0  0  0  0  0  0  0  0  0  0
  191.7640  177.8550  142.4340 C   0  0  0  0  0  2  0  0  0  0  0  0
  190.9750  178.9050  143.2070 C   0  0  0  0  0  2  0  0  0  0  0  0
  191.5130  177.1290  144.6660 N   0  0  0  0  0  0  0  0  0  0  0  0
  192.0620  175.1570  145.7830 O   0  0  0  0  0  0  0  0  0  0  0  0
  191.9040  176.6580  143.3550 C   0  0  0  0  0  2  0  0  0  0  0  0
  187.9440  178.7940  141.4050 C   0  0  0  0  0  2  0  0  0  0  0  0
  187.7520  178.7710  139.9590 N   0  0  0  0  0  2  0  0  0  0  0  0
  187.9930  177.6810  137.8780 C   0  0  0  0  0  3  0  0  0  0  0  0
  188.0270  177.6420  139.1720 N   0  0  0  0  0  0  0  0  0  0  0  0
  188.2930  176.4550  137.0740 C   0  0  2  0  0  3  0  0  0  0  0  0
  188.7870  176.7590  135.6860 C   0  0  0  0  0  0  0  0  0  0  0  0
  188.1640  177.6150  135.0040 O   0  0  0  0  0  0  0  0  0  0  0  0
  189.9260  176.1140  135.1040 N   0  0  0  0  0  2  0  0  0  0  0  0
  190.7780  175.1630  135.7990 C   0  0  0  0  0  2  0  0  0  0  0  0
  191.9190  175.8960  136.4800 C   0  0  0  0  0  2  0  0  0  0  0  0
  192.0030  175.4960  137.9420 C   0  0  0  0  0  2  0  0  0  0  0  0
  191.5530  176.6430  138.8280 C   0  0  0  0  0  1  0  0  0  0  0  0
  185.9660  175.8620  137.1290 O   0  0  0  0  0  0  0  0  0  0  0  0
  187.1620  175.4740  137.0680 C   0  0  0  0  0  0  0  0  0  0  0  0
  187.4440  174.0840  136.9610 N   0  0  0  0  0  1  0  0  0  0  0  0
  1 38  1  1  0  0  0
  1  8  1  0  0  0  0
  1 11  1  0  0  0  0
  3  9  2  0  0  0  0
  4  3  1  0  0  0  0
  4  8  2  0  0  0  0
  5  7  2  0  0  0  0
  7 24  1  0  0  0  0
  8 10  1  0  0  0  0
  9  5  1  0  0  0  0
 10  6  1  0  0  0  0
 10  7  1  0  0  0  0
 11  2  1  6  0  0  0
 11  6  1  0  0  0  0
 12 13  1  0  0  0  0
 13 15  2  0  0  0  0
 13  3  1  0  0  0  0
 14 16  2  0  0  0  0
 15 22  1  0  0  0  0
 16 15  1  0  0  0  0
 17 14  1  0  0  0  0
 17 12  2  0  0  0  0
 18 19  1  0  0  0  0
 19 14  1  0  0  0  0
 20 19  1  0  0  0  0
 22 21  1  0  0  0  0
 23 25  1  0  0  0  0
 24 23  2  0  0  0  0
 25 26  1  0  0  0  0
 27 26  1  0  0  0  0
 27 28  1  1  0  0  0
 29 27  1  0  0  0  0
 30 29  1  0  0  0  0
 31 35  1  0  0  0  0
 32 30  1  0  0  0  0
 33 34  1  0  0  0  0
 33 37  1  0  0  0  0
 34 31  1  0  0  0  0
 35 32  1  0  0  0  0
 36 32  2  0  0  0  0
 37 35  1  0  0  0  0
 39 38  1  0  0  0  0
 40 41  2  0  0  0  0
 41 39  1  0  0  0  0
 42 40  1  6  0  0  0
 43 42  1  0  0  0  0
 44 43  2  0  0  0  0
 45 43  1  0  0  0  0
 45 46  1  0  0  0  0
 46 47  1  0  0  0  0
 47 48  1  0  0  0  0
 48 49  1  0  0  0  0
 51 42  1  0  0  0  0
 51 50  2  0  0  0  0
 52 51  1  0  0  0  0
M  END
>  <MODEL>
5

>  <REMARK>
 VINA RESULT:      -6.8      1.705      2.909
  Name = 
  19 active torsions:
  status: ('A' for Active; 'I' for Inactive)
    1  A    between atoms: C_2  and  C_16
    2  A    between atoms: C_4  and  C_18
    3  A    between atoms: N_7  and  C_21
    4  A    between atoms: C_8  and  C_14
    5  A    between atoms: C_11  and  C_16
    6  A    between atoms: C_13  and  C_17
    7  A    between atoms: C_13  and  C_36
    8  A    between atoms: C_16  and  C_35
    9  A    between atoms: C_17  and  O_46
   10  A    between atoms: C_18  and  N_42
   11  A    between atoms: C_20  and  O_43
   12  A    between atoms: C_24  and  C_40
   13  A    between atoms: N_26  and  N_42
   14  A    between atoms: C_28  and  C_34
   15  A    between atoms: C_28  and  C_51
   16  A    between atoms: C_31  and  C_41
   17  A    between atoms: C_36  and  O_43
   18  A    between atoms: N_38  and  O_46
   19  A    between atoms: N_47  and  C_51
                            x       y       z     vdW  Elec       q    Type
                         _______ _______ _______ _____ _____    ______ ____

>  <TORSDO>
F 19

$$$$
=
 OpenBabel11032421183D

 52 55  0  0  1  0  0  0  0  0999 V2000
  189.3060  177.7400  139.3330 C   0  0  2  0  0  3  0  0  0  0  0  0
  189.0280  179.5460  137.7300 N   0  0  0  0  0  1  0  0  0  0  0  0
  188.2930  177.7440  143.0640 C   0  0  0  0  0  0  0  0  0  0  0  0
  188.9310  177.6290  141.7460 C   0  0  0  0  0  3  0  0  0  0  0  0
  185.9470  178.3220  142.2990 C   0  0  0  0  0  3  0  0  0  0  0  0
  187.1000  178.6300  138.7930 N   0  0  0  0  0  2  0  0  0  0  0  0
  185.9820  178.4710  140.9730 C   0  0  0  0  0  0  0  0  0  0  0  0
  188.4490  177.8560  140.5250 C   0  0  0  0  0  0  0  0  0  0  0  0
  187.0060  178.0190  143.2610 C   0  0  0  0  0  3  0  0  0  0  0  0
  187.1710  178.3530  140.1690 N   0  0  0  0  0  0  0  0  0  0  0  0
  188.4250  178.3270  138.2380 C   0  0  2  0  0  3  0  0  0  0  0  0
  190.4900  177.1130  144.0290 C   0  0  0  0  0  3  0  0  0  0  0  0
  189.1430  177.4440  144.2470 C   0  0  0  0  0  0  0  0  0  0  0  0
  190.8640  176.8430  146.4090 C   0  0  0  0  0  0  0  0  0  0  0  0
  188.6640  177.4880  145.5800 C   0  0  0  0  0  0  0  0  0  0  0  0
  189.5260  177.1850  146.6400 C   0  0  0  0  0  3  0  0  0  0  0  0
  191.3400  176.8160  145.0940 C   0  0  0  0  0  3  0  0  0  0  0  0
  192.4260  175.2490  147.5820 C   0  0  0  0  0  1  0  0  0  0  0  0
  191.7440  176.5310  147.4990 N   0  0  0  0  0  0  0  0  0  0  0  0
  191.9620  177.4400  148.4780 O   0  0  0  0  0  1  0  0  0  0  0  0
  187.1320  178.0280  147.2980 O   0  0  0  0  0  1  0  0  0  0  0  0
  187.2620  177.8800  145.9170 C   0  0  0  0  0  2  0  0  0  0  0  0
  183.6020  178.2150  140.5750 N   0  0  0  0  0  0  0  0  0  0  0  0
  184.7170  178.8060  140.2890 C   0  0  0  0  0  3  0  0  0  0  0  0
  182.4510  178.5570  139.9090 O   0  0  0  0  0  0  0  0  0  0  0  0
  181.8660  177.6450  138.9920 C   0  0  0  0  0  2  0  0  0  0  0  0
  180.4230  177.3490  139.3760 C   0  0  1  0  0  3  0  0  0  0  0  0
  180.3680  176.2170  140.1910 O   0  0  0  0  0  1  0  0  0  0  0  0
  179.7790  178.5290  140.0910 C   0  0  0  0  0  2  0  0  0  0  0  0
  179.3410  179.5030  139.1510 O   0  0  0  0  0  0  0  0  0  0  0  0
  179.8910  180.8130  136.6090 C   0  0  0  0  0  2  0  0  0  0  0  0
  179.8490  180.8060  139.1370 C   0  0  0  0  0  0  0  0  0  0  0  0
  180.6780  183.0980  136.2960 C   0  0  0  0  0  2  0  0  0  0  0  0
  180.4300  181.7810  135.5710 C   0  0  0  0  0  2  0  0  0  0  0  0
  180.1240  181.4470  137.8880 N   0  0  0  0  0  0  0  0  0  0  0  0
  180.0600  181.4200  140.2190 O   0  0  0  0  0  0  0  0  0  0  0  0
  180.6700  182.7820  137.7790 C   0  0  0  0  0  2  0  0  0  0  0  0
  189.5950  176.2810  139.0070 C   0  0  0  0  0  2  0  0  0  0  0  0
  189.7790  176.1150  137.5700 N   0  0  0  0  0  2  0  0  0  0  0  0
  188.4070  174.2750  137.0130 C   0  0  0  0  0  3  0  0  0  0  0  0
  188.8420  175.4660  136.7510 N   0  0  0  0  0  0  0  0  0  0  0  0
  187.4080  173.6170  136.1150 C   0  0  2  0  0  3  0  0  0  0  0  0
  186.0680  173.4060  136.7670 C   0  0  0  0  0  0  0  0  0  0  0  0
  186.0410  172.9910  137.9550 O   0  0  0  0  0  0  0  0  0  0  0  0
  184.8270  173.6490  136.0940 N   0  0  0  0  0  2  0  0  0  0  0  0
  184.7100  174.1950  134.7520 C   0  0  0  0  0  2  0  0  0  0  0  0
  183.9970  175.5320  134.8010 C   0  0  0  0  0  2  0  0  0  0  0  0
  184.9810  176.6420  135.1250 C   0  0  0  0  0  2  0  0  0  0  0  0
  184.7840  177.1200  136.5520 C   0  0  0  0  0  1  0  0  0  0  0  0
  189.1050  172.3070  135.0310 O   0  0  0  0  0  0  0  0  0  0  0  0
  187.9310  172.3640  135.4840 C   0  0  0  0  0  0  0  0  0  0  0  0
  187.0990  171.2130  135.4240 N   0  0  0  0  0  1  0  0  0  0  0  0
  1 38  1  6  0  0  0
  1  8  1  0  0  0  0
  3  9  2  0  0  0  0
  3 13  1  0  0  0  0
  4  3  1  0  0  0  0
  5  9  1  0  0  0  0
  6 10  1  0  0  0  0
  7  5  2  0  0  0  0
  8  4  2  0  0  0  0
 10  8  1  0  0  0  0
 10  7  1  0  0  0  0
 11  2  1  1  0  0  0
 11  6  1  0  0  0  0
 11  1  1  0  0  0  0
 12 13  2  0  0  0  0
 12 17  1  0  0  0  0
 13 15  1  0  0  0  0
 14 16  1  0  0  0  0
 14 19  1  0  0  0  0
 15 22  1  0  0  0  0
 15 16  2  0  0  0  0
 17 14  2  0  0  0  0
 19 18  1  0  0  0  0
 19 20  1  0  0  0  0
 22 21  1  0  0  0  0
 24 23  2  0  0  0  0
 24  7  1  0  0  0  0
 25 23  1  0  0  0  0
 26 27  1  0  0  0  0
 26 25  1  0  0  0  0
 27 29  1  0  0  0  0
 27 28  1  1  0  0  0
 30 29  1  0  0  0  0
 31 35  1  0  0  0  0
 32 30  1  0  0  0  0
 32 36  2  0  0  0  0
 33 37  1  0  0  0  0
 34 33  1  0  0  0  0
 34 31  1  0  0  0  0
 35 32  1  0  0  0  0
 37 35  1  0  0  0  0
 39 38  1  0  0  0  0
 41 40  2  0  0  0  0
 41 39  1  0  0  0  0
 42 43  1  0  0  0  0
 42 40  1  1  0  0  0
 43 44  2  0  0  0  0
 45 43  1  0  0  0  0
 46 47  1  0  0  0  0
 46 45  1  0  0  0  0
 47 48  1  0  0  0  0
 48 49  1  0  0  0  0
 50 51  2  0  0  0  0
 51 42  1  0  0  0  0
 52 51  1  0  0  0  0
M  END
>  <MODEL>
6

>  <REMARK>
 VINA RESULT:      -6.6      2.559      9.286
  Name = 
  19 active torsions:
  status: ('A' for Active; 'I' for Inactive)
    1  A    between atoms: C_2  and  C_16
    2  A    between atoms: C_4  and  C_18
    3  A    between atoms: N_7  and  C_21
    4  A    between atoms: C_8  and  C_14
    5  A    between atoms: C_11  and  C_16
    6  A    between atoms: C_13  and  C_17
    7  A    between atoms: C_13  and  C_36
    8  A    between atoms: C_16  and  C_35
    9  A    between atoms: C_17  and  O_46
   10  A    between atoms: C_18  and  N_42
   11  A    between atoms: C_20  and  O_43
   12  A    between atoms: C_24  and  C_40
   13  A    between atoms: N_26  and  N_42
   14  A    between atoms: C_28  and  C_34
   15  A    between atoms: C_28  and  C_51
   16  A    between atoms: C_31  and  C_41
   17  A    between atoms: C_36  and  O_43
   18  A    between atoms: N_38  and  O_46
   19  A    between atoms: N_47  and  C_51
                            x       y       z     vdW  Elec       q    Type
                         _______ _______ _______ _____ _____    ______ ____

>  <TORSDO>
F 19

$$$$
=
 OpenBabel11032421183D

 52 55  0  0  1  0  0  0  0  0999 V2000
  188.9070  177.7820  138.8650 C   0  0  2  0  0  3  0  0  0  0  0  0
  188.6780  179.5760  137.2400 N   0  0  0  0  0  1  0  0  0  0  0  0
  187.9050  177.8610  142.5980 C   0  0  0  0  0  0  0  0  0  0  0  0
  188.5360  177.7110  141.2790 C   0  0  0  0  0  3  0  0  0  0  0  0
  185.5750  178.5000  141.8320 C   0  0  0  0  0  3  0  0  0  0  0  0
  186.7260  178.7310  138.3200 N   0  0  0  0  0  2  0  0  0  0  0  0
  185.6110  178.6320  140.5050 C   0  0  0  0  0  0  0  0  0  0  0  0
  188.0570  177.9390  140.0580 C   0  0  0  0  0  0  0  0  0  0  0  0
  186.6280  178.1780  142.7950 C   0  0  0  0  0  3  0  0  0  0  0  0
  186.7930  178.4690  139.6990 N   0  0  0  0  0  0  0  0  0  0  0  0
  188.0400  178.3820  137.7650 C   0  0  2  0  0  3  0  0  0  0  0  0
  188.2230  177.8070  145.0580 C   0  0  0  0  0  3  0  0  0  0  0  0
  188.7500  177.5500  143.7820 C   0  0  0  0  0  0  0  0  0  0  0  0
  190.2550  177.0140  146.1150 C   0  0  0  0  0  0  0  0  0  0  0  0
  190.0510  176.9980  143.6860 C   0  0  0  0  0  0  0  0  0  0  0  0
  190.7860  176.7400  144.8480 C   0  0  0  0  0  3  0  0  0  0  0  0
  188.9640  177.5430  146.2090 C   0  0  0  0  0  3  0  0  0  0  0  0
  192.0230  175.7050  147.3450 C   0  0  0  0  0  1  0  0  0  0  0  0
  191.0130  176.7500  147.3050 N   0  0  0  0  0  0  0  0  0  0  0  0
  190.8020  177.4840  148.4220 O   0  0  0  0  0  1  0  0  0  0  0  0
  191.9370  177.2340  142.2790 O   0  0  0  0  0  1  0  0  0  0  0  0
  190.6780  176.6420  142.3760 C   0  0  0  0  0  2  0  0  0  0  0  0
  183.2360  178.3930  140.0660 N   0  0  0  0  0  0  0  0  0  0  0  0
  184.3540  178.9960  139.8190 C   0  0  0  0  0  3  0  0  0  0  0  0
  182.0930  178.7630  139.4010 O   0  0  0  0  0  0  0  0  0  0  0  0
  180.8220  178.4540  139.9520 C   0  0  0  0  0  2  0  0  0  0  0  0
  180.1560  179.7070  140.5020 C   0  0  1  0  0  3  0  0  0  0  0  0
  180.4620  179.8560  141.8550 O   0  0  0  0  0  1  0  0  0  0  0  0
  180.5850  180.9530  139.7380 C   0  0  0  0  0  2  0  0  0  0  0  0
  179.7530  181.1530  138.6020 O   0  0  0  0  0  0  0  0  0  0  0  0
  179.8590  183.8830  137.5950 C   0  0  0  0  0  2  0  0  0  0  0  0
  180.2760  181.4030  137.3300 C   0  0  0  0  0  0  0  0  0  0  0  0
  180.8060  184.6080  135.4690 C   0  0  0  0  0  2  0  0  0  0  0  0
  179.9720  185.0720  136.6570 C   0  0  0  0  0  2  0  0  0  0  0  0
  180.3230  182.7440  136.8340 N   0  0  0  0  0  0  0  0  0  0  0  0
  180.7120  180.4550  136.6210 O   0  0  0  0  0  0  0  0  0  0  0  0
  180.8260  183.0920  135.5230 C   0  0  0  0  0  2  0  0  0  0  0  0
  189.1510  176.3120  138.5550 C   0  0  0  0  0  2  0  0  0  0  0  0
  189.1200  176.0910  137.1140 N   0  0  0  0  0  2  0  0  0  0  0  0
  187.5520  174.3260  137.0150 C   0  0  0  0  0  3  0  0  0  0  0  0
  188.0990  175.3680  136.4760 N   0  0  0  0  0  0  0  0  0  0  0  0
  186.4670  173.5840  136.3020 C   0  0  2  0  0  3  0  0  0  0  0  0
  185.2420  173.3620  137.1470 C   0  0  0  0  0  0  0  0  0  0  0  0
  185.3980  173.0020  138.3430 O   0  0  0  0  0  0  0  0  0  0  0  0
  183.9090  173.5340  136.6490 N   0  0  0  0  0  2  0  0  0  0  0  0
  183.5830  174.0130  135.3170 C   0  0  0  0  0  2  0  0  0  0  0  0
  183.2740  175.4980  135.3650 C   0  0  0  0  0  2  0  0  0  0  0  0
  181.7800  175.7200  135.5160 C   0  0  0  0  0  2  0  0  0  0  0  0
  181.4970  176.5840  136.7310 C   0  0  0  0  0  1  0  0  0  0  0  0
  186.1840  171.3270  135.5300 O   0  0  0  0  0  0  0  0  0  0  0  0
  186.9500  172.3180  135.6660 C   0  0  0  0  0  0  0  0  0  0  0  0
  188.2850  172.2440  135.1830 N   0  0  0  0  0  1  0  0  0  0  0  0
  1 38  1  6  0  0  0
  1  8  1  0  0  0  0
  3  9  2  0  0  0  0
  3 13  1  0  0  0  0
  4  3  1  0  0  0  0
  5  9  1  0  0  0  0
  6 10  1  0  0  0  0
  7  5  2  0  0  0  0
  8  4  2  0  0  0  0
 10  8  1  0  0  0  0
 10  7  1  0  0  0  0
 11  2  1  1  0  0  0
 11  6  1  0  0  0  0
 11  1  1  0  0  0  0
 12 17  1  0  0  0  0
 13 12  2  0  0  0  0
 14 17  2  0  0  0  0
 14 19  1  0  0  0  0
 15 13  1  0  0  0  0
 15 16  2  0  0  0  0
 16 14  1  0  0  0  0
 19 18  1  0  0  0  0
 19 20  1  0  0  0  0
 21 22  1  0  0  0  0
 22 15  1  0  0  0  0
 24 23  2  0  0  0  0
 24  7  1  0  0  0  0
 25 26  1  0  0  0  0
 25 23  1  0  0  0  0
 26 27  1  0  0  0  0
 27 28  1  1  0  0  0
 29 27  1  0  0  0  0
 30 29  1  0  0  0  0
 32 30  1  0  0  0  0
 33 37  1  0  0  0  0
 33 34  1  0  0  0  0
 34 31  1  0  0  0  0
 35 32  1  0  0  0  0
 35 31  1  0  0  0  0
 36 32  2  0  0  0  0
 37 35  1  0  0  0  0
 39 38  1  0  0  0  0
 41 40  2  0  0  0  0
 41 39  1  0  0  0  0
 42 40  1  1  0  0  0
 42 43  1  0  0  0  0
 43 44  2  0  0  0  0
 45 43  1  0  0  0  0
 46 47  1  0  0  0  0
 46 45  1  0  0  0  0
 47 48  1  0  0  0  0
 48 49  1  0  0  0  0
 50 51  2  0  0  0  0
 51 42  1  0  0  0  0
 52 51  1  0  0  0  0
M  END
>  <MODEL>
7

>  <REMARK>
 VINA RESULT:      -6.6      2.804      9.453
  Name = 
  19 active torsions:
  status: ('A' for Active; 'I' for Inactive)
    1  A    between atoms: C_2  and  C_16
    2  A    between atoms: C_4  and  C_18
    3  A    between atoms: N_7  and  C_21
    4  A    between atoms: C_8  and  C_14
    5  A    between atoms: C_11  and  C_16
    6  A    between atoms: C_13  and  C_17
    7  A    between atoms: C_13  and  C_36
    8  A    between atoms: C_16  and  C_35
    9  A    between atoms: C_17  and  O_46
   10  A    between atoms: C_18  and  N_42
   11  A    between atoms: C_20  and  O_43
   12  A    between atoms: C_24  and  C_40
   13  A    between atoms: N_26  and  N_42
   14  A    between atoms: C_28  and  C_34
   15  A    between atoms: C_28  and  C_51
   16  A    between atoms: C_31  and  C_41
   17  A    between atoms: C_36  and  O_43
   18  A    between atoms: N_38  and  O_46
   19  A    between atoms: N_47  and  C_51
                            x       y       z     vdW  Elec       q    Type
                         _______ _______ _______ _____ _____    ______ ____

>  <TORSDO>
F 19

$$$$
=
 OpenBabel11032421183D

 52 55  0  0  1  0  0  0  0  0999 V2000
  188.7970  177.5900  138.6920 C   0  0  2  0  0  3  0  0  0  0  0  0
  188.8420  179.2170  136.8850 N   0  0  0  0  0  1  0  0  0  0  0  0
  187.4220  178.1010  142.2690 C   0  0  0  0  0  0  0  0  0  0  0  0
  188.1750  177.7860  141.0470 C   0  0  0  0  0  3  0  0  0  0  0  0
  185.2250  178.7690  141.1970 C   0  0  0  0  0  3  0  0  0  0  0  0
  186.7440  178.5820  137.8240 N   0  0  0  0  0  2  0  0  0  0  0  0
  185.4050  178.7620  139.8740 C   0  0  0  0  0  0  0  0  0  0  0  0
  187.8390  177.9090  139.7650 C   0  0  0  0  0  0  0  0  0  0  0  0
  186.1520  178.4970  142.2940 C   0  0  0  0  0  3  0  0  0  0  0  0
  186.6520  178.4610  139.2210 N   0  0  0  0  0  0  0  0  0  0  0  0
  188.0850  178.1150  137.4510 C   0  0  2  0  0  3  0  0  0  0  0  0
  187.3390  177.7260  144.7200 C   0  0  0  0  0  3  0  0  0  0  0  0
  188.1200  177.8730  143.5620 C   0  0  0  0  0  0  0  0  0  0  0  0
  189.3230  177.4450  146.0850 C   0  0  0  0  0  0  0  0  0  0  0  0
  189.5300  177.7850  143.6800 C   0  0  0  0  0  0  0  0  0  0  0  0
  190.1110  177.5760  144.9360 C   0  0  0  0  0  3  0  0  0  0  0  0
  187.9310  177.5150  145.9650 C   0  0  0  0  0  3  0  0  0  0  0  0
  191.0920  176.3820  147.5320 C   0  0  0  0  0  1  0  0  0  0  0  0
  189.9240  177.2330  147.3720 N   0  0  0  0  0  0  0  0  0  0  0  0
  189.4110  177.8350  148.4700 O   0  0  0  0  0  1  0  0  0  0  0  0
  191.6960  177.3650  142.8320 O   0  0  0  0  0  1  0  0  0  0  0  0
  190.4420  177.8770  142.5000 C   0  0  0  0  0  2  0  0  0  0  0  0
  183.1010  179.4390  139.5250 N   0  0  0  0  0  0  0  0  0  0  0  0
  184.2490  179.1130  139.0240 C   0  0  0  0  0  3  0  0  0  0  0  0
  182.0530  179.7550  138.6950 O   0  0  0  0  0  0  0  0  0  0  0  0
  180.7250  179.7360  139.1940 C   0  0  0  0  0  2  0  0  0  0  0  0
  180.7110  179.3710  140.6710 C   0  0  1  0  0  3  0  0  0  0  0  0
  180.3400  180.4800  141.4330 O   0  0  0  0  0  1  0  0  0  0  0  0
  179.7640  178.2120  140.9560 C   0  0  0  0  0  2  0  0  0  0  0  0
  180.4590  176.9730  140.8890 O   0  0  0  0  0  0  0  0  0  0  0  0
  181.1350  175.4510  138.5000 C   0  0  0  0  0  2  0  0  0  0  0  0
  179.8050  175.7660  140.6280 C   0  0  0  0  0  0  0  0  0  0  0  0
  180.2280  173.2810  137.8590 C   0  0  0  0  0  2  0  0  0  0  0  0
  181.0700  174.4490  137.3610 C   0  0  0  0  0  2  0  0  0  0  0  0
  180.1340  175.0210  139.4510 N   0  0  0  0  0  0  0  0  0  0  0  0
  178.9330  175.3260  141.4260 O   0  0  0  0  0  0  0  0  0  0  0  0
  179.4930  173.7740  139.0910 C   0  0  0  0  0  2  0  0  0  0  0  0
  188.9850  176.0860  138.5550 C   0  0  0  0  0  2  0  0  0  0  0  0
  189.3530  175.7490  137.1840 N   0  0  0  0  0  2  0  0  0  0  0  0
  191.5130  174.8820  137.5850 C   0  0  0  0  0  3  0  0  0  0  0  0
  190.6730  175.4700  136.7960 N   0  0  0  0  0  0  0  0  0  0  0  0
  192.9110  174.6030  137.1340 C   0  0  2  0  0  3  0  0  0  0  0  0
  193.9470  175.4140  137.8640 C   0  0  0  0  0  0  0  0  0  0  0  0
  193.7600  176.6530  137.9840 O   0  0  0  0  0  0  0  0  0  0  0  0
  195.1370  174.8410  138.4210 N   0  0  0  0  0  2  0  0  0  0  0  0
  195.4460  173.4210  138.4200 C   0  0  0  0  0  2  0  0  0  0  0  0
  195.9780  173.0120  137.0590 C   0  0  0  0  0  2  0  0  0  0  0  0
  197.2500  172.1990  137.2150 C   0  0  0  0  0  2  0  0  0  0  0  0
  196.9330  170.7160  137.2000 C   0  0  0  0  0  1  0  0  0  0  0  0
  192.6390  173.7820  134.8930 O   0  0  0  0  0  0  0  0  0  0  0  0
  193.0710  174.6930  135.6480 C   0  0  0  0  0  0  0  0  0  0  0  0
  193.6920  175.8390  135.0800 N   0  0  0  0  0  1  0  0  0  0  0  0
  1 38  1  6  0  0  0
  1  8  1  0  0  0  0
  3  9  2  0  0  0  0
  3 13  1  0  0  0  0
  4  3  1  0  0  0  0
  5  9  1  0  0  0  0
  6 10  1  0  0  0  0
  7  5  2  0  0  0  0
  8  4  2  0  0  0  0
 10  8  1  0  0  0  0
 10  7  1  0  0  0  0
 11  2  1  1  0  0  0
 11  6  1  0  0  0  0
 11  1  1  0  0  0  0
 12 17  1  0  0  0  0
 13 15  1  0  0  0  0
 13 12  2  0  0  0  0
 14 19  1  0  0  0  0
 15 16  2  0  0  0  0
 16 14  1  0  0  0  0
 17 14  2  0  0  0  0
 19 18  1  0  0  0  0
 19 20  1  0  0  0  0
 22 21  1  0  0  0  0
 22 15  1  0  0  0  0
 24 23  2  0  0  0  0
 24  7  1  0  0  0  0
 25 26  1  0  0  0  0
 25 23  1  0  0  0  0
 26 27  1  0  0  0  0
 27 29  1  0  0  0  0
 27 28  1  1  0  0  0
 30 29  1  0  0  0  0
 31 35  1  0  0  0  0
 32 30  1  0  0  0  0
 32 36  2  0  0  0  0
 33 37  1  0  0  0  0
 34 33  1  0  0  0  0
 34 31  1  0  0  0  0
 35 32  1  0  0  0  0
 37 35  1  0  0  0  0
 39 38  1  0  0  0  0
 41 39  1  0  0  0  0
 41 40  2  0  0  0  0
 42 40  1  6  0  0  0
 42 43  1  0  0  0  0
 43 44  2  0  0  0  0
 43 45  1  0  0  0  0
 46 45  1  0  0  0  0
 47 48  1  0  0  0  0
 47 46  1  0  0  0  0
 49 48  1  0  0  0  0
 50 51  2  0  0  0  0
 51 42  1  0  0  0  0
 52 51  1  0  0  0  0
M  END
>  <MODEL>
8

>  <REMARK>
 VINA RESULT:      -6.5      4.079      9.954
  Name = 
  19 active torsions:
  status: ('A' for Active; 'I' for Inactive)
    1  A    between atoms: C_2  and  C_16
    2  A    between atoms: C_4  and  C_18
    3  A    between atoms: N_7  and  C_21
    4  A    between atoms: C_8  and  C_14
    5  A    between atoms: C_11  and  C_16
    6  A    between atoms: C_13  and  C_17
    7  A    between atoms: C_13  and  C_36
    8  A    between atoms: C_16  and  C_35
    9  A    between atoms: C_17  and  O_46
   10  A    between atoms: C_18  and  N_42
   11  A    between atoms: C_20  and  O_43
   12  A    between atoms: C_24  and  C_40
   13  A    between atoms: N_26  and  N_42
   14  A    between atoms: C_28  and  C_34
   15  A    between atoms: C_28  and  C_51
   16  A    between atoms: C_31  and  C_41
   17  A    between atoms: C_36  and  O_43
   18  A    between atoms: N_38  and  O_46
   19  A    between atoms: N_47  and  C_51
                            x       y       z     vdW  Elec       q    Type
                         _______ _______ _______ _____ _____    ______ ____

>  <TORSDO>
F 19

$$$$
=
 OpenBabel11032421183D

 52 55  0  0  1  0  0  0  0  0999 V2000
  187.1930  177.8110  141.6330 C   0  0  2  0  0  3  0  0  0  0  0  0
  188.1670  176.0760  143.0310 N   0  0  0  0  0  1  0  0  0  0  0  0
  183.4410  178.6340  141.1960 C   0  0  0  0  0  0  0  0  0  0  0  0
  184.8750  178.3400  141.0680 C   0  0  0  0  0  3  0  0  0  0  0  0
  183.3360  178.9170  143.7130 C   0  0  0  0  0  3  0  0  0  0  0  0
  186.8450  177.7810  144.0480 N   0  0  0  0  0  2  0  0  0  0  0  0
  184.5400  178.6110  144.2010 C   0  0  0  0  0  0  0  0  0  0  0  0
  185.8130  178.1740  141.9990 C   0  0  0  0  0  0  0  0  0  0  0  0
  182.8220  178.8990  142.3440 C   0  0  0  0  0  3  0  0  0  0  0  0
  185.6560  178.1680  143.4070 N   0  0  0  0  0  0  0  0  0  0  0  0
  187.8140  177.4840  142.9860 C   0  0  2  0  0  3  0  0  0  0  0  0
  182.4490  179.9900  139.3700 C   0  0  0  0  0  3  0  0  0  0  0  0
  182.6610  178.7210  139.9330 C   0  0  0  0  0  0  0  0  0  0  0  0
  181.1860  179.0250  137.5390 C   0  0  0  0  0  0  0  0  0  0  0  0
  182.1340  177.5870  139.2650 C   0  0  0  0  0  0  0  0  0  0  0  0
  181.4030  177.7530  138.0830 C   0  0  0  0  0  3  0  0  0  0  0  0
  181.7220  180.1410  138.1900 C   0  0  0  0  0  3  0  0  0  0  0  0
  180.8090  180.1800  135.3310 C   0  0  0  0  0  1  0  0  0  0  0  0
  180.4350  179.1900  136.3270 N   0  0  0  0  0  0  0  0  0  0  0  0
  179.3550  178.4110  136.0860 O   0  0  0  0  0  1  0  0  0  0  0  0
  182.8620  175.4030  138.7260 O   0  0  0  0  0  1  0  0  0  0  0  0
  182.3500  176.1930  139.7560 C   0  0  0  0  0  2  0  0  0  0  0  0
  185.6080  179.5010  146.1900 N   0  0  0  0  0  0  0  0  0  0  0  0
  184.7300  178.7110  145.6630 C   0  0  0  0  0  3  0  0  0  0  0  0
  185.7520  179.5580  147.5550 O   0  0  0  0  0  0  0  0  0  0  0  0
  186.2880  178.4460  148.2560 C   0  0  0  0  0  2  0  0  0  0  0  0
  187.8090  178.4910  148.2510 C   0  0  1  0  0  3  0  0  0  0  0  0
  188.2980  178.2620  149.5390 O   0  0  0  0  0  1  0  0  0  0  0  0
  188.3980  177.4670  147.2890 C   0  0  0  0  0  2  0  0  0  0  0  0
  189.8190  177.4760  147.3610 O   0  0  0  0  0  0  0  0  0  0  0  0
  190.3890  178.5710  144.7230 C   0  0  0  0  0  2  0  0  0  0  0  0
  190.6140  176.7530  146.4670 C   0  0  0  0  0  0  0  0  0  0  0  0
  191.8190  177.5750  143.0180 C   0  0  0  0  0  2  0  0  0  0  0  0
  190.8060  178.6860  143.2680 C   0  0  0  0  0  2  0  0  0  0  0  0
  190.8900  177.2890  145.1690 N   0  0  0  0  0  0  0  0  0  0  0  0
  191.0950  175.6350  146.8000 O   0  0  0  0  0  0  0  0  0  0  0  0
  191.6830  176.6010  144.1740 C   0  0  0  0  0  2  0  0  0  0  0  0
  187.9280  178.9970  141.0260 C   0  0  0  0  0  2  0  0  0  0  0  0
  188.4170  178.6570  139.6950 N   0  0  0  0  0  2  0  0  0  0  0  0
  188.0200  177.0010  138.0580 C   0  0  0  0  0  3  0  0  0  0  0  0
  187.6160  178.0350  138.7240 N   0  0  0  0  0  0  0  0  0  0  0  0
  187.1360  176.3670  137.0310 C   0  0  2  0  0  3  0  0  0  0  0  0
  187.8840  175.5040  136.0510 C   0  0  0  0  0  0  0  0  0  0  0  0
  189.0700  175.8140  135.7650 O   0  0  0  0  0  0  0  0  0  0  0  0
  187.3050  174.3520  135.4260 N   0  0  0  0  0  2  0  0  0  0  0  0
  185.9770  173.8370  135.7160 C   0  0  0  0  0  2  0  0  0  0  0  0
  185.7410  172.5560  134.9400 C   0  0  0  0  0  2  0  0  0  0  0  0
  185.1650  171.4870  135.8510 C   0  0  0  0  0  2  0  0  0  0  0  0
  183.8640  171.9660  136.4680 C   0  0  0  0  0  1  0  0  0  0  0  0
  186.6910  178.1290  135.4600 O   0  0  0  0  0  0  0  0  0  0  0  0
  186.2430  177.3530  136.3460 C   0  0  0  0  0  0  0  0  0  0  0  0
  184.8600  177.3920  136.6780 N   0  0  0  0  0  1  0  0  0  0  0  0
  1 38  1  1  0  0  0
  1  8  1  0  0  0  0
  1 11  1  0  0  0  0
  3  9  2  0  0  0  0
  4  3  1  0  0  0  0
  4  8  2  0  0  0  0
  5  7  2  0  0  0  0
  7 24  1  0  0  0  0
  8 10  1  0  0  0  0
  9  5  1  0  0  0  0
 10  6  1  0  0  0  0
 10  7  1  0  0  0  0
 11  2  1  6  0  0  0
 11  6  1  0  0  0  0
 12 13  1  0  0  0  0
 13  3  1  0  0  0  0
 14 16  2  0  0  0  0
 14 17  1  0  0  0  0
 15 22  1  0  0  0  0
 15 13  2  0  0  0  0
 16 15  1  0  0  0  0
 17 12  2  0  0  0  0
 18 19  1  0  0  0  0
 19 14  1  0  0  0  0
 20 19  1  0  0  0  0
 21 22  1  0  0  0  0
 23 25  1  0  0  0  0
 24 23  2  0  0  0  0
 25 26  1  0  0  0  0
 27 26  1  0  0  0  0
 27 28  1  1  0  0  0
 29 30  1  0  0  0  0
 29 27  1  0  0  0  0
 31 35  1  0  0  0  0
 32 36  2  0  0  0  0
 32 30  1  0  0  0  0
 33 34  1  0  0  0  0
 33 37  1  0  0  0  0
 34 31  1  0  0  0  0
 35 32  1  0  0  0  0
 37 35  1  0  0  0  0
 39 38  1  0  0  0  0
 40 41  2  0  0  0  0
 41 39  1  0  0  0  0
 42 40  1  6  0  0  0
 43 42  1  0  0  0  0
 44 43  2  0  0  0  0
 45 46  1  0  0  0  0
 45 43  1  0  0  0  0
 47 46  1  0  0  0  0
 47 48  1  0  0  0  0
 48 49  1  0  0  0  0
 50 51  2  0  0  0  0
 51 52  1  0  0  0  0
 51 42  1  0  0  0  0
M  END
>  <MODEL>
9

>  <REMARK>
 VINA RESULT:      -6.3      1.896      2.287
  Name = 
  19 active torsions:
  status: ('A' for Active; 'I' for Inactive)
    1  A    between atoms: C_2  and  C_16
    2  A    between atoms: C_4  and  C_18
    3  A    between atoms: N_7  and  C_21
    4  A    between atoms: C_8  and  C_14
    5  A    between atoms: C_11  and  C_16
    6  A    between atoms: C_13  and  C_17
    7  A    between atoms: C_13  and  C_36
    8  A    between atoms: C_16  and  C_35
    9  A    between atoms: C_17  and  O_46
   10  A    between atoms: C_18  and  N_42
   11  A    between atoms: C_20  and  O_43
   12  A    between atoms: C_24  and  C_40
   13  A    between atoms: N_26  and  N_42
   14  A    between atoms: C_28  and  C_34
   15  A    between atoms: C_28  and  C_51
   16  A    between atoms: C_31  and  C_41
   17  A    between atoms: C_36  and  O_43
   18  A    between atoms: N_38  and  O_46
   19  A    between atoms: N_47  and  C_51
                            x       y       z     vdW  Elec       q    Type
                         _______ _______ _______ _____ _____    ______ ____

>  <TORSDO>
F 19

$$$$
