=
 OpenBabel11042409493D

 33 39  0  0  1  0  0  0  0  0999 V2000
  190.6900  176.7370  137.2480 C   0  0  0  0  0  0  0  0  0  0  0  0
  189.3630  178.2130  142.8060 C   0  0  1  0  0  3  0  0  0  0  0  0
  190.4910  177.3370  146.0390 N   0  0  0  0  0  0  0  0  0  0  0  0
  188.5650  177.5100  138.1970 C   0  0  0  0  0  3  0  0  0  0  0  0
  191.9070  176.7980  139.2240 C   0  0  0  0  0  3  0  0  0  0  0  0
  192.0700  176.4590  137.7660 C   0  0  0  0  0  3  0  0  0  0  0  0
  190.6530  177.1850  139.4070 C   0  0  0  0  0  0  0  0  0  0  0  0
  188.0050  177.6760  144.8290 N   0  0  0  0  0  0  0  0  0  0  0  0
  189.1050  177.2120  143.9460 C   0  0  2  0  0  3  0  0  0  0  0  0
  191.7450  177.1810  143.9590 C   0  0  0  0  0  2  0  0  0  0  0  0
  190.0320  177.6000  140.5850 C   0  0  0  0  0  0  0  0  0  0  0  0
  186.5990  178.2700  139.4050 O   0  0  0  0  0  1  0  0  0  0  0  0
  189.4240  177.3920  146.7460 C   0  0  0  0  0  0  0  0  0  0  0  0
  190.4900  177.6950  141.9550 C   0  0  0  0  0  0  0  0  0  0  0  0
  187.1900  177.8180  147.1620 C   0  0  0  0  0  2  0  0  0  0  0  0
  189.3530  178.0330  148.0670 C   0  0  0  0  0  2  0  0  0  0  0  0
  191.5810  177.1430  142.4700 C   0  0  0  0  0  3  0  0  0  0  0  0
  188.2290  178.2940  141.8750 N   0  0  0  0  0  2  0  0  0  0  0  0
  190.4380  176.8150  144.6930 C   0  0  1  0  0  3  0  0  0  0  0  0
  187.9330  178.0860  148.4000 N   0  0  0  0  0  2  0  0  0  0  0  0
  188.1040  177.0950  146.1780 C   0  0  1  0  0  3  0  0  0  0  0  0
  189.9250  177.1500  138.2370 C   0  0  1  0  0  3  0  0  0  0  0  0
  187.9420  177.9160  139.3960 C   0  0  0  0  0  0  0  0  0  0  0  0
  188.7030  177.9510  140.5770 C   0  0  0  0  0  0  0  0  0  0  0  0
  190.2590  176.5880  135.9300 O   0  0  0  0  0  0  0  0  0  0  0  0
  189.8990  175.3200  135.4070 C   0  0  0  0  0  1  0  0  0  0  0  0
  186.7680  177.1700  144.2370 C   0  0  0  0  0  2  0  0  0  0  0  0
  183.6260  179.2950  144.8300 C   0  0  0  0  0  2  0  0  0  0  0  0
  185.7690  178.2960  144.0120 C   0  0  2  0  0  3  0  0  0  0  0  0
  184.6980  178.2430  145.0950 C   0  0  0  0  0  2  0  0  0  0  0  0
  184.1570  179.2630  142.4400 N   0  0  0  0  0  2  0  0  0  0  0  0
  183.0780  179.1210  143.4150 C   0  0  0  0  0  2  0  0  0  0  0  0
  185.1120  178.1750  142.6380 C   0  0  0  0  0  2  0  0  0  0  0  0
  1  6  2  0  0  0  0
  1 22  1  0  0  0  0
  2 18  1  6  0  0  0
  2  9  1  0  0  0  0
  3 13  2  0  0  0  0
  4 23  2  0  0  0  0
  5  7  2  0  0  0  0
  6  5  1  0  0  0  0
  7 11  1  0  0  0  0
  8 21  1  0  0  0  0
  9 19  1  0  0  0  0
  9  8  1  1  0  0  0
 11 14  1  0  0  0  0
 13 16  1  0  0  0  0
 14 17  2  0  0  0  0
 14  2  1  0  0  0  0
 15 20  1  0  0  0  0
 16 20  1  0  0  0  0
 17 10  1  0  0  0  0
 19 10  1  6  0  0  0
 19  3  1  0  0  0  0
 21 13  1  0  0  0  0
 21 15  1  1  0  0  0
 22  4  1  1  0  0  0
 22  7  1  0  0  0  0
 23 12  1  0  0  0  0
 23 24  1  0  0  0  0
 24 11  2  0  0  0  0
 24 18  1  0  0  0  0
 25  1  1  0  0  0  0
 26 25  1  0  0  0  0
 27  8  1  0  0  0  0
 28 30  1  0  0  0  0
 29 27  1  1  0  0  0
 29 30  1  0  0  0  0
 31 33  1  0  0  0  0
 31 32  1  0  0  0  0
 32 28  1  0  0  0  0
 33 29  1  0  0  0  0
M  END
>  <MODEL>
1

>  <REMARK>
 VINA RESULT:     -10.3      0.000      0.000
  Name = 
  3 active torsions:
  status: ('A' for Active; 'I' for Inactive)
    1  A    between atoms: C_1  and  O_13
    2  A    between atoms: C_3  and  C_7
    3  A    between atoms: C_7  and  N_11
                            x       y       z     vdW  Elec       q    Type
                         _______ _______ _______ _____ _____    ______ ____

>  <TORSDO>
F 3

$$$$
=
 OpenBabel11042409493D

 33 39  0  0  1  0  0  0  0  0999 V2000
  189.1360  176.9820  146.2190 C   0  0  0  0  0  0  0  0  0  0  0  0
  184.9000  179.0860  142.6890 C   0  0  1  0  0  3  0  0  0  0  0  0
  181.3910  179.4860  142.8370 N   0  0  0  0  0  0  0  0  0  0  0  0
  189.0450  177.0810  143.7710 C   0  0  0  0  0  3  0  0  0  0  0  0
  187.0670  177.9620  146.6060 C   0  0  0  0  0  3  0  0  0  0  0  0
  188.2380  177.3820  147.3540 C   0  0  0  0  0  2  0  0  0  0  0  0
  187.3320  177.8700  145.3120 C   0  0  0  0  0  0  0  0  0  0  0  0
  183.2040  178.5570  140.9370 N   0  0  0  0  0  0  0  0  0  0  0  0
  183.5850  178.3570  142.3580 C   0  0  2  0  0  3  0  0  0  0  0  0
  182.9290  179.3430  144.7190 C   0  0  0  0  0  2  0  0  0  0  0  0
  186.5510  178.2770  144.2310 C   0  0  0  0  0  0  0  0  0  0  0  0
  188.6760  177.2880  141.3780 O   0  0  0  0  0  1  0  0  0  0  0  0
  181.0230  179.2920  141.6260 C   0  0  0  0  0  0  0  0  0  0  0  0
  185.2270  178.8560  144.1390 C   0  0  0  0  0  0  0  0  0  0  0  0
  181.3260  178.9140  139.3650 C   0  0  0  0  0  2  0  0  0  0  0  0
  180.0560  180.1440  140.9200 C   0  0  0  0  0  2  0  0  0  0  0  0
  184.3090  178.9000  145.0960 C   0  0  0  0  0  3  0  0  0  0  0  0
  186.0470  178.5080  141.9750 N   0  0  0  0  0  2  0  0  0  0  0  0
  182.4510  178.6860  143.4070 C   0  0  1  0  0  3  0  0  0  0  0  0
  180.1130  179.7260  139.5230 N   0  0  0  0  0  2  0  0  0  0  0  0
  181.7560  178.3880  140.7300 C   0  0  1  0  0  3  0  0  0  0  0  0
  188.5600  177.2880  145.0750 C   0  0  0  0  0  0  0  0  0  0  0  0
  188.2420  177.4840  142.6830 C   0  0  0  0  0  0  0  0  0  0  0  0
  186.9970  178.0810  142.9450 C   0  0  0  0  0  0  0  0  0  0  0  0
  190.3880  176.3770  146.3330 O   0  0  0  0  0  0  0  0  0  0  0  0
  191.3030  176.7530  147.3480 C   0  0  0  0  0  1  0  0  0  0  0  0
  183.8680  177.4930  140.1860 C   0  0  0  0  0  2  0  0  0  0  0  0
  184.6480  177.4210  136.4270 C   0  0  0  0  0  2  0  0  0  0  0  0
  184.3720  178.0050  138.8440 C   0  0  2  0  0  3  0  0  0  0  0  0
  184.0580  176.9790  137.7620 C   0  0  0  0  0  2  0  0  0  0  0  0
  186.3460  178.7440  137.5940 N   0  0  0  0  0  2  0  0  0  0  0  0
  186.1410  177.6970  136.5950 C   0  0  0  0  0  2  0  0  0  0  0  0
  185.8800  178.2530  138.8880 C   0  0  0  0  0  2  0  0  0  0  0  0
  1 25  1  0  0  0  0
  1  6  1  0  0  0  0
  2 18  1  6  0  0  0
  2 14  1  0  0  0  0
  3 19  1  0  0  0  0
  4 22  1  0  0  0  0
  5  6  1  0  0  0  0
  7  5  2  0  0  0  0
  9  8  1  6  0  0  0
  9  2  1  0  0  0  0
  9 19  1  0  0  0  0
 10 17  1  0  0  0  0
 11  7  1  0  0  0  0
 12 23  1  0  0  0  0
 13  3  2  0  0  0  0
 14 11  1  0  0  0  0
 14 17  2  0  0  0  0
 15 20  1  0  0  0  0
 16 13  1  0  0  0  0
 18 24  1  0  0  0  0
 19 10  1  1  0  0  0
 20 16  1  0  0  0  0
 21 15  1  6  0  0  0
 21  8  1  0  0  0  0
 21 13  1  0  0  0  0
 22  7  1  0  0  0  0
 22  1  2  0  0  0  0
 23 24  1  0  0  0  0
 23  4  2  0  0  0  0
 24 11  2  0  0  0  0
 25 26  1  0  0  0  0
 27  8  1  0  0  0  0
 28 32  1  0  0  0  0
 28 30  1  0  0  0  0
 29 33  1  0  0  0  0
 29 27  1  1  0  0  0
 30 29  1  0  0  0  0
 31 33  1  0  0  0  0
 32 31  1  0  0  0  0
M  END
>  <MODEL>
2

>  <REMARK>
 VINA RESULT:      -9.8      3.240      7.765
  Name = 
  3 active torsions:
  status: ('A' for Active; 'I' for Inactive)
    1  A    between atoms: C_1  and  O_13
    2  A    between atoms: C_3  and  C_7
    3  A    between atoms: C_7  and  N_11
                            x       y       z     vdW  Elec       q    Type
                         _______ _______ _______ _____ _____    ______ ____

>  <TORSDO>
F 3

$$$$
=
 OpenBabel11042409493D

 33 39  0  0  1  0  0  0  0  0999 V2000
  186.8780  177.6600  135.7310 C   0  0  0  0  0  0  0  0  0  0  0  0
  188.8070  178.2430  141.2780 C   0  0  1  0  0  3  0  0  0  0  0  0
  191.4200  176.9050  143.2480 N   0  0  0  0  0  0  0  0  0  0  0  0
  185.6390  178.2370  137.7660 C   0  0  0  0  0  3  0  0  0  0  0  0
  188.9600  177.4420  136.7360 C   0  0  0  0  0  3  0  0  0  0  0  0
  188.3020  177.3330  135.3860 C   0  0  0  0  0  3  0  0  0  0  0  0
  188.0240  177.7710  137.6130 C   0  0  0  0  0  0  0  0  0  0  0  0
  188.7000  177.3770  143.6160 N   0  0  0  0  0  0  0  0  0  0  0  0
  189.1290  177.0740  142.2280 C   0  0  2  0  0  3  0  0  0  0  0  0
  191.3640  177.0930  140.8210 C   0  0  0  0  0  2  0  0  0  0  0  0
  188.1520  177.9890  138.9840 C   0  0  0  0  0  0  0  0  0  0  0  0
  184.6690  178.7650  139.9320 O   0  0  0  0  0  1  0  0  0  0  0  0
  190.8980  176.8300  144.4150 C   0  0  0  0  0  0  0  0  0  0  0  0
  189.2730  177.8830  139.8950 C   0  0  0  0  0  0  0  0  0  0  0  0
  189.2600  177.1440  146.0160 C   0  0  0  0  0  2  0  0  0  0  0  0
  191.5820  177.2600  145.6430 C   0  0  0  0  0  2  0  0  0  0  0  0
  190.4320  177.2800  139.6630 C   0  0  0  0  0  3  0  0  0  0  0  0
  187.3600  178.4430  141.1200 N   0  0  0  0  0  2  0  0  0  0  0  0
  190.6260  176.5940  142.0810 C   0  0  1  0  0  3  0  0  0  0  0  0
  190.5630  177.2340  146.6870 N   0  0  0  0  0  2  0  0  0  0  0  0
  189.4610  176.5980  144.6060 C   0  0  1  0  0  3  0  0  0  0  0  0
  186.7850  177.9020  137.0230 C   0  0  1  0  0  3  0  0  0  0  0  0
  185.7760  178.4430  139.1560 C   0  0  0  0  0  0  0  0  0  0  0  0
  187.0490  178.3120  139.7380 C   0  0  0  0  0  0  0  0  0  0  0  0
  185.8040  177.7060  134.8430 O   0  0  0  0  0  0  0  0  0  0  0  0
  184.9990  176.5650  134.5950 C   0  0  0  0  0  1  0  0  0  0  0  0
  187.3070  176.9430  143.7130 C   0  0  0  0  0  2  0  0  0  0  0  0
  185.0070  178.6550  146.2680 C   0  0  0  0  0  2  0  0  0  0  0  0
  186.4340  178.0400  144.3060 C   0  0  2  0  0  3  0  0  0  0  0  0
  185.9710  177.6200  145.6960 C   0  0  0  0  0  2  0  0  0  0  0  0
  184.3890  179.3570  144.0050 N   0  0  0  0  0  2  0  0  0  0  0  0
  183.8620  178.8840  145.2840 C   0  0  0  0  0  2  0  0  0  0  0  0
  185.2150  178.3020  143.4220 C   0  0  0  0  0  2  0  0  0  0  0  0
  1 22  1  0  0  0  0
  2 14  1  6  0  0  0
  2  9  1  0  0  0  0
  3 13  2  0  0  0  0
  4 23  2  0  0  0  0
  5  7  2  0  0  0  0
  6  1  2  0  0  0  0
  6  5  1  0  0  0  0
  7 11  1  0  0  0  0
  8 27  1  0  0  0  0
  8 21  1  0  0  0  0
  9  8  1  1  0  0  0
 11 24  2  0  0  0  0
 11 14  1  0  0  0  0
 13 21  1  0  0  0  0
 13 16  1  0  0  0  0
 15 20  1  0  0  0  0
 16 20  1  0  0  0  0
 17 14  2  0  0  0  0
 17 10  1  0  0  0  0
 18  2  1  0  0  0  0
 19 10  1  6  0  0  0
 19  9  1  0  0  0  0
 19  3  1  0  0  0  0
 21 15  1  1  0  0  0
 22  7  1  0  0  0  0
 22  4  1  1  0  0  0
 23 24  1  0  0  0  0
 23 12  1  0  0  0  0
 24 18  1  0  0  0  0
 25  1  1  0  0  0  0
 26 25  1  0  0  0  0
 29 27  1  6  0  0  0
 29 30  1  0  0  0  0
 30 28  1  0  0  0  0
 31 32  1  0  0  0  0
 32 28  1  0  0  0  0
 33 31  1  0  0  0  0
 33 29  1  0  0  0  0
M  END
>  <MODEL>
3

>  <REMARK>
 VINA RESULT:      -9.7      1.924      2.798
  Name = 
  3 active torsions:
  status: ('A' for Active; 'I' for Inactive)
    1  A    between atoms: C_1  and  O_13
    2  A    between atoms: C_3  and  C_7
    3  A    between atoms: C_7  and  N_11
                            x       y       z     vdW  Elec       q    Type
                         _______ _______ _______ _____ _____    ______ ____

>  <TORSDO>
F 3

$$$$
=
 OpenBabel11042409493D

 33 39  0  0  1  0  0  0  0  0999 V2000
  187.4660  177.5480  146.3220 C   0  0  0  0  0  0  0  0  0  0  0  0
  184.1230  179.1410  141.7270 C   0  0  1  0  0  3  0  0  0  0  0  0
  180.6710  179.2560  140.9750 N   0  0  0  0  0  0  0  0  0  0  0  0
  187.9890  177.5320  143.9270 C   0  0  0  0  0  3  0  0  0  0  0  0
  185.3040  178.3700  146.1210 C   0  0  0  0  0  3  0  0  0  0  0  0
  186.2870  177.9210  147.1710 C   0  0  0  0  0  2  0  0  0  0  0  0
  185.8930  178.2440  144.9420 C   0  0  0  0  0  0  0  0  0  0  0  0
  182.9630  178.3980  139.6460 N   0  0  0  0  0  0  0  0  0  0  0  0
  182.9870  178.2920  141.1270 C   0  0  2  0  0  3  0  0  0  0  0  0
  181.6910  179.3230  143.1840 C   0  0  0  0  0  2  0  0  0  0  0  0
  185.3840  178.5380  143.6780 C   0  0  0  0  0  0  0  0  0  0  0  0
  188.2210  177.6040  141.5090 O   0  0  0  0  0  1  0  0  0  0  0  0
  180.6340  178.9800  139.7250 C   0  0  0  0  0  0  0  0  0  0  0  0
  184.0890  179.0020  143.2240 C   0  0  0  0  0  0  0  0  0  0  0  0
  181.5220  178.5300  137.6380 C   0  0  0  0  0  2  0  0  0  0  0  0
  179.8200  179.7190  138.7490 C   0  0  0  0  0  2  0  0  0  0  0  0
  182.9590  179.0120  143.9190 C   0  0  0  0  0  3  0  0  0  0  0  0
  185.4490  178.6290  141.3570 N   0  0  0  0  0  2  0  0  0  0  0  0
  181.6060  178.5720  141.8390 C   0  0  1  0  0  3  0  0  0  0  0  0
  180.2550  179.2460  137.4390 N   0  0  0  0  0  2  0  0  0  0  0  0
  181.6300  178.1020  139.0980 C   0  0  1  0  0  3  0  0  0  0  0  0
  187.1780  177.7560  145.0540 C   0  0  0  0  0  0  0  0  0  0  0  0
  187.4600  177.8200  142.6500 C   0  0  0  0  0  0  0  0  0  0  0  0
  186.1510  178.3240  142.5570 C   0  0  0  0  0  0  0  0  0  0  0  0
  188.6880  177.0530  146.7800 O   0  0  0  0  0  0  0  0  0  0  0  0
  189.3840  177.6730  147.8480 C   0  0  0  0  0  1  0  0  0  0  0  0
  183.8670  177.3600  139.1510 C   0  0  0  0  0  2  0  0  0  0  0  0
  185.5870  177.2220  135.7210 C   0  0  0  0  0  2  0  0  0  0  0  0
  184.6730  177.8610  137.9610 C   0  0  2  0  0  3  0  0  0  0  0  0
  184.6960  176.7860  136.8800 C   0  0  0  0  0  2  0  0  0  0  0  0
  186.8630  178.6760  137.2220 N   0  0  0  0  0  2  0  0  0  0  0  0
  186.9710  177.5890  136.2510 C   0  0  0  0  0  2  0  0  0  0  0  0
  186.1050  178.1970  138.3760 C   0  0  0  0  0  2  0  0  0  0  0  0
  1 25  1  0  0  0  0
  1  6  1  0  0  0  0
  2 18  1  6  0  0  0
  2 14  1  0  0  0  0
  3 19  1  0  0  0  0
  4 22  1  0  0  0  0
  5  6  1  0  0  0  0
  7 22  1  0  0  0  0
  7  5  2  0  0  0  0
  9  8  1  6  0  0  0
  9  2  1  0  0  0  0
  9 19  1  0  0  0  0
 10 17  1  0  0  0  0
 11  7  1  0  0  0  0
 12 23  1  0  0  0  0
 13  3  2  0  0  0  0
 14 11  1  0  0  0  0
 14 17  2  0  0  0  0
 16 13  1  0  0  0  0
 18 24  1  0  0  0  0
 19 10  1  1  0  0  0
 20 15  1  0  0  0  0
 20 16  1  0  0  0  0
 21 15  1  6  0  0  0
 21  8  1  0  0  0  0
 21 13  1  0  0  0  0
 22  1  2  0  0  0  0
 23  4  2  0  0  0  0
 24 23  1  0  0  0  0
 24 11  2  0  0  0  0
 25 26  1  0  0  0  0
 27  8  1  0  0  0  0
 28 32  1  0  0  0  0
 28 30  1  0  0  0  0
 29 33  1  0  0  0  0
 29 27  1  1  0  0  0
 30 29  1  0  0  0  0
 31 33  1  0  0  0  0
 32 31  1  0  0  0  0
M  END
>  <MODEL>
4

>  <REMARK>
 VINA RESULT:      -9.7      3.452      8.598
  Name = 
  3 active torsions:
  status: ('A' for Active; 'I' for Inactive)
    1  A    between atoms: C_1  and  O_13
    2  A    between atoms: C_3  and  C_7
    3  A    between atoms: C_7  and  N_11
                            x       y       z     vdW  Elec       q    Type
                         _______ _______ _______ _____ _____    ______ ____

>  <TORSDO>
F 3

$$$$
=
 OpenBabel11042409493D

 33 39  0  0  1  0  0  0  0  0999 V2000
  180.8420  179.0100  141.5060 C   0  0  0  0  0  0  0  0  0  0  0  0
  186.6750  178.8290  142.3890 C   0  0  1  0  0  3  0  0  0  0  0  0
  189.5050  177.6330  140.6410 N   0  0  0  0  0  0  0  0  0  0  0  0
  182.1050  178.9330  143.6060 C   0  0  0  0  0  3  0  0  0  0  0  0
  182.6780  178.9860  140.0860 C   0  0  0  0  0  3  0  0  0  0  0  0
  181.1740  179.0260  140.0430 C   0  0  0  0  0  3  0  0  0  0  0  0
  183.0420  178.9560  141.3590 C   0  0  0  0  0  0  0  0  0  0  0  0
  188.6010  177.5120  143.2720 N   0  0  0  0  0  0  0  0  0  0  0  0
  187.5530  177.5750  142.2230 C   0  0  2  0  0  3  0  0  0  0  0  0
  187.3620  178.2850  139.6870 C   0  0  0  0  0  2  0  0  0  0  0  0
  184.3280  178.9180  141.8970 C   0  0  2  0  0  3  0  0  0  0  0  0
  183.6050  178.8340  145.5160 O   0  0  0  0  0  1  0  0  0  0  0  0
  190.2810  177.2340  141.5780 C   0  0  0  0  0  0  0  0  0  0  0  0
  185.6430  178.8430  141.2950 C   0  0  0  0  0  0  0  0  0  0  0  0
  190.9530  176.9170  143.7680 C   0  0  0  0  0  2  0  0  0  0  0  0
  191.7200  177.5310  141.6280 C   0  0  0  0  0  2  0  0  0  0  0  0
  185.9260  178.5220  140.0390 C   0  0  0  0  0  3  0  0  0  0  0  0
  185.8780  178.7860  143.6220 N   0  0  0  0  0  2  0  0  0  0  0  0
  188.0800  177.4190  140.7430 C   0  0  1  0  0  3  0  0  0  0  0  0
  192.1590  177.1110  142.9550 N   0  0  0  0  0  2  0  0  0  0  0  0
  189.7570  176.7070  142.8440 C   0  0  1  0  0  3  0  0  0  0  0  0
  181.9560  178.9700  142.2080 C   0  0  0  0  0  0  0  0  0  0  0  0
  183.4100  178.8820  144.1420 C   0  0  0  0  0  0  0  0  0  0  0  0
  184.5050  178.8760  143.2600 C   0  0  0  0  0  0  0  0  0  0  0  0
  179.5630  179.0310  142.0620 O   0  0  0  0  0  0  0  0  0  0  0  0
  178.9310  180.2500  142.4190 C   0  0  0  0  0  1  0  0  0  0  0  0
  187.9970  176.8180  144.4080 C   0  0  0  0  0  2  0  0  0  0  0  0
  189.3230  177.7710  147.8840 C   0  0  0  0  0  2  0  0  0  0  0  0
  188.1360  177.6350  145.6850 C   0  0  2  0  0  3  0  0  0  0  0  0
  189.2370  177.0330  146.5510 C   0  0  0  0  0  2  0  0  0  0  0  0
  186.9760  178.4390  147.6880 N   0  0  0  0  0  2  0  0  0  0  0  0
  187.9510  177.7770  148.5530 C   0  0  0  0  0  2  0  0  0  0  0  0
  186.8230  177.6510  146.4680 C   0  0  0  0  0  2  0  0  0  0  0  0
  1 25  1  0  0  0  0
  1 22  1  0  0  0  0
  2 14  1  6  0  0  0
  2 18  1  0  0  0  0
  3 19  1  0  0  0  0
  3 13  2  0  0  0  0
  4 23  1  0  0  0  0
  5  7  2  0  0  0  0
  6  5  1  0  0  0  0
  6  1  2  0  0  0  0
  7 11  1  0  0  0  0
  7 22  1  0  0  0  0
  8 27  1  0  0  0  0
  9  2  1  0  0  0  0
  9  8  1  1  0  0  0
 10 17  1  0  0  0  0
 11 14  1  6  0  0  0
 11 24  1  0  0  0  0
 13 16  1  0  0  0  0
 13 21  1  0  0  0  0
 16 20  1  0  0  0  0
 17 14  2  0  0  0  0
 19 10  1  6  0  0  0
 19  9  1  0  0  0  0
 20 15  1  0  0  0  0
 21  8  1  0  0  0  0
 21 15  1  1  0  0  0
 22  4  2  0  0  0  0
 23 12  1  0  0  0  0
 24 18  1  0  0  0  0
 24 23  2  0  0  0  0
 25 26  1  0  0  0  0
 28 32  1  0  0  0  0
 29 27  1  6  0  0  0
 29 33  1  0  0  0  0
 29 30  1  0  0  0  0
 30 28  1  0  0  0  0
 31 32  1  0  0  0  0
 33 31  1  0  0  0  0
M  END
>  <MODEL>
5

>  <REMARK>
 VINA RESULT:      -9.6      3.142      6.952
  Name = 
  3 active torsions:
  status: ('A' for Active; 'I' for Inactive)
    1  A    between atoms: C_1  and  O_13
    2  A    between atoms: C_3  and  C_7
    3  A    between atoms: C_7  and  N_11
                            x       y       z     vdW  Elec       q    Type
                         _______ _______ _______ _____ _____    ______ ____

>  <TORSDO>
F 3

$$$$
=
 OpenBabel11042409493D

 33 39  0  0  1  0  0  0  0  0999 V2000
  187.8840  177.4350  146.1440 C   0  0  0  0  0  0  0  0  0  0  0  0
  188.5760  178.2560  140.3410 C   0  0  1  0  0  3  0  0  0  0  0  0
  186.4870  178.3700  137.4920 N   0  0  0  0  0  0  0  0  0  0  0  0
  189.8110  176.9380  144.7120 C   0  0  0  0  0  3  0  0  0  0  0  0
  186.5200  178.2930  144.4730 C   0  0  0  0  0  3  0  0  0  0  0  0
  186.5120  178.0130  145.9520 C   0  0  0  0  0  2  0  0  0  0  0  0
  187.6990  177.9190  144.0000 C   0  0  0  0  0  0  0  0  0  0  0  0
  188.9250  177.1770  138.1180 N   0  0  0  0  0  0  0  0  0  0  0  0
  187.9750  177.3570  139.2450 C   0  0  2  0  0  3  0  0  0  0  0  0
  185.8440  178.8150  139.7970 C   0  0  0  0  0  2  0  0  0  0  0  0
  188.1750  177.9860  142.6910 C   0  0  0  0  0  0  0  0  0  0  0  0
  191.5490  176.5360  143.0620 O   0  0  0  0  0  1  0  0  0  0  0  0
  187.2180  177.8610  136.5720 C   0  0  0  0  0  0  0  0  0  0  0  0
  187.5670  178.4080  141.4460 C   0  0  0  0  0  0  0  0  0  0  0  0
  189.1540  176.9830  135.6610 C   0  0  0  0  0  2  0  0  0  0  0  0
  187.3500  178.4320  135.2240 C   0  0  0  0  0  2  0  0  0  0  0  0
  186.2740  178.5980  141.2150 C   0  0  0  0  0  3  0  0  0  0  0  0
  189.7280  177.6270  141.0010 N   0  0  0  0  0  2  0  0  0  0  0  0
  186.5260  177.8250  138.8300 C   0  0  1  0  0  3  0  0  0  0  0  0
  188.4430  177.6990  134.5940 N   0  0  0  0  0  2  0  0  0  0  0  0
  188.2290  176.8380  136.8660 C   0  0  1  0  0  3  0  0  0  0  0  0
  188.5140  177.4080  144.9880 C   0  0  0  0  0  0  0  0  0  0  0  0
  190.2790  176.9980  143.3820 C   0  0  0  0  0  0  0  0  0  0  0  0
  189.4360  177.5290  142.3910 C   0  0  0  0  0  0  0  0  0  0  0  0
  188.4290  176.9860  147.3470 O   0  0  0  0  0  0  0  0  0  0  0  0
  188.6400  177.8670  148.4390 C   0  0  0  0  0  1  0  0  0  0  0  0
  189.7570  176.0270  138.4680 C   0  0  0  0  0  2  0  0  0  0  0  0
  192.9320  174.7650  136.7160 C   0  0  0  0  0  2  0  0  0  0  0  0
  191.1170  176.1120  137.7900 C   0  0  2  0  0  3  0  0  0  0  0  0
  191.5250  174.7260  137.3030 C   0  0  0  0  0  2  0  0  0  0  0  0
  193.4730  176.7180  138.0900 N   0  0  0  0  0  2  0  0  0  0  0  0
  193.8960  175.3640  137.7380 C   0  0  0  0  0  2  0  0  0  0  0  0
  192.1750  176.6430  138.7570 C   0  0  0  0  0  2  0  0  0  0  0  0
  1 25  1  0  0  0  0
  2 18  1  1  0  0  0
  2 14  1  0  0  0  0
  3 19  1  0  0  0  0
  4 22  1  0  0  0  0
  5  6  1  0  0  0  0
  6  1  1  0  0  0  0
  7  5  2  0  0  0  0
  7 22  1  0  0  0  0
  8 27  1  0  0  0  0
  9  8  1  6  0  0  0
  9  2  1  0  0  0  0
 10 17  1  0  0  0  0
 11  7  1  0  0  0  0
 12 23  1  0  0  0  0
 13 21  1  0  0  0  0
 13  3  2  0  0  0  0
 14 11  1  0  0  0  0
 16 13  1  0  0  0  0
 17 14  2  0  0  0  0
 18 24  1  0  0  0  0
 19  9  1  0  0  0  0
 19 10  1  1  0  0  0
 20 16  1  0  0  0  0
 20 15  1  0  0  0  0
 21 15  1  6  0  0  0
 21  8  1  0  0  0  0
 22  1  2  0  0  0  0
 23  4  2  0  0  0  0
 24 11  2  0  0  0  0
 24 23  1  0  0  0  0
 25 26  1  0  0  0  0
 28 30  1  0  0  0  0
 28 32  1  0  0  0  0
 29 27  1  1  0  0  0
 29 33  1  0  0  0  0
 30 29  1  0  0  0  0
 31 33  1  0  0  0  0
 32 31  1  0  0  0  0
M  END
>  <MODEL>
6

>  <REMARK>
 VINA RESULT:      -9.1      3.064      8.731
  Name = 
  3 active torsions:
  status: ('A' for Active; 'I' for Inactive)
    1  A    between atoms: C_1  and  O_13
    2  A    between atoms: C_3  and  C_7
    3  A    between atoms: C_7  and  N_11
                            x       y       z     vdW  Elec       q    Type
                         _______ _______ _______ _____ _____    ______ ____

>  <TORSDO>
F 3

$$$$
=
 OpenBabel11042409493D

 33 39  0  0  1  0  0  0  0  0999 V2000
  181.2480  179.5270  142.2780 C   0  0  0  0  0  0  0  0  0  0  0  0
  186.4830  177.4070  143.9890 C   0  0  1  0  0  3  0  0  0  0  0  0
  188.5090  177.5810  146.8810 N   0  0  0  0  0  0  0  0  0  0  0  0
  183.2150  178.9420  140.9350 C   0  0  0  0  0  3  0  0  0  0  0  0
  182.1560  178.9710  144.3410 C   0  0  0  0  0  3  0  0  0  0  0  0
  180.8870  179.5090  143.7340 C   0  0  0  0  0  2  0  0  0  0  0  0
  183.0120  178.7540  143.3540 C   0  0  0  0  0  0  0  0  0  0  0  0
  188.9410  177.8150  144.1400 N   0  0  0  0  0  0  0  0  0  0  0  0
  187.6060  178.2430  144.6310 C   0  0  2  0  0  3  0  0  0  0  0  0
  186.0950  177.8740  146.7640 C   0  0  0  0  0  2  0  0  0  0  0  0
  184.3120  178.2560  143.4220 C   0  0  0  0  0  0  0  0  0  0  0  0
  185.3020  178.3050  139.8660 O   0  0  0  0  0  1  0  0  0  0  0  0
  189.6980  177.5760  146.4060 C   0  0  0  0  0  0  0  0  0  0  0  0
  185.1620  177.8780  144.5320 C   0  0  0  0  0  0  0  0  0  0  0  0
  191.3080  177.4310  144.7530 C   0  0  0  0  0  2  0  0  0  0  0  0
  190.7890  176.7520  146.9470 C   0  0  0  0  0  2  0  0  0  0  0  0
  184.9770  178.1710  145.8120 C   0  0  0  0  0  3  0  0  0  0  0  0
  186.3750  177.6460  142.5430 N   0  0  0  0  0  2  0  0  0  0  0  0
  187.4630  178.3110  146.2020 C   0  0  1  0  0  3  0  0  0  0  0  0
  191.8770  176.8620  145.9810 N   0  0  0  0  0  2  0  0  0  0  0  0
  190.0090  178.1550  145.0930 C   0  0  1  0  0  3  0  0  0  0  0  0
  182.4790  179.0820  142.1250 C   0  0  0  0  0  0  0  0  0  0  0  0
  184.5350  178.4500  141.0150 C   0  0  0  0  0  0  0  0  0  0  0  0
  185.0580  178.1140  142.2750 C   0  0  0  0  0  0  0  0  0  0  0  0
  180.4280  179.9460  141.2300 O   0  0  0  0  0  0  0  0  0  0  0  0
  179.3570  180.8500  141.4440 C   0  0  0  0  0  1  0  0  0  0  0  0
  189.1930  178.5890  142.9250 C   0  0  0  0  0  2  0  0  0  0  0  0
  191.0050  176.6800  140.1290 C   0  0  0  0  0  2  0  0  0  0  0  0
  189.3470  177.6750  141.7180 C   0  0  2  0  0  3  0  0  0  0  0  0
  190.8280  177.5050  141.4000 C   0  0  0  0  0  2  0  0  0  0  0  0
  188.7880  177.3670  139.3520 N   0  0  0  0  0  2  0  0  0  0  0  0
  190.2040  177.3130  138.9940 C   0  0  0  0  0  2  0  0  0  0  0  0
  188.6290  178.2570  140.5000 C   0  0  0  0  0  2  0  0  0  0  0  0
  1  6  1  0  0  0  0
  2 18  1  6  0  0  0
  2 14  1  0  0  0  0
  2  9  1  0  0  0  0
  4 23  2  0  0  0  0
  4 22  1  0  0  0  0
  6  5  1  0  0  0  0
  7 11  1  0  0  0  0
  7  5  2  0  0  0  0
  8 21  1  0  0  0  0
  9  8  1  1  0  0  0
  9 19  1  0  0  0  0
 11 14  1  0  0  0  0
 12 23  1  0  0  0  0
 13  3  2  0  0  0  0
 13 16  1  0  0  0  0
 14 17  2  0  0  0  0
 15 20  1  0  0  0  0
 17 10  1  0  0  0  0
 19 10  1  6  0  0  0
 19  3  1  0  0  0  0
 20 16  1  0  0  0  0
 21 15  1  6  0  0  0
 21 13  1  0  0  0  0
 22  1  2  0  0  0  0
 22  7  1  0  0  0  0
 23 24  1  0  0  0  0
 24 18  1  0  0  0  0
 24 11  2  0  0  0  0
 25 26  1  0  0  0  0
 25  1  1  0  0  0  0
 27  8  1  0  0  0  0
 28 30  1  0  0  0  0
 29 27  1  1  0  0  0
 30 29  1  0  0  0  0
 31 33  1  0  0  0  0
 32 31  1  0  0  0  0
 32 28  1  0  0  0  0
 33 29  1  0  0  0  0
M  END
>  <MODEL>
7

>  <REMARK>
 VINA RESULT:      -8.9      1.942      6.763
  Name = 
  3 active torsions:
  status: ('A' for Active; 'I' for Inactive)
    1  A    between atoms: C_1  and  O_13
    2  A    between atoms: C_3  and  C_7
    3  A    between atoms: C_7  and  N_11
                            x       y       z     vdW  Elec       q    Type
                         _______ _______ _______ _____ _____    ______ ____

>  <TORSDO>
F 3

$$$$
=
 OpenBabel11042409493D

 33 39  0  0  1  0  0  0  0  0999 V2000
  191.1380  176.3850  137.0050 C   0  0  0  0  0  0  0  0  0  0  0  0
  187.7440  178.5750  141.3070 C   0  0  1  0  0  3  0  0  0  0  0  0
  187.2850  178.0030  144.7650 N   0  0  0  0  0  0  0  0  0  0  0  0
  188.9100  177.4010  136.8760 C   0  0  0  0  0  3  0  0  0  0  0  0
  191.3970  176.5920  139.3030 C   0  0  0  0  0  3  0  0  0  0  0  0
  192.1270  176.0770  138.0910 C   0  0  0  0  0  2  0  0  0  0  0  0
  190.2350  177.0790  138.8940 C   0  0  0  0  0  0  0  0  0  0  0  0
  185.6040  178.3660  142.5750 N   0  0  0  0  0  0  0  0  0  0  0  0
  186.9160  177.7310  142.2940 C   0  0  2  0  0  3  0  0  0  0  0  0
  189.2800  177.5260  143.4540 C   0  0  0  0  0  2  0  0  0  0  0  0
  189.2220  177.6670  139.6500 C   0  0  0  0  0  0  0  0  0  0  0  0
  186.7130  178.4240  137.0510 O   0  0  0  0  0  1  0  0  0  0  0  0
  186.0320  178.2100  144.9330 C   0  0  0  0  0  0  0  0  0  0  0  0
  189.0610  177.8890  141.0720 C   0  0  0  0  0  0  0  0  0  0  0  0
  183.8950  178.8290  144.3040 C   0  0  0  0  0  2  0  0  0  0  0  0
  185.4760  179.0020  146.0400 C   0  0  0  0  0  2  0  0  0  0  0  0
  189.7610  177.3280  142.0500 C   0  0  0  0  0  3  0  0  0  0  0  0
  187.1300  178.6240  139.9730 N   0  0  0  0  0  2  0  0  0  0  0  0
  187.7530  177.3350  143.5730 C   0  0  1  0  0  3  0  0  0  0  0  0
  184.0650  179.1870  145.7180 N   0  0  0  0  0  2  0  0  0  0  0  0
  185.0550  177.9380  143.8720 C   0  0  1  0  0  3  0  0  0  0  0  0
  190.0750  176.9590  137.5300 C   0  0  0  0  0  0  0  0  0  0  0  0
  187.8850  177.9830  137.6520 C   0  0  0  0  0  0  0  0  0  0  0  0
  188.0700  178.1030  139.0400 C   0  0  0  0  0  0  0  0  0  0  0  0
  191.2950  176.1140  135.6460 O   0  0  0  0  0  0  0  0  0  0  0  0
  191.8140  174.8750  135.1920 C   0  0  0  0  0  1  0  0  0  0  0  0
  184.6890  177.8780  141.5440 C   0  0  0  0  0  2  0  0  0  0  0  0
  181.4660  179.6340  140.4140 C   0  0  0  0  0  2  0  0  0  0  0  0
  183.8130  179.0050  141.0140 C   0  0  2  0  0  3  0  0  0  0  0  0
  182.3540  178.5630  141.0390 C   0  0  0  0  0  2  0  0  0  0  0  0
  183.3570  180.4570  139.0940 N   0  0  0  0  0  2  0  0  0  0  0  0
  181.9810  179.9710  139.0160 C   0  0  0  0  0  2  0  0  0  0  0  0
  184.2080  179.3750  139.5850 C   0  0  0  0  0  2  0  0  0  0  0  0
  1 22  2  0  0  0  0
  1  6  1  0  0  0  0
  2 18  1  6  0  0  0
  2  9  1  0  0  0  0
  3 13  2  0  0  0  0
  4 22  1  0  0  0  0
  4 23  2  0  0  0  0
  6  5  1  0  0  0  0
  7  5  2  0  0  0  0
  7 11  1  0  0  0  0
  8 21  1  0  0  0  0
  9  8  1  1  0  0  0
  9 19  1  0  0  0  0
 11 14  1  0  0  0  0
 12 23  1  0  0  0  0
 13 16  1  0  0  0  0
 14  2  1  0  0  0  0
 14 17  2  0  0  0  0
 15 20  1  0  0  0  0
 17 10  1  0  0  0  0
 19 10  1  6  0  0  0
 19  3  1  0  0  0  0
 20 16  1  0  0  0  0
 21 15  1  1  0  0  0
 21 13  1  0  0  0  0
 22  7  1  0  0  0  0
 23 24  1  0  0  0  0
 24 11  2  0  0  0  0
 24 18  1  0  0  0  0
 25  1  1  0  0  0  0
 26 25  1  0  0  0  0
 27  8  1  0  0  0  0
 28 30  1  0  0  0  0
 29 30  1  0  0  0  0
 29 27  1  6  0  0  0
 31 33  1  0  0  0  0
 32 31  1  0  0  0  0
 32 28  1  0  0  0  0
 33 29  1  0  0  0  0
M  END
>  <MODEL>
8

>  <REMARK>
 VINA RESULT:      -8.9      1.905      3.001
  Name = 
  3 active torsions:
  status: ('A' for Active; 'I' for Inactive)
    1  A    between atoms: C_1  and  O_13
    2  A    between atoms: C_3  and  C_7
    3  A    between atoms: C_7  and  N_11
                            x       y       z     vdW  Elec       q    Type
                         _______ _______ _______ _____ _____    ______ ____

>  <TORSDO>
F 3

$$$$
=
 OpenBabel11042409493D

 33 39  0  0  1  0  0  0  0  0999 V2000
  189.4430  176.9680  145.1830 C   0  0  0  0  0  0  0  0  0  0  0  0
  184.7890  179.2930  142.3970 C   0  0  1  0  0  3  0  0  0  0  0  0
  181.2870  179.3830  142.8730 N   0  0  0  0  0  0  0  0  0  0  0  0
  189.1340  177.4680  142.8030 C   0  0  0  0  0  3  0  0  0  0  0  0
  187.3560  177.7030  145.8870 C   0  0  0  0  0  3  0  0  0  0  0  0
  188.6230  177.1000  146.4330 C   0  0  0  0  0  2  0  0  0  0  0  0
  187.5140  177.8500  144.5800 C   0  0  0  0  0  0  0  0  0  0  0  0
  182.9850  178.9320  140.7110 N   0  0  0  0  0  0  0  0  0  0  0  0
  183.5000  178.5280  142.0430 C   0  0  2  0  0  3  0  0  0  0  0  0
  182.9890  179.0490  144.5810 C   0  0  0  0  0  2  0  0  0  0  0  0
  186.6170  178.3700  143.6470 C   0  0  0  0  0  0  0  0  0  0  0  0
  188.5450  178.0440  140.5160 O   0  0  0  0  0  1  0  0  0  0  0  0
  180.8290  179.3660  141.6770 C   0  0  0  0  0  0  0  0  0  0  0  0
  185.2550  178.8500  143.7570 C   0  0  0  0  0  0  0  0  0  0  0  0
  180.9580  179.3980  139.3690 C   0  0  0  0  0  2  0  0  0  0  0  0
  179.7500  180.2460  141.2040 C   0  0  0  0  0  2  0  0  0  0  0  0
  184.4230  178.6600  144.7720 C   0  0  0  0  0  3  0  0  0  0  0  0
  185.9040  178.9350  141.5100 N   0  0  0  0  0  2  0  0  0  0  0  0
  182.4430  178.5860  143.2150 C   0  0  1  0  0  3  0  0  0  0  0  0
  179.7130  180.0730  139.7560 N   0  0  0  0  0  2  0  0  0  0  0  0
  181.5390  178.6870  140.5860 C   0  0  1  0  0  3  0  0  0  0  0  0
  188.7510  177.4160  144.1550 C   0  0  0  0  0  0  0  0  0  0  0  0
  188.2140  177.9840  141.8640 C   0  0  0  0  0  0  0  0  0  0  0  0
  186.9600  178.4290  142.3170 C   0  0  0  0  0  0  0  0  0  0  0  0
  190.7370  176.4540  145.0960 O   0  0  0  0  0  0  0  0  0  0  0  0
  191.6660  176.6010  146.1570 C   0  0  0  0  0  1  0  0  0  0  0  0
  183.6490  178.0650  139.7390 C   0  0  0  0  0  2  0  0  0  0  0  0
  181.6990  175.0300  138.4220 C   0  0  0  0  0  2  0  0  0  0  0  0
  182.6310  177.3030  138.9030 C   0  0  2  0  0  3  0  0  0  0  0  0
  182.6340  175.8360  139.3190 C   0  0  0  0  0  2  0  0  0  0  0  0
  181.9720  176.6740  136.6280 N   0  0  0  0  0  2  0  0  0  0  0  0
  182.0760  175.2540  136.9600 C   0  0  0  0  0  2  0  0  0  0  0  0
  182.9590  177.4100  137.4140 C   0  0  0  0  0  2  0  0  0  0  0  0
  1  6  1  0  0  0  0
  2 18  1  6  0  0  0
  2 14  1  0  0  0  0
  3 19  1  0  0  0  0
  4 22  1  0  0  0  0
  5  6  1  0  0  0  0
  7  5  2  0  0  0  0
  9  8  1  6  0  0  0
  9  2  1  0  0  0  0
  9 19  1  0  0  0  0
 10 17  1  0  0  0  0
 11 14  1  0  0  0  0
 11  7  1  0  0  0  0
 12 23  1  0  0  0  0
 13  3  2  0  0  0  0
 14 17  2  0  0  0  0
 15 20  1  0  0  0  0
 16 13  1  0  0  0  0
 18 24  1  0  0  0  0
 19 10  1  1  0  0  0
 20 16  1  0  0  0  0
 21 15  1  6  0  0  0
 21  8  1  0  0  0  0
 21 13  1  0  0  0  0
 22  7  1  0  0  0  0
 22  1  2  0  0  0  0
 23 24  1  0  0  0  0
 23  4  2  0  0  0  0
 24 11  2  0  0  0  0
 25  1  1  0  0  0  0
 25 26  1  0  0  0  0
 27  8  1  0  0  0  0
 28 30  1  0  0  0  0
 29 30  1  0  0  0  0
 29 27  1  1  0  0  0
 31 32  1  0  0  0  0
 31 33  1  0  0  0  0
 32 28  1  0  0  0  0
 33 29  1  0  0  0  0
M  END
>  <MODEL>
9

>  <REMARK>
 VINA RESULT:      -8.8      3.460      7.563
  Name = 
  3 active torsions:
  status: ('A' for Active; 'I' for Inactive)
    1  A    between atoms: C_1  and  O_13
    2  A    between atoms: C_3  and  C_7
    3  A    between atoms: C_7  and  N_11
                            x       y       z     vdW  Elec       q    Type
                         _______ _______ _______ _____ _____    ______ ____

>  <TORSDO>
F 3

$$$$
