=
 OpenBabel11042411393D

 45 51  0  0  1  0  0  0  0  0999 V2000
  185.2790  173.5850  135.7580 C   0  0  2  0  0  3  0  0  0  0  0  0
  180.7560  179.0450  140.3110 C   0  0  0  0  0  3  0  0  0  0  0  0
  188.9560  176.8200  136.0230 N   0  0  0  0  0  0  0  0  0  0  0  0
  184.6800  176.2930  136.7400 C   0  0  2  0  0  3  0  0  0  0  0  0
  179.6400  179.0370  139.4710 C   0  0  0  0  0  3  0  0  0  0  0  0
  188.4890  175.5350  136.5510 C   0  0  1  0  0  3  0  0  0  0  0  0
  186.5730  173.9100  136.5070 C   0  0  0  0  0  2  0  0  0  0  0  0
  184.0120  173.8610  136.5840 C   0  0  0  0  0  2  0  0  0  0  0  0
  185.7180  178.9940  141.9740 C   0  0  0  0  0  3  0  0  0  0  0  0
  179.6540  178.2780  138.2990 C   0  0  0  0  0  3  0  0  0  0  0  0
  180.7740  176.7890  136.7790 O   0  0  0  0  0  1  0  0  0  0  0  0
  188.8560  175.3840  138.3390 S   0  0  0  0  0  0  0  0  0  0  0  0
  183.0440  178.2950  140.8360 N   0  0  0  0  0  2  0  0  0  0  0  0
  186.9240  178.1780  143.9060 C   0  0  0  0  0  3  0  0  0  0  0  0
  188.6270  177.4590  141.2600 C   0  0  0  0  0  2  0  0  0  0  0  0
  184.5090  178.3620  143.9780 C   0  0  0  0  0  0  0  0  0  0  0  0
  190.2980  177.4030  139.4320 C   0  0  0  0  0  3  0  0  0  0  0  0
  189.2610  177.1370  138.3890 C   0  0  1  0  0  3  0  0  0  0  0  0
  182.9190  175.4400  138.0720 O   0  0  0  0  0  0  0  0  0  0  0  0
  183.1550  176.7630  138.4660 C   0  0  2  0  0  3  0  0  0  0  0  0
  188.2120  178.7960  141.8520 C   0  0  0  0  0  2  0  0  0  0  0  0
  181.9020  177.5140  138.8120 C   0  0  0  0  0  0  0  0  0  0  0  0
  184.1370  175.0860  137.4810 C   0  0  2  0  0  3  0  0  0  0  0  0
  183.3180  178.2030  144.6790 O   0  0  0  0  0  1  0  0  0  0  0  0
  185.7190  178.0300  144.5970 C   0  0  0  0  0  3  0  0  0  0  0  0
  186.1670  176.3940  137.0280 C   0  0  0  0  0  2  0  0  0  0  0  0
  183.2200  179.1780  141.9770 C   0  0  0  0  0  2  0  0  0  0  0  0
  186.9270  178.6610  142.5940 C   0  0  0  0  0  0  0  0  0  0  0  0
  180.7800  177.5210  137.9610 C   0  0  0  0  0  0  0  0  0  0  0  0
  189.8060  178.8270  136.8260 F   0  0  0  0  0  0  0  0  0  0  0  0
  184.5050  178.8470  142.6620 C   0  0  0  0  0  0  0  0  0  0  0  0
  183.9570  177.4420  137.3800 C   0  0  0  0  0  2  0  0  0  0  0  0
  190.0230  177.5410  140.7300 C   0  0  0  0  0  0  0  0  0  0  0  0
  181.8900  178.2870  139.9870 C   0  0  0  0  0  0  0  0  0  0  0  0
  189.8050  177.4570  137.0210 C   0  0  2  0  0  3  0  0  0  0  0  0
  186.9970  175.3610  136.2530 C   0  0  1  0  0  3  0  0  0  0  0  0
  191.0680  177.7670  141.6170 O   0  0  0  0  0  1  0  0  0  0  0  0
  185.2880  172.1830  135.3420 C   0  0  0  0  0  0  0  0  0  0  0  0
  185.2950  171.0730  135.0150 N   0  0  0  0  0  0  0  0  0  0  0  0
  189.7940  176.5250  134.8720 C   0  0  0  0  0  2  0  0  0  0  0  0
  191.1340  175.9760  135.3320 C   0  0  2  0  0  3  0  0  0  0  0  0
  193.2030  175.6160  134.5940 C   0  0  0  0  0  2  0  0  0  0  0  0
  192.5720  174.2430  134.5940 C   0  0  0  0  0  2  0  0  0  0  0  0
  192.1790  176.5720  134.6090 O   0  0  0  0  0  0  0  0  0  0  0  0
  191.1820  174.4860  135.0990 C   0  0  0  0  0  2  0  0  0  0  0  0
  1 38  1  1  0  0  0
  1  7  1  0  0  0  0
  1  8  1  0  0  0  0
  3  6  1  0  0  0  0
  3 35  1  0  0  0  0
  4 26  1  1  0  0  0
  4 32  1  0  0  0  0
  4 23  1  0  0  0  0
  5  2  2  0  0  0  0
  6 12  1  1  0  0  0
  9 28  2  0  0  0  0
  9 31  1  0  0  0  0
 10  5  1  0  0  0  0
 11 29  1  0  0  0  0
 12 18  1  0  0  0  0
 13 27  1  0  0  0  0
 14 25  2  0  0  0  0
 15 21  1  0  0  0  0
 16 25  1  0  0  0  0
 16 24  1  0  0  0  0
 17 33  2  0  0  0  0
 18 17  1  1  0  0  0
 19 20  1  0  0  0  0
 20 32  1  6  0  0  0
 20 22  1  0  0  0  0
 21 28  1  0  0  0  0
 22 34  2  0  0  0  0
 23  8  1  6  0  0  0
 23 19  1  0  0  0  0
 27 31  1  0  0  0  0
 28 14  1  0  0  0  0
 29 10  2  0  0  0  0
 29 22  1  0  0  0  0
 31 16  2  0  0  0  0
 33 15  1  0  0  0  0
 33 37  1  0  0  0  0
 34  2  1  0  0  0  0
 34 13  1  0  0  0  0
 35 30  1  6  0  0  0
 35 18  1  0  0  0  0
 36  7  1  1  0  0  0
 36  6  1  0  0  0  0
 36 26  1  0  0  0  0
 39 38  3  0  0  0  0
 40  3  1  0  0  0  0
 41 40  1  6  0  0  0
 42 43  1  0  0  0  0
 42 44  1  0  0  0  0
 43 45  1  0  0  0  0
 44 41  1  0  0  0  0
 45 41  1  0  0  0  0
M  END
>  <MODEL>
1

>  <REMARK>
 VINA RESULT:      -6.8      0.000      0.000
  Name = 
  3 active torsions:
  status: ('A' for Active; 'I' for Inactive)
    1  A    between atoms: C_1  and  C_19
    2  A    between atoms: C_3  and  C_7
    3  A    between atoms: N_4  and  C_7
                            x       y       z     vdW  Elec       q    Type
                         _______ _______ _______ _____ _____    ______ ____

>  <TORSDO>
F 3

$$$$
=
 OpenBabel11042411393D

 45 51  0  0  1  0  0  0  0  0999 V2000
  184.7610  179.3610  141.9190 C   0  0  2  0  0  3  0  0  0  0  0  0
  188.7650  176.2850  135.1730 C   0  0  0  0  0  3  0  0  0  0  0  0
  180.6640  179.2060  139.2260 N   0  0  0  0  0  0  0  0  0  0  0  0
  185.0170  178.9020  139.0240 C   0  0  2  0  0  3  0  0  0  0  0  0
  189.7900  177.2330  135.1750 C   0  0  0  0  0  3  0  0  0  0  0  0
  181.3690  178.5350  140.3210 C   0  0  1  0  0  3  0  0  0  0  0  0
  183.5030  178.5330  141.6490 C   0  0  0  0  0  2  0  0  0  0  0  0
  186.0380  178.7390  141.3300 C   0  0  0  0  0  2  0  0  0  0  0  0
  184.0360  174.0870  135.6150 C   0  0  0  0  0  3  0  0  0  0  0  0
  189.7920  178.2590  136.1220 C   0  0  0  0  0  3  0  0  0  0  0  0
  188.7870  179.3830  137.9950 O   0  0  0  0  0  1  0  0  0  0  0  0
  181.1890  176.7160  140.2050 S   0  0  0  0  0  0  0  0  0  0  0  0
  186.6760  175.3920  136.1280 N   0  0  0  0  0  2  0  0  0  0  0  0
  183.1450  171.9250  136.2370 C   0  0  0  0  0  3  0  0  0  0  0  0
  181.3500  174.2110  137.6380 C   0  0  0  0  0  2  0  0  0  0  0  0
  185.5000  172.1560  135.7130 C   0  0  0  0  0  0  0  0  0  0  0  0
  179.5530  175.8060  138.2440 C   0  0  0  0  0  3  0  0  0  0  0  0
  180.5220  176.9030  138.5430 C   0  0  1  0  0  3  0  0  0  0  0  0
  186.9990  177.6570  139.3790 O   0  0  0  0  0  0  0  0  0  0  0  0
  186.5960  177.4570  138.0530 C   0  0  2  0  0  3  0  0  0  0  0  0
  181.6020  173.8930  136.1730 C   0  0  0  0  0  2  0  0  0  0  0  0
  187.7430  177.3790  137.0870 C   0  0  0  0  0  0  0  0  0  0  0  0
  185.8030  178.0420  139.9950 C   0  0  2  0  0  3  0  0  0  0  0  0
  186.7580  171.5780  135.5800 O   0  0  0  0  0  1  0  0  0  0  0  0
  184.4150  171.3590  136.0940 C   0  0  0  0  0  3  0  0  0  0  0  0
  183.5630  178.4670  139.0800 C   0  0  0  0  0  2  0  0  0  0  0  0
  186.4660  174.3950  135.0910 C   0  0  0  0  0  2  0  0  0  0  0  0
  182.9530  173.2880  135.9970 C   0  0  0  0  0  0  0  0  0  0  0  0
  188.7710  178.3410  137.0740 C   0  0  0  0  0  0  0  0  0  0  0  0
  179.5870  178.6460  137.2460 F   0  0  0  0  0  0  0  0  0  0  0  0
  185.3130  173.5250  135.4700 C   0  0  0  0  0  0  0  0  0  0  0  0
  185.6060  178.5400  137.6920 C   0  0  0  0  0  2  0  0  0  0  0  0
  179.9160  174.5860  137.8440 C   0  0  0  0  0  0  0  0  0  0  0  0
  187.7380  176.3530  136.1250 C   0  0  0  0  0  0  0  0  0  0  0  0
  179.8180  178.2340  138.5470 C   0  0  2  0  0  3  0  0  0  0  0  0
  182.8380  178.9680  140.3380 C   0  0  1  0  0  3  0  0  0  0  0  0
  178.9310  173.6350  137.6120 O   0  0  0  0  0  1  0  0  0  0  0  0
  184.9330  179.5420  143.3600 C   0  0  0  0  0  0  0  0  0  0  0  0
  185.0680  179.6880  144.5000 N   0  0  0  0  0  0  0  0  0  0  0  0
  179.7840  180.1930  139.8320 C   0  0  0  0  0  2  0  0  0  0  0  0
  180.1810  181.5890  139.3800 C   0  0  2  0  0  3  0  0  0  0  0  0
  179.5710  183.1840  137.9530 C   0  0  0  0  0  2  0  0  0  0  0  0
  180.7860  182.5630  137.3060 C   0  0  0  0  0  2  0  0  0  0  0  0
  179.0610  182.2800  138.8940 O   0  0  0  0  0  0  0  0  0  0  0  0
  181.2010  181.4940  138.2720 C   0  0  0  0  0  2  0  0  0  0  0  0
  1 38  1  1  0  0  0
  2  5  2  0  0  0  0
  2 34  1  0  0  0  0
  3 40  1  0  0  0  0
  3  6  1  0  0  0  0
  4 32  1  6  0  0  0
  4 26  1  0  0  0  0
  4 23  1  0  0  0  0
  5 10  1  0  0  0  0
  6 12  1  6  0  0  0
  6 36  1  0  0  0  0
  7  1  1  0  0  0  0
  8  1  1  0  0  0  0
  9 28  1  0  0  0  0
 10 29  2  0  0  0  0
 15 33  1  0  0  0  0
 16 25  2  0  0  0  0
 18 17  1  1  0  0  0
 18 35  1  0  0  0  0
 18 12  1  0  0  0  0
 19 23  1  0  0  0  0
 20 32  1  6  0  0  0
 20 19  1  0  0  0  0
 21 15  1  0  0  0  0
 22 20  1  0  0  0  0
 23  8  1  1  0  0  0
 24 16  1  0  0  0  0
 25 14  1  0  0  0  0
 27 31  1  0  0  0  0
 27 13  1  0  0  0  0
 28 21  1  0  0  0  0
 28 14  2  0  0  0  0
 29 22  1  0  0  0  0
 29 11  1  0  0  0  0
 31  9  2  0  0  0  0
 31 16  1  0  0  0  0
 33 17  2  0  0  0  0
 34 13  1  0  0  0  0
 34 22  2  0  0  0  0
 35 30  1  6  0  0  0
 35  3  1  0  0  0  0
 36 26  1  6  0  0  0
 36  7  1  0  0  0  0
 37 33  1  0  0  0  0
 38 39  3  0  0  0  0
 41 40  1  6  0  0  0
 42 44  1  0  0  0  0
 43 42  1  0  0  0  0
 43 45  1  0  0  0  0
 44 41  1  0  0  0  0
 45 41  1  0  0  0  0
M  END
>  <MODEL>
2

>  <REMARK>
 VINA RESULT:      -6.8      3.236      9.718
  Name = 
  3 active torsions:
  status: ('A' for Active; 'I' for Inactive)
    1  A    between atoms: C_1  and  C_19
    2  A    between atoms: C_3  and  C_7
    3  A    between atoms: N_4  and  C_7
                            x       y       z     vdW  Elec       q    Type
                         _______ _______ _______ _____ _____    ______ ____

>  <TORSDO>
F 3

$$$$
=
 OpenBabel11042411393D

 45 51  0  0  1  0  0  0  0  0999 V2000
  183.7990  174.8600  136.4390 C   0  0  2  0  0  3  0  0  0  0  0  0
  181.5820  179.4920  143.1200 C   0  0  0  0  0  3  0  0  0  0  0  0
  187.8020  177.6790  136.1470 N   0  0  0  0  0  0  0  0  0  0  0  0
  183.8870  177.3200  138.0500 C   0  0  2  0  0  3  0  0  0  0  0  0
  180.2810  179.7510  142.6840 C   0  0  0  0  0  3  0  0  0  0  0  0
  187.3360  176.3470  136.5420 C   0  0  1  0  0  3  0  0  0  0  0  0
  185.2860  174.9160  136.7930 C   0  0  0  0  0  2  0  0  0  0  0  0
  182.8750  175.0380  137.6550 C   0  0  0  0  0  2  0  0  0  0  0  0
  186.7570  178.7130  143.1090 C   0  0  0  0  0  3  0  0  0  0  0  0
  179.8500  179.2720  141.4460 C   0  0  0  0  0  3  0  0  0  0  0  0
  180.2660  178.0790  139.4000 O   0  0  0  0  0  1  0  0  0  0  0  0
  188.1810  175.7780  138.0650 S   0  0  0  0  0  0  0  0  0  0  0  0
  183.7990  178.4790  142.7520 N   0  0  0  0  0  2  0  0  0  0  0  0
  188.3490  177.4040  144.3780 C   0  0  0  0  0  3  0  0  0  0  0  0
  189.0950  177.1650  141.2470 C   0  0  0  0  0  2  0  0  0  0  0  0
  186.1070  177.7420  145.2340 C   0  0  0  0  0  0  0  0  0  0  0  0
  190.1410  177.3940  139.0120 C   0  0  0  0  0  3  0  0  0  0  0  0
  188.8200  177.4420  138.3140 C   0  0  1  0  0  3  0  0  0  0  0  0
  182.4880  176.3240  139.6800 O   0  0  0  0  0  0  0  0  0  0  0  0
  183.0070  177.5060  140.2220 C   0  0  2  0  0  3  0  0  0  0  0  0
  189.0570  178.3660  142.1790 C   0  0  0  0  0  2  0  0  0  0  0  0
  182.0240  178.2520  141.0780 C   0  0  0  0  0  0  0  0  0  0  0  0
  183.4220  176.0220  138.6830 C   0  0  2  0  0  3  0  0  0  0  0  0
  185.1600  177.5190  146.2280 O   0  0  0  0  0  1  0  0  0  0  0  0
  187.3870  177.1950  145.3700 C   0  0  0  0  0  3  0  0  0  0  0  0
  185.3930  177.2460  137.8740 C   0  0  0  0  0  2  0  0  0  0  0  0
  184.4170  179.0730  143.9260 C   0  0  0  0  0  2  0  0  0  0  0  0
  188.0370  178.1640  143.2460 C   0  0  0  0  0  0  0  0  0  0  0  0
  180.7150  178.5290  140.6370 C   0  0  0  0  0  0  0  0  0  0  0  0
  189.1140  179.3920  137.0070 F   0  0  0  0  0  0  0  0  0  0  0  0
  185.7880  178.5060  144.1010 C   0  0  0  0  0  0  0  0  0  0  0  0
  183.5450  178.3490  139.0890 C   0  0  0  0  0  2  0  0  0  0  0  0
  190.2760  177.2610  140.3330 C   0  0  0  0  0  0  0  0  0  0  0  0
  182.4590  178.7440  142.3210 C   0  0  0  0  0  0  0  0  0  0  0  0
  188.9830  178.0160  136.9310 C   0  0  2  0  0  3  0  0  0  0  0  0
  185.8130  176.3530  136.6980 C   0  0  1  0  0  3  0  0  0  0  0  0
  191.5540  177.2090  140.8750 O   0  0  0  0  0  1  0  0  0  0  0  0
  183.4950  173.5880  135.7850 C   0  0  0  0  0  0  0  0  0  0  0  0
  183.2530  172.5820  135.2660 N   0  0  0  0  0  0  0  0  0  0  0  0
  188.2220  177.5860  134.7580 C   0  0  0  0  0  2  0  0  0  0  0  0
  189.2330  176.4640  134.5950 C   0  0  2  0  0  3  0  0  0  0  0  0
  190.0480  174.6980  135.6780 C   0  0  0  0  0  2  0  0  0  0  0  0
  191.1330  175.7400  135.8130 C   0  0  0  0  0  2  0  0  0  0  0  0
  188.8500  175.3490  135.3550 O   0  0  0  0  0  0  0  0  0  0  0  0
  190.5870  176.9260  135.0760 C   0  0  0  0  0  2  0  0  0  0  0  0
  1 38  1  1  0  0  0
  1  7  1  0  0  0  0
  1  8  1  0  0  0  0
  3  6  1  0  0  0  0
  3 35  1  0  0  0  0
  4 26  1  1  0  0  0
  4 23  1  0  0  0  0
  4 32  1  0  0  0  0
  5  2  1  0  0  0  0
  6 36  1  0  0  0  0
  6 12  1  1  0  0  0
  9 28  2  0  0  0  0
  9 31  1  0  0  0  0
 10  5  2  0  0  0  0
 11 29  1  0  0  0  0
 12 18  1  0  0  0  0
 13 27  1  0  0  0  0
 14 25  2  0  0  0  0
 15 21  1  0  0  0  0
 16 25  1  0  0  0  0
 16 24  1  0  0  0  0
 17 33  2  0  0  0  0
 18 17  1  6  0  0  0
 19 20  1  0  0  0  0
 20 32  1  6  0  0  0
 20 22  1  0  0  0  0
 21 28  1  0  0  0  0
 22 34  1  0  0  0  0
 23  8  1  6  0  0  0
 23 19  1  0  0  0  0
 27 31  1  0  0  0  0
 28 14  1  0  0  0  0
 29 22  2  0  0  0  0
 29 10  1  0  0  0  0
 31 16  2  0  0  0  0
 33 37  1  0  0  0  0
 33 15  1  0  0  0  0
 34 13  1  0  0  0  0
 34  2  2  0  0  0  0
 35 30  1  1  0  0  0
 35 18  1  0  0  0  0
 36  7  1  1  0  0  0
 36 26  1  0  0  0  0
 39 38  3  0  0  0  0
 40  3  1  0  0  0  0
 41 40  1  1  0  0  0
 41 45  1  0  0  0  0
 41 44  1  0  0  0  0
 42 43  1  0  0  0  0
 44 42  1  0  0  0  0
 45 43  1  0  0  0  0
M  END
>  <MODEL>
3

>  <REMARK>
 VINA RESULT:      -5.5      1.584      2.080
  Name = 
  3 active torsions:
  status: ('A' for Active; 'I' for Inactive)
    1  A    between atoms: C_1  and  C_19
    2  A    between atoms: C_3  and  C_7
    3  A    between atoms: N_4  and  C_7
                            x       y       z     vdW  Elec       q    Type
                         _______ _______ _______ _____ _____    ______ ____

>  <TORSDO>
F 3

$$$$
=
 OpenBabel11042411393D

 45 51  0  0  1  0  0  0  0  0999 V2000
  180.8840  178.7070  138.1630 C   0  0  2  0  0  3  0  0  0  0  0  0
  185.3230  172.2040  135.1650 C   0  0  0  0  0  3  0  0  0  0  0  0
  183.5080  178.2560  142.2830 N   0  0  0  0  0  0  0  0  0  0  0  0
  182.5200  176.2870  138.5110 C   0  0  2  0  0  3  0  0  0  0  0  0
  184.2180  171.4680  134.7320 C   0  0  0  0  0  3  0  0  0  0  0  0
  183.3470  179.0830  141.0840 C   0  0  1  0  0  3  0  0  0  0  0  0
  182.0840  179.2800  138.9210 C   0  0  0  0  0  2  0  0  0  0  0  0
  181.2820  177.8460  136.9540 C   0  0  0  0  0  2  0  0  0  0  0  0
  188.4010  175.3070  138.0420 C   0  0  0  0  0  3  0  0  0  0  0  0
  182.9270  171.9540  134.9490 C   0  0  0  0  0  3  0  0  0  0  0  0
  181.4360  173.6300  135.8150 O   0  0  0  0  0  1  0  0  0  0  0  0
  184.9720  179.6220  140.4320 S   0  0  0  0  0  0  0  0  0  0  0  0
  186.2690  174.1940  136.2690 N   0  0  0  0  0  2  0  0  0  0  0  0
  190.1900  176.8860  137.6370 C   0  0  0  0  0  3  0  0  0  0  0  0
  188.1910  178.1490  139.8330 C   0  0  0  0  0  2  0  0  0  0  0  0
  189.5170  175.3480  135.8890 C   0  0  0  0  0  0  0  0  0  0  0  0
  187.1340  178.9520  141.9250 C   0  0  0  0  0  3  0  0  0  0  0  0
  185.7840  178.4470  141.5280 C   0  0  1  0  0  3  0  0  0  0  0  0
  182.7860  176.1090  136.1650 O   0  0  0  0  0  0  0  0  0  0  0  0
  183.6870  175.2230  136.7700 C   0  0  2  0  0  3  0  0  0  0  0  0
  189.0520  176.8970  139.8660 C   0  0  0  0  0  2  0  0  0  0  0  0
  183.8440  173.9310  136.0220 C   0  0  0  0  0  0  0  0  0  0  0  0
  182.5490  177.0320  137.1900 C   0  0  2  0  0  3  0  0  0  0  0  0
  189.6730  174.8670  134.5940 O   0  0  0  0  0  1  0  0  0  0  0  0
  190.3380  176.3870  136.3400 C   0  0  0  0  0  3  0  0  0  0  0  0
  183.3020  177.0990  139.5270 C   0  0  0  0  0  2  0  0  0  0  0  0
  187.6400  173.7130  136.2660 C   0  0  0  0  0  2  0  0  0  0  0  0
  189.2230  176.3480  138.4910 C   0  0  0  0  0  0  0  0  0  0  0  0
  182.7330  173.1780  135.5960 C   0  0  0  0  0  0  0  0  0  0  0  0
  185.2150  177.2190  143.4680 F   0  0  0  0  0  0  0  0  0  0  0  0
  188.5450  174.8030  136.7420 C   0  0  0  0  0  0  0  0  0  0  0  0
  183.2540  175.0140  138.2020 C   0  0  0  0  0  2  0  0  0  0  0  0
  188.2230  178.8310  141.1650 C   0  0  0  0  0  0  0  0  0  0  0  0
  185.1430  173.4340  135.8120 C   0  0  0  0  0  0  0  0  0  0  0  0
  184.8890  178.3470  142.7360 C   0  0  2  0  0  3  0  0  0  0  0  0
  182.5290  178.3250  140.0350 C   0  0  1  0  0  3  0  0  0  0  0  0
  189.4240  179.3550  141.6250 O   0  0  0  0  0  1  0  0  0  0  0  0
  180.0180  179.7970  137.7160 C   0  0  0  0  0  0  0  0  0  0  0  0
  179.3330  180.6600  137.3600 N   0  0  0  0  0  0  0  0  0  0  0  0
  182.6770  178.8470  143.3200 C   0  0  0  0  0  2  0  0  0  0  0  0
  181.2180  178.8210  142.8940 C   0  0  2  0  0  3  0  0  0  0  0  0
  179.3710  180.0610  142.9700 C   0  0  0  0  0  2  0  0  0  0  0  0
  179.1440  179.0050  144.0260 C   0  0  0  0  0  2  0  0  0  0  0  0
  180.7450  180.1280  142.7010 O   0  0  0  0  0  0  0  0  0  0  0  0
  180.3850  178.1660  143.9680 C   0  0  0  0  0  2  0  0  0  0  0  0
  1 38  1  6  0  0  0
  1  7  1  0  0  0  0
  2 34  1  0  0  0  0
  3 35  1  0  0  0  0
  3 40  1  0  0  0  0
  4 32  1  6  0  0  0
  4 26  1  0  0  0  0
  5 10  1  0  0  0  0
  5  2  2  0  0  0  0
  6 12  1  6  0  0  0
  6  3  1  0  0  0  0
  8  1  1  0  0  0  0
  9 28  1  0  0  0  0
 10 29  2  0  0  0  0
 12 18  1  0  0  0  0
 14 28  2  0  0  0  0
 15 21  1  0  0  0  0
 15 33  1  0  0  0  0
 16 25  2  0  0  0  0
 16 31  1  0  0  0  0
 18 17  1  1  0  0  0
 18 35  1  0  0  0  0
 19 20  1  0  0  0  0
 19 23  1  0  0  0  0
 20 32  1  1  0  0  0
 22 20  1  0  0  0  0
 23  8  1  6  0  0  0
 23  4  1  0  0  0  0
 24 16  1  0  0  0  0
 25 14  1  0  0  0  0
 26 36  1  0  0  0  0
 27 13  1  0  0  0  0
 27 31  1  0  0  0  0
 28 21  1  0  0  0  0
 29 11  1  0  0  0  0
 29 22  1  0  0  0  0
 31  9  2  0  0  0  0
 33 37  1  0  0  0  0
 33 17  2  0  0  0  0
 34 22  2  0  0  0  0
 34 13  1  0  0  0  0
 35 30  1  6  0  0  0
 36  7  1  6  0  0  0
 36  6  1  0  0  0  0
 39 38  3  0  0  0  0
 41 40  1  1  0  0  0
 41 45  1  0  0  0  0
 42 43  1  0  0  0  0
 44 41  1  0  0  0  0
 44 42  1  0  0  0  0
 45 43  1  0  0  0  0
M  END
>  <MODEL>
4

>  <REMARK>
 VINA RESULT:      -5.1      2.508      8.316
  Name = 
  3 active torsions:
  status: ('A' for Active; 'I' for Inactive)
    1  A    between atoms: C_1  and  C_19
    2  A    between atoms: C_3  and  C_7
    3  A    between atoms: N_4  and  C_7
                            x       y       z     vdW  Elec       q    Type
                         _______ _______ _______ _____ _____    ______ ____

>  <TORSDO>
F 3

$$$$
=
 OpenBabel11042411393D

 45 51  0  0  1  0  0  0  0  0999 V2000
  185.3970  178.6930  143.4830 C   0  0  2  0  0  3  0  0  0  0  0  0
  191.5430  176.0410  138.3660 C   0  0  0  0  0  3  0  0  0  0  0  0
  182.8660  179.8020  139.4320 N   0  0  0  0  0  0  0  0  0  0  0  0
  186.8200  178.6770  140.9080 C   0  0  2  0  0  3  0  0  0  0  0  0
  192.5660  176.7530  138.9960 C   0  0  0  0  0  3  0  0  0  0  0  0
  182.9530  178.8330  140.5270 C   0  0  1  0  0  3  0  0  0  0  0  0
  184.2940  178.1880  142.5510 C   0  0  0  0  0  2  0  0  0  0  0  0
  186.7250  177.9350  143.3220 C   0  0  0  0  0  2  0  0  0  0  0  0
  186.8720  174.7840  136.3680 C   0  0  0  0  0  3  0  0  0  0  0  0
  192.2740  177.5860  140.0770 C   0  0  0  0  0  3  0  0  0  0  0  0
  190.6930  178.5630  141.6030 O   0  0  0  0  0  1  0  0  0  0  0  0
  182.6400  177.1300  139.9270 S   0  0  0  0  0  0  0  0  0  0  0  0
  189.1620  175.4350  138.1760 N   0  0  0  0  0  2  0  0  0  0  0  0
  185.5670  172.7690  136.0620 C   0  0  0  0  0  3  0  0  0  0  0  0
  183.6090  175.1030  137.1270 C   0  0  0  0  0  2  0  0  0  0  0  0
  187.9280  172.6110  136.5850 C   0  0  0  0  0  0  0  0  0  0  0  0
  181.9150  176.9010  137.3240 C   0  0  0  0  0  3  0  0  0  0  0  0
  182.7770  177.7190  138.2310 C   0  0  1  0  0  3  0  0  0  0  0  0
  188.3050  177.0220  141.7190 O   0  0  0  0  0  0  0  0  0  0  0  0
  188.4920  177.1280  140.3350 C   0  0  2  0  0  3  0  0  0  0  0  0
  184.4300  174.9880  135.8520 C   0  0  0  0  0  2  0  0  0  0  0  0
  189.9260  176.9850  139.9140 C   0  0  0  0  0  0  0  0  0  0  0  0
  187.0110  177.5290  141.8810 C   0  0  2  0  0  3  0  0  0  0  0  0
  189.0480  171.8250  136.8320 O   0  0  0  0  0  1  0  0  0  0  0  0
  186.7040  171.9950  136.3070 C   0  0  0  0  0  3  0  0  0  0  0  0
  185.4450  178.5370  140.2790 C   0  0  0  0  0  2  0  0  0  0  0  0
  189.3090  174.6850  136.9390 C   0  0  0  0  0  2  0  0  0  0  0  0
  185.6480  174.1650  136.0910 C   0  0  0  0  0  0  0  0  0  0  0  0
  190.9600  177.7120  140.5370 C   0  0  0  0  0  0  0  0  0  0  0  0
  182.6900  179.8030  137.1150 F   0  0  0  0  0  0  0  0  0  0  0  0
  188.0160  174.0120  136.6150 C   0  0  0  0  0  0  0  0  0  0  0  0
  187.8800  178.4310  139.8750 C   0  0  0  0  0  2  0  0  0  0  0  0
  182.2770  175.7170  136.8280 C   0  0  0  0  0  0  0  0  0  0  0  0
  190.2220  176.1530  138.8190 C   0  0  0  0  0  0  0  0  0  0  0  0
  182.2910  179.1440  138.2660 C   0  0  2  0  0  3  0  0  0  0  0  0
  184.3100  178.9560  141.2250 C   0  0  1  0  0  3  0  0  0  0  0  0
  181.3890  175.0320  136.0090 O   0  0  0  0  0  1  0  0  0  0  0  0
  184.9520  178.5960  144.8730 C   0  0  0  0  0  0  0  0  0  0  0  0
  184.5990  178.5210  145.9730 N   0  0  0  0  0  0  0  0  0  0  0  0
  181.9260  180.8310  139.8500 C   0  0  0  0  0  2  0  0  0  0  0  0
  181.1480  181.3420  138.6490 C   0  0  2  0  0  3  0  0  0  0  0  0
  180.6420  183.2350  137.5940 C   0  0  0  0  0  2  0  0  0  0  0  0
  179.3770  182.8870  138.3420 C   0  0  0  0  0  2  0  0  0  0  0  0
  181.7080  182.5410  138.1810 O   0  0  0  0  0  0  0  0  0  0  0  0
  179.7160  181.6070  139.0460 C   0  0  0  0  0  2  0  0  0  0  0  0
  1 38  1  1  0  0  0
  2 34  2  0  0  0  0
  2  5  1  0  0  0  0
  3 40  1  0  0  0  0
  3  6  1  0  0  0  0
  4 32  1  6  0  0  0
  4 23  1  0  0  0  0
  5 10  2  0  0  0  0
  6 12  1  6  0  0  0
  6 36  1  0  0  0  0
  7  1  1  0  0  0  0
  8  1  1  0  0  0  0
  9 31  1  0  0  0  0
 10 29  1  0  0  0  0
 13 34  1  0  0  0  0
 14 28  1  0  0  0  0
 14 25  2  0  0  0  0
 16 31  2  0  0  0  0
 16 24  1  0  0  0  0
 18 17  1  6  0  0  0
 18 35  1  0  0  0  0
 18 12  1  0  0  0  0
 19 23  1  0  0  0  0
 20 32  1  1  0  0  0
 20 19  1  0  0  0  0
 21 28  1  0  0  0  0
 21 15  1  0  0  0  0
 22 20  1  0  0  0  0
 22 29  2  0  0  0  0
 23  8  1  1  0  0  0
 25 16  1  0  0  0  0
 26  4  1  0  0  0  0
 27 13  1  0  0  0  0
 28  9  2  0  0  0  0
 29 11  1  0  0  0  0
 31 27  1  0  0  0  0
 33 15  1  0  0  0  0
 33 17  2  0  0  0  0
 34 22  1  0  0  0  0
 35 30  1  6  0  0  0
 35  3  1  0  0  0  0
 36 26  1  6  0  0  0
 36  7  1  0  0  0  0
 37 33  1  0  0  0  0
 38 39  3  0  0  0  0
 41 45  1  0  0  0  0
 41 40  1  1  0  0  0
 42 44  1  0  0  0  0
 42 43  1  0  0  0  0
 43 45  1  0  0  0  0
 44 41  1  0  0  0  0
M  END
>  <MODEL>
5

>  <REMARK>
 VINA RESULT:      -5.1      2.795      9.594
  Name = 
  3 active torsions:
  status: ('A' for Active; 'I' for Inactive)
    1  A    between atoms: C_1  and  C_19
    2  A    between atoms: C_3  and  C_7
    3  A    between atoms: N_4  and  C_7
                            x       y       z     vdW  Elec       q    Type
                         _______ _______ _______ _____ _____    ______ ____

>  <TORSDO>
F 3

$$$$
