=
 OpenBabel11032419143D

 30 36  0  0  1  0  0  0  0  0999 V2000
  192.4150  175.1720  147.2410 C   0  0  0  0  0  3  0  0  0  0  0  0
  189.4810  177.2210  144.9660 C   0  0  0  0  0  0  0  0  0  0  0  0
  189.0250  178.0640  147.1710 C   0  0  0  0  0  0  0  0  0  0  0  0
  185.9880  178.3590  145.1370 C   0  0  0  0  0  0  0  0  0  0  0  0
  192.2450  175.0420  145.7150 C   0  0  0  0  0  3  0  0  0  0  0  0
  190.4080  176.2410  144.3400 C   0  0  1  0  0  3  0  0  0  0  0  0
  186.4460  177.5920  142.9110 N   0  0  0  0  0  0  0  0  0  0  0  0
  187.7620  177.3830  143.1890 C   0  0  0  0  0  0  0  0  0  0  0  0
  188.2110  177.5830  144.5200 C   0  0  0  0  0  0  0  0  0  0  0  0
  191.6710  176.4350  147.6960 C   0  0  0  0  0  2  0  0  0  0  0  0
  189.8980  177.4800  146.2510 C   0  0  0  0  0  0  0  0  0  0  0  0
  190.8640  176.7030  143.0070 C   0  0  0  0  0  3  0  0  0  0  0  0
  185.5580  178.0500  143.8320 C   0  0  0  0  0  0  0  0  0  0  0  0
  183.3330  178.7600  144.4200 C   0  0  0  0  0  3  0  0  0  0  0  0
  184.2250  178.2540  143.4730 C   0  0  0  0  0  3  0  0  0  0  0  0
  189.3790  178.2920  148.3580 O   0  0  0  0  0  0  0  0  0  0  0  0
  185.0560  178.8650  146.0530 C   0  0  0  0  0  3  0  0  0  0  0  0
  191.5090  176.2190  145.2970 N   0  0  0  0  0  0  0  0  0  0  0  0
  183.7610  179.0530  145.6770 N   0  0  0  0  0  0  0  0  0  0  0  0
  187.7590  178.3640  146.7660 N   0  0  0  0  0  2  0  0  0  0  0  0
  190.0420  177.0510  142.0100 C   0  0  0  0  0  0  0  0  0  0  0  0
  188.5590  177.1380  142.1320 C   0  0  0  0  0  2  0  0  0  0  0  0
  187.3240  178.1260  145.4880 C   0  0  0  0  0  0  0  0  0  0  0  0
  191.0840  176.9240  146.4350 C   0  0  2  0  0  3  0  0  0  0  0  0
  191.8370  177.7710  140.6190 O   0  0  0  0  0  0  0  0  0  0  0  0
  190.6430  177.3700  140.6940 C   0  0  0  0  0  0  0  0  0  0  0  0
  189.8650  177.2040  139.4290 C   0  0  0  0  0  2  0  0  0  0  0  0
  188.0050  178.5780  139.0440 O   0  0  0  0  0  0  0  0  0  0  0  0
  189.3600  178.5490  138.9450 C   0  0  2  0  0  3  0  0  0  0  0  0
  188.5320  178.3690  137.7800 N   0  0  0  0  0  2  0  0  0  0  0  0
  1 10  1  0  0  0  0
  2 11  2  0  0  0  0
  3 16  2  0  0  0  0
  4 23  1  0  0  0  0
  4 17  1  0  0  0  0
  5  1  2  0  0  0  0
  6 12  1  6  0  0  0
  6  2  1  0  0  0  0
  6 18  1  0  0  0  0
  7  8  2  0  0  0  0
  7 13  1  0  0  0  0
  8  9  1  0  0  0  0
  9  2  1  0  0  0  0
  9 23  2  0  0  0  0
 11 24  1  0  0  0  0
 11  3  1  0  0  0  0
 13  4  2  0  0  0  0
 14 19  1  0  0  0  0
 15 13  1  0  0  0  0
 15 14  2  0  0  0  0
 18  5  1  0  0  0  0
 18 24  1  0  0  0  0
 19 17  2  0  0  0  0
 20  3  1  0  0  0  0
 21 22  1  0  0  0  0
 21 12  2  0  0  0  0
 22  8  1  0  0  0  0
 23 20  1  0  0  0  0
 24 10  1  1  0  0  0
 25 26  2  0  0  0  0
 26 21  1  0  0  0  0
 27 26  1  0  0  0  0
 29 28  1  0  0  0  0
 29 27  1  1  0  0  0
 30 29  1  0  0  0  0
 30 28  1  0  0  0  0
M  END
>  <MODEL>
1

>  <REMARK>
 VINA RESULT:     -10.7      0.000      0.000
  Name = 
  3 active torsions:
  status: ('A' for Active; 'I' for Inactive)
    1  A    between atoms: C_7  and  C_13
    2  A    between atoms: C_7  and  C_23
    3  A    between atoms: C_23  and  C_26
                            x       y       z     vdW  Elec       q    Type
                         _______ _______ _______ _____ _____    ______ ____

>  <TORSDO>
F 3

$$$$
=
 OpenBabel11032419143D

 30 36  0  0  1  0  0  0  0  0999 V2000
  192.4980  174.9580  145.8640 C   0  0  0  0  0  3  0  0  0  0  0  0
  189.3210  177.2570  144.2500 C   0  0  0  0  0  0  0  0  0  0  0  0
  189.1900  177.8590  146.5730 C   0  0  0  0  0  0  0  0  0  0  0  0
  185.9080  178.3880  145.0240 C   0  0  0  0  0  0  0  0  0  0  0  0
  192.1170  174.9960  144.3710 C   0  0  0  0  0  3  0  0  0  0  0  0
  190.1330  176.3460  143.4000 C   0  0  1  0  0  3  0  0  0  0  0  0
  186.0400  177.8640  142.6870 N   0  0  0  0  0  0  0  0  0  0  0  0
  187.3770  177.6190  142.7560 C   0  0  0  0  0  0  0  0  0  0  0  0
  188.0090  177.6710  144.0250 C   0  0  0  0  0  0  0  0  0  0  0  0
  191.8490  176.1690  146.5490 C   0  0  0  0  0  2  0  0  0  0  0  0
  189.9160  177.3730  145.4850 C   0  0  0  0  0  0  0  0  0  0  0  0
  190.4110  176.9470  142.0730 C   0  0  0  0  0  3  0  0  0  0  0  0
  185.2970  178.2240  143.7660 C   0  0  0  0  0  0  0  0  0  0  0  0
  183.1880  178.8780  144.7300 C   0  0  0  0  0  3  0  0  0  0  0  0
  183.9320  178.4730  143.6200 C   0  0  0  0  0  3  0  0  0  0  0  0
  189.7080  177.9550  147.7180 O   0  0  0  0  0  0  0  0  0  0  0  0
  185.1210  178.7960  146.1090 C   0  0  0  0  0  3  0  0  0  0  0  0
  191.3550  176.2140  144.1870 N   0  0  0  0  0  0  0  0  0  0  0  0
  183.7910  179.0310  145.9390 N   0  0  0  0  0  0  0  0  0  0  0  0
  187.8860  178.2070  146.3830 N   0  0  0  0  0  2  0  0  0  0  0  0
  189.4670  177.4050  141.2430 C   0  0  0  0  0  0  0  0  0  0  0  0
  188.0170  177.4860  141.5790 C   0  0  0  0  0  2  0  0  0  0  0  0
  187.2750  178.1110  145.1600 C   0  0  0  0  0  0  0  0  0  0  0  0
  191.1050  176.7940  145.4420 C   0  0  2  0  0  3  0  0  0  0  0  0
  191.0920  177.7590  139.5380 O   0  0  0  0  0  0  0  0  0  0  0  0
  189.8880  177.8610  139.8980 C   0  0  0  0  0  0  0  0  0  0  0  0
  188.9000  178.4290  138.9320 C   0  0  0  0  0  2  0  0  0  0  0  0
  189.0190  176.5270  137.5660 O   0  0  0  0  0  0  0  0  0  0  0  0
  188.1400  177.3110  138.2430 C   0  0  2  0  0  3  0  0  0  0  0  0
  188.2850  177.4310  136.8150 N   0  0  0  0  0  2  0  0  0  0  0  0
  1 10  1  0  0  0  0
  2 11  2  0  0  0  0
  3 16  2  0  0  0  0
  4 23  1  0  0  0  0
  4 17  1  0  0  0  0
  5  1  2  0  0  0  0
  6 12  1  6  0  0  0
  6 18  1  0  0  0  0
  6  2  1  0  0  0  0
  7  8  2  0  0  0  0
  7 13  1  0  0  0  0
  8  9  1  0  0  0  0
  9  2  1  0  0  0  0
  9 23  2  0  0  0  0
 11  3  1  0  0  0  0
 13  4  2  0  0  0  0
 14 19  1  0  0  0  0
 15 13  1  0  0  0  0
 15 14  2  0  0  0  0
 18  5  1  0  0  0  0
 18 24  1  0  0  0  0
 19 17  2  0  0  0  0
 20  3  1  0  0  0  0
 21 22  1  0  0  0  0
 21 12  2  0  0  0  0
 22  8  1  0  0  0  0
 23 20  1  0  0  0  0
 24 11  1  0  0  0  0
 24 10  1  1  0  0  0
 25 26  2  0  0  0  0
 26 21  1  0  0  0  0
 27 26  1  0  0  0  0
 28 29  1  0  0  0  0
 29 27  1  1  0  0  0
 30 28  1  0  0  0  0
 30 29  1  0  0  0  0
M  END
>  <MODEL>
2

>  <REMARK>
 VINA RESULT:      -9.8      0.955      1.064
  Name = 
  3 active torsions:
  status: ('A' for Active; 'I' for Inactive)
    1  A    between atoms: C_7  and  C_13
    2  A    between atoms: C_7  and  C_23
    3  A    between atoms: C_23  and  C_26
                            x       y       z     vdW  Elec       q    Type
                         _______ _______ _______ _____ _____    ______ ____

>  <TORSDO>
F 3

$$$$
=
 OpenBabel11032419143D

 30 36  0  0  1  0  0  0  0  0999 V2000
  187.5530  178.6810  148.1620 C   0  0  0  0  0  3  0  0  0  0  0  0
  187.0110  177.9500  144.0190 C   0  0  0  0  0  0  0  0  0  0  0  0
  189.0240  176.7070  144.4470 C   0  0  0  0  0  0  0  0  0  0  0  0
  188.9100  177.5940  140.8900 C   0  0  0  0  0  0  0  0  0  0  0  0
  186.3750  179.2190  147.3260 C   0  0  0  0  0  3  0  0  0  0  0  0
  186.0850  178.8280  144.7830 C   0  0  1  0  0  3  0  0  0  0  0  0
  186.8710  178.7700  140.4310 N   0  0  0  0  0  0  0  0  0  0  0  0
  186.4220  178.6120  141.7060 C   0  0  0  0  0  0  0  0  0  0  0  0
  187.2790  177.9960  142.6530 C   0  0  0  0  0  0  0  0  0  0  0  0
  188.2100  177.5380  147.3750 C   0  0  0  0  0  2  0  0  0  0  0  0
  187.8420  177.2960  144.9000 C   0  0  0  0  0  0  0  0  0  0  0  0
  184.6770  178.6230  144.3660 C   0  0  0  0  0  3  0  0  0  0  0  0
  188.0740  178.3030  140.0060 C   0  0  0  0  0  0  0  0  0  0  0  0
  189.6870  177.9720  138.2490 C   0  0  0  0  0  3  0  0  0  0  0  0
  188.4650  178.4900  138.6800 C   0  0  0  0  0  3  0  0  0  0  0  0
  189.8100  176.1200  145.2370 O   0  0  0  0  0  0  0  0  0  0  0  0
  190.1280  177.0930  140.4120 C   0  0  0  0  0  3  0  0  0  0  0  0
  186.3030  178.3720  146.1520 N   0  0  0  0  0  0  0  0  0  0  0  0
  190.4860  177.2900  139.1140 N   0  0  0  0  0  0  0  0  0  0  0  0
  189.3310  176.8000  143.1230 N   0  0  0  0  0  2  0  0  0  0  0  0
  184.2460  178.7210  143.1040 C   0  0  0  0  0  0  0  0  0  0  0  0
  185.1320  178.9310  141.9240 C   0  0  0  0  0  2  0  0  0  0  0  0
  188.5140  177.4370  142.2250 C   0  0  0  0  0  0  0  0  0  0  0  0
  187.4170  177.5170  146.1330 C   0  0  2  0  0  3  0  0  0  0  0  0
  182.3470  178.4640  141.6870 O   0  0  0  0  0  0  0  0  0  0  0  0
  182.7880  178.6150  142.8590 C   0  0  0  0  0  0  0  0  0  0  0  0
  181.8110  178.6590  143.9890 C   0  0  0  0  0  2  0  0  0  0  0  0
  179.5380  178.9930  144.4570 O   0  0  0  0  0  0  0  0  0  0  0  0
  180.3920  178.6630  143.4530 C   0  0  2  0  0  3  0  0  0  0  0  0
  179.6150  177.6510  144.1220 N   0  0  0  0  0  2  0  0  0  0  0  0
  2  6  1  0  0  0  0
  2 11  2  0  0  0  0
  3 11  1  0  0  0  0
  3 16  2  0  0  0  0
  4 23  2  0  0  0  0
  5  1  2  0  0  0  0
  6 12  1  6  0  0  0
  6 18  1  0  0  0  0
  7  8  1  0  0  0  0
  8 22  1  0  0  0  0
  8  9  2  0  0  0  0
  9  2  1  0  0  0  0
 10  1  1  0  0  0  0
 11 24  1  0  0  0  0
 13  7  2  0  0  0  0
 13  4  1  0  0  0  0
 14 15  2  0  0  0  0
 14 19  1  0  0  0  0
 15 13  1  0  0  0  0
 17  4  1  0  0  0  0
 18  5  1  0  0  0  0
 19 17  2  0  0  0  0
 20  3  1  0  0  0  0
 21 12  2  0  0  0  0
 22 21  1  0  0  0  0
 23  9  1  0  0  0  0
 23 20  1  0  0  0  0
 24 18  1  0  0  0  0
 24 10  1  1  0  0  0
 25 26  2  0  0  0  0
 26 21  1  0  0  0  0
 26 27  1  0  0  0  0
 29 27  1  1  0  0  0
 29 30  1  0  0  0  0
 29 28  1  0  0  0  0
 30 28  1  0  0  0  0
M  END
>  <MODEL>
3

>  <REMARK>
 VINA RESULT:      -9.7      2.872      6.452
  Name = 
  3 active torsions:
  status: ('A' for Active; 'I' for Inactive)
    1  A    between atoms: C_7  and  C_13
    2  A    between atoms: C_7  and  C_23
    3  A    between atoms: C_23  and  C_26
                            x       y       z     vdW  Elec       q    Type
                         _______ _______ _______ _____ _____    ______ ____

>  <TORSDO>
F 3

$$$$
=
 OpenBabel11032419143D

 30 36  0  0  1  0  0  0  0  0999 V2000
  184.0060  178.2610  144.6700 C   0  0  0  0  0  3  0  0  0  0  0  0
  187.6150  177.9840  142.4610 C   0  0  0  0  0  0  0  0  0  0  0  0
  186.1650  179.0160  140.8460 C   0  0  0  0  0  0  0  0  0  0  0  0
  188.8670  177.2810  139.0750 C   0  0  0  0  0  0  0  0  0  0  0  0
  185.3270  177.6900  145.2220 C   0  0  0  0  0  3  0  0  0  0  0  0
  187.5090  177.4590  143.8480 C   0  0  1  0  0  3  0  0  0  0  0  0
  190.3660  176.3080  140.6740 N   0  0  0  0  0  0  0  0  0  0  0  0
  189.6870  176.8420  141.7260 C   0  0  0  0  0  0  0  0  0  0  0  0
  188.4910  177.5580  141.4640 C   0  0  0  0  0  0  0  0  0  0  0  0
  184.3300  179.0690  143.4070 C   0  0  0  0  0  2  0  0  0  0  0  0
  186.4920  178.7230  142.1700 C   0  0  0  0  0  0  0  0  0  0  0  0
  188.7390  177.7360  144.6270 C   0  0  0  0  0  3  0  0  0  0  0  0
  189.9900  176.4880  139.3810 C   0  0  0  0  0  0  0  0  0  0  0  0
  190.3630  176.1460  137.0260 C   0  0  0  0  0  3  0  0  0  0  0  0
  190.7420  175.9220  138.3510 C   0  0  0  0  0  3  0  0  0  0  0  0
  185.1310  179.6740  140.5550 O   0  0  0  0  0  0  0  0  0  0  0  0
  188.5260  177.4780  137.7300 C   0  0  0  0  0  3  0  0  0  0  0  0
  186.3730  178.2130  144.3660 N   0  0  0  0  0  0  0  0  0  0  0  0
  189.2750  176.9130  136.7450 N   0  0  0  0  0  0  0  0  0  0  0  0
  186.9780  178.5510  139.8560 N   0  0  0  0  0  2  0  0  0  0  0  0
  189.9700  177.3800  144.2420 C   0  0  0  0  0  0  0  0  0  0  0  0
  190.2940  176.7620  142.9250 C   0  0  0  0  0  2  0  0  0  0  0  0
  188.1080  177.8220  140.1210 C   0  0  0  0  0  0  0  0  0  0  0  0
  185.7860  178.8800  143.2780 C   0  0  2  0  0  3  0  0  0  0  0  0
  192.0760  178.3180  144.8440 O   0  0  0  0  0  0  0  0  0  0  0  0
  191.0870  177.6130  145.1860 C   0  0  0  0  0  0  0  0  0  0  0  0
  191.0620  177.0420  146.5670 C   0  0  0  0  0  2  0  0  0  0  0  0
  191.7540  175.1180  147.7150 O   0  0  0  0  0  0  0  0  0  0  0  0
  192.1080  175.9510  146.7020 C   0  0  2  0  0  3  0  0  0  0  0  0
  192.7470  176.0450  147.9890 N   0  0  0  0  0  2  0  0  0  0  0  0
  1  5  2  0  0  0  0
  2  6  1  0  0  0  0
  3 11  1  0  0  0  0
  4 13  1  0  0  0  0
  4 23  2  0  0  0  0
  6 18  1  0  0  0  0
  6 12  1  1  0  0  0
  7  8  1  0  0  0  0
  8 22  1  0  0  0  0
  9  8  2  0  0  0  0
  9  2  1  0  0  0  0
 10  1  1  0  0  0  0
 11  2  2  0  0  0  0
 11 24  1  0  0  0  0
 13  7  2  0  0  0  0
 14 15  2  0  0  0  0
 15 13  1  0  0  0  0
 16  3  2  0  0  0  0
 17  4  1  0  0  0  0
 18  5  1  0  0  0  0
 19 14  1  0  0  0  0
 19 17  2  0  0  0  0
 20 23  1  0  0  0  0
 20  3  1  0  0  0  0
 21 12  2  0  0  0  0
 21 26  1  0  0  0  0
 22 21  1  0  0  0  0
 23  9  1  0  0  0  0
 24 10  1  6  0  0  0
 24 18  1  0  0  0  0
 25 26  2  0  0  0  0
 26 27  1  0  0  0  0
 28 30  1  0  0  0  0
 29 27  1  1  0  0  0
 29 28  1  0  0  0  0
 29 30  1  0  0  0  0
M  END
>  <MODEL>
4

>  <REMARK>
 VINA RESULT:      -9.4      2.062      7.006
  Name = 
  3 active torsions:
  status: ('A' for Active; 'I' for Inactive)
    1  A    between atoms: C_7  and  C_13
    2  A    between atoms: C_7  and  C_23
    3  A    between atoms: C_23  and  C_26
                            x       y       z     vdW  Elec       q    Type
                         _______ _______ _______ _____ _____    ______ ____

>  <TORSDO>
F 3

$$$$
=
 OpenBabel11032419143D

 30 36  0  0  1  0  0  0  0  0999 V2000
  190.2330  176.1380  137.4010 C   0  0  0  0  0  3  0  0  0  0  0  0
  189.4480  177.4900  141.3440 C   0  0  0  0  0  0  0  0  0  0  0  0
  191.8510  177.4340  141.3460 C   0  0  0  0  0  0  0  0  0  0  0  0
  190.6550  177.1320  144.7990 C   0  0  0  0  0  0  0  0  0  0  0  0
  188.8240  176.3940  137.9740 C   0  0  0  0  0  3  0  0  0  0  0  0
  188.3480  177.1520  140.4030 C   0  0  1  0  0  3  0  0  0  0  0  0
  188.2600  177.2610  144.8240 N   0  0  0  0  0  0  0  0  0  0  0  0
  188.1990  177.4920  143.4830 C   0  0  0  0  0  0  0  0  0  0  0  0
  189.4040  177.4580  142.7360 C   0  0  0  0  0  0  0  0  0  0  0  0
  191.2490  176.8430  138.3100 C   0  0  0  0  0  2  0  0  0  0  0  0
  190.6400  177.5090  140.6570 C   0  0  0  0  0  0  0  0  0  0  0  0
  187.2220  178.1110  140.5200 C   0  0  0  0  0  3  0  0  0  0  0  0
  189.4290  177.0690  145.4890 C   0  0  0  0  0  0  0  0  0  0  0  0
  190.6290  176.6910  147.5430 C   0  0  0  0  0  3  0  0  0  0  0  0
  189.4180  176.8500  146.8670 C   0  0  0  0  0  3  0  0  0  0  0  0
  192.9540  177.4300  140.7370 O   0  0  0  0  0  0  0  0  0  0  0  0
  191.8450  176.9670  145.5210 C   0  0  0  0  0  3  0  0  0  0  0  0
  189.0130  177.2740  139.1100 N   0  0  0  0  0  0  0  0  0  0  0  0
  191.8060  176.7530  146.8640 N   0  0  0  0  0  0  0  0  0  0  0  0
  191.8220  177.3380  142.7050 N   0  0  0  0  0  2  0  0  0  0  0  0
  186.5910  178.3920  141.6660 C   0  0  0  0  0  0  0  0  0  0  0  0
  187.0020  177.8770  143.0030 C   0  0  0  0  0  2  0  0  0  0  0  0
  190.6480  177.3280  143.4120 C   0  0  0  0  0  0  0  0  0  0  0  0
  190.3870  177.4120  139.3620 C   0  0  2  0  0  3  0  0  0  0  0  0
  184.9660  179.6800  140.4930 O   0  0  0  0  0  0  0  0  0  0  0  0
  185.4020  179.2740  141.6040 C   0  0  0  0  0  0  0  0  0  0  0  0
  184.6800  179.6830  142.8470 C   0  0  0  0  0  2  0  0  0  0  0  0
  182.4790  179.4350  143.6180 O   0  0  0  0  0  0  0  0  0  0  0  0
  183.5300  178.7320  143.1210 C   0  0  2  0  0  3  0  0  0  0  0  0
  183.2340  178.7170  144.5310 N   0  0  0  0  0  2  0  0  0  0  0  0
  1  5  2  0  0  0  0
  1 10  1  0  0  0  0
  2  9  1  0  0  0  0
  3 20  1  0  0  0  0
  4 13  2  0  0  0  0
  4 17  1  0  0  0  0
  5 18  1  0  0  0  0
  6 12  1  6  0  0  0
  6  2  1  0  0  0  0
  7 13  1  0  0  0  0
  8  7  2  0  0  0  0
  9 23  2  0  0  0  0
  9  8  1  0  0  0  0
 11  2  2  0  0  0  0
 11  3  1  0  0  0  0
 12 21  2  0  0  0  0
 13 15  1  0  0  0  0
 15 14  2  0  0  0  0
 16  3  2  0  0  0  0
 17 19  2  0  0  0  0
 18 24  1  0  0  0  0
 18  6  1  0  0  0  0
 19 14  1  0  0  0  0
 20 23  1  0  0  0  0
 21 22  1  0  0  0  0
 22  8  1  0  0  0  0
 23  4  1  0  0  0  0
 24 10  1  1  0  0  0
 24 11  1  0  0  0  0
 25 26  2  0  0  0  0
 26 21  1  0  0  0  0
 26 27  1  0  0  0  0
 28 30  1  0  0  0  0
 29 27  1  1  0  0  0
 29 28  1  0  0  0  0
 29 30  1  0  0  0  0
M  END
>  <MODEL>
5

>  <REMARK>
 VINA RESULT:      -9.2      2.279      6.370
  Name = 
  3 active torsions:
  status: ('A' for Active; 'I' for Inactive)
    1  A    between atoms: C_7  and  C_13
    2  A    between atoms: C_7  and  C_23
    3  A    between atoms: C_23  and  C_26
                            x       y       z     vdW  Elec       q    Type
                         _______ _______ _______ _____ _____    ______ ____

>  <TORSDO>
F 3

$$$$
=
 OpenBabel11032419143D

 30 36  0  0  1  0  0  0  0  0999 V2000
  189.5940  177.8710  147.7220 C   0  0  0  0  0  3  0  0  0  0  0  0
  188.2490  177.5070  143.7160 C   0  0  0  0  0  0  0  0  0  0  0  0
  190.2390  176.1600  143.6580 C   0  0  0  0  0  0  0  0  0  0  0  0
  189.5080  177.3440  140.2640 C   0  0  0  0  0  0  0  0  0  0  0  0
  188.3090  178.5190  147.1680 C   0  0  0  0  0  3  0  0  0  0  0  0
  187.5300  178.3520  144.7050 C   0  0  1  0  0  3  0  0  0  0  0  0
  187.4830  178.6280  140.2910 N   0  0  0  0  0  0  0  0  0  0  0  0
  187.2730  178.3810  141.6130 C   0  0  0  0  0  0  0  0  0  0  0  0
  188.2590  177.6570  142.3310 C   0  0  0  0  0  0  0  0  0  0  0  0
  190.0310  176.7740  146.7410 C   0  0  0  0  0  2  0  0  0  0  0  0
  189.1950  176.7520  144.3700 C   0  0  0  0  0  0  0  0  0  0  0  0
  186.0590  178.2340  144.5500 C   0  0  0  0  0  3  0  0  0  0  0  0
  188.5600  178.1540  139.6120 C   0  0  0  0  0  0  0  0  0  0  0  0
  189.7970  177.9110  137.5590 C   0  0  0  0  0  3  0  0  0  0  0  0
  188.7050  178.4360  138.2520 C   0  0  0  0  0  3  0  0  0  0  0  0
  191.1280  175.4810  144.2380 O   0  0  0  0  0  0  0  0  0  0  0  0
  190.5880  176.8400  139.5270 C   0  0  0  0  0  3  0  0  0  0  0  0
  187.9760  177.7760  145.9700 N   0  0  0  0  0  0  0  0  0  0  0  0
  190.7070  177.1310  138.2030 N   0  0  0  0  0  0  0  0  0  0  0  0
  190.2980  176.3510  142.3100 N   0  0  0  0  0  2  0  0  0  0  0  0
  185.4050  178.4530  143.4040 C   0  0  0  0  0  0  0  0  0  0  0  0
  186.0650  178.7280  142.0960 C   0  0  0  0  0  2  0  0  0  0  0  0
  189.3620  177.0900  141.6340 C   0  0  0  0  0  0  0  0  0  0  0  0
  189.0200  176.8850  145.6750 C   0  0  2  0  0  3  0  0  0  0  0  0
  183.3050  178.5460  144.5260 O   0  0  0  0  0  0  0  0  0  0  0  0
  183.9240  178.4210  143.4340 C   0  0  0  0  0  0  0  0  0  0  0  0
  183.1300  178.2650  142.1770 C   0  0  0  0  0  2  0  0  0  0  0  0
  180.8090  178.2280  141.8510 O   0  0  0  0  0  0  0  0  0  0  0  0
  181.8210  179.0220  142.2880 C   0  0  2  0  0  3  0  0  0  0  0  0
  181.2520  179.2090  140.9780 N   0  0  0  0  0  2  0  0  0  0  0  0
  2 11  2  0  0  0  0
  2  6  1  0  0  0  0
  3 16  2  0  0  0  0
  3 11  1  0  0  0  0
  4 23  2  0  0  0  0
  5  1  2  0  0  0  0
  6 12  1  6  0  0  0
  6 18  1  0  0  0  0
  7  8  1  0  0  0  0
  8 22  1  0  0  0  0
  8  9  2  0  0  0  0
  9  2  1  0  0  0  0
 10  1  1  0  0  0  0
 11 24  1  0  0  0  0
 13  4  1  0  0  0  0
 13  7  2  0  0  0  0
 14 19  1  0  0  0  0
 14 15  2  0  0  0  0
 15 13  1  0  0  0  0
 17  4  1  0  0  0  0
 18  5  1  0  0  0  0
 19 17  2  0  0  0  0
 20  3  1  0  0  0  0
 21 26  1  0  0  0  0
 21 12  2  0  0  0  0
 22 21  1  0  0  0  0
 23 20  1  0  0  0  0
 23  9  1  0  0  0  0
 24 18  1  0  0  0  0
 24 10  1  1  0  0  0
 26 25  2  0  0  0  0
 27 26  1  0  0  0  0
 28 29  1  0  0  0  0
 29 27  1  6  0  0  0
 30 28  1  0  0  0  0
 30 29  1  0  0  0  0
M  END
>  <MODEL>
6

>  <REMARK>
 VINA RESULT:      -9.1      2.673      5.886
  Name = 
  3 active torsions:
  status: ('A' for Active; 'I' for Inactive)
    1  A    between atoms: C_7  and  C_13
    2  A    between atoms: C_7  and  C_23
    3  A    between atoms: C_23  and  C_26
                            x       y       z     vdW  Elec       q    Type
                         _______ _______ _______ _____ _____    ______ ____

>  <TORSDO>
F 3

$$$$
=
 OpenBabel11032419143D

 30 36  0  0  1  0  0  0  0  0999 V2000
  189.2190  176.7260  147.3980 C   0  0  0  0  0  3  0  0  0  0  0  0
  186.7900  178.2270  144.2620 C   0  0  0  0  0  0  0  0  0  0  0  0
  185.6780  179.1450  146.1860 C   0  0  0  0  0  0  0  0  0  0  0  0
  183.2750  178.9130  143.4250 C   0  0  0  0  0  0  0  0  0  0  0  0
  189.4740  176.4760  145.8990 C   0  0  0  0  0  3  0  0  0  0  0  0
  187.9490  177.3360  143.9910 C   0  0  1  0  0  3  0  0  0  0  0  0
  184.3870  178.0690  141.4750 N   0  0  0  0  0  0  0  0  0  0  0  0
  185.5960  178.0500  142.0990 C   0  0  0  0  0  0  0  0  0  0  0  0
  185.6530  178.3920  143.4740 C   0  0  0  0  0  0  0  0  0  0  0  0
  188.2490  177.9090  147.5230 C   0  0  0  0  0  2  0  0  0  0  0  0
  186.8210  178.6210  145.5800 C   0  0  0  0  0  0  0  0  0  0  0  0
  188.6900  177.7660  142.7810 C   0  0  0  0  0  3  0  0  0  0  0  0
  183.2430  178.4670  142.0900 C   0  0  0  0  0  0  0  0  0  0  0  0
  180.8780  178.9200  142.0190 C   0  0  0  0  0  3  0  0  0  0  0  0
  182.0390  178.4740  141.3840 C   0  0  0  0  0  3  0  0  0  0  0  0
  185.6780  179.4940  147.3960 O   0  0  0  0  0  0  0  0  0  0  0  0
  182.0850  179.3520  144.0190 C   0  0  0  0  0  3  0  0  0  0  0  0
  188.7530  177.5190  145.1960 N   0  0  0  0  0  0  0  0  0  0  0  0
  180.9240  179.3470  143.3100 N   0  0  0  0  0  0  0  0  0  0  0  0
  184.5400  179.2530  145.4440 N   0  0  0  0  0  2  0  0  0  0  0  0
  188.1300  177.9390  141.5780 C   0  0  0  0  0  0  0  0  0  0  0  0
  186.6670  177.8420  141.3090 C   0  0  0  0  0  2  0  0  0  0  0  0
  184.4870  178.8770  144.1270 C   0  0  0  0  0  0  0  0  0  0  0  0
  187.9690  178.2350  146.1140 C   0  0  2  0  0  3  0  0  0  0  0  0
  188.6870  179.1130  139.5810 O   0  0  0  0  0  0  0  0  0  0  0  0
  189.0210  178.2470  140.4360 C   0  0  0  0  0  0  0  0  0  0  0  0
  190.3400  177.5620  140.2790 C   0  0  0  0  0  2  0  0  0  0  0  0
  190.6200  175.6340  138.9750 O   0  0  0  0  0  0  0  0  0  0  0  0
  190.4650  176.9800  138.8840 C   0  0  2  0  0  3  0  0  0  0  0  0
  191.7620  176.3760  138.7210 N   0  0  0  0  0  2  0  0  0  0  0  0
  1 10  1  0  0  0  0
  2 11  2  0  0  0  0
  3 16  2  0  0  0  0
  4 17  1  0  0  0  0
  4 23  2  0  0  0  0
  5  1  2  0  0  0  0
  6 12  1  6  0  0  0
  6  2  1  0  0  0  0
  6 18  1  0  0  0  0
  7 13  2  0  0  0  0
  7  8  1  0  0  0  0
  8  9  2  0  0  0  0
  9 23  1  0  0  0  0
  9  2  1  0  0  0  0
 11 24  1  0  0  0  0
 11  3  1  0  0  0  0
 13  4  1  0  0  0  0
 14 19  1  0  0  0  0
 15 14  2  0  0  0  0
 15 13  1  0  0  0  0
 18  5  1  0  0  0  0
 18 24  1  0  0  0  0
 19 17  2  0  0  0  0
 20  3  1  0  0  0  0
 21 12  2  0  0  0  0
 22 21  1  0  0  0  0
 22  8  1  0  0  0  0
 23 20  1  0  0  0  0
 24 10  1  1  0  0  0
 25 26  2  0  0  0  0
 26 21  1  0  0  0  0
 27 26  1  0  0  0  0
 29 28  1  0  0  0  0
 29 27  1  1  0  0  0
 30 29  1  0  0  0  0
 30 28  1  0  0  0  0
M  END
>  <MODEL>
7

>  <REMARK>
 VINA RESULT:      -8.7      1.985      3.123
  Name = 
  3 active torsions:
  status: ('A' for Active; 'I' for Inactive)
    1  A    between atoms: C_7  and  C_13
    2  A    between atoms: C_7  and  C_23
    3  A    between atoms: C_23  and  C_26
                            x       y       z     vdW  Elec       q    Type
                         _______ _______ _______ _____ _____    ______ ____

>  <TORSDO>
F 3

$$$$
=
 OpenBabel11032419143D

 30 36  0  0  1  0  0  0  0  0999 V2000
  188.7590  179.2220  136.8140 C   0  0  0  0  0  3  0  0  0  0  0  0
  186.6670  178.0770  140.3210 C   0  0  0  0  0  0  0  0  0  0  0  0
  184.8910  178.0640  138.7010 C   0  0  0  0  0  0  0  0  0  0  0  0
  183.4500  178.5600  142.0360 C   0  0  0  0  0  0  0  0  0  0  0  0
  189.4110  179.0330  138.1980 C   0  0  0  0  0  3  0  0  0  0  0  0
  188.1180  178.4020  140.3500 C   0  0  1  0  0  3  0  0  0  0  0  0
  185.2010  178.5000  143.6740 N   0  0  0  0  0  0  0  0  0  0  0  0
  186.1470  178.2090  142.7390 C   0  0  0  0  0  0  0  0  0  0  0  0
  185.7610  178.1740  141.3750 C   0  0  0  0  0  0  0  0  0  0  0  0
  187.3890  178.5320  136.8370 C   0  0  0  0  0  2  0  0  0  0  0  0
  186.2500  177.9920  139.0130 C   0  0  0  0  0  0  0  0  0  0  0  0
  188.8600  177.4820  141.2460 C   0  0  0  0  0  3  0  0  0  0  0  0
  183.8910  178.6900  143.3670 C   0  0  0  0  0  0  0  0  0  0  0  0
  181.6240  179.1280  144.0530 C   0  0  0  0  0  3  0  0  0  0  0  0
  182.9730  178.9720  144.3790 C   0  0  0  0  0  3  0  0  0  0  0  0
  184.4880  178.0090  137.5090 O   0  0  0  0  0  0  0  0  0  0  0  0
  182.0870  178.7250  141.7580 C   0  0  0  0  0  3  0  0  0  0  0  0
  188.4970  178.2020  138.9560 N   0  0  0  0  0  0  0  0  0  0  0  0
  181.2120  179.0010  142.7630 N   0  0  0  0  0  0  0  0  0  0  0  0
  183.9980  178.2240  139.7170 N   0  0  0  0  0  2  0  0  0  0  0  0
  188.5510  177.2730  142.5310 C   0  0  0  0  0  0  0  0  0  0  0  0
  187.3520  177.8370  143.2120 C   0  0  0  0  0  2  0  0  0  0  0  0
  184.3880  178.3000  141.0290 C   0  0  0  0  0  0  0  0  0  0  0  0
  187.3100  178.0360  138.2230 C   0  0  2  0  0  3  0  0  0  0  0  0
  189.9850  175.3930  142.8270 O   0  0  0  0  0  0  0  0  0  0  0  0
  189.4620  176.4230  143.3330 C   0  0  0  0  0  0  0  0  0  0  0  0
  189.8000  176.7740  144.7460 C   0  0  0  0  0  2  0  0  0  0  0  0
  191.9010  176.0160  145.4580 O   0  0  0  0  0  0  0  0  0  0  0  0
  191.2820  177.0730  144.8700 C   0  0  2  0  0  3  0  0  0  0  0  0
  191.6560  177.1180  146.2610 N   0  0  0  0  0  2  0  0  0  0  0  0
  1 10  1  0  0  0  0
  1  5  2  0  0  0  0
  2  6  1  0  0  0  0
  2  9  1  0  0  0  0
  3 11  1  0  0  0  0
  3 20  1  0  0  0  0
  4 13  1  0  0  0  0
  5 18  1  0  0  0  0
  6 12  1  1  0  0  0
  8 22  1  0  0  0  0
  8  7  2  0  0  0  0
  9  8  1  0  0  0  0
 11  2  2  0  0  0  0
 12 21  2  0  0  0  0
 13  7  1  0  0  0  0
 13 15  2  0  0  0  0
 14 15  1  0  0  0  0
 16  3  2  0  0  0  0
 17  4  2  0  0  0  0
 17 19  1  0  0  0  0
 18  6  1  0  0  0  0
 19 14  2  0  0  0  0
 20 23  1  0  0  0  0
 21 22  1  0  0  0  0
 21 26  1  0  0  0  0
 23  9  2  0  0  0  0
 23  4  1  0  0  0  0
 24 10  1  6  0  0  0
 24 18  1  0  0  0  0
 24 11  1  0  0  0  0
 25 26  2  0  0  0  0
 26 27  1  0  0  0  0
 28 30  1  0  0  0  0
 29 27  1  1  0  0  0
 29 28  1  0  0  0  0
 29 30  1  0  0  0  0
M  END
>  <MODEL>
8

>  <REMARK>
 VINA RESULT:      -8.1      2.457      6.541
  Name = 
  3 active torsions:
  status: ('A' for Active; 'I' for Inactive)
    1  A    between atoms: C_7  and  C_13
    2  A    between atoms: C_7  and  C_23
    3  A    between atoms: C_23  and  C_26
                            x       y       z     vdW  Elec       q    Type
                         _______ _______ _______ _____ _____    ______ ____

>  <TORSDO>
F 3

$$$$
=
 OpenBabel11032419143D

 30 36  0  0  1  0  0  0  0  0999 V2000
  184.7460  177.5230  137.6150 C   0  0  0  0  0  3  0  0  0  0  0  0
  186.3060  178.2350  141.4940 C   0  0  0  0  0  0  0  0  0  0  0  0
  188.2400  178.6670  140.1340 C   0  0  0  0  0  0  0  0  0  0  0  0
  189.3450  177.7420  143.5060 C   0  0  0  0  0  0  0  0  0  0  0  0
  183.9290  177.4230  138.9180 C   0  0  0  0  0  3  0  0  0  0  0  0
  184.9020  177.7900  141.2890 C   0  0  1  0  0  3  0  0  0  0  0  0
  187.4250  177.3800  144.8990 N   0  0  0  0  0  0  0  0  0  0  0  0
  186.5640  177.7440  143.9090 C   0  0  0  0  0  0  0  0  0  0  0  0
  187.0940  178.0390  142.6270 C   0  0  0  0  0  0  0  0  0  0  0  0
  186.0270  178.3120  137.9190 C   0  0  0  0  0  2  0  0  0  0  0  0
  186.8550  178.5730  140.2790 C   0  0  0  0  0  0  0  0  0  0  0  0
  183.9740  178.4820  142.2160 C   0  0  0  0  0  3  0  0  0  0  0  0
  188.7740  177.3550  144.7340 C   0  0  0  0  0  0  0  0  0  0  0  0
  190.9830  176.9990  145.6250 C   0  0  0  0  0  3  0  0  0  0  0  0
  189.5980  176.9850  145.7970 C   0  0  0  0  0  3  0  0  0  0  0  0
  188.7660  178.9550  139.0260 O   0  0  0  0  0  0  0  0  0  0  0  0
  190.7400  177.7400  143.3810 C   0  0  0  0  0  3  0  0  0  0  0  0
  184.6620  178.1890  139.9060 N   0  0  0  0  0  0  0  0  0  0  0  0
  191.5210  177.3730  144.4330 N   0  0  0  0  0  0  0  0  0  0  0  0
  189.0270  178.4150  141.2180 N   0  0  0  0  0  2  0  0  0  0  0  0
  184.1150  178.4980  143.5460 C   0  0  0  0  0  0  0  0  0  0  0  0
  185.2830  177.9300  144.2780 C   0  0  0  0  0  2  0  0  0  0  0  0
  188.5030  178.0870  142.4420 C   0  0  0  0  0  0  0  0  0  0  0  0
  185.9000  178.5730  139.3640 C   0  0  2  0  0  3  0  0  0  0  0  0
  183.2220  179.3840  145.5700 O   0  0  0  0  0  0  0  0  0  0  0  0
  183.0380  179.1230  144.3500 C   0  0  0  0  0  0  0  0  0  0  0  0
  181.7240  179.4800  143.7340 C   0  0  0  0  0  2  0  0  0  0  0  0
  179.7430  178.3940  143.1060 O   0  0  0  0  0  0  0  0  0  0  0  0
  180.6800  178.4380  144.0890 C   0  0  2  0  0  3  0  0  0  0  0  0
  179.3980  179.0720  144.2640 N   0  0  0  0  0  2  0  0  0  0  0  0
  1 10  1  0  0  0  0
  1  5  2  0  0  0  0
  2  9  1  0  0  0  0
  3 11  1  0  0  0  0
  3 20  1  0  0  0  0
  4 13  1  0  0  0  0
  5 18  1  0  0  0  0
  6  2  1  0  0  0  0
  6 12  1  1  0  0  0
  8 22  1  0  0  0  0
  8  7  2  0  0  0  0
  9  8  1  0  0  0  0
 11  2  2  0  0  0  0
 12 21  2  0  0  0  0
 13  7  1  0  0  0  0
 13 15  2  0  0  0  0
 14 15  1  0  0  0  0
 16  3  2  0  0  0  0
 17  4  2  0  0  0  0
 17 19  1  0  0  0  0
 18  6  1  0  0  0  0
 19 14  2  0  0  0  0
 20 23  1  0  0  0  0
 21 22  1  0  0  0  0
 21 26  1  0  0  0  0
 23  9  2  0  0  0  0
 23  4  1  0  0  0  0
 24 10  1  6  0  0  0
 24 18  1  0  0  0  0
 24 11  1  0  0  0  0
 26 25  2  0  0  0  0
 27 26  1  0  0  0  0
 28 29  1  0  0  0  0
 28 30  1  0  0  0  0
 29 27  1  6  0  0  0
 29 30  1  0  0  0  0
M  END
>  <MODEL>
9

>  <REMARK>
 VINA RESULT:      -8.0      3.143      7.721
  Name = 
  3 active torsions:
  status: ('A' for Active; 'I' for Inactive)
    1  A    between atoms: C_7  and  C_13
    2  A    between atoms: C_7  and  C_23
    3  A    between atoms: C_23  and  C_26
                            x       y       z     vdW  Elec       q    Type
                         _______ _______ _______ _____ _____    ______ ____

>  <TORSDO>
F 3

$$$$
