=
 OpenBabel11032420413D

 45 47  0  0  1  0  0  0  0  0999 V2000
  181.0750  177.4840  140.8680 C   0  0  2  0  0  3  0  0  0  0  0  0
  179.0840  178.2210  142.1250 C   0  0  0  0  0  3  0  0  0  0  0  0
  179.7950  179.5170  142.3670 C   0  0  0  0  0  2  0  0  0  0  0  0
  179.6860  177.2650  141.4110 C   0  0  0  0  0  3  0  0  0  0  0  0
  181.2340  178.9290  140.3250 C   0  0  1  0  0  3  0  0  0  0  0  0
  180.4220  180.0150  141.0640 C   0  0  0  0  0  2  0  0  0  0  0  0
  182.6400  179.3300  140.1810 N   0  0  0  0  0  0  0  0  0  0  0  0
  184.1610  180.6300  138.9430 O   0  0  0  0  0  0  0  0  0  0  0  0
  183.6350  178.9240  141.1520 C   0  0  0  0  0  0  0  0  0  0  0  0
  184.8600  178.9430  140.8570 O   0  0  0  0  0  0  0  0  0  0  0  0
  182.9970  180.1610  139.0550 C   0  0  0  0  0  0  0  0  0  0  0  0
  181.5840  181.9720  138.1580 C   0  0  0  0  0  1  0  0  0  0  0  0
  181.9850  180.5180  138.0120 C   0  0  0  0  0  2  0  0  0  0  0  0
  183.2420  178.4590  142.5180 C   0  0  0  0  0  2  0  0  0  0  0  0
  183.8290  179.3590  143.5930 C   0  0  0  0  0  2  0  0  0  0  0  0
  184.3320  178.5890  144.6430 O   0  0  0  0  0  0  0  0  0  0  0  0
  185.5790  178.1490  144.1990 C   0  0  0  0  0  2  0  0  0  0  0  0
  186.5320  178.3690  145.1940 O   0  0  0  0  0  0  0  0  0  0  0  0
  187.1540  177.1320  145.3710 C   0  0  0  0  0  2  0  0  0  0  0  0
  187.6960  178.0190  147.6250 C   0  0  0  0  0  1  0  0  0  0  0  0
  188.2300  177.2390  146.4380 C   0  0  2  0  0  3  0  0  0  0  0  0
  189.4380  177.9650  145.8670 C   0  0  0  0  0  2  0  0  0  0  0  0
  190.6680  177.0660  145.7360 C   0  0  1  0  0  3  0  0  0  0  0  0
  191.5480  177.5500  144.7620 O   0  0  0  0  0  1  0  0  0  0  0  0
  191.3840  176.8170  147.0620 C   0  0  0  0  0  2  0  0  0  0  0  0
  192.0520  175.5260  147.0610 N   0  0  0  0  0  1  0  0  0  0  0  0
  180.5340  175.3360  139.9240 O   0  0  0  0  0  1  0  0  0  0  0  0
  181.3900  176.4330  139.7990 C   0  0  1  0  0  3  0  0  0  0  0  0
  181.2280  177.0120  138.4710 N   0  0  0  0  0  2  0  0  0  0  0  0
  183.5850  176.7010  137.8000 C   0  0  0  0  0  3  0  0  0  0  0  0
  182.9100  177.3500  135.2060 N   0  0  0  0  0  0  0  0  0  0  0  0
  184.5700  176.7150  136.8110 C   0  0  0  0  0  0  0  0  0  0  0  0
  182.2590  177.0150  137.4800 C   0  0  0  0  0  0  0  0  0  0  0  0
  181.9410  177.3410  136.1600 C   0  0  0  0  0  3  0  0  0  0  0  0
  184.2020  177.0460  135.5010 C   0  0  0  0  0  3  0  0  0  0  0  0
  188.1860  176.7610  138.0660 N   0  0  0  0  0  2  0  0  0  0  0  0
  186.5700  178.4390  138.0950 O   0  0  0  0  0  0  0  0  0  0  0  0
  185.9200  176.3870  137.1670 N   0  0  0  0  0  2  0  0  0  0  0  0
  186.8760  177.2570  137.7870 C   0  0  0  0  0  0  0  0  0  0  0  0
  188.7000  178.1690  139.9990 C   0  0  0  0  0  2  0  0  0  0  0  0
  190.6480  177.2700  141.3270 C   0  0  0  0  0  2  0  0  0  0  0  0
  189.2230  177.5760  138.6830 C   0  0  0  0  0  3  0  0  0  0  0  0
  190.5060  176.7480  138.8560 C   0  0  0  0  0  2  0  0  0  0  0  0
  191.3760  177.3110  139.9760 C   0  0  0  0  0  2  0  0  0  0  0  0
  189.1210  177.3330  141.2040 C   0  0  0  0  0  2  0  0  0  0  0  0
  1 28  1  6  0  0  0
  1  4  1  0  0  0  0
  2  3  1  0  0  0  0
  4  2  2  0  0  0  0
  5  7  1  1  0  0  0
  5  1  1  0  0  0  0
  5  6  1  0  0  0  0
  6  3  1  0  0  0  0
  7  9  1  0  0  0  0
  8 11  2  0  0  0  0
  9 14  1  0  0  0  0
 10  9  2  0  0  0  0
 11  7  1  0  0  0  0
 13 12  1  0  0  0  0
 13 11  1  0  0  0  0
 14 15  1  0  0  0  0
 15 16  1  0  0  0  0
 17 16  1  0  0  0  0
 17 18  1  0  0  0  0
 18 19  1  0  0  0  0
 19 21  1  0  0  0  0
 21 20  1  1  0  0  0
 22 21  1  0  0  0  0
 23 24  1  6  0  0  0
 23 22  1  0  0  0  0
 23 25  1  0  0  0  0
 26 25  1  0  0  0  0
 28 27  1  6  0  0  0
 29 28  1  0  0  0  0
 31 35  2  0  0  0  0
 31 34  1  0  0  0  0
 32 38  1  0  0  0  0
 32 30  2  0  0  0  0
 33 30  1  0  0  0  0
 33 29  1  0  0  0  0
 34 33  2  0  0  0  0
 35 32  1  0  0  0  0
 36 42  1  0  0  0  0
 38 39  1  0  0  0  0
 39 36  1  0  0  0  0
 39 37  2  0  0  0  0
 40 45  1  0  0  0  0
 42 43  1  0  0  0  0
 42 40  1  0  0  0  0
 43 44  1  0  0  0  0
 44 41  1  0  0  0  0
 45 41  1  0  0  0  0
M  END
>  <MODEL>
1

>  <REMARK>
 VINA RESULT:      -7.0      0.000      0.000
  Name = 
  17 active torsions:
  status: ('A' for Active; 'I' for Inactive)
    1  A    between atoms: N_1  and  C_10
    2  A    between atoms: N_2  and  C_29
    3  A    between atoms: C_3  and  C_26
    4  A    between atoms: C_5  and  C_11
    5  A    between atoms: C_5  and  O_21
    6  A    between atoms: C_8  and  C_9
    7  A    between atoms: C_8  and  C_13
    8  A    between atoms: C_9  and  C_42
    9  A    between atoms: C_11  and  C_34
   10  A    between atoms: C_19  and  O_21
   11  A    between atoms: C_19  and  O_33
   12  A    between atoms: C_26  and  N_30
   13  A    between atoms: N_30  and  C_37
   14  A    between atoms: N_32  and  C_35
   15  A    between atoms: O_33  and  C_45
   16  A    between atoms: C_39  and  C_44
   17  A    between atoms: C_42  and  C_45
                            x       y       z     vdW  Elec       q    Type
                         _______ _______ _______ _____ _____    ______ ____

>  <TORSDO>
F 17

$$$$
=
 OpenBabel11032420413D

 45 47  0  0  1  0  0  0  0  0999 V2000
  184.9000  178.2000  138.1310 C   0  0  2  0  0  3  0  0  0  0  0  0
  183.7830  176.3550  136.9330 C   0  0  0  0  0  3  0  0  0  0  0  0
  185.1030  176.0570  136.2920 C   0  0  0  0  0  2  0  0  0  0  0  0
  183.6900  177.3630  137.8060 C   0  0  0  0  0  3  0  0  0  0  0  0
  186.1670  177.3120  138.2610 C   0  0  1  0  0  3  0  0  0  0  0  0
  186.2060  176.0660  137.3510 C   0  0  0  0  0  2  0  0  0  0  0  0
  187.4130  178.0830  138.1540 N   0  0  0  0  0  0  0  0  0  0  0  0
  189.3670  178.7610  139.2750 O   0  0  0  0  0  0  0  0  0  0  0  0
  187.8190  178.6750  136.8960 C   0  0  0  0  0  0  0  0  0  0  0  0
  188.6580  179.6140  136.8740 O   0  0  0  0  0  0  0  0  0  0  0  0
  188.2340  178.2120  139.3340 C   0  0  0  0  0  0  0  0  0  0  0  0
  188.5100  178.3630  141.7800 C   0  0  0  0  0  1  0  0  0  0  0  0
  187.7790  177.6650  140.6510 C   0  0  0  0  0  2  0  0  0  0  0  0
  187.2470  178.2040  135.5960 C   0  0  0  0  0  2  0  0  0  0  0  0
  188.3090  177.5300  134.7430 C   0  0  0  0  0  2  0  0  0  0  0  0
  188.7460  176.3550  135.3580 O   0  0  0  0  0  0  0  0  0  0  0  0
  190.0690  176.2040  134.9420 C   0  0  0  0  0  2  0  0  0  0  0  0
  190.6970  175.2370  135.7270 O   0  0  0  0  0  0  0  0  0  0  0  0
  190.4180  175.6100  137.0430 C   0  0  0  0  0  2  0  0  0  0  0  0
  191.4590  176.3070  139.1850 C   0  0  0  0  0  1  0  0  0  0  0  0
  191.6900  175.5820  137.8720 C   0  0  2  0  0  3  0  0  0  0  0  0
  192.8060  176.2770  137.1090 C   0  0  0  0  0  2  0  0  0  0  0  0
  194.1060  175.4720  137.0850 C   0  0  1  0  0  3  0  0  0  0  0  0
  194.6800  175.3980  138.3580 O   0  0  0  0  0  1  0  0  0  0  0  0
  193.9520  174.0880  136.4590 C   0  0  0  0  0  2  0  0  0  0  0  0
  194.4240  173.0500  137.3610 N   0  0  0  0  0  1  0  0  0  0  0  0
  184.1310  180.2780  139.0740 O   0  0  0  0  0  1  0  0  0  0  0  0
  184.6430  179.0200  139.3990 C   0  0  1  0  0  3  0  0  0  0  0  0
  183.6870  178.3250  140.2540 N   0  0  0  0  0  2  0  0  0  0  0  0
  184.6320  178.6110  142.5180 C   0  0  0  0  0  3  0  0  0  0  0  0
  182.0980  179.1040  143.4890 N   0  0  0  0  0  0  0  0  0  0  0  0
  184.4500  178.8750  143.8770 C   0  0  0  0  0  0  0  0  0  0  0  0
  183.5340  178.5950  141.6490 C   0  0  0  0  0  0  0  0  0  0  0  0
  182.2610  178.8460  142.1640 C   0  0  0  0  0  3  0  0  0  0  0  0
  183.1540  179.1240  144.3450 C   0  0  0  0  0  3  0  0  0  0  0  0
  187.6240  178.0120  145.8360 N   0  0  0  0  0  2  0  0  0  0  0  0
  186.4410  176.7530  144.2720 O   0  0  0  0  0  0  0  0  0  0  0  0
  185.5920  178.8870  144.7430 N   0  0  0  0  0  2  0  0  0  0  0  0
  186.5430  177.8290  144.9200 C   0  0  0  0  0  0  0  0  0  0  0  0
  189.4850  176.7870  144.8290 C   0  0  0  0  0  2  0  0  0  0  0  0
  191.6430  177.1530  146.0870 C   0  0  0  0  0  2  0  0  0  0  0  0
  188.6280  176.9880  146.0860 C   0  0  0  0  0  3  0  0  0  0  0  0
  189.4500  177.3540  147.3320 C   0  0  0  0  0  2  0  0  0  0  0  0
  190.8220  176.6890  147.2990 C   0  0  0  0  0  2  0  0  0  0  0  0
  190.7830  177.5890  144.8940 C   0  0  0  0  0  2  0  0  0  0  0  0
  1  5  1  0  0  0  0
  1 28  1  1  0  0  0
  2  4  2  0  0  0  0
  3  2  1  0  0  0  0
  3  6  1  0  0  0  0
  4  1  1  0  0  0  0
  5  7  1  6  0  0  0
  6  5  1  0  0  0  0
  7 11  1  0  0  0  0
  8 11  2  0  0  0  0
  9  7  1  0  0  0  0
 10  9  2  0  0  0  0
 11 13  1  0  0  0  0
 13 12  1  0  0  0  0
 14  9  1  0  0  0  0
 15 16  1  0  0  0  0
 15 14  1  0  0  0  0
 17 16  1  0  0  0  0
 17 18  1  0  0  0  0
 18 19  1  0  0  0  0
 19 21  1  0  0  0  0
 21 20  1  1  0  0  0
 22 21  1  0  0  0  0
 23 22  1  0  0  0  0
 23 24  1  1  0  0  0
 25 23  1  0  0  0  0
 25 26  1  0  0  0  0
 28 27  1  6  0  0  0
 28 29  1  0  0  0  0
 29 33  1  0  0  0  0
 30 32  1  0  0  0  0
 31 35  1  0  0  0  0
 32 35  2  0  0  0  0
 32 38  1  0  0  0  0
 33 34  1  0  0  0  0
 33 30  2  0  0  0  0
 34 31  2  0  0  0  0
 36 42  1  0  0  0  0
 37 39  2  0  0  0  0
 38 39  1  0  0  0  0
 39 36  1  0  0  0  0
 40 45  1  0  0  0  0
 40 42  1  0  0  0  0
 41 44  1  0  0  0  0
 42 43  1  0  0  0  0
 44 43  1  0  0  0  0
 45 41  1  0  0  0  0
M  END
>  <MODEL>
2

>  <REMARK>
 VINA RESULT:      -6.8      2.903      7.624
  Name = 
  17 active torsions:
  status: ('A' for Active; 'I' for Inactive)
    1  A    between atoms: N_1  and  C_10
    2  A    between atoms: N_2  and  C_29
    3  A    between atoms: C_3  and  C_26
    4  A    between atoms: C_5  and  C_11
    5  A    between atoms: C_5  and  O_21
    6  A    between atoms: C_8  and  C_9
    7  A    between atoms: C_8  and  C_13
    8  A    between atoms: C_9  and  C_42
    9  A    between atoms: C_11  and  C_34
   10  A    between atoms: C_19  and  O_21
   11  A    between atoms: C_19  and  O_33
   12  A    between atoms: C_26  and  N_30
   13  A    between atoms: N_30  and  C_37
   14  A    between atoms: N_32  and  C_35
   15  A    between atoms: O_33  and  C_45
   16  A    between atoms: C_39  and  C_44
   17  A    between atoms: C_42  and  C_45
                            x       y       z     vdW  Elec       q    Type
                         _______ _______ _______ _____ _____    ______ ____

>  <TORSDO>
F 17

$$$$
=
 OpenBabel11032420413D

 45 47  0  0  1  0  0  0  0  0999 V2000
  187.9940  177.4130  145.8400 C   0  0  2  0  0  3  0  0  0  0  0  0
  187.9140  178.0950  148.2100 C   0  0  0  0  0  3  0  0  0  0  0  0
  189.3970  177.8850  148.2530 C   0  0  0  0  0  2  0  0  0  0  0  0
  187.2550  177.8780  147.0680 C   0  0  0  0  0  3  0  0  0  0  0  0
  189.3530  178.1500  145.7020 C   0  0  1  0  0  3  0  0  0  0  0  0
  190.0460  178.5290  147.0280 C   0  0  0  0  0  2  0  0  0  0  0  0
  190.2830  177.4600  144.7980 N   0  0  0  0  0  0  0  0  0  0  0  0
  191.7900  175.6660  144.5790 O   0  0  0  0  0  0  0  0  0  0  0  0
  190.3990  177.8480  143.4070 C   0  0  0  0  0  0  0  0  0  0  0  0
  191.4190  177.5300  142.7390 O   0  0  0  0  0  0  0  0  0  0  0  0
  191.0620  176.3670  145.3320 C   0  0  0  0  0  0  0  0  0  0  0  0
  192.3830  175.6660  147.2920 C   0  0  0  0  0  1  0  0  0  0  0  0
  190.9990  176.0160  146.7850 C   0  0  0  0  0  2  0  0  0  0  0  0
  189.3280  178.6440  142.7320 C   0  0  0  0  0  2  0  0  0  0  0  0
  188.9470  178.0270  141.3970 C   0  0  0  0  0  2  0  0  0  0  0  0
  188.1110  178.8920  140.6880 O   0  0  0  0  0  0  0  0  0  0  0  0
  187.5670  178.1090  139.6690 C   0  0  0  0  0  2  0  0  0  0  0  0
  188.0050  178.5840  138.4320 O   0  0  0  0  0  0  0  0  0  0  0  0
  187.1070  178.0510  137.5070 C   0  0  0  0  0  2  0  0  0  0  0  0
  187.8010  175.8080  136.7010 C   0  0  0  0  0  1  0  0  0  0  0  0
  187.8610  177.2980  136.4250 C   0  0  2  0  0  3  0  0  0  0  0  0
  189.3140  177.7460  136.4180 C   0  0  0  0  0  2  0  0  0  0  0  0
  190.2950  176.5940  136.6440 C   0  0  1  0  0  3  0  0  0  0  0  0
  191.1000  176.3860  135.5190 O   0  0  0  0  0  1  0  0  0  0  0  0
  191.1340  176.7500  137.9110 C   0  0  0  0  0  2  0  0  0  0  0  0
  190.7630  175.7590  138.9080 N   0  0  0  0  0  1  0  0  0  0  0  0
  186.7350  176.3570  144.0800 O   0  0  0  0  0  1  0  0  0  0  0  0
  187.1140  177.5960  144.6000 C   0  0  1  0  0  3  0  0  0  0  0  0
  185.9160  178.3510  144.9480 N   0  0  0  0  0  2  0  0  0  0  0  0
  184.9570  178.4460  142.6740 C   0  0  0  0  0  3  0  0  0  0  0  0
  182.4750  178.9500  143.7660 N   0  0  0  0  0  0  0  0  0  0  0  0
  183.8540  178.6220  141.8350 C   0  0  0  0  0  0  0  0  0  0  0  0
  184.8060  178.5240  144.0640 C   0  0  0  0  0  0  0  0  0  0  0  0
  183.5400  178.7820  144.5930 C   0  0  0  0  0  3  0  0  0  0  0  0
  182.6040  178.8750  142.4140 C   0  0  0  0  0  3  0  0  0  0  0  0
  183.8070  177.5890  138.1500 N   0  0  0  0  0  2  0  0  0  0  0  0
  182.8070  176.5840  139.9990 O   0  0  0  0  0  0  0  0  0  0  0  0
  184.0370  178.5350  140.4160 N   0  0  0  0  0  2  0  0  0  0  0  0
  183.5180  177.5200  139.5480 C   0  0  0  0  0  0  0  0  0  0  0  0
  183.2460  177.2240  135.7980 C   0  0  0  0  0  2  0  0  0  0  0  0
  184.6680  175.4150  134.7610 C   0  0  0  0  0  2  0  0  0  0  0  0
  183.3320  176.5970  137.1970 C   0  0  0  0  0  3  0  0  0  0  0  0
  184.2250  175.3480  137.2500 C   0  0  0  0  0  2  0  0  0  0  0  0
  184.1620  174.5710  135.9390 C   0  0  0  0  0  2  0  0  0  0  0  0
  184.4900  176.9240  134.9660 C   0  0  0  0  0  2  0  0  0  0  0  0
  1 28  1  6  0  0  0
  1  4  1  0  0  0  0
  2  3  1  0  0  0  0
  4  2  2  0  0  0  0
  5  7  1  1  0  0  0
  5  1  1  0  0  0  0
  5  6  1  0  0  0  0
  6  3  1  0  0  0  0
  7 11  1  0  0  0  0
  8 11  2  0  0  0  0
  9  7  1  0  0  0  0
 10  9  2  0  0  0  0
 11 13  1  0  0  0  0
 13 12  1  0  0  0  0
 14  9  1  0  0  0  0
 15 14  1  0  0  0  0
 16 15  1  0  0  0  0
 17 16  1  0  0  0  0
 18 17  1  0  0  0  0
 19 18  1  0  0  0  0
 21 20  1  1  0  0  0
 21 19  1  0  0  0  0
 22 21  1  0  0  0  0
 22 23  1  0  0  0  0
 23 24  1  6  0  0  0
 23 25  1  0  0  0  0
 25 26  1  0  0  0  0
 28 27  1  1  0  0  0
 28 29  1  0  0  0  0
 30 33  1  0  0  0  0
 31 34  1  0  0  0  0
 32 35  1  0  0  0  0
 32 30  2  0  0  0  0
 33 34  2  0  0  0  0
 33 29  1  0  0  0  0
 35 31  2  0  0  0  0
 36 39  1  0  0  0  0
 38 32  1  0  0  0  0
 39 37  2  0  0  0  0
 39 38  1  0  0  0  0
 40 42  1  0  0  0  0
 41 45  1  0  0  0  0
 41 44  1  0  0  0  0
 42 43  1  0  0  0  0
 42 36  1  0  0  0  0
 44 43  1  0  0  0  0
 45 40  1  0  0  0  0
M  END
>  <MODEL>
3

>  <REMARK>
 VINA RESULT:      -6.5      2.311      8.508
  Name = 
  17 active torsions:
  status: ('A' for Active; 'I' for Inactive)
    1  A    between atoms: N_1  and  C_10
    2  A    between atoms: N_2  and  C_29
    3  A    between atoms: C_3  and  C_26
    4  A    between atoms: C_5  and  C_11
    5  A    between atoms: C_5  and  O_21
    6  A    between atoms: C_8  and  C_9
    7  A    between atoms: C_8  and  C_13
    8  A    between atoms: C_9  and  C_42
    9  A    between atoms: C_11  and  C_34
   10  A    between atoms: C_19  and  O_21
   11  A    between atoms: C_19  and  O_33
   12  A    between atoms: C_26  and  N_30
   13  A    between atoms: N_30  and  C_37
   14  A    between atoms: N_32  and  C_35
   15  A    between atoms: O_33  and  C_45
   16  A    between atoms: C_39  and  C_44
   17  A    between atoms: C_42  and  C_45
                            x       y       z     vdW  Elec       q    Type
                         _______ _______ _______ _____ _____    ______ ____

>  <TORSDO>
F 17

$$$$
=
 OpenBabel11032420413D

 45 47  0  0  1  0  0  0  0  0999 V2000
  188.0060  177.3110  145.7520 C   0  0  2  0  0  3  0  0  0  0  0  0
  187.5340  178.1000  148.0420 C   0  0  0  0  0  3  0  0  0  0  0  0
  189.0020  177.9820  148.3160 C   0  0  0  0  0  2  0  0  0  0  0  0
  187.0660  177.7890  146.8290 C   0  0  0  0  0  3  0  0  0  0  0  0
  189.3290  178.1210  145.7750 C   0  0  1  0  0  3  0  0  0  0  0  0
  189.7940  178.6040  147.1660 C   0  0  0  0  0  2  0  0  0  0  0  0
  190.4200  177.4460  145.0600 N   0  0  0  0  0  0  0  0  0  0  0  0
  192.0680  175.7710  145.1870 O   0  0  0  0  0  0  0  0  0  0  0  0
  190.6940  177.7390  143.6680 C   0  0  0  0  0  0  0  0  0  0  0  0
  191.8140  177.4580  143.1650 O   0  0  0  0  0  0  0  0  0  0  0  0
  191.1970  176.4630  145.7790 C   0  0  0  0  0  0  0  0  0  0  0  0
  192.2640  175.8220  147.9060 C   0  0  0  0  0  1  0  0  0  0  0  0
  190.9640  176.2160  147.2350 C   0  0  0  0  0  2  0  0  0  0  0  0
  189.6680  178.3920  142.7960 C   0  0  0  0  0  2  0  0  0  0  0  0
  189.5220  177.6530  141.4760 C   0  0  0  0  0  2  0  0  0  0  0  0
  188.5100  178.2340  140.7100 O   0  0  0  0  0  0  0  0  0  0  0  0
  189.0870  178.4480  139.4580 C   0  0  0  0  0  2  0  0  0  0  0  0
  189.9050  177.3660  139.1310 O   0  0  0  0  0  0  0  0  0  0  0  0
  189.5310  177.0160  137.8330 C   0  0  0  0  0  2  0  0  0  0  0  0
  189.8620  174.7000  137.0030 C   0  0  0  0  0  1  0  0  0  0  0  0
  190.5350  176.0370  137.2480 C   0  0  2  0  0  3  0  0  0  0  0  0
  191.6820  175.8450  138.2280 C   0  0  0  0  0  2  0  0  0  0  0  0
  192.9580  176.5740  137.8040 C   0  0  1  0  0  3  0  0  0  0  0  0
  193.8510  176.6960  138.8730 O   0  0  0  0  0  1  0  0  0  0  0  0
  193.6320  175.9580  136.5800 C   0  0  0  0  0  2  0  0  0  0  0  0
  194.9880  175.5320  136.8880 N   0  0  0  0  0  1  0  0  0  0  0  0
  187.2930  176.1230  143.7830 O   0  0  0  0  0  1  0  0  0  0  0  0
  187.3140  177.3820  144.3870 C   0  0  1  0  0  3  0  0  0  0  0  0
  185.9440  177.8540  144.5480 N   0  0  0  0  0  2  0  0  0  0  0  0
  185.6070  178.3390  142.1500 C   0  0  0  0  0  3  0  0  0  0  0  0
  182.9580  178.9130  142.6610 N   0  0  0  0  0  0  0  0  0  0  0  0
  184.7680  178.7250  141.1030 C   0  0  0  0  0  0  0  0  0  0  0  0
  185.1090  178.2440  143.4550 C   0  0  0  0  0  0  0  0  0  0  0  0
  183.7660  178.5400  143.6890 C   0  0  0  0  0  3  0  0  0  0  0  0
  183.4260  179.0100  141.3880 C   0  0  0  0  0  3  0  0  0  0  0  0
  185.6580  178.1700  137.4220 N   0  0  0  0  0  2  0  0  0  0  0  0
  184.2260  176.9680  138.8130 O   0  0  0  0  0  0  0  0  0  0  0  0
  185.3040  178.8130  139.7760 N   0  0  0  0  0  2  0  0  0  0  0  0
  185.0250  177.9320  138.6810 C   0  0  0  0  0  0  0  0  0  0  0  0
  186.1880  177.9020  135.0490 C   0  0  0  0  0  2  0  0  0  0  0  0
  187.4010  175.7360  134.5940 C   0  0  0  0  0  2  0  0  0  0  0  0
  185.4430  177.3210  136.2590 C   0  0  0  0  0  3  0  0  0  0  0  0
  185.8460  175.8740  136.5840 C   0  0  0  0  0  2  0  0  0  0  0  0
  186.2020  175.1050  135.3160 C   0  0  0  0  0  2  0  0  0  0  0  0
  187.5490  177.2410  134.8510 C   0  0  0  0  0  2  0  0  0  0  0  0
  1 28  1  6  0  0  0
  1  5  1  0  0  0  0
  1  4  1  0  0  0  0
  2  3  1  0  0  0  0
  4  2  2  0  0  0  0
  5  7  1  1  0  0  0
  5  6  1  0  0  0  0
  6  3  1  0  0  0  0
  7 11  1  0  0  0  0
  8 11  2  0  0  0  0
  9  7  1  0  0  0  0
 10  9  2  0  0  0  0
 11 13  1  0  0  0  0
 13 12  1  0  0  0  0
 14  9  1  0  0  0  0
 15 14  1  0  0  0  0
 16 15  1  0  0  0  0
 17 16  1  0  0  0  0
 18 17  1  0  0  0  0
 19 18  1  0  0  0  0
 21 20  1  1  0  0  0
 21 19  1  0  0  0  0
 21 22  1  0  0  0  0
 23 22  1  0  0  0  0
 23 24  1  1  0  0  0
 25 26  1  0  0  0  0
 25 23  1  0  0  0  0
 28 27  1  1  0  0  0
 28 29  1  0  0  0  0
 30 33  1  0  0  0  0
 31 34  1  0  0  0  0
 32 35  1  0  0  0  0
 32 30  2  0  0  0  0
 33 34  2  0  0  0  0
 33 29  1  0  0  0  0
 35 31  2  0  0  0  0
 36 39  1  0  0  0  0
 38 32  1  0  0  0  0
 39 37  2  0  0  0  0
 39 38  1  0  0  0  0
 40 42  1  0  0  0  0
 41 45  1  0  0  0  0
 41 44  1  0  0  0  0
 42 43  1  0  0  0  0
 42 36  1  0  0  0  0
 44 43  1  0  0  0  0
 45 40  1  0  0  0  0
M  END
>  <MODEL>
4

>  <REMARK>
 VINA RESULT:      -6.4      2.678      8.266
  Name = 
  17 active torsions:
  status: ('A' for Active; 'I' for Inactive)
    1  A    between atoms: N_1  and  C_10
    2  A    between atoms: N_2  and  C_29
    3  A    between atoms: C_3  and  C_26
    4  A    between atoms: C_5  and  C_11
    5  A    between atoms: C_5  and  O_21
    6  A    between atoms: C_8  and  C_9
    7  A    between atoms: C_8  and  C_13
    8  A    between atoms: C_9  and  C_42
    9  A    between atoms: C_11  and  C_34
   10  A    between atoms: C_19  and  O_21
   11  A    between atoms: C_19  and  O_33
   12  A    between atoms: C_26  and  N_30
   13  A    between atoms: N_30  and  C_37
   14  A    between atoms: N_32  and  C_35
   15  A    between atoms: O_33  and  C_45
   16  A    between atoms: C_39  and  C_44
   17  A    between atoms: C_42  and  C_45
                            x       y       z     vdW  Elec       q    Type
                         _______ _______ _______ _____ _____    ______ ____

>  <TORSDO>
F 17

$$$$
=
 OpenBabel11032420413D

 45 47  0  0  1  0  0  0  0  0999 V2000
  181.1180  177.5580  139.1950 C   0  0  2  0  0  3  0  0  0  0  0  0
  179.6420  176.9460  141.0750 C   0  0  0  0  0  3  0  0  0  0  0  0
  180.1980  178.1240  141.8120 C   0  0  0  0  0  2  0  0  0  0  0  0
  180.0710  176.6840  139.8370 C   0  0  0  0  0  3  0  0  0  0  0  0
  180.8570  179.0550  139.5140 C   0  0  1  0  0  3  0  0  0  0  0  0
  180.2250  179.3450  140.8920 C   0  0  0  0  0  2  0  0  0  0  0  0
  182.0390  179.8970  139.2880 N   0  0  0  0  0  0  0  0  0  0  0  0
  182.8060  181.9810  138.5090 O   0  0  0  0  0  0  0  0  0  0  0  0
  183.3510  179.4780  139.7360 C   0  0  0  0  0  0  0  0  0  0  0  0
  184.3890  179.9920  139.2400 O   0  0  0  0  0  0  0  0  0  0  0  0
  181.8510  181.1670  138.6270 C   0  0  0  0  0  0  0  0  0  0  0  0
  180.5890  181.7790  136.5990 C   0  0  0  0  0  1  0  0  0  0  0  0
  180.5100  181.5660  138.0970 C   0  0  0  0  0  2  0  0  0  0  0  0
  183.5120  178.4200  140.7810 C   0  0  0  0  0  2  0  0  0  0  0  0
  184.8860  178.4950  141.4280 C   0  0  0  0  0  2  0  0  0  0  0  0
  184.8480  179.3370  142.5400 O   0  0  0  0  0  0  0  0  0  0  0  0
  185.0120  178.4900  143.6370 C   0  0  0  0  0  2  0  0  0  0  0  0
  186.1820  177.7460  143.4810 O   0  0  0  0  0  0  0  0  0  0  0  0
  186.8340  177.8470  144.7110 C   0  0  0  0  0  2  0  0  0  0  0  0
  188.9800  177.4060  145.8780 C   0  0  0  0  0  1  0  0  0  0  0  0
  188.1180  177.0350  144.6860 C   0  0  2  0  0  3  0  0  0  0  0  0
  188.8820  177.3360  143.4060 C   0  0  0  0  0  2  0  0  0  0  0  0
  190.2790  176.7140  143.3830 C   0  0  1  0  0  3  0  0  0  0  0  0
  190.2840  175.5040  142.6820 O   0  0  0  0  0  1  0  0  0  0  0  0
  191.3580  177.6640  142.8670 C   0  0  0  0  0  2  0  0  0  0  0  0
  191.6590  178.6950  143.8470 N   0  0  0  0  0  1  0  0  0  0  0  0
  180.4270  178.2570  136.9970 O   0  0  0  0  0  1  0  0  0  0  0  0
  181.1660  177.2940  137.6870 C   0  0  1  0  0  3  0  0  0  0  0  0
  182.5470  177.3310  137.2210 N   0  0  0  0  0  2  0  0  0  0  0  0
  184.6190  175.9860  137.2050 C   0  0  0  0  0  3  0  0  0  0  0  0
  183.3390  174.0720  135.6870 N   0  0  0  0  0  0  0  0  0  0  0  0
  185.3110  174.8390  136.8100 C   0  0  0  0  0  0  0  0  0  0  0  0
  183.2810  176.1670  136.8340 C   0  0  0  0  0  0  0  0  0  0  0  0
  182.6550  175.1850  136.0640 C   0  0  0  0  0  3  0  0  0  0  0  0
  184.6380  173.8810  136.0400 C   0  0  0  0  0  3  0  0  0  0  0  0
  189.1040  175.1330  137.2320 N   0  0  0  0  0  2  0  0  0  0  0  0
  187.6490  176.3560  135.8840 O   0  0  0  0  0  0  0  0  0  0  0  0
  186.6790  174.6800  137.2060 N   0  0  0  0  0  2  0  0  0  0  0  0
  187.8010  175.4330  136.7280 C   0  0  0  0  0  0  0  0  0  0  0  0
  190.5600  177.0370  137.7190 C   0  0  0  0  0  2  0  0  0  0  0  0
  192.9270  176.3100  138.2070 C   0  0  0  0  0  2  0  0  0  0  0  0
  190.3000  175.8380  136.7950 C   0  0  0  0  0  3  0  0  0  0  0  0
  191.4850  174.8620  136.7160 C   0  0  0  0  0  2  0  0  0  0  0  0
  192.8130  175.5990  136.8500 C   0  0  0  0  0  2  0  0  0  0  0  0
  191.5730  176.7010  138.8100 C   0  0  0  0  0  2  0  0  0  0  0  0
  1 28  1  6  0  0  0
  1  5  1  0  0  0  0
  1  4  1  0  0  0  0
  2  3  1  0  0  0  0
  4  2  2  0  0  0  0
  5  7  1  1  0  0  0
  5  6  1  0  0  0  0
  6  3  1  0  0  0  0
  7  9  1  0  0  0  0
  8 11  2  0  0  0  0
  9 14  1  0  0  0  0
 10  9  2  0  0  0  0
 11  7  1  0  0  0  0
 12 13  1  0  0  0  0
 13 11  1  0  0  0  0
 14 15  1  0  0  0  0
 15 16  1  0  0  0  0
 16 17  1  0  0  0  0
 18 17  1  0  0  0  0
 18 19  1  0  0  0  0
 21 19  1  0  0  0  0
 21 20  1  1  0  0  0
 22 21  1  0  0  0  0
 23 24  1  6  0  0  0
 23 22  1  0  0  0  0
 25 23  1  0  0  0  0
 25 26  1  0  0  0  0
 28 27  1  6  0  0  0
 29 28  1  0  0  0  0
 31 35  2  0  0  0  0
 31 34  1  0  0  0  0
 32 30  2  0  0  0  0
 32 38  1  0  0  0  0
 33 30  1  0  0  0  0
 33 29  1  0  0  0  0
 34 33  2  0  0  0  0
 35 32  1  0  0  0  0
 37 39  2  0  0  0  0
 39 38  1  0  0  0  0
 39 36  1  0  0  0  0
 40 45  1  0  0  0  0
 41 45  1  0  0  0  0
 42 36  1  0  0  0  0
 42 40  1  0  0  0  0
 43 42  1  0  0  0  0
 43 44  1  0  0  0  0
 44 41  1  0  0  0  0
M  END
>  <MODEL>
5

>  <REMARK>
 VINA RESULT:      -6.4      2.025      2.481
  Name = 
  17 active torsions:
  status: ('A' for Active; 'I' for Inactive)
    1  A    between atoms: N_1  and  C_10
    2  A    between atoms: N_2  and  C_29
    3  A    between atoms: C_3  and  C_26
    4  A    between atoms: C_5  and  C_11
    5  A    between atoms: C_5  and  O_21
    6  A    between atoms: C_8  and  C_9
    7  A    between atoms: C_8  and  C_13
    8  A    between atoms: C_9  and  C_42
    9  A    between atoms: C_11  and  C_34
   10  A    between atoms: C_19  and  O_21
   11  A    between atoms: C_19  and  O_33
   12  A    between atoms: C_26  and  N_30
   13  A    between atoms: N_30  and  C_37
   14  A    between atoms: N_32  and  C_35
   15  A    between atoms: O_33  and  C_45
   16  A    between atoms: C_39  and  C_44
   17  A    between atoms: C_42  and  C_45
                            x       y       z     vdW  Elec       q    Type
                         _______ _______ _______ _____ _____    ______ ____

>  <TORSDO>
F 17

$$$$
=
 OpenBabel11032420413D

 45 47  0  0  1  0  0  0  0  0999 V2000
  184.6090  177.7760  138.3880 C   0  0  2  0  0  3  0  0  0  0  0  0
  185.9460  177.5750  136.3240 C   0  0  0  0  0  3  0  0  0  0  0  0
  184.8150  176.7830  135.7440 C   0  0  0  0  0  2  0  0  0  0  0  0
  185.8450  178.0490  137.5690 C   0  0  0  0  0  3  0  0  0  0  0  0
  183.3310  177.8980  137.5160 C   0  0  1  0  0  3  0  0  0  0  0  0
  183.4880  177.4850  136.0360 C   0  0  0  0  0  2  0  0  0  0  0  0
  182.1640  177.2450  138.1240 N   0  0  0  0  0  0  0  0  0  0  0  0
  179.8960  177.4900  138.7010 O   0  0  0  0  0  0  0  0  0  0  0  0
  182.2100  175.8530  138.5220 C   0  0  0  0  0  0  0  0  0  0  0  0
  181.3790  175.3990  139.3520 O   0  0  0  0  0  0  0  0  0  0  0  0
  180.9610  178.0260  138.2930 C   0  0  0  0  0  0  0  0  0  0  0  0
  180.6180  180.2960  139.1910 C   0  0  0  0  0  1  0  0  0  0  0  0
  180.9370  179.4830  137.9530 C   0  0  0  0  0  2  0  0  0  0  0  0
  183.2470  174.9240  137.9740 C   0  0  0  0  0  2  0  0  0  0  0  0
  182.6240  173.8940  137.0460 C   0  0  0  0  0  2  0  0  0  0  0  0
  183.2960  172.6760  137.1590 O   0  0  0  0  0  0  0  0  0  0  0  0
  184.1350  172.6260  136.0440 C   0  0  0  0  0  2  0  0  0  0  0  0
  185.4550  172.4580  136.4620 O   0  0  0  0  0  0  0  0  0  0  0  0
  186.1770  173.4230  135.7590 C   0  0  0  0  0  2  0  0  0  0  0  0
  187.8740  172.2290  137.1210 C   0  0  0  0  0  1  0  0  0  0  0  0
  187.6310  173.4090  136.2000 C   0  0  2  0  0  3  0  0  0  0  0  0
  187.9450  174.6970  136.9460 C   0  0  0  0  0  2  0  0  0  0  0  0
  189.3290  175.2560  136.6160 C   0  0  1  0  0  3  0  0  0  0  0  0
  189.2400  176.3640  135.7670 O   0  0  0  0  0  1  0  0  0  0  0  0
  190.1700  175.5660  137.8530 C   0  0  0  0  0  2  0  0  0  0  0  0
  191.3040  174.6610  137.9540 N   0  0  0  0  0  1  0  0  0  0  0  0
  184.4800  180.0430  139.1870 O   0  0  0  0  0  1  0  0  0  0  0  0
  184.5670  178.7110  139.5990 C   0  0  1  0  0  3  0  0  0  0  0  0
  183.4120  178.3950  140.4320 N   0  0  0  0  0  2  0  0  0  0  0  0
  184.5430  178.6570  142.6120 C   0  0  0  0  0  3  0  0  0  0  0  0
  182.0860  178.9910  143.8210 N   0  0  0  0  0  0  0  0  0  0  0  0
  184.4720  178.8680  143.9910 C   0  0  0  0  0  0  0  0  0  0  0  0
  183.3730  178.6130  141.8440 C   0  0  0  0  0  0  0  0  0  0  0  0
  182.1420  178.7840  142.4780 C   0  0  0  0  0  3  0  0  0  0  0  0
  183.2130  179.0370  144.5810 C   0  0  0  0  0  3  0  0  0  0  0  0
  187.7610  178.0450  145.7690 N   0  0  0  0  0  2  0  0  0  0  0  0
  186.3820  176.6890  144.4680 O   0  0  0  0  0  0  0  0  0  0  0  0
  185.6860  178.9100  144.7520 N   0  0  0  0  0  2  0  0  0  0  0  0
  186.5950  177.8230  144.9730 C   0  0  0  0  0  0  0  0  0  0  0  0
  189.5760  176.7200  144.8020 C   0  0  0  0  0  2  0  0  0  0  0  0
  191.7500  177.0600  146.0380 C   0  0  0  0  0  2  0  0  0  0  0  0
  188.7310  176.9980  146.0540 C   0  0  0  0  0  3  0  0  0  0  0  0
  189.5710  177.3820  147.2820 C   0  0  0  0  0  2  0  0  0  0  0  0
  190.9200  176.6700  147.2700 C   0  0  0  0  0  2  0  0  0  0  0  0
  190.8990  177.4790  144.8330 C   0  0  0  0  0  2  0  0  0  0  0  0
  1 28  1  1  0  0  0
  2  4  2  0  0  0  0
  3  6  1  0  0  0  0
  3  2  1  0  0  0  0
  4  1  1  0  0  0  0
  5  7  1  1  0  0  0
  5  1  1  0  0  0  0
  6  5  1  0  0  0  0
  7 11  1  0  0  0  0
  7  9  1  0  0  0  0
  9 10  2  0  0  0  0
 11  8  2  0  0  0  0
 13 11  1  0  0  0  0
 13 12  1  0  0  0  0
 14  9  1  0  0  0  0
 15 16  1  0  0  0  0
 15 14  1  0  0  0  0
 17 18  1  0  0  0  0
 17 16  1  0  0  0  0
 19 21  1  0  0  0  0
 19 18  1  0  0  0  0
 21 22  1  0  0  0  0
 21 20  1  1  0  0  0
 23 24  1  1  0  0  0
 23 22  1  0  0  0  0
 23 25  1  0  0  0  0
 25 26  1  0  0  0  0
 28 27  1  6  0  0  0
 28 29  1  0  0  0  0
 29 33  1  0  0  0  0
 30 32  1  0  0  0  0
 31 35  1  0  0  0  0
 32 35  2  0  0  0  0
 32 38  1  0  0  0  0
 33 34  1  0  0  0  0
 33 30  2  0  0  0  0
 34 31  2  0  0  0  0
 36 42  1  0  0  0  0
 37 39  2  0  0  0  0
 38 39  1  0  0  0  0
 39 36  1  0  0  0  0
 40 45  1  0  0  0  0
 40 42  1  0  0  0  0
 41 44  1  0  0  0  0
 42 43  1  0  0  0  0
 44 43  1  0  0  0  0
 45 41  1  0  0  0  0
M  END
>  <MODEL>
6

>  <REMARK>
 VINA RESULT:      -6.3      2.690      7.379
  Name = 
  17 active torsions:
  status: ('A' for Active; 'I' for Inactive)
    1  A    between atoms: N_1  and  C_10
    2  A    between atoms: N_2  and  C_29
    3  A    between atoms: C_3  and  C_26
    4  A    between atoms: C_5  and  C_11
    5  A    between atoms: C_5  and  O_21
    6  A    between atoms: C_8  and  C_9
    7  A    between atoms: C_8  and  C_13
    8  A    between atoms: C_9  and  C_42
    9  A    between atoms: C_11  and  C_34
   10  A    between atoms: C_19  and  O_21
   11  A    between atoms: C_19  and  O_33
   12  A    between atoms: C_26  and  N_30
   13  A    between atoms: N_30  and  C_37
   14  A    between atoms: N_32  and  C_35
   15  A    between atoms: O_33  and  C_45
   16  A    between atoms: C_39  and  C_44
   17  A    between atoms: C_42  and  C_45
                            x       y       z     vdW  Elec       q    Type
                         _______ _______ _______ _____ _____    ______ ____

>  <TORSDO>
F 17

$$$$
=
 OpenBabel11032420413D

 45 47  0  0  1  0  0  0  0  0999 V2000
  182.1920  177.8440  138.8760 C   0  0  2  0  0  3  0  0  0  0  0  0
  181.3820  179.4670  137.2030 C   0  0  0  0  0  3  0  0  0  0  0  0
  181.5810  180.5330  138.2360 C   0  0  0  0  0  2  0  0  0  0  0  0
  181.6780  178.1990  137.5040 C   0  0  0  0  0  3  0  0  0  0  0  0
  183.2040  178.9080  139.3780 C   0  0  1  0  0  3  0  0  0  0  0  0
  182.9420  180.3550  138.9090 C   0  0  0  0  0  2  0  0  0  0  0  0
  183.4090  178.8540  140.8320 N   0  0  0  0  0  0  0  0  0  0  0  0
  182.3750  178.5100  142.9180 O   0  0  0  0  0  0  0  0  0  0  0  0
  184.7370  178.9500  141.4020 C   0  0  0  0  0  0  0  0  0  0  0  0
  184.8910  179.2690  142.6110 O   0  0  0  0  0  0  0  0  0  0  0  0
  182.2500  178.6780  141.6750 C   0  0  0  0  0  0  0  0  0  0  0  0
  180.1320  179.9230  141.4650 C   0  0  0  0  0  1  0  0  0  0  0  0
  180.8720  178.6550  141.0920 C   0  0  0  0  0  2  0  0  0  0  0  0
  185.9570  178.6900  140.5760 C   0  0  0  0  0  2  0  0  0  0  0  0
  187.1840  178.5080  141.4540 C   0  0  0  0  0  2  0  0  0  0  0  0
  188.1090  177.6770  140.8200 O   0  0  0  0  0  0  0  0  0  0  0  0
  189.3040  177.8790  141.5120 C   0  0  0  0  0  2  0  0  0  0  0  0
  189.0250  178.2540  142.8260 O   0  0  0  0  0  0  0  0  0  0  0  0
  190.2720  178.3220  143.4500 C   0  0  0  0  0  2  0  0  0  0  0  0
  191.1090  176.5600  144.9850 C   0  0  0  0  0  1  0  0  0  0  0  0
  190.1820  177.7540  144.8560 C   0  0  2  0  0  3  0  0  0  0  0  0
  188.7540  177.3070  145.1290 C   0  0  0  0  0  2  0  0  0  0  0  0
  188.1860  177.8840  146.4270 C   0  0  1  0  0  3  0  0  0  0  0  0
  186.7890  177.8290  146.4370 O   0  0  0  0  0  1  0  0  0  0  0  0
  188.7800  177.2510  147.6840 C   0  0  0  0  0  2  0  0  0  0  0  0
  187.9400  177.5040  148.8440 N   0  0  0  0  0  1  0  0  0  0  0  0
  182.1640  175.6180  139.7940 O   0  0  0  0  0  1  0  0  0  0  0  0
  182.7990  176.4380  138.8590 C   0  0  1  0  0  3  0  0  0  0  0  0
  182.6510  175.8500  137.5330 N   0  0  0  0  0  2  0  0  0  0  0  0
  184.9050  174.8590  137.3380 C   0  0  0  0  0  3  0  0  0  0  0  0
  183.9030  172.9760  135.5900 N   0  0  0  0  0  0  0  0  0  0  0  0
  185.7570  173.8940  136.7960 C   0  0  0  0  0  0  0  0  0  0  0  0
  183.5480  174.8730  136.9970 C   0  0  0  0  0  0  0  0  0  0  0  0
  183.0640  173.9110  136.1090 C   0  0  0  0  0  3  0  0  0  0  0  0
  185.2240  172.9480  135.9120 C   0  0  0  0  0  3  0  0  0  0  0  0
  189.4800  174.6910  137.1970 N   0  0  0  0  0  2  0  0  0  0  0  0
  187.8390  175.7880  135.9590 O   0  0  0  0  0  0  0  0  0  0  0  0
  187.1430  173.9030  137.1640 N   0  0  0  0  0  2  0  0  0  0  0  0
  188.1370  174.8390  136.7300 C   0  0  0  0  0  0  0  0  0  0  0  0
  190.5850  176.8050  137.7330 C   0  0  0  0  0  2  0  0  0  0  0  0
  193.0240  176.4770  138.2950 C   0  0  0  0  0  2  0  0  0  0  0  0
  190.5560  175.5870  136.7990 C   0  0  0  0  0  3  0  0  0  0  0  0
  191.8870  174.8210  136.7570 C   0  0  0  0  0  2  0  0  0  0  0  0
  193.0710  175.7670  136.9340 C   0  0  0  0  0  2  0  0  0  0  0  0
  191.6050  176.6350  138.8550 C   0  0  0  0  0  2  0  0  0  0  0  0
  1 28  1  6  0  0  0
  1  5  1  0  0  0  0
  2  4  2  0  0  0  0
  2  3  1  0  0  0  0
  3  6  1  0  0  0  0
  4  1  1  0  0  0  0
  5  7  1  1  0  0  0
  6  5  1  0  0  0  0
  7  9  1  0  0  0  0
  7 11  1  0  0  0  0
  9 10  2  0  0  0  0
 11  8  2  0  0  0  0
 13 12  1  0  0  0  0
 13 11  1  0  0  0  0
 14  9  1  0  0  0  0
 14 15  1  0  0  0  0
 16 15  1  0  0  0  0
 16 17  1  0  0  0  0
 17 18  1  0  0  0  0
 18 19  1  0  0  0  0
 19 21  1  0  0  0  0
 21 20  1  6  0  0  0
 21 22  1  0  0  0  0
 22 23  1  0  0  0  0
 23 24  1  6  0  0  0
 23 25  1  0  0  0  0
 25 26  1  0  0  0  0
 28 27  1  1  0  0  0
 29 28  1  0  0  0  0
 31 35  2  0  0  0  0
 31 34  1  0  0  0  0
 32 38  1  0  0  0  0
 32 30  2  0  0  0  0
 33 30  1  0  0  0  0
 33 29  1  0  0  0  0
 34 33  2  0  0  0  0
 35 32  1  0  0  0  0
 37 39  2  0  0  0  0
 39 38  1  0  0  0  0
 39 36  1  0  0  0  0
 40 45  1  0  0  0  0
 41 45  1  0  0  0  0
 42 36  1  0  0  0  0
 42 40  1  0  0  0  0
 43 42  1  0  0  0  0
 43 44  1  0  0  0  0
 44 41  1  0  0  0  0
M  END
>  <MODEL>
7

>  <REMARK>
 VINA RESULT:      -6.2      2.287      3.505
  Name = 
  17 active torsions:
  status: ('A' for Active; 'I' for Inactive)
    1  A    between atoms: N_1  and  C_10
    2  A    between atoms: N_2  and  C_29
    3  A    between atoms: C_3  and  C_26
    4  A    between atoms: C_5  and  C_11
    5  A    between atoms: C_5  and  O_21
    6  A    between atoms: C_8  and  C_9
    7  A    between atoms: C_8  and  C_13
    8  A    between atoms: C_9  and  C_42
    9  A    between atoms: C_11  and  C_34
   10  A    between atoms: C_19  and  O_21
   11  A    between atoms: C_19  and  O_33
   12  A    between atoms: C_26  and  N_30
   13  A    between atoms: N_30  and  C_37
   14  A    between atoms: N_32  and  C_35
   15  A    between atoms: O_33  and  C_45
   16  A    between atoms: C_39  and  C_44
   17  A    between atoms: C_42  and  C_45
                            x       y       z     vdW  Elec       q    Type
                         _______ _______ _______ _____ _____    ______ ____

>  <TORSDO>
F 17

$$$$
=
 OpenBabel11032420413D

 45 47  0  0  1  0  0  0  0  0999 V2000
  182.0910  179.1410  139.5200 C   0  0  2  0  0  3  0  0  0  0  0  0
  181.3630  181.1720  138.3230 C   0  0  0  0  0  3  0  0  0  0  0  0
  179.9810  180.8980  138.8320 C   0  0  0  0  0  2  0  0  0  0  0  0
  182.3590  180.3450  138.6540 C   0  0  0  0  0  3  0  0  0  0  0  0
  181.1010  179.4920  140.6620 C   0  0  1  0  0  3  0  0  0  0  0  0
  180.0360  180.5570  140.3210 C   0  0  0  0  0  2  0  0  0  0  0  0
  180.4830  178.3020  141.2640 N   0  0  0  0  0  0  0  0  0  0  0  0
  179.7270  177.3200  143.2640 O   0  0  0  0  0  0  0  0  0  0  0  0
  179.9990  177.2150  140.4390 C   0  0  0  0  0  0  0  0  0  0  0  0
  179.8150  176.0710  140.9340 O   0  0  0  0  0  0  0  0  0  0  0  0
  180.3510  178.2600  142.7010 C   0  0  0  0  0  0  0  0  0  0  0  0
  182.3120  178.9690  144.0150 C   0  0  0  0  0  1  0  0  0  0  0  0
  180.9180  179.3470  143.5570 C   0  0  0  0  0  2  0  0  0  0  0  0
  179.7200  177.4110  138.9820 C   0  0  0  0  0  2  0  0  0  0  0  0
  179.4970  176.0790  138.2830 C   0  0  0  0  0  2  0  0  0  0  0  0
  180.4510  175.8960  137.2810 O   0  0  0  0  0  0  0  0  0  0  0  0
  181.5760  175.4040  137.9440 C   0  0  0  0  0  2  0  0  0  0  0  0
  182.5740  175.1110  137.0150 O   0  0  0  0  0  0  0  0  0  0  0  0
  182.1690  173.9150  136.4220 C   0  0  0  0  0  2  0  0  0  0  0  0
  182.7920  171.5120  136.4260 C   0  0  0  0  0  1  0  0  0  0  0  0
  183.3260  172.9320  136.3910 C   0  0  2  0  0  3  0  0  0  0  0  0
  184.2150  173.1600  137.6040 C   0  0  0  0  0  2  0  0  0  0  0  0
  185.7040  173.1950  137.2560 C   0  0  1  0  0  3  0  0  0  0  0  0
  185.9830  172.4010  136.1390 O   0  0  0  0  0  1  0  0  0  0  0  0
  186.2550  174.6100  137.0880 C   0  0  0  0  0  2  0  0  0  0  0  0
  187.1560  174.6890  135.9490 N   0  0  0  0  0  1  0  0  0  0  0  0
  183.2910  177.2150  140.3260 O   0  0  0  0  0  1  0  0  0  0  0  0
  183.4110  178.5800  140.0580 C   0  0  1  0  0  3  0  0  0  0  0  0
  184.4720  178.7800  139.0780 N   0  0  0  0  0  2  0  0  0  0  0  0
  186.4050  178.6210  140.6070 C   0  0  0  0  0  3  0  0  0  0  0  0
  187.9690  177.7590  138.5050 N   0  0  0  0  0  0  0  0  0  0  0  0
  187.7530  178.3250  140.8220 C   0  0  0  0  0  0  0  0  0  0  0  0
  185.8470  178.4820  139.3300 C   0  0  0  0  0  0  0  0  0  0  0  0
  186.6590  178.0460  138.2820 C   0  0  0  0  0  3  0  0  0  0  0  0
  188.5250  177.8870  139.7380 C   0  0  0  0  0  3  0  0  0  0  0  0
  188.6360  177.9650  144.5290 N   0  0  0  0  0  2  0  0  0  0  0  0
  187.2000  176.6970  143.2030 O   0  0  0  0  0  0  0  0  0  0  0  0
  188.2970  178.4750  142.1400 N   0  0  0  0  0  2  0  0  0  0  0  0
  188.0000  177.6660  143.2850 C   0  0  0  0  0  0  0  0  0  0  0  0
  189.6940  177.0400  146.5310 C   0  0  0  0  0  2  0  0  0  0  0  0
  188.6930  177.9840  148.6460 C   0  0  0  0  0  2  0  0  0  0  0  0
  188.3850  177.2050  145.7450 C   0  0  0  0  0  3  0  0  0  0  0  0
  187.2670  177.8740  146.5600 C   0  0  0  0  0  2  0  0  0  0  0  0
  187.3680  177.5050  148.0370 C   0  0  0  0  0  2  0  0  0  0  0  0
  189.8330  178.0930  147.6270 C   0  0  0  0  0  2  0  0  0  0  0  0
  1 28  1  1  0  0  0
  1  5  1  0  0  0  0
  2  4  2  0  0  0  0
  2  3  1  0  0  0  0
  3  6  1  0  0  0  0
  4  1  1  0  0  0  0
  5  7  1  6  0  0  0
  6  5  1  0  0  0  0
  7 11  1  0  0  0  0
  9 10  2  0  0  0  0
  9  7  1  0  0  0  0
 11  8  2  0  0  0  0
 11 13  1  0  0  0  0
 13 12  1  0  0  0  0
 14  9  1  0  0  0  0
 15 14  1  0  0  0  0
 16 17  1  0  0  0  0
 16 15  1  0  0  0  0
 18 17  1  0  0  0  0
 19 18  1  0  0  0  0
 21 19  1  0  0  0  0
 21 20  1  1  0  0  0
 21 22  1  0  0  0  0
 23 24  1  6  0  0  0
 23 22  1  0  0  0  0
 25 23  1  0  0  0  0
 26 25  1  0  0  0  0
 28 27  1  6  0  0  0
 29 33  1  0  0  0  0
 29 28  1  0  0  0  0
 30 32  1  0  0  0  0
 31 35  1  0  0  0  0
 32 38  1  0  0  0  0
 33 30  2  0  0  0  0
 34 31  2  0  0  0  0
 34 33  1  0  0  0  0
 35 32  2  0  0  0  0
 36 42  1  0  0  0  0
 37 39  2  0  0  0  0
 38 39  1  0  0  0  0
 39 36  1  0  0  0  0
 40 45  1  0  0  0  0
 42 40  1  0  0  0  0
 42 43  1  0  0  0  0
 43 44  1  0  0  0  0
 44 41  1  0  0  0  0
 45 41  1  0  0  0  0
M  END
>  <MODEL>
8

>  <REMARK>
 VINA RESULT:      -6.2      2.598      7.270
  Name = 
  17 active torsions:
  status: ('A' for Active; 'I' for Inactive)
    1  A    between atoms: N_1  and  C_10
    2  A    between atoms: N_2  and  C_29
    3  A    between atoms: C_3  and  C_26
    4  A    between atoms: C_5  and  C_11
    5  A    between atoms: C_5  and  O_21
    6  A    between atoms: C_8  and  C_9
    7  A    between atoms: C_8  and  C_13
    8  A    between atoms: C_9  and  C_42
    9  A    between atoms: C_11  and  C_34
   10  A    between atoms: C_19  and  O_21
   11  A    between atoms: C_19  and  O_33
   12  A    between atoms: C_26  and  N_30
   13  A    between atoms: N_30  and  C_37
   14  A    between atoms: N_32  and  C_35
   15  A    between atoms: O_33  and  C_45
   16  A    between atoms: C_39  and  C_44
   17  A    between atoms: C_42  and  C_45
                            x       y       z     vdW  Elec       q    Type
                         _______ _______ _______ _____ _____    ______ ____

>  <TORSDO>
F 17

$$$$
=
 OpenBabel11032420413D

 45 47  0  0  1  0  0  0  0  0999 V2000
  190.4450  177.8930  145.1130 C   0  0  2  0  0  3  0  0  0  0  0  0
  191.8560  176.4750  146.5580 C   0  0  0  0  0  3  0  0  0  0  0  0
  190.6560  176.2830  147.4330 C   0  0  0  0  0  2  0  0  0  0  0  0
  191.7540  177.2290  145.4600 C   0  0  0  0  0  3  0  0  0  0  0  0
  189.2530  176.9380  145.3860 C   0  0  1  0  0  3  0  0  0  0  0  0
  189.4340  175.9650  146.5720 C   0  0  0  0  0  2  0  0  0  0  0  0
  187.9680  177.6450  145.4760 N   0  0  0  0  0  0  0  0  0  0  0  0
  186.6630  179.1250  146.7570 O   0  0  0  0  0  0  0  0  0  0  0  0
  187.0140  177.5990  144.3870 C   0  0  0  0  0  0  0  0  0  0  0  0
  185.8020  177.8780  144.5890 O   0  0  0  0  0  0  0  0  0  0  0  0
  187.6950  178.4060  146.6720 C   0  0  0  0  0  0  0  0  0  0  0  0
  187.9350  177.9110  149.0750 C   0  0  0  0  0  1  0  0  0  0  0  0
  188.6460  178.3920  147.8260 C   0  0  0  0  0  2  0  0  0  0  0  0
  187.4320  177.2090  143.0050 C   0  0  0  0  0  2  0  0  0  0  0  0
  187.3290  178.3860  142.0490 C   0  0  0  0  0  2  0  0  0  0  0  0
  186.2360  178.2180  141.1960 O   0  0  0  0  0  0  0  0  0  0  0  0
  185.4750  179.3770  141.3570 C   0  0  0  0  0  2  0  0  0  0  0  0
  184.4360  179.3850  140.4270 O   0  0  0  0  0  0  0  0  0  0  0  0
  183.4470  178.5780  140.9900 C   0  0  0  0  0  2  0  0  0  0  0  0
  182.1930  179.7110  139.1720 C   0  0  0  0  0  1  0  0  0  0  0  0
  182.2610  178.4730  140.0460 C   0  0  2  0  0  3  0  0  0  0  0  0
  180.9790  178.3640  140.8560 C   0  0  0  0  0  2  0  0  0  0  0  0
  180.4520  179.7210  141.3280 C   0  0  1  0  0  3  0  0  0  0  0  0
  179.2760  180.0700  140.6560 O   0  0  0  0  0  1  0  0  0  0  0  0
  180.2800  179.8120  142.8430 C   0  0  0  0  0  2  0  0  0  0  0  0
  180.7970  178.6230  143.5010 N   0  0  0  0  0  1  0  0  0  0  0  0
  190.5510  179.7660  143.6040 O   0  0  0  0  0  1  0  0  0  0  0  0
  190.4730  178.3730  143.6590 C   0  0  1  0  0  3  0  0  0  0  0  0
  191.6260  177.8060  142.9700 N   0  0  0  0  0  2  0  0  0  0  0  0
  190.4580  177.1220  140.9050 C   0  0  0  0  0  3  0  0  0  0  0  0
  192.8590  177.1900  139.5490 N   0  0  0  0  0  0  0  0  0  0  0  0
  190.4950  176.8020  139.5460 C   0  0  0  0  0  0  0  0  0  0  0  0
  191.6320  177.4760  141.5790 C   0  0  0  0  0  0  0  0  0  0  0  0
  192.8350  177.5020  140.8730 C   0  0  0  0  0  3  0  0  0  0  0  0
  191.7270  176.8460  138.8800 C   0  0  0  0  0  3  0  0  0  0  0  0
  187.1190  176.8090  137.7420 N   0  0  0  0  0  2  0  0  0  0  0  0
  188.4250  178.5920  138.4790 O   0  0  0  0  0  0  0  0  0  0  0  0
  189.2770  176.4450  138.8800 N   0  0  0  0  0  2  0  0  0  0  0  0
  188.2810  177.3450  138.3770 C   0  0  0  0  0  0  0  0  0  0  0  0
  186.2530  177.8470  135.7040 C   0  0  0  0  0  2  0  0  0  0  0  0
  183.9220  177.0490  135.1580 C   0  0  0  0  0  2  0  0  0  0  0  0
  186.0520  177.6460  137.2130 C   0  0  0  0  0  3  0  0  0  0  0  0
  184.6850  177.0420  137.5700 C   0  0  0  0  0  2  0  0  0  0  0  0
  183.6090  177.5030  136.5920 C   0  0  0  0  0  2  0  0  0  0  0  0
  185.4200  176.8650  134.8860 C   0  0  0  0  0  2  0  0  0  0  0  0
  1 28  1  6  0  0  0
  1  5  1  0  0  0  0
  1  4  1  0  0  0  0
  2  3  1  0  0  0  0
  4  2  2  0  0  0  0
  5  7  1  1  0  0  0
  5  6  1  0  0  0  0
  6  3  1  0  0  0  0
  7 11  1  0  0  0  0
  9 10  2  0  0  0  0
  9  7  1  0  0  0  0
 11  8  2  0  0  0  0
 11 13  1  0  0  0  0
 13 12  1  0  0  0  0
 14  9  1  0  0  0  0
 15 14  1  0  0  0  0
 16 17  1  0  0  0  0
 16 15  1  0  0  0  0
 18 19  1  0  0  0  0
 18 17  1  0  0  0  0
 21 20  1  6  0  0  0
 21 22  1  0  0  0  0
 21 19  1  0  0  0  0
 22 23  1  0  0  0  0
 23 24  1  6  0  0  0
 23 25  1  0  0  0  0
 25 26  1  0  0  0  0
 28 27  1  1  0  0  0
 29 28  1  0  0  0  0
 30 33  1  0  0  0  0
 31 34  1  0  0  0  0
 32 30  2  0  0  0  0
 33 29  1  0  0  0  0
 34 33  2  0  0  0  0
 35 32  1  0  0  0  0
 35 31  2  0  0  0  0
 36 39  1  0  0  0  0
 38 32  1  0  0  0  0
 39 37  2  0  0  0  0
 39 38  1  0  0  0  0
 40 42  1  0  0  0  0
 41 44  1  0  0  0  0
 42 43  1  0  0  0  0
 42 36  1  0  0  0  0
 44 43  1  0  0  0  0
 45 41  1  0  0  0  0
 45 40  1  0  0  0  0
M  END
>  <MODEL>
9

>  <REMARK>
 VINA RESULT:      -6.1      2.096      8.953
  Name = 
  17 active torsions:
  status: ('A' for Active; 'I' for Inactive)
    1  A    between atoms: N_1  and  C_10
    2  A    between atoms: N_2  and  C_29
    3  A    between atoms: C_3  and  C_26
    4  A    between atoms: C_5  and  C_11
    5  A    between atoms: C_5  and  O_21
    6  A    between atoms: C_8  and  C_9
    7  A    between atoms: C_8  and  C_13
    8  A    between atoms: C_9  and  C_42
    9  A    between atoms: C_11  and  C_34
   10  A    between atoms: C_19  and  O_21
   11  A    between atoms: C_19  and  O_33
   12  A    between atoms: C_26  and  N_30
   13  A    between atoms: N_30  and  C_37
   14  A    between atoms: N_32  and  C_35
   15  A    between atoms: O_33  and  C_45
   16  A    between atoms: C_39  and  C_44
   17  A    between atoms: C_42  and  C_45
                            x       y       z     vdW  Elec       q    Type
                         _______ _______ _______ _____ _____    ______ ____

>  <TORSDO>
F 17

$$$$
