=
 OpenBabel11042411443D

 40 44  0  0  1  0  0  0  0  0999 V2000
  191.5980  173.6920  137.3550 C   0  0  0  0  0  1  0  0  0  0  0  0
  190.5460  176.4500  139.1170 C   0  0  1  0  0  3  0  0  0  0  0  0
  189.3450  178.5940  139.6310 C   0  0  0  0  0  3  0  0  0  0  0  0
  192.4210  176.0440  137.4300 C   0  0  0  0  0  0  0  0  0  0  0  0
  190.0890  175.5400  136.8830 N   0  0  0  0  0  0  0  0  0  0  0  0
  192.7050  177.5200  139.2770 O   0  0  0  0  0  0  0  0  0  0  0  0
  188.0250  177.9780  137.6230 N   0  0  0  0  0  2  0  0  0  0  0  0
  188.1940  176.5590  137.9730 C   0  0  0  0  0  2  0  0  0  0  0  0
  190.0060  177.5090  140.0710 C   0  0  0  0  0  0  0  0  0  0  0  0
  189.6310  176.1240  137.9430 C   0  0  0  0  0  0  0  0  0  0  0  0
  191.4640  175.0840  136.7550 C   0  0  2  0  0  3  0  0  0  0  0  0
  189.0710  178.8570  138.1760 C   0  0  0  0  0  2  0  0  0  0  0  0
  193.6630  176.2500  136.9720 C   0  0  0  0  0  3  0  0  0  0  0  0
  191.9470  176.7400  138.6390 C   0  0  0  0  0  0  0  0  0  0  0  0
  191.9670  175.1340  143.8130 O   0  0  0  0  0  0  0  0  0  0  0  0
  189.2810  178.1310  147.1440 C   0  0  0  0  0  1  0  0  0  0  0  0
  188.5200  178.1610  144.7710 C   0  0  2  0  0  3  0  0  0  0  0  0
  191.2330  176.0720  143.4010 C   0  0  0  0  0  0  0  0  0  0  0  0
  190.4340  176.8330  144.3070 N   0  0  0  0  0  0  0  0  0  0  0  0
  191.1500  176.3630  142.0070 N   0  0  0  0  0  2  0  0  0  0  0  0
  189.9430  176.3250  145.5700 C   0  0  0  0  0  2  0  0  0  0  0  0
  189.5420  178.1170  142.3950 C   0  0  0  0  0  3  0  0  0  0  0  0
  190.2220  177.3520  141.5260 C   0  0  0  0  0  0  0  0  0  0  0  0
  189.7680  178.0510  143.8870 C   0  0  1  0  0  3  0  0  0  0  0  0
  188.8160  177.2690  145.9850 C   0  0  1  0  0  3  0  0  0  0  0  0
  187.2050  177.7660  144.0650 C   0  0  1  0  0  3  0  0  0  0  0  0
  187.0680  176.2720  143.7740 C   0  0  0  0  0  1  0  0  0  0  0  0
  186.0420  178.2860  144.7520 N   0  0  0  0  0  0  0  0  0  0  0  0
  184.9330  178.5270  144.1450 C   0  0  0  0  0  3  0  0  0  0  0  0
  183.9960  178.9530  146.2730 O   0  0  0  0  0  1  0  0  0  0  0  0
  183.7640  179.0630  144.9010 C   0  0  0  0  0  2  0  0  0  0  0  0
  194.2280  175.5810  135.7560 C   0  0  0  0  0  2  0  0  0  0  0  0
  195.7350  175.3860  135.8720 C   0  0  0  0  0  2  0  0  0  0  0  0
  195.2440  171.7030  136.0910 C   0  0  2  0  0  3  0  0  0  0  0  0
  196.9060  173.3630  137.2840 S   0  0  0  0  0  0  0  0  0  0  0  0
  193.9740  170.9050  136.3330 C   0  0  0  0  0  1  0  0  0  0  0  0
  196.1130  173.9160  135.7530 C   0  0  1  0  0  3  0  0  0  0  0  0
  196.9720  170.7730  137.3690 C   0  0  0  0  0  1  0  0  0  0  0  0
  195.9900  171.8440  137.3350 N   0  0  0  0  0  0  0  0  0  0  0  0
  194.8800  173.0730  135.5780 C   0  0  0  0  0  2  0  0  0  0  0  0
  2 10  1  6  0  0  0
  2  9  1  0  0  0  0
  3  9  2  0  0  0  0
  4 14  1  0  0  0  0
  5 10  2  0  0  0  0
  7  8  1  0  0  0  0
  7 12  1  0  0  0  0
  9 23  1  0  0  0  0
 10  8  1  0  0  0  0
 11  5  1  0  0  0  0
 11  1  1  1  0  0  0
 11  4  1  0  0  0  0
 12  3  1  0  0  0  0
 13  4  2  0  0  0  0
 14  2  1  0  0  0  0
 14  6  2  0  0  0  0
 17 26  1  6  0  0  0
 17 25  1  0  0  0  0
 18 15  2  0  0  0  0
 18 19  1  0  0  0  0
 19 21  1  0  0  0  0
 20 18  1  0  0  0  0
 21 25  1  0  0  0  0
 23 20  1  0  0  0  0
 23 22  2  0  0  0  0
 24 22  1  6  0  0  0
 24 19  1  0  0  0  0
 24 17  1  0  0  0  0
 25 16  1  1  0  0  0
 26 27  1  1  0  0  0
 26 28  1  0  0  0  0
 29 28  2  0  0  0  0
 29 31  1  0  0  0  0
 31 30  1  0  0  0  0
 32 33  1  0  0  0  0
 32 13  1  0  0  0  0
 34 36  1  1  0  0  0
 34 39  1  0  0  0  0
 35 39  1  0  0  0  0
 37 33  1  1  0  0  0
 37 35  1  0  0  0  0
 39 38  1  0  0  0  0
 40 37  1  0  0  0  0
 40 34  1  0  0  0  0
M  END
>  <MODEL>
1

>  <REMARK>
 VINA RESULT:      -7.6      0.000      0.000
  Name = 
  7 active torsions:
  status: ('A' for Active; 'I' for Inactive)
    1  A    between atoms: C_10  and  C_20
    2  A    between atoms: N_15  and  C_20
    3  A    between atoms: C_21  and  C_26
    4  A    between atoms: C_22  and  C_31
    5  A    between atoms: C_22  and  C_38
    6  A    between atoms: C_27  and  C_31
    7  A    between atoms: C_33  and  C_35
                            x       y       z     vdW  Elec       q    Type
                         _______ _______ _______ _____ _____    ______ ____

>  <TORSDO>
F 7

$$$$
=
 OpenBabel11042411443D

 40 44  0  0  1  0  0  0  0  0999 V2000
  189.3130  173.3260  136.8900 C   0  0  0  0  0  1  0  0  0  0  0  0
  189.1400  176.4280  138.3610 C   0  0  1  0  0  3  0  0  0  0  0  0
  188.8260  178.9090  138.5870 C   0  0  0  0  0  3  0  0  0  0  0  0
  190.9780  175.1660  137.1130 C   0  0  0  0  0  0  0  0  0  0  0  0
  188.7900  175.5630  136.0900 N   0  0  0  0  0  0  0  0  0  0  0  0
  191.4740  176.5820  138.9630 O   0  0  0  0  0  0  0  0  0  0  0  0
  187.7770  178.6700  136.3510 N   0  0  0  0  0  2  0  0  0  0  0  0
  187.2930  177.3370  136.7440 C   0  0  0  0  0  2  0  0  0  0  0  0
  188.9000  177.6990  139.1680 C   0  0  0  0  0  0  0  0  0  0  0  0
  188.4120  176.3760  137.0230 C   0  0  0  0  0  0  0  0  0  0  0  0
  189.8640  174.5970  136.2610 C   0  0  2  0  0  3  0  0  0  0  0  0
  188.9610  179.1200  137.1040 C   0  0  0  0  0  2  0  0  0  0  0  0
  192.2610  174.8280  136.9260 C   0  0  0  0  0  3  0  0  0  0  0  0
  190.6030  176.1030  138.1870 C   0  0  0  0  0  0  0  0  0  0  0  0
  189.8940  175.5140  143.3780 O   0  0  0  0  0  0  0  0  0  0  0  0
  186.4670  178.6140  145.8150 C   0  0  0  0  0  1  0  0  0  0  0  0
  186.3090  178.5310  143.3290 C   0  0  2  0  0  3  0  0  0  0  0  0
  189.2800  176.4230  142.7580 C   0  0  0  0  0  0  0  0  0  0  0  0
  188.2820  177.2110  143.4060 N   0  0  0  0  0  0  0  0  0  0  0  0
  189.5390  176.6530  141.3750 N   0  0  0  0  0  2  0  0  0  0  0  0
  187.4990  176.7510  144.5330 C   0  0  0  0  0  2  0  0  0  0  0  0
  187.8810  178.3990  141.2780 C   0  0  0  0  0  3  0  0  0  0  0  0
  188.7550  177.6070  140.6380 C   0  0  0  0  0  0  0  0  0  0  0  0
  187.7350  178.4010  142.7830 C   0  0  1  0  0  3  0  0  0  0  0  0
  186.3020  177.6970  144.6180 C   0  0  1  0  0  3  0  0  0  0  0  0
  185.2070  178.0890  142.3420 C   0  0  1  0  0  3  0  0  0  0  0  0
  183.7870  178.1960  142.8930 C   0  0  0  0  0  1  0  0  0  0  0  0
  185.3340  178.7420  141.0570 N   0  0  0  0  0  0  0  0  0  0  0  0
  184.4050  178.7000  140.1670 C   0  0  0  0  0  3  0  0  0  0  0  0
  184.0920  180.6930  138.9360 O   0  0  0  0  0  1  0  0  0  0  0  0
  184.5870  179.3910  138.8580 C   0  0  0  0  0  2  0  0  0  0  0  0
  192.7300  173.8810  135.8640 C   0  0  0  0  0  2  0  0  0  0  0  0
  193.3220  172.6120  136.4650 C   0  0  0  0  0  2  0  0  0  0  0  0
  196.2970  173.8750  138.3110 C   0  0  2  0  0  3  0  0  0  0  0  0
  195.4690  174.1740  135.8280 S   0  0  0  0  0  0  0  0  0  0  0  0
  196.3760  174.6080  139.6390 C   0  0  0  0  0  1  0  0  0  0  0  0
  194.8010  172.7860  136.7800 C   0  0  1  0  0  3  0  0  0  0  0  0
  197.7600  174.9000  136.7970 C   0  0  0  0  0  1  0  0  0  0  0  0
  196.3690  174.8280  137.2100 N   0  0  0  0  0  0  0  0  0  0  0  0
  194.9880  173.1310  138.2310 C   0  0  0  0  0  2  0  0  0  0  0  0
  2 10  1  6  0  0  0
  2  9  1  0  0  0  0
  3  9  2  0  0  0  0
  4 14  1  0  0  0  0
  5 11  1  0  0  0  0
  5 10  2  0  0  0  0
  7  8  1  0  0  0  0
  7 12  1  0  0  0  0
  8 10  1  0  0  0  0
  9 23  1  0  0  0  0
 11  1  1  1  0  0  0
 11  4  1  0  0  0  0
 12  3  1  0  0  0  0
 13  4  2  0  0  0  0
 14  2  1  0  0  0  0
 14  6  2  0  0  0  0
 17 26  1  6  0  0  0
 17 25  1  0  0  0  0
 18 15  2  0  0  0  0
 18 19  1  0  0  0  0
 19 21  1  0  0  0  0
 20 18  1  0  0  0  0
 21 25  1  0  0  0  0
 23 22  2  0  0  0  0
 23 20  1  0  0  0  0
 24 22  1  6  0  0  0
 24 17  1  0  0  0  0
 24 19  1  0  0  0  0
 25 16  1  1  0  0  0
 26 27  1  1  0  0  0
 28 26  1  0  0  0  0
 29 28  2  0  0  0  0
 31 30  1  0  0  0  0
 31 29  1  0  0  0  0
 32 33  1  0  0  0  0
 32 13  1  0  0  0  0
 34 36  1  1  0  0  0
 35 37  1  0  0  0  0
 35 39  1  0  0  0  0
 37 33  1  1  0  0  0
 37 40  1  0  0  0  0
 38 39  1  0  0  0  0
 39 34  1  0  0  0  0
 40 34  1  0  0  0  0
M  END
>  <MODEL>
2

>  <REMARK>
 VINA RESULT:      -7.6      2.388      2.960
  Name = 
  7 active torsions:
  status: ('A' for Active; 'I' for Inactive)
    1  A    between atoms: C_10  and  C_20
    2  A    between atoms: N_15  and  C_20
    3  A    between atoms: C_21  and  C_26
    4  A    between atoms: C_22  and  C_31
    5  A    between atoms: C_22  and  C_38
    6  A    between atoms: C_27  and  C_31
    7  A    between atoms: C_33  and  C_35
                            x       y       z     vdW  Elec       q    Type
                         _______ _______ _______ _____ _____    ______ ____

>  <TORSDO>
F 7

$$$$
=
 OpenBabel11042411443D

 40 44  0  0  1  0  0  0  0  0999 V2000
  184.1220  180.3170  144.4400 C   0  0  0  0  0  1  0  0  0  0  0  0
  181.8670  179.3520  142.0310 C   0  0  1  0  0  3  0  0  0  0  0  0
  179.9930  178.0920  140.9340 C   0  0  0  0  0  3  0  0  0  0  0  0
  184.1590  178.4830  142.7520 C   0  0  0  0  0  0  0  0  0  0  0  0
  182.3170  178.6880  144.3510 N   0  0  0  0  0  0  0  0  0  0  0  0
  183.4860  178.4770  140.4670 O   0  0  0  0  0  0  0  0  0  0  0  0
  179.5040  177.4000  143.2650 N   0  0  0  0  0  2  0  0  0  0  0  0
  179.9860  178.7100  143.7330 C   0  0  0  0  0  2  0  0  0  0  0  0
  180.8020  179.1650  140.9560 C   0  0  0  0  0  0  0  0  0  0  0  0
  181.4400  178.9310  143.4310 C   0  0  0  0  0  0  0  0  0  0  0  0
  183.7470  178.8690  144.1570 C   0  0  2  0  0  3  0  0  0  0  0  0
  180.0540  176.9940  141.9600 C   0  0  0  0  0  2  0  0  0  0  0  0
  185.3590  177.9520  142.4830 C   0  0  0  0  0  3  0  0  0  0  0  0
  183.1940  178.7330  141.6670 C   0  0  0  0  0  0  0  0  0  0  0  0
  178.9510  183.3430  139.3410 O   0  0  0  0  0  0  0  0  0  0  0  0
  180.9140  182.3970  134.5940 C   0  0  0  0  0  1  0  0  0  0  0  0
  180.8150  180.4570  136.1550 C   0  0  2  0  0  3  0  0  0  0  0  0
  179.6520  182.3200  139.1170 C   0  0  0  0  0  0  0  0  0  0  0  0
  180.1140  182.0200  137.8000 N   0  0  0  0  0  0  0  0  0  0  0  0
  179.9610  181.4120  140.1720 N   0  0  0  0  0  2  0  0  0  0  0  0
  179.4380  182.4430  136.5920 C   0  0  0  0  0  2  0  0  0  0  0  0
  181.1600  179.9580  138.6700 C   0  0  0  0  0  3  0  0  0  0  0  0
  180.6580  180.1850  139.8940 C   0  0  0  0  0  0  0  0  0  0  0  0
  181.1040  180.9870  137.5640 C   0  0  1  0  0  3  0  0  0  0  0  0
  180.0000  181.5660  135.4750 C   0  0  1  0  0  3  0  0  0  0  0  0
  180.0850  179.0960  136.1240 C   0  0  1  0  0  3  0  0  0  0  0  0
  178.9440  179.0150  135.1130 C   0  0  0  0  0  1  0  0  0  0  0  0
  181.0060  177.9880  135.9830 N   0  0  0  0  0  0  0  0  0  0  0  0
  182.1570  178.1150  135.4230 C   0  0  0  0  0  3  0  0  0  0  0  0
  183.2680  176.3650  136.5600 O   0  0  0  0  0  1  0  0  0  0  0  0
  183.0670  176.9390  135.3040 C   0  0  0  0  0  2  0  0  0  0  0  0
  186.4010  177.6700  143.5220 C   0  0  0  0  0  2  0  0  0  0  0  0
  187.6990  177.1740  142.8950 C   0  0  0  0  0  2  0  0  0  0  0  0
  189.4800  177.0220  146.1600 C   0  0  2  0  0  3  0  0  0  0  0  0
  190.3160  177.2360  143.6710 S   0  0  0  0  0  0  0  0  0  0  0  0
  189.2660  177.8390  147.4220 C   0  0  0  0  0  1  0  0  0  0  0  0
  188.6400  176.6070  143.9480 C   0  0  1  0  0  3  0  0  0  0  0  0
  191.7810  176.8280  145.7700 C   0  0  0  0  0  1  0  0  0  0  0  0
  190.5900  177.5710  145.3910 N   0  0  0  0  0  0  0  0  0  0  0  0
  188.2300  177.0690  145.3190 C   0  0  0  0  0  2  0  0  0  0  0  0
  2  9  1  6  0  0  0
  2 10  1  0  0  0  0
  3  9  2  0  0  0  0
  3 12  1  0  0  0  0
  4 11  1  0  0  0  0
  6 14  2  0  0  0  0
  7  8  1  0  0  0  0
 10  8  1  0  0  0  0
 10  5  2  0  0  0  0
 11  5  1  0  0  0  0
 11  1  1  6  0  0  0
 12  7  1  0  0  0  0
 13  4  2  0  0  0  0
 13 32  1  0  0  0  0
 14  2  1  0  0  0  0
 14  4  1  0  0  0  0
 17 26  1  1  0  0  0
 17 24  1  0  0  0  0
 18 15  2  0  0  0  0
 18 20  1  0  0  0  0
 19 18  1  0  0  0  0
 21 19  1  0  0  0  0
 22 23  2  0  0  0  0
 23 20  1  0  0  0  0
 23  9  1  0  0  0  0
 24 19  1  0  0  0  0
 24 22  1  1  0  0  0
 25 16  1  6  0  0  0
 25 17  1  0  0  0  0
 25 21  1  0  0  0  0
 26 27  1  6  0  0  0
 28 26  1  0  0  0  0
 29 28  2  0  0  0  0
 31 29  1  0  0  0  0
 31 30  1  0  0  0  0
 33 32  1  0  0  0  0
 34 36  1  1  0  0  0
 35 37  1  0  0  0  0
 35 39  1  0  0  0  0
 37 33  1  6  0  0  0
 37 40  1  0  0  0  0
 39 38  1  0  0  0  0
 39 34  1  0  0  0  0
 40 34  1  0  0  0  0
M  END
>  <MODEL>
3

>  <REMARK>
 VINA RESULT:      -7.2      6.861     11.484
  Name = 
  7 active torsions:
  status: ('A' for Active; 'I' for Inactive)
    1  A    between atoms: C_10  and  C_20
    2  A    between atoms: N_15  and  C_20
    3  A    between atoms: C_21  and  C_26
    4  A    between atoms: C_22  and  C_31
    5  A    between atoms: C_22  and  C_38
    6  A    between atoms: C_27  and  C_31
    7  A    between atoms: C_33  and  C_35
                            x       y       z     vdW  Elec       q    Type
                         _______ _______ _______ _____ _____    ______ ____

>  <TORSDO>
F 7

$$$$
=
 OpenBabel11042411443D

 40 44  0  0  1  0  0  0  0  0999 V2000
  185.8850  177.8430  142.0290 C   0  0  0  0  0  1  0  0  0  0  0  0
  182.8260  178.4170  140.5710 C   0  0  1  0  0  3  0  0  0  0  0  0
  180.9970  179.6150  139.3360 C   0  0  0  0  0  3  0  0  0  0  0  0
  183.8200  178.9620  142.8610 C   0  0  0  0  0  0  0  0  0  0  0  0
  184.9080  179.6980  140.7950 N   0  0  0  0  0  0  0  0  0  0  0  0
  181.5300  178.3570  142.6080 O   0  0  0  0  0  0  0  0  0  0  0  0
  182.8510  181.1260  138.6800 N   0  0  0  0  0  2  0  0  0  0  0  0
  183.7660  179.9740  138.6890 C   0  0  0  0  0  2  0  0  0  0  0  0
  181.5140  178.4620  139.7960 C   0  0  0  0  0  0  0  0  0  0  0  0
  183.9050  179.3590  140.0520 C   0  0  0  0  0  0  0  0  0  0  0  0
  185.1290  179.1600  142.1290 C   0  0  2  0  0  3  0  0  0  0  0  0
  181.6620  180.9500  139.5310 C   0  0  0  0  0  2  0  0  0  0  0  0
  183.7180  179.1030  144.1890 C   0  0  0  0  0  3  0  0  0  0  0  0
  182.6430  178.5810  142.0590 C   0  0  0  0  0  0  0  0  0  0  0  0
  178.9310  174.6970  141.4240 O   0  0  0  0  0  0  0  0  0  0  0  0
  179.0830  172.5200  136.6780 C   0  0  0  0  0  1  0  0  0  0  0  0
  180.7070  174.3630  137.1000 C   0  0  2  0  0  3  0  0  0  0  0  0
  179.4800  175.2850  140.4540 C   0  0  0  0  0  0  0  0  0  0  0  0
  179.5960  174.6510  139.1800 N   0  0  0  0  0  0  0  0  0  0  0  0
  180.0420  176.5850  140.6220 N   0  0  0  0  0  2  0  0  0  0  0  0
  179.6470  173.2150  138.9960 C   0  0  0  0  0  2  0  0  0  0  0  0
  180.8010  176.6340  138.3350 C   0  0  0  0  0  3  0  0  0  0  0  0
  180.7740  177.2040  139.5500 C   0  0  0  0  0  0  0  0  0  0  0  0
  180.0120  175.3890  138.0030 C   0  0  1  0  0  3  0  0  0  0  0  0
  180.1990  172.9990  137.5880 C   0  0  1  0  0  3  0  0  0  0  0  0
  182.2480  174.4480  137.1110 C   0  0  1  0  0  3  0  0  0  0  0  0
  182.9550  173.0940  137.1380 C   0  0  0  0  0  1  0  0  0  0  0  0
  182.7540  175.2940  136.0520 N   0  0  0  0  0  0  0  0  0  0  0  0
  183.8520  175.9570  136.1630 C   0  0  0  0  0  3  0  0  0  0  0  0
  185.6050  177.3010  135.3220 O   0  0  0  0  0  1  0  0  0  0  0  0
  184.3280  176.8150  135.0390 C   0  0  0  0  0  2  0  0  0  0  0  0
  184.8610  179.4830  145.0800 C   0  0  0  0  0  2  0  0  0  0  0  0
  185.4860  178.2610  145.7420 C   0  0  0  0  0  2  0  0  0  0  0  0
  189.1390  177.6160  145.4390 C   0  0  2  0  0  3  0  0  0  0  0  0
  187.4680  177.5310  147.4740 S   0  0  0  0  0  0  0  0  0  0  0  0
  189.8900  176.7160  144.4720 C   0  0  0  0  0  1  0  0  0  0  0  0
  186.9690  178.4730  146.0090 C   0  0  1  0  0  3  0  0  0  0  0  0
  190.0510  177.3460  147.5790 C   0  0  0  0  0  1  0  0  0  0  0  0
  188.9570  176.9360  146.7160 N   0  0  0  0  0  0  0  0  0  0  0  0
  187.7870  177.9480  144.8620 C   0  0  0  0  0  2  0  0  0  0  0  0
  2  9  1  6  0  0  0
  2 14  1  0  0  0  0
  3 12  1  0  0  0  0
  3  9  2  0  0  0  0
  4 13  2  0  0  0  0
  5 11  1  0  0  0  0
  7  8  1  0  0  0  0
  7 12  1  0  0  0  0
  8 10  1  0  0  0  0
 10  2  1  0  0  0  0
 10  5  2  0  0  0  0
 11  1  1  6  0  0  0
 11  4  1  0  0  0  0
 13 32  1  0  0  0  0
 14  6  2  0  0  0  0
 14  4  1  0  0  0  0
 17 26  1  1  0  0  0
 17 25  1  0  0  0  0
 17 24  1  0  0  0  0
 18 20  1  0  0  0  0
 18 15  2  0  0  0  0
 19 18  1  0  0  0  0
 21 19  1  0  0  0  0
 22 23  2  0  0  0  0
 23  9  1  0  0  0  0
 23 20  1  0  0  0  0
 24 22  1  1  0  0  0
 24 19  1  0  0  0  0
 25 16  1  6  0  0  0
 25 21  1  0  0  0  0
 26 27  1  6  0  0  0
 28 29  2  0  0  0  0
 28 26  1  0  0  0  0
 31 30  1  0  0  0  0
 31 29  1  0  0  0  0
 32 33  1  0  0  0  0
 34 36  1  6  0  0  0
 34 39  1  0  0  0  0
 37 33  1  6  0  0  0
 37 35  1  0  0  0  0
 39 35  1  0  0  0  0
 39 38  1  0  0  0  0
 40 34  1  0  0  0  0
 40 37  1  0  0  0  0
M  END
>  <MODEL>
4

>  <REMARK>
 VINA RESULT:      -7.0      7.060     11.072
  Name = 
  7 active torsions:
  status: ('A' for Active; 'I' for Inactive)
    1  A    between atoms: C_10  and  C_20
    2  A    between atoms: N_15  and  C_20
    3  A    between atoms: C_21  and  C_26
    4  A    between atoms: C_22  and  C_31
    5  A    between atoms: C_22  and  C_38
    6  A    between atoms: C_27  and  C_31
    7  A    between atoms: C_33  and  C_35
                            x       y       z     vdW  Elec       q    Type
                         _______ _______ _______ _____ _____    ______ ____

>  <TORSDO>
F 7

$$$$
=
 OpenBabel11042411443D

 40 44  0  0  1  0  0  0  0  0999 V2000
  184.9930  178.9530  138.8650 C   0  0  0  0  0  1  0  0  0  0  0  0
  182.1720  177.1560  138.0720 C   0  0  1  0  0  3  0  0  0  0  0  0
  179.7770  176.6730  137.4940 C   0  0  0  0  0  3  0  0  0  0  0  0
  183.1270  178.0670  140.2600 C   0  0  0  0  0  0  0  0  0  0  0  0
  182.6880  179.5400  138.3550 N   0  0  0  0  0  0  0  0  0  0  0  0
  181.9960  175.9730  140.1700 O   0  0  0  0  0  0  0  0  0  0  0  0
  179.7160  179.1100  137.0380 N   0  0  0  0  0  2  0  0  0  0  0  0
  181.1180  179.0410  136.5940 C   0  0  0  0  0  2  0  0  0  0  0  0
  181.0580  176.2660  137.5340 C   0  0  0  0  0  0  0  0  0  0  0  0
  182.0520  178.6270  137.6940 C   0  0  0  0  0  0  0  0  0  0  0  0
  183.6120  179.2410  139.4380 C   0  0  2  0  0  3  0  0  0  0  0  0
  179.3300  178.0300  137.9630 C   0  0  0  0  0  2  0  0  0  0  0  0
  183.3660  177.9710  141.5750 C   0  0  0  0  0  3  0  0  0  0  0  0
  182.3910  177.0010  139.5560 C   0  0  0  0  0  0  0  0  0  0  0  0
  180.2500  171.4870  137.5000 O   0  0  0  0  0  0  0  0  0  0  0  0
  184.5300  170.7660  134.5940 C   0  0  0  0  0  1  0  0  0  0  0  0
  184.3190  172.9800  135.7200 C   0  0  2  0  0  3  0  0  0  0  0  0
  180.9390  172.4630  137.1000 C   0  0  0  0  0  0  0  0  0  0  0  0
  182.1540  172.2590  136.3800 N   0  0  0  0  0  0  0  0  0  0  0  0
  180.5390  173.7990  137.4000 N   0  0  0  0  0  2  0  0  0  0  0  0
  182.9810  171.0780  136.5120 C   0  0  0  0  0  2  0  0  0  0  0  0
  182.4810  174.7060  136.2980 C   0  0  0  0  0  3  0  0  0  0  0  0
  181.3870  174.9070  137.0490 C   0  0  0  0  0  0  0  0  0  0  0  0
  182.8330  173.3560  135.7170 C   0  0  1  0  0  3  0  0  0  0  0  0
  184.3410  171.4590  135.9310 C   0  0  1  0  0  3  0  0  0  0  0  0
  185.1620  173.7260  136.7770 C   0  0  1  0  0  3  0  0  0  0  0  0
  186.0690  172.8250  137.6130 C   0  0  0  0  0  1  0  0  0  0  0  0
  185.8920  174.8370  136.2050 N   0  0  0  0  0  0  0  0  0  0  0  0
  186.5160  175.6990  136.9290 C   0  0  0  0  0  3  0  0  0  0  0  0
  188.1450  177.3900  137.2010 O   0  0  0  0  0  1  0  0  0  0  0  0
  187.2530  176.8260  136.2870 C   0  0  0  0  0  2  0  0  0  0  0  0
  184.1090  179.0030  142.3670 C   0  0  0  0  0  2  0  0  0  0  0  0
  183.9040  178.8160  143.8650 C   0  0  0  0  0  2  0  0  0  0  0  0
  187.3170  177.8880  145.0250 C   0  0  2  0  0  3  0  0  0  0  0  0
  185.0390  178.2760  146.2900 S   0  0  0  0  0  0  0  0  0  0  0  0
  188.2400  176.7840  144.5400 C   0  0  0  0  0  1  0  0  0  0  0  0
  185.2110  178.9740  144.6280 C   0  0  1  0  0  3  0  0  0  0  0  0
  187.3730  177.9430  147.3650 C   0  0  0  0  0  1  0  0  0  0  0  0
  186.6120  177.4590  146.2270 N   0  0  0  0  0  0  0  0  0  0  0  0
  186.3080  178.2010  143.9490 C   0  0  0  0  0  2  0  0  0  0  0  0
  2  9  1  1  0  0  0
  2 14  1  0  0  0  0
  3  9  2  0  0  0  0
  3 12  1  0  0  0  0
  4 13  2  0  0  0  0
  5 11  1  0  0  0  0
  7 12  1  0  0  0  0
  8  7  1  0  0  0  0
  8 10  1  0  0  0  0
 10  2  1  0  0  0  0
 10  5  2  0  0  0  0
 11  1  1  6  0  0  0
 11  4  1  0  0  0  0
 13 32  1  0  0  0  0
 14  6  2  0  0  0  0
 14  4  1  0  0  0  0
 17 25  1  0  0  0  0
 17 26  1  1  0  0  0
 18 20  1  0  0  0  0
 18 15  2  0  0  0  0
 19 21  1  0  0  0  0
 19 18  1  0  0  0  0
 22 23  2  0  0  0  0
 23 20  1  0  0  0  0
 23  9  1  0  0  0  0
 24 17  1  0  0  0  0
 24 22  1  1  0  0  0
 24 19  1  0  0  0  0
 25 16  1  6  0  0  0
 25 21  1  0  0  0  0
 26 27  1  6  0  0  0
 28 26  1  0  0  0  0
 28 29  2  0  0  0  0
 31 29  1  0  0  0  0
 31 30  1  0  0  0  0
 32 33  1  0  0  0  0
 34 36  1  6  0  0  0
 34 39  1  0  0  0  0
 37 33  1  6  0  0  0
 37 35  1  0  0  0  0
 39 35  1  0  0  0  0
 39 38  1  0  0  0  0
 40 37  1  0  0  0  0
 40 34  1  0  0  0  0
M  END
>  <MODEL>
5

>  <REMARK>
 VINA RESULT:      -7.0      6.358     11.302
  Name = 
  7 active torsions:
  status: ('A' for Active; 'I' for Inactive)
    1  A    between atoms: C_10  and  C_20
    2  A    between atoms: N_15  and  C_20
    3  A    between atoms: C_21  and  C_26
    4  A    between atoms: C_22  and  C_31
    5  A    between atoms: C_22  and  C_38
    6  A    between atoms: C_27  and  C_31
    7  A    between atoms: C_33  and  C_35
                            x       y       z     vdW  Elec       q    Type
                         _______ _______ _______ _____ _____    ______ ____

>  <TORSDO>
F 7

$$$$
=
 OpenBabel11042411443D

 40 44  0  0  1  0  0  0  0  0999 V2000
  189.6180  175.4470  142.6530 C   0  0  0  0  0  1  0  0  0  0  0  0
  188.4000  177.4190  140.1150 C   0  0  1  0  0  3  0  0  0  0  0  0
  188.3240  178.6710  137.9400 C   0  0  0  0  0  3  0  0  0  0  0  0
  189.8570  177.8790  142.1630 C   0  0  0  0  0  0  0  0  0  0  0  0
  190.4900  176.1910  140.5070 N   0  0  0  0  0  0  0  0  0  0  0  0
  188.2510  179.4620  141.3950 O   0  0  0  0  0  0  0  0  0  0  0  0
  190.3020  177.2690  137.4160 N   0  0  0  0  0  2  0  0  0  0  0  0
  189.7190  176.1830  138.2220 C   0  0  0  0  0  2  0  0  0  0  0  0
  187.6690  178.1340  138.9840 C   0  0  0  0  0  0  0  0  0  0  0  0
  189.5730  176.5540  139.6690 C   0  0  0  0  0  0  0  0  0  0  0  0
  190.4400  176.5030  141.9270 C   0  0  2  0  0  3  0  0  0  0  0  0
  189.8190  178.6100  137.7860 C   0  0  0  0  0  2  0  0  0  0  0  0
  190.2470  178.6520  143.1850 C   0  0  0  0  0  3  0  0  0  0  0  0
  188.8120  178.3440  141.2330 C   0  0  0  0  0  0  0  0  0  0  0  0
  183.5920  179.0290  141.4470 O   0  0  0  0  0  0  0  0  0  0  0  0
  180.7540  177.5740  137.3100 C   0  0  0  0  0  1  0  0  0  0  0  0
  183.1570  176.9150  137.2880 C   0  0  2  0  0  3  0  0  0  0  0  0
  184.1420  178.6960  140.3630 C   0  0  0  0  0  0  0  0  0  0  0  0
  183.3690  178.2170  139.2640 N   0  0  0  0  0  0  0  0  0  0  0  0
  185.5610  178.7480  140.2280 N   0  0  0  0  0  2  0  0  0  0  0  0
  182.0890  177.5540  139.4060 C   0  0  0  0  0  2  0  0  0  0  0  0
  185.4530  177.8880  137.9790 C   0  0  0  0  0  3  0  0  0  0  0  0
  186.1950  178.2540  139.0360 C   0  0  0  0  0  0  0  0  0  0  0  0
  183.9510  178.0500  137.9460 C   0  0  1  0  0  3  0  0  0  0  0  0
  181.8420  176.8440  138.0760 C   0  0  1  0  0  3  0  0  0  0  0  0
  183.8930  175.5580  137.2610 C   0  0  1  0  0  3  0  0  0  0  0  0
  182.9780  174.3410  137.3770 C   0  0  0  0  0  1  0  0  0  0  0  0
  184.7890  175.4480  136.1290 N   0  0  0  0  0  0  0  0  0  0  0  0
  185.7080  174.5490  136.0610 C   0  0  0  0  0  3  0  0  0  0  0  0
  187.8220  173.8980  135.2290 O   0  0  0  0  0  1  0  0  0  0  0  0
  186.6050  174.4800  134.8710 C   0  0  0  0  0  2  0  0  0  0  0  0
  191.2960  178.2570  144.1790 C   0  0  0  0  0  2  0  0  0  0  0  0
  190.6970  177.4940  145.3550 C   0  0  0  0  0  2  0  0  0  0  0  0
  188.0110  178.2270  147.8250 C   0  0  2  0  0  3  0  0  0  0  0  0
  187.9670  177.5270  145.2860 S   0  0  0  0  0  0  0  0  0  0  0  0
  187.7980  177.6680  149.2210 C   0  0  0  0  0  1  0  0  0  0  0  0
  189.5020  178.2310  145.9410 C   0  0  1  0  0  3  0  0  0  0  0  0
  185.9490  178.2960  146.7180 C   0  0  0  0  0  1  0  0  0  0  0  0
  187.1680  177.5200  146.8700 N   0  0  0  0  0  0  0  0  0  0  0  0
  189.4560  178.0460  147.4330 C   0  0  0  0  0  2  0  0  0  0  0  0
  2  9  1  6  0  0  0
  2 14  1  0  0  0  0
  3  9  2  0  0  0  0
  4 13  2  0  0  0  0
  5 11  1  0  0  0  0
  7 12  1  0  0  0  0
  7  8  1  0  0  0  0
  8 10  1  0  0  0  0
  9 23  1  0  0  0  0
 10  2  1  0  0  0  0
 10  5  2  0  0  0  0
 11  4  1  0  0  0  0
 11  1  1  1  0  0  0
 12  3  1  0  0  0  0
 13 32  1  0  0  0  0
 14  6  2  0  0  0  0
 14  4  1  0  0  0  0
 17 26  1  1  0  0  0
 17 24  1  0  0  0  0
 17 25  1  0  0  0  0
 18 15  2  0  0  0  0
 19 21  1  0  0  0  0
 19 18  1  0  0  0  0
 20 18  1  0  0  0  0
 22 23  2  0  0  0  0
 23 20  1  0  0  0  0
 24 22  1  1  0  0  0
 24 19  1  0  0  0  0
 25 16  1  6  0  0  0
 25 21  1  0  0  0  0
 26 27  1  6  0  0  0
 28 26  1  0  0  0  0
 29 28  2  0  0  0  0
 31 30  1  0  0  0  0
 31 29  1  0  0  0  0
 32 33  1  0  0  0  0
 34 36  1  1  0  0  0
 35 37  1  0  0  0  0
 35 39  1  0  0  0  0
 37 33  1  6  0  0  0
 37 40  1  0  0  0  0
 38 39  1  0  0  0  0
 39 34  1  0  0  0  0
 40 34  1  0  0  0  0
M  END
>  <MODEL>
6

>  <REMARK>
 VINA RESULT:      -6.3      4.460      9.185
  Name = 
  7 active torsions:
  status: ('A' for Active; 'I' for Inactive)
    1  A    between atoms: C_10  and  C_20
    2  A    between atoms: N_15  and  C_20
    3  A    between atoms: C_21  and  C_26
    4  A    between atoms: C_22  and  C_31
    5  A    between atoms: C_22  and  C_38
    6  A    between atoms: C_27  and  C_31
    7  A    between atoms: C_33  and  C_35
                            x       y       z     vdW  Elec       q    Type
                         _______ _______ _______ _____ _____    ______ ____

>  <TORSDO>
F 7

$$$$
=
 OpenBabel11042411443D

 40 44  0  0  1  0  0  0  0  0999 V2000
  181.7760  176.7920  139.3600 C   0  0  0  0  0  1  0  0  0  0  0  0
  184.4320  178.4490  140.7820 C   0  0  1  0  0  3  0  0  0  0  0  0
  185.7560  179.7610  142.4630 C   0  0  0  0  0  3  0  0  0  0  0  0
  182.4080  179.2020  139.4150 C   0  0  0  0  0  0  0  0  0  0  0  0
  182.1380  177.9220  141.4840 N   0  0  0  0  0  0  0  0  0  0  0  0
  184.5360  180.2450  139.1700 O   0  0  0  0  0  0  0  0  0  0  0  0
  183.9090  179.0970  143.9800 N   0  0  0  0  0  2  0  0  0  0  0  0
  183.7870  177.8300  143.2420 C   0  0  0  0  0  2  0  0  0  0  0  0
  185.7340  178.9730  141.3740 C   0  0  0  0  0  0  0  0  0  0  0  0
  183.3860  178.0330  141.8090 C   0  0  0  0  0  0  0  0  0  0  0  0
  181.6500  178.1010  140.1250 C   0  0  2  0  0  3  0  0  0  0  0  0
  184.5140  180.1880  143.1950 C   0  0  0  0  0  2  0  0  0  0  0  0
  181.8300  179.9860  138.4950 C   0  0  0  0  0  3  0  0  0  0  0  0
  183.8320  179.3760  139.7540 C   0  0  0  0  0  0  0  0  0  0  0  0
  188.2200  177.2410  137.5910 O   0  0  0  0  0  0  0  0  0  0  0  0
  192.6240  177.3840  140.3970 C   0  0  0  0  0  1  0  0  0  0  0  0
  190.4920  177.5600  141.6760 C   0  0  2  0  0  3  0  0  0  0  0  0
  188.2300  177.6920  138.7670 C   0  0  0  0  0  0  0  0  0  0  0  0
  189.4150  177.6500  139.5610 N   0  0  0  0  0  0  0  0  0  0  0  0
  187.0370  178.2140  139.3490 N   0  0  0  0  0  2  0  0  0  0  0  0
  190.4680  176.6720  139.3860 C   0  0  0  0  0  2  0  0  0  0  0  0
  188.1590  178.6510  141.4370 C   0  0  0  0  0  3  0  0  0  0  0  0
  187.0180  178.6160  140.7300 C   0  0  0  0  0  0  0  0  0  0  0  0
  189.5080  178.3650  140.8200 C   0  0  1  0  0  3  0  0  0  0  0  0
  191.2900  176.7150  140.6730 C   0  0  1  0  0  3  0  0  0  0  0  0
  189.8250  176.6940  142.7670 C   0  0  1  0  0  3  0  0  0  0  0  0
  190.6580  175.4960  143.2190 C   0  0  0  0  0  1  0  0  0  0  0  0
  189.3730  177.4860  143.8900 N   0  0  0  0  0  0  0  0  0  0  0  0
  188.6060  177.0100  144.8070 C   0  0  0  0  0  3  0  0  0  0  0  0
  186.8370  178.2490  145.7690 O   0  0  0  0  0  1  0  0  0  0  0  0
  188.1690  177.8710  145.9440 C   0  0  0  0  0  2  0  0  0  0  0  0
  180.3920  179.8750  138.0870 C   0  0  0  0  0  2  0  0  0  0  0  0
  180.1810  180.3290  136.6470 C   0  0  0  0  0  2  0  0  0  0  0  0
  179.8460  183.9830  136.0190 C   0  0  2  0  0  3  0  0  0  0  0  0
  179.6220  182.5110  138.1920 S   0  0  0  0  0  0  0  0  0  0  0  0
  180.7950  184.9380  135.3170 C   0  0  0  0  0  1  0  0  0  0  0  0
  179.4790  181.6780  136.5900 C   0  0  1  0  0  3  0  0  0  0  0  0
  179.0250  185.0210  137.9500 C   0  0  0  0  0  1  0  0  0  0  0  0
  180.0180  184.0790  137.4630 N   0  0  0  0  0  0  0  0  0  0  0  0
  180.1470  182.5710  135.5810 C   0  0  0  0  0  2  0  0  0  0  0  0
  2 14  1  6  0  0  0
  2  9  1  0  0  0  0
  2 10  1  0  0  0  0
  3 12  1  0  0  0  0
  4 14  1  0  0  0  0
  4 11  1  0  0  0  0
  5 10  2  0  0  0  0
  6 14  2  0  0  0  0
  8  7  1  0  0  0  0
  9  3  2  0  0  0  0
 10  8  1  0  0  0  0
 11  1  1  6  0  0  0
 11  5  1  0  0  0  0
 12  7  1  0  0  0  0
 13  4  2  0  0  0  0
 15 18  2  0  0  0  0
 17 26  1  1  0  0  0
 18 20  1  0  0  0  0
 18 19  1  0  0  0  0
 19 24  1  0  0  0  0
 20 23  1  0  0  0  0
 21 19  1  0  0  0  0
 21 25  1  0  0  0  0
 23  9  1  0  0  0  0
 23 22  2  0  0  0  0
 24 22  1  1  0  0  0
 24 17  1  0  0  0  0
 25 16  1  6  0  0  0
 25 17  1  0  0  0  0
 26 27  1  1  0  0  0
 26 28  1  0  0  0  0
 28 29  2  0  0  0  0
 29 31  1  0  0  0  0
 30 31  1  0  0  0  0
 32 13  1  0  0  0  0
 33 32  1  0  0  0  0
 34 36  1  6  0  0  0
 34 39  1  0  0  0  0
 37 33  1  1  0  0  0
 37 35  1  0  0  0  0
 39 38  1  0  0  0  0
 39 35  1  0  0  0  0
 40 34  1  0  0  0  0
 40 37  1  0  0  0  0
M  END
>  <MODEL>
7

>  <REMARK>
 VINA RESULT:      -6.2      6.129     10.760
  Name = 
  7 active torsions:
  status: ('A' for Active; 'I' for Inactive)
    1  A    between atoms: C_10  and  C_20
    2  A    between atoms: N_15  and  C_20
    3  A    between atoms: C_21  and  C_26
    4  A    between atoms: C_22  and  C_31
    5  A    between atoms: C_22  and  C_38
    6  A    between atoms: C_27  and  C_31
    7  A    between atoms: C_33  and  C_35
                            x       y       z     vdW  Elec       q    Type
                         _______ _______ _______ _____ _____    ______ ____

>  <TORSDO>
F 7

$$$$
=
 OpenBabel11042411443D

 40 44  0  0  1  0  0  0  0  0999 V2000
  183.2480  176.3480  140.1850 C   0  0  0  0  0  1  0  0  0  0  0  0
  184.7460  178.0930  142.7400 C   0  0  1  0  0  3  0  0  0  0  0  0
  185.0520  179.7920  144.5640 C   0  0  0  0  0  3  0  0  0  0  0  0
  184.5320  178.4840  140.2240 C   0  0  0  0  0  0  0  0  0  0  0  0
  182.5550  178.1750  141.6340 N   0  0  0  0  0  0  0  0  0  0  0  0
  186.5100  179.0720  141.4130 O   0  0  0  0  0  0  0  0  0  0  0  0
  182.5920  180.0190  144.3450 N   0  0  0  0  0  2  0  0  0  0  0  0
  182.5110  178.5880  144.0100 C   0  0  0  0  0  2  0  0  0  0  0  0
  185.4400  178.6440  143.9800 C   0  0  0  0  0  0  0  0  0  0  0  0
  183.2300  178.2530  142.7360 C   0  0  0  0  0  0  0  0  0  0  0  0
  183.1600  177.8580  140.3490 C   0  0  2  0  0  3  0  0  0  0  0  0
  183.9050  180.6240  144.0610 C   0  0  0  0  0  2  0  0  0  0  0  0
  185.0200  178.9010  139.0480 C   0  0  0  0  0  3  0  0  0  0  0  0
  185.3410  178.6010  141.4510 C   0  0  0  0  0  0  0  0  0  0  0  0
  187.9990  177.1540  147.8170 O   0  0  0  0  0  0  0  0  0  0  0  0
  191.6800  175.2430  144.6420 C   0  0  0  0  0  1  0  0  0  0  0  0
  190.0570  176.8350  143.6200 C   0  0  2  0  0  3  0  0  0  0  0  0
  187.8680  177.2000  146.5650 C   0  0  0  0  0  0  0  0  0  0  0  0
  188.9130  176.7560  145.7000 N   0  0  0  0  0  0  0  0  0  0  0  0
  186.6840  177.7430  145.9830 N   0  0  0  0  0  2  0  0  0  0  0  0
  190.3140  176.7580  146.0620 C   0  0  0  0  0  2  0  0  0  0  0  0
  187.5380  177.4060  143.7540 C   0  0  0  0  0  3  0  0  0  0  0  0
  186.5860  177.9060  144.5570 C   0  0  0  0  0  0  0  0  0  0  0  0
  188.6950  176.5860  144.2760 C   0  0  1  0  0  3  0  0  0  0  0  0
  191.0810  176.6330  144.7470 C   0  0  1  0  0  3  0  0  0  0  0  0
  190.1960  178.2190  142.9490 C   0  0  1  0  0  3  0  0  0  0  0  0
  191.2380  179.1310  143.5930 C   0  0  0  0  0  1  0  0  0  0  0  0
  190.3890  178.1120  141.5180 N   0  0  0  0  0  0  0  0  0  0  0  0
  190.0190  177.0780  140.8470 C   0  0  0  0  0  3  0  0  0  0  0  0
  190.9290  175.8510  139.0430 O   0  0  0  0  0  1  0  0  0  0  0  0
  190.2420  177.0200  139.3730 C   0  0  0  0  0  2  0  0  0  0  0  0
  184.2700  178.8150  137.7540 C   0  0  0  0  0  2  0  0  0  0  0  0
  184.5980  177.5320  136.9990 C   0  0  0  0  0  2  0  0  0  0  0  0
  188.1520  177.0120  136.0250 C   0  0  2  0  0  3  0  0  0  0  0  0
  186.2590  175.3710  136.8400 S   0  0  0  0  0  0  0  0  0  0  0  0
  188.8910  177.4550  134.7750 C   0  0  0  0  0  1  0  0  0  0  0  0
  186.0550  177.1360  137.1900 C   0  0  1  0  0  3  0  0  0  0  0  0
  188.7690  174.8080  136.5230 C   0  0  0  0  0  1  0  0  0  0  0  0
  187.7400  175.6200  135.8950 N   0  0  0  0  0  0  0  0  0  0  0  0
  186.9280  177.8720  136.2110 C   0  0  0  0  0  2  0  0  0  0  0  0
  2 14  1  6  0  0  0
  2  9  1  0  0  0  0
  4 11  1  0  0  0  0
  4 14  1  0  0  0  0
  5 10  2  0  0  0  0
  6 14  2  0  0  0  0
  8  7  1  0  0  0  0
  9 23  1  0  0  0  0
  9  3  2  0  0  0  0
 10  2  1  0  0  0  0
 10  8  1  0  0  0  0
 11  1  1  1  0  0  0
 11  5  1  0  0  0  0
 12  7  1  0  0  0  0
 12  3  1  0  0  0  0
 13  4  2  0  0  0  0
 17 26  1  1  0  0  0
 17 24  1  0  0  0  0
 17 25  1  0  0  0  0
 18 15  2  0  0  0  0
 19 21  1  0  0  0  0
 19 18  1  0  0  0  0
 20 18  1  0  0  0  0
 22 23  2  0  0  0  0
 23 20  1  0  0  0  0
 24 22  1  6  0  0  0
 24 19  1  0  0  0  0
 25 16  1  6  0  0  0
 25 21  1  0  0  0  0
 26 27  1  1  0  0  0
 28 26  1  0  0  0  0
 29 28  2  0  0  0  0
 30 31  1  0  0  0  0
 31 29  1  0  0  0  0
 32 13  1  0  0  0  0
 33 32  1  0  0  0  0
 34 36  1  6  0  0  0
 34 40  1  0  0  0  0
 35 37  1  0  0  0  0
 37 33  1  6  0  0  0
 39 34  1  0  0  0  0
 39 38  1  0  0  0  0
 39 35  1  0  0  0  0
 40 37  1  0  0  0  0
M  END
>  <MODEL>
8

>  <REMARK>
 VINA RESULT:      -6.2      4.223      7.543
  Name = 
  7 active torsions:
  status: ('A' for Active; 'I' for Inactive)
    1  A    between atoms: C_10  and  C_20
    2  A    between atoms: N_15  and  C_20
    3  A    between atoms: C_21  and  C_26
    4  A    between atoms: C_22  and  C_31
    5  A    between atoms: C_22  and  C_38
    6  A    between atoms: C_27  and  C_31
    7  A    between atoms: C_33  and  C_35
                            x       y       z     vdW  Elec       q    Type
                         _______ _______ _______ _____ _____    ______ ____

>  <TORSDO>
F 7

$$$$
=
 OpenBabel11042411443D

 40 44  0  0  1  0  0  0  0  0999 V2000
  188.8860  178.7310  136.8440 C   0  0  0  0  0  1  0  0  0  0  0  0
  189.4310  175.3390  136.7040 C   0  0  1  0  0  3  0  0  0  0  0  0
  188.9350  172.8780  136.6490 C   0  0  0  0  0  3  0  0  0  0  0  0
  189.0700  176.9910  138.6200 C   0  0  0  0  0  0  0  0  0  0  0  0
  187.4410  176.7740  136.8050 N   0  0  0  0  0  0  0  0  0  0  0  0
  190.5680  175.1510  138.8260 O   0  0  0  0  0  0  0  0  0  0  0  0
  186.6370  173.6650  136.1450 N   0  0  0  0  0  2  0  0  0  0  0  0
  187.2100  174.8120  135.4230 C   0  0  0  0  0  2  0  0  0  0  0  0
  189.8000  173.8850  136.4340 C   0  0  0  0  0  0  0  0  0  0  0  0
  188.0070  175.7170  136.3170 C   0  0  0  0  0  0  0  0  0  0  0  0
  188.1260  177.7120  137.6810 C   0  0  2  0  0  3  0  0  0  0  0  0
  187.5370  173.0900  137.1600 C   0  0  0  0  0  2  0  0  0  0  0  0
  189.3190  177.4350  139.8590 C   0  0  0  0  0  3  0  0  0  0  0  0
  189.7360  175.7770  138.1150 C   0  0  0  0  0  0  0  0  0  0  0  0
  192.9760  170.7200  134.5940 O   0  0  0  0  0  0  0  0  0  0  0  0
  196.7990  174.2460  135.0810 C   0  0  0  0  0  1  0  0  0  0  0  0
  194.7030  174.7060  136.3490 C   0  0  2  0  0  3  0  0  0  0  0  0
  192.7400  171.8830  135.0160 C   0  0  0  0  0  0  0  0  0  0  0  0
  193.7990  172.8160  135.2300 N   0  0  0  0  0  0  0  0  0  0  0  0
  191.4080  172.2790  135.3350 N   0  0  0  0  0  2  0  0  0  0  0  0
  195.1610  172.4330  135.5370 C   0  0  0  0  0  2  0  0  0  0  0  0
  192.1460  174.4600  136.0450 C   0  0  0  0  0  3  0  0  0  0  0  0
  191.1540  173.5630  135.9300 C   0  0  0  0  0  0  0  0  0  0  0  0
  193.5310  174.2170  135.4920 C   0  0  1  0  0  3  0  0  0  0  0  0
  195.8250  173.6870  136.1020 C   0  0  1  0  0  3  0  0  0  0  0  0
  194.3740  174.8560  137.8500 C   0  0  1  0  0  3  0  0  0  0  0  0
  195.5640  174.6380  138.7830 C   0  0  0  0  0  1  0  0  0  0  0  0
  193.6900  176.0990  138.1360 N   0  0  0  0  0  0  0  0  0  0  0  0
  193.6170  176.5900  139.3230 C   0  0  0  0  0  3  0  0  0  0  0  0
  192.3430  177.8780  140.8410 O   0  0  0  0  0  1  0  0  0  0  0  0
  192.9000  177.8760  139.5620 C   0  0  0  0  0  2  0  0  0  0  0  0
  188.6910  178.6610  140.4500 C   0  0  0  0  0  2  0  0  0  0  0  0
  187.4110  178.3260  141.2060 C   0  0  0  0  0  2  0  0  0  0  0  0
  187.3400  177.4840  144.8310 C   0  0  2  0  0  3  0  0  0  0  0  0
  189.3010  178.0080  143.1510 S   0  0  0  0  0  0  0  0  0  0  0  0
  186.5340  178.1070  145.9570 C   0  0  0  0  0  1  0  0  0  0  0  0
  187.7040  177.5090  142.4560 C   0  0  1  0  0  3  0  0  0  0  0  0
  189.5310  177.1300  145.5790 C   0  0  0  0  0  1  0  0  0  0  0  0
  188.6890  178.0360  144.8160 N   0  0  0  0  0  0  0  0  0  0  0  0
  186.6710  177.7850  143.5140 C   0  0  0  0  0  2  0  0  0  0  0  0
  2 10  1  1  0  0  0
  2 14  1  0  0  0  0
  3 12  1  0  0  0  0
  4 13  2  0  0  0  0
  5 11  1  0  0  0  0
  7 12  1  0  0  0  0
  8  7  1  0  0  0  0
  8 10  1  0  0  0  0
  9  3  2  0  0  0  0
  9  2  1  0  0  0  0
 10  5  2  0  0  0  0
 11  1  1  6  0  0  0
 11  4  1  0  0  0  0
 13 32  1  0  0  0  0
 14  4  1  0  0  0  0
 14  6  2  0  0  0  0
 15 18  2  0  0  0  0
 17 26  1  1  0  0  0
 18 19  1  0  0  0  0
 18 20  1  0  0  0  0
 19 24  1  0  0  0  0
 19 21  1  0  0  0  0
 20 23  1  0  0  0  0
 21 25  1  0  0  0  0
 23 22  2  0  0  0  0
 23  9  1  0  0  0  0
 24 22  1  1  0  0  0
 24 17  1  0  0  0  0
 25 16  1  6  0  0  0
 25 17  1  0  0  0  0
 26 28  1  0  0  0  0
 26 27  1  1  0  0  0
 28 29  2  0  0  0  0
 29 31  1  0  0  0  0
 31 30  1  0  0  0  0
 32 33  1  0  0  0  0
 34 36  1  1  0  0  0
 35 39  1  0  0  0  0
 37 33  1  6  0  0  0
 37 35  1  0  0  0  0
 37 40  1  0  0  0  0
 39 34  1  0  0  0  0
 39 38  1  0  0  0  0
 40 34  1  0  0  0  0
M  END
>  <MODEL>
9

>  <REMARK>
 VINA RESULT:      -6.2      3.027      9.155
  Name = 
  7 active torsions:
  status: ('A' for Active; 'I' for Inactive)
    1  A    between atoms: C_10  and  C_20
    2  A    between atoms: N_15  and  C_20
    3  A    between atoms: C_21  and  C_26
    4  A    between atoms: C_22  and  C_31
    5  A    between atoms: C_22  and  C_38
    6  A    between atoms: C_27  and  C_31
    7  A    between atoms: C_33  and  C_35
                            x       y       z     vdW  Elec       q    Type
                         _______ _______ _______ _____ _____    ______ ____

>  <TORSDO>
F 7

$$$$
