=
 OpenBabel11042413223D

 50 55  0  0  1  0  0  0  0  0999 V2000
  181.8920  177.4090  140.6070 C   0  0  0  0  0  2  0  0  0  0  0  0
  180.3470  175.1930  138.5100 C   0  0  0  0  0  1  0  0  0  0  0  0
  184.5540  179.3410  139.2170 C   0  0  2  0  0  3  0  0  0  0  0  0
  180.1160  178.6090  138.0810 C   0  0  0  0  0  2  0  0  0  0  0  0
  179.4200  177.3710  138.1310 O   0  0  0  0  0  0  0  0  0  0  0  0
  184.1250  178.4420  140.3720 C   0  0  2  0  0  3  0  0  0  0  0  0
  181.5440  178.3740  138.5180 C   0  0  2  0  0  3  0  0  0  0  0  0
  181.3510  177.2480  139.4050 C   0  0  2  0  0  3  0  0  0  0  0  0
  180.0690  176.5650  139.0950 C   0  0  0  0  0  0  0  0  0  0  0  0
  182.1110  179.4540  139.4340 C   0  0  2  0  0  3  0  0  0  0  0  0
  179.1680  176.4190  140.3150 C   0  0  0  0  0  1  0  0  0  0  0  0
  183.3100  180.1130  138.7830 C   0  0  0  0  0  2  0  0  0  0  0  0
  182.6490  178.6920  140.6420 C   0  0  1  0  0  3  0  0  0  0  0  0
  185.7100  179.7100  141.5990 O   0  0  0  0  0  0  0  0  0  0  0  0
  184.9560  178.7010  141.5830 C   0  0  0  0  0  0  0  0  0  0  0  0
  184.8890  177.8130  142.7100 N   0  0  0  0  0  2  0  0  0  0  0  0
  185.4620  178.0550  144.0010 C   0  0  0  0  0  0  0  0  0  0  0  0
  186.7840  177.6990  144.2950 C   0  0  0  0  0  3  0  0  0  0  0  0
  187.3390  177.9460  145.5610 C   0  0  0  0  0  0  0  0  0  0  0  0
  184.6910  178.6900  144.9790 C   0  0  0  0  0  3  0  0  0  0  0  0
  186.5450  178.5760  146.5320 C   0  0  0  0  0  3  0  0  0  0  0  0
  185.2290  178.9480  146.2420 C   0  0  0  0  0  3  0  0  0  0  0  0
  189.7380  177.7650  144.9770 C   0  0  0  0  0  3  0  0  0  0  0  0
  188.7490  177.5740  145.8630 C   0  0  0  0  0  0  0  0  0  0  0  0
  189.1060  176.9900  147.1790 C   0  0  0  0  0  0  0  0  0  0  0  0
  190.4710  176.8260  147.5530 N   0  0  0  0  0  1  0  0  0  0  0  0
  188.2060  176.6430  147.9900 O   0  0  0  0  0  0  0  0  0  0  0  0
  189.5160  178.2860  143.6650 N   0  0  0  0  0  2  0  0  0  0  0  0
  190.3970  177.9890  142.6170 N   0  0  0  0  0  2  0  0  0  0  0  0
  191.0050  176.7040  142.9190 C   0  0  0  0  0  2  0  0  0  0  0  0
  190.3230  175.6960  142.2400 O   0  0  0  0  0  1  0  0  0  0  0  0
  185.1260  178.5080  138.0580 C   0  0  1  0  0  3  0  0  0  0  0  0
  186.6280  178.5330  138.0650 C   0  0  0  0  0  0  0  0  0  0  0  0
  188.7710  179.0710  136.8580 C   0  0  0  0  0  1  0  0  0  0  0  0
  187.2670  178.1280  139.0740 O   0  0  0  0  0  0  0  0  0  0  0  0
  187.3210  179.0180  136.9150 N   0  0  0  0  0  2  0  0  0  0  0  0
  185.1860  176.2730  136.9480 C   0  0  2  0  0  3  0  0  0  0  0  0
  184.6380  177.0620  138.1230 C   0  0  2  0  0  3  0  0  0  0  0  0
  183.7540  176.7600  136.9280 C   0  0  0  0  0  2  0  0  0  0  0  0
  185.2160  174.8040  137.3220 C   0  0  0  0  0  2  0  0  0  0  0  0
  186.1280  174.0950  136.4430 N   0  0  0  0  0  2  0  0  0  0  0  0
  187.4460  174.6620  136.6680 C   0  0  0  0  0  2  0  0  0  0  0  0
  188.4480  173.6200  136.5330 N   0  0  0  0  0  2  0  0  0  0  0  0
  192.1760  174.1380  137.0120 C   0  0  0  0  0  2  0  0  0  0  0  0
  189.5260  175.6030  137.4260 C   0  0  0  0  0  2  0  0  0  0  0  0
  191.8550  176.4710  137.9890 C   0  0  0  0  0  2  0  0  0  0  0  0
  190.4890  176.0290  138.5240 C   0  0  0  0  0  2  0  0  0  0  0  0
  190.8650  173.7530  136.3400 C   0  0  0  0  0  2  0  0  0  0  0  0
  192.4170  175.6310  136.8380 C   0  0  0  0  0  2  0  0  0  0  0  0
  189.6480  174.1010  137.1950 C   0  0  0  0  0  3  0  0  0  0  0  0
  2  9  1  0  0  0  0
  3 32  1  6  0  0  0
  3  6  1  0  0  0  0
  4  5  1  0  0  0  0
  5  9  1  0  0  0  0
  6 13  1  0  0  0  0
  6 15  1  1  0  0  0
  7  4  1  1  0  0  0
  7  8  1  0  0  0  0
  7 10  1  0  0  0  0
  8  1  1  1  0  0  0
  9  8  1  0  0  0  0
  9 11  1  0  0  0  0
 10 12  1  6  0  0  0
 10 13  1  0  0  0  0
 12  3  1  0  0  0  0
 13  1  1  6  0  0  0
 15 14  2  0  0  0  0
 15 16  1  0  0  0  0
 16 17  1  0  0  0  0
 17 18  2  0  0  0  0
 17 20  1  0  0  0  0
 18 19  1  0  0  0  0
 19 24  1  0  0  0  0
 19 21  2  0  0  0  0
 20 22  2  0  0  0  0
 22 21  1  0  0  0  0
 23 24  2  0  0  0  0
 24 25  1  0  0  0  0
 25 26  1  0  0  0  0
 25 27  2  0  0  0  0
 28 23  1  0  0  0  0
 29 30  1  0  0  0  0
 29 28  1  0  0  0  0
 31 30  1  0  0  0  0
 32 33  1  1  0  0  0
 33 35  2  0  0  0  0
 34 36  1  0  0  0  0
 36 33  1  0  0  0  0
 37 40  1  1  0  0  0
 37 38  1  0  0  0  0
 38 32  1  6  0  0  0
 39 37  1  0  0  0  0
 39 38  1  0  0  0  0
 41 42  1  0  0  0  0
 41 40  1  0  0  0  0
 43 42  1  0  0  0  0
 43 50  1  0  0  0  0
 45 47  1  0  0  0  0
 46 47  1  0  0  0  0
 48 44  1  0  0  0  0
 48 50  1  0  0  0  0
 49 44  1  0  0  0  0
 49 46  1  0  0  0  0
 50 45  1  0  0  0  0
M  END
>  <MODEL>
1

>  <REMARK>
 VINA RESULT:      -8.4      0.000      0.000
  Name = 
  15 active torsions:
  status: ('A' for Active; 'I' for Inactive)
    1  A    between atoms: C_1  and  N_45
    2  A    between atoms: C_3  and  C_41
    3  A    between atoms: C_6  and  C_36
    4  A    between atoms: C_7  and  C_39
    5  A    between atoms: C_11  and  C_36
    6  A    between atoms: C_12  and  C_39
    7  A    between atoms: C_15  and  N_26
    8  A    between atoms: C_16  and  C_36
    9  A    between atoms: C_17  and  C_42
   10  A    between atoms: N_18  and  C_41
   11  A    between atoms: N_18  and  C_47
   12  A    between atoms: C_19  and  N_23
   13  A    between atoms: N_23  and  N_26
   14  A    between atoms: N_37  and  C_47
   15  A    between atoms: N_37  and  C_48
                            x       y       z     vdW  Elec       q    Type
                         _______ _______ _______ _____ _____    ______ ____

>  <TORSDO>
F 15

$$$$
=
 OpenBabel11042413223D

 50 55  0  0  1  0  0  0  0  0999 V2000
  181.8070  177.3910  140.5730 C   0  0  0  0  0  2  0  0  0  0  0  0
  180.3420  175.1550  138.4410 C   0  0  0  0  0  1  0  0  0  0  0  0
  184.5050  179.3270  139.2580 C   0  0  2  0  0  3  0  0  0  0  0  0
  180.1100  178.5670  137.9820 C   0  0  0  0  0  2  0  0  0  0  0  0
  179.4180  177.3260  138.0170 O   0  0  0  0  0  0  0  0  0  0  0  0
  184.0420  178.4330  140.4050 C   0  0  2  0  0  3  0  0  0  0  0  0
  181.5240  178.3410  138.4670 C   0  0  2  0  0  3  0  0  0  0  0  0
  181.3060  177.2210  139.3550 C   0  0  2  0  0  3  0  0  0  0  0  0
  180.0390  176.5290  139.0080 C   0  0  0  0  0  0  0  0  0  0  0  0
  182.0550  179.4300  139.3940 C   0  0  2  0  0  3  0  0  0  0  0  0
  179.0990  176.3870  140.1980 C   0  0  0  0  0  1  0  0  0  0  0  0
  183.2730  180.0900  138.7790 C   0  0  0  0  0  2  0  0  0  0  0  0
  182.5570  178.6790  140.6250 C   0  0  1  0  0  3  0  0  0  0  0  0
  185.5690  179.7240  141.6800 O   0  0  0  0  0  0  0  0  0  0  0  0
  184.8320  178.7040  141.6410 C   0  0  0  0  0  0  0  0  0  0  0  0
  184.7440  177.8140  142.7650 N   0  0  0  0  0  2  0  0  0  0  0  0
  185.2730  178.0640  144.0720 C   0  0  0  0  0  0  0  0  0  0  0  0
  186.6100  177.7880  144.3880 C   0  0  0  0  0  3  0  0  0  0  0  0
  187.1210  178.0420  145.6710 C   0  0  0  0  0  0  0  0  0  0  0  0
  184.4430  178.6250  145.0470 C   0  0  0  0  0  3  0  0  0  0  0  0
  186.2680  178.5970  146.6370 C   0  0  0  0  0  3  0  0  0  0  0  0
  184.9370  178.8890  146.3270 C   0  0  0  0  0  3  0  0  0  0  0  0
  189.5180  177.8660  145.0780 C   0  0  0  0  0  3  0  0  0  0  0  0
  188.5460  177.7560  145.9950 C   0  0  0  0  0  0  0  0  0  0  0  0
  188.9360  177.3520  147.3680 C   0  0  0  0  0  0  0  0  0  0  0  0
  189.1600  178.3330  148.3770 N   0  0  0  0  0  1  0  0  0  0  0  0
  189.0630  176.1330  147.6650 O   0  0  0  0  0  0  0  0  0  0  0  0
  189.2650  178.2130  143.7150 N   0  0  0  0  0  2  0  0  0  0  0  0
  189.9820  177.6050  142.6760 N   0  0  0  0  0  2  0  0  0  0  0  0
  189.4050  176.2870  142.4710 C   0  0  0  0  0  2  0  0  0  0  0  0
  190.3430  175.3120  142.8060 O   0  0  0  0  0  1  0  0  0  0  0  0
  185.1190  178.4890  138.1240 C   0  0  1  0  0  3  0  0  0  0  0  0
  186.6190  178.5360  138.1690 C   0  0  0  0  0  0  0  0  0  0  0  0
  188.7880  179.0110  136.9820 C   0  0  0  0  0  1  0  0  0  0  0  0
  187.2360  178.2180  139.2240 O   0  0  0  0  0  0  0  0  0  0  0  0
  187.3380  178.9410  137.0040 N   0  0  0  0  0  2  0  0  0  0  0  0
  185.2140  176.2480  137.0260 C   0  0  2  0  0  3  0  0  0  0  0  0
  184.6500  177.0360  138.1950 C   0  0  2  0  0  3  0  0  0  0  0  0
  183.7770  176.7160  136.9970 C   0  0  0  0  0  2  0  0  0  0  0  0
  185.2630  174.7820  137.4080 C   0  0  0  0  0  2  0  0  0  0  0  0
  186.0720  174.0540  136.4480 N   0  0  0  0  0  2  0  0  0  0  0  0
  185.1480  173.3870  135.5480 C   0  0  0  0  0  2  0  0  0  0  0  0
  184.5730  172.2330  136.2160 N   0  0  0  0  0  2  0  0  0  0  0  0
  181.4140  170.2950  135.4010 C   0  0  0  0  0  2  0  0  0  0  0  0
  182.3250  173.1370  136.0600 C   0  0  0  0  0  2  0  0  0  0  0  0
  179.9500  172.3770  135.5390 C   0  0  0  0  0  2  0  0  0  0  0  0
  181.1510  173.2180  135.0970 C   0  0  0  0  0  2  0  0  0  0  0  0
  182.7450  170.6430  136.0560 C   0  0  0  0  0  2  0  0  0  0  0  0
  180.2860  171.0070  136.1350 C   0  0  0  0  0  2  0  0  0  0  0  0
  183.2630  172.0140  135.6280 C   0  0  0  0  0  3  0  0  0  0  0  0
  2  9  1  0  0  0  0
  3 32  1  6  0  0  0
  3  6  1  0  0  0  0
  4  5  1  0  0  0  0
  5  9  1  0  0  0  0
  6 13  1  0  0  0  0
  6 15  1  1  0  0  0
  7  4  1  1  0  0  0
  7  8  1  0  0  0  0
  7 10  1  0  0  0  0
  8  1  1  1  0  0  0
  9  8  1  0  0  0  0
  9 11  1  0  0  0  0
 10 12  1  6  0  0  0
 10 13  1  0  0  0  0
 12  3  1  0  0  0  0
 13  1  1  6  0  0  0
 15 14  2  0  0  0  0
 15 16  1  0  0  0  0
 16 17  1  0  0  0  0
 17 18  2  0  0  0  0
 17 20  1  0  0  0  0
 18 19  1  0  0  0  0
 19 24  1  0  0  0  0
 19 21  2  0  0  0  0
 20 22  2  0  0  0  0
 22 21  1  0  0  0  0
 23 24  2  0  0  0  0
 24 25  1  0  0  0  0
 25 27  2  0  0  0  0
 25 26  1  0  0  0  0
 28 23  1  0  0  0  0
 29 28  1  0  0  0  0
 30 29  1  0  0  0  0
 30 31  1  0  0  0  0
 32 33  1  1  0  0  0
 33 35  2  0  0  0  0
 34 36  1  0  0  0  0
 36 33  1  0  0  0  0
 37 40  1  1  0  0  0
 37 38  1  0  0  0  0
 38 32  1  6  0  0  0
 39 37  1  0  0  0  0
 39 38  1  0  0  0  0
 41 40  1  0  0  0  0
 42 43  1  0  0  0  0
 42 41  1  0  0  0  0
 44 48  1  0  0  0  0
 44 49  1  0  0  0  0
 46 49  1  0  0  0  0
 47 46  1  0  0  0  0
 47 45  1  0  0  0  0
 50 48  1  0  0  0  0
 50 45  1  0  0  0  0
 50 43  1  0  0  0  0
M  END
>  <MODEL>
2

>  <REMARK>
 VINA RESULT:      -8.0      1.882      3.981
  Name = 
  15 active torsions:
  status: ('A' for Active; 'I' for Inactive)
    1  A    between atoms: C_1  and  N_45
    2  A    between atoms: C_3  and  C_41
    3  A    between atoms: C_6  and  C_36
    4  A    between atoms: C_7  and  C_39
    5  A    between atoms: C_11  and  C_36
    6  A    between atoms: C_12  and  C_39
    7  A    between atoms: C_15  and  N_26
    8  A    between atoms: C_16  and  C_36
    9  A    between atoms: C_17  and  C_42
   10  A    between atoms: N_18  and  C_41
   11  A    between atoms: N_18  and  C_47
   12  A    between atoms: C_19  and  N_23
   13  A    between atoms: N_23  and  N_26
   14  A    between atoms: N_37  and  C_47
   15  A    between atoms: N_37  and  C_48
                            x       y       z     vdW  Elec       q    Type
                         _______ _______ _______ _____ _____    ______ ____

>  <TORSDO>
F 15

$$$$
=
 OpenBabel11042413223D

 50 55  0  0  1  0  0  0  0  0999 V2000
  181.7570  177.5300  140.9940 C   0  0  0  0  0  2  0  0  0  0  0  0
  179.9420  175.1700  139.3130 C   0  0  0  0  0  1  0  0  0  0  0  0
  184.6250  178.8390  139.3180 C   0  0  2  0  0  3  0  0  0  0  0  0
  180.1240  178.4510  138.2620 C   0  0  0  0  0  2  0  0  0  0  0  0
  179.2830  177.3360  138.5260 O   0  0  0  0  0  0  0  0  0  0  0  0
  184.0970  178.2260  140.6100 C   0  0  2  0  0  3  0  0  0  0  0  0
  181.5160  178.1300  138.7580 C   0  0  2  0  0  3  0  0  0  0  0  0
  181.1930  177.2190  139.8330 C   0  0  2  0  0  3  0  0  0  0  0  0
  179.8360  176.6490  139.6320 C   0  0  0  0  0  0  0  0  0  0  0  0
  182.2150  179.2840  139.4700 C   0  0  2  0  0  3  0  0  0  0  0  0
  178.9310  176.8390  140.8430 C   0  0  0  0  0  1  0  0  0  0  0  0
  183.4820  179.6630  138.7300 C   0  0  0  0  0  2  0  0  0  0  0  0
  182.6640  178.6980  140.8060 C   0  0  1  0  0  3  0  0  0  0  0  0
  185.5680  179.7040  141.7400 O   0  0  0  0  0  0  0  0  0  0  0  0
  184.9610  178.6010  141.7680 C   0  0  0  0  0  0  0  0  0  0  0  0
  185.0900  177.7160  142.8910 N   0  0  0  0  0  2  0  0  0  0  0  0
  185.7050  178.0390  144.1440 C   0  0  0  0  0  0  0  0  0  0  0  0
  187.0190  177.6510  144.4370 C   0  0  0  0  0  3  0  0  0  0  0  0
  187.6160  177.9780  145.6650 C   0  0  0  0  0  0  0  0  0  0  0  0
  184.9870  178.7850  145.0830 C   0  0  0  0  0  3  0  0  0  0  0  0
  186.8750  178.7190  146.5980 C   0  0  0  0  0  3  0  0  0  0  0  0
  185.5680  179.1230  146.3080 C   0  0  0  0  0  3  0  0  0  0  0  0
  190.0310  177.8500  145.1310 C   0  0  0  0  0  3  0  0  0  0  0  0
  189.0180  177.5710  145.9650 C   0  0  0  0  0  0  0  0  0  0  0  0
  189.3370  176.8510  147.2210 C   0  0  0  0  0  0  0  0  0  0  0  0
  188.3290  176.6220  148.2020 N   0  0  0  0  0  1  0  0  0  0  0  0
  190.5020  176.4190  147.4340 O   0  0  0  0  0  0  0  0  0  0  0  0
  189.8460  178.5070  143.8770 N   0  0  0  0  0  2  0  0  0  0  0  0
  190.0840  177.8330  142.6720 N   0  0  0  0  0  2  0  0  0  0  0  0
  190.9190  176.6850  142.9810 C   0  0  0  0  0  2  0  0  0  0  0  0
  190.3030  175.5220  142.5190 O   0  0  0  0  0  1  0  0  0  0  0  0
  185.0850  177.7450  138.3400 C   0  0  1  0  0  3  0  0  0  0  0  0
  184.0160  177.4340  137.3340 C   0  0  0  0  0  0  0  0  0  0  0  0
  182.3320  175.7960  136.4270 C   0  0  0  0  0  1  0  0  0  0  0  0
  183.6890  178.2900  136.4650 O   0  0  0  0  0  0  0  0  0  0  0  0
  183.3750  176.1590  137.3700 N   0  0  0  0  0  2  0  0  0  0  0  0
  187.3510  177.0010  137.6000 C   0  0  2  0  0  3  0  0  0  0  0  0
  186.3670  178.1560  137.6150 C   0  0  2  0  0  3  0  0  0  0  0  0
  187.5360  178.1370  138.5810 C   0  0  0  0  0  2  0  0  0  0  0  0
  188.2950  177.1840  136.4290 C   0  0  0  0  0  2  0  0  0  0  0  0
  188.2960  175.9850  135.6110 N   0  0  0  0  0  2  0  0  0  0  0  0
  187.8750  174.8940  136.4720 C   0  0  0  0  0  2  0  0  0  0  0  0
  187.9890  173.6390  135.7520 N   0  0  0  0  0  2  0  0  0  0  0  0
  184.9150  172.7210  137.7780 C   0  0  0  0  0  2  0  0  0  0  0  0
  186.1960  172.1540  135.0620 C   0  0  0  0  0  2  0  0  0  0  0  0
  184.0170  171.1810  135.9550 C   0  0  0  0  0  2  0  0  0  0  0  0
  185.4590  170.9040  135.5170 C   0  0  0  0  0  2  0  0  0  0  0  0
  185.9970  173.5820  137.1400 C   0  0  0  0  0  2  0  0  0  0  0  0
  183.8080  172.4640  136.7650 C   0  0  0  0  0  2  0  0  0  0  0  0
  186.9330  172.7720  136.2460 C   0  0  0  0  0  3  0  0  0  0  0  0
  2  9  1  0  0  0  0
  3 32  1  6  0  0  0
  3  6  1  0  0  0  0
  4  5  1  0  0  0  0
  5  9  1  0  0  0  0
  6 13  1  0  0  0  0
  6 15  1  1  0  0  0
  7  4  1  1  0  0  0
  7 10  1  0  0  0  0
  7  8  1  0  0  0  0
  8  1  1  1  0  0  0
  9  8  1  0  0  0  0
  9 11  1  0  0  0  0
 10 12  1  6  0  0  0
 10 13  1  0  0  0  0
 12  3  1  0  0  0  0
 13  1  1  6  0  0  0
 14 15  2  0  0  0  0
 15 16  1  0  0  0  0
 16 17  1  0  0  0  0
 17 18  2  0  0  0  0
 17 20  1  0  0  0  0
 18 19  1  0  0  0  0
 19 24  1  0  0  0  0
 19 21  2  0  0  0  0
 20 22  2  0  0  0  0
 22 21  1  0  0  0  0
 23 24  2  0  0  0  0
 24 25  1  0  0  0  0
 25 27  2  0  0  0  0
 25 26  1  0  0  0  0
 28 23  1  0  0  0  0
 29 30  1  0  0  0  0
 29 28  1  0  0  0  0
 31 30  1  0  0  0  0
 32 33  1  6  0  0  0
 33 36  1  0  0  0  0
 34 36  1  0  0  0  0
 35 33  2  0  0  0  0
 37 40  1  6  0  0  0
 37 38  1  0  0  0  0
 37 39  1  0  0  0  0
 38 32  1  1  0  0  0
 38 39  1  0  0  0  0
 41 40  1  0  0  0  0
 41 42  1  0  0  0  0
 43 50  1  0  0  0  0
 43 42  1  0  0  0  0
 45 47  1  0  0  0  0
 45 50  1  0  0  0  0
 46 49  1  0  0  0  0
 47 46  1  0  0  0  0
 48 44  1  0  0  0  0
 49 44  1  0  0  0  0
 50 48  1  0  0  0  0
M  END
>  <MODEL>
3

>  <REMARK>
 VINA RESULT:      -7.1      1.674      3.262
  Name = 
  15 active torsions:
  status: ('A' for Active; 'I' for Inactive)
    1  A    between atoms: C_1  and  N_45
    2  A    between atoms: C_3  and  C_41
    3  A    between atoms: C_6  and  C_36
    4  A    between atoms: C_7  and  C_39
    5  A    between atoms: C_11  and  C_36
    6  A    between atoms: C_12  and  C_39
    7  A    between atoms: C_15  and  N_26
    8  A    between atoms: C_16  and  C_36
    9  A    between atoms: C_17  and  C_42
   10  A    between atoms: N_18  and  C_41
   11  A    between atoms: N_18  and  C_47
   12  A    between atoms: C_19  and  N_23
   13  A    between atoms: N_23  and  N_26
   14  A    between atoms: N_37  and  C_47
   15  A    between atoms: N_37  and  C_48
                            x       y       z     vdW  Elec       q    Type
                         _______ _______ _______ _____ _____    ______ ____

>  <TORSDO>
F 15

$$$$
=
 OpenBabel11042413223D

 50 55  0  0  1  0  0  0  0  0999 V2000
  182.1850  177.9480  141.1940 C   0  0  0  0  0  2  0  0  0  0  0  0
  179.8730  175.7050  140.0470 C   0  0  0  0  0  1  0  0  0  0  0  0
  184.9190  178.6850  139.0180 C   0  0  2  0  0  3  0  0  0  0  0  0
  180.2990  178.8120  138.6110 C   0  0  0  0  0  2  0  0  0  0  0  0
  179.3760  177.8540  139.1090 O   0  0  0  0  0  0  0  0  0  0  0  0
  184.5120  178.2780  140.4310 C   0  0  2  0  0  3  0  0  0  0  0  0
  181.6980  178.3540  138.9540 C   0  0  2  0  0  3  0  0  0  0  0  0
  181.4250  177.6050  140.1600 C   0  0  2  0  0  3  0  0  0  0  0  0
  179.9950  177.2090  140.2060 C   0  0  0  0  0  0  0  0  0  0  0  0
  182.6280  179.4670  139.4320 C   0  0  2  0  0  3  0  0  0  0  0  0
  179.3040  177.6370  141.4940 C   0  0  0  0  0  1  0  0  0  0  0  0
  183.8110  179.5950  138.4940 C   0  0  0  0  0  2  0  0  0  0  0  0
  183.1910  178.9570  140.7570 C   0  0  1  0  0  3  0  0  0  0  0  0
  185.6000  179.8160  141.8720 O   0  0  0  0  0  0  0  0  0  0  0  0
  185.5730  178.6430  141.4150 C   0  0  0  0  0  0  0  0  0  0  0  0
  186.5410  177.6670  141.8300 N   0  0  0  0  0  2  0  0  0  0  0  0
  187.4690  177.8170  142.9110 C   0  0  0  0  0  0  0  0  0  0  0  0
  187.0430  177.8460  144.2450 C   0  0  0  0  0  3  0  0  0  0  0  0
  187.9600  177.9870  145.2980 C   0  0  0  0  0  0  0  0  0  0  0  0
  188.8360  177.9050  142.6280 C   0  0  0  0  0  3  0  0  0  0  0  0
  189.3270  178.0840  144.9920 C   0  0  0  0  0  3  0  0  0  0  0  0
  189.7620  178.0410  143.6640 C   0  0  0  0  0  3  0  0  0  0  0  0
  186.3230  178.5420  147.0700 C   0  0  0  0  0  3  0  0  0  0  0  0
  187.5000  178.0060  146.7150 C   0  0  0  0  0  0  0  0  0  0  0  0
  188.3370  177.4090  147.7830 C   0  0  0  0  0  0  0  0  0  0  0  0
  189.0460  178.2400  148.6990 N   0  0  0  0  0  1  0  0  0  0  0  0
  188.4230  176.1570  147.9050 O   0  0  0  0  0  0  0  0  0  0  0  0
  185.4450  179.1770  146.1390 N   0  0  0  0  0  2  0  0  0  0  0  0
  184.0960  178.8070  146.0580 N   0  0  0  0  0  2  0  0  0  0  0  0
  183.6250  179.1950  144.7390 C   0  0  0  0  0  2  0  0  0  0  0  0
  182.3630  178.6470  144.5160 O   0  0  0  0  0  1  0  0  0  0  0  0
  185.0970  177.4480  138.1220 C   0  0  1  0  0  3  0  0  0  0  0  0
  183.9240  177.2740  137.2020 C   0  0  0  0  0  0  0  0  0  0  0  0
  181.8600  175.9730  136.5760 C   0  0  0  0  0  1  0  0  0  0  0  0
  183.7440  178.0700  136.2390 O   0  0  0  0  0  0  0  0  0  0  0  0
  183.0160  176.1950  137.4270 N   0  0  0  0  0  2  0  0  0  0  0  0
  187.3910  176.5200  137.7910 C   0  0  2  0  0  3  0  0  0  0  0  0
  186.3820  177.5420  137.3000 C   0  0  2  0  0  3  0  0  0  0  0  0
  187.5330  177.9720  138.1900 C   0  0  0  0  0  2  0  0  0  0  0  0
  188.3530  176.2080  136.6620 C   0  0  0  0  0  2  0  0  0  0  0  0
  188.8140  174.8360  136.7790 N   0  0  0  0  0  2  0  0  0  0  0  0
  188.0130  174.0490  135.8590 C   0  0  0  0  0  2  0  0  0  0  0  0
  187.6230  172.8060  136.5000 N   0  0  0  0  0  2  0  0  0  0  0  0
  184.6140  170.9980  135.0610 C   0  0  0  0  0  2  0  0  0  0  0  0
  185.4110  172.6730  137.4900 C   0  0  0  0  0  2  0  0  0  0  0  0
  183.1110  171.6910  137.0000 C   0  0  0  0  0  2  0  0  0  0  0  0
  183.9530  172.9600  137.1640 C   0  0  0  0  0  2  0  0  0  0  0  0
  186.0510  171.2500  135.5000 C   0  0  0  0  0  2  0  0  0  0  0  0
  183.7920  170.5380  136.2560 C   0  0  0  0  0  2  0  0  0  0  0  0
  186.2180  172.5970  136.1990 C   0  0  0  0  0  3  0  0  0  0  0  0
  2  9  1  0  0  0  0
  3 32  1  6  0  0  0
  3  6  1  0  0  0  0
  4  5  1  0  0  0  0
  5  9  1  0  0  0  0
  6 13  1  0  0  0  0
  6 15  1  1  0  0  0
  7  4  1  1  0  0  0
  7 10  1  0  0  0  0
  7  8  1  0  0  0  0
  8  9  1  0  0  0  0
  8  1  1  1  0  0  0
  9 11  1  0  0  0  0
 10 12  1  6  0  0  0
 10 13  1  0  0  0  0
 12  3  1  0  0  0  0
 13  1  1  6  0  0  0
 15 16  1  0  0  0  0
 15 14  2  0  0  0  0
 16 17  1  0  0  0  0
 17 18  1  0  0  0  0
 18 19  2  0  0  0  0
 19 24  1  0  0  0  0
 20 17  2  0  0  0  0
 20 22  1  0  0  0  0
 21 19  1  0  0  0  0
 22 21  2  0  0  0  0
 24 23  2  0  0  0  0
 24 25  1  0  0  0  0
 25 27  2  0  0  0  0
 25 26  1  0  0  0  0
 28 23  1  0  0  0  0
 29 28  1  0  0  0  0
 30 29  1  0  0  0  0
 31 30  1  0  0  0  0
 32 33  1  6  0  0  0
 33 36  1  0  0  0  0
 34 36  1  0  0  0  0
 35 33  2  0  0  0  0
 37 40  1  6  0  0  0
 37 39  1  0  0  0  0
 38 37  1  0  0  0  0
 38 32  1  1  0  0  0
 38 39  1  0  0  0  0
 40 41  1  0  0  0  0
 42 43  1  0  0  0  0
 42 41  1  0  0  0  0
 44 48  1  0  0  0  0
 44 49  1  0  0  0  0
 46 47  1  0  0  0  0
 47 45  1  0  0  0  0
 48 50  1  0  0  0  0
 49 46  1  0  0  0  0
 50 43  1  0  0  0  0
 50 45  1  0  0  0  0
M  END
>  <MODEL>
4

>  <REMARK>
 VINA RESULT:      -7.0      2.122      4.216
  Name = 
  15 active torsions:
  status: ('A' for Active; 'I' for Inactive)
    1  A    between atoms: C_1  and  N_45
    2  A    between atoms: C_3  and  C_41
    3  A    between atoms: C_6  and  C_36
    4  A    between atoms: C_7  and  C_39
    5  A    between atoms: C_11  and  C_36
    6  A    between atoms: C_12  and  C_39
    7  A    between atoms: C_15  and  N_26
    8  A    between atoms: C_16  and  C_36
    9  A    between atoms: C_17  and  C_42
   10  A    between atoms: N_18  and  C_41
   11  A    between atoms: N_18  and  C_47
   12  A    between atoms: C_19  and  N_23
   13  A    between atoms: N_23  and  N_26
   14  A    between atoms: N_37  and  C_47
   15  A    between atoms: N_37  and  C_48
                            x       y       z     vdW  Elec       q    Type
                         _______ _______ _______ _____ _____    ______ ____

>  <TORSDO>
F 15

$$$$
=
 OpenBabel11042413223D

 50 55  0  0  1  0  0  0  0  0999 V2000
  182.1960  178.2200  141.5040 C   0  0  0  0  0  2  0  0  0  0  0  0
  179.6870  176.0550  140.6600 C   0  0  0  0  0  1  0  0  0  0  0  0
  184.7610  178.7250  139.0720 C   0  0  2  0  0  3  0  0  0  0  0  0
  180.1350  179.0760  139.0550 C   0  0  0  0  0  2  0  0  0  0  0  0
  179.2140  178.1870  139.6730 O   0  0  0  0  0  0  0  0  0  0  0  0
  184.4610  178.3970  140.5310 C   0  0  2  0  0  3  0  0  0  0  0  0
  181.5350  178.5600  139.2980 C   0  0  2  0  0  3  0  0  0  0  0  0
  181.3330  177.8750  140.5550 C   0  0  2  0  0  3  0  0  0  0  0  0
  179.8940  177.5560  140.7400 C   0  0  0  0  0  0  0  0  0  0  0  0
  182.5560  179.6410  139.6440 C   0  0  2  0  0  3  0  0  0  0  0  0
  179.3410  178.0710  142.0620 C   0  0  0  0  0  1  0  0  0  0  0  0
  183.6570  179.6700  138.6030 C   0  0  0  0  0  2  0  0  0  0  0  0
  183.2070  179.1570  140.9370 C   0  0  1  0  0  3  0  0  0  0  0  0
  185.7010  179.9130  141.8680 O   0  0  0  0  0  0  0  0  0  0  0  0
  185.6200  178.7460  141.4030 C   0  0  0  0  0  0  0  0  0  0  0  0
  186.6200  177.7600  141.7050 N   0  0  0  0  0  2  0  0  0  0  0  0
  187.6560  177.8940  142.6850 C   0  0  0  0  0  0  0  0  0  0  0  0
  187.3980  177.7290  144.0520 C   0  0  0  0  0  3  0  0  0  0  0  0
  188.4210  177.8550  145.0050 C   0  0  0  0  0  0  0  0  0  0  0  0
  188.9620  178.1650  142.2640 C   0  0  0  0  0  3  0  0  0  0  0  0
  189.7230  178.1370  144.5620 C   0  0  0  0  0  3  0  0  0  0  0  0
  189.9920  178.2900  143.1980 C   0  0  0  0  0  3  0  0  0  0  0  0
  186.8900  177.6470  146.9390 C   0  0  0  0  0  3  0  0  0  0  0  0
  188.1410  177.6670  146.4560 C   0  0  0  0  0  0  0  0  0  0  0  0
  189.2550  177.4760  147.4160 C   0  0  0  0  0  0  0  0  0  0  0  0
  190.0960  176.3290  147.3320 N   0  0  0  0  0  1  0  0  0  0  0  0
  189.4810  178.3320  148.3130 O   0  0  0  0  0  0  0  0  0  0  0  0
  185.7380  177.8550  146.1220 N   0  0  0  0  0  2  0  0  0  0  0  0
  184.9930  179.0380  146.2190 N   0  0  0  0  0  2  0  0  0  0  0  0
  184.2970  179.2100  144.9550 C   0  0  0  0  0  2  0  0  0  0  0  0
  182.9220  179.1120  145.1640 O   0  0  0  0  0  1  0  0  0  0  0  0
  184.8000  177.4460  138.2190 C   0  0  1  0  0  3  0  0  0  0  0  0
  183.4720  177.1890  137.5680 C   0  0  0  0  0  0  0  0  0  0  0  0
  181.8700  177.6860  135.6900 C   0  0  0  0  0  1  0  0  0  0  0  0
  182.6620  176.3650  138.0760 O   0  0  0  0  0  0  0  0  0  0  0  0
  183.1370  177.8900  136.3710 N   0  0  0  0  0  2  0  0  0  0  0  0
  186.9760  176.5090  137.4300 C   0  0  2  0  0  3  0  0  0  0  0  0
  185.8870  177.5290  137.1490 C   0  0  2  0  0  3  0  0  0  0  0  0
  187.1980  177.9640  137.7760 C   0  0  0  0  0  2  0  0  0  0  0  0
  187.6830  176.1830  136.1300 C   0  0  0  0  0  2  0  0  0  0  0  0
  188.0160  174.7710  136.0960 N   0  0  0  0  0  2  0  0  0  0  0  0
  189.4650  174.6880  136.0610 C   0  0  0  0  0  2  0  0  0  0  0  0
  189.9670  174.4450  137.4020 N   0  0  0  0  0  2  0  0  0  0  0  0
  190.7980  177.5470  139.4220 C   0  0  0  0  0  2  0  0  0  0  0  0
  192.1850  175.2020  138.0360 C   0  0  0  0  0  2  0  0  0  0  0  0
  193.3080  177.1190  139.2840 C   0  0  0  0  0  2  0  0  0  0  0  0
  193.0870  176.4230  137.9370 C   0  0  0  0  0  2  0  0  0  0  0  0
  190.1030  176.2530  139.0160 C   0  0  0  0  0  2  0  0  0  0  0  0
  192.0730  177.2190  140.1860 C   0  0  0  0  0  2  0  0  0  0  0  0
  190.7380  175.6150  137.7830 C   0  0  0  0  0  3  0  0  0  0  0  0
  2  9  1  0  0  0  0
  3 32  1  6  0  0  0
  3  6  1  0  0  0  0
  4  5  1  0  0  0  0
  5  9  1  0  0  0  0
  6 13  1  0  0  0  0
  6 15  1  1  0  0  0
  7  4  1  1  0  0  0
  7 10  1  0  0  0  0
  7  8  1  0  0  0  0
  8  9  1  0  0  0  0
  8  1  1  1  0  0  0
  9 11  1  0  0  0  0
 10 12  1  6  0  0  0
 10 13  1  0  0  0  0
 12  3  1  0  0  0  0
 13  1  1  6  0  0  0
 15 16  1  0  0  0  0
 15 14  2  0  0  0  0
 16 17  1  0  0  0  0
 17 18  1  0  0  0  0
 18 19  2  0  0  0  0
 19 24  1  0  0  0  0
 20 17  2  0  0  0  0
 20 22  1  0  0  0  0
 21 19  1  0  0  0  0
 22 21  2  0  0  0  0
 24 23  2  0  0  0  0
 24 25  1  0  0  0  0
 25 27  2  0  0  0  0
 26 25  1  0  0  0  0
 28 29  1  0  0  0  0
 28 23  1  0  0  0  0
 30 31  1  0  0  0  0
 30 29  1  0  0  0  0
 32 33  1  6  0  0  0
 33 35  2  0  0  0  0
 34 36  1  0  0  0  0
 36 33  1  0  0  0  0
 37 40  1  6  0  0  0
 37 39  1  0  0  0  0
 38 37  1  0  0  0  0
 38 39  1  0  0  0  0
 38 32  1  1  0  0  0
 41 40  1  0  0  0  0
 42 41  1  0  0  0  0
 42 43  1  0  0  0  0
 43 50  1  0  0  0  0
 44 49  1  0  0  0  0
 46 49  1  0  0  0  0
 47 45  1  0  0  0  0
 47 46  1  0  0  0  0
 48 44  1  0  0  0  0
 50 45  1  0  0  0  0
 50 48  1  0  0  0  0
M  END
>  <MODEL>
5

>  <REMARK>
 VINA RESULT:      -7.0      1.886      3.298
  Name = 
  15 active torsions:
  status: ('A' for Active; 'I' for Inactive)
    1  A    between atoms: C_1  and  N_45
    2  A    between atoms: C_3  and  C_41
    3  A    between atoms: C_6  and  C_36
    4  A    between atoms: C_7  and  C_39
    5  A    between atoms: C_11  and  C_36
    6  A    between atoms: C_12  and  C_39
    7  A    between atoms: C_15  and  N_26
    8  A    between atoms: C_16  and  C_36
    9  A    between atoms: C_17  and  C_42
   10  A    between atoms: N_18  and  C_41
   11  A    between atoms: N_18  and  C_47
   12  A    between atoms: C_19  and  N_23
   13  A    between atoms: N_23  and  N_26
   14  A    between atoms: N_37  and  C_47
   15  A    between atoms: N_37  and  C_48
                            x       y       z     vdW  Elec       q    Type
                         _______ _______ _______ _____ _____    ______ ____

>  <TORSDO>
F 15

$$$$
=
 OpenBabel11042413223D

 50 55  0  0  1  0  0  0  0  0999 V2000
  182.8190  177.0000  140.1280 C   0  0  0  0  0  2  0  0  0  0  0  0
  182.1030  174.4680  137.9430 C   0  0  0  0  0  1  0  0  0  0  0  0
  185.7050  178.9730  139.4020 C   0  0  2  0  0  3  0  0  0  0  0  0
  181.8850  177.7930  137.0500 C   0  0  0  0  0  2  0  0  0  0  0  0
  181.2570  176.5180  137.0330 O   0  0  0  0  0  0  0  0  0  0  0  0
  184.9700  178.1690  140.4690 C   0  0  2  0  0  3  0  0  0  0  0  0
  183.1100  177.7140  137.9310 C   0  0  2  0  0  3  0  0  0  0  0  0
  182.6910  176.6750  138.8460 C   0  0  2  0  0  3  0  0  0  0  0  0
  181.6010  175.8680  138.2420 C   0  0  0  0  0  0  0  0  0  0  0  0
  183.3160  178.9230  138.8390 C   0  0  2  0  0  3  0  0  0  0  0  0
  180.3680  175.7820  139.1320 C   0  0  0  0  0  1  0  0  0  0  0  0
  184.6320  179.6000  138.5150 C   0  0  0  0  0  2  0  0  0  0  0  0
  183.4750  178.3330  140.2380 C   0  0  1  0  0  3  0  0  0  0  0  0
  185.3460  179.8450  142.1040 O   0  0  0  0  0  0  0  0  0  0  0  0
  185.3650  178.6140  141.8370 C   0  0  0  0  0  0  0  0  0  0  0  0
  185.7560  177.6500  142.8270 N   0  0  0  0  0  2  0  0  0  0  0  0
  185.9510  177.9150  144.2210 C   0  0  0  0  0  0  0  0  0  0  0  0
  187.1670  177.6340  144.8590 C   0  0  0  0  0  3  0  0  0  0  0  0
  187.3510  177.9030  146.2240 C   0  0  0  0  0  0  0  0  0  0  0  0
  184.9130  178.4970  144.9560 C   0  0  0  0  0  3  0  0  0  0  0  0
  186.2920  178.4790  146.9450 C   0  0  0  0  0  3  0  0  0  0  0  0
  185.0810  178.7760  146.3140 C   0  0  0  0  0  3  0  0  0  0  0  0
  189.7060  177.1420  146.2120 C   0  0  0  0  0  3  0  0  0  0  0  0
  188.6500  177.6120  146.8920 C   0  0  0  0  0  0  0  0  0  0  0  0
  188.8160  177.8530  148.3450 C   0  0  0  0  0  0  0  0  0  0  0  0
  189.9860  178.4980  148.8440 N   0  0  0  0  0  1  0  0  0  0  0  0
  187.9210  177.5030  149.1600 O   0  0  0  0  0  0  0  0  0  0  0  0
  189.6600  176.8360  144.8180 N   0  0  0  0  0  2  0  0  0  0  0  0
  190.7980  176.9790  144.0140 N   0  0  0  0  0  2  0  0  0  0  0  0
  191.5050  178.1610  144.4760 C   0  0  0  0  0  2  0  0  0  0  0  0
  190.9310  179.2980  143.9080 O   0  0  0  0  0  1  0  0  0  0  0  0
  186.6470  178.0700  138.5880 C   0  0  1  0  0  3  0  0  0  0  0  0
  186.4880  178.3130  137.1150 C   0  0  0  0  0  0  0  0  0  0  0  0
  185.6500  177.5020  134.8830 C   0  0  0  0  0  1  0  0  0  0  0  0
  186.9270  179.3760  136.5930 O   0  0  0  0  0  0  0  0  0  0  0  0
  185.8380  177.3280  136.3120 N   0  0  0  0  0  2  0  0  0  0  0  0
  188.8730  176.9830  138.8980 C   0  0  2  0  0  3  0  0  0  0  0  0
  188.1050  178.2890  138.9880 C   0  0  2  0  0  3  0  0  0  0  0  0
  188.4190  177.5000  140.2450 C   0  0  0  0  0  2  0  0  0  0  0  0
  190.3420  177.2970  138.7020 C   0  0  0  0  0  2  0  0  0  0  0  0
  191.1440  176.1570  139.1090 N   0  0  0  0  0  2  0  0  0  0  0  0
  192.2760  176.1010  138.2020 C   0  0  0  0  0  2  0  0  0  0  0  0
  192.1100  174.9810  137.2920 N   0  0  0  0  0  2  0  0  0  0  0  0
  194.5790  172.2220  136.4680 C   0  0  0  0  0  2  0  0  0  0  0  0
  194.4330  174.8700  137.9860 C   0  0  0  0  0  2  0  0  0  0  0  0
  196.4570  173.3350  137.7840 C   0  0  0  0  0  2  0  0  0  0  0  0
  195.4050  173.9510  138.7110 C   0  0  0  0  0  2  0  0  0  0  0  0
  193.4940  173.2720  136.2650 C   0  0  0  0  0  2  0  0  0  0  0  0
  195.9470  172.8880  136.4110 C   0  0  0  0  0  2  0  0  0  0  0  0
  193.2150  174.0710  137.5360 C   0  0  0  0  0  3  0  0  0  0  0  0
  2  9  1  0  0  0  0
  3 32  1  6  0  0  0
  3  6  1  0  0  0  0
  5  4  1  0  0  0  0
  5  9  1  0  0  0  0
  6 15  1  1  0  0  0
  7  4  1  6  0  0  0
  7 10  1  0  0  0  0
  7  8  1  0  0  0  0
  8  1  1  1  0  0  0
  9  8  1  0  0  0  0
  9 11  1  0  0  0  0
 10 12  1  6  0  0  0
 10 13  1  0  0  0  0
 12  3  1  0  0  0  0
 13  1  1  6  0  0  0
 13  6  1  0  0  0  0
 15 14  2  0  0  0  0
 15 16  1  0  0  0  0
 16 17  1  0  0  0  0
 17 18  2  0  0  0  0
 17 20  1  0  0  0  0
 18 19  1  0  0  0  0
 19 24  1  0  0  0  0
 19 21  2  0  0  0  0
 20 22  2  0  0  0  0
 22 21  1  0  0  0  0
 23 24  2  0  0  0  0
 24 25  1  0  0  0  0
 25 26  1  0  0  0  0
 25 27  2  0  0  0  0
 28 23  1  0  0  0  0
 29 30  1  0  0  0  0
 29 28  1  0  0  0  0
 31 30  1  0  0  0  0
 32 33  1  6  0  0  0
 34 36  1  0  0  0  0
 35 33  2  0  0  0  0
 36 33  1  0  0  0  0
 37 40  1  1  0  0  0
 37 38  1  0  0  0  0
 37 39  1  0  0  0  0
 38 32  1  6  0  0  0
 38 39  1  0  0  0  0
 40 41  1  0  0  0  0
 42 41  1  0  0  0  0
 43 50  1  0  0  0  0
 43 42  1  0  0  0  0
 45 47  1  0  0  0  0
 46 47  1  0  0  0  0
 48 44  1  0  0  0  0
 48 50  1  0  0  0  0
 49 44  1  0  0  0  0
 49 46  1  0  0  0  0
 50 45  1  0  0  0  0
M  END
>  <MODEL>
6

>  <REMARK>
 VINA RESULT:      -6.9      2.027      2.917
  Name = 
  15 active torsions:
  status: ('A' for Active; 'I' for Inactive)
    1  A    between atoms: C_1  and  N_45
    2  A    between atoms: C_3  and  C_41
    3  A    between atoms: C_6  and  C_36
    4  A    between atoms: C_7  and  C_39
    5  A    between atoms: C_11  and  C_36
    6  A    between atoms: C_12  and  C_39
    7  A    between atoms: C_15  and  N_26
    8  A    between atoms: C_16  and  C_36
    9  A    between atoms: C_17  and  C_42
   10  A    between atoms: N_18  and  C_41
   11  A    between atoms: N_18  and  C_47
   12  A    between atoms: C_19  and  N_23
   13  A    between atoms: N_23  and  N_26
   14  A    between atoms: N_37  and  C_47
   15  A    between atoms: N_37  and  C_48
                            x       y       z     vdW  Elec       q    Type
                         _______ _______ _______ _____ _____    ______ ____

>  <TORSDO>
F 15

$$$$
=
 OpenBabel11042413223D

 50 55  0  0  1  0  0  0  0  0999 V2000
  181.8160  177.7810  141.0060 C   0  0  0  0  0  2  0  0  0  0  0  0
  179.8740  175.5110  139.3420 C   0  0  0  0  0  1  0  0  0  0  0  0
  184.8110  178.8310  139.3690 C   0  0  2  0  0  3  0  0  0  0  0  0
  180.3210  178.7380  138.2090 C   0  0  0  0  0  2  0  0  0  0  0  0
  179.3940  177.6950  138.4810 O   0  0  0  0  0  0  0  0  0  0  0  0
  184.2090  178.2940  140.6640 C   0  0  2  0  0  3  0  0  0  0  0  0
  181.6730  178.3320  138.7490 C   0  0  2  0  0  3  0  0  0  0  0  0
  181.2580  177.4770  139.8390 C   0  0  2  0  0  3  0  0  0  0  0  0
  179.8690  177.0020  139.6190 C   0  0  0  0  0  0  0  0  0  0  0  0
  182.4370  179.4530  139.4480 C   0  0  2  0  0  3  0  0  0  0  0  0
  178.9520  177.2910  140.8000 C   0  0  0  0  0  1  0  0  0  0  0  0
  183.7450  179.7170  138.7300 C   0  0  0  0  0  2  0  0  0  0  0  0
  182.8100  178.8740  140.8100 C   0  0  1  0  0  3  0  0  0  0  0  0
  185.6240  179.7700  141.8670 O   0  0  0  0  0  0  0  0  0  0  0  0
  185.0710  178.6390  141.8330 C   0  0  0  0  0  0  0  0  0  0  0  0
  185.2560  177.6940  142.8980 N   0  0  0  0  0  2  0  0  0  0  0  0
  185.8730  177.9690  144.1620 C   0  0  0  0  0  0  0  0  0  0  0  0
  187.1930  177.5850  144.4330 C   0  0  0  0  0  3  0  0  0  0  0  0
  187.7910  177.8650  145.6710 C   0  0  0  0  0  0  0  0  0  0  0  0
  185.1500  178.6640  145.1360 C   0  0  0  0  0  3  0  0  0  0  0  0
  187.0450  178.5560  146.6390 C   0  0  0  0  0  3  0  0  0  0  0  0
  185.7320  178.9550  146.3720 C   0  0  0  0  0  3  0  0  0  0  0  0
  190.1900  177.7120  145.0800 C   0  0  0  0  0  3  0  0  0  0  0  0
  189.1990  177.4630  145.9480 C   0  0  0  0  0  0  0  0  0  0  0  0
  189.5490  176.7820  147.2180 C   0  0  0  0  0  0  0  0  0  0  0  0
  190.9110  176.5450  147.5620 N   0  0  0  0  0  1  0  0  0  0  0  0
  188.6460  176.4150  148.0170 O   0  0  0  0  0  0  0  0  0  0  0  0
  189.9750  178.3290  143.8100 N   0  0  0  0  0  2  0  0  0  0  0  0
  190.7390  177.9620  142.6940 N   0  0  0  0  0  2  0  0  0  0  0  0
  189.8110  177.6890  141.6100 C   0  0  0  0  0  2  0  0  0  0  0  0
  190.2530  176.5830  140.8860 O   0  0  0  0  0  1  0  0  0  0  0  0
  185.2140  177.6790  138.4340 C   0  0  1  0  0  3  0  0  0  0  0  0
  184.1240  177.3790  137.4460 C   0  0  0  0  0  0  0  0  0  0  0  0
  182.3620  175.7850  136.6110 C   0  0  0  0  0  1  0  0  0  0  0  0
  183.8300  178.2150  136.5470 O   0  0  0  0  0  0  0  0  0  0  0  0
  183.4270  176.1360  137.5330 N   0  0  0  0  0  2  0  0  0  0  0  0
  187.5190  176.8880  137.8930 C   0  0  2  0  0  3  0  0  0  0  0  0
  186.5080  178.0000  137.6870 C   0  0  2  0  0  3  0  0  0  0  0  0
  187.6440  178.1760  138.6750 C   0  0  0  0  0  2  0  0  0  0  0  0
  188.4970  176.9010  136.7350 C   0  0  0  0  0  2  0  0  0  0  0  0
  188.7540  175.5410  136.2980 N   0  0  0  0  0  2  0  0  0  0  0  0
  190.1660  175.4720  135.9670 C   0  0  0  0  0  2  0  0  0  0  0  0
  190.8930  176.4600  136.7450 N   0  0  0  0  0  2  0  0  0  0  0  0
  193.8000  174.2340  137.7390 C   0  0  0  0  0  2  0  0  0  0  0  0
  192.8090  175.8880  135.3680 C   0  0  0  0  0  2  0  0  0  0  0  0
  194.9720  174.5480  135.4970 C   0  0  0  0  0  2  0  0  0  0  0  0
  194.3300  175.9340  135.3860 C   0  0  0  0  0  2  0  0  0  0  0  0
  192.3640  174.7090  137.5610 C   0  0  0  0  0  2  0  0  0  0  0  0
  194.2800  173.5730  136.4540 C   0  0  0  0  0  2  0  0  0  0  0  0
  192.2780  176.0250  136.7910 C   0  0  0  0  0  3  0  0  0  0  0  0
  2  9  1  0  0  0  0
  3 32  1  6  0  0  0
  3  6  1  0  0  0  0
  4  5  1  0  0  0  0
  5  9  1  0  0  0  0
  6 13  1  0  0  0  0
  6 15  1  1  0  0  0
  7  4  1  1  0  0  0
  7 10  1  0  0  0  0
  7  8  1  0  0  0  0
  8  1  1  1  0  0  0
  9  8  1  0  0  0  0
  9 11  1  0  0  0  0
 10 12  1  6  0  0  0
 10 13  1  0  0  0  0
 12  3  1  0  0  0  0
 13  1  1  6  0  0  0
 15 14  2  0  0  0  0
 15 16  1  0  0  0  0
 16 17  1  0  0  0  0
 17 18  2  0  0  0  0
 17 20  1  0  0  0  0
 18 19  1  0  0  0  0
 19 24  1  0  0  0  0
 19 21  2  0  0  0  0
 20 22  2  0  0  0  0
 22 21  1  0  0  0  0
 23 24  2  0  0  0  0
 24 25  1  0  0  0  0
 25 26  1  0  0  0  0
 25 27  2  0  0  0  0
 28 23  1  0  0  0  0
 29 28  1  0  0  0  0
 30 29  1  0  0  0  0
 31 30  1  0  0  0  0
 32 33  1  6  0  0  0
 33 36  1  0  0  0  0
 34 36  1  0  0  0  0
 35 33  2  0  0  0  0
 37 40  1  6  0  0  0
 37 39  1  0  0  0  0
 38 37  1  0  0  0  0
 38 32  1  1  0  0  0
 38 39  1  0  0  0  0
 41 40  1  0  0  0  0
 42 41  1  0  0  0  0
 42 43  1  0  0  0  0
 43 50  1  0  0  0  0
 45 47  1  0  0  0  0
 45 50  1  0  0  0  0
 46 49  1  0  0  0  0
 47 46  1  0  0  0  0
 48 44  1  0  0  0  0
 49 44  1  0  0  0  0
 50 48  1  0  0  0  0
M  END
>  <MODEL>
7

>  <REMARK>
 VINA RESULT:      -6.6      1.456      2.374
  Name = 
  15 active torsions:
  status: ('A' for Active; 'I' for Inactive)
    1  A    between atoms: C_1  and  N_45
    2  A    between atoms: C_3  and  C_41
    3  A    between atoms: C_6  and  C_36
    4  A    between atoms: C_7  and  C_39
    5  A    between atoms: C_11  and  C_36
    6  A    between atoms: C_12  and  C_39
    7  A    between atoms: C_15  and  N_26
    8  A    between atoms: C_16  and  C_36
    9  A    between atoms: C_17  and  C_42
   10  A    between atoms: N_18  and  C_41
   11  A    between atoms: N_18  and  C_47
   12  A    between atoms: C_19  and  N_23
   13  A    between atoms: N_23  and  N_26
   14  A    between atoms: N_37  and  C_47
   15  A    between atoms: N_37  and  C_48
                            x       y       z     vdW  Elec       q    Type
                         _______ _______ _______ _____ _____    ______ ____

>  <TORSDO>
F 15

$$$$
=
 OpenBabel11042413223D

 50 55  0  0  1  0  0  0  0  0999 V2000
  190.3970  176.5360  140.4470 C   0  0  0  0  0  2  0  0  0  0  0  0
  188.3910  176.0170  143.1670 C   0  0  0  0  0  1  0  0  0  0  0  0
  188.7580  176.9330  137.3000 C   0  0  2  0  0  3  0  0  0  0  0  0
  188.4190  179.0020  141.4380 C   0  0  0  0  0  2  0  0  0  0  0  0
  188.4570  178.3690  142.7100 O   0  0  0  0  0  0  0  0  0  0  0  0
  189.8590  176.2000  138.0580 C   0  0  2  0  0  3  0  0  0  0  0  0
  188.5420  177.9400  140.3700 C   0  0  2  0  0  3  0  0  0  0  0  0
  189.3110  176.9500  141.0900 C   0  0  2  0  0  3  0  0  0  0  0  0
  189.1760  177.1610  142.5540 C   0  0  0  0  0  0  0  0  0  0  0  0
  189.4530  178.3170  139.2050 C   0  0  2  0  0  3  0  0  0  0  0  0
  190.5200  177.2840  143.2590 C   0  0  0  0  0  1  0  0  0  0  0  0
  188.6660  178.3290  137.9100 C   0  0  0  0  0  2  0  0  0  0  0  0
  190.4370  177.1550  139.0920 C   0  0  1  0  0  3  0  0  0  0  0  0
  191.1080  176.3300  136.0460 O   0  0  0  0  0  0  0  0  0  0  0  0
  190.9100  175.7060  137.1210 C   0  0  0  0  0  0  0  0  0  0  0  0
  191.6800  174.5390  137.4500 N   0  0  0  0  0  2  0  0  0  0  0  0
  192.8480  174.0850  136.7540 C   0  0  0  0  0  0  0  0  0  0  0  0
  194.0910  174.7080  136.9240 C   0  0  0  0  0  3  0  0  0  0  0  0
  195.2310  174.2510  136.2430 C   0  0  0  0  0  0  0  0  0  0  0  0
  192.7490  172.9750  135.9090 C   0  0  0  0  0  3  0  0  0  0  0  0
  195.1080  173.1410  135.3920 C   0  0  0  0  0  3  0  0  0  0  0  0
  193.8740  172.5050  135.2280 C   0  0  0  0  0  3  0  0  0  0  0  0
  197.3080  174.6800  137.5200 C   0  0  0  0  0  3  0  0  0  0  0  0
  196.5520  174.9120  136.4370 C   0  0  0  0  0  0  0  0  0  0  0  0
  197.0820  175.8440  135.4120 C   0  0  0  0  0  0  0  0  0  0  0  0
  196.5520  177.1610  135.2870 N   0  0  0  0  0  1  0  0  0  0  0  0
  198.0170  175.4890  134.6460 O   0  0  0  0  0  0  0  0  0  0  0  0
  196.8920  173.8310  138.5910 N   0  0  0  0  0  2  0  0  0  0  0  0
  196.5590  174.3660  139.8420 N   0  0  0  0  0  2  0  0  0  0  0  0
  197.6320  175.2700  140.2210 C   0  0  0  0  0  2  0  0  0  0  0  0
  197.1080  176.3290  140.9610 O   0  0  0  0  0  1  0  0  0  0  0  0
  187.4200  176.1830  137.4170 C   0  0  1  0  0  3  0  0  0  0  0  0
  186.2590  177.1280  137.3010 C   0  0  0  0  0  0  0  0  0  0  0  0
  184.6590  178.7120  138.4280 C   0  0  0  0  0  1  0  0  0  0  0  0
  185.7160  177.3360  136.1810 O   0  0  0  0  0  0  0  0  0  0  0  0
  185.7760  177.7850  138.4720 N   0  0  0  0  0  2  0  0  0  0  0  0
  186.4800  173.9340  136.8800 C   0  0  2  0  0  3  0  0  0  0  0  0
  187.3020  175.0940  136.3510 C   0  0  2  0  0  3  0  0  0  0  0  0
  187.9880  173.8280  136.8290 C   0  0  0  0  0  2  0  0  0  0  0  0
  185.8790  173.1900  135.7040 C   0  0  0  0  0  2  0  0  0  0  0  0
  185.0620  172.0910  136.1860 N   0  0  0  0  0  2  0  0  0  0  0  0
  184.0940  172.6660  137.1030 C   0  0  0  0  0  2  0  0  0  0  0  0
  182.7710  172.6070  136.5060 N   0  0  0  0  0  2  0  0  0  0  0  0
  179.9120  174.5740  138.0390 C   0  0  0  0  0  2  0  0  0  0  0  0
  182.9630  174.6160  137.8550 C   0  0  0  0  0  2  0  0  0  0  0  0
  181.4820  176.3050  139.0590 C   0  0  0  0  0  2  0  0  0  0  0  0
  182.4630  176.0520  137.9100 C   0  0  0  0  0  2  0  0  0  0  0  0
  180.7670  173.3790  137.6390 C   0  0  0  0  0  2  0  0  0  0  0  0
  180.4650  175.1890  139.3170 C   0  0  0  0  0  2  0  0  0  0  0  0
  182.0590  173.7960  136.9400 C   0  0  0  0  0  3  0  0  0  0  0  0
  3 32  1  1  0  0  0
  3 12  1  0  0  0  0
  3  6  1  0  0  0  0
  4  5  1  0  0  0  0
  6 15  1  6  0  0  0
  6 13  1  0  0  0  0
  7  8  1  0  0  0  0
  7  4  1  1  0  0  0
  8  1  1  6  0  0  0
  8  9  1  0  0  0  0
  9  5  1  0  0  0  0
  9  2  1  0  0  0  0
  9 11  1  0  0  0  0
 10 12  1  6  0  0  0
 10  7  1  0  0  0  0
 13 10  1  0  0  0  0
 13  1  1  1  0  0  0
 14 15  2  0  0  0  0
 15 16  1  0  0  0  0
 17 18  1  0  0  0  0
 17 16  1  0  0  0  0
 19 24  1  0  0  0  0
 19 18  2  0  0  0  0
 20 17  2  0  0  0  0
 21 19  1  0  0  0  0
 22 21  2  0  0  0  0
 22 20  1  0  0  0  0
 23 28  1  0  0  0  0
 24 23  2  0  0  0  0
 25 24  1  0  0  0  0
 26 25  1  0  0  0  0
 27 25  2  0  0  0  0
 28 29  1  0  0  0  0
 29 30  1  0  0  0  0
 30 31  1  0  0  0  0
 32 33  1  6  0  0  0
 33 36  1  0  0  0  0
 34 36  1  0  0  0  0
 35 33  2  0  0  0  0
 37 40  1  6  0  0  0
 38 39  1  0  0  0  0
 38 37  1  0  0  0  0
 38 32  1  1  0  0  0
 39 37  1  0  0  0  0
 40 41  1  0  0  0  0
 41 42  1  0  0  0  0
 43 50  1  0  0  0  0
 43 42  1  0  0  0  0
 44 49  1  0  0  0  0
 45 47  1  0  0  0  0
 46 49  1  0  0  0  0
 47 46  1  0  0  0  0
 48 44  1  0  0  0  0
 50 48  1  0  0  0  0
 50 45  1  0  0  0  0
M  END
>  <MODEL>
8

>  <REMARK>
 VINA RESULT:      -6.6      3.765      9.200
  Name = 
  15 active torsions:
  status: ('A' for Active; 'I' for Inactive)
    1  A    between atoms: C_1  and  N_45
    2  A    between atoms: C_3  and  C_41
    3  A    between atoms: C_6  and  C_36
    4  A    between atoms: C_7  and  C_39
    5  A    between atoms: C_11  and  C_36
    6  A    between atoms: C_12  and  C_39
    7  A    between atoms: C_15  and  N_26
    8  A    between atoms: C_16  and  C_36
    9  A    between atoms: C_17  and  C_42
   10  A    between atoms: N_18  and  C_41
   11  A    between atoms: N_18  and  C_47
   12  A    between atoms: C_19  and  N_23
   13  A    between atoms: N_23  and  N_26
   14  A    between atoms: N_37  and  C_47
   15  A    between atoms: N_37  and  C_48
                            x       y       z     vdW  Elec       q    Type
                         _______ _______ _______ _____ _____    ______ ____

>  <TORSDO>
F 15

$$$$
=
 OpenBabel11042413223D

 50 55  0  0  1  0  0  0  0  0999 V2000
  190.4300  176.6360  140.7960 C   0  0  0  0  0  2  0  0  0  0  0  0
  187.9290  176.3780  143.1140 C   0  0  0  0  0  1  0  0  0  0  0  0
  189.4580  176.4590  137.3650 C   0  0  2  0  0  3  0  0  0  0  0  0
  188.1960  179.0760  140.9810 C   0  0  0  0  0  2  0  0  0  0  0  0
  187.9950  178.6370  142.3180 O   0  0  0  0  0  0  0  0  0  0  0  0
  190.4080  175.9220  138.4300 C   0  0  2  0  0  3  0  0  0  0  0  0
  188.5770  177.8810  140.1360 C   0  0  2  0  0  3  0  0  0  0  0  0
  189.2190  177.0620  141.1400 C   0  0  2  0  0  3  0  0  0  0  0  0
  188.7780  177.4730  142.4970 C   0  0  0  0  0  0  0  0  0  0  0  0
  189.6930  178.1490  139.1300 C   0  0  2  0  0  3  0  0  0  0  0  0
  189.9430  177.7900  143.4260 C   0  0  0  0  0  1  0  0  0  0  0  0
  189.1890  177.9190  137.7200 C   0  0  0  0  0  2  0  0  0  0  0  0
  190.7230  177.0540  139.3960 C   0  0  1  0  0  3  0  0  0  0  0  0
  191.7210  174.1330  137.5910 O   0  0  0  0  0  0  0  0  0  0  0  0
  191.6480  175.3710  137.8080 C   0  0  0  0  0  0  0  0  0  0  0  0
  192.7330  176.2470  137.4610 N   0  0  0  0  0  2  0  0  0  0  0  0
  193.8760  175.8900  136.6750 C   0  0  0  0  0  0  0  0  0  0  0  0
  194.8360  174.9830  137.1450 C   0  0  0  0  0  3  0  0  0  0  0  0
  195.9490  174.6350  136.3650 C   0  0  0  0  0  0  0  0  0  0  0  0
  194.0210  176.4380  135.3970 C   0  0  0  0  0  3  0  0  0  0  0  0
  196.0810  175.2030  135.0880 C   0  0  0  0  0  3  0  0  0  0  0  0
  195.1210  176.0980  134.6060 C   0  0  0  0  0  3  0  0  0  0  0  0
  197.8940  174.0090  137.7630 C   0  0  0  0  0  3  0  0  0  0  0  0
  196.9590  173.6620  136.8670 C   0  0  0  0  0  0  0  0  0  0  0  0
  196.9450  172.2560  136.3940 C   0  0  0  0  0  0  0  0  0  0  0  0
  195.7170  171.5460  136.2680 N   0  0  0  0  0  1  0  0  0  0  0  0
  198.0200  171.6740  136.0840 O   0  0  0  0  0  0  0  0  0  0  0  0
  198.0320  175.3390  138.2670 N   0  0  0  0  0  2  0  0  0  0  0  0
  198.7100  175.5850  139.4680 N   0  0  0  0  0  2  0  0  0  0  0  0
  197.8000  175.2480  140.5500 C   0  0  0  0  0  2  0  0  0  0  0  0
  196.5080  175.6500  140.2140 O   0  0  0  0  0  1  0  0  0  0  0  0
  188.1560  175.6420  137.3310 C   0  0  1  0  0  3  0  0  0  0  0  0
  186.9890  176.5020  136.9390 C   0  0  0  0  0  0  0  0  0  0  0  0
  184.8170  177.5980  137.5890 C   0  0  0  0  0  1  0  0  0  0  0  0
  186.9100  176.9770  135.7730 O   0  0  0  0  0  0  0  0  0  0  0  0
  185.9700  176.7720  137.9020 N   0  0  0  0  0  2  0  0  0  0  0  0
  187.1550  173.4650  136.6280 C   0  0  2  0  0  3  0  0  0  0  0  0
  188.2680  174.4620  136.3650 C   0  0  2  0  0  3  0  0  0  0  0  0
  188.5510  173.1880  137.1380 C   0  0  0  0  0  2  0  0  0  0  0  0
  186.9100  172.6680  135.3630 C   0  0  0  0  0  2  0  0  0  0  0  0
  186.7100  171.2700  135.6970 N   0  0  0  0  0  2  0  0  0  0  0  0
  185.7080  170.7620  134.7770 C   0  0  0  0  0  2  0  0  0  0  0  0
  184.6600  170.0910  135.5260 N   0  0  0  0  0  2  0  0  0  0  0  0
  181.0120  171.1090  135.3040 C   0  0  0  0  0  2  0  0  0  0  0  0
  183.5330  171.7310  136.9170 C   0  0  0  0  0  2  0  0  0  0  0  0
  181.2380  172.8020  137.1960 C   0  0  0  0  0  2  0  0  0  0  0  0
  182.7050  173.0030  136.8050 C   0  0  0  0  0  2  0  0  0  0  0  0
  182.2410  170.2110  135.3620 C   0  0  0  0  0  2  0  0  0  0  0  0
  180.5990  171.4950  136.7170 C   0  0  0  0  0  2  0  0  0  0  0  0
  183.5300  171.0010  135.5770 C   0  0  0  0  0  3  0  0  0  0  0  0
  3 32  1  1  0  0  0
  3 12  1  0  0  0  0
  3  6  1  0  0  0  0
  4  5  1  0  0  0  0
  5  9  1  0  0  0  0
  6 15  1  6  0  0  0
  6 13  1  0  0  0  0
  7  4  1  1  0  0  0
  7  8  1  0  0  0  0
  8  1  1  1  0  0  0
  8  9  1  0  0  0  0
  9  2  1  0  0  0  0
  9 11  1  0  0  0  0
 10 12  1  6  0  0  0
 10 13  1  0  0  0  0
 10  7  1  0  0  0  0
 13  1  1  1  0  0  0
 14 15  2  0  0  0  0
 16 15  1  0  0  0  0
 17 18  1  0  0  0  0
 17 16  1  0  0  0  0
 19 24  1  0  0  0  0
 19 18  2  0  0  0  0
 20 17  2  0  0  0  0
 21 19  1  0  0  0  0
 22 21  2  0  0  0  0
 22 20  1  0  0  0  0
 23 28  1  0  0  0  0
 24 23  2  0  0  0  0
 25 24  1  0  0  0  0
 26 25  1  0  0  0  0
 27 25  2  0  0  0  0
 28 29  1  0  0  0  0
 29 30  1  0  0  0  0
 31 30  1  0  0  0  0
 32 33  1  6  0  0  0
 33 36  1  0  0  0  0
 34 36  1  0  0  0  0
 35 33  2  0  0  0  0
 37 40  1  6  0  0  0
 37 39  1  0  0  0  0
 38 37  1  0  0  0  0
 38 39  1  0  0  0  0
 38 32  1  1  0  0  0
 40 41  1  0  0  0  0
 42 43  1  0  0  0  0
 42 41  1  0  0  0  0
 43 50  1  0  0  0  0
 44 48  1  0  0  0  0
 44 49  1  0  0  0  0
 47 45  1  0  0  0  0
 47 46  1  0  0  0  0
 48 50  1  0  0  0  0
 49 46  1  0  0  0  0
 50 45  1  0  0  0  0
M  END
>  <MODEL>
9

>  <REMARK>
 VINA RESULT:      -6.6      4.228      9.329
  Name = 
  15 active torsions:
  status: ('A' for Active; 'I' for Inactive)
    1  A    between atoms: C_1  and  N_45
    2  A    between atoms: C_3  and  C_41
    3  A    between atoms: C_6  and  C_36
    4  A    between atoms: C_7  and  C_39
    5  A    between atoms: C_11  and  C_36
    6  A    between atoms: C_12  and  C_39
    7  A    between atoms: C_15  and  N_26
    8  A    between atoms: C_16  and  C_36
    9  A    between atoms: C_17  and  C_42
   10  A    between atoms: N_18  and  C_41
   11  A    between atoms: N_18  and  C_47
   12  A    between atoms: C_19  and  N_23
   13  A    between atoms: N_23  and  N_26
   14  A    between atoms: N_37  and  C_47
   15  A    between atoms: N_37  and  C_48
                            x       y       z     vdW  Elec       q    Type
                         _______ _______ _______ _____ _____    ______ ____

>  <TORSDO>
F 15

$$$$
