=
 OpenBabel11042412273D

 26 29  0  0  1  0  0  0  0  0999 V2000
  182.9100  179.3080  144.3460 C   0  0  0  0  0  2  0  0  0  0  0  0
  185.6200  180.0240  143.7340 F   0  0  0  0  0  0  0  0  0  0  0  0
  187.4450  177.6670  145.4800 C   0  0  2  0  0  3  0  0  0  0  0  0
  185.4710  178.6570  143.5150 C   0  0  2  0  0  0  0  0  0  0  0  0
  182.9870  178.8610  142.8810 C   0  0  0  0  0  2  0  0  0  0  0  0
  184.3920  178.4110  142.4500 C   0  0  1  0  0  3  0  0  0  0  0  0
  184.7870  179.0380  141.1150 C   0  0  0  0  0  2  0  0  0  0  0  0
  185.0460  177.9600  144.8150 C   0  0  1  0  0  3  0  0  0  0  0  0
  187.9020  178.2220  144.1100 C   0  0  2  0  0  3  0  0  0  0  0  0
  186.0740  178.2080  145.9080 C   0  0  0  0  0  2  0  0  0  0  0  0
  187.2120  178.7110  141.7080 C   0  0  0  0  0  2  0  0  0  0  0  0
  186.1310  178.4750  140.6530 C   0  0  0  0  0  2  0  0  0  0  0  0
  186.8050  178.0650  143.0380 C   0  0  2  0  0  3  0  0  0  0  0  0
  183.6300  178.3330  145.2850 C   0  0  0  0  0  2  0  0  0  0  0  0
  190.4430  175.6340  142.9630 C   0  0  0  0  0  3  0  0  0  0  0  0
  191.5370  177.7320  143.1700 C   0  0  0  0  0  3  0  0  0  0  0  0
  189.1820  177.5680  143.6690 C   0  0  0  0  0  0  0  0  0  0  0  0
  191.5610  176.4040  142.8760 N   0  0  0  0  0  0  0  0  0  0  0  0
  189.2320  176.2030  143.3620 C   0  0  0  0  0  3  0  0  0  0  0  0
  190.3440  178.3390  143.5730 C   0  0  0  0  0  3  0  0  0  0  0  0
  188.5000  177.8990  146.5720 C   0  0  1  0  0  3  0  0  0  0  0  0
  187.8940  178.4900  147.8410 C   0  0  0  0  0  2  0  0  0  0  0  0
  187.8240  177.4740  148.8760 N   0  0  0  0  0  1  0  0  0  0  0  0
  189.1660  176.7050  146.8630 O   0  0  0  0  0  0  0  0  0  0  0  0
  191.3430  176.2940  146.3330 O   0  0  0  0  0  1  0  0  0  0  0  0
  190.4890  177.0810  147.1020 C   0  0  0  0  0  2  0  0  0  0  0  0
  1 14  1  0  0  0  0
  3 10  1  0  0  0  0
  3 21  1  1  0  0  0
  4  2  1  1  0  0  0
  4  8  1  0  0  0  0
  5  1  1  0  0  0  0
  6  7  1  6  0  0  0
  6  5  1  0  0  0  0
  6  4  1  0  0  0  0
  8 14  1  1  0  0  0
  8 10  1  0  0  0  0
  9 17  1  6  0  0  0
  9  3  1  0  0  0  0
 12  7  1  0  0  0  0
 12 11  1  0  0  0  0
 13 11  1  6  0  0  0
 13  4  1  0  0  0  0
 13  9  1  0  0  0  0
 15 19  1  0  0  0  0
 16 20  2  0  0  0  0
 18 15  2  0  0  0  0
 18 16  1  0  0  0  0
 19 17  2  0  0  0  0
 20 17  1  0  0  0  0
 21 24  1  0  0  0  0
 21 22  1  1  0  0  0
 22 23  1  0  0  0  0
 24 26  1  0  0  0  0
 25 26  1  0  0  0  0
M  END
>  <MODEL>
1

>  <REMARK>
 VINA RESULT:      -8.1      0.000      0.000
  Name = 
  5 active torsions:
  status: ('A' for Active; 'I' for Inactive)
    1  A    between atoms: C_4  and  C_18
    2  A    between atoms: C_7  and  C_18
    3  A    between atoms: C_13  and  C_14
    4  A    between atoms: C_18  and  O_22
    5  A    between atoms: C_21  and  O_22
                            x       y       z     vdW  Elec       q    Type
                         _______ _______ _______ _____ _____    ______ ____

>  <TORSDO>
F 5

$$$$
=
 OpenBabel11042412273D

 26 29  0  0  1  0  0  0  0  0999 V2000
  183.0690  178.8610  142.8580 C   0  0  0  0  0  2  0  0  0  0  0  0
  185.1810  177.0020  143.4250 F   0  0  0  0  0  0  0  0  0  0  0  0
  187.8340  178.2910  141.6270 C   0  0  2  0  0  3  0  0  0  0  0  0
  185.6660  178.2900  143.6360 C   0  0  2  0  0  0  0  0  0  0  0  0
  183.3680  179.2230  144.3180 C   0  0  0  0  0  2  0  0  0  0  0  0
  184.8340  178.9930  144.7200 C   0  0  1  0  0  3  0  0  0  0  0  0
  184.9330  178.2520  146.0510 C   0  0  0  0  0  2  0  0  0  0  0  0
  185.5730  179.1060  142.3400 C   0  0  1  0  0  3  0  0  0  0  0  0
  188.0200  177.5880  142.9920 C   0  0  2  0  0  3  0  0  0  0  0  0
  186.3570  178.4240  141.2290 C   0  0  0  0  0  2  0  0  0  0  0  0
  187.2330  177.4560  145.4100 C   0  0  0  0  0  2  0  0  0  0  0  0
  186.3950  178.1500  146.4840 C   0  0  0  0  0  2  0  0  0  0  0  0
  187.1330  178.2190  144.0830 C   0  0  2  0  0  3  0  0  0  0  0  0
  184.1310  179.4100  141.8990 C   0  0  0  0  0  2  0  0  0  0  0  0
  191.4930  178.7580  144.0120 C   0  0  0  0  0  3  0  0  0  0  0  0
  191.4880  176.3850  143.9210 C   0  0  0  0  0  3  0  0  0  0  0  0
  189.4670  177.5950  143.4030 C   0  0  0  0  0  0  0  0  0  0  0  0
  192.1300  177.5640  144.1450 N   0  0  0  0  0  0  0  0  0  0  0  0
  190.1480  178.7960  143.6380 C   0  0  0  0  0  3  0  0  0  0  0  0
  190.1430  176.3810  143.5460 C   0  0  0  0  0  3  0  0  0  0  0  0
  188.6500  177.6120  140.5160 C   0  0  1  0  0  3  0  0  0  0  0  0
  187.9020  177.5850  139.1870 C   0  0  0  0  0  2  0  0  0  0  0  0
  188.2780  178.7340  138.3840 N   0  0  0  0  0  1  0  0  0  0  0  0
  189.8850  178.2490  140.3650 O   0  0  0  0  0  0  0  0  0  0  0  0
  192.0410  177.5550  140.6070 O   0  0  0  0  0  1  0  0  0  0  0  0
  190.7890  177.2200  140.0960 C   0  0  0  0  0  2  0  0  0  0  0  0
  1  5  1  0  0  0  0
  3 21  1  6  0  0  0
  3  9  1  0  0  0  0
  4  2  1  6  0  0  0
  4 13  1  0  0  0  0
  4  6  1  0  0  0  0
  6  5  1  6  0  0  0
  6  7  1  0  0  0  0
  7 12  1  0  0  0  0
  8 10  1  6  0  0  0
  8  4  1  0  0  0  0
  9 17  1  1  0  0  0
  9 13  1  0  0  0  0
 10  3  1  0  0  0  0
 11 12  1  0  0  0  0
 13 11  1  1  0  0  0
 14  8  1  0  0  0  0
 14  1  1  0  0  0  0
 15 18  1  0  0  0  0
 16 18  2  0  0  0  0
 17 20  2  0  0  0  0
 17 19  1  0  0  0  0
 19 15  2  0  0  0  0
 20 16  1  0  0  0  0
 21 22  1  6  0  0  0
 23 22  1  0  0  0  0
 24 21  1  0  0  0  0
 26 24  1  0  0  0  0
 26 25  1  0  0  0  0
M  END
>  <MODEL>
2

>  <REMARK>
 VINA RESULT:      -7.4      2.525      4.550
  Name = 
  5 active torsions:
  status: ('A' for Active; 'I' for Inactive)
    1  A    between atoms: C_4  and  C_18
    2  A    between atoms: C_7  and  C_18
    3  A    between atoms: C_13  and  C_14
    4  A    between atoms: C_18  and  O_22
    5  A    between atoms: C_21  and  O_22
                            x       y       z     vdW  Elec       q    Type
                         _______ _______ _______ _____ _____    ______ ____

>  <TORSDO>
F 5

$$$$
=
 OpenBabel11042412273D

 26 29  0  0  1  0  0  0  0  0999 V2000
  189.6290  177.1950  145.2480 C   0  0  0  0  0  2  0  0  0  0  0  0
  189.3030  178.8540  142.9290 F   0  0  0  0  0  0  0  0  0  0  0  0
  190.4950  176.8470  140.3830 C   0  0  2  0  0  3  0  0  0  0  0  0
  188.7570  177.6030  142.6510 C   0  0  2  0  0  0  0  0  0  0  0  0
  188.1030  177.1600  145.0980 C   0  0  0  0  0  2  0  0  0  0  0  0
  187.6260  177.2920  143.6430 C   0  0  1  0  0  3  0  0  0  0  0  0
  186.4970  178.3120  143.5220 C   0  0  0  0  0  2  0  0  0  0  0  0
  189.8350  176.5190  142.7790 C   0  0  1  0  0  3  0  0  0  0  0  0
  189.3160  177.8280  140.1830 C   0  0  2  0  0  3  0  0  0  0  0  0
  190.9910  176.8090  141.8340 C   0  0  0  0  0  2  0  0  0  0  0  0
  187.0790  178.6340  141.0950 C   0  0  0  0  0  2  0  0  0  0  0  0
  185.9600  178.3300  142.0910 C   0  0  0  0  0  2  0  0  0  0  0  0
  188.1990  177.5940  141.2200 C   0  0  2  0  0  3  0  0  0  0  0  0
  190.3310  176.3020  144.2180 C   0  0  0  0  0  2  0  0  0  0  0  0
  187.6570  176.5330  137.0140 C   0  0  0  0  0  3  0  0  0  0  0  0
  188.4290  178.7430  136.6170 C   0  0  0  0  0  3  0  0  0  0  0  0
  188.7770  177.7370  138.7820 C   0  0  0  0  0  0  0  0  0  0  0  0
  187.8110  177.6070  136.1950 N   0  0  0  0  0  0  0  0  0  0  0  0
  188.1380  176.5770  138.3240 C   0  0  0  0  0  3  0  0  0  0  0  0
  188.9230  178.8280  137.9220 C   0  0  0  0  0  3  0  0  0  0  0  0
  191.6480  177.1310  139.4070 C   0  0  1  0  0  3  0  0  0  0  0  0
  192.9080  177.6000  140.1280 C   0  0  0  0  0  2  0  0  0  0  0  0
  194.0430  176.7960  139.7140 N   0  0  0  0  0  1  0  0  0  0  0  0
  191.9220  175.9960  138.6390 O   0  0  0  0  0  0  0  0  0  0  0  0
  191.0100  175.3940  136.6400 O   0  0  0  0  0  1  0  0  0  0  0  0
  191.7030  176.3940  137.3190 C   0  0  0  0  0  2  0  0  0  0  0  0
  3 21  1  6  0  0  0
  3 10  1  0  0  0  0
  4  8  1  0  0  0  0
  4  2  1  1  0  0  0
  4  6  1  0  0  0  0
  5  1  1  0  0  0  0
  6  7  1  1  0  0  0
  6  5  1  0  0  0  0
  8 10  1  6  0  0  0
  8 14  1  0  0  0  0
  9 17  1  6  0  0  0
  9  3  1  0  0  0  0
  9 13  1  0  0  0  0
 11 12  1  0  0  0  0
 12  7  1  0  0  0  0
 13 11  1  1  0  0  0
 13  4  1  0  0  0  0
 14  1  1  0  0  0  0
 15 19  1  0  0  0  0
 16 20  2  0  0  0  0
 18 16  1  0  0  0  0
 18 15  2  0  0  0  0
 19 17  2  0  0  0  0
 20 17  1  0  0  0  0
 21 22  1  1  0  0  0
 23 22  1  0  0  0  0
 24 21  1  0  0  0  0
 25 26  1  0  0  0  0
 26 24  1  0  0  0  0
M  END
>  <MODEL>
3

>  <REMARK>
 VINA RESULT:      -6.9      4.014      6.504
  Name = 
  5 active torsions:
  status: ('A' for Active; 'I' for Inactive)
    1  A    between atoms: C_4  and  C_18
    2  A    between atoms: C_7  and  C_18
    3  A    between atoms: C_13  and  C_14
    4  A    between atoms: C_18  and  O_22
    5  A    between atoms: C_21  and  O_22
                            x       y       z     vdW  Elec       q    Type
                         _______ _______ _______ _____ _____    ______ ____

>  <TORSDO>
F 5

$$$$
=
 OpenBabel11042412273D

 26 29  0  0  1  0  0  0  0  0999 V2000
  183.2860  179.1280  140.7950 C   0  0  0  0  0  2  0  0  0  0  0  0
  185.9340  179.9230  141.5630 F   0  0  0  0  0  0  0  0  0  0  0  0
  186.5880  177.8790  144.2700 C   0  0  2  0  0  3  0  0  0  0  0  0
  185.9050  178.5340  141.4700 C   0  0  2  0  0  0  0  0  0  0  0  0
  184.0970  178.5270  139.6410 C   0  0  0  0  0  2  0  0  0  0  0  0
  185.5210  178.1110  140.0430 C   0  0  1  0  0  3  0  0  0  0  0  0
  186.5490  178.6090  139.0300 C   0  0  0  0  0  2  0  0  0  0  0  0
  184.8700  177.9620  142.4470 C   0  0  1  0  0  3  0  0  0  0  0  0
  187.6860  178.3040  143.2660 C   0  0  2  0  0  3  0  0  0  0  0  0
  185.1960  178.3870  143.8710 C   0  0  0  0  0  2  0  0  0  0  0  0
  188.3260  178.4860  140.8090 C   0  0  0  0  0  2  0  0  0  0  0  0
  187.9350  178.0750  139.3890 C   0  0  0  0  0  2  0  0  0  0  0  0
  187.2910  177.9680  141.8140 C   0  0  2  0  0  3  0  0  0  0  0  0
  183.4160  178.3050  142.0820 C   0  0  0  0  0  2  0  0  0  0  0  0
  191.2480  177.8150  144.5110 C   0  0  0  0  0  3  0  0  0  0  0  0
  190.4390  175.7390  143.6880 C   0  0  0  0  0  3  0  0  0  0  0  0
  189.0070  177.6790  143.6230 C   0  0  0  0  0  0  0  0  0  0  0  0
  191.4230  176.4910  144.2500 N   0  0  0  0  0  0  0  0  0  0  0  0
  190.0350  178.4340  144.2020 C   0  0  0  0  0  3  0  0  0  0  0  0
  189.2110  176.3210  143.3640 C   0  0  0  0  0  3  0  0  0  0  0  0
  186.9380  178.2890  145.7090 C   0  0  1  0  0  3  0  0  0  0  0  0
  185.8700  179.1850  146.3280 C   0  0  0  0  0  2  0  0  0  0  0  0
  184.9010  178.3770  147.0460 N   0  0  0  0  0  1  0  0  0  0  0  0
  187.1380  177.1540  146.5000 O   0  0  0  0  0  0  0  0  0  0  0  0
  189.2380  176.5290  147.1210 O   0  0  0  0  0  1  0  0  0  0  0  0
  188.2280  177.4700  147.3120 C   0  0  0  0  0  2  0  0  0  0  0  0
  1 14  1  0  0  0  0
  3 21  1  1  0  0  0
  4  2  1  1  0  0  0
  4 13  1  0  0  0  0
  4  8  1  0  0  0  0
  5  6  1  0  0  0  0
  5  1  1  0  0  0  0
  6  7  1  6  0  0  0
  6  4  1  0  0  0  0
  7 12  1  0  0  0  0
  8 14  1  6  0  0  0
  8 10  1  0  0  0  0
  9 17  1  1  0  0  0
  9  3  1  0  0  0  0
 10  3  1  0  0  0  0
 12 11  1  0  0  0  0
 13 11  1  6  0  0  0
 13  9  1  0  0  0  0
 16 18  2  0  0  0  0
 17 19  1  0  0  0  0
 18 15  1  0  0  0  0
 19 15  2  0  0  0  0
 20 17  2  0  0  0  0
 20 16  1  0  0  0  0
 21 22  1  1  0  0  0
 21 24  1  0  0  0  0
 22 23  1  0  0  0  0
 24 26  1  0  0  0  0
 25 26  1  0  0  0  0
M  END
>  <MODEL>
4

>  <REMARK>
 VINA RESULT:      -6.8      1.454      2.370
  Name = 
  5 active torsions:
  status: ('A' for Active; 'I' for Inactive)
    1  A    between atoms: C_4  and  C_18
    2  A    between atoms: C_7  and  C_18
    3  A    between atoms: C_13  and  C_14
    4  A    between atoms: C_18  and  O_22
    5  A    between atoms: C_21  and  O_22
                            x       y       z     vdW  Elec       q    Type
                         _______ _______ _______ _____ _____    ______ ____

>  <TORSDO>
F 5

$$$$
=
 OpenBabel11042412273D

 26 29  0  0  1  0  0  0  0  0999 V2000
  184.4660  178.7070  141.5130 C   0  0  0  0  0  2  0  0  0  0  0  0
  185.5840  176.9190  143.4580 F   0  0  0  0  0  0  0  0  0  0  0  0
  188.9020  177.8750  143.5550 C   0  0  2  0  0  3  0  0  0  0  0  0
  185.9750  178.2150  143.7830 C   0  0  2  0  0  0  0  0  0  0  0  0
  183.8520  179.2800  142.7950 C   0  0  0  0  0  2  0  0  0  0  0  0
  184.7370  179.0880  144.0380 C   0  0  1  0  0  3  0  0  0  0  0  0
  183.9260  178.5550  145.2170 C   0  0  0  0  0  2  0  0  0  0  0  0
  186.7770  178.8270  142.6270 C   0  0  1  0  0  3  0  0  0  0  0  0
  188.1440  177.3830  144.8100 C   0  0  2  0  0  3  0  0  0  0  0  0
  187.9970  177.9730  142.3200 C   0  0  0  0  0  2  0  0  0  0  0  0
  186.0400  177.6310  146.2230 C   0  0  0  0  0  2  0  0  0  0  0  0
  184.8020  178.4940  146.4670 C   0  0  0  0  0  2  0  0  0  0  0  0
  186.8490  178.1870  145.0450 C   0  0  2  0  0  3  0  0  0  0  0  0
  185.9440  179.0860  141.3610 C   0  0  0  0  0  2  0  0  0  0  0  0
  191.0130  176.7530  147.2280 C   0  0  0  0  0  3  0  0  0  0  0  0
  189.4800  178.2550  148.2440 C   0  0  0  0  0  3  0  0  0  0  0  0
  189.0320  177.4270  146.0230 C   0  0  0  0  0  0  0  0  0  0  0  0
  190.6290  177.5290  148.2770 N   0  0  0  0  0  0  0  0  0  0  0  0
  190.2200  176.6870  146.0800 C   0  0  0  0  0  3  0  0  0  0  0  0
  188.6600  178.2170  147.1140 C   0  0  0  0  0  3  0  0  0  0  0  0
  190.1470  177.0220  143.2670 C   0  0  1  0  0  3  0  0  0  0  0  0
  189.8950  175.9880  142.1750 C   0  0  0  0  0  2  0  0  0  0  0  0
  190.5790  176.3780  140.9550 N   0  0  0  0  0  1  0  0  0  0  0  0
  191.2260  177.8410  142.9200 O   0  0  0  0  0  0  0  0  0  0  0  0
  192.1070  179.3840  144.3440 O   0  0  0  0  0  1  0  0  0  0  0  0
  190.9890  179.0450  143.5840 C   0  0  0  0  0  2  0  0  0  0  0  0
  1  5  1  0  0  0  0
  3 21  1  6  0  0  0
  3  9  1  0  0  0  0
  4  2  1  6  0  0  0
  4  6  1  0  0  0  0
  4 13  1  0  0  0  0
  6  5  1  6  0  0  0
  6  7  1  0  0  0  0
  7 12  1  0  0  0  0
  8 14  1  6  0  0  0
  8  4  1  0  0  0  0
  9 13  1  0  0  0  0
  9 17  1  1  0  0  0
 10  8  1  0  0  0  0
 10  3  1  0  0  0  0
 11 12  1  0  0  0  0
 13 11  1  1  0  0  0
 14  1  1  0  0  0  0
 15 18  1  0  0  0  0
 16 18  2  0  0  0  0
 17 19  1  0  0  0  0
 17 20  2  0  0  0  0
 19 15  2  0  0  0  0
 20 16  1  0  0  0  0
 21 22  1  6  0  0  0
 23 22  1  0  0  0  0
 24 21  1  0  0  0  0
 24 26  1  0  0  0  0
 26 25  1  0  0  0  0
M  END
>  <MODEL>
5

>  <REMARK>
 VINA RESULT:      -6.6      1.731      4.160
  Name = 
  5 active torsions:
  status: ('A' for Active; 'I' for Inactive)
    1  A    between atoms: C_4  and  C_18
    2  A    between atoms: C_7  and  C_18
    3  A    between atoms: C_13  and  C_14
    4  A    between atoms: C_18  and  O_22
    5  A    between atoms: C_21  and  O_22
                            x       y       z     vdW  Elec       q    Type
                         _______ _______ _______ _____ _____    ______ ____

>  <TORSDO>
F 5

$$$$
=
 OpenBabel11042412273D

 26 29  0  0  1  0  0  0  0  0999 V2000
  184.5720  178.6290  146.1980 C   0  0  0  0  0  2  0  0  0  0  0  0
  186.2390  179.7550  144.1520 F   0  0  0  0  0  0  0  0  0  0  0  0
  188.7080  177.3680  143.7810 C   0  0  2  0  0  3  0  0  0  0  0  0
  185.9520  178.4380  143.8050 C   0  0  2  0  0  0  0  0  0  0  0  0
  183.6630  178.4510  144.9760 C   0  0  0  0  0  2  0  0  0  0  0  0
  184.4340  178.2510  143.6610 C   0  0  1  0  0  3  0  0  0  0  0  0
  183.8760  179.1390  142.5520 C   0  0  0  0  0  2  0  0  0  0  0  0
  186.4640  177.4840  144.8920 C   0  0  1  0  0  3  0  0  0  0  0  0
  188.1710  178.1990  142.5910 C   0  0  2  0  0  3  0  0  0  0  0  0
  187.9610  177.6620  145.0890 C   0  0  0  0  0  2  0  0  0  0  0  0
  186.0910  179.0060  141.3640 C   0  0  0  0  0  2  0  0  0  0  0  0
  184.5780  178.8280  141.2310 C   0  0  0  0  0  2  0  0  0  0  0  0
  186.6370  178.0980  142.4730 C   0  0  2  0  0  3  0  0  0  0  0  0
  185.7080  177.6000  146.2260 C   0  0  0  0  0  2  0  0  0  0  0  0
  190.3600  176.3860  140.0630 C   0  0  0  0  0  3  0  0  0  0  0  0
  189.1590  178.0980  138.9370 C   0  0  0  0  0  3  0  0  0  0  0  0
  188.8380  177.7870  141.3080 C   0  0  0  0  0  0  0  0  0  0  0  0
  190.0500  177.0700  138.9290 N   0  0  0  0  0  0  0  0  0  0  0  0
  189.7590  176.7320  141.2750 C   0  0  0  0  0  3  0  0  0  0  0  0
  188.5360  178.4750  140.1300 C   0  0  0  0  0  3  0  0  0  0  0  0
  190.2250  177.5330  143.9560 C   0  0  1  0  0  3  0  0  0  0  0  0
  190.5770  178.7610  144.7900 C   0  0  0  0  0  2  0  0  0  0  0  0
  191.2500  179.7460  143.9630 N   0  0  0  0  0  1  0  0  0  0  0  0
  190.7740  176.3830  144.5300 O   0  0  0  0  0  0  0  0  0  0  0  0
  192.0550  175.7590  146.3070 O   0  0  0  0  0  1  0  0  0  0  0  0
  191.4150  176.8300  145.6860 C   0  0  0  0  0  2  0  0  0  0  0  0
  1 14  1  0  0  0  0
  3 21  1  1  0  0  0
  3 10  1  0  0  0  0
  4  2  1  1  0  0  0
  4  8  1  0  0  0  0
  5  1  1  0  0  0  0
  6  7  1  6  0  0  0
  6  4  1  0  0  0  0
  6  5  1  0  0  0  0
  8 10  1  1  0  0  0
  8 14  1  0  0  0  0
  9 17  1  6  0  0  0
  9  3  1  0  0  0  0
 12 11  1  0  0  0  0
 12  7  1  0  0  0  0
 13 11  1  6  0  0  0
 13  9  1  0  0  0  0
 13  4  1  0  0  0  0
 15 19  1  0  0  0  0
 16 20  2  0  0  0  0
 18 16  1  0  0  0  0
 18 15  2  0  0  0  0
 19 17  2  0  0  0  0
 20 17  1  0  0  0  0
 21 24  1  0  0  0  0
 21 22  1  1  0  0  0
 23 22  1  0  0  0  0
 24 26  1  0  0  0  0
 26 25  1  0  0  0  0
M  END
>  <MODEL>
6

>  <REMARK>
 VINA RESULT:      -6.5      1.932      2.756
  Name = 
  5 active torsions:
  status: ('A' for Active; 'I' for Inactive)
    1  A    between atoms: C_4  and  C_18
    2  A    between atoms: C_7  and  C_18
    3  A    between atoms: C_13  and  C_14
    4  A    between atoms: C_18  and  O_22
    5  A    between atoms: C_21  and  O_22
                            x       y       z     vdW  Elec       q    Type
                         _______ _______ _______ _____ _____    ______ ____

>  <TORSDO>
F 5

$$$$
=
 OpenBabel11042412273D

 26 29  0  0  1  0  0  0  0  0999 V2000
  184.6030  178.5890  141.5620 C   0  0  0  0  0  2  0  0  0  0  0  0
  185.8040  176.8160  143.4720 F   0  0  0  0  0  0  0  0  0  0  0  0
  189.0820  177.9030  143.5650 C   0  0  2  0  0  3  0  0  0  0  0  0
  186.1450  178.1220  143.8150 C   0  0  2  0  0  0  0  0  0  0  0  0
  183.9750  179.1170  142.8580 C   0  0  0  0  0  2  0  0  0  0  0  0
  184.8740  178.9410  144.0920 C   0  0  1  0  0  3  0  0  0  0  0  0
  184.0930  178.3570  145.2670 C   0  0  0  0  0  2  0  0  0  0  0  0
  186.9140  178.7840  142.6650 C   0  0  1  0  0  3  0  0  0  0  0  0
  188.3520  177.3600  144.8160 C   0  0  2  0  0  3  0  0  0  0  0  0
  188.1650  177.9840  142.3370 C   0  0  0  0  0  2  0  0  0  0  0  0
  186.2490  177.5020  146.2450 C   0  0  0  0  0  2  0  0  0  0  0  0
  184.9790  178.3110  146.5110 C   0  0  0  0  0  2  0  0  0  0  0  0
  187.0270  178.1090  145.0720 C   0  0  2  0  0  3  0  0  0  0  0  0
  186.0630  179.0300  141.4080 C   0  0  0  0  0  2  0  0  0  0  0  0
  191.2680  176.8230  147.1990 C   0  0  0  0  0  3  0  0  0  0  0  0
  189.6650  178.2130  148.2640 C   0  0  0  0  0  3  0  0  0  0  0  0
  189.2450  177.4210  146.0240 C   0  0  0  0  0  0  0  0  0  0  0  0
  190.8520  177.5490  148.2710 N   0  0  0  0  0  0  0  0  0  0  0  0
  190.4720  176.7450  146.0550 C   0  0  0  0  0  3  0  0  0  0  0  0
  188.8390  178.1600  147.1380 C   0  0  0  0  0  3  0  0  0  0  0  0
  190.3580  177.1040  143.2560 C   0  0  1  0  0  3  0  0  0  0  0  0
  190.0610  175.8240  142.4820 C   0  0  0  0  0  2  0  0  0  0  0  0
  190.5560  174.6740  143.2190 N   0  0  0  0  0  1  0  0  0  0  0  0
  191.2660  177.8980  142.5500 O   0  0  0  0  0  0  0  0  0  0  0  0
  192.4310  177.8770  140.5930 O   0  0  0  0  0  1  0  0  0  0  0  0
  191.3990  177.2750  141.3090 C   0  0  0  0  0  2  0  0  0  0  0  0
  1  5  1  0  0  0  0
  3 21  1  6  0  0  0
  3  9  1  0  0  0  0
  4  2  1  6  0  0  0
  4  6  1  0  0  0  0
  4 13  1  0  0  0  0
  6  5  1  6  0  0  0
  6  7  1  0  0  0  0
  7 12  1  0  0  0  0
  8 14  1  6  0  0  0
  8  4  1  0  0  0  0
  9 13  1  0  0  0  0
  9 17  1  1  0  0  0
 10  8  1  0  0  0  0
 10  3  1  0  0  0  0
 11 12  1  0  0  0  0
 13 11  1  1  0  0  0
 14  1  1  0  0  0  0
 15 18  1  0  0  0  0
 16 18  2  0  0  0  0
 17 19  1  0  0  0  0
 17 20  2  0  0  0  0
 19 15  2  0  0  0  0
 20 16  1  0  0  0  0
 21 22  1  6  0  0  0
 22 23  1  0  0  0  0
 24 21  1  0  0  0  0
 25 26  1  0  0  0  0
 26 24  1  0  0  0  0
M  END
>  <MODEL>
7

>  <REMARK>
 VINA RESULT:      -6.4      1.969      4.259
  Name = 
  5 active torsions:
  status: ('A' for Active; 'I' for Inactive)
    1  A    between atoms: C_4  and  C_18
    2  A    between atoms: C_7  and  C_18
    3  A    between atoms: C_13  and  C_14
    4  A    between atoms: C_18  and  O_22
    5  A    between atoms: C_21  and  O_22
                            x       y       z     vdW  Elec       q    Type
                         _______ _______ _______ _____ _____    ______ ____

>  <TORSDO>
F 5

$$$$
=
 OpenBabel11042412273D

 26 29  0  0  1  0  0  0  0  0999 V2000
  185.8980  178.0610  144.1770 C   0  0  0  0  0  2  0  0  0  0  0  0
  187.5640  176.1990  142.7660 F   0  0  0  0  0  0  0  0  0  0  0  0
  188.5540  178.0090  139.9960 C   0  0  2  0  0  3  0  0  0  0  0  0
  188.2520  177.4050  142.8730 C   0  0  2  0  0  0  0  0  0  0  0  0
  187.1250  178.0410  145.0950 C   0  0  0  0  0  2  0  0  0  0  0  0
  188.4440  177.7700  144.3530 C   0  0  1  0  0  3  0  0  0  0  0  0
  189.2760  176.7130  145.0740 C   0  0  0  0  0  2  0  0  0  0  0  0
  187.4570  178.5250  142.1900 C   0  0  1  0  0  3  0  0  0  0  0  0
  189.4800  176.9820  140.6900 C   0  0  2  0  0  3  0  0  0  0  0  0
  187.2170  178.1860  140.7270 C   0  0  0  0  0  2  0  0  0  0  0  0
  190.4510  176.1960  142.9090 C   0  0  0  0  0  2  0  0  0  0  0  0
  190.6310  176.5560  144.3840 C   0  0  0  0  0  2  0  0  0  0  0  0
  189.6240  177.2740  142.1970 C   0  0  2  0  0  3  0  0  0  0  0  0
  186.1430  178.8800  142.9040 C   0  0  0  0  0  2  0  0  0  0  0  0
  192.2870  176.1980  138.2450 C   0  0  0  0  0  3  0  0  0  0  0  0
  193.1520  177.5680  139.9800 C   0  0  0  0  0  3  0  0  0  0  0  0
  190.8250  176.9360  140.0190 C   0  0  0  0  0  0  0  0  0  0  0  0
  193.3180  176.8670  138.8270 N   0  0  0  0  0  0  0  0  0  0  0  0
  191.0200  176.2200  138.8310 C   0  0  0  0  0  3  0  0  0  0  0  0
  191.9000  177.6150  140.5980 C   0  0  0  0  0  3  0  0  0  0  0  0
  188.3370  177.6720  138.5120 C   0  0  1  0  0  3  0  0  0  0  0  0
  187.2000  176.6770  138.3090 C   0  0  0  0  0  2  0  0  0  0  0  0
  187.6340  175.6000  137.4370 N   0  0  0  0  0  1  0  0  0  0  0  0
  188.0970  178.8400  137.7810 O   0  0  0  0  0  0  0  0  0  0  0  0
  189.0650  178.1910  135.8250 O   0  0  0  0  0  1  0  0  0  0  0  0
  189.2160  178.9850  136.9600 C   0  0  0  0  0  2  0  0  0  0  0  0
  1  5  1  0  0  0  0
  3 21  1  6  0  0  0
  3  9  1  0  0  0  0
  3 10  1  0  0  0  0
  4  2  1  6  0  0  0
  4  6  1  0  0  0  0
  6  7  1  1  0  0  0
  6  5  1  0  0  0  0
  8 10  1  6  0  0  0
  8  4  1  0  0  0  0
  8 14  1  0  0  0  0
  9 17  1  6  0  0  0
  9 13  1  0  0  0  0
 11 12  1  0  0  0  0
 12  7  1  0  0  0  0
 13  4  1  0  0  0  0
 13 11  1  1  0  0  0
 14  1  1  0  0  0  0
 15 18  2  0  0  0  0
 15 19  1  0  0  0  0
 16 20  2  0  0  0  0
 17 20  1  0  0  0  0
 18 16  1  0  0  0  0
 19 17  2  0  0  0  0
 21 22  1  1  0  0  0
 23 22  1  0  0  0  0
 24 21  1  0  0  0  0
 25 26  1  0  0  0  0
 26 24  1  0  0  0  0
M  END
>  <MODEL>
8

>  <REMARK>
 VINA RESULT:      -6.3      4.098      6.233
  Name = 
  5 active torsions:
  status: ('A' for Active; 'I' for Inactive)
    1  A    between atoms: C_4  and  C_18
    2  A    between atoms: C_7  and  C_18
    3  A    between atoms: C_13  and  C_14
    4  A    between atoms: C_18  and  O_22
    5  A    between atoms: C_21  and  O_22
                            x       y       z     vdW  Elec       q    Type
                         _______ _______ _______ _____ _____    ______ ____

>  <TORSDO>
F 5

$$$$
=
 OpenBabel11042412273D

 26 29  0  0  1  0  0  0  0  0999 V2000
  184.9700  178.7010  144.8000 C   0  0  0  0  0  2  0  0  0  0  0  0
  186.1750  179.8610  142.4680 F   0  0  0  0  0  0  0  0  0  0  0  0
  188.6930  177.6190  141.7160 C   0  0  2  0  0  3  0  0  0  0  0  0
  185.9200  178.5180  142.2050 C   0  0  2  0  0  0  0  0  0  0  0  0
  183.8750  178.4280  143.7620 C   0  0  0  0  0  2  0  0  0  0  0  0
  184.4150  178.2330  142.3360 C   0  0  1  0  0  3  0  0  0  0  0  0
  183.6140  179.0490  141.3250 C   0  0  0  0  0  2  0  0  0  0  0  0
  186.6760  177.6330  143.2050 C   0  0  1  0  0  3  0  0  0  0  0  0
  187.9020  178.3760  140.6230 C   0  0  2  0  0  3  0  0  0  0  0  0
  188.1700  177.9090  143.1290 C   0  0  0  0  0  2  0  0  0  0  0  0
  185.5900  179.0140  139.7670 C   0  0  0  0  0  2  0  0  0  0  0  0
  184.0930  178.7380  139.9070 C   0  0  0  0  0  2  0  0  0  0  0  0
  186.3810  178.1780  140.7800 C   0  0  2  0  0  3  0  0  0  0  0  0
  186.1600  177.7460  144.6480 C   0  0  0  0  0  2  0  0  0  0  0  0
  188.6090  176.3170  137.5030 C   0  0  0  0  0  3  0  0  0  0  0  0
  189.4310  178.5190  137.1620 C   0  0  0  0  0  3  0  0  0  0  0  0
  188.3600  177.9640  139.2510 C   0  0  0  0  0  0  0  0  0  0  0  0
  189.2280  177.2460  136.7260 N   0  0  0  0  0  0  0  0  0  0  0  0
  188.1630  176.6590  138.7810 C   0  0  0  0  0  3  0  0  0  0  0  0
  188.9990  178.9010  138.4340 C   0  0  0  0  0  3  0  0  0  0  0  0
  190.2030  177.8830  141.6160 C   0  0  1  0  0  3  0  0  0  0  0  0
  190.8100  178.2650  142.9620 C   0  0  0  0  0  2  0  0  0  0  0  0
  191.5090  177.1280  143.5320 N   0  0  0  0  0  1  0  0  0  0  0  0
  190.8560  176.7650  141.0900 O   0  0  0  0  0  0  0  0  0  0  0  0
  191.7500  176.3620  139.0340 O   0  0  0  0  0  1  0  0  0  0  0  0
  191.6840  177.2720  140.0870 C   0  0  0  0  0  2  0  0  0  0  0  0
  3 21  1  1  0  0  0
  3 10  1  0  0  0  0
  4  6  1  0  0  0  0
  4  2  1  1  0  0  0
  4  8  1  0  0  0  0
  5  1  1  0  0  0  0
  6  7  1  6  0  0  0
  6  5  1  0  0  0  0
  8 10  1  1  0  0  0
  8 14  1  0  0  0  0
  9 17  1  6  0  0  0
  9 13  1  0  0  0  0
  9  3  1  0  0  0  0
 11 12  1  0  0  0  0
 12  7  1  0  0  0  0
 13 11  1  6  0  0  0
 13  4  1  0  0  0  0
 14  1  1  0  0  0  0
 15 19  1  0  0  0  0
 16 20  2  0  0  0  0
 18 16  1  0  0  0  0
 18 15  2  0  0  0  0
 19 17  2  0  0  0  0
 20 17  1  0  0  0  0
 21 22  1  1  0  0  0
 22 23  1  0  0  0  0
 24 21  1  0  0  0  0
 25 26  1  0  0  0  0
 26 24  1  0  0  0  0
M  END
>  <MODEL>
9

>  <REMARK>
 VINA RESULT:      -6.2      3.005      4.444
  Name = 
  5 active torsions:
  status: ('A' for Active; 'I' for Inactive)
    1  A    between atoms: C_4  and  C_18
    2  A    between atoms: C_7  and  C_18
    3  A    between atoms: C_13  and  C_14
    4  A    between atoms: C_18  and  O_22
    5  A    between atoms: C_21  and  O_22
                            x       y       z     vdW  Elec       q    Type
                         _______ _______ _______ _____ _____    ______ ____

>  <TORSDO>
F 5

$$$$
