=
 OpenBabel11042411213D

 25 28  0  0  1  0  0  0  0  0999 V2000
  187.8970  177.9540  145.8750 C   0  0  0  0  0  0  0  0  0  0  0  0
  186.0040  178.1950  144.3280 C   0  0  0  0  0  0  0  0  0  0  0  0
  188.7110  177.6200  144.7900 C   0  0  0  0  0  3  0  0  0  0  0  0
  186.5260  178.2470  145.6430 C   0  0  0  0  0  0  0  0  0  0  0  0
  188.2050  177.5680  143.4880 C   0  0  0  0  0  0  0  0  0  0  0  0
  185.6910  178.5890  146.7030 O   0  0  0  0  0  1  0  0  0  0  0  0
  186.8570  177.8560  143.2700 C   0  0  0  0  0  3  0  0  0  0  0  0
  190.4040  177.2560  139.2420 O   0  0  0  0  0  0  0  0  0  0  0  0
  190.0840  176.2070  142.4170 N   0  0  0  0  0  0  0  0  0  0  0  0
  190.0660  177.0710  140.4390 C   0  0  0  0  0  0  0  0  0  0  0  0
  189.0170  177.7840  141.1440 C   0  0  0  0  0  3  0  0  0  0  0  0
  190.6710  176.1200  141.2950 N   0  0  0  0  0  0  0  0  0  0  0  0
  189.0720  177.2160  142.3500 C   0  0  0  0  0  0  0  0  0  0  0  0
  188.5870  177.9570  147.2220 C   0  0  2  0  0  3  0  0  0  0  0  0
  189.7480  177.0210  147.2510 N   0  0  0  0  0  0  0  0  0  0  0  0
  191.6060  175.4040  147.3430 N   0  0  0  0  0  1  0  0  0  0  0  0
  191.0730  176.6440  146.8950 C   0  0  0  0  0  0  0  0  0  0  0  0
  188.4360  176.7780  147.9260 C   0  0  0  0  0  2  0  0  0  0  0  0
  191.7730  177.4070  146.1800 O   0  0  0  0  0  0  0  0  0  0  0  0
  182.3450  178.9850  144.3680 N   0  0  0  0  0  0  0  0  0  0  0  0
  182.3810  178.9090  143.0220 C   0  0  0  0  0  0  0  0  0  0  0  0
  183.9210  178.5490  142.4640 S   0  0  0  0  0  0  0  0  0  0  0  0
  183.5620  178.7520  144.9280 C   0  0  0  0  0  3  0  0  0  0  0  0
  180.9830  179.1570  141.9980 Cl  0  0  0  0  0  0  0  0  0  0  0  0
  184.5830  178.4860  144.0150 C   0  0  0  0  0  0  0  0  0  0  0  0
  2  4  2  0  0  0  0
  3  1  2  0  0  0  0
  4  1  1  0  0  0  0
  4  6  1  0  0  0  0
  5  3  1  0  0  0  0
  7  5  2  0  0  0  0
  7  2  1  0  0  0  0
  8 10  2  0  0  0  0
 10 11  1  0  0  0  0
 10 12  1  0  0  0  0
 11 13  2  0  0  0  0
 12  9  2  0  0  0  0
 13  9  1  0  0  0  0
 13  5  1  0  0  0  0
 14  1  1  6  0  0  0
 14 15  1  0  0  0  0
 14 18  1  0  0  0  0
 15 18  1  0  0  0  0
 17 15  1  0  0  0  0
 17 16  1  0  0  0  0
 19 17  2  0  0  0  0
 20 23  1  0  0  0  0
 21 20  2  0  0  0  0
 22 21  1  0  0  0  0
 22 25  1  0  0  0  0
 24 21  1  0  0  0  0
 25  2  1  0  0  0  0
 25 23  2  0  0  0  0
M  END
>  <MODEL>
1

>  <REMARK>
 VINA RESULT:      -9.4      0.000      0.000
  Name = 
  3 active torsions:
  status: ('A' for Active; 'I' for Inactive)
    1  A    between atoms: C_3  and  C_4
    2  A    between atoms: C_6  and  C_21
    3  A    between atoms: C_17  and  C_23
                            x       y       z     vdW  Elec       q    Type
                         _______ _______ _______ _____ _____    ______ ____

>  <TORSDO>
F 3

$$$$
=
 OpenBabel11042411213D

 25 28  0  0  1  0  0  0  0  0999 V2000
  189.9870  177.5500  140.9990 C   0  0  0  0  0  0  0  0  0  0  0  0
  189.6770  177.4050  143.4310 C   0  0  0  0  0  0  0  0  0  0  0  0
  188.6470  177.9250  140.8740 C   0  0  0  0  0  3  0  0  0  0  0  0
  190.5110  177.2870  142.2930 C   0  0  0  0  0  0  0  0  0  0  0  0
  187.8170  178.0450  141.9920 C   0  0  0  0  0  0  0  0  0  0  0  0
  191.8440  176.9180  142.4510 O   0  0  0  0  0  1  0  0  0  0  0  0
  188.3400  177.7840  143.2580 C   0  0  0  0  0  3  0  0  0  0  0  0
  183.1160  178.7800  142.5580 O   0  0  0  0  0  0  0  0  0  0  0  0
  185.9070  179.1850  140.7320 N   0  0  0  0  0  0  0  0  0  0  0  0
  184.2870  178.7760  142.1000 C   0  0  0  0  0  0  0  0  0  0  0  0
  185.4420  178.1620  142.7280 C   0  0  0  0  0  3  0  0  0  0  0  0
  184.6620  179.3830  140.8770 N   0  0  0  0  0  0  0  0  0  0  0  0
  186.4050  178.4420  141.8490 C   0  0  0  0  0  0  0  0  0  0  0  0
  190.7540  177.4520  139.6970 C   0  0  2  0  0  3  0  0  0  0  0  0
  189.8630  177.6360  138.5150 N   0  0  0  0  0  0  0  0  0  0  0  0
  188.3860  177.8350  136.5530 N   0  0  0  0  0  1  0  0  0  0  0  0
  189.0630  178.4330  137.6510 C   0  0  0  0  0  0  0  0  0  0  0  0
  190.4460  176.3300  138.9540 C   0  0  0  0  0  2  0  0  0  0  0  0
  188.9510  179.6680  137.8600 O   0  0  0  0  0  0  0  0  0  0  0  0
  190.1730  177.1070  147.1300 N   0  0  0  0  0  0  0  0  0  0  0  0
  191.3500  176.5090  146.8580 C   0  0  0  0  0  0  0  0  0  0  0  0
  191.6170  176.3910  145.2060 S   0  0  0  0  0  0  0  0  0  0  0  0
  189.5040  177.4620  146.0000 C   0  0  0  0  0  3  0  0  0  0  0  0
  192.4530  175.9310  148.0870 Cl  0  0  0  0  0  0  0  0  0  0  0  0
  190.1570  177.1420  144.8100 C   0  0  0  0  0  0  0  0  0  0  0  0
  1  4  1  0  0  0  0
  2 25  1  0  0  0  0
  3  1  2  0  0  0  0
  3  5  1  0  0  0  0
  4  6  1  0  0  0  0
  4  2  2  0  0  0  0
  5  7  2  0  0  0  0
  7  2  1  0  0  0  0
  9 12  2  0  0  0  0
  9 13  1  0  0  0  0
 10  8  2  0  0  0  0
 10 11  1  0  0  0  0
 12 10  1  0  0  0  0
 13  5  1  0  0  0  0
 13 11  2  0  0  0  0
 14  1  1  1  0  0  0
 15 18  1  0  0  0  0
 15 14  1  0  0  0  0
 16 17  1  0  0  0  0
 17 19  2  0  0  0  0
 17 15  1  0  0  0  0
 18 14  1  0  0  0  0
 21 20  2  0  0  0  0
 21 24  1  0  0  0  0
 22 21  1  0  0  0  0
 23 20  1  0  0  0  0
 25 22  1  0  0  0  0
 25 23  2  0  0  0  0
M  END
>  <MODEL>
2

>  <REMARK>
 VINA RESULT:      -8.9      4.082      7.436
  Name = 
  3 active torsions:
  status: ('A' for Active; 'I' for Inactive)
    1  A    between atoms: C_3  and  C_4
    2  A    between atoms: C_6  and  C_21
    3  A    between atoms: C_17  and  C_23
                            x       y       z     vdW  Elec       q    Type
                         _______ _______ _______ _____ _____    ______ ____

>  <TORSDO>
F 3

$$$$
=
 OpenBabel11042411213D

 25 28  0  0  1  0  0  0  0  0999 V2000
  188.6390  178.0780  140.8780 C   0  0  0  0  0  0  0  0  0  0  0  0
  189.3220  177.2930  143.1040 C   0  0  0  0  0  0  0  0  0  0  0  0
  187.3640  178.3380  141.3860 C   0  0  0  0  0  3  0  0  0  0  0  0
  189.6330  177.5500  141.7460 C   0  0  0  0  0  0  0  0  0  0  0  0
  187.0490  178.0890  142.7250 C   0  0  0  0  0  0  0  0  0  0  0  0
  190.9140  177.2870  141.2700 O   0  0  0  0  0  1  0  0  0  0  0  0
  188.0310  177.5690  143.5700 C   0  0  0  0  0  3  0  0  0  0  0  0
  183.2430  179.0960  145.4570 O   0  0  0  0  0  0  0  0  0  0  0  0
  184.5260  178.3790  142.4360 N   0  0  0  0  0  0  0  0  0  0  0  0
  183.9830  178.8200  144.4780 C   0  0  0  0  0  0  0  0  0  0  0  0
  185.4220  178.6330  144.5290 C   0  0  0  0  0  2  0  0  0  0  0  0
  183.5150  178.6460  143.1540 N   0  0  0  0  0  2  0  0  0  0  0  0
  185.7010  178.3660  143.2520 C   0  0  0  0  0  0  0  0  0  0  0  0
  188.8220  178.3880  139.4080 C   0  0  2  0  0  3  0  0  0  0  0  0
  187.6570  177.9330  138.5960 N   0  0  0  0  0  0  0  0  0  0  0  0
  185.7840  177.0930  137.2320 N   0  0  0  0  0  1  0  0  0  0  0  0
  186.3090  178.0390  138.1550 C   0  0  0  0  0  0  0  0  0  0  0  0
  188.9960  177.2670  138.6200 C   0  0  0  0  0  2  0  0  0  0  0  0
  185.5780  178.9680  138.5860 O   0  0  0  0  0  0  0  0  0  0  0  0
  192.1020  175.4980  144.8530 N   0  0  0  0  0  0  0  0  0  0  0  0
  191.6960  176.1080  145.9850 C   0  0  0  0  0  0  0  0  0  0  0  0
  190.3740  177.1020  145.7110 S   0  0  0  0  0  0  0  0  0  0  0  0
  191.3390  175.8430  143.7810 C   0  0  0  0  0  3  0  0  0  0  0  0
  192.4640  175.8790  147.5400 Cl  0  0  0  0  0  0  0  0  0  0  0  0
  190.3100  176.7410  144.0630 C   0  0  0  0  0  0  0  0  0  0  0  0
  1  3  2  0  0  0  0
  1  4  1  0  0  0  0
  2  7  1  0  0  0  0
  2 25  1  0  0  0  0
  3  5  1  0  0  0  0
  4  2  2  0  0  0  0
  5 13  1  0  0  0  0
  5  7  2  0  0  0  0
  6  4  1  0  0  0  0
  9 12  1  0  0  0  0
  9 13  2  0  0  0  0
 10 11  1  0  0  0  0
 10  8  2  0  0  0  0
 12 10  1  0  0  0  0
 13 11  1  0  0  0  0
 14  1  1  1  0  0  0
 15 18  1  0  0  0  0
 15 14  1  0  0  0  0
 16 17  1  0  0  0  0
 17 19  2  0  0  0  0
 17 15  1  0  0  0  0
 18 14  1  0  0  0  0
 20 21  2  0  0  0  0
 21 24  1  0  0  0  0
 22 21  1  0  0  0  0
 23 25  2  0  0  0  0
 23 20  1  0  0  0  0
 25 22  1  0  0  0  0
M  END
>  <MODEL>
3

>  <REMARK>
 VINA RESULT:      -8.9      3.959      7.841
  Name = 
  3 active torsions:
  status: ('A' for Active; 'I' for Inactive)
    1  A    between atoms: C_3  and  C_4
    2  A    between atoms: C_6  and  C_21
    3  A    between atoms: C_17  and  C_23
                            x       y       z     vdW  Elec       q    Type
                         _______ _______ _______ _____ _____    ______ ____

>  <TORSDO>
F 3

$$$$
=
 OpenBabel11042411213D

 25 28  0  0  1  0  0  0  0  0999 V2000
  188.3440  178.2990  140.7030 C   0  0  0  0  0  0  0  0  0  0  0  0
  186.7510  178.2760  142.5730 C   0  0  0  0  0  0  0  0  0  0  0  0
  189.3270  177.8090  141.5660 C   0  0  0  0  0  3  0  0  0  0  0  0
  187.0370  178.5350  141.2110 C   0  0  0  0  0  0  0  0  0  0  0  0
  189.0530  177.5500  142.9110 C   0  0  0  0  0  0  0  0  0  0  0  0
  186.0340  179.0160  140.3740 O   0  0  0  0  0  1  0  0  0  0  0  0
  187.7680  177.7860  143.4010 C   0  0  0  0  0  3  0  0  0  0  0  0
  191.9880  176.6510  146.5900 O   0  0  0  0  0  0  0  0  0  0  0  0
  191.0230  176.0090  143.4370 N   0  0  0  0  0  0  0  0  0  0  0  0
  191.4230  176.6240  145.4680 C   0  0  0  0  0  0  0  0  0  0  0  0
  190.3010  177.4520  145.0630 C   0  0  0  0  0  2  0  0  0  0  0  0
  191.8030  175.7660  144.4080 N   0  0  0  0  0  2  0  0  0  0  0  0
  190.0970  177.0330  143.8130 C   0  0  0  0  0  0  0  0  0  0  0  0
  188.7960  178.5410  139.2790 C   0  0  2  0  0  3  0  0  0  0  0  0
  188.3710  177.4390  138.3680 N   0  0  0  0  0  0  0  0  0  0  0  0
  187.7630  175.5760  136.8740 N   0  0  0  0  0  1  0  0  0  0  0  0
  187.3890  176.7210  137.6300 C   0  0  0  0  0  0  0  0  0  0  0  0
  189.7700  177.6620  138.8480 C   0  0  0  0  0  2  0  0  0  0  0  0
  186.1890  177.0970  137.6490 O   0  0  0  0  0  0  0  0  0  0  0  0
  183.8080  179.0030  144.7700 N   0  0  0  0  0  0  0  0  0  0  0  0
  183.0300  178.7670  143.6940 C   0  0  0  0  0  0  0  0  0  0  0  0
  183.9440  178.3700  142.3460 S   0  0  0  0  0  0  0  0  0  0  0  0
  185.1310  178.8590  144.4890 C   0  0  0  0  0  3  0  0  0  0  0  0
  181.2830  178.8670  143.7190 Cl  0  0  0  0  0  0  0  0  0  0  0  0
  185.4110  178.5030  143.1700 C   0  0  0  0  0  0  0  0  0  0  0  0
  1  4  2  0  0  0  0
  1  3  1  0  0  0  0
  2 25  1  0  0  0  0
  2  7  2  0  0  0  0
  3  5  2  0  0  0  0
  4  2  1  0  0  0  0
  5  7  1  0  0  0  0
  5 13  1  0  0  0  0
  6  4  1  0  0  0  0
  9 13  2  0  0  0  0
  9 12  1  0  0  0  0
 10  8  2  0  0  0  0
 11 10  1  0  0  0  0
 12 10  1  0  0  0  0
 13 11  1  0  0  0  0
 14  1  1  1  0  0  0
 15 18  1  0  0  0  0
 15 14  1  0  0  0  0
 16 17  1  0  0  0  0
 17 19  2  0  0  0  0
 17 15  1  0  0  0  0
 18 14  1  0  0  0  0
 21 24  1  0  0  0  0
 21 20  2  0  0  0  0
 22 25  1  0  0  0  0
 22 21  1  0  0  0  0
 23 20  1  0  0  0  0
 25 23  2  0  0  0  0
M  END
>  <MODEL>
4

>  <REMARK>
 VINA RESULT:      -8.9      2.394      5.618
  Name = 
  3 active torsions:
  status: ('A' for Active; 'I' for Inactive)
    1  A    between atoms: C_3  and  C_4
    2  A    between atoms: C_6  and  C_21
    3  A    between atoms: C_17  and  C_23
                            x       y       z     vdW  Elec       q    Type
                         _______ _______ _______ _____ _____    ______ ____

>  <TORSDO>
F 3

$$$$
=
 OpenBabel11042411213D

 25 28  0  0  1  0  0  0  0  0999 V2000
  187.8330  177.2950  144.3520 C   0  0  0  0  0  0  0  0  0  0  0  0
  189.0160  177.4650  142.2050 C   0  0  0  0  0  0  0  0  0  0  0  0
  186.6680  177.7340  143.7190 C   0  0  0  0  0  3  0  0  0  0  0  0
  189.0240  177.1560  143.5880 C   0  0  0  0  0  0  0  0  0  0  0  0
  186.6520  178.0380  142.3550 C   0  0  0  0  0  0  0  0  0  0  0  0
  190.1990  176.7150  144.1890 O   0  0  0  0  0  1  0  0  0  0  0  0
  187.8240  177.9010  141.6130 C   0  0  0  0  0  3  0  0  0  0  0  0
  182.1210  178.9310  141.0740 O   0  0  0  0  0  0  0  0  0  0  0  0
  185.4120  179.3240  140.5260 N   0  0  0  0  0  0  0  0  0  0  0  0
  183.3770  178.9060  141.1150 C   0  0  0  0  0  0  0  0  0  0  0  0
  184.1800  178.2090  142.1040 C   0  0  0  0  0  3  0  0  0  0  0  0
  184.2140  179.5650  140.1830 N   0  0  0  0  0  0  0  0  0  0  0  0
  185.4170  178.5000  141.6960 C   0  0  0  0  0  0  0  0  0  0  0  0
  187.6970  177.0160  145.8340 C   0  0  2  0  0  3  0  0  0  0  0  0
  186.9780  178.1160  146.5400 N   0  0  0  0  0  0  0  0  0  0  0  0
  185.8830  179.9730  147.7330 N   0  0  0  0  0  1  0  0  0  0  0  0
  185.8040  178.8520  146.8620 C   0  0  0  0  0  0  0  0  0  0  0  0
  188.4490  177.8570  146.6300 C   0  0  0  0  0  2  0  0  0  0  0  0
  184.6960  178.5140  146.3730 O   0  0  0  0  0  0  0  0  0  0  0  0
  192.4540  177.4430  140.7240 N   0  0  0  0  0  0  0  0  0  0  0  0
  191.8890  176.9920  139.5860 C   0  0  0  0  0  0  0  0  0  0  0  0
  190.2290  176.8190  139.7450 S   0  0  0  0  0  0  0  0  0  0  0  0
  191.5360  177.6420  141.7090 C   0  0  0  0  0  3  0  0  0  0  0  0
  192.7920  176.6360  138.1300 Cl  0  0  0  0  0  0  0  0  0  0  0  0
  190.2220  177.3460  141.3490 C   0  0  0  0  0  0  0  0  0  0  0  0
  2  4  1  0  0  0  0
  3  1  1  0  0  0  0
  4  6  1  0  0  0  0
  4  1  2  0  0  0  0
  5  3  2  0  0  0  0
  7  2  2  0  0  0  0
  7  5  1  0  0  0  0
  8 10  2  0  0  0  0
  9 13  1  0  0  0  0
 10 11  1  0  0  0  0
 12  9  2  0  0  0  0
 12 10  1  0  0  0  0
 13 11  2  0  0  0  0
 13  5  1  0  0  0  0
 14  1  1  6  0  0  0
 14 15  1  0  0  0  0
 14 18  1  0  0  0  0
 15 18  1  0  0  0  0
 15 17  1  0  0  0  0
 17 16  1  0  0  0  0
 19 17  2  0  0  0  0
 20 23  1  0  0  0  0
 21 22  1  0  0  0  0
 21 20  2  0  0  0  0
 22 25  1  0  0  0  0
 24 21  1  0  0  0  0
 25 23  2  0  0  0  0
 25  2  1  0  0  0  0
M  END
>  <MODEL>
5

>  <REMARK>
 VINA RESULT:      -8.8      3.892      6.414
  Name = 
  3 active torsions:
  status: ('A' for Active; 'I' for Inactive)
    1  A    between atoms: C_3  and  C_4
    2  A    between atoms: C_6  and  C_21
    3  A    between atoms: C_17  and  C_23
                            x       y       z     vdW  Elec       q    Type
                         _______ _______ _______ _____ _____    ______ ____

>  <TORSDO>
F 3

$$$$
=
 OpenBabel11042411213D

 25 28  0  0  1  0  0  0  0  0999 V2000
  189.2340  176.9590  144.3900 C   0  0  0  0  0  0  0  0  0  0  0  0
  188.6850  177.4720  142.0510 C   0  0  0  0  0  0  0  0  0  0  0  0
  187.9510  177.3710  144.7570 C   0  0  0  0  0  3  0  0  0  0  0  0
  189.6080  177.0090  143.0190 C   0  0  0  0  0  0  0  0  0  0  0  0
  187.0330  177.8280  143.8070 C   0  0  0  0  0  0  0  0  0  0  0  0
  190.8780  176.6000  142.6210 O   0  0  0  0  0  1  0  0  0  0  0  0
  187.4090  177.8740  142.4650 C   0  0  0  0  0  3  0  0  0  0  0  0
  182.3860  178.9850  143.9790 O   0  0  0  0  0  0  0  0  0  0  0  0
  185.3530  178.6950  145.5280 N   0  0  0  0  0  0  0  0  0  0  0  0
  183.5870  178.7810  144.2880 C   0  0  0  0  0  0  0  0  0  0  0  0
  184.6220  178.2930  143.3940 C   0  0  0  0  0  3  0  0  0  0  0  0
  184.1230  179.0030  145.5790 N   0  0  0  0  0  0  0  0  0  0  0  0
  185.6810  178.2590  144.2050 C   0  0  0  0  0  0  0  0  0  0  0  0
  190.1160  176.5020  145.5310 C   0  0  2  0  0  3  0  0  0  0  0  0
  189.8270  177.2510  146.7880 N   0  0  0  0  0  0  0  0  0  0  0  0
  189.4300  178.5510  148.8440 N   0  0  0  0  0  1  0  0  0  0  0  0
  189.0170  177.5550  147.9170 C   0  0  0  0  0  0  0  0  0  0  0  0
  191.0390  177.4470  145.9340 C   0  0  0  0  0  2  0  0  0  0  0  0
  187.9300  176.9460  148.0930 O   0  0  0  0  0  0  0  0  0  0  0  0
  190.2020  177.2820  138.6340 N   0  0  0  0  0  0  0  0  0  0  0  0
  189.1030  177.9180  138.1820 C   0  0  0  0  0  0  0  0  0  0  0  0
  188.0270  178.2530  139.4240 S   0  0  0  0  0  0  0  0  0  0  0  0
  190.1600  177.0750  139.9780 C   0  0  0  0  0  3  0  0  0  0  0  0
  188.8450  178.3360  136.5020 Cl  0  0  0  0  0  0  0  0  0  0  0  0
  189.0100  177.5520  140.6050 C   0  0  0  0  0  0  0  0  0  0  0  0
  1  3  1  0  0  0  0
  2  7  2  0  0  0  0
  2  4  1  0  0  0  0
  4  1  2  0  0  0  0
  5 13  1  0  0  0  0
  5  3  2  0  0  0  0
  6  4  1  0  0  0  0
  7  5  1  0  0  0  0
  8 10  2  0  0  0  0
  9 12  2  0  0  0  0
 10 12  1  0  0  0  0
 11 13  2  0  0  0  0
 11 10  1  0  0  0  0
 13  9  1  0  0  0  0
 14  1  1  6  0  0  0
 14 18  1  0  0  0  0
 14 15  1  0  0  0  0
 15 17  1  0  0  0  0
 17 19  2  0  0  0  0
 17 16  1  0  0  0  0
 18 15  1  0  0  0  0
 20 23  1  0  0  0  0
 21 20  2  0  0  0  0
 21 22  1  0  0  0  0
 22 25  1  0  0  0  0
 23 25  2  0  0  0  0
 24 21  1  0  0  0  0
 25  2  1  0  0  0  0
M  END
>  <MODEL>
6

>  <REMARK>
 VINA RESULT:      -8.8      2.869      5.775
  Name = 
  3 active torsions:
  status: ('A' for Active; 'I' for Inactive)
    1  A    between atoms: C_3  and  C_4
    2  A    between atoms: C_6  and  C_21
    3  A    between atoms: C_17  and  C_23
                            x       y       z     vdW  Elec       q    Type
                         _______ _______ _______ _____ _____    ______ ____

>  <TORSDO>
F 3

$$$$
=
 OpenBabel11042411213D

 25 28  0  0  1  0  0  0  0  0999 V2000
  189.6380  177.0780  143.7540 C   0  0  0  0  0  0  0  0  0  0  0  0
  188.9900  177.5110  141.4240 C   0  0  0  0  0  0  0  0  0  0  0  0
  188.3440  177.4220  144.1540 C   0  0  0  0  0  3  0  0  0  0  0  0
  189.9670  177.1210  142.3720 C   0  0  0  0  0  0  0  0  0  0  0  0
  187.3730  177.8060  143.2240 C   0  0  0  0  0  0  0  0  0  0  0  0
  191.2460  176.7780  141.9430 O   0  0  0  0  0  1  0  0  0  0  0  0
  187.7060  177.8470  141.8700 C   0  0  0  0  0  3  0  0  0  0  0  0
  183.4430  179.0040  145.6900 O   0  0  0  0  0  0  0  0  0  0  0  0
  184.9100  178.2980  142.7520 N   0  0  0  0  0  0  0  0  0  0  0  0
  184.2370  178.7070  144.7620 C   0  0  0  0  0  0  0  0  0  0  0  0
  185.6490  178.4100  144.9170 C   0  0  0  0  0  3  0  0  0  0  0  0
  183.8660  178.6160  143.3990 N   0  0  0  0  0  0  0  0  0  0  0  0
  186.0110  178.1670  143.6560 C   0  0  0  0  0  0  0  0  0  0  0  0
  190.5790  176.6960  144.8760 C   0  0  2  0  0  3  0  0  0  0  0  0
  190.1320  177.2500  146.1870 N   0  0  0  0  0  0  0  0  0  0  0  0
  189.4600  178.2460  148.3380 N   0  0  0  0  0  1  0  0  0  0  0  0
  189.2630  177.2820  147.3130 C   0  0  0  0  0  0  0  0  0  0  0  0
  191.2920  177.7600  145.3920 C   0  0  0  0  0  2  0  0  0  0  0  0
  188.3160  176.4580  147.3990 O   0  0  0  0  0  0  0  0  0  0  0  0
  189.3190  178.4320  137.8110 N   0  0  0  0  0  0  0  0  0  0  0  0
  189.9230  177.2400  137.6300 C   0  0  0  0  0  0  0  0  0  0  0  0
  190.0290  176.3760  139.0640 S   0  0  0  0  0  0  0  0  0  0  0  0
  188.9510  178.6300  139.1050 C   0  0  0  0  0  3  0  0  0  0  0  0
  190.5170  176.6780  136.0830 Cl  0  0  0  0  0  0  0  0  0  0  0  0
  189.2660  177.5800  139.9680 C   0  0  0  0  0  0  0  0  0  0  0  0
  1  3  1  0  0  0  0
  2  7  2  0  0  0  0
  2  4  1  0  0  0  0
  4  1  2  0  0  0  0
  5 13  1  0  0  0  0
  5  3  2  0  0  0  0
  6  4  1  0  0  0  0
  7  5  1  0  0  0  0
  9 12  2  0  0  0  0
  9 13  1  0  0  0  0
 10 11  1  0  0  0  0
 10  8  2  0  0  0  0
 12 10  1  0  0  0  0
 13 11  2  0  0  0  0
 14  1  1  6  0  0  0
 14 18  1  0  0  0  0
 14 15  1  0  0  0  0
 15 17  1  0  0  0  0
 17 19  2  0  0  0  0
 17 16  1  0  0  0  0
 18 15  1  0  0  0  0
 20 23  1  0  0  0  0
 21 20  2  0  0  0  0
 21 22  1  0  0  0  0
 22 25  1  0  0  0  0
 23 25  2  0  0  0  0
 24 21  1  0  0  0  0
 25  2  1  0  0  0  0
M  END
>  <MODEL>
7

>  <REMARK>
 VINA RESULT:      -8.7      3.364      6.045
  Name = 
  3 active torsions:
  status: ('A' for Active; 'I' for Inactive)
    1  A    between atoms: C_3  and  C_4
    2  A    between atoms: C_6  and  C_21
    3  A    between atoms: C_17  and  C_23
                            x       y       z     vdW  Elec       q    Type
                         _______ _______ _______ _____ _____    ______ ____

>  <TORSDO>
F 3

$$$$
=
 OpenBabel11042411213D

 25 28  0  0  1  0  0  0  0  0999 V2000
  189.4950  177.9210  141.3390 C   0  0  0  0  0  0  0  0  0  0  0  0
  187.3430  178.0220  142.5190 C   0  0  0  0  0  0  0  0  0  0  0  0
  190.1120  177.5730  142.5430 C   0  0  0  0  0  3  0  0  0  0  0  0
  188.0920  178.1480  141.3240 C   0  0  0  0  0  0  0  0  0  0  0  0
  189.3800  177.4440  143.7260 C   0  0  0  0  0  0  0  0  0  0  0  0
  187.4480  178.4910  140.1380 O   0  0  0  0  0  1  0  0  0  0  0  0
  188.0030  177.6700  143.7020 C   0  0  0  0  0  3  0  0  0  0  0  0
  192.4710  176.1380  147.1470 O   0  0  0  0  0  0  0  0  0  0  0  0
  189.3580  177.0260  146.2480 N   0  0  0  0  0  0  0  0  0  0  0  0
  191.4290  176.4880  146.5360 C   0  0  0  0  0  0  0  0  0  0  0  0
  191.3280  176.7500  145.1120 C   0  0  0  0  0  3  0  0  0  0  0  0
  190.1720  176.6810  147.1580 N   0  0  0  0  0  0  0  0  0  0  0  0
  190.0400  177.0760  144.9900 C   0  0  0  0  0  0  0  0  0  0  0  0
  190.4220  178.0330  140.1470 C   0  0  2  0  0  3  0  0  0  0  0  0
  190.3780  176.8090  139.2960 N   0  0  0  0  0  0  0  0  0  0  0  0
  190.3900  174.7530  137.9370 N   0  0  0  0  0  1  0  0  0  0  0  0
  189.7430  175.9480  138.3580 C   0  0  0  0  0  0  0  0  0  0  0  0
  191.5060  177.1800  140.2040 C   0  0  0  0  0  2  0  0  0  0  0  0
  188.6070  176.2410  137.9040 O   0  0  0  0  0  0  0  0  0  0  0  0
  183.6970  178.5210  141.8320 N   0  0  0  0  0  0  0  0  0  0  0  0
  183.5300  178.6470  143.1640 C   0  0  0  0  0  0  0  0  0  0  0  0
  184.9830  178.4890  143.9870 S   0  0  0  0  0  0  0  0  0  0  0  0
  184.9960  178.2990  141.4950 C   0  0  0  0  0  3  0  0  0  0  0  0
  181.9820  178.9390  143.9260 Cl  0  0  0  0  0  0  0  0  0  0  0  0
  185.8770  178.2470  142.5750 C   0  0  0  0  0  0  0  0  0  0  0  0
  1  3  1  0  0  0  0
  2 25  1  0  0  0  0
  2  7  2  0  0  0  0
  3  5  2  0  0  0  0
  4  1  2  0  0  0  0
  4  2  1  0  0  0  0
  5 13  1  0  0  0  0
  6  4  1  0  0  0  0
  7  5  1  0  0  0  0
  9 12  2  0  0  0  0
 10  8  2  0  0  0  0
 10 12  1  0  0  0  0
 11 10  1  0  0  0  0
 13 11  2  0  0  0  0
 13  9  1  0  0  0  0
 14 18  1  0  0  0  0
 14  1  1  1  0  0  0
 15 14  1  0  0  0  0
 15 18  1  0  0  0  0
 16 17  1  0  0  0  0
 17 15  1  0  0  0  0
 19 17  2  0  0  0  0
 20 21  2  0  0  0  0
 21 24  1  0  0  0  0
 21 22  1  0  0  0  0
 23 20  1  0  0  0  0
 23 25  2  0  0  0  0
 25 22  1  0  0  0  0
M  END
>  <MODEL>
8

>  <REMARK>
 VINA RESULT:      -8.6      2.329      5.519
  Name = 
  3 active torsions:
  status: ('A' for Active; 'I' for Inactive)
    1  A    between atoms: C_3  and  C_4
    2  A    between atoms: C_6  and  C_21
    3  A    between atoms: C_17  and  C_23
                            x       y       z     vdW  Elec       q    Type
                         _______ _______ _______ _____ _____    ______ ____

>  <TORSDO>
F 3

$$$$
=
 OpenBabel11042411213D

 25 28  0  0  1  0  0  0  0  0999 V2000
  188.3490  177.9520  145.7360 C   0  0  0  0  0  0  0  0  0  0  0  0
  188.3490  177.6530  143.2980 C   0  0  0  0  0  0  0  0  0  0  0  0
  186.9810  178.2290  145.6790 C   0  0  0  0  0  3  0  0  0  0  0  0
  189.0440  177.6590  144.5320 C   0  0  0  0  0  0  0  0  0  0  0  0
  186.2870  178.2240  144.4660 C   0  0  0  0  0  0  0  0  0  0  0  0
  190.4060  177.3730  144.5580 O   0  0  0  0  0  1  0  0  0  0  0  0
  186.9780  177.9360  143.2880 C   0  0  0  0  0  3  0  0  0  0  0  0
  181.7310  178.9330  143.1620 O   0  0  0  0  0  0  0  0  0  0  0  0
  184.0790  178.8930  145.5640 N   0  0  0  0  0  0  0  0  0  0  0  0
  182.7890  178.8370  143.8340 C   0  0  0  0  0  0  0  0  0  0  0  0
  184.0930  178.4670  143.3140 C   0  0  0  0  0  3  0  0  0  0  0  0
  182.8700  179.0820  145.2250 N   0  0  0  0  0  0  0  0  0  0  0  0
  184.8440  178.5170  144.4160 C   0  0  0  0  0  0  0  0  0  0  0  0
  188.9610  178.0070  147.1200 C   0  0  2  0  0  3  0  0  0  0  0  0
  189.9800  176.9360  147.3170 N   0  0  0  0  0  0  0  0  0  0  0  0
  191.5900  175.1090  147.6910 N   0  0  0  0  0  1  0  0  0  0  0  0
  191.2570  176.3540  147.0890 C   0  0  0  0  0  0  0  0  0  0  0  0
  188.6130  176.9410  147.9250 C   0  0  0  0  0  2  0  0  0  0  0  0
  192.0910  176.9370  146.3500 O   0  0  0  0  0  0  0  0  0  0  0  0
  190.4760  176.3820  140.4920 N   0  0  0  0  0  0  0  0  0  0  0  0
  189.7900  177.2130  139.6820 C   0  0  0  0  0  0  0  0  0  0  0  0
  188.6260  178.0780  140.5260 S   0  0  0  0  0  0  0  0  0  0  0  0
  190.0520  176.4550  141.7820 C   0  0  0  0  0  3  0  0  0  0  0  0
  190.0880  177.3610  137.9640 Cl  0  0  0  0  0  0  0  0  0  0  0  0
  189.0130  177.3590  142.0040 C   0  0  0  0  0  0  0  0  0  0  0  0
  2  4  1  0  0  0  0
  3  1  1  0  0  0  0
  4  6  1  0  0  0  0
  4  1  2  0  0  0  0
  5  3  2  0  0  0  0
  7  2  2  0  0  0  0
  7  5  1  0  0  0  0
  8 10  2  0  0  0  0
 10 12  1  0  0  0  0
 11 10  1  0  0  0  0
 11 13  2  0  0  0  0
 12  9  2  0  0  0  0
 13  5  1  0  0  0  0
 13  9  1  0  0  0  0
 14  1  1  6  0  0  0
 14 15  1  0  0  0  0
 14 18  1  0  0  0  0
 15 18  1  0  0  0  0
 17 15  1  0  0  0  0
 17 16  1  0  0  0  0
 19 17  2  0  0  0  0
 20 23  1  0  0  0  0
 21 20  2  0  0  0  0
 21 22  1  0  0  0  0
 22 25  1  0  0  0  0
 23 25  2  0  0  0  0
 24 21  1  0  0  0  0
 25  2  1  0  0  0  0
M  END
>  <MODEL>
9

>  <REMARK>
 VINA RESULT:      -8.6      2.808      5.563
  Name = 
  3 active torsions:
  status: ('A' for Active; 'I' for Inactive)
    1  A    between atoms: C_3  and  C_4
    2  A    between atoms: C_6  and  C_21
    3  A    between atoms: C_17  and  C_23
                            x       y       z     vdW  Elec       q    Type
                         _______ _______ _______ _____ _____    ______ ____

>  <TORSDO>
F 3

$$$$
