=
 OpenBabel11042411003D

 29 31  0  0  1  0  0  0  0  0999 V2000
  185.9570  178.7880  141.1000 N   0  0  0  0  0  2  0  0  0  0  0  0
  185.3980  178.1080  142.2580 C   0  0  1  0  0  3  0  0  0  0  0  0
  186.5130  177.6740  143.1940 C   0  0  0  0  0  2  0  0  0  0  0  0
  184.5170  179.0670  143.0340 C   0  0  0  0  0  2  0  0  0  0  0  0
  186.3020  178.4190  144.4990 C   0  0  1  0  0  3  0  0  0  0  0  0
  184.8560  178.8530  144.4920 C   0  0  0  0  0  2  0  0  0  0  0  0
  186.5660  177.5120  145.6850 C   0  0  0  0  0  2  0  0  0  0  0  0
  186.4000  178.4410  147.2380 S   0  0  0  0  0  0  0  0  0  0  0  0
  188.2960  177.9510  148.9820 O   0  0  0  0  0  0  0  0  0  0  0  0
  188.0380  177.9700  147.7890 C   0  0  0  0  0  0  0  0  0  0  0  0
  189.0900  177.6200  146.7920 C   0  0  0  0  0  2  0  0  0  0  0  0
  192.3300  175.6510  147.5590 C   0  0  0  0  0  1  0  0  0  0  0  0
  191.3840  176.5870  146.8970 C   0  0  0  0  0  0  0  0  0  0  0  0
  191.7660  177.2620  145.9040 O   0  0  0  0  0  0  0  0  0  0  0  0
  190.0520  176.7120  147.3940 N   0  0  0  0  0  2  0  0  0  0  0  0
  183.4890  180.2930  138.9440 O   0  0  0  0  0  0  0  0  0  0  0  0
  184.1770  179.3710  139.4550 C   0  0  0  0  0  0  0  0  0  0  0  0
  184.9760  179.6650  140.6090 N   0  0  0  0  0  2  0  0  0  0  0  0
  181.8750  175.8170  137.8240 C   0  0  1  0  0  3  0  0  0  0  0  0
  182.0710  177.2500  139.7210 N   0  0  0  0  0  2  0  0  0  0  0  0
  181.1440  176.3420  139.0680 C   0  0  0  0  0  2  0  0  0  0  0  0
  183.3580  176.0040  138.1170 C   0  0  2  0  0  3  0  0  0  0  0  0
  184.1680  178.0330  138.8280 C   0  0  2  0  0  3  0  0  0  0  0  0
  184.7910  177.7390  137.5090 C   0  0  2  0  0  3  0  0  0  0  0  0
  183.3400  177.0540  139.1270 C   0  0  1  0  0  3  0  0  0  0  0  0
  181.5120  174.0920  137.5850 Cl  0  0  0  0  0  0  0  0  0  0  0  0
  184.0850  176.5650  136.9770 N   0  0  0  0  0  2  0  0  0  0  0  0
  186.2170  177.4340  137.6750 C   0  0  0  0  0  0  0  0  0  0  0  0
  187.3420  177.1930  137.8060 N   0  0  0  0  0  0  0  0  0  0  0  0
  2  1  1  6  0  0  0
  2  4  1  0  0  0  0
  2  3  1  0  0  0  0
  3  5  1  0  0  0  0
  4  6  1  0  0  0  0
  5  7  1  1  0  0  0
  6  5  1  0  0  0  0
  7  8  1  0  0  0  0
  8 10  1  0  0  0  0
 10  9  2  0  0  0  0
 11 15  1  0  0  0  0
 11 10  1  0  0  0  0
 13 15  1  0  0  0  0
 13 12  1  0  0  0  0
 14 13  2  0  0  0  0
 16 17  2  0  0  0  0
 17 18  1  0  0  0  0
 18  1  1  0  0  0  0
 19 26  1  1  0  0  0
 19 22  1  0  0  0  0
 19 21  1  0  0  0  0
 21 20  1  0  0  0  0
 22 27  1  6  0  0  0
 22 25  1  0  0  0  0
 23 25  1  0  0  0  0
 23 17  1  6  0  0  0
 24 28  1  1  0  0  0
 24 23  1  0  0  0  0
 25 20  1  6  0  0  0
 27 24  1  0  0  0  0
 28 29  3  0  0  0  0
M  END
>  <MODEL>
1

>  <REMARK>
 VINA RESULT:      -7.2      0.000      0.000
  Name = 
  9 active torsions:
  status: ('A' for Active; 'I' for Inactive)
    1  A    between atoms: C_1  and  N_12
    2  A    between atoms: C_7  and  C_16
    3  A    between atoms: C_11  and  C_20
    4  A    between atoms: C_11  and  S_21
    5  A    between atoms: N_12  and  N_29
    6  A    between atoms: C_13  and  C_18
    7  A    between atoms: C_14  and  S_21
    8  A    between atoms: C_14  and  C_25
    9  A    between atoms: N_24  and  C_25
                            x       y       z     vdW  Elec       q    Type
                         _______ _______ _______ _____ _____    ______ ____

>  <TORSDO>
F 9

$$$$
=
 OpenBabel11042411003D

 29 31  0  0  1  0  0  0  0  0999 V2000
  185.7870  178.2500  141.2480 N   0  0  0  0  0  2  0  0  0  0  0  0
  187.0700  178.5160  141.8800 C   0  0  1  0  0  3  0  0  0  0  0  0
  187.2310  177.6460  143.1150 C   0  0  0  0  0  2  0  0  0  0  0  0
  188.1910  178.1440  140.9290 C   0  0  0  0  0  2  0  0  0  0  0  0
  188.4190  176.7380  142.8580 C   0  0  1  0  0  3  0  0  0  0  0  0
  189.2140  177.4070  141.7630 C   0  0  0  0  0  2  0  0  0  0  0  0
  189.2690  176.6000  144.1060 C   0  0  0  0  0  2  0  0  0  0  0  0
  189.2570  178.1520  145.0520 S   0  0  0  0  0  0  0  0  0  0  0  0
  189.7710  176.4990  147.0220 O   0  0  0  0  0  0  0  0  0  0  0  0
  188.9540  177.3010  146.5990 C   0  0  0  0  0  0  0  0  0  0  0  0
  187.6990  177.5590  147.3610 C   0  0  0  0  0  2  0  0  0  0  0  0
  184.5230  178.7610  145.5080 C   0  0  0  0  0  1  0  0  0  0  0  0
  185.6470  178.7240  146.4790 C   0  0  0  0  0  0  0  0  0  0  0  0
  185.7700  179.6470  147.3270 O   0  0  0  0  0  0  0  0  0  0  0  0
  186.5760  177.6410  146.4420 N   0  0  0  0  0  2  0  0  0  0  0  0
  184.1430  180.4980  138.9570 O   0  0  0  0  0  0  0  0  0  0  0  0
  184.2970  179.4670  139.6630 C   0  0  0  0  0  0  0  0  0  0  0  0
  185.3820  179.4270  140.6000 N   0  0  0  0  0  2  0  0  0  0  0  0
  180.2480  177.5290  140.3290 C   0  0  1  0  0  3  0  0  0  0  0  0
  182.0430  178.6250  141.4560 N   0  0  0  0  0  2  0  0  0  0  0  0
  180.6340  178.3010  141.5990 C   0  0  0  0  0  2  0  0  0  0  0  0
  181.5550  176.9650  139.7870 C   0  0  2  0  0  3  0  0  0  0  0  0
  183.3810  178.3220  139.4750 C   0  0  2  0  0  3  0  0  0  0  0  0
  182.9740  177.8060  138.1400 C   0  0  2  0  0  3  0  0  0  0  0  0
  182.5420  177.8590  140.3770 C   0  0  1  0  0  3  0  0  0  0  0  0
  179.1320  176.2050  140.7350 Cl  0  0  0  0  0  0  0  0  0  0  0  0
  181.6790  177.1400  138.3380 N   0  0  0  0  0  2  0  0  0  0  0  0
  183.9630  176.8430  137.6410 C   0  0  0  0  0  0  0  0  0  0  0  0
  184.7420  176.0840  137.2480 N   0  0  0  0  0  0  0  0  0  0  0  0
  2  1  1  6  0  0  0
  2  3  1  0  0  0  0
  4  6  1  0  0  0  0
  4  2  1  0  0  0  0
  5  3  1  0  0  0  0
  5  7  1  1  0  0  0
  6  5  1  0  0  0  0
  7  8  1  0  0  0  0
  8 10  1  0  0  0  0
 10  9  2  0  0  0  0
 10 11  1  0  0  0  0
 12 13  1  0  0  0  0
 13 14  2  0  0  0  0
 15 13  1  0  0  0  0
 15 11  1  0  0  0  0
 16 17  2  0  0  0  0
 17 18  1  0  0  0  0
 18  1  1  0  0  0  0
 19 26  1  1  0  0  0
 19 21  1  0  0  0  0
 20 21  1  0  0  0  0
 22 27  1  6  0  0  0
 22 19  1  0  0  0  0
 22 25  1  0  0  0  0
 23 17  1  6  0  0  0
 23 25  1  0  0  0  0
 24 28  1  1  0  0  0
 24 27  1  0  0  0  0
 24 23  1  0  0  0  0
 25 20  1  6  0  0  0
 29 28  3  0  0  0  0
M  END
>  <MODEL>
2

>  <REMARK>
 VINA RESULT:      -7.1      2.152      3.486
  Name = 
  9 active torsions:
  status: ('A' for Active; 'I' for Inactive)
    1  A    between atoms: C_1  and  N_12
    2  A    between atoms: C_7  and  C_16
    3  A    between atoms: C_11  and  C_20
    4  A    between atoms: C_11  and  S_21
    5  A    between atoms: N_12  and  N_29
    6  A    between atoms: C_13  and  C_18
    7  A    between atoms: C_14  and  S_21
    8  A    between atoms: C_14  and  C_25
    9  A    between atoms: N_24  and  C_25
                            x       y       z     vdW  Elec       q    Type
                         _______ _______ _______ _____ _____    ______ ____

>  <TORSDO>
F 9

$$$$
=
 OpenBabel11042411003D

 29 31  0  0  1  0  0  0  0  0999 V2000
  188.4130  177.4090  139.6100 N   0  0  0  0  0  2  0  0  0  0  0  0
  189.1510  177.8570  140.7810 C   0  0  1  0  0  3  0  0  0  0  0  0
  188.6520  177.1310  142.0190 C   0  0  0  0  0  2  0  0  0  0  0  0
  190.6170  177.5040  140.6220 C   0  0  0  0  0  2  0  0  0  0  0  0
  189.8190  176.3210  142.5500 C   0  0  1  0  0  3  0  0  0  0  0  0
  191.0560  176.9530  141.9600 C   0  0  0  0  0  2  0  0  0  0  0  0
  189.8740  176.3870  144.0640 C   0  0  0  0  0  2  0  0  0  0  0  0
  189.5500  178.0830  144.6330 S   0  0  0  0  0  0  0  0  0  0  0  0
  190.0660  177.0210  146.9750 O   0  0  0  0  0  0  0  0  0  0  0  0
  189.1900  177.5410  146.3010 C   0  0  0  0  0  0  0  0  0  0  0  0
  187.8190  177.7070  146.8620 C   0  0  0  0  0  2  0  0  0  0  0  0
  184.8010  179.0880  144.8740 C   0  0  0  0  0  1  0  0  0  0  0  0
  185.7160  178.8000  146.0090 C   0  0  0  0  0  0  0  0  0  0  0  0
  185.4520  179.2530  147.1540 O   0  0  0  0  0  0  0  0  0  0  0  0
  186.8850  178.0110  145.7900 N   0  0  0  0  0  2  0  0  0  0  0  0
  187.5060  179.4970  136.8140 O   0  0  0  0  0  0  0  0  0  0  0  0
  187.3360  178.6820  137.7580 C   0  0  0  0  0  0  0  0  0  0  0  0
  188.4090  178.4630  138.6830 N   0  0  0  0  0  2  0  0  0  0  0  0
  182.8190  178.7260  138.1980 C   0  0  1  0  0  3  0  0  0  0  0  0
  184.8330  179.5800  139.1490 N   0  0  0  0  0  2  0  0  0  0  0  0
  183.4060  179.8400  139.0770 C   0  0  0  0  0  2  0  0  0  0  0  0
  183.8250  177.5840  138.2680 C   0  0  2  0  0  3  0  0  0  0  0  0
  186.0540  177.9540  137.8570 C   0  0  2  0  0  3  0  0  0  0  0  0
  185.5520  177.0250  136.8070 C   0  0  2  0  0  3  0  0  0  0  0  0
  185.0500  178.2770  138.6440 C   0  0  1  0  0  3  0  0  0  0  0  0
  181.2490  178.2000  138.8460 Cl  0  0  0  0  0  0  0  0  0  0  0  0
  184.0910  176.9940  136.9550 N   0  0  0  0  0  2  0  0  0  0  0  0
  186.1060  175.6800  137.0080 C   0  0  0  0  0  0  0  0  0  0  0  0
  186.5420  174.6200  137.1670 N   0  0  0  0  0  0  0  0  0  0  0  0
  2  1  1  6  0  0  0
  2  3  1  0  0  0  0
  3  5  1  0  0  0  0
  4  2  1  0  0  0  0
  4  6  1  0  0  0  0
  5  7  1  1  0  0  0
  6  5  1  0  0  0  0
  7  8  1  0  0  0  0
  8 10  1  0  0  0  0
 10 11  1  0  0  0  0
 10  9  2  0  0  0  0
 12 13  1  0  0  0  0
 13 14  2  0  0  0  0
 15 13  1  0  0  0  0
 15 11  1  0  0  0  0
 16 17  2  0  0  0  0
 17 18  1  0  0  0  0
 18  1  1  0  0  0  0
 19 22  1  0  0  0  0
 19 26  1  1  0  0  0
 19 21  1  0  0  0  0
 21 20  1  0  0  0  0
 22 27  1  6  0  0  0
 22 25  1  0  0  0  0
 23 17  1  6  0  0  0
 23 25  1  0  0  0  0
 24 27  1  0  0  0  0
 24 28  1  1  0  0  0
 24 23  1  0  0  0  0
 25 20  1  6  0  0  0
 28 29  3  0  0  0  0
M  END
>  <MODEL>
3

>  <REMARK>
 VINA RESULT:      -7.0      2.699      4.155
  Name = 
  9 active torsions:
  status: ('A' for Active; 'I' for Inactive)
    1  A    between atoms: C_1  and  N_12
    2  A    between atoms: C_7  and  C_16
    3  A    between atoms: C_11  and  C_20
    4  A    between atoms: C_11  and  S_21
    5  A    between atoms: N_12  and  N_29
    6  A    between atoms: C_13  and  C_18
    7  A    between atoms: C_14  and  S_21
    8  A    between atoms: C_14  and  C_25
    9  A    between atoms: N_24  and  C_25
                            x       y       z     vdW  Elec       q    Type
                         _______ _______ _______ _____ _____    ______ ____

>  <TORSDO>
F 9

$$$$
=
 OpenBabel11042411003D

 29 31  0  0  1  0  0  0  0  0999 V2000
  185.9030  178.6180  140.9090 N   0  0  0  0  0  2  0  0  0  0  0  0
  185.4170  177.9310  142.0960 C   0  0  1  0  0  3  0  0  0  0  0  0
  186.5870  177.5350  142.9810 C   0  0  0  0  0  2  0  0  0  0  0  0
  184.5490  178.8730  142.9070 C   0  0  0  0  0  2  0  0  0  0  0  0
  186.4180  178.2840  144.2890 C   0  0  1  0  0  3  0  0  0  0  0  0
  184.9620  178.6790  144.3480 C   0  0  0  0  0  2  0  0  0  0  0  0
  186.7620  177.3930  145.4670 C   0  0  0  0  0  2  0  0  0  0  0  0
  186.4170  178.2540  147.0300 S   0  0  0  0  0  0  0  0  0  0  0  0
  188.3220  178.1270  148.8280 O   0  0  0  0  0  0  0  0  0  0  0  0
  188.0780  177.9810  147.6410 C   0  0  0  0  0  0  0  0  0  0  0  0
  189.1670  177.5930  146.6990 C   0  0  0  0  0  2  0  0  0  0  0  0
  192.3800  175.6230  147.5700 C   0  0  0  0  0  1  0  0  0  0  0  0
  191.4110  176.4550  146.8110 C   0  0  0  0  0  0  0  0  0  0  0  0
  191.7120  176.8710  145.6600 O   0  0  0  0  0  0  0  0  0  0  0  0
  190.1480  176.7760  147.3920 N   0  0  0  0  0  2  0  0  0  0  0  0
  183.5460  180.5010  138.9330 O   0  0  0  0  0  0  0  0  0  0  0  0
  184.2260  179.5040  139.2910 C   0  0  0  0  0  0  0  0  0  0  0  0
  184.9310  179.5610  140.5380 N   0  0  0  0  0  2  0  0  0  0  0  0
  186.6860  176.2770  137.2570 C   0  0  1  0  0  3  0  0  0  0  0  0
  186.5690  178.6310  137.6310 N   0  0  0  0  0  2  0  0  0  0  0  0
  187.5020  177.5780  137.2690 C   0  0  0  0  0  2  0  0  0  0  0  0
  185.2380  176.7110  137.0610 C   0  0  2  0  0  3  0  0  0  0  0  0
  184.3050  178.3280  138.3990 C   0  0  2  0  0  3  0  0  0  0  0  0
  183.5600  177.0620  138.6400 C   0  0  2  0  0  3  0  0  0  0  0  0
  185.2660  178.0900  137.5310 C   0  0  1  0  0  3  0  0  0  0  0  0
  187.2030  175.2450  135.9050 Cl  0  0  0  0  0  0  0  0  0  0  0  0
  184.3200  176.0060  137.9570 N   0  0  0  0  0  2  0  0  0  0  0  0
  182.2070  177.1510  138.0780 C   0  0  0  0  0  0  0  0  0  0  0  0
  181.1410  177.2210  137.6340 N   0  0  0  0  0  0  0  0  0  0  0  0
  2  1  1  6  0  0  0
  2  4  1  0  0  0  0
  2  3  1  0  0  0  0
  3  5  1  0  0  0  0
  4  6  1  0  0  0  0
  5  6  1  0  0  0  0
  5  7  1  1  0  0  0
  7  8  1  0  0  0  0
  8 10  1  0  0  0  0
 10  9  2  0  0  0  0
 11 15  1  0  0  0  0
 11 10  1  0  0  0  0
 13 15  1  0  0  0  0
 13 12  1  0  0  0  0
 14 13  2  0  0  0  0
 16 17  2  0  0  0  0
 17 18  1  0  0  0  0
 18  1  1  0  0  0  0
 19 26  1  6  0  0  0
 19 21  1  0  0  0  0
 21 20  1  0  0  0  0
 22 19  1  0  0  0  0
 22 25  1  0  0  0  0
 22 27  1  1  0  0  0
 23 24  1  0  0  0  0
 23 17  1  1  0  0  0
 24 28  1  6  0  0  0
 25 20  1  1  0  0  0
 25 23  1  0  0  0  0
 27 24  1  0  0  0  0
 29 28  3  0  0  0  0
M  END
>  <MODEL>
4

>  <REMARK>
 VINA RESULT:      -6.9      1.380      2.659
  Name = 
  9 active torsions:
  status: ('A' for Active; 'I' for Inactive)
    1  A    between atoms: C_1  and  N_12
    2  A    between atoms: C_7  and  C_16
    3  A    between atoms: C_11  and  C_20
    4  A    between atoms: C_11  and  S_21
    5  A    between atoms: N_12  and  N_29
    6  A    between atoms: C_13  and  C_18
    7  A    between atoms: C_14  and  S_21
    8  A    between atoms: C_14  and  C_25
    9  A    between atoms: N_24  and  C_25
                            x       y       z     vdW  Elec       q    Type
                         _______ _______ _______ _____ _____    ______ ____

>  <TORSDO>
F 9

$$$$
=
 OpenBabel11042411003D

 29 31  0  0  1  0  0  0  0  0999 V2000
  190.2360  176.7490  140.2790 N   0  0  0  0  0  2  0  0  0  0  0  0
  189.9460  176.7570  141.7050 C   0  0  1  0  0  3  0  0  0  0  0  0
  191.2380  176.8580  142.4970 C   0  0  0  0  0  2  0  0  0  0  0  0
  189.1200  177.9810  142.0470 C   0  0  0  0  0  2  0  0  0  0  0  0
  191.1790  178.1650  143.2640 C   0  0  1  0  0  3  0  0  0  0  0  0
  189.7170  178.5390  143.3190 C   0  0  0  0  0  2  0  0  0  0  0  0
  191.7220  177.9890  144.6690 C   0  0  0  0  0  2  0  0  0  0  0  0
  191.4740  176.2790  145.2320 S   0  0  0  0  0  0  0  0  0  0  0  0
  192.0990  176.7020  147.7430 O   0  0  0  0  0  0  0  0  0  0  0  0
  191.1970  176.7900  146.9250 C   0  0  0  0  0  0  0  0  0  0  0  0
  189.8610  177.3060  147.3410 C   0  0  0  0  0  2  0  0  0  0  0  0
  186.6310  177.3800  145.2140 C   0  0  0  0  0  1  0  0  0  0  0  0
  187.5630  177.5930  146.3510 C   0  0  0  0  0  0  0  0  0  0  0  0
  187.1600  178.1900  147.3850 O   0  0  0  0  0  0  0  0  0  0  0  0
  188.9050  177.1170  146.2630 N   0  0  0  0  0  2  0  0  0  0  0  0
  189.0790  179.2760  137.9820 O   0  0  0  0  0  0  0  0  0  0  0  0
  189.2020  178.1250  138.4760 C   0  0  0  0  0  0  0  0  0  0  0  0
  189.8310  177.9870  139.7570 N   0  0  0  0  0  2  0  0  0  0  0  0
  186.1850  176.2330  135.6630 C   0  0  1  0  0  3  0  0  0  0  0  0
  186.3800  177.4770  137.6900 N   0  0  0  0  0  2  0  0  0  0  0  0
  185.4350  177.1560  136.6340 C   0  0  0  0  0  2  0  0  0  0  0  0
  187.3180  175.6230  136.4790 C   0  0  2  0  0  3  0  0  0  0  0  0
  188.7320  176.9550  137.7040 C   0  0  2  0  0  3  0  0  0  0  0  0
  189.5470  176.2780  136.6580 C   0  0  2  0  0  3  0  0  0  0  0  0
  187.4760  176.5930  137.5550 C   0  0  1  0  0  3  0  0  0  0  0  0
  185.0990  174.9550  135.0740 Cl  0  0  0  0  0  0  0  0  0  0  0  0
  188.5900  175.6250  135.7550 N   0  0  0  0  0  2  0  0  0  0  0  0
  190.4270  175.2740  137.2680 C   0  0  0  0  0  0  0  0  0  0  0  0
  191.1210  174.4820  137.7480 N   0  0  0  0  0  0  0  0  0  0  0  0
  2  1  1  6  0  0  0
  2  4  1  0  0  0  0
  2  3  1  0  0  0  0
  3  5  1  0  0  0  0
  4  6  1  0  0  0  0
  5  6  1  0  0  0  0
  5  7  1  1  0  0  0
  7  8  1  0  0  0  0
  8 10  1  0  0  0  0
 10 11  1  0  0  0  0
 10  9  2  0  0  0  0
 12 13  1  0  0  0  0
 13 14  2  0  0  0  0
 15 13  1  0  0  0  0
 15 11  1  0  0  0  0
 16 17  2  0  0  0  0
 17 18  1  0  0  0  0
 18  1  1  0  0  0  0
 19 26  1  1  0  0  0
 19 22  1  0  0  0  0
 19 21  1  0  0  0  0
 21 20  1  0  0  0  0
 22 27  1  6  0  0  0
 22 25  1  0  0  0  0
 23 17  1  6  0  0  0
 24 28  1  1  0  0  0
 24 23  1  0  0  0  0
 25 20  1  6  0  0  0
 25 23  1  0  0  0  0
 27 24  1  0  0  0  0
 28 29  3  0  0  0  0
M  END
>  <MODEL>
5

>  <REMARK>
 VINA RESULT:      -6.9      3.222      4.746
  Name = 
  9 active torsions:
  status: ('A' for Active; 'I' for Inactive)
    1  A    between atoms: C_1  and  N_12
    2  A    between atoms: C_7  and  C_16
    3  A    between atoms: C_11  and  C_20
    4  A    between atoms: C_11  and  S_21
    5  A    between atoms: N_12  and  N_29
    6  A    between atoms: C_13  and  C_18
    7  A    between atoms: C_14  and  S_21
    8  A    between atoms: C_14  and  C_25
    9  A    between atoms: N_24  and  C_25
                            x       y       z     vdW  Elec       q    Type
                         _______ _______ _______ _____ _____    ______ ____

>  <TORSDO>
F 9

$$$$
=
 OpenBabel11042411003D

 29 31  0  0  1  0  0  0  0  0999 V2000
  190.3520  176.3510  141.1190 N   0  0  0  0  0  2  0  0  0  0  0  0
  190.0110  176.1360  142.5170 C   0  0  1  0  0  3  0  0  0  0  0  0
  190.7640  177.1230  143.3930 C   0  0  0  0  0  2  0  0  0  0  0  0
  188.5320  176.4000  142.7250 C   0  0  0  0  0  2  0  0  0  0  0  0
  189.7200  177.9880  144.0730 C   0  0  1  0  0  3  0  0  0  0  0  0
  188.4310  177.2060  144.0000 C   0  0  0  0  0  2  0  0  0  0  0  0
  190.0920  178.2400  145.5220 C   0  0  0  0  0  2  0  0  0  0  0  0
  189.6800  176.7930  146.5400 S   0  0  0  0  0  0  0  0  0  0  0  0
  189.6760  178.5450  148.4910 O   0  0  0  0  0  0  0  0  0  0  0  0
  188.9630  177.8040  147.8320 C   0  0  0  0  0  0  0  0  0  0  0  0
  187.5020  177.7290  148.1170 C   0  0  0  0  0  2  0  0  0  0  0  0
  185.1290  178.8520  145.2760 C   0  0  0  0  0  1  0  0  0  0  0  0
  185.8570  178.8470  146.5710 C   0  0  0  0  0  0  0  0  0  0  0  0
  185.6750  179.7830  147.3940 O   0  0  0  0  0  0  0  0  0  0  0  0
  186.7560  177.7800  146.8710 N   0  0  0  0  0  2  0  0  0  0  0  0
  189.1020  178.9980  139.0130 O   0  0  0  0  0  0  0  0  0  0  0  0
  189.4940  177.8400  139.3130 C   0  0  0  0  0  0  0  0  0  0  0  0
  189.6900  177.5150  140.6960 N   0  0  0  0  0  2  0  0  0  0  0  0
  192.2040  174.7130  137.4490 C   0  0  1  0  0  3  0  0  0  0  0  0
  192.1810  176.9290  138.3350 N   0  0  0  0  0  2  0  0  0  0  0  0
  193.0800  175.8260  138.0440 C   0  0  0  0  0  2  0  0  0  0  0  0
  190.9660  175.4190  136.9110 C   0  0  2  0  0  3  0  0  0  0  0  0
  189.7740  176.8710  138.2330 C   0  0  2  0  0  3  0  0  0  0  0  0
  188.8780  175.7290  137.9000 C   0  0  2  0  0  3  0  0  0  0  0  0
  190.9530  176.6500  137.6900 C   0  0  1  0  0  3  0  0  0  0  0  0
  193.0680  173.9000  136.1240 Cl  0  0  0  0  0  0  0  0  0  0  0  0
  189.7290  174.7170  137.2600 N   0  0  0  0  0  2  0  0  0  0  0  0
  187.8250  176.1600  136.9730 C   0  0  0  0  0  0  0  0  0  0  0  0
  186.9950  176.4990  136.2410 N   0  0  0  0  0  0  0  0  0  0  0  0
  2  1  1  6  0  0  0
  2  4  1  0  0  0  0
  2  3  1  0  0  0  0
  3  5  1  0  0  0  0
  4  6  1  0  0  0  0
  5  7  1  1  0  0  0
  6  5  1  0  0  0  0
  7  8  1  0  0  0  0
  8 10  1  0  0  0  0
 10 11  1  0  0  0  0
 10  9  2  0  0  0  0
 12 13  1  0  0  0  0
 13 15  1  0  0  0  0
 13 14  2  0  0  0  0
 15 11  1  0  0  0  0
 16 17  2  0  0  0  0
 17 18  1  0  0  0  0
 18  1  1  0  0  0  0
 19 26  1  6  0  0  0
 19 21  1  0  0  0  0
 21 20  1  0  0  0  0
 22 27  1  1  0  0  0
 22 19  1  0  0  0  0
 22 25  1  0  0  0  0
 23 17  1  1  0  0  0
 24 28  1  6  0  0  0
 24 23  1  0  0  0  0
 25 23  1  0  0  0  0
 25 20  1  1  0  0  0
 27 24  1  0  0  0  0
 29 28  3  0  0  0  0
M  END
>  <MODEL>
6

>  <REMARK>
 VINA RESULT:      -6.9      4.356      6.201
  Name = 
  9 active torsions:
  status: ('A' for Active; 'I' for Inactive)
    1  A    between atoms: C_1  and  N_12
    2  A    between atoms: C_7  and  C_16
    3  A    between atoms: C_11  and  C_20
    4  A    between atoms: C_11  and  S_21
    5  A    between atoms: N_12  and  N_29
    6  A    between atoms: C_13  and  C_18
    7  A    between atoms: C_14  and  S_21
    8  A    between atoms: C_14  and  C_25
    9  A    between atoms: N_24  and  C_25
                            x       y       z     vdW  Elec       q    Type
                         _______ _______ _______ _____ _____    ______ ____

>  <TORSDO>
F 9

$$$$
=
 OpenBabel11042411003D

 29 31  0  0  1  0  0  0  0  0999 V2000
  185.8590  178.1120  140.9910 N   0  0  0  0  0  2  0  0  0  0  0  0
  187.0470  178.4840  141.7440 C   0  0  1  0  0  3  0  0  0  0  0  0
  187.2470  177.5220  142.9040 C   0  0  0  0  0  2  0  0  0  0  0  0
  188.2690  178.3650  140.8560 C   0  0  0  0  0  2  0  0  0  0  0  0
  188.5670  176.8150  142.6610 C   0  0  1  0  0  3  0  0  0  0  0  0
  189.3290  177.6930  141.6980 C   0  0  0  0  0  2  0  0  0  0  0  0
  189.3440  176.6670  143.9550 C   0  0  0  0  0  2  0  0  0  0  0  0
  189.2850  178.2150  144.9060 S   0  0  0  0  0  0  0  0  0  0  0  0
  189.8710  176.5860  146.8750 O   0  0  0  0  0  0  0  0  0  0  0  0
  189.0190  177.3500  146.4510 C   0  0  0  0  0  0  0  0  0  0  0  0
  187.7510  177.5490  147.2110 C   0  0  0  0  0  2  0  0  0  0  0  0
  184.5650  178.7850  145.4000 C   0  0  0  0  0  1  0  0  0  0  0  0
  185.6780  178.7130  146.3810 C   0  0  0  0  0  0  0  0  0  0  0  0
  185.7650  179.5810  147.2910 O   0  0  0  0  0  0  0  0  0  0  0  0
  186.6370  177.6620  146.2840 N   0  0  0  0  0  2  0  0  0  0  0  0
  184.2090  180.5800  138.9430 O   0  0  0  0  0  0  0  0  0  0  0  0
  184.5500  179.4310  139.3290 C   0  0  0  0  0  0  0  0  0  0  0  0
  185.2250  179.2980  140.5870 N   0  0  0  0  0  2  0  0  0  0  0  0
  186.0130  175.7220  137.1620 C   0  0  1  0  0  3  0  0  0  0  0  0
  186.4740  178.0390  137.4960 N   0  0  0  0  0  2  0  0  0  0  0  0
  187.1050  176.7980  137.0790 C   0  0  0  0  0  2  0  0  0  0  0  0
  184.6930  176.4780  137.0810 C   0  0  2  0  0  3  0  0  0  0  0  0
  184.2780  178.2690  138.4590 C   0  0  2  0  0  3  0  0  0  0  0  0
  183.2850  177.2100  138.7880 C   0  0  2  0  0  3  0  0  0  0  0  0
  185.0780  177.8140  137.5180 C   0  0  1  0  0  3  0  0  0  0  0  0
  186.1580  174.5970  135.7930 Cl  0  0  0  0  0  0  0  0  0  0  0  0
  183.7180  176.0060  138.0660 N   0  0  0  0  0  2  0  0  0  0  0  0
  181.9450  177.6090  138.3410 C   0  0  0  0  0  0  0  0  0  0  0  0
  180.8890  177.9240  137.9880 N   0  0  0  0  0  0  0  0  0  0  0  0
  2  1  1  6  0  0  0
  2  3  1  0  0  0  0
  4  6  1  0  0  0  0
  4  2  1  0  0  0  0
  5  3  1  0  0  0  0
  5  7  1  1  0  0  0
  6  5  1  0  0  0  0
  7  8  1  0  0  0  0
  8 10  1  0  0  0  0
 10  9  2  0  0  0  0
 10 11  1  0  0  0  0
 12 13  1  0  0  0  0
 13 14  2  0  0  0  0
 15 13  1  0  0  0  0
 15 11  1  0  0  0  0
 16 17  2  0  0  0  0
 17 18  1  0  0  0  0
 18  1  1  0  0  0  0
 19 26  1  6  0  0  0
 21 19  1  0  0  0  0
 21 20  1  0  0  0  0
 22 19  1  0  0  0  0
 22 25  1  0  0  0  0
 22 27  1  1  0  0  0
 23 24  1  0  0  0  0
 23 17  1  1  0  0  0
 24 28  1  6  0  0  0
 25 20  1  1  0  0  0
 25 23  1  0  0  0  0
 27 24  1  0  0  0  0
 29 28  3  0  0  0  0
M  END
>  <MODEL>
7

>  <REMARK>
 VINA RESULT:      -6.8      2.121      3.968
  Name = 
  9 active torsions:
  status: ('A' for Active; 'I' for Inactive)
    1  A    between atoms: C_1  and  N_12
    2  A    between atoms: C_7  and  C_16
    3  A    between atoms: C_11  and  C_20
    4  A    between atoms: C_11  and  S_21
    5  A    between atoms: N_12  and  N_29
    6  A    between atoms: C_13  and  C_18
    7  A    between atoms: C_14  and  S_21
    8  A    between atoms: C_14  and  C_25
    9  A    between atoms: N_24  and  C_25
                            x       y       z     vdW  Elec       q    Type
                         _______ _______ _______ _____ _____    ______ ____

>  <TORSDO>
F 9

$$$$
=
 OpenBabel11042411003D

 29 31  0  0  1  0  0  0  0  0999 V2000
  185.8580  178.4510  141.5110 N   0  0  0  0  0  2  0  0  0  0  0  0
  185.2350  177.9240  142.7150 C   0  0  1  0  0  3  0  0  0  0  0  0
  186.3020  177.5180  143.7170 C   0  0  0  0  0  2  0  0  0  0  0  0
  184.4020  179.0090  143.3710 C   0  0  0  0  0  2  0  0  0  0  0  0
  186.1140  178.4000  144.9370 C   0  0  1  0  0  3  0  0  0  0  0  0
  184.6990  178.9200  144.8500 C   0  0  0  0  0  2  0  0  0  0  0  0
  186.2960  177.6000  146.2120 C   0  0  0  0  0  2  0  0  0  0  0  0
  186.9750  178.6560  147.5270 S   0  0  0  0  0  0  0  0  0  0  0  0
  189.3860  178.0240  148.3420 O   0  0  0  0  0  0  0  0  0  0  0  0
  188.5840  177.8760  147.4340 C   0  0  0  0  0  0  0  0  0  0  0  0
  188.9520  177.0600  146.2410 C   0  0  0  0  0  2  0  0  0  0  0  0
  191.6770  178.7390  144.0680 C   0  0  0  0  0  1  0  0  0  0  0  0
  191.0420  177.8680  145.0910 C   0  0  0  0  0  0  0  0  0  0  0  0
  191.7590  177.1090  145.7970 O   0  0  0  0  0  0  0  0  0  0  0  0
  189.6260  177.8980  145.2630 N   0  0  0  0  0  2  0  0  0  0  0  0
  183.9930  180.3720  139.0950 O   0  0  0  0  0  0  0  0  0  0  0  0
  184.5980  179.3750  139.5680 C   0  0  0  0  0  0  0  0  0  0  0  0
  184.9760  179.3890  140.9510 N   0  0  0  0  0  2  0  0  0  0  0  0
  183.3940  176.4700  136.2970 C   0  0  1  0  0  3  0  0  0  0  0  0
  182.7070  177.3570  138.4020 N   0  0  0  0  0  2  0  0  0  0  0  0
  182.1870  176.6910  137.2210 C   0  0  0  0  0  2  0  0  0  0  0  0
  184.6130  176.5060  137.2090 C   0  0  2  0  0  3  0  0  0  0  0  0
  184.9310  178.2440  138.6770 C   0  0  2  0  0  3  0  0  0  0  0  0
  186.0560  178.2700  137.7010 C   0  0  2  0  0  3  0  0  0  0  0  0
  184.1180  177.2610  138.3520 C   0  0  1  0  0  3  0  0  0  0  0  0
  183.2710  174.8830  135.5030 Cl  0  0  0  0  0  0  0  0  0  0  0  0
  185.7040  177.3060  136.6490 N   0  0  0  0  0  2  0  0  0  0  0  0
  187.3070  177.8660  138.3540 C   0  0  0  0  0  0  0  0  0  0  0  0
  188.2930  177.5480  138.8690 N   0  0  0  0  0  0  0  0  0  0  0  0
  2  1  1  6  0  0  0
  2  4  1  0  0  0  0
  2  3  1  0  0  0  0
  3  5  1  0  0  0  0
  4  6  1  0  0  0  0
  5  7  1  1  0  0  0
  6  5  1  0  0  0  0
  7  8  1  0  0  0  0
 10  8  1  0  0  0  0
 10  9  2  0  0  0  0
 11 10  1  0  0  0  0
 12 13  1  0  0  0  0
 13 15  1  0  0  0  0
 13 14  2  0  0  0  0
 15 11  1  0  0  0  0
 16 17  2  0  0  0  0
 17 18  1  0  0  0  0
 18  1  1  0  0  0  0
 19 26  1  1  0  0  0
 19 22  1  0  0  0  0
 19 21  1  0  0  0  0
 21 20  1  0  0  0  0
 22 27  1  6  0  0  0
 22 25  1  0  0  0  0
 23 17  1  6  0  0  0
 24 28  1  1  0  0  0
 24 23  1  0  0  0  0
 25 20  1  6  0  0  0
 25 23  1  0  0  0  0
 27 24  1  0  0  0  0
 28 29  3  0  0  0  0
M  END
>  <MODEL>
8

>  <REMARK>
 VINA RESULT:      -6.8      1.404      1.582
  Name = 
  9 active torsions:
  status: ('A' for Active; 'I' for Inactive)
    1  A    between atoms: C_1  and  N_12
    2  A    between atoms: C_7  and  C_16
    3  A    between atoms: C_11  and  C_20
    4  A    between atoms: C_11  and  S_21
    5  A    between atoms: N_12  and  N_29
    6  A    between atoms: C_13  and  C_18
    7  A    between atoms: C_14  and  S_21
    8  A    between atoms: C_14  and  C_25
    9  A    between atoms: N_24  and  C_25
                            x       y       z     vdW  Elec       q    Type
                         _______ _______ _______ _____ _____    ______ ____

>  <TORSDO>
F 9

$$$$
=
 OpenBabel11042411003D

 29 31  0  0  1  0  0  0  0  0999 V2000
  189.5200  177.1170  140.4090 N   0  0  0  0  0  2  0  0  0  0  0  0
  189.7530  177.4890  141.7960 C   0  0  1  0  0  3  0  0  0  0  0  0
  188.5390  178.2160  142.3490 C   0  0  0  0  0  2  0  0  0  0  0  0
  189.9390  176.2390  142.6330 C   0  0  0  0  0  2  0  0  0  0  0  0
  187.9960  177.3620  143.4790 C   0  0  1  0  0  3  0  0  0  0  0  0
  189.1350  176.4620  143.8930 C   0  0  0  0  0  2  0  0  0  0  0  0
  187.5660  178.2260  144.6480 C   0  0  0  0  0  2  0  0  0  0  0  0
  186.4790  177.2850  145.7610 S   0  0  0  0  0  0  0  0  0  0  0  0
  184.4550  178.6930  146.6530 O   0  0  0  0  0  0  0  0  0  0  0  0
  185.1980  178.5340  145.6980 C   0  0  0  0  0  0  0  0  0  0  0  0
  185.0260  179.3670  144.4730 C   0  0  0  0  0  2  0  0  0  0  0  0
  183.7310  177.9880  141.0990 C   0  0  0  0  0  1  0  0  0  0  0  0
  184.5170  178.7860  142.0760 C   0  0  0  0  0  0  0  0  0  0  0  0
  185.3850  179.6000  141.6630 O   0  0  0  0  0  0  0  0  0  0  0  0
  184.2800  178.6210  143.4740 N   0  0  0  0  0  2  0  0  0  0  0  0
  188.9830  179.3890  137.6620 O   0  0  0  0  0  0  0  0  0  0  0  0
  188.9270  178.3060  138.3010 C   0  0  0  0  0  0  0  0  0  0  0  0
  189.3110  178.2990  139.6820 N   0  0  0  0  0  2  0  0  0  0  0  0
  186.0460  176.1640  135.5240 C   0  0  1  0  0  3  0  0  0  0  0  0
  186.1460  177.5510  137.4630 N   0  0  0  0  0  2  0  0  0  0  0  0
  185.2460  177.1380  136.4000 C   0  0  0  0  0  2  0  0  0  0  0  0
  187.1580  175.6350  136.4210 C   0  0  2  0  0  3  0  0  0  0  0  0
  188.5050  177.0770  137.5980 C   0  0  2  0  0  3  0  0  0  0  0  0
  189.3690  176.3440  136.6320 C   0  0  2  0  0  3  0  0  0  0  0  0
  187.2610  176.6810  137.4310 C   0  0  1  0  0  3  0  0  0  0  0  0
  185.0040  174.8260  134.9900 Cl  0  0  0  0  0  0  0  0  0  0  0  0
  188.4560  175.6100  135.7440 N   0  0  0  0  0  2  0  0  0  0  0  0
  190.2420  175.4020  137.3420 C   0  0  0  0  0  0  0  0  0  0  0  0
  190.9310  174.6590  137.9020 N   0  0  0  0  0  0  0  0  0  0  0  0
  2  1  1  6  0  0  0
  2  3  1  0  0  0  0
  2  4  1  0  0  0  0
  3  5  1  0  0  0  0
  4  6  1  0  0  0  0
  5  6  1  0  0  0  0
  5  7  1  1  0  0  0
  7  8  1  0  0  0  0
 10  8  1  0  0  0  0
 10  9  2  0  0  0  0
 11 10  1  0  0  0  0
 12 13  1  0  0  0  0
 13 15  1  0  0  0  0
 14 13  2  0  0  0  0
 15 11  1  0  0  0  0
 16 17  2  0  0  0  0
 17 18  1  0  0  0  0
 18  1  1  0  0  0  0
 19 26  1  1  0  0  0
 19 21  1  0  0  0  0
 19 22  1  0  0  0  0
 21 20  1  0  0  0  0
 22 27  1  6  0  0  0
 22 25  1  0  0  0  0
 23 17  1  6  0  0  0
 24 28  1  1  0  0  0
 24 23  1  0  0  0  0
 25 20  1  6  0  0  0
 25 23  1  0  0  0  0
 27 24  1  0  0  0  0
 28 29  3  0  0  0  0
M  END
>  <MODEL>
9

>  <REMARK>
 VINA RESULT:      -6.8      3.357      5.236
  Name = 
  9 active torsions:
  status: ('A' for Active; 'I' for Inactive)
    1  A    between atoms: C_1  and  N_12
    2  A    between atoms: C_7  and  C_16
    3  A    between atoms: C_11  and  C_20
    4  A    between atoms: C_11  and  S_21
    5  A    between atoms: N_12  and  N_29
    6  A    between atoms: C_13  and  C_18
    7  A    between atoms: C_14  and  S_21
    8  A    between atoms: C_14  and  C_25
    9  A    between atoms: N_24  and  C_25
                            x       y       z     vdW  Elec       q    Type
                         _______ _______ _______ _____ _____    ______ ____

>  <TORSDO>
F 9

$$$$
