=
 OpenBabel11042412523D

 43 48  0  0  1  0  0  0  0  0999 V2000
  187.3380  177.8460  141.7480 C   0  0  0  0  0  0  0  0  0  0  0  0
  185.6130  177.5450  145.6880 C   0  0  2  0  0  3  0  0  0  0  0  0
  185.8160  177.8830  147.0170 C   0  0  0  0  0  2  0  0  0  0  0  0
  186.0490  178.3320  142.1940 C   0  0  0  0  0  0  0  0  0  0  0  0
  188.3750  177.1510  146.0190 C   0  0  0  0  0  0  0  0  0  0  0  0
  189.7030  176.8880  140.9160 C   0  0  2  0  0  3  0  0  0  0  0  0
  186.9950  177.4090  146.2340 N   0  0  0  0  0  0  0  0  0  0  0  0
  189.2650  177.2680  147.0100 C   0  0  0  0  0  2  0  0  0  0  0  0
  185.8460  178.5190  143.4740 C   0  0  0  0  0  0  0  0  0  0  0  0
  188.8200  176.9180  144.6880 N   0  0  0  0  0  0  0  0  0  0  0  0
  185.5950  178.7180  144.7430 C   0  0  0  0  0  0  0  0  0  0  0  0
  190.7150  177.1310  146.7190 C   0  0  0  0  0  0  0  0  0  0  0  0
  190.5890  177.0070  143.1790 C   0  0  0  0  0  0  0  0  0  0  0  0
  188.4040  177.4300  141.3590 C   0  0  0  0  0  0  0  0  0  0  0  0
  191.1420  176.9740  145.4970 N   0  0  0  0  0  0  0  0  0  0  0  0
  190.7940  177.1950  141.9060 C   0  0  0  0  0  3  0  0  0  0  0  0
  185.1660  180.0800  145.1840 C   0  0  0  0  0  1  0  0  0  0  0  0
  190.2130  176.8700  144.4110 C   0  0  0  0  0  0  0  0  0  0  0  0
  191.6510  177.2260  147.7850 N   0  0  0  0  0  1  0  0  0  0  0  0
  185.6220  178.9990  139.8100 C   0  0  0  0  0  2  0  0  0  0  0  0
  185.0530  178.8830  141.2000 C   0  0  1  0  0  3  0  0  0  0  0  0
  184.9360  177.8870  139.0620 C   0  0  0  0  0  2  0  0  0  0  0  0
  183.6740  177.7090  139.6450 O   0  0  0  0  0  0  0  0  0  0  0  0
  183.8660  177.9460  141.0180 C   0  0  2  0  0  3  0  0  0  0  0  0
  182.3840  178.7250  141.7340 S   0  0  0  0  0  0  0  0  0  0  0  0
  181.6100  178.9950  140.1380 C   0  0  0  0  0  3  0  0  0  0  0  0
  181.2040  180.2180  139.8030 C   0  0  0  0  0  3  0  0  0  0  0  0
  180.5590  180.4690  138.4760 C   0  0  2  0  0  3  0  0  0  0  0  0
  181.5290  180.2980  137.4590 O   0  0  0  0  0  0  0  0  0  0  0  0
  181.1610  181.6180  137.7530 C   0  0  2  0  0  0  0  0  0  0  0  0
  182.2040  182.3220  138.3640 O   0  0  0  0  0  1  0  0  0  0  0  0
  180.4090  182.2720  136.6020 C   0  0  1  0  0  3  0  0  0  0  0  0
  180.7050  183.7620  136.5800 C   0  0  0  0  0  1  0  0  0  0  0  0
  179.6660  181.3930  134.7500 N   0  0  0  0  0  1  0  0  0  0  0  0
  180.8170  181.7090  135.3900 O   0  0  0  0  0  0  0  0  0  0  0  0
  190.0470  177.4520  139.5450 C   0  0  0  0  0  2  0  0  0  0  0  0
  192.6820  176.7510  138.6390 S   0  0  0  0  0  0  0  0  0  0  0  0
  190.9150  176.5220  138.7650 C   0  0  0  0  0  0  0  0  0  0  0  0
  191.4200  174.6650  137.6000 N   0  0  0  0  0  2  0  0  0  0  0  0
  190.4510  175.4530  138.2180 N   0  0  0  0  0  0  0  0  0  0  0  0
  192.7760  175.1680  137.7190 C   0  0  1  0  0  3  0  0  0  0  0  0
  194.2820  176.5150  136.3630 N   0  0  0  0  0  1  0  0  0  0  0  0
  193.3550  175.3970  136.3350 C   0  0  0  0  0  2  0  0  0  0  0  0
  1  4  1  0  0  0  0
  2  7  1  0  0  0  0
  2  3  1  1  0  0  0
  4  9  2  0  0  0  0
  5  7  1  0  0  0  0
  5  8  1  0  0  0  0
  6 36  1  6  0  0  0
  6 14  1  0  0  0  0
  6 16  1  0  0  0  0
  7  3  1  0  0  0  0
  9 11  2  0  0  0  0
 10  5  2  0  0  0  0
 11 17  1  0  0  0  0
 11  2  1  0  0  0  0
 12  8  1  0  0  0  0
 12 19  1  0  0  0  0
 13 18  2  0  0  0  0
 14  1  3  0  0  0  0
 15 12  2  0  0  0  0
 16 13  2  0  0  0  0
 18 10  1  0  0  0  0
 18 15  1  0  0  0  0
 20 21  1  0  0  0  0
 21  4  1  1  0  0  0
 22 23  1  0  0  0  0
 22 20  1  0  0  0  0
 23 24  1  0  0  0  0
 24 21  1  0  0  0  0
 24 25  1  6  0  0  0
 26 25  1  0  0  0  0
 27 26  2  0  0  0  0
 28 27  1  1  0  0  0
 29 30  1  0  0  0  0
 29 28  1  0  0  0  0
 30 31  1  1  0  0  0
 30 28  1  0  0  0  0
 32 33  1  6  0  0  0
 32 30  1  0  0  0  0
 34 35  1  0  0  0  0
 35 32  1  0  0  0  0
 37 38  1  0  0  0  0
 38 36  1  0  0  0  0
 39 41  1  0  0  0  0
 39 40  1  0  0  0  0
 40 38  2  0  0  0  0
 41 43  1  6  0  0  0
 41 37  1  0  0  0  0
 43 42  1  0  0  0  0
M  END
>  <MODEL>
1

>  <REMARK>
 VINA RESULT:      -8.2      0.000      0.000
  Name = 
  9 active torsions:
  status: ('A' for Active; 'I' for Inactive)
    1  A    between atoms: C_4  and  C_12
    2  A    between atoms: C_7  and  C_20
    3  A    between atoms: C_7  and  O_34
    4  A    between atoms: C_10  and  C_40
    5  A    between atoms: C_12  and  C_19
    6  A    between atoms: C_13  and  C_16
    7  A    between atoms: C_14  and  S_17
    8  A    between atoms: S_17  and  C_39
    9  A    between atoms: C_22  and  C_24
                            x       y       z     vdW  Elec       q    Type
                         _______ _______ _______ _____ _____    ______ ____

>  <TORSDO>
F 9

$$$$
=
 OpenBabel11042412523D

 43 48  0  0  1  0  0  0  0  0999 V2000
  186.8610  178.1590  140.7960 C   0  0  0  0  0  0  0  0  0  0  0  0
  185.5640  177.4830  144.8530 C   0  0  2  0  0  3  0  0  0  0  0  0
  185.8840  177.7400  146.1770 C   0  0  0  0  0  2  0  0  0  0  0  0
  185.6000  178.5340  141.4020 C   0  0  0  0  0  0  0  0  0  0  0  0
  188.3620  177.2350  144.8820 C   0  0  0  0  0  0  0  0  0  0  0  0
  189.1760  177.4060  139.6680 C   0  0  2  0  0  3  0  0  0  0  0  0
  187.0000  177.3940  145.2490 N   0  0  0  0  0  0  0  0  0  0  0  0
  189.3410  177.3370  145.7870 C   0  0  0  0  0  2  0  0  0  0  0  0
  185.5180  178.6200  142.7060 C   0  0  0  0  0  0  0  0  0  0  0  0
  188.6810  177.1220  143.5000 N   0  0  0  0  0  0  0  0  0  0  0  0
  185.3880  178.7150  144.0040 C   0  0  0  0  0  0  0  0  0  0  0  0
  190.7590  177.3090  145.3460 C   0  0  0  0  0  0  0  0  0  0  0  0
  190.2800  177.4220  141.8360 C   0  0  0  0  0  0  0  0  0  0  0  0
  187.9020  177.8360  140.2750 C   0  0  0  0  0  0  0  0  0  0  0  0
  191.0680  177.2630  144.0800 N   0  0  0  0  0  0  0  0  0  0  0  0
  190.3450  177.7090  140.5670 C   0  0  0  0  0  3  0  0  0  0  0  0
  184.9340  180.0150  144.5850 C   0  0  0  0  0  1  0  0  0  0  0  0
  190.0400  177.1780  143.0850 C   0  0  0  0  0  0  0  0  0  0  0  0
  191.7930  177.3870  146.3190 N   0  0  0  0  0  1  0  0  0  0  0  0
  184.8750  179.2680  139.1100 C   0  0  0  0  0  2  0  0  0  0  0  0
  184.4800  179.0910  140.5530 C   0  0  1  0  0  3  0  0  0  0  0  0
  184.1290  178.1630  138.4100 C   0  0  0  0  0  2  0  0  0  0  0  0
  182.9500  177.9320  139.1320 O   0  0  0  0  0  0  0  0  0  0  0  0
  183.3000  178.1290  140.4800 C   0  0  2  0  0  3  0  0  0  0  0  0
  181.8980  178.8450  141.3950 S   0  0  0  0  0  0  0  0  0  0  0  0
  181.0310  179.3470  139.9070 C   0  0  0  0  0  3  0  0  0  0  0  0
  180.8270  180.6410  139.6700 C   0  0  0  0  0  3  0  0  0  0  0  0
  180.1100  181.0850  138.4340 C   0  0  2  0  0  3  0  0  0  0  0  0
  180.9570  180.8800  137.3180 O   0  0  0  0  0  0  0  0  0  0  0  0
  180.7970  182.2060  137.7420 C   0  0  2  0  0  0  0  0  0  0  0  0
  181.9730  182.7170  138.2990 O   0  0  0  0  0  1  0  0  0  0  0  0
  180.0430  183.0470  136.7210 C   0  0  1  0  0  3  0  0  0  0  0  0
  179.9520  184.4820  137.2080 C   0  0  0  0  0  1  0  0  0  0  0  0
  180.9190  184.3260  135.1870 N   0  0  0  0  0  1  0  0  0  0  0  0
  180.7190  183.0230  135.4980 O   0  0  0  0  0  0  0  0  0  0  0  0
  189.3480  178.0830  138.3150 C   0  0  0  0  0  2  0  0  0  0  0  0
  187.8650  175.9270  137.1270 S   0  0  0  0  0  0  0  0  0  0  0  0
  188.3050  177.6450  137.3410 C   0  0  0  0  0  0  0  0  0  0  0  0
  186.6230  177.9020  135.8690 N   0  0  0  0  0  2  0  0  0  0  0  0
  187.6030  178.4890  136.6700 N   0  0  0  0  0  0  0  0  0  0  0  0
  186.5470  176.4560  135.9690 C   0  0  1  0  0  3  0  0  0  0  0  0
  186.7140  174.3930  134.6890 N   0  0  0  0  0  1  0  0  0  0  0  0
  186.7710  175.8420  134.5990 C   0  0  0  0  0  2  0  0  0  0  0  0
  1  4  1  0  0  0  0
  2  7  1  0  0  0  0
  2  3  1  1  0  0  0
  4  9  2  0  0  0  0
  5  7  1  0  0  0  0
  5  8  1  0  0  0  0
  6 36  1  6  0  0  0
  6 14  1  0  0  0  0
  6 16  1  0  0  0  0
  7  3  1  0  0  0  0
  9 11  2  0  0  0  0
 10  5  2  0  0  0  0
 11 17  1  0  0  0  0
 11  2  1  0  0  0  0
 12  8  1  0  0  0  0
 12 19  1  0  0  0  0
 13 18  2  0  0  0  0
 14  1  3  0  0  0  0
 15 12  2  0  0  0  0
 16 13  2  0  0  0  0
 18 10  1  0  0  0  0
 18 15  1  0  0  0  0
 20 21  1  0  0  0  0
 21  4  1  1  0  0  0
 22 20  1  0  0  0  0
 22 23  1  0  0  0  0
 23 24  1  0  0  0  0
 24 21  1  0  0  0  0
 24 25  1  1  0  0  0
 26 25  1  0  0  0  0
 27 26  2  0  0  0  0
 28 27  1  1  0  0  0
 29 30  1  0  0  0  0
 29 28  1  0  0  0  0
 30 31  1  1  0  0  0
 30 28  1  0  0  0  0
 32 33  1  1  0  0  0
 32 30  1  0  0  0  0
 34 35  1  0  0  0  0
 35 32  1  0  0  0  0
 37 38  1  0  0  0  0
 38 36  1  0  0  0  0
 39 41  1  0  0  0  0
 39 40  1  0  0  0  0
 40 38  2  0  0  0  0
 41 43  1  6  0  0  0
 41 37  1  0  0  0  0
 43 42  1  0  0  0  0
M  END
>  <MODEL>
2

>  <REMARK>
 VINA RESULT:      -8.1      2.254      2.634
  Name = 
  9 active torsions:
  status: ('A' for Active; 'I' for Inactive)
    1  A    between atoms: C_4  and  C_12
    2  A    between atoms: C_7  and  C_20
    3  A    between atoms: C_7  and  O_34
    4  A    between atoms: C_10  and  C_40
    5  A    between atoms: C_12  and  C_19
    6  A    between atoms: C_13  and  C_16
    7  A    between atoms: C_14  and  S_17
    8  A    between atoms: S_17  and  C_39
    9  A    between atoms: C_22  and  C_24
                            x       y       z     vdW  Elec       q    Type
                         _______ _______ _______ _____ _____    ______ ____

>  <TORSDO>
F 9

$$$$
=
 OpenBabel11042412523D

 43 48  0  0  1  0  0  0  0  0999 V2000
  185.4750  178.4060  138.1670 C   0  0  0  0  0  0  0  0  0  0  0  0
  189.5710  177.9530  139.4370 C   0  0  2  0  0  3  0  0  0  0  0  0
  190.3810  177.3110  140.3610 C   0  0  0  0  0  2  0  0  0  0  0  0
  186.6010  177.9350  137.3880 C   0  0  0  0  0  0  0  0  0  0  0  0
  188.0350  178.0440  141.7880 C   0  0  0  0  0  0  0  0  0  0  0  0
  183.4060  179.3360  139.6020 C   0  0  2  0  0  3  0  0  0  0  0  0
  189.0760  177.8540  140.8410 N   0  0  0  0  0  0  0  0  0  0  0  0
  188.1680  177.6390  143.0550 C   0  0  0  0  0  2  0  0  0  0  0  0
  187.6620  177.4830  138.0080 C   0  0  0  0  0  0  0  0  0  0  0  0
  186.7820  178.5330  141.3250 N   0  0  0  0  0  0  0  0  0  0  0  0
  188.7440  177.0260  138.5840 C   0  0  0  0  0  0  0  0  0  0  0  0
  187.0080  177.7230  143.9810 C   0  0  0  0  0  0  0  0  0  0  0  0
  184.4830  178.6450  141.6710 C   0  0  0  0  0  0  0  0  0  0  0  0
  184.5300  178.8140  138.8010 C   0  0  0  0  0  0  0  0  0  0  0  0
  185.8390  178.1150  143.5580 N   0  0  0  0  0  0  0  0  0  0  0  0
  183.3830  178.7310  140.9800 C   0  0  0  0  0  3  0  0  0  0  0  0
  189.1950  175.6380  138.2620 C   0  0  0  0  0  1  0  0  0  0  0  0
  185.6610  178.5320  142.1990 C   0  0  0  0  0  0  0  0  0  0  0  0
  187.1680  177.3190  145.3340 N   0  0  0  0  0  1  0  0  0  0  0  0
  187.7380  177.9510  135.1460 C   0  0  0  0  0  2  0  0  0  0  0  0
  186.4580  177.7010  135.9010 C   0  0  1  0  0  3  0  0  0  0  0  0
  188.1940  176.5660  134.7730 C   0  0  0  0  0  2  0  0  0  0  0  0
  187.0470  175.7750  134.6190 O   0  0  0  0  0  0  0  0  0  0  0  0
  186.1450  176.2430  135.5920 C   0  0  2  0  0  3  0  0  0  0  0  0
  184.4360  176.1240  134.9720 S   0  0  0  0  0  0  0  0  0  0  0  0
  183.8250  175.3390  136.4650 C   0  0  0  0  0  3  0  0  0  0  0  0
  182.9230  175.9680  137.2160 C   0  0  0  0  0  3  0  0  0  0  0  0
  182.3950  175.3330  138.4640 C   0  0  2  0  0  3  0  0  0  0  0  0
  181.4530  174.3390  138.1050 O   0  0  0  0  0  0  0  0  0  0  0  0
  180.9320  175.5280  138.6330 C   0  0  2  0  0  0  0  0  0  0  0  0
  180.2380  176.2640  137.6670 O   0  0  0  0  0  1  0  0  0  0  0  0
  180.2880  175.3150  139.9960 C   0  0  1  0  0  3  0  0  0  0  0  0
  179.4470  176.5270  140.3590 C   0  0  0  0  0  1  0  0  0  0  0  0
  179.5230  173.6750  141.2140 N   0  0  0  0  0  1  0  0  0  0  0  0
  179.4670  174.1850  139.9600 O   0  0  0  0  0  0  0  0  0  0  0  0
  182.0970  179.0690  138.8730 C   0  0  0  0  0  2  0  0  0  0  0  0
  180.3730  180.2100  136.8780 S   0  0  0  0  0  0  0  0  0  0  0  0
  181.5850  180.2910  138.1880 C   0  0  0  0  0  0  0  0  0  0  0  0
  181.2820  182.4970  137.8630 N   0  0  0  0  0  2  0  0  0  0  0  0
  181.9190  181.4750  138.5660 N   0  0  0  0  0  0  0  0  0  0  0  0
  180.3310  182.0420  136.8640 C   0  0  1  0  0  3  0  0  0  0  0  0
  180.8630  184.0150  135.5430 N   0  0  0  0  0  1  0  0  0  0  0  0
  180.7390  182.5680  135.5000 C   0  0  0  0  0  2  0  0  0  0  0  0
  1 14  3  0  0  0  0
  2  3  1  1  0  0  0
  2  7  1  0  0  0  0
  3  7  1  0  0  0  0
  4  9  2  0  0  0  0
  4  1  1  0  0  0  0
  5  8  1  0  0  0  0
  6 36  1  6  0  0  0
  6 16  1  0  0  0  0
  7  5  1  0  0  0  0
  8 12  1  0  0  0  0
  9 11  2  0  0  0  0
 10  5  2  0  0  0  0
 10 18  1  0  0  0  0
 11  2  1  0  0  0  0
 12 19  1  0  0  0  0
 13 18  2  0  0  0  0
 14  6  1  0  0  0  0
 15 12  2  0  0  0  0
 16 13  2  0  0  0  0
 17 11  1  0  0  0  0
 18 15  1  0  0  0  0
 20 21  1  0  0  0  0
 21  4  1  1  0  0  0
 22 20  1  0  0  0  0
 23 22  1  0  0  0  0
 23 24  1  0  0  0  0
 24 25  1  6  0  0  0
 24 21  1  0  0  0  0
 25 26  1  0  0  0  0
 26 27  2  0  0  0  0
 28 27  1  6  0  0  0
 28 30  1  0  0  0  0
 29 28  1  0  0  0  0
 29 30  1  0  0  0  0
 30 31  1  6  0  0  0
 30 32  1  0  0  0  0
 32 33  1  6  0  0  0
 35 32  1  0  0  0  0
 35 34  1  0  0  0  0
 37 38  1  0  0  0  0
 38 40  2  0  0  0  0
 38 36  1  0  0  0  0
 39 40  1  0  0  0  0
 41 43  1  6  0  0  0
 41 37  1  0  0  0  0
 41 39  1  0  0  0  0
 43 42  1  0  0  0  0
M  END
>  <MODEL>
3

>  <REMARK>
 VINA RESULT:      -8.0      3.632      7.914
  Name = 
  9 active torsions:
  status: ('A' for Active; 'I' for Inactive)
    1  A    between atoms: C_4  and  C_12
    2  A    between atoms: C_7  and  C_20
    3  A    between atoms: C_7  and  O_34
    4  A    between atoms: C_10  and  C_40
    5  A    between atoms: C_12  and  C_19
    6  A    between atoms: C_13  and  C_16
    7  A    between atoms: C_14  and  S_17
    8  A    between atoms: S_17  and  C_39
    9  A    between atoms: C_22  and  C_24
                            x       y       z     vdW  Elec       q    Type
                         _______ _______ _______ _____ _____    ______ ____

>  <TORSDO>
F 9

$$$$
=
 OpenBabel11042412523D

 43 48  0  0  1  0  0  0  0  0999 V2000
  186.4300  178.5280  140.8000 C   0  0  0  0  0  0  0  0  0  0  0  0
  185.4210  179.3240  144.9160 C   0  0  2  0  0  3  0  0  0  0  0  0
  184.5690  178.9470  145.9420 C   0  0  0  0  0  2  0  0  0  0  0  0
  187.2900  178.4320  141.9610 C   0  0  0  0  0  0  0  0  0  0  0  0
  182.9810  178.9130  143.5850 C   0  0  0  0  0  0  0  0  0  0  0  0
  184.8450  178.7670  138.6470 C   0  0  2  0  0  3  0  0  0  0  0  0
  183.9940  179.0610  144.5700 N   0  0  0  0  0  0  0  0  0  0  0  0
  181.7380  178.5510  143.9180 C   0  0  0  0  0  2  0  0  0  0  0  0
  186.7490  178.3160  143.1480 C   0  0  0  0  0  0  0  0  0  0  0  0
  183.3520  179.0050  142.2150 N   0  0  0  0  0  0  0  0  0  0  0  0
  186.2540  178.2020  144.3540 C   0  0  0  0  0  0  0  0  0  0  0  0
  180.7430  178.2660  142.8520 C   0  0  0  0  0  0  0  0  0  0  0  0
  182.8670  178.4090  140.0180 C   0  0  0  0  0  0  0  0  0  0  0  0
  185.7280  178.6210  139.8210 C   0  0  0  0  0  0  0  0  0  0  0  0
  181.0820  178.2910  141.5940 N   0  0  0  0  0  0  0  0  0  0  0  0
  183.4890  178.1650  138.8990 C   0  0  0  0  0  3  0  0  0  0  0  0
  186.6470  177.0200  145.1810 C   0  0  0  0  0  1  0  0  0  0  0  0
  182.4140  178.6520  141.2070 C   0  0  0  0  0  0  0  0  0  0  0  0
  179.4160  177.9120  143.2160 N   0  0  0  0  0  1  0  0  0  0  0  0
  189.4260  177.7010  143.0660 C   0  0  0  0  0  2  0  0  0  0  0  0
  188.7720  178.1850  141.7970 C   0  0  1  0  0  3  0  0  0  0  0  0
  189.7010  176.2490  142.7790 C   0  0  0  0  0  2  0  0  0  0  0  0
  189.9190  176.1300  141.4000 O   0  0  0  0  0  0  0  0  0  0  0  0
  189.0460  177.0600  140.8070 C   0  0  2  0  0  3  0  0  0  0  0  0
  189.8020  177.7650  139.3080 S   0  0  0  0  0  0  0  0  0  0  0  0
  191.0620  176.4910  139.2020 C   0  0  0  0  0  3  0  0  0  0  0  0
  191.8080  176.3940  138.1040 C   0  0  0  0  0  3  0  0  0  0  0  0
  192.8670  175.3430  137.9930 C   0  0  2  0  0  3  0  0  0  0  0  0
  194.0510  175.8240  138.6020 O   0  0  0  0  0  0  0  0  0  0  0  0
  194.0410  175.7910  137.2010 C   0  0  2  0  0  0  0  0  0  0  0  0
  194.0280  177.0780  136.6530 O   0  0  0  0  0  1  0  0  0  0  0  0
  195.0210  174.7670  136.6450 C   0  0  1  0  0  3  0  0  0  0  0  0
  195.2310  175.0130  135.1620 C   0  0  0  0  0  1  0  0  0  0  0  0
  197.0480  175.5430  136.4350 N   0  0  0  0  0  1  0  0  0  0  0  0
  196.2480  174.8800  137.3040 O   0  0  0  0  0  0  0  0  0  0  0  0
  185.5030  178.1240  137.4350 C   0  0  0  0  0  2  0  0  0  0  0  0
  183.4650  177.0970  135.6880 S   0  0  0  0  0  0  0  0  0  0  0  0
  184.7280  176.9480  136.9430 C   0  0  0  0  0  0  0  0  0  0  0  0
  184.2190  174.7690  136.7070 N   0  0  0  0  0  2  0  0  0  0  0  0
  184.9900  175.7490  137.3300 N   0  0  0  0  0  0  0  0  0  0  0  0
  183.2920  175.2730  135.7090 C   0  0  1  0  0  3  0  0  0  0  0  0
  181.8870  174.1200  137.3270 N   0  0  0  0  0  1  0  0  0  0  0  0
  181.8750  174.8830  136.0910 C   0  0  0  0  0  2  0  0  0  0  0  0
  1  4  1  0  0  0  0
  2  3  1  1  0  0  0
  4  9  2  0  0  0  0
  5  8  1  0  0  0  0
  5  7  1  0  0  0  0
  6 36  1  6  0  0  0
  6 16  1  0  0  0  0
  6 14  1  0  0  0  0
  7  2  1  0  0  0  0
  7  3  1  0  0  0  0
  9 11  2  0  0  0  0
 10  5  2  0  0  0  0
 11  2  1  0  0  0  0
 11 17  1  0  0  0  0
 12 19  1  0  0  0  0
 12  8  1  0  0  0  0
 13 18  2  0  0  0  0
 14  1  3  0  0  0  0
 15 12  2  0  0  0  0
 16 13  2  0  0  0  0
 18 15  1  0  0  0  0
 18 10  1  0  0  0  0
 21  4  1  1  0  0  0
 21 20  1  0  0  0  0
 22 20  1  0  0  0  0
 23 22  1  0  0  0  0
 24 25  1  6  0  0  0
 24 23  1  0  0  0  0
 24 21  1  0  0  0  0
 26 25  1  0  0  0  0
 27 26  2  0  0  0  0
 28 27  1  6  0  0  0
 28 29  1  0  0  0  0
 30 31  1  6  0  0  0
 30 28  1  0  0  0  0
 30 29  1  0  0  0  0
 32 33  1  6  0  0  0
 32 30  1  0  0  0  0
 32 35  1  0  0  0  0
 34 35  1  0  0  0  0
 37 41  1  0  0  0  0
 37 38  1  0  0  0  0
 38 40  2  0  0  0  0
 38 36  1  0  0  0  0
 39 40  1  0  0  0  0
 41 43  1  1  0  0  0
 41 39  1  0  0  0  0
 43 42  1  0  0  0  0
M  END
>  <MODEL>
4

>  <REMARK>
 VINA RESULT:      -8.0      4.648      9.436
  Name = 
  9 active torsions:
  status: ('A' for Active; 'I' for Inactive)
    1  A    between atoms: C_4  and  C_12
    2  A    between atoms: C_7  and  C_20
    3  A    between atoms: C_7  and  O_34
    4  A    between atoms: C_10  and  C_40
    5  A    between atoms: C_12  and  C_19
    6  A    between atoms: C_13  and  C_16
    7  A    between atoms: C_14  and  S_17
    8  A    between atoms: S_17  and  C_39
    9  A    between atoms: C_22  and  C_24
                            x       y       z     vdW  Elec       q    Type
                         _______ _______ _______ _____ _____    ______ ____

>  <TORSDO>
F 9

$$$$
=
 OpenBabel11042412523D

 43 48  0  0  1  0  0  0  0  0999 V2000
  187.3280  178.5270  141.3630 C   0  0  0  0  0  0  0  0  0  0  0  0
  191.0580  178.5860  143.5260 C   0  0  2  0  0  3  0  0  0  0  0  0
  191.7430  177.9870  144.5710 C   0  0  0  0  0  2  0  0  0  0  0  0
  188.6630  178.3180  140.8410 C   0  0  0  0  0  0  0  0  0  0  0  0
  189.0500  178.1990  145.4530 C   0  0  0  0  0  0  0  0  0  0  0  0
  184.8650  178.9760  142.3290 C   0  0  2  0  0  3  0  0  0  0  0  0
  190.2910  178.2700  144.7660 N   0  0  0  0  0  0  0  0  0  0  0  0
  188.9680  177.6930  146.6880 C   0  0  0  0  0  2  0  0  0  0  0  0
  189.6230  177.9750  141.6630 C   0  0  0  0  0  0  0  0  0  0  0  0
  187.8640  178.5340  144.7410 N   0  0  0  0  0  0  0  0  0  0  0  0
  190.6140  177.6340  142.4460 C   0  0  0  0  0  0  0  0  0  0  0  0
  187.6360  177.5020  147.3190 C   0  0  0  0  0  0  0  0  0  0  0  0
  185.5620  178.2530  144.5440 C   0  0  0  0  0  0  0  0  0  0  0  0
  186.2110  178.7170  141.7820 C   0  0  0  0  0  0  0  0  0  0  0  0
  186.5390  177.7500  146.6600 N   0  0  0  0  0  0  0  0  0  0  0  0
  184.6430  178.2380  143.6210 C   0  0  0  0  0  3  0  0  0  0  0  0
  191.3590  176.3720  142.1520 C   0  0  0  0  0  1  0  0  0  0  0  0
  186.5960  178.2710  145.3260 C   0  0  0  0  0  0  0  0  0  0  0  0
  187.5610  176.9930  148.6440 N   0  0  0  0  0  1  0  0  0  0  0  0
  190.2270  177.6010  139.0090 C   0  0  0  0  0  2  0  0  0  0  0  0
  188.8940  178.2160  139.3510 C   0  0  1  0  0  3  0  0  0  0  0  0
  189.8540  176.2350  138.4980 C   0  0  0  0  0  2  0  0  0  0  0  0
  188.5880  176.3400  137.9060 O   0  0  0  0  0  0  0  0  0  0  0  0
  187.8920  177.2770  138.6910 C   0  0  2  0  0  3  0  0  0  0  0  0
  186.7640  178.2560  137.6490 S   0  0  0  0  0  0  0  0  0  0  0  0
  186.1030  176.8160  136.8070 C   0  0  0  0  0  3  0  0  0  0  0  0
  184.7850  176.6760  136.6820 C   0  0  0  0  0  3  0  0  0  0  0  0
  184.2100  175.4850  135.9810 C   0  0  2  0  0  3  0  0  0  0  0  0
  182.8010  175.5130  136.1170 O   0  0  0  0  0  0  0  0  0  0  0  0
  183.4830  174.5730  136.9000 C   0  0  2  0  0  0  0  0  0  0  0  0
  183.4290  174.8950  138.2600 O   0  0  0  0  0  1  0  0  0  0  0  0
  183.1790  173.1430  136.4720 C   0  0  1  0  0  3  0  0  0  0  0  0
  184.1040  172.1840  137.2010 C   0  0  0  0  0  1  0  0  0  0  0  0
  181.8990  171.5430  137.2190 N   0  0  0  0  0  1  0  0  0  0  0  0
  181.8550  172.8270  136.7880 O   0  0  0  0  0  0  0  0  0  0  0  0
  183.8160  178.5840  141.2980 C   0  0  0  0  0  2  0  0  0  0  0  0
  180.9960  178.1920  140.9090 S   0  0  0  0  0  0  0  0  0  0  0  0
  182.4340  178.6720  141.8540 C   0  0  0  0  0  0  0  0  0  0  0  0
  180.8660  178.9610  143.4420 N   0  0  0  0  0  2  0  0  0  0  0  0
  182.2100  179.0110  143.0750 N   0  0  0  0  0  0  0  0  0  0  0  0
  179.9710  178.4990  142.3970 C   0  0  1  0  0  3  0  0  0  0  0  0
  179.5600  180.8780  142.0950 N   0  0  0  0  0  1  0  0  0  0  0  0
  178.9330  179.5680  142.1100 C   0  0  0  0  0  2  0  0  0  0  0  0
  1 14  3  0  0  0  0
  2  3  1  1  0  0  0
  2  7  1  0  0  0  0
  3  7  1  0  0  0  0
  4  1  1  0  0  0  0
  4  9  2  0  0  0  0
  5  8  1  0  0  0  0
  6 36  1  6  0  0  0
  6 16  1  0  0  0  0
  7  5  1  0  0  0  0
  8 12  1  0  0  0  0
  9 11  2  0  0  0  0
 10 18  1  0  0  0  0
 10  5  2  0  0  0  0
 11  2  1  0  0  0  0
 12 19  1  0  0  0  0
 13 18  2  0  0  0  0
 14  6  1  0  0  0  0
 15 12  2  0  0  0  0
 16 13  2  0  0  0  0
 17 11  1  0  0  0  0
 18 15  1  0  0  0  0
 20 21  1  0  0  0  0
 21  4  1  1  0  0  0
 22 20  1  0  0  0  0
 23 22  1  0  0  0  0
 23 24  1  0  0  0  0
 24 25  1  6  0  0  0
 24 21  1  0  0  0  0
 26 25  1  0  0  0  0
 27 26  2  0  0  0  0
 28 29  1  0  0  0  0
 28 27  1  1  0  0  0
 28 30  1  0  0  0  0
 29 30  1  0  0  0  0
 30 31  1  1  0  0  0
 32 35  1  0  0  0  0
 32 30  1  0  0  0  0
 32 33  1  1  0  0  0
 35 34  1  0  0  0  0
 36 38  1  0  0  0  0
 37 38  1  0  0  0  0
 37 41  1  0  0  0  0
 38 40  2  0  0  0  0
 40 39  1  0  0  0  0
 41 43  1  6  0  0  0
 41 39  1  0  0  0  0
 42 43  1  0  0  0  0
M  END
>  <MODEL>
5

>  <REMARK>
 VINA RESULT:      -7.9      3.932      7.615
  Name = 
  9 active torsions:
  status: ('A' for Active; 'I' for Inactive)
    1  A    between atoms: C_4  and  C_12
    2  A    between atoms: C_7  and  C_20
    3  A    between atoms: C_7  and  O_34
    4  A    between atoms: C_10  and  C_40
    5  A    between atoms: C_12  and  C_19
    6  A    between atoms: C_13  and  C_16
    7  A    between atoms: C_14  and  S_17
    8  A    between atoms: S_17  and  C_39
    9  A    between atoms: C_22  and  C_24
                            x       y       z     vdW  Elec       q    Type
                         _______ _______ _______ _____ _____    ______ ____

>  <TORSDO>
F 9

$$$$
=
 OpenBabel11042412523D

 43 48  0  0  1  0  0  0  0  0999 V2000
  186.2720  178.4080  142.7450 C   0  0  0  0  0  0  0  0  0  0  0  0
  183.9600  177.6120  139.1930 C   0  0  2  0  0  3  0  0  0  0  0  0
  182.8650  178.0450  138.4630 C   0  0  0  0  0  2  0  0  0  0  0  0
  186.7300  178.3910  141.3710 C   0  0  0  0  0  0  0  0  0  0  0  0
  182.1050  178.2910  141.1900 C   0  0  0  0  0  0  0  0  0  0  0  0
  185.4270  178.3780  145.2920 C   0  0  2  0  0  3  0  0  0  0  0  0
  182.7410  178.0210  139.9500 N   0  0  0  0  0  0  0  0  0  0  0  0
  180.8550  178.7640  141.2400 C   0  0  0  0  0  3  0  0  0  0  0  0
  185.8560  178.5300  140.4060 C   0  0  0  0  0  0  0  0  0  0  0  0
  182.8770  178.1980  142.3810 N   0  0  0  0  0  2  0  0  0  0  0  0
  185.0190  178.6620  139.4080 C   0  0  0  0  0  0  0  0  0  0  0  0
  180.2720  179.1710  142.5440 C   0  0  0  0  0  0  0  0  0  0  0  0
  183.1580  178.8930  144.5840 C   0  0  0  0  0  0  0  0  0  0  0  0
  185.9070  178.4080  143.8970 C   0  0  0  0  0  0  0  0  0  0  0  0
  180.9850  179.1450  143.6350 N   0  0  0  0  0  0  0  0  0  0  0  0
  184.1160  179.1020  145.4410 C   0  0  0  0  0  3  0  0  0  0  0  0
  185.2320  179.7780  138.4380 C   0  0  0  0  0  1  0  0  0  0  0  0
  182.3350  178.6650  143.6090 C   0  0  0  0  0  0  0  0  0  0  0  0
  178.9330  179.6440  142.5910 N   0  0  0  0  0  1  0  0  0  0  0  0
  189.0770  178.2600  142.2600 C   0  0  0  0  0  2  0  0  0  0  0  0
  188.2040  178.4960  141.0550 C   0  0  1  0  0  3  0  0  0  0  0  0
  189.6690  176.9020  141.9940 C   0  0  0  0  0  2  0  0  0  0  0  0
  189.7740  176.7550  140.6050 O   0  0  0  0  0  0  0  0  0  0  0  0
  188.6460  177.4130  140.0800 C   0  0  2  0  0  3  0  0  0  0  0  0
  189.0570  178.1870  138.4830 S   0  0  0  0  0  0  0  0  0  0  0  0
  189.8360  176.7070  137.8330 C   0  0  0  0  0  3  0  0  0  0  0  0
  191.1070  176.7530  137.4390 C   0  0  0  0  0  3  0  0  0  0  0  0
  191.7800  175.5310  136.8970 C   0  0  2  0  0  3  0  0  0  0  0  0
  192.0520  174.6470  137.9680 O   0  0  0  0  0  0  0  0  0  0  0  0
  193.1490  175.3400  137.4410 C   0  0  2  0  0  0  0  0  0  0  0  0
  193.6490  176.2830  138.3450 O   0  0  0  0  0  1  0  0  0  0  0  0
  194.1270  174.4110  136.7340 C   0  0  1  0  0  3  0  0  0  0  0  0
  195.2400  175.2270  136.1010 C   0  0  0  0  0  1  0  0  0  0  0  0
  195.9800  173.8970  137.7640 N   0  0  0  0  0  1  0  0  0  0  0  0
  194.6830  173.5200  137.6560 O   0  0  0  0  0  0  0  0  0  0  0  0
  186.4840  178.9840  146.2050 C   0  0  0  0  0  2  0  0  0  0  0  0
  188.2880  177.5890  147.9540 S   0  0  0  0  0  0  0  0  0  0  0  0
  187.6670  178.0870  146.3540 C   0  0  0  0  0  0  0  0  0  0  0  0
  189.2830  176.6780  145.6730 N   0  0  0  0  0  2  0  0  0  0  0  0
  188.2470  177.5490  145.3390 N   0  0  0  0  0  0  0  0  0  0  0  0
  189.4920  176.5040  147.0990 C   0  0  1  0  0  3  0  0  0  0  0  0
  191.6820  177.1350  146.2450 N   0  0  0  0  0  1  0  0  0  0  0  0
  190.9110  176.9090  147.4550 C   0  0  0  0  0  2  0  0  0  0  0  0
  1 14  3  0  0  0  0
  2  3  1  6  0  0  0
  2 11  1  0  0  0  0
  2  7  1  0  0  0  0
  3  7  1  0  0  0  0
  4  1  1  0  0  0  0
  5  8  2  0  0  0  0
  5 10  1  0  0  0  0
  6 16  1  0  0  0  0
  6 36  1  1  0  0  0
  7  5  1  0  0  0  0
  8 12  1  0  0  0  0
  9  4  2  0  0  0  0
 10 18  1  0  0  0  0
 11  9  2  0  0  0  0
 12 19  1  0  0  0  0
 12 15  2  0  0  0  0
 13 16  2  0  0  0  0
 14  6  1  0  0  0  0
 17 11  1  0  0  0  0
 18 15  1  0  0  0  0
 18 13  2  0  0  0  0
 21  4  1  1  0  0  0
 21 20  1  0  0  0  0
 22 20  1  0  0  0  0
 23 22  1  0  0  0  0
 24 25  1  6  0  0  0
 24 23  1  0  0  0  0
 24 21  1  0  0  0  0
 26 25  1  0  0  0  0
 27 26  2  0  0  0  0
 28 27  1  1  0  0  0
 28 30  1  0  0  0  0
 28 29  1  0  0  0  0
 30 29  1  0  0  0  0
 30 31  1  1  0  0  0
 32 33  1  1  0  0  0
 32 30  1  0  0  0  0
 32 35  1  0  0  0  0
 35 34  1  0  0  0  0
 36 38  1  0  0  0  0
 38 37  1  0  0  0  0
 39 41  1  0  0  0  0
 40 39  1  0  0  0  0
 40 38  2  0  0  0  0
 41 43  1  6  0  0  0
 41 37  1  0  0  0  0
 42 43  1  0  0  0  0
M  END
>  <MODEL>
6

>  <REMARK>
 VINA RESULT:      -7.8      4.110      9.668
  Name = 
  9 active torsions:
  status: ('A' for Active; 'I' for Inactive)
    1  A    between atoms: C_4  and  C_12
    2  A    between atoms: C_7  and  C_20
    3  A    between atoms: C_7  and  O_34
    4  A    between atoms: C_10  and  C_40
    5  A    between atoms: C_12  and  C_19
    6  A    between atoms: C_13  and  C_16
    7  A    between atoms: C_14  and  S_17
    8  A    between atoms: S_17  and  C_39
    9  A    between atoms: C_22  and  C_24
                            x       y       z     vdW  Elec       q    Type
                         _______ _______ _______ _____ _____    ______ ____

>  <TORSDO>
F 9

$$$$
=
 OpenBabel11042412523D

 43 48  0  0  1  0  0  0  0  0999 V2000
  187.2280  177.9080  141.9670 C   0  0  0  0  0  0  0  0  0  0  0  0
  191.0380  177.9820  143.9850 C   0  0  2  0  0  3  0  0  0  0  0  0
  191.7130  177.5060  145.0980 C   0  0  0  0  0  2  0  0  0  0  0  0
  188.5160  177.4910  141.4520 C   0  0  0  0  0  0  0  0  0  0  0  0
  189.0880  178.1120  146.0030 C   0  0  0  0  0  0  0  0  0  0  0  0
  184.8570  178.7380  142.9090 C   0  0  2  0  0  3  0  0  0  0  0  0
  190.3000  177.9510  145.2820 N   0  0  0  0  0  0  0  0  0  0  0  0
  189.0150  177.8290  147.3080 C   0  0  0  0  0  2  0  0  0  0  0  0
  189.4770  177.2030  142.2930 C   0  0  0  0  0  0  0  0  0  0  0  0
  187.9070  178.4300  145.2780 N   0  0  0  0  0  0  0  0  0  0  0  0
  190.4680  176.9090  143.0960 C   0  0  0  0  0  0  0  0  0  0  0  0
  187.7010  177.8710  147.9990 C   0  0  0  0  0  0  0  0  0  0  0  0
  185.5830  178.3350  145.1950 C   0  0  0  0  0  0  0  0  0  0  0  0
  186.1510  178.2680  142.3780 C   0  0  0  0  0  0  0  0  0  0  0  0
  186.6020  178.1050  147.3380 N   0  0  0  0  0  0  0  0  0  0  0  0
  184.6270  178.2500  144.3140 C   0  0  0  0  0  3  0  0  0  0  0  0
  191.0880  175.5520  143.0010 C   0  0  0  0  0  1  0  0  0  0  0  0
  186.6460  178.3880  145.9340 C   0  0  0  0  0  0  0  0  0  0  0  0
  187.6380  177.5990  149.3930 N   0  0  0  0  0  1  0  0  0  0  0  0
  187.6710  177.8090  139.1070 C   0  0  0  0  0  2  0  0  0  0  0  0
  188.6740  177.1210  139.9950 C   0  0  1  0  0  3  0  0  0  0  0  0
  188.5010  178.8320  138.3770 C   0  0  0  0  0  2  0  0  0  0  0  0
  189.7950  178.3090  138.2540 O   0  0  0  0  0  0  0  0  0  0  0  0
  190.0150  177.5860  139.4400 C   0  0  2  0  0  3  0  0  0  0  0  0
  191.0530  176.1280  139.1050 S   0  0  0  0  0  0  0  0  0  0  0  0
  190.3550  175.8590  137.4750 C   0  0  0  0  0  3  0  0  0  0  0  0
  189.5640  174.8080  137.2640 C   0  0  0  0  0  3  0  0  0  0  0  0
  188.9670  174.5640  135.9140 C   0  0  2  0  0  3  0  0  0  0  0  0
  187.8680  175.4400  135.7370 O   0  0  0  0  0  0  0  0  0  0  0  0
  187.5590  174.0960  135.9850 C   0  0  2  0  0  0  0  0  0  0  0  0
  186.9730  173.9230  137.2430 O   0  0  0  0  0  1  0  0  0  0  0  0
  186.9180  173.4240  134.7780 C   0  0  1  0  0  3  0  0  0  0  0  0
  186.8460  171.9240  135.0060 C   0  0  0  0  0  1  0  0  0  0  0  0
  184.8090  172.9420  135.0580 N   0  0  0  0  0  1  0  0  0  0  0  0
  185.6240  173.9190  134.5940 O   0  0  0  0  0  0  0  0  0  0  0  0
  183.7340  178.2780  141.9890 C   0  0  0  0  0  2  0  0  0  0  0  0
  183.3680  177.5670  139.2290 S   0  0  0  0  0  0  0  0  0  0  0  0
  184.0460  178.5530  140.5560 C   0  0  0  0  0  0  0  0  0  0  0  0
  184.8660  179.7130  138.8110 N   0  0  0  0  0  2  0  0  0  0  0  0
  184.7450  179.5710  140.1930 N   0  0  0  0  0  0  0  0  0  0  0  0
  184.1520  178.7150  138.0350 C   0  0  1  0  0  3  0  0  0  0  0  0
  184.8650  176.5400  137.2100 N   0  0  0  0  0  1  0  0  0  0  0  0
  185.1310  177.9660  137.1490 C   0  0  0  0  0  2  0  0  0  0  0  0
  1 14  3  0  0  0  0
  2  3  1  1  0  0  0
  2  7  1  0  0  0  0
  3  7  1  0  0  0  0
  4  1  1  0  0  0  0
  4  9  2  0  0  0  0
  5  8  1  0  0  0  0
  6 36  1  6  0  0  0
  6 16  1  0  0  0  0
  7  5  1  0  0  0  0
  8 12  1  0  0  0  0
  9 11  2  0  0  0  0
 10 18  1  0  0  0  0
 10  5  2  0  0  0  0
 11  2  1  0  0  0  0
 12 19  1  0  0  0  0
 13 18  2  0  0  0  0
 14  6  1  0  0  0  0
 15 12  2  0  0  0  0
 16 13  2  0  0  0  0
 17 11  1  0  0  0  0
 18 15  1  0  0  0  0
 20 21  1  0  0  0  0
 21  4  1  1  0  0  0
 22 20  1  0  0  0  0
 23 22  1  0  0  0  0
 23 24  1  0  0  0  0
 24 25  1  6  0  0  0
 24 21  1  0  0  0  0
 26 25  1  0  0  0  0
 27 26  2  0  0  0  0
 28 30  1  0  0  0  0
 28 27  1  1  0  0  0
 29 28  1  0  0  0  0
 29 30  1  0  0  0  0
 30 31  1  1  0  0  0
 32 33  1  1  0  0  0
 32 30  1  0  0  0  0
 35 32  1  0  0  0  0
 35 34  1  0  0  0  0
 37 38  1  0  0  0  0
 38 36  1  0  0  0  0
 39 40  1  0  0  0  0
 40 38  2  0  0  0  0
 41 43  1  6  0  0  0
 41 39  1  0  0  0  0
 41 37  1  0  0  0  0
 43 42  1  0  0  0  0
M  END
>  <MODEL>
7

>  <REMARK>
 VINA RESULT:      -7.8      3.929      7.183
  Name = 
  9 active torsions:
  status: ('A' for Active; 'I' for Inactive)
    1  A    between atoms: C_4  and  C_12
    2  A    between atoms: C_7  and  C_20
    3  A    between atoms: C_7  and  O_34
    4  A    between atoms: C_10  and  C_40
    5  A    between atoms: C_12  and  C_19
    6  A    between atoms: C_13  and  C_16
    7  A    between atoms: C_14  and  S_17
    8  A    between atoms: S_17  and  C_39
    9  A    between atoms: C_22  and  C_24
                            x       y       z     vdW  Elec       q    Type
                         _______ _______ _______ _____ _____    ______ ____

>  <TORSDO>
F 9

$$$$
=
 OpenBabel11042412523D

 43 48  0  0  1  0  0  0  0  0999 V2000
  186.2940  178.4550  142.7860 C   0  0  0  0  0  0  0  0  0  0  0  0
  183.9840  177.6470  139.2360 C   0  0  2  0  0  3  0  0  0  0  0  0
  182.8770  178.0650  138.5140 C   0  0  0  0  0  2  0  0  0  0  0  0
  186.7460  178.4590  141.4100 C   0  0  0  0  0  0  0  0  0  0  0  0
  182.1230  178.2710  141.2460 C   0  0  0  0  0  0  0  0  0  0  0  0
  185.4600  178.3850  145.3360 C   0  0  2  0  0  3  0  0  0  0  0  0
  182.7600  178.0250  140.0010 N   0  0  0  0  0  0  0  0  0  0  0  0
  180.8650  178.7190  141.3050 C   0  0  0  0  0  3  0  0  0  0  0  0
  185.8650  178.5900  140.4500 C   0  0  0  0  0  0  0  0  0  0  0  0
  182.9020  178.1820  142.4330 N   0  0  0  0  0  2  0  0  0  0  0  0
  185.0230  178.7150  139.4570 C   0  0  0  0  0  0  0  0  0  0  0  0
  180.2800  179.1020  142.6160 C   0  0  0  0  0  0  0  0  0  0  0  0
  183.1780  178.8620  144.6420 C   0  0  0  0  0  0  0  0  0  0  0  0
  185.9330  178.4370  143.9390 C   0  0  0  0  0  0  0  0  0  0  0  0
  180.9970  179.0800  143.7040 N   0  0  0  0  0  0  0  0  0  0  0  0
  184.1360  179.0820  145.4960 C   0  0  0  0  0  3  0  0  0  0  0  0
  185.2100  179.8440  138.4960 C   0  0  0  0  0  1  0  0  0  0  0  0
  182.3560  178.6270  143.6680 C   0  0  0  0  0  0  0  0  0  0  0  0
  178.9310  179.5480  142.6720 N   0  0  0  0  0  1  0  0  0  0  0  0
  189.1030  178.2510  142.2570 C   0  0  0  0  0  2  0  0  0  0  0  0
  188.2160  178.5970  141.0890 C   0  0  1  0  0  3  0  0  0  0  0  0
  189.6940  176.9250  141.8610 C   0  0  0  0  0  2  0  0  0  0  0  0
  189.7830  176.9080  140.4620 O   0  0  0  0  0  0  0  0  0  0  0  0
  188.6490  177.6090  140.0130 C   0  0  2  0  0  3  0  0  0  0  0  0
  189.0420  178.5290  138.4910 S   0  0  0  0  0  0  0  0  0  0  0  0
  188.9030  177.0820  137.4400 C   0  0  0  0  0  3  0  0  0  0  0  0
  187.8600  176.2660  137.5800 C   0  0  0  0  0  3  0  0  0  0  0  0
  187.7200  175.0540  136.7130 C   0  0  2  0  0  3  0  0  0  0  0  0
  186.9440  175.3930  135.5790 O   0  0  0  0  0  0  0  0  0  0  0  0
  186.3090  174.6180  136.5590 C   0  0  2  0  0  0  0  0  0  0  0  0
  185.3090  175.3380  137.2210 O   0  0  0  0  0  1  0  0  0  0  0  0
  185.9950  173.2130  136.0630 C   0  0  1  0  0  3  0  0  0  0  0  0
  184.9100  172.5960  136.9280 C   0  0  0  0  0  1  0  0  0  0  0  0
  184.1970  173.2170  134.8290 N   0  0  0  0  0  1  0  0  0  0  0  0
  185.5480  173.2670  134.7410 O   0  0  0  0  0  0  0  0  0  0  0  0
  186.5080  179.0030  146.2500 C   0  0  0  0  0  2  0  0  0  0  0  0
  188.4450  177.8410  148.0270 S   0  0  0  0  0  0  0  0  0  0  0  0
  187.6850  178.1020  146.4320 C   0  0  0  0  0  0  0  0  0  0  0  0
  189.2040  176.5530  145.8390 N   0  0  0  0  0  2  0  0  0  0  0  0
  188.1570  177.3940  145.4670 N   0  0  0  0  0  0  0  0  0  0  0  0
  189.5440  176.5980  147.2500 C   0  0  1  0  0  3  0  0  0  0  0  0
  191.6250  177.1220  146.1030 N   0  0  0  0  0  1  0  0  0  0  0  0
  190.9980  177.0080  147.4070 C   0  0  0  0  0  2  0  0  0  0  0  0
  1 14  3  0  0  0  0
  2  3  1  6  0  0  0
  2 11  1  0  0  0  0
  2  7  1  0  0  0  0
  3  7  1  0  0  0  0
  4  1  1  0  0  0  0
  5  8  2  0  0  0  0
  5 10  1  0  0  0  0
  6 16  1  0  0  0  0
  6 36  1  1  0  0  0
  7  5  1  0  0  0  0
  8 12  1  0  0  0  0
  9  4  2  0  0  0  0
 10 18  1  0  0  0  0
 11  9  2  0  0  0  0
 12 19  1  0  0  0  0
 12 15  2  0  0  0  0
 13 16  2  0  0  0  0
 14  6  1  0  0  0  0
 17 11  1  0  0  0  0
 18 15  1  0  0  0  0
 18 13  2  0  0  0  0
 21  4  1  1  0  0  0
 21 20  1  0  0  0  0
 22 20  1  0  0  0  0
 23 22  1  0  0  0  0
 24 25  1  6  0  0  0
 24 23  1  0  0  0  0
 24 21  1  0  0  0  0
 26 27  2  0  0  0  0
 26 25  1  0  0  0  0
 28 27  1  1  0  0  0
 29 30  1  0  0  0  0
 29 28  1  0  0  0  0
 30 28  1  0  0  0  0
 30 31  1  1  0  0  0
 32 30  1  0  0  0  0
 32 33  1  1  0  0  0
 35 34  1  0  0  0  0
 35 32  1  0  0  0  0
 36 38  1  0  0  0  0
 38 37  1  0  0  0  0
 39 41  1  0  0  0  0
 40 39  1  0  0  0  0
 40 38  2  0  0  0  0
 41 43  1  6  0  0  0
 41 37  1  0  0  0  0
 42 43  1  0  0  0  0
M  END
>  <MODEL>
8

>  <REMARK>
 VINA RESULT:      -7.7      4.046      8.193
  Name = 
  9 active torsions:
  status: ('A' for Active; 'I' for Inactive)
    1  A    between atoms: C_4  and  C_12
    2  A    between atoms: C_7  and  C_20
    3  A    between atoms: C_7  and  O_34
    4  A    between atoms: C_10  and  C_40
    5  A    between atoms: C_12  and  C_19
    6  A    between atoms: C_13  and  C_16
    7  A    between atoms: C_14  and  S_17
    8  A    between atoms: S_17  and  C_39
    9  A    between atoms: C_22  and  C_24
                            x       y       z     vdW  Elec       q    Type
                         _______ _______ _______ _____ _____    ______ ____

>  <TORSDO>
F 9

$$$$
=
 OpenBabel11042412523D

 43 48  0  0  1  0  0  0  0  0999 V2000
  186.1100  178.2390  141.1770 C   0  0  0  0  0  0  0  0  0  0  0  0
  185.3300  176.5800  137.2740 C   0  0  2  0  0  3  0  0  0  0  0  0
  184.5600  176.7440  136.1330 C   0  0  0  0  0  2  0  0  0  0  0  0
  187.0450  178.0520  140.0860 C   0  0  0  0  0  0  0  0  0  0  0  0
  182.8310  177.3420  138.3060 C   0  0  0  0  0  0  0  0  0  0  0  0
  184.3840  178.5260  143.2110 C   0  0  2  0  0  3  0  0  0  0  0  0
  183.8960  176.9520  137.4520 N   0  0  0  0  0  0  0  0  0  0  0  0
  181.6270  177.6560  137.8150 C   0  0  0  0  0  3  0  0  0  0  0  0
  186.5850  177.9180  138.8680 C   0  0  0  0  0  0  0  0  0  0  0  0
  183.1100  177.5460  139.6860 N   0  0  0  0  0  2  0  0  0  0  0  0
  186.1720  177.7760  137.6340 C   0  0  0  0  0  0  0  0  0  0  0  0
  180.5800  178.1970  138.7200 C   0  0  0  0  0  0  0  0  0  0  0  0
  182.5140  178.6270  141.6590 C   0  0  0  0  0  0  0  0  0  0  0  0
  185.3440  178.3850  142.1000 C   0  0  0  0  0  0  0  0  0  0  0  0
  180.8380  178.4420  139.9740 N   0  0  0  0  0  0  0  0  0  0  0  0
  183.0730  179.0950  142.7380 C   0  0  0  0  0  3  0  0  0  0  0  0
  186.6660  178.7340  136.5980 C   0  0  0  0  0  1  0  0  0  0  0  0
  182.1260  178.1390  140.5230 C   0  0  0  0  0  0  0  0  0  0  0  0
  179.2940  178.4980  138.1940 N   0  0  0  0  0  1  0  0  0  0  0  0
  188.9110  178.2870  141.7520 C   0  0  0  0  0  2  0  0  0  0  0  0
  188.5220  178.2890  140.2970 C   0  0  1  0  0  3  0  0  0  0  0  0
  189.6480  176.9840  141.9100 C   0  0  0  0  0  2  0  0  0  0  0  0
  190.2600  176.6980  140.6820 O   0  0  0  0  0  0  0  0  0  0  0  0
  189.3600  177.1620  139.7060 C   0  0  2  0  0  3  0  0  0  0  0  0
  190.2710  177.7970  138.2630 S   0  0  0  0  0  0  0  0  0  0  0  0
  191.6650  176.6950  138.5090 C   0  0  0  0  0  3  0  0  0  0  0  0
  192.1290  175.9830  137.4840 C   0  0  0  0  0  3  0  0  0  0  0  0
  193.2920  175.0590  137.6630 C   0  0  2  0  0  3  0  0  0  0  0  0
  194.3060  175.7380  138.3810 O   0  0  0  0  0  0  0  0  0  0  0  0
  194.5290  175.5590  137.0100 C   0  0  2  0  0  0  0  0  0  0  0  0
  194.4760  176.7720  136.3140 O   0  0  0  0  0  1  0  0  0  0  0  0
  195.6850  174.6070  136.7370 C   0  0  1  0  0  3  0  0  0  0  0  0
  196.1740  174.7920  135.3110 C   0  0  0  0  0  1  0  0  0  0  0  0
  197.6710  175.5010  136.8620 N   0  0  0  0  0  1  0  0  0  0  0  0
  196.7360  174.8750  137.6170 O   0  0  0  0  0  0  0  0  0  0  0  0
  184.9910  179.4040  144.2970 C   0  0  0  0  0  2  0  0  0  0  0  0
  185.7210  178.6330  146.9670 S   0  0  0  0  0  0  0  0  0  0  0  0
  185.9020  178.6290  145.1900 C   0  0  0  0  0  0  0  0  0  0  0  0
  187.5110  177.1430  145.7020 N   0  0  0  0  0  2  0  0  0  0  0  0
  186.8090  177.8450  144.7230 N   0  0  0  0  0  0  0  0  0  0  0  0
  187.0670  177.3920  147.0620 C   0  0  1  0  0  3  0  0  0  0  0  0
  189.4520  177.8680  147.1080 N   0  0  0  0  0  1  0  0  0  0  0  0
  188.2250  177.9320  147.8810 C   0  0  0  0  0  2  0  0  0  0  0  0
  1 14  3  0  0  0  0
  2  3  1  6  0  0  0
  2  7  1  0  0  0  0
  2 11  1  0  0  0  0
  3  7  1  0  0  0  0
  4  1  1  0  0  0  0
  5 10  1  0  0  0  0
  6 36  1  1  0  0  0
  7  5  1  0  0  0  0
  8  5  2  0  0  0  0
  8 12  1  0  0  0  0
  9  4  2  0  0  0  0
 10 18  1  0  0  0  0
 11  9  2  0  0  0  0
 12 15  2  0  0  0  0
 13 16  2  0  0  0  0
 14  6  1  0  0  0  0
 15 18  1  0  0  0  0
 16  6  1  0  0  0  0
 17 11  1  0  0  0  0
 18 13  2  0  0  0  0
 19 12  1  0  0  0  0
 20 22  1  0  0  0  0
 21  4  1  1  0  0  0
 21 20  1  0  0  0  0
 23 22  1  0  0  0  0
 24 25  1  6  0  0  0
 24 21  1  0  0  0  0
 24 23  1  0  0  0  0
 25 26  1  0  0  0  0
 27 26  2  0  0  0  0
 28 27  1  6  0  0  0
 28 29  1  0  0  0  0
 30 31  1  6  0  0  0
 30 28  1  0  0  0  0
 30 29  1  0  0  0  0
 32 33  1  6  0  0  0
 32 30  1  0  0  0  0
 32 35  1  0  0  0  0
 34 35  1  0  0  0  0
 36 38  1  0  0  0  0
 37 41  1  0  0  0  0
 38 37  1  0  0  0  0
 39 41  1  0  0  0  0
 40 38  2  0  0  0  0
 40 39  1  0  0  0  0
 41 43  1  1  0  0  0
 42 43  1  0  0  0  0
M  END
>  <MODEL>
9

>  <REMARK>
 VINA RESULT:      -7.7      4.283     10.670
  Name = 
  9 active torsions:
  status: ('A' for Active; 'I' for Inactive)
    1  A    between atoms: C_4  and  C_12
    2  A    between atoms: C_7  and  C_20
    3  A    between atoms: C_7  and  O_34
    4  A    between atoms: C_10  and  C_40
    5  A    between atoms: C_12  and  C_19
    6  A    between atoms: C_13  and  C_16
    7  A    between atoms: C_14  and  S_17
    8  A    between atoms: S_17  and  C_39
    9  A    between atoms: C_22  and  C_24
                            x       y       z     vdW  Elec       q    Type
                         _______ _______ _______ _____ _____    ______ ____

>  <TORSDO>
F 9

$$$$
