=
 OpenBabel11032421233D

 64 70  0  0  1  0  0  0  0  0999 V2000
  186.1860  178.9320  140.6730 C   0  0  0  0  0  2  0  0  0  0  0  0
  186.5610  178.4160  142.0430 C   0  0  2  0  0  3  0  0  0  0  0  0
  186.8230  177.5580  140.8140 C   0  0  2  0  0  3  0  0  0  0  0  0
  188.2920  177.5910  140.4730 C   0  0  0  0  0  0  0  0  0  0  0  0
  188.7310  177.3120  139.2790 N   0  0  0  0  0  0  0  0  0  0  0  0
  189.6430  179.0500  141.7660 O   0  0  0  0  0  0  0  0  0  0  0  0
  189.2800  177.8630  141.5320 C   0  0  0  0  0  0  0  0  0  0  0  0
  189.8000  176.7990  142.2750 O   0  0  0  0  0  0  0  0  0  0  0  0
  190.7000  176.9720  143.3670 C   0  0  0  0  0  2  0  0  0  0  0  0
  188.5010  176.9560  144.6090 C   0  0  0  0  0  2  0  0  0  0  0  0
  189.9740  177.3450  144.6610 C   0  0  1  0  0  3  0  0  0  0  0  0
  187.6920  177.8480  145.5350 C   0  0  0  0  0  2  0  0  0  0  0  0
  190.6940  176.7790  145.8500 C   0  0  0  0  0  3  0  0  0  0  0  0
  190.3470  176.9750  147.1250 C   0  0  0  0  0  3  0  0  0  0  0  0
  187.8040  177.3750  146.9760 C   0  0  0  0  0  2  0  0  0  0  0  0
  189.1410  177.6850  147.5750 C   0  0  0  0  0  0  0  0  0  0  0  0
  189.1740  178.2780  148.7220 N   0  0  0  0  0  2  0  0  0  0  0  0
  187.8990  176.9500  138.1330 C   0  0  1  0  0  3  0  0  0  0  0  0
  187.2020  178.2130  137.5900 C   0  0  0  0  0  3  0  0  0  0  0  0
  187.3720  178.3800  136.0910 C   0  0  0  0  0  2  0  0  0  0  0  0
  186.0480  177.8990  136.6560 C   0  0  0  0  0  2  0  0  0  0  0  0
  188.6530  176.0830  137.0930 C   0  0  2  0  0  3  0  0  0  0  0  0
  188.3520  174.0720  135.6470 C   0  0  0  0  0  3  0  0  0  0  0  0
  187.9300  174.8170  136.7530 C   0  0  0  0  0  0  0  0  0  0  0  0
  187.6890  172.8910  135.2970 C   0  0  0  0  0  3  0  0  0  0  0  0
  186.8330  174.3740  137.5070 C   0  0  0  0  0  3  0  0  0  0  0  0
  186.5960  172.4520  136.0510 C   0  0  0  0  0  3  0  0  0  0  0  0
  186.1680  173.1940  137.1560 C   0  0  0  0  0  3  0  0  0  0  0  0
  193.5690  176.5590  136.7450 C   0  0  0  0  0  1  0  0  0  0  0  0
  191.9560  175.2310  138.1930 C   0  0  0  0  0  2  0  0  0  0  0  0
  190.6200  175.0960  138.2810 N   0  0  0  0  0  0  0  0  0  0  0  0
  192.2170  176.1170  137.1730 C   0  0  0  0  0  0  0  0  0  0  0  0
  190.1260  175.8960  137.3120 C   0  0  0  0  0  0  0  0  0  0  0  0
  191.0750  176.5530  136.6160 N   0  0  0  0  0  0  0  0  0  0  0  0
  185.3350  177.8830  142.7560 C   0  0  0  0  0  2  0  0  0  0  0  0
  184.9330  179.8900  143.9800 O   0  0  0  0  0  0  0  0  0  0  0  0
  184.4660  179.0140  143.2040 C   0  0  0  0  0  0  0  0  0  0  0  0
  182.1440  178.9670  143.6000 N   0  0  0  0  0  0  0  0  0  0  0  0
  183.1060  179.1080  142.7770 N   0  0  0  0  0  0  0  0  0  0  0  0
  180.7680  179.0660  143.1480 C   0  0  0  0  0  2  0  0  0  0  0  0
  179.1470  177.9070  141.8170 O   0  0  0  0  0  0  0  0  0  0  0  0
  180.5290  178.1150  141.9780 C   0  0  1  0  0  3  0  0  0  0  0  0
  179.7700  178.7000  140.8330 C   0  0  2  0  0  3  0  0  0  0  0  0
  179.5320  181.0790  140.0060 C   0  0  0  0  0  0  0  0  0  0  0  0
  179.4030  180.0970  141.0350 N   0  0  0  0  0  2  0  0  0  0  0  0
  179.1350  182.2540  140.2250 O   0  0  0  0  0  0  0  0  0  0  0  0
  180.0840  180.7100  138.6620 C   0  0  2  0  0  3  0  0  0  0  0  0
  180.9760  181.7760  138.0780 C   0  0  0  0  0  0  0  0  0  0  0  0
  180.5070  182.6240  137.0810 O   0  0  0  0  0  0  0  0  0  0  0  0
  182.1300  181.9620  138.5460 O   0  0  0  0  0  1  0  0  0  0  0  0
  178.9380  180.3380  137.7260 C   0  0  0  0  0  2  0  0  0  0  0  0
  179.3660  179.2680  136.7270 C   0  0  0  0  0  2  0  0  0  0  0  0
  179.8960  176.7810  136.9370 C   0  0  0  0  0  0  0  0  0  0  0  0
  179.6070  175.6780  137.4720 O   0  0  0  0  0  0  0  0  0  0  0  0
  179.1050  177.9300  137.2490 N   0  0  0  0  0  2  0  0  0  0  0  0
  181.9730  174.6190  135.2640 C   0  0  0  0  0  0  0  0  0  0  0  0
  182.3460  178.0440  137.7040 O   0  0  0  0  0  1  0  0  0  0  0  0
  182.4230  177.0720  136.7040 C   0  0  1  0  0  3  0  0  0  0  0  0
  181.7880  173.5680  134.5950 O   0  0  0  0  0  0  0  0  0  0  0  0
  181.0960  175.7370  135.0810 N   0  0  0  0  0  2  0  0  0  0  0  0
  182.2140  175.2620  138.3020 O   0  0  0  0  0  1  0  0  0  0  0  0
  182.9990  175.7660  137.2630 C   0  0  1  0  0  3  0  0  0  0  0  0
  183.1700  174.7150  136.1680 C   0  0  0  0  0  2  0  0  0  0  0  0
  181.0680  176.8790  135.9950 C   0  0  1  0  0  3  0  0  0  0  0  0
  1  3  1  0  0  0  0
  1  2  1  0  0  0  0
  2 35  1  1  0  0  0
  3  4  1  6  0  0  0
  3  2  1  0  0  0  0
  4  7  1  0  0  0  0
  5  4  2  0  0  0  0
  7  6  2  0  0  0  0
  7  8  1  0  0  0  0
  8  9  1  0  0  0  0
 10 11  1  0  0  0  0
 10 12  1  0  0  0  0
 11  9  1  6  0  0  0
 11 13  1  0  0  0  0
 12 15  1  0  0  0  0
 13 14  2  0  0  0  0
 14 16  1  0  0  0  0
 15 16  1  0  0  0  0
 16 17  2  0  0  0  0
 18  5  1  1  0  0  0
 19 18  1  0  0  0  0
 20 21  1  0  0  0  0
 20 19  1  0  0  0  0
 21 19  1  0  0  0  0
 22 33  1  0  0  0  0
 22 18  1  1  0  0  0
 23 24  1  0  0  0  0
 24 22  1  0  0  0  0
 24 26  2  0  0  0  0
 25 23  2  0  0  0  0
 25 27  1  0  0  0  0
 27 28  2  0  0  0  0
 28 26  1  0  0  0  0
 29 32  1  0  0  0  0
 30 31  1  0  0  0  0
 32 30  1  0  0  0  0
 33 31  2  0  0  0  0
 34 32  2  0  0  0  0
 34 33  1  0  0  0  0
 35 37  1  0  0  0  0
 37 36  2  0  0  0  0
 39 37  1  0  0  0  0
 39 38  2  0  0  0  0
 40 38  1  0  0  0  0
 41 42  1  0  0  0  0
 42 40  1  1  0  0  0
 43 45  1  1  0  0  0
 43 41  1  0  0  0  0
 43 42  1  0  0  0  0
 44 46  2  0  0  0  0
 44 45  1  0  0  0  0
 47 51  1  6  0  0  0
 47 44  1  0  0  0  0
 48 50  1  0  0  0  0
 48 47  1  0  0  0  0
 49 48  2  0  0  0  0
 52 55  1  0  0  0  0
 52 51  1  0  0  0  0
 53 55  1  0  0  0  0
 53 54  2  0  0  0  0
 56 63  1  0  0  0  0
 58 62  1  0  0  0  0
 58 57  1  1  0  0  0
 59 56  2  0  0  0  0
 60 56  1  0  0  0  0
 60 64  1  0  0  0  0
 62 61  1  1  0  0  0
 63 62  1  0  0  0  0
 64 58  1  0  0  0  0
 64 53  1  1  0  0  0
M  END
>  <MODEL>
1

>  <REMARK>
 VINA RESULT:      -6.2      0.000      0.000
  Name = 
  22 active torsions:
  status: ('A' for Active; 'I' for Inactive)
    1  A    between atoms: C_5  and  C_37
    2  A    between atoms: C_7  and  C_64
    3  A    between atoms: C_10  and  C_48
    4  A    between atoms: C_12  and  C_51
    5  A    between atoms: C_16  and  C_48
    6  A    between atoms: C_17  and  C_26
    7  A    between atoms: N_21  and  C_61
    8  A    between atoms: C_22  and  C_39
    9  A    between atoms: C_22  and  C_50
   10  A    between atoms: C_23  and  C_42
   11  A    between atoms: C_23  and  C_62
   12  A    between atoms: C_26  and  O_47
   13  A    between atoms: C_31  and  N_44
   14  A    between atoms: C_31  and  C_59
   15  A    between atoms: C_32  and  N_33
   16  A    between atoms: C_32  and  C_54
   17  A    between atoms: N_36  and  C_50
   18  A    between atoms: C_37  and  C_51
   19  A    between atoms: C_37  and  N_57
   20  A    between atoms: C_38  and  C_51
   21  A    between atoms: O_47  and  C_62
   22  A    between atoms: C_48  and  C_59
                            x       y       z     vdW  Elec       q    Type
                         _______ _______ _______ _____ _____    ______ ____

>  <TORSDO>
F 22

$$$$
=
 OpenBabel11032421233D

 64 70  0  0  1  0  0  0  0  0999 V2000
  186.7330  178.5790  140.5730 C   0  0  0  0  0  2  0  0  0  0  0  0
  187.0780  178.3530  142.0260 C   0  0  2  0  0  3  0  0  0  0  0  0
  187.6560  177.4340  140.9610 C   0  0  2  0  0  3  0  0  0  0  0  0
  189.1040  177.7830  140.7190 C   0  0  0  0  0  0  0  0  0  0  0  0
  189.6740  177.6040  139.5620 N   0  0  0  0  0  0  0  0  0  0  0  0
  189.8250  179.4550  142.2380 O   0  0  0  0  0  0  0  0  0  0  0  0
  189.9340  178.2630  141.8370 C   0  0  0  0  0  0  0  0  0  0  0  0
  190.8330  177.3850  142.4510 O   0  0  0  0  0  0  0  0  0  0  0  0
  190.4350  176.1640  143.0710 C   0  0  0  0  0  2  0  0  0  0  0  0
  191.4140  176.7770  145.3180 C   0  0  0  0  0  2  0  0  0  0  0  0
  190.1620  176.3380  144.5670 C   0  0  1  0  0  3  0  0  0  0  0  0
  191.3330  176.3400  146.7690 C   0  0  0  0  0  2  0  0  0  0  0  0
  188.9910  177.2510  144.7850 C   0  0  0  0  0  3  0  0  0  0  0  0
  188.4650  177.5580  145.9740 C   0  0  0  0  0  3  0  0  0  0  0  0
  190.4700  177.2990  147.5750 C   0  0  0  0  0  2  0  0  0  0  0  0
  189.0110  177.1410  147.2750 C   0  0  0  0  0  0  0  0  0  0  0  0
  188.1930  177.0080  148.2650 N   0  0  0  0  0  2  0  0  0  0  0  0
  189.0200  177.0700  138.3680 C   0  0  1  0  0  3  0  0  0  0  0  0
  189.1070  178.1080  137.2320 C   0  0  0  0  0  3  0  0  0  0  0  0
  187.8820  179.0010  137.1550 C   0  0  0  0  0  2  0  0  0  0  0  0
  189.1780  179.5370  137.7380 C   0  0  0  0  0  2  0  0  0  0  0  0
  189.4860  175.6340  138.0200 C   0  0  2  0  0  3  0  0  0  0  0  0
  191.7680  176.6310  138.1710 C   0  0  0  0  0  3  0  0  0  0  0  0
  190.9720  175.5160  137.8870 C   0  0  0  0  0  0  0  0  0  0  0  0
  193.1590  176.5560  138.0440 C   0  0  0  0  0  3  0  0  0  0  0  0
  191.5790  174.3220  137.4710 C   0  0  0  0  0  3  0  0  0  0  0  0
  193.7600  175.3630  137.6300 C   0  0  0  0  0  3  0  0  0  0  0  0
  192.9700  174.2470  137.3420 C   0  0  0  0  0  3  0  0  0  0  0  0
  186.1560  172.8320  135.6580 C   0  0  0  0  0  1  0  0  0  0  0  0
  188.0810  174.3490  134.9830 C   0  0  0  0  0  2  0  0  0  0  0  0
  188.9900  175.1040  135.6270 N   0  0  0  0  0  0  0  0  0  0  0  0
  187.2940  173.7450  135.9370 C   0  0  0  0  0  0  0  0  0  0  0  0
  188.7260  174.9230  136.9380 C   0  0  0  0  0  0  0  0  0  0  0  0
  187.6800  174.1050  137.1720 N   0  0  0  0  0  0  0  0  0  0  0  0
  185.9430  177.6320  142.7270 C   0  0  0  0  0  2  0  0  0  0  0  0
  185.5070  178.9850  144.6410 O   0  0  0  0  0  0  0  0  0  0  0  0
  185.1170  178.6040  143.5060 C   0  0  0  0  0  0  0  0  0  0  0  0
  182.7890  178.9430  143.6280 N   0  0  0  0  0  0  0  0  0  0  0  0
  183.8790  179.0940  142.9880 N   0  0  0  0  0  0  0  0  0  0  0  0
  181.5400  179.4480  143.0850 C   0  0  0  0  0  2  0  0  0  0  0  0
  179.3480  178.4990  143.2680 O   0  0  0  0  0  0  0  0  0  0  0  0
  180.6220  178.2880  142.7100 C   0  0  1  0  0  3  0  0  0  0  0  0
  179.4430  178.6610  141.8710 C   0  0  2  0  0  3  0  0  0  0  0  0
  179.7110  180.5800  140.2460 C   0  0  0  0  0  0  0  0  0  0  0  0
  179.3910  180.0810  141.5450 N   0  0  0  0  0  2  0  0  0  0  0  0
  179.5820  181.8110  140.0110 O   0  0  0  0  0  0  0  0  0  0  0  0
  180.1470  179.6480  139.1550 C   0  0  2  0  0  3  0  0  0  0  0  0
  181.2710  180.2050  138.3180 C   0  0  0  0  0  0  0  0  0  0  0  0
  182.5520  180.3250  138.8430 O   0  0  0  0  0  1  0  0  0  0  0  0
  181.0760  180.4930  137.1080 O   0  0  0  0  0  0  0  0  0  0  0  0
  178.9380  179.2540  138.3110 C   0  0  0  0  0  2  0  0  0  0  0  0
  178.9320  177.7560  138.0230 C   0  0  0  0  0  2  0  0  0  0  0  0
  180.5660  175.9120  138.6880 C   0  0  0  0  0  0  0  0  0  0  0  0
  181.2470  175.3800  139.6040 O   0  0  0  0  0  0  0  0  0  0  0  0
  179.7340  177.0300  139.0040 N   0  0  0  0  0  2  0  0  0  0  0  0
  181.4540  172.9710  137.1560 C   0  0  0  0  0  0  0  0  0  0  0  0
  182.2780  177.0890  136.7210 O   0  0  0  0  0  1  0  0  0  0  0  0
  181.9500  175.7420  136.5490 C   0  0  1  0  0  3  0  0  0  0  0  0
  181.2110  171.7560  137.3840 O   0  0  0  0  0  0  0  0  0  0  0  0
  180.3990  173.9350  137.2600 N   0  0  0  0  0  2  0  0  0  0  0  0
  183.4990  175.0370  138.2740 O   0  0  0  0  0  1  0  0  0  0  0  0
  183.1300  174.8450  136.9410 C   0  0  1  0  0  3  0  0  0  0  0  0
  182.8230  173.3710  136.6820 C   0  0  0  0  0  2  0  0  0  0  0  0
  180.6450  175.3770  137.2810 C   0  0  1  0  0  3  0  0  0  0  0  0
  1  3  1  0  0  0  0
  1  2  1  0  0  0  0
  2 35  1  1  0  0  0
  3  4  1  6  0  0  0
  3  2  1  0  0  0  0
  4  7  1  0  0  0  0
  5  4  2  0  0  0  0
  7  6  2  0  0  0  0
  7  8  1  0  0  0  0
  8  9  1  0  0  0  0
 10 12  1  0  0  0  0
 11  9  1  6  0  0  0
 11 13  1  0  0  0  0
 11 10  1  0  0  0  0
 12 15  1  0  0  0  0
 13 14  2  0  0  0  0
 14 16  1  0  0  0  0
 16 15  1  0  0  0  0
 16 17  2  0  0  0  0
 18  5  1  1  0  0  0
 19 21  1  0  0  0  0
 19 18  1  0  0  0  0
 20 19  1  0  0  0  0
 20 21  1  0  0  0  0
 22 18  1  6  0  0  0
 24 22  1  0  0  0  0
 24 23  2  0  0  0  0
 25 23  1  0  0  0  0
 26 24  1  0  0  0  0
 27 25  2  0  0  0  0
 28 26  2  0  0  0  0
 28 27  1  0  0  0  0
 29 32  1  0  0  0  0
 30 31  1  0  0  0  0
 30 32  1  0  0  0  0
 31 33  2  0  0  0  0
 32 34  2  0  0  0  0
 33 34  1  0  0  0  0
 33 22  1  0  0  0  0
 35 37  1  0  0  0  0
 37 36  2  0  0  0  0
 39 37  1  0  0  0  0
 39 38  2  0  0  0  0
 40 38  1  0  0  0  0
 42 40  1  1  0  0  0
 42 41  1  0  0  0  0
 43 45  1  1  0  0  0
 43 42  1  0  0  0  0
 43 41  1  0  0  0  0
 44 45  1  0  0  0  0
 46 44  2  0  0  0  0
 47 51  1  6  0  0  0
 47 44  1  0  0  0  0
 48 49  1  0  0  0  0
 48 47  1  0  0  0  0
 50 48  2  0  0  0  0
 52 51  1  0  0  0  0
 52 55  1  0  0  0  0
 53 55  1  0  0  0  0
 53 54  2  0  0  0  0
 56 60  1  0  0  0  0
 56 59  2  0  0  0  0
 58 57  1  1  0  0  0
 58 62  1  0  0  0  0
 58 64  1  0  0  0  0
 60 64  1  0  0  0  0
 62 61  1  1  0  0  0
 63 62  1  0  0  0  0
 63 56  1  0  0  0  0
 64 53  1  1  0  0  0
M  END
>  <MODEL>
2

>  <REMARK>
 VINA RESULT:      -5.5      1.443      2.920
  Name = 
  22 active torsions:
  status: ('A' for Active; 'I' for Inactive)
    1  A    between atoms: C_5  and  C_37
    2  A    between atoms: C_7  and  C_64
    3  A    between atoms: C_10  and  C_48
    4  A    between atoms: C_12  and  C_51
    5  A    between atoms: C_16  and  C_48
    6  A    between atoms: C_17  and  C_26
    7  A    between atoms: N_21  and  C_61
    8  A    between atoms: C_22  and  C_39
    9  A    between atoms: C_22  and  C_50
   10  A    between atoms: C_23  and  C_42
   11  A    between atoms: C_23  and  C_62
   12  A    between atoms: C_26  and  O_47
   13  A    between atoms: C_31  and  N_44
   14  A    between atoms: C_31  and  C_59
   15  A    between atoms: C_32  and  N_33
   16  A    between atoms: C_32  and  C_54
   17  A    between atoms: N_36  and  C_50
   18  A    between atoms: C_37  and  C_51
   19  A    between atoms: C_37  and  N_57
   20  A    between atoms: C_38  and  C_51
   21  A    between atoms: O_47  and  C_62
   22  A    between atoms: C_48  and  C_59
                            x       y       z     vdW  Elec       q    Type
                         _______ _______ _______ _____ _____    ______ ____

>  <TORSDO>
F 22

$$$$
=
 OpenBabel11032421233D

 64 70  0  0  1  0  0  0  0  0999 V2000
  186.4280  177.5390  142.4390 C   0  0  0  0  0  2  0  0  0  0  0  0
  186.6680  178.8740  141.7740 C   0  0  2  0  0  3  0  0  0  0  0  0
  185.3780  178.1150  141.5010 C   0  0  2  0  0  3  0  0  0  0  0  0
  184.2420  178.7510  142.2650 C   0  0  0  0  0  0  0  0  0  0  0  0
  183.1050  179.0390  141.7000 N   0  0  0  0  0  0  0  0  0  0  0  0
  184.0000  180.2490  144.0870 O   0  0  0  0  0  0  0  0  0  0  0  0
  184.4380  179.1400  143.6720 C   0  0  0  0  0  0  0  0  0  0  0  0
  185.1040  178.2670  144.5380 O   0  0  0  0  0  0  0  0  0  0  0  0
  185.4390  178.6030  145.8830 C   0  0  0  0  0  2  0  0  0  0  0  0
  187.1200  177.9620  147.6570 C   0  0  0  0  0  2  0  0  0  0  0  0
  186.9130  178.3380  146.1940 C   0  0  1  0  0  3  0  0  0  0  0  0
  188.5280  178.3230  148.0960 C   0  0  0  0  0  2  0  0  0  0  0  0
  187.4790  177.3280  145.2390 C   0  0  0  0  0  3  0  0  0  0  0  0
  188.7530  176.9270  145.2080 C   0  0  0  0  0  3  0  0  0  0  0  0
  189.5230  177.2640  147.6470 C   0  0  0  0  0  2  0  0  0  0  0  0
  189.7900  177.3230  146.1740 C   0  0  0  0  0  0  0  0  0  0  0  0
  191.0180  177.3470  145.7760 N   0  0  0  0  0  2  0  0  0  0  0  0
  182.7670  178.7900  140.2990 C   0  0  1  0  0  3  0  0  0  0  0  0
  183.3330  177.4210  139.8740 C   0  0  0  0  0  3  0  0  0  0  0  0
  182.8460  176.9820  138.5050 C   0  0  0  0  0  2  0  0  0  0  0  0
  184.2600  177.5080  138.6760 C   0  0  0  0  0  2  0  0  0  0  0  0
  181.2700  179.0380  139.9890 C   0  0  2  0  0  3  0  0  0  0  0  0
  181.0150  181.2470  138.8550 C   0  0  0  0  0  3  0  0  0  0  0  0
  181.0560  179.8530  138.7510 C   0  0  0  0  0  0  0  0  0  0  0  0
  180.8050  182.0340  137.7180 C   0  0  0  0  0  3  0  0  0  0  0  0
  180.8810  179.2480  137.4970 C   0  0  0  0  0  3  0  0  0  0  0  0
  180.6310  181.4270  136.4700 C   0  0  0  0  0  3  0  0  0  0  0  0
  180.6680  180.0340  136.3600 C   0  0  0  0  0  3  0  0  0  0  0  0
  178.9440  179.0950  144.3600 C   0  0  0  0  0  1  0  0  0  0  0  0
  179.1540  180.6720  142.3770 C   0  0  0  0  0  2  0  0  0  0  0  0
  179.7800  180.6520  141.1860 N   0  0  0  0  0  0  0  0  0  0  0  0
  179.4310  179.4830  143.0110 C   0  0  0  0  0  0  0  0  0  0  0  0
  180.4020  179.4550  141.1410 C   0  0  0  0  0  0  0  0  0  0  0  0
  180.2240  178.7100  142.2510 N   0  0  0  0  0  0  0  0  0  0  0  0
  187.5910  178.7080  140.5840 C   0  0  0  0  0  2  0  0  0  0  0  0
  189.2590  178.3250  142.2440 O   0  0  0  0  0  0  0  0  0  0  0  0
  188.9300  178.2170  141.0330 C   0  0  0  0  0  0  0  0  0  0  0  0
  190.4390  176.5410  140.3530 N   0  0  0  0  0  0  0  0  0  0  0  0
  189.8500  177.6420  140.1040 N   0  0  0  0  0  0  0  0  0  0  0  0
  191.3720  175.9720  139.3970 C   0  0  0  0  0  2  0  0  0  0  0  0
  193.4430  177.1650  139.2310 O   0  0  0  0  0  0  0  0  0  0  0  0
  192.1460  177.0830  138.6930 C   0  0  1  0  0  3  0  0  0  0  0  0
  193.3490  176.6310  137.9310 C   0  0  2  0  0  3  0  0  0  0  0  0
  193.9770  174.4340  136.8470 C   0  0  0  0  0  0  0  0  0  0  0  0
  193.5590  175.1890  137.9840 N   0  0  0  0  0  2  0  0  0  0  0  0
  194.2050  173.2020  136.9770 O   0  0  0  0  0  0  0  0  0  0  0  0
  194.1940  175.1030  135.5230 C   0  0  2  0  0  3  0  0  0  0  0  0
  195.3440  176.0780  135.5370 C   0  0  0  0  0  0  0  0  0  0  0  0
  195.1300  177.4300  135.2950 O   0  0  0  0  0  0  0  0  0  0  0  0
  196.5010  175.6890  135.8490 O   0  0  0  0  0  1  0  0  0  0  0  0
  192.8920  175.7520  135.0620 C   0  0  0  0  0  2  0  0  0  0  0  0
  191.8240  174.7010  134.7770 C   0  0  0  0  0  2  0  0  0  0  0  0
  189.8070  175.1830  136.2630 C   0  0  0  0  0  0  0  0  0  0  0  0
  189.1480  174.8680  137.2890 O   0  0  0  0  0  0  0  0  0  0  0  0
  191.0000  174.4580  135.9570 N   0  0  0  0  0  2  0  0  0  0  0  0
  188.6710  178.4000  136.6470 C   0  0  0  0  0  0  0  0  0  0  0  0
  187.4990  174.9000  134.5970 O   0  0  0  0  0  1  0  0  0  0  0  0
  187.8400  176.1970  134.9890 C   0  0  1  0  0  3  0  0  0  0  0  0
  189.0480  179.3860  137.3340 O   0  0  0  0  0  0  0  0  0  0  0  0
  189.6440  177.6030  135.9600 N   0  0  0  0  0  2  0  0  0  0  0  0
  186.9500  175.8680  137.2190 O   0  0  0  0  0  1  0  0  0  0  0  0
  186.8980  176.6920  136.0930 C   0  0  1  0  0  3  0  0  0  0  0  0
  187.2010  178.1390  136.4790 C   0  0  0  0  0  2  0  0  0  0  0  0
  189.3280  176.3010  135.3730 C   0  0  1  0  0  3  0  0  0  0  0  0
  2 35  1  6  0  0  0
  2  1  1  0  0  0  0
  3  2  1  0  0  0  0
  3  4  1  1  0  0  0
  3  1  1  0  0  0  0
  4  7  1  0  0  0  0
  5  4  2  0  0  0  0
  7  6  2  0  0  0  0
  7  8  1  0  0  0  0
  8  9  1  0  0  0  0
 10 12  1  0  0  0  0
 11  9  1  6  0  0  0
 11 10  1  0  0  0  0
 13 11  1  0  0  0  0
 14 13  2  0  0  0  0
 14 16  1  0  0  0  0
 15 12  1  0  0  0  0
 16 15  1  0  0  0  0
 17 16  2  0  0  0  0
 18  5  1  1  0  0  0
 19 18  1  0  0  0  0
 20 21  1  0  0  0  0
 20 19  1  0  0  0  0
 21 19  1  0  0  0  0
 22 18  1  1  0  0  0
 22 33  1  0  0  0  0
 24 23  1  0  0  0  0
 24 22  1  0  0  0  0
 25 23  2  0  0  0  0
 26 24  2  0  0  0  0
 27 25  1  0  0  0  0
 28 27  2  0  0  0  0
 28 26  1  0  0  0  0
 30 32  1  0  0  0  0
 31 30  1  0  0  0  0
 32 29  1  0  0  0  0
 33 31  2  0  0  0  0
 33 34  1  0  0  0  0
 34 32  2  0  0  0  0
 35 37  1  0  0  0  0
 37 36  2  0  0  0  0
 39 38  2  0  0  0  0
 39 37  1  0  0  0  0
 40 38  1  0  0  0  0
 42 41  1  0  0  0  0
 42 40  1  1  0  0  0
 43 45  1  1  0  0  0
 43 42  1  0  0  0  0
 43 41  1  0  0  0  0
 44 46  2  0  0  0  0
 44 45  1  0  0  0  0
 47 51  1  1  0  0  0
 47 48  1  0  0  0  0
 47 44  1  0  0  0  0
 48 50  1  0  0  0  0
 49 48  2  0  0  0  0
 52 51  1  0  0  0  0
 52 55  1  0  0  0  0
 53 54  2  0  0  0  0
 55 53  1  0  0  0  0
 56 59  2  0  0  0  0
 58 57  1  1  0  0  0
 58 64  1  0  0  0  0
 58 62  1  0  0  0  0
 60 56  1  0  0  0  0
 62 63  1  0  0  0  0
 62 61  1  1  0  0  0
 63 56  1  0  0  0  0
 64 60  1  0  0  0  0
 64 53  1  1  0  0  0
M  END
>  <MODEL>
3

>  <REMARK>
 VINA RESULT:      -5.1      3.059      9.715
  Name = 
  22 active torsions:
  status: ('A' for Active; 'I' for Inactive)
    1  A    between atoms: C_5  and  C_37
    2  A    between atoms: C_7  and  C_64
    3  A    between atoms: C_10  and  C_48
    4  A    between atoms: C_12  and  C_51
    5  A    between atoms: C_16  and  C_48
    6  A    between atoms: C_17  and  C_26
    7  A    between atoms: N_21  and  C_61
    8  A    between atoms: C_22  and  C_39
    9  A    between atoms: C_22  and  C_50
   10  A    between atoms: C_23  and  C_42
   11  A    between atoms: C_23  and  C_62
   12  A    between atoms: C_26  and  O_47
   13  A    between atoms: C_31  and  N_44
   14  A    between atoms: C_31  and  C_59
   15  A    between atoms: C_32  and  N_33
   16  A    between atoms: C_32  and  C_54
   17  A    between atoms: N_36  and  C_50
   18  A    between atoms: C_37  and  C_51
   19  A    between atoms: C_37  and  N_57
   20  A    between atoms: C_38  and  C_51
   21  A    between atoms: O_47  and  C_62
   22  A    between atoms: C_48  and  C_59
                            x       y       z     vdW  Elec       q    Type
                         _______ _______ _______ _____ _____    ______ ____

>  <TORSDO>
F 22

$$$$
=
 OpenBabel11032421233D

 64 70  0  0  1  0  0  0  0  0999 V2000
  190.0630  175.6750  137.9310 C   0  0  0  0  0  2  0  0  0  0  0  0
  188.7360  176.3970  137.9270 C   0  0  2  0  0  3  0  0  0  0  0  0
  189.3710  175.9780  136.6100 C   0  0  2  0  0  3  0  0  0  0  0  0
  188.6610  174.7640  136.0650 C   0  0  0  0  0  0  0  0  0  0  0  0
  187.3920  174.7780  135.7730 N   0  0  0  0  0  0  0  0  0  0  0  0
  188.8190  172.4020  136.2210 O   0  0  0  0  0  0  0  0  0  0  0  0
  189.3910  173.4910  135.9330 C   0  0  0  0  0  0  0  0  0  0  0  0
  190.7130  173.5020  135.4800 O   0  0  0  0  0  0  0  0  0  0  0  0
  191.6900  172.5470  135.8880 C   0  0  0  0  0  2  0  0  0  0  0  0
  193.4180  174.0900  134.8810 C   0  0  0  0  0  2  0  0  0  0  0  0
  193.0770  173.1730  136.0500 C   0  0  1  0  0  3  0  0  0  0  0  0
  194.9240  174.1800  134.7100 C   0  0  0  0  0  2  0  0  0  0  0  0
  193.1970  173.8470  137.3860 C   0  0  0  0  0  3  0  0  0  0  0  0
  194.3020  174.4350  137.8550 C   0  0  0  0  0  3  0  0  0  0  0  0
  195.5240  175.1630  135.7030 C   0  0  0  0  0  2  0  0  0  0  0  0
  195.5500  174.6180  137.0980 C   0  0  0  0  0  0  0  0  0  0  0  0
  196.6590  174.6760  137.7570 N   0  0  0  0  0  2  0  0  0  0  0  0
  186.5030  175.9300  135.9120 C   0  0  1  0  0  3  0  0  0  0  0  0
  186.5940  176.8010  134.6440 C   0  0  0  0  0  3  0  0  0  0  0  0
  185.5310  177.8830  134.5940 C   0  0  0  0  0  2  0  0  0  0  0  0
  186.9650  178.2430  134.9380 C   0  0  0  0  0  2  0  0  0  0  0  0
  185.0760  175.5370  136.3710 C   0  0  2  0  0  3  0  0  0  0  0  0
  183.5340  175.8620  138.3060 C   0  0  0  0  0  3  0  0  0  0  0  0
  184.5880  176.3520  137.5280 C   0  0  0  0  0  0  0  0  0  0  0  0
  183.0480  176.6060  139.3860 C   0  0  0  0  0  3  0  0  0  0  0  0
  185.1530  177.5990  137.8360 C   0  0  0  0  0  3  0  0  0  0  0  0
  183.6140  177.8480  139.6900 C   0  0  0  0  0  3  0  0  0  0  0  0
  184.6650  178.3450  138.9150 C   0  0  0  0  0  3  0  0  0  0  0  0
  183.4410  170.9500  135.4750 C   0  0  0  0  0  1  0  0  0  0  0  0
  184.8780  172.0670  137.2490 C   0  0  0  0  0  2  0  0  0  0  0  0
  185.3150  173.3160  137.4960 N   0  0  0  0  0  0  0  0  0  0  0  0
  184.1100  172.1150  136.1080 C   0  0  0  0  0  0  0  0  0  0  0  0
  184.7920  174.0690  136.5050 C   0  0  0  0  0  0  0  0  0  0  0  0
  184.0550  173.3660  135.6220 N   0  0  0  0  0  0  0  0  0  0  0  0
  188.9490  177.8860  138.1180 C   0  0  0  0  0  2  0  0  0  0  0  0
  188.0100  179.0430  139.9780 O   0  0  0  0  0  0  0  0  0  0  0  0
  188.8850  178.2350  139.5700 C   0  0  0  0  0  0  0  0  0  0  0  0
  189.4810  177.4410  141.7060 N   0  0  0  0  0  0  0  0  0  0  0  0
  189.8140  177.6770  140.5000 N   0  0  0  0  0  0  0  0  0  0  0  0
  190.4390  176.8740  142.6380 C   0  0  0  0  0  2  0  0  0  0  0  0
  190.3280  178.8680  143.9620 O   0  0  0  0  0  0  0  0  0  0  0  0
  191.2230  177.9870  143.3280 C   0  0  1  0  0  3  0  0  0  0  0  0
  191.0790  178.0350  144.8140 C   0  0  2  0  0  3  0  0  0  0  0  0
  189.9380  176.8550  146.7400 C   0  0  0  0  0  0  0  0  0  0  0  0
  190.2170  176.9850  145.3460 N   0  0  0  0  0  2  0  0  0  0  0  0
  189.1330  175.9670  147.1260 O   0  0  0  0  0  0  0  0  0  0  0  0
  190.5540  177.7950  147.7330 C   0  0  2  0  0  3  0  0  0  0  0  0
  191.8450  177.2750  148.3130 C   0  0  0  0  0  0  0  0  0  0  0  0
  192.4960  177.9690  149.3270 O   0  0  0  0  0  1  0  0  0  0  0  0
  192.3050  176.1640  147.9410 O   0  0  0  0  0  0  0  0  0  0  0  0
  189.5310  178.1370  148.8120 C   0  0  0  0  0  2  0  0  0  0  0  0
  188.1100  177.8630  148.3310 C   0  0  0  0  0  2  0  0  0  0  0  0
  186.5210  179.1500  146.8040 C   0  0  0  0  0  0  0  0  0  0  0  0
  185.9930  180.2560  146.5160 O   0  0  0  0  0  0  0  0  0  0  0  0
  187.4650  179.0910  147.8760 N   0  0  0  0  0  2  0  0  0  0  0  0
  185.9700  178.2950  143.5250 C   0  0  0  0  0  0  0  0  0  0  0  0
  184.0450  177.7870  147.2490 O   0  0  0  0  0  1  0  0  0  0  0  0
  184.6310  177.6390  145.9890 C   0  0  1  0  0  3  0  0  0  0  0  0
  186.5680  178.5380  142.4440 O   0  0  0  0  0  0  0  0  0  0  0  0
  186.7270  177.9420  144.6890 N   0  0  0  0  0  2  0  0  0  0  0  0
  183.9230  179.8480  145.2860 O   0  0  0  0  0  1  0  0  0  0  0  0
  183.8960  178.4930  144.9490 C   0  0  1  0  0  3  0  0  0  0  0  0
  184.4670  178.2820  143.5480 C   0  0  0  0  0  2  0  0  0  0  0  0
  186.1470  177.9110  146.0310 C   0  0  1  0  0  3  0  0  0  0  0  0
  2  1  1  0  0  0  0
  2 35  1  6  0  0  0
  3  4  1  1  0  0  0
  3  2  1  0  0  0  0
  3  1  1  0  0  0  0
  5  4  2  0  0  0  0
  7  4  1  0  0  0  0
  7  6  2  0  0  0  0
  8  9  1  0  0  0  0
  8  7  1  0  0  0  0
 10 11  1  0  0  0  0
 11  9  1  6  0  0  0
 11 13  1  0  0  0  0
 12 10  1  0  0  0  0
 12 15  1  0  0  0  0
 13 14  2  0  0  0  0
 15 16  1  0  0  0  0
 16 17  2  0  0  0  0
 16 14  1  0  0  0  0
 18  5  1  6  0  0  0
 19 21  1  0  0  0  0
 19 18  1  0  0  0  0
 20 19  1  0  0  0  0
 20 21  1  0  0  0  0
 22 18  1  1  0  0  0
 22 33  1  0  0  0  0
 22 24  1  0  0  0  0
 23 25  1  0  0  0  0
 24 26  1  0  0  0  0
 24 23  2  0  0  0  0
 25 27  2  0  0  0  0
 26 28  2  0  0  0  0
 28 27  1  0  0  0  0
 29 32  1  0  0  0  0
 30 31  1  0  0  0  0
 32 30  1  0  0  0  0
 33 31  2  0  0  0  0
 34 32  2  0  0  0  0
 34 33  1  0  0  0  0
 35 37  1  0  0  0  0
 37 36  2  0  0  0  0
 37 39  1  0  0  0  0
 38 40  1  0  0  0  0
 39 38  2  0  0  0  0
 41 43  1  0  0  0  0
 42 40  1  6  0  0  0
 42 41  1  0  0  0  0
 42 43  1  0  0  0  0
 43 45  1  6  0  0  0
 44 46  2  0  0  0  0
 44 47  1  0  0  0  0
 45 44  1  0  0  0  0
 47 48  1  0  0  0  0
 47 51  1  1  0  0  0
 48 49  1  0  0  0  0
 50 48  2  0  0  0  0
 52 51  1  0  0  0  0
 53 55  1  0  0  0  0
 54 53  2  0  0  0  0
 55 52  1  0  0  0  0
 56 63  1  0  0  0  0
 56 60  1  0  0  0  0
 58 64  1  0  0  0  0
 58 57  1  1  0  0  0
 59 56  2  0  0  0  0
 60 64  1  0  0  0  0
 62 61  1  1  0  0  0
 62 58  1  0  0  0  0
 63 62  1  0  0  0  0
 64 53  1  6  0  0  0
M  END
>  <MODEL>
4

>  <REMARK>
 VINA RESULT:      -4.2      3.896      9.805
  Name = 
  22 active torsions:
  status: ('A' for Active; 'I' for Inactive)
    1  A    between atoms: C_5  and  C_37
    2  A    between atoms: C_7  and  C_64
    3  A    between atoms: C_10  and  C_48
    4  A    between atoms: C_12  and  C_51
    5  A    between atoms: C_16  and  C_48
    6  A    between atoms: C_17  and  C_26
    7  A    between atoms: N_21  and  C_61
    8  A    between atoms: C_22  and  C_39
    9  A    between atoms: C_22  and  C_50
   10  A    between atoms: C_23  and  C_42
   11  A    between atoms: C_23  and  C_62
   12  A    between atoms: C_26  and  O_47
   13  A    between atoms: C_31  and  N_44
   14  A    between atoms: C_31  and  C_59
   15  A    between atoms: C_32  and  N_33
   16  A    between atoms: C_32  and  C_54
   17  A    between atoms: N_36  and  C_50
   18  A    between atoms: C_37  and  C_51
   19  A    between atoms: C_37  and  N_57
   20  A    between atoms: C_38  and  C_51
   21  A    between atoms: O_47  and  C_62
   22  A    between atoms: C_48  and  C_59
                            x       y       z     vdW  Elec       q    Type
                         _______ _______ _______ _____ _____    ______ ____

>  <TORSDO>
F 22

$$$$
=
 OpenBabel11032421233D

 64 70  0  0  1  0  0  0  0  0999 V2000
  184.6190  178.4310  139.3420 C   0  0  0  0  0  2  0  0  0  0  0  0
  183.1620  178.0630  139.4900 C   0  0  2  0  0  3  0  0  0  0  0  0
  183.6780  178.5790  138.1550 C   0  0  2  0  0  3  0  0  0  0  0  0
  183.8220  177.4310  137.1870 C   0  0  0  0  0  0  0  0  0  0  0  0
  182.7910  176.7900  136.7160 N   0  0  0  0  0  0  0  0  0  0  0  0
  185.8190  177.5460  135.9120 O   0  0  0  0  0  0  0  0  0  0  0  0
  185.1670  176.9550  136.8170 C   0  0  0  0  0  0  0  0  0  0  0  0
  185.7100  175.8520  137.4830 O   0  0  0  0  0  0  0  0  0  0  0  0
  187.0000  175.3190  137.1910 C   0  0  0  0  0  2  0  0  0  0  0  0
  188.1690  173.1320  136.7080 C   0  0  0  0  0  2  0  0  0  0  0  0
  186.9190  173.9710  136.4710 C   0  0  1  0  0  3  0  0  0  0  0  0
  188.3740  172.1640  135.5560 C   0  0  0  0  0  2  0  0  0  0  0  0
  185.6500  173.2570  136.8350 C   0  0  0  0  0  3  0  0  0  0  0  0
  185.2540  172.0850  136.3290 C   0  0  0  0  0  3  0  0  0  0  0  0
  187.4820  170.9430  135.7110 C   0  0  0  0  0  2  0  0  0  0  0  0
  186.0450  171.2460  135.4160 C   0  0  0  0  0  0  0  0  0  0  0  0
  185.4140  170.4760  134.5940 N   0  0  0  0  0  2  0  0  0  0  0  0
  181.3950  177.0810  137.0350 C   0  0  1  0  0  3  0  0  0  0  0  0
  180.8870  178.2100  136.1160 C   0  0  0  0  0  3  0  0  0  0  0  0
  180.5410  177.7230  134.7200 C   0  0  0  0  0  2  0  0  0  0  0  0
  179.4350  178.0390  135.7110 C   0  0  0  0  0  2  0  0  0  0  0  0
  180.5150  175.8070  137.1020 C   0  0  2  0  0  3  0  0  0  0  0  0
  179.9910  174.1190  138.8640 C   0  0  0  0  0  3  0  0  0  0  0  0
  180.0870  175.4650  138.4950 C   0  0  0  0  0  0  0  0  0  0  0  0
  179.5820  173.7680  140.1550 C   0  0  0  0  0  3  0  0  0  0  0  0
  179.7660  176.4620  139.4290 C   0  0  0  0  0  3  0  0  0  0  0  0
  179.2640  174.7650  141.0820 C   0  0  0  0  0  3  0  0  0  0  0  0
  179.3540  176.1110  140.7190 C   0  0  0  0  0  3  0  0  0  0  0  0
  180.5720  171.5380  134.5940 C   0  0  0  0  0  1  0  0  0  0  0  0
  182.2540  173.3650  135.1370 C   0  0  0  0  0  2  0  0  0  0  0  0
  182.2390  174.5210  135.8260 N   0  0  0  0  0  0  0  0  0  0  0  0
  180.9960  172.8160  135.2240 C   0  0  0  0  0  0  0  0  0  0  0  0
  180.9820  174.6230  136.3070 C   0  0  0  0  0  0  0  0  0  0  0  0
  180.1810  173.6000  135.9480 N   0  0  0  0  0  0  0  0  0  0  0  0
  182.4080  179.1800  140.1850 C   0  0  0  0  0  2  0  0  0  0  0  0
  180.9410  178.9510  142.0500 O   0  0  0  0  0  0  0  0  0  0  0  0
  182.1070  178.7990  141.5980 C   0  0  0  0  0  0  0  0  0  0  0  0
  183.7610  179.0330  143.2590 N   0  0  0  0  0  0  0  0  0  0  0  0
  183.1280  178.2790  142.4510 N   0  0  0  0  0  0  0  0  0  0  0  0
  184.7970  178.4870  144.1190 C   0  0  0  0  0  2  0  0  0  0  0  0
  186.9800  178.4170  143.1350 O   0  0  0  0  0  0  0  0  0  0  0  0
  185.7930  177.6790  143.2920 C   0  0  1  0  0  3  0  0  0  0  0  0
  187.0540  177.3110  144.0040 C   0  0  2  0  0  3  0  0  0  0  0  0
  188.3120  177.8530  146.1310 C   0  0  0  0  0  0  0  0  0  0  0  0
  187.0980  177.7820  145.3840 N   0  0  0  0  0  2  0  0  0  0  0  0
  188.2910  178.3320  147.2950 O   0  0  0  0  0  0  0  0  0  0  0  0
  189.6100  177.4130  145.5220 C   0  0  2  0  0  3  0  0  0  0  0  0
  190.5010  176.6860  146.4970 C   0  0  0  0  0  0  0  0  0  0  0  0
  191.7970  177.1270  146.7370 O   0  0  0  0  0  0  0  0  0  0  0  0
  190.0510  175.7170  147.1640 O   0  0  0  0  0  1  0  0  0  0  0  0
  190.3070  178.6130  144.8870 C   0  0  0  0  0  2  0  0  0  0  0  0
  190.8680  178.2610  143.5130 C   0  0  0  0  0  2  0  0  0  0  0  0
  189.8370  178.1720  141.1810 C   0  0  0  0  0  0  0  0  0  0  0  0
  189.0600  178.7050  140.3460 O   0  0  0  0  0  0  0  0  0  0  0  0
  190.0280  178.8030  142.4490 N   0  0  0  0  0  2  0  0  0  0  0  0
  192.7680  177.2160  139.6700 C   0  0  0  0  0  0  0  0  0  0  0  0
  188.6680  176.2370  139.4280 O   0  0  0  0  0  1  0  0  0  0  0  0
  190.0620  176.2420  139.5240 C   0  0  1  0  0  3  0  0  0  0  0  0
  193.9630  177.6030  139.7540 O   0  0  0  0  0  0  0  0  0  0  0  0
  191.9900  177.0590  140.8630 N   0  0  0  0  0  2  0  0  0  0  0  0
  190.2550  178.2080  138.1210 O   0  0  0  0  0  1  0  0  0  0  0  0
  190.6860  176.8900  138.2830 C   0  0  1  0  0  3  0  0  0  0  0  0
  192.2120  176.8320  138.3280 C   0  0  0  0  0  2  0  0  0  0  0  0
  190.5380  176.8820  140.8430 C   0  0  1  0  0  3  0  0  0  0  0  0
  1  2  1  0  0  0  0
  2 35  1  1  0  0  0
  3  4  1  6  0  0  0
  3  1  1  0  0  0  0
  3  2  1  0  0  0  0
  5  4  2  0  0  0  0
  6  7  2  0  0  0  0
  7  4  1  0  0  0  0
  7  8  1  0  0  0  0
  9  8  1  0  0  0  0
 11 10  1  0  0  0  0
 11 13  1  0  0  0  0
 11  9  1  1  0  0  0
 12 15  1  0  0  0  0
 12 10  1  0  0  0  0
 14 13  2  0  0  0  0
 16 15  1  0  0  0  0
 16 14  1  0  0  0  0
 17 16  2  0  0  0  0
 18  5  1  6  0  0  0
 19 18  1  0  0  0  0
 20 21  1  0  0  0  0
 20 19  1  0  0  0  0
 21 19  1  0  0  0  0
 22 18  1  1  0  0  0
 22 24  1  0  0  0  0
 23 25  1  0  0  0  0
 24 23  2  0  0  0  0
 24 26  1  0  0  0  0
 25 27  2  0  0  0  0
 26 28  2  0  0  0  0
 28 27  1  0  0  0  0
 29 32  1  0  0  0  0
 30 32  1  0  0  0  0
 30 31  1  0  0  0  0
 31 33  2  0  0  0  0
 32 34  2  0  0  0  0
 33 22  1  0  0  0  0
 34 33  1  0  0  0  0
 35 37  1  0  0  0  0
 37 36  2  0  0  0  0
 37 39  1  0  0  0  0
 38 40  1  0  0  0  0
 39 38  2  0  0  0  0
 41 42  1  0  0  0  0
 41 43  1  0  0  0  0
 42 43  1  0  0  0  0
 42 40  1  1  0  0  0
 43 45  1  1  0  0  0
 44 46  2  0  0  0  0
 45 44  1  0  0  0  0
 47 51  1  1  0  0  0
 47 44  1  0  0  0  0
 47 48  1  0  0  0  0
 48 49  2  0  0  0  0
 48 50  1  0  0  0  0
 52 51  1  0  0  0  0
 53 55  1  0  0  0  0
 54 53  2  0  0  0  0
 55 52  1  0  0  0  0
 56 59  2  0  0  0  0
 56 60  1  0  0  0  0
 58 57  1  6  0  0  0
 58 64  1  0  0  0  0
 62 61  1  1  0  0  0
 62 63  1  0  0  0  0
 62 58  1  0  0  0  0
 63 56  1  0  0  0  0
 64 60  1  0  0  0  0
 64 53  1  6  0  0  0
M  END
>  <MODEL>
5

>  <REMARK>
 VINA RESULT:      -4.1      2.619      9.661
  Name = 
  22 active torsions:
  status: ('A' for Active; 'I' for Inactive)
    1  A    between atoms: C_5  and  C_37
    2  A    between atoms: C_7  and  C_64
    3  A    between atoms: C_10  and  C_48
    4  A    between atoms: C_12  and  C_51
    5  A    between atoms: C_16  and  C_48
    6  A    between atoms: C_17  and  C_26
    7  A    between atoms: N_21  and  C_61
    8  A    between atoms: C_22  and  C_39
    9  A    between atoms: C_22  and  C_50
   10  A    between atoms: C_23  and  C_42
   11  A    between atoms: C_23  and  C_62
   12  A    between atoms: C_26  and  O_47
   13  A    between atoms: C_31  and  N_44
   14  A    between atoms: C_31  and  C_59
   15  A    between atoms: C_32  and  N_33
   16  A    between atoms: C_32  and  C_54
   17  A    between atoms: N_36  and  C_50
   18  A    between atoms: C_37  and  C_51
   19  A    between atoms: C_37  and  N_57
   20  A    between atoms: C_38  and  C_51
   21  A    between atoms: O_47  and  C_62
   22  A    between atoms: C_48  and  C_59
                            x       y       z     vdW  Elec       q    Type
                         _______ _______ _______ _____ _____    ______ ____

>  <TORSDO>
F 22

$$$$
=
 OpenBabel11032421233D

 64 70  0  0  1  0  0  0  0  0999 V2000
  190.3970  176.5950  139.0810 C   0  0  0  0  0  2  0  0  0  0  0  0
  188.9430  176.8100  138.7310 C   0  0  2  0  0  3  0  0  0  0  0  0
  190.0090  176.9680  137.6580 C   0  0  2  0  0  3  0  0  0  0  0  0
  190.0030  175.7630  136.7510 C   0  0  0  0  0  0  0  0  0  0  0  0
  189.0040  175.5000  135.9570 N   0  0  0  0  0  0  0  0  0  0  0  0
  190.9710  173.7090  137.4340 O   0  0  0  0  0  0  0  0  0  0  0  0
  191.1150  174.7980  136.8120 C   0  0  0  0  0  0  0  0  0  0  0  0
  192.3200  175.0990  136.1710 O   0  0  0  0  0  0  0  0  0  0  0  0
  193.2520  174.1060  135.7490 C   0  0  0  0  0  2  0  0  0  0  0  0
  194.9300  172.7340  137.0460 C   0  0  0  0  0  2  0  0  0  0  0  0
  194.5370  174.1310  136.5800 C   0  0  1  0  0  3  0  0  0  0  0  0
  195.7540  172.8200  138.3190 C   0  0  0  0  0  2  0  0  0  0  0  0
  195.6320  174.8360  135.8340 C   0  0  0  0  0  3  0  0  0  0  0  0
  196.8570  175.0760  136.3100 C   0  0  0  0  0  3  0  0  0  0  0  0
  197.2020  173.1620  138.0040 C   0  0  0  0  0  2  0  0  0  0  0  0
  197.3740  174.5940  137.6000 C   0  0  0  0  0  0  0  0  0  0  0  0
  198.2880  175.2900  138.1900 N   0  0  0  0  0  2  0  0  0  0  0  0
  187.7920  176.3070  135.8240 C   0  0  1  0  0  3  0  0  0  0  0  0
  188.0490  177.4510  134.8230 C   0  0  0  0  0  3  0  0  0  0  0  0
  187.1260  178.6370  135.0350 C   0  0  0  0  0  2  0  0  0  0  0  0
  188.5740  178.7120  135.4840 C   0  0  0  0  0  2  0  0  0  0  0  0
  186.5240  175.4520  135.5750 C   0  0  2  0  0  3  0  0  0  0  0  0
  184.1010  175.9780  135.2900 C   0  0  0  0  0  3  0  0  0  0  0  0
  185.2680  176.1160  136.0490 C   0  0  0  0  0  0  0  0  0  0  0  0
  182.9160  176.5960  135.7010 C   0  0  0  0  0  3  0  0  0  0  0  0
  185.2430  176.8830  137.2230 C   0  0  0  0  0  3  0  0  0  0  0  0
  182.8940  177.3590  136.8720 C   0  0  0  0  0  3  0  0  0  0  0  0
  184.0580  177.5040  137.6330 C   0  0  0  0  0  3  0  0  0  0  0  0
  187.7160  170.6460  135.5350 C   0  0  0  0  0  1  0  0  0  0  0  0
  186.3920  172.1910  137.0580 C   0  0  0  0  0  2  0  0  0  0  0  0
  186.0620  173.4960  137.0640 N   0  0  0  0  0  0  0  0  0  0  0  0
  187.1380  171.9580  135.9260 C   0  0  0  0  0  0  0  0  0  0  0  0
  186.6100  173.9970  135.9370 C   0  0  0  0  0  0  0  0  0  0  0  0
  187.2930  173.0860  135.2150 N   0  0  0  0  0  0  0  0  0  0  0  0
  188.4950  178.1860  139.1790 C   0  0  0  0  0  2  0  0  0  0  0  0
  187.3100  178.5950  141.2080 O   0  0  0  0  0  0  0  0  0  0  0  0
  188.3920  178.2360  140.6690 C   0  0  0  0  0  0  0  0  0  0  0  0
  189.3530  177.2830  142.5970 N   0  0  0  0  0  0  0  0  0  0  0  0
  189.5080  177.9000  141.4940 N   0  0  0  0  0  0  0  0  0  0  0  0
  190.5010  176.9500  143.4230 C   0  0  0  0  0  2  0  0  0  0  0  0
  189.5790  178.8790  144.5040 O   0  0  0  0  0  0  0  0  0  0  0  0
  190.6390  177.9570  144.5620 C   0  0  1  0  0  3  0  0  0  0  0  0
  189.5250  177.9440  145.5560 C   0  0  2  0  0  3  0  0  0  0  0  0
  187.1110  177.2670  145.2210 C   0  0  0  0  0  0  0  0  0  0  0  0
  188.5010  176.9470  145.2650 N   0  0  0  0  0  2  0  0  0  0  0  0
  186.2830  176.3740  144.8990 O   0  0  0  0  0  0  0  0  0  0  0  0
  186.6390  178.6620  145.5050 C   0  0  2  0  0  3  0  0  0  0  0  0
  185.7790  178.7540  146.7400 C   0  0  0  0  0  0  0  0  0  0  0  0
  185.1240  177.6300  147.2310 O   0  0  0  0  0  0  0  0  0  0  0  0
  185.7100  179.8330  147.3850 O   0  0  0  0  0  1  0  0  0  0  0  0
  185.9390  179.2230  144.2700 C   0  0  0  0  0  2  0  0  0  0  0  0
  184.5410  178.6320  144.1140 C   0  0  0  0  0  2  0  0  0  0  0  0
  183.3640  178.2150  141.8890 C   0  0  0  0  0  0  0  0  0  0  0  0
  183.3580  177.5910  140.7950 O   0  0  0  0  0  0  0  0  0  0  0  0
  184.4030  177.9450  142.8330 N   0  0  0  0  0  2  0  0  0  0  0  0
  180.2120  178.2480  143.2500 C   0  0  0  0  0  0  0  0  0  0  0  0
  182.1420  179.7530  139.8100 O   0  0  0  0  0  1  0  0  0  0  0  0
  181.3940  179.5570  140.9730 C   0  0  1  0  0  3  0  0  0  0  0  0
  179.6910  177.7170  144.2660 O   0  0  0  0  0  0  0  0  0  0  0  0
  181.5110  178.8460  143.3520 N   0  0  0  0  0  2  0  0  0  0  0  0
  180.8490  177.2760  140.3600 O   0  0  0  0  0  1  0  0  0  0  0  0
  180.3040  178.5040  140.7410 C   0  0  1  0  0  3  0  0  0  0  0  0
  179.4200  178.3330  141.9750 C   0  0  0  0  0  2  0  0  0  0  0  0
  182.2950  179.2360  142.1810 C   0  0  1  0  0  3  0  0  0  0  0  0
  2  1  1  0  0  0  0
  2 35  1  1  0  0  0
  3  4  1  6  0  0  0
  3  2  1  0  0  0  0
  3  1  1  0  0  0  0
  4  7  1  0  0  0  0
  5  4  2  0  0  0  0
  7  6  2  0  0  0  0
  8  7  1  0  0  0  0
  9  8  1  0  0  0  0
 10 12  1  0  0  0  0
 11  9  1  6  0  0  0
 11 10  1  0  0  0  0
 13 14  2  0  0  0  0
 13 11  1  0  0  0  0
 14 16  1  0  0  0  0
 15 12  1  0  0  0  0
 16 15  1  0  0  0  0
 16 17  2  0  0  0  0
 18  5  1  6  0  0  0
 19 20  1  0  0  0  0
 19 21  1  0  0  0  0
 19 18  1  0  0  0  0
 20 21  1  0  0  0  0
 22 18  1  1  0  0  0
 22 33  1  0  0  0  0
 22 24  1  0  0  0  0
 23 25  2  0  0  0  0
 23 24  1  0  0  0  0
 24 26  2  0  0  0  0
 25 27  1  0  0  0  0
 26 28  1  0  0  0  0
 27 28  2  0  0  0  0
 29 32  1  0  0  0  0
 30 31  1  0  0  0  0
 32 30  1  0  0  0  0
 33 31  2  0  0  0  0
 34 32  2  0  0  0  0
 34 33  1  0  0  0  0
 35 37  1  0  0  0  0
 37 36  2  0  0  0  0
 37 39  1  0  0  0  0
 38 40  1  0  0  0  0
 39 38  2  0  0  0  0
 41 42  1  0  0  0  0
 41 43  1  0  0  0  0
 42 40  1  6  0  0  0
 42 43  1  0  0  0  0
 43 45  1  6  0  0  0
 44 45  1  0  0  0  0
 44 47  1  0  0  0  0
 46 44  2  0  0  0  0
 47 51  1  6  0  0  0
 47 48  1  0  0  0  0
 48 49  2  0  0  0  0
 48 50  1  0  0  0  0
 52 51  1  0  0  0  0
 53 55  1  0  0  0  0
 54 53  2  0  0  0  0
 55 52  1  0  0  0  0
 56 60  1  0  0  0  0
 56 59  2  0  0  0  0
 58 57  1  6  0  0  0
 58 64  1  0  0  0  0
 62 61  1  1  0  0  0
 62 58  1  0  0  0  0
 62 63  1  0  0  0  0
 63 56  1  0  0  0  0
 64 53  1  6  0  0  0
 64 60  1  0  0  0  0
M  END
>  <MODEL>
6

>  <REMARK>
 VINA RESULT:      -3.7      2.810      7.937
  Name = 
  22 active torsions:
  status: ('A' for Active; 'I' for Inactive)
    1  A    between atoms: C_5  and  C_37
    2  A    between atoms: C_7  and  C_64
    3  A    between atoms: C_10  and  C_48
    4  A    between atoms: C_12  and  C_51
    5  A    between atoms: C_16  and  C_48
    6  A    between atoms: C_17  and  C_26
    7  A    between atoms: N_21  and  C_61
    8  A    between atoms: C_22  and  C_39
    9  A    between atoms: C_22  and  C_50
   10  A    between atoms: C_23  and  C_42
   11  A    between atoms: C_23  and  C_62
   12  A    between atoms: C_26  and  O_47
   13  A    between atoms: C_31  and  N_44
   14  A    between atoms: C_31  and  C_59
   15  A    between atoms: C_32  and  N_33
   16  A    between atoms: C_32  and  C_54
   17  A    between atoms: N_36  and  C_50
   18  A    between atoms: C_37  and  C_51
   19  A    between atoms: C_37  and  N_57
   20  A    between atoms: C_38  and  C_51
   21  A    between atoms: O_47  and  C_62
   22  A    between atoms: C_48  and  C_59
                            x       y       z     vdW  Elec       q    Type
                         _______ _______ _______ _____ _____    ______ ____

>  <TORSDO>
F 22

$$$$
=
 OpenBabel11032421233D

 64 70  0  0  1  0  0  0  0  0999 V2000
  188.9540  176.3710  139.1010 C   0  0  0  0  0  2  0  0  0  0  0  0
  189.4010  177.7970  139.3250 C   0  0  2  0  0  3  0  0  0  0  0  0
  190.1950  176.8950  138.3920 C   0  0  2  0  0  3  0  0  0  0  0  0
  189.9010  177.2600  136.9580 C   0  0  0  0  0  0  0  0  0  0  0  0
  190.5930  176.7770  135.9660 N   0  0  0  0  0  0  0  0  0  0  0  0
  189.0820  179.4830  136.8490 O   0  0  0  0  0  0  0  0  0  0  0  0
  188.8560  178.2550  136.6590 C   0  0  0  0  0  0  0  0  0  0  0  0
  187.6240  177.8260  136.1590 O   0  0  0  0  0  0  0  0  0  0  0  0
  187.4060  176.5220  135.6250 C   0  0  0  0  0  2  0  0  0  0  0  0
  185.9270  175.3050  137.2720 C   0  0  0  0  0  2  0  0  0  0  0  0
  185.9960  176.0050  135.9200 C   0  0  1  0  0  3  0  0  0  0  0  0
  184.7990  174.2890  137.2780 C   0  0  0  0  0  2  0  0  0  0  0  0
  184.9900  177.1100  135.7740 C   0  0  0  0  0  3  0  0  0  0  0  0
  183.6680  176.9690  135.9070 C   0  0  0  0  0  3  0  0  0  0  0  0
  183.4610  174.9690  137.5210 C   0  0  0  0  0  2  0  0  0  0  0  0
  182.9850  175.7350  136.3260 C   0  0  0  0  0  0  0  0  0  0  0  0
  181.7790  175.5340  135.9100 N   0  0  0  0  0  2  0  0  0  0  0  0
  191.7070  175.8390  136.0870 C   0  0  1  0  0  3  0  0  0  0  0  0
  192.0590  175.6550  137.5770 C   0  0  0  0  0  3  0  0  0  0  0  0
  193.2920  174.7960  137.7890 C   0  0  0  0  0  2  0  0  0  0  0  0
  193.3780  176.3020  137.9600 C   0  0  0  0  0  2  0  0  0  0  0  0
  191.4910  174.5400  135.2700 C   0  0  2  0  0  3  0  0  0  0  0  0
  189.3960  173.3600  134.6010 C   0  0  0  0  0  3  0  0  0  0  0  0
  190.2230  173.8290  135.6280 C   0  0  0  0  0  0  0  0  0  0  0  0
  188.1990  172.7020  134.9030 C   0  0  0  0  0  3  0  0  0  0  0  0
  189.8410  173.6380  136.9640 C   0  0  0  0  0  3  0  0  0  0  0  0
  187.8220  172.5140  136.2360 C   0  0  0  0  0  3  0  0  0  0  0  0
  188.6420  172.9830  137.2670 C   0  0  0  0  0  3  0  0  0  0  0  0
  194.3510  170.4980  135.2400 C   0  0  0  0  0  1  0  0  0  0  0  0
  194.6340  172.9460  134.6160 C   0  0  0  0  0  2  0  0  0  0  0  0
  193.8580  174.0460  134.6320 N   0  0  0  0  0  0  0  0  0  0  0  0
  193.8810  171.9010  135.0990 C   0  0  0  0  0  0  0  0  0  0  0  0
  192.6750  173.6280  135.1290 C   0  0  0  0  0  0  0  0  0  0  0  0
  192.6420  172.3110  135.4160 N   0  0  0  0  0  0  0  0  0  0  0  0
  190.1450  177.9120  140.6410 C   0  0  0  0  0  2  0  0  0  0  0  0
  188.2650  179.0410  141.5780 O   0  0  0  0  0  0  0  0  0  0  0  0
  189.1870  178.2000  141.7520 C   0  0  0  0  0  0  0  0  0  0  0  0
  190.4520  177.2180  143.4800 N   0  0  0  0  0  0  0  0  0  0  0  0
  189.3120  177.5460  143.0160 N   0  0  0  0  0  0  0  0  0  0  0  0
  190.5600  176.5530  144.7670 C   0  0  0  0  0  2  0  0  0  0  0  0
  189.6210  178.6420  145.4690 O   0  0  0  0  0  0  0  0  0  0  0  0
  190.4240  177.5700  145.8970 C   0  0  1  0  0  3  0  0  0  0  0  0
  189.0340  177.7690  146.4060 C   0  0  2  0  0  3  0  0  0  0  0  0
  186.7730  177.4290  145.3230 C   0  0  0  0  0  0  0  0  0  0  0  0
  188.0470  176.9320  145.7340 N   0  0  0  0  0  2  0  0  0  0  0  0
  185.9930  176.6710  144.6890 O   0  0  0  0  0  0  0  0  0  0  0  0
  186.3850  178.8520  145.5960 C   0  0  2  0  0  3  0  0  0  0  0  0
  185.6000  179.0130  146.8740 C   0  0  0  0  0  0  0  0  0  0  0  0
  186.0480  179.8640  147.8770 O   0  0  0  0  0  1  0  0  0  0  0  0
  184.4880  178.4380  147.0110 O   0  0  0  0  0  0  0  0  0  0  0  0
  185.6440  179.4170  144.3880 C   0  0  0  0  0  2  0  0  0  0  0  0
  184.5600  178.4580  143.9080 C   0  0  0  0  0  2  0  0  0  0  0  0
  182.3170  178.9730  142.8050 C   0  0  0  0  0  0  0  0  0  0  0  0
  181.2030  179.5530  142.8910 O   0  0  0  0  0  0  0  0  0  0  0  0
  183.2560  179.1140  143.8730 N   0  0  0  0  0  2  0  0  0  0  0  0
  183.6110  179.4700  139.6640 C   0  0  0  0  0  0  0  0  0  0  0  0
  180.2950  177.5170  141.4000 O   0  0  0  0  0  1  0  0  0  0  0  0
  181.4300  177.8830  140.6730 C   0  0  1  0  0  3  0  0  0  0  0  0
  184.5870  180.1260  139.2130 O   0  0  0  0  0  0  0  0  0  0  0  0
  183.7710  178.6970  140.8600 N   0  0  0  0  0  2  0  0  0  0  0  0
  180.6890  180.1820  140.4750 O   0  0  0  0  0  1  0  0  0  0  0  0
  181.1210  179.0690  139.7510 C   0  0  1  0  0  3  0  0  0  0  0  0
  182.3260  179.4330  138.8850 C   0  0  0  0  0  2  0  0  0  0  0  0
  182.6390  178.1340  141.5950 C   0  0  1  0  0  3  0  0  0  0  0  0
  1  2  1  0  0  0  0
  2 35  1  1  0  0  0
  3  4  1  6  0  0  0
  3  1  1  0  0  0  0
  3  2  1  0  0  0  0
  5  4  2  0  0  0  0
  7  6  2  0  0  0  0
  7  4  1  0  0  0  0
  8  7  1  0  0  0  0
  9  8  1  0  0  0  0
 10 12  1  0  0  0  0
 11  9  1  1  0  0  0
 11 10  1  0  0  0  0
 12 15  1  0  0  0  0
 13 14  2  0  0  0  0
 13 11  1  0  0  0  0
 14 16  1  0  0  0  0
 16 15  1  0  0  0  0
 17 16  2  0  0  0  0
 18  5  1  1  0  0  0
 18 19  1  0  0  0  0
 19 20  1  0  0  0  0
 19 21  1  0  0  0  0
 20 21  1  0  0  0  0
 22 24  1  0  0  0  0
 22 18  1  1  0  0  0
 23 25  2  0  0  0  0
 23 24  1  0  0  0  0
 24 26  2  0  0  0  0
 25 27  1  0  0  0  0
 26 28  1  0  0  0  0
 27 28  2  0  0  0  0
 30 31  1  0  0  0  0
 30 32  1  0  0  0  0
 31 33  2  0  0  0  0
 32 29  1  0  0  0  0
 32 34  2  0  0  0  0
 33 22  1  0  0  0  0
 33 34  1  0  0  0  0
 35 37  1  0  0  0  0
 36 37  2  0  0  0  0
 37 39  1  0  0  0  0
 38 40  1  0  0  0  0
 39 38  2  0  0  0  0
 41 42  1  0  0  0  0
 41 43  1  0  0  0  0
 42 40  1  6  0  0  0
 42 43  1  0  0  0  0
 43 45  1  6  0  0  0
 44 47  1  0  0  0  0
 44 45  1  0  0  0  0
 46 44  2  0  0  0  0
 47 51  1  6  0  0  0
 47 48  1  0  0  0  0
 48 50  2  0  0  0  0
 48 49  1  0  0  0  0
 52 51  1  0  0  0  0
 53 54  2  0  0  0  0
 53 55  1  0  0  0  0
 55 52  1  0  0  0  0
 56 60  1  0  0  0  0
 58 57  1  1  0  0  0
 58 64  1  0  0  0  0
 59 56  2  0  0  0  0
 60 64  1  0  0  0  0
 62 61  1  1  0  0  0
 62 58  1  0  0  0  0
 63 56  1  0  0  0  0
 63 62  1  0  0  0  0
 64 53  1  1  0  0  0
M  END
>  <MODEL>
7

>  <REMARK>
 VINA RESULT:      -3.6      2.580      7.588
  Name = 
  22 active torsions:
  status: ('A' for Active; 'I' for Inactive)
    1  A    between atoms: C_5  and  C_37
    2  A    between atoms: C_7  and  C_64
    3  A    between atoms: C_10  and  C_48
    4  A    between atoms: C_12  and  C_51
    5  A    between atoms: C_16  and  C_48
    6  A    between atoms: C_17  and  C_26
    7  A    between atoms: N_21  and  C_61
    8  A    between atoms: C_22  and  C_39
    9  A    between atoms: C_22  and  C_50
   10  A    between atoms: C_23  and  C_42
   11  A    between atoms: C_23  and  C_62
   12  A    between atoms: C_26  and  O_47
   13  A    between atoms: C_31  and  N_44
   14  A    between atoms: C_31  and  C_59
   15  A    between atoms: C_32  and  N_33
   16  A    between atoms: C_32  and  C_54
   17  A    between atoms: N_36  and  C_50
   18  A    between atoms: C_37  and  C_51
   19  A    between atoms: C_37  and  N_57
   20  A    between atoms: C_38  and  C_51
   21  A    between atoms: O_47  and  C_62
   22  A    between atoms: C_48  and  C_59
                            x       y       z     vdW  Elec       q    Type
                         _______ _______ _______ _____ _____    ______ ____

>  <TORSDO>
F 22

$$$$
=
 OpenBabel11032421233D

 64 70  0  0  1  0  0  0  0  0999 V2000
  185.5010  177.9180  137.5250 C   0  0  0  0  0  2  0  0  0  0  0  0
  184.1520  177.8480  136.8500 C   0  0  2  0  0  3  0  0  0  0  0  0
  184.3440  177.2140  138.2190 C   0  0  2  0  0  3  0  0  0  0  0  0
  183.7190  178.0880  139.2780 C   0  0  0  0  0  0  0  0  0  0  0  0
  182.4540  178.4010  139.2580 N   0  0  0  0  0  0  0  0  0  0  0  0
  184.8710  179.9070  140.2720 O   0  0  0  0  0  0  0  0  0  0  0  0
  184.5660  178.6830  140.3260 C   0  0  0  0  0  0  0  0  0  0  0  0
  185.0190  177.8820  141.3780 O   0  0  0  0  0  0  0  0  0  0  0  0
  184.7670  178.1750  142.7510 C   0  0  0  0  0  2  0  0  0  0  0  0
  187.2830  178.2140  142.9750 C   0  0  0  0  0  2  0  0  0  0  0  0
  185.9650  177.8400  143.6420 C   0  0  1  0  0  3  0  0  0  0  0  0
  188.4070  177.3470  143.5140 C   0  0  0  0  0  2  0  0  0  0  0  0
  185.7950  178.4520  145.0020 C   0  0  0  0  0  3  0  0  0  0  0  0
  186.6380  178.2960  146.0270 C   0  0  0  0  0  3  0  0  0  0  0  0
  188.8960  177.8700  144.8560 C   0  0  0  0  0  2  0  0  0  0  0  0
  187.9270  177.5910  145.9630 C   0  0  0  0  0  0  0  0  0  0  0  0
  188.3740  177.0370  147.0420 N   0  0  0  0  0  2  0  0  0  0  0  0
  181.4880  177.9600  138.2530 C   0  0  1  0  0  3  0  0  0  0  0  0
  181.1440  176.4770  138.4930 C   0  0  0  0  0  3  0  0  0  0  0  0
  179.6600  176.2440  138.7130 C   0  0  0  0  0  2  0  0  0  0  0  0
  180.2990  175.8770  137.3850 C   0  0  0  0  0  2  0  0  0  0  0  0
  180.2860  178.9270  138.1120 C   0  0  2  0  0  3  0  0  0  0  0  0
  180.9220  179.2980  135.7270 C   0  0  0  0  0  3  0  0  0  0  0  0
  180.3890  179.8170  136.9120 C   0  0  0  0  0  0  0  0  0  0  0  0
  181.0420  180.1090  134.5940 C   0  0  0  0  0  3  0  0  0  0  0  0
  179.9790  181.1580  136.9570 C   0  0  0  0  0  3  0  0  0  0  0  0
  180.6320  181.4450  134.6420 C   0  0  0  0  0  3  0  0  0  0  0  0
  180.1010  181.9690  135.8240 C   0  0  0  0  0  3  0  0  0  0  0  0
  178.9310  179.8640  142.7810 C   0  0  0  0  0  1  0  0  0  0  0  0
  179.3660  181.2410  140.6900 C   0  0  0  0  0  2  0  0  0  0  0  0
  179.7270  180.9850  139.4190 N   0  0  0  0  0  0  0  0  0  0  0  0
  179.2880  180.0370  141.3490 C   0  0  0  0  0  0  0  0  0  0  0  0
  179.8440  179.6410  139.3560 C   0  0  0  0  0  0  0  0  0  0  0  0
  179.5970  179.0210  140.5270 N   0  0  0  0  0  0  0  0  0  0  0  0
  184.1460  176.7520  135.8030 C   0  0  0  0  0  2  0  0  0  0  0  0
  185.5400  174.8470  136.1380 O   0  0  0  0  0  0  0  0  0  0  0  0
  185.4670  176.0530  135.7800 C   0  0  0  0  0  0  0  0  0  0  0  0
  187.7910  176.1660  135.4100 N   0  0  0  0  0  0  0  0  0  0  0  0
  186.6530  176.7370  135.3740 N   0  0  0  0  0  0  0  0  0  0  0  0
  188.9860  176.8780  134.9940 C   0  0  0  0  0  2  0  0  0  0  0  0
  188.6610  177.6270  137.2460 O   0  0  0  0  0  0  0  0  0  0  0  0
  189.4330  177.8410  136.0900 C   0  0  1  0  0  3  0  0  0  0  0  0
  189.9990  177.1930  137.3100 C   0  0  2  0  0  3  0  0  0  0  0  0
  191.2020  174.9820  137.5680 C   0  0  0  0  0  0  0  0  0  0  0  0
  190.0400  175.7370  137.2250 N   0  0  0  0  0  2  0  0  0  0  0  0
  191.1500  173.7240  137.5360 O   0  0  0  0  0  0  0  0  0  0  0  0
  192.4580  175.6720  138.0100 C   0  0  2  0  0  3  0  0  0  0  0  0
  192.2190  176.6920  139.0940 C   0  0  0  0  0  0  0  0  0  0  0  0
  191.2090  176.5060  140.0310 O   0  0  0  0  0  1  0  0  0  0  0  0
  192.9850  177.6850  139.2090 O   0  0  0  0  0  0  0  0  0  0  0  0
  193.1630  176.2710  136.7970 C   0  0  0  0  0  2  0  0  0  0  0  0
  194.5590  175.6820  136.6230 C   0  0  0  0  0  2  0  0  0  0  0  0
  195.2460  173.4000  137.5350 C   0  0  0  0  0  0  0  0  0  0  0  0
  195.5450  172.7090  138.5450 O   0  0  0  0  0  0  0  0  0  0  0  0
  194.8830  174.7700  137.7170 N   0  0  0  0  0  2  0  0  0  0  0  0
  194.2690  170.4580  136.0600 C   0  0  0  0  0  0  0  0  0  0  0  0
  197.7170  172.8900  136.1860 O   0  0  0  0  0  1  0  0  0  0  0  0
  196.6250  172.0960  135.8270 C   0  0  1  0  0  3  0  0  0  0  0  0
  193.2270  169.7520  136.1190 O   0  0  0  0  0  0  0  0  0  0  0  0
  194.1530  171.8830  135.9610 N   0  0  0  0  0  2  0  0  0  0  0  0
  196.8110  170.7530  137.8360 O   0  0  0  0  0  1  0  0  0  0  0  0
  196.7510  170.6970  136.4420 C   0  0  1  0  0  3  0  0  0  0  0  0
  195.6110  169.7850  135.9940 C   0  0  0  0  0  2  0  0  0  0  0  0
  195.2880  172.7840  136.1600 C   0  0  1  0  0  3  0  0  0  0  0  0
  1  3  1  0  0  0  0
  2 35  1  6  0  0  0
  2  1  1  0  0  0  0
  2  3  1  0  0  0  0
  3  4  1  1  0  0  0
  4  7  1  0  0  0  0
  5  4  2  0  0  0  0
  6  7  2  0  0  0  0
  7  8  1  0  0  0  0
  8  9  1  0  0  0  0
 10 12  1  0  0  0  0
 10 11  1  0  0  0  0
 11  9  1  6  0  0  0
 11 13  1  0  0  0  0
 12 15  1  0  0  0  0
 13 14  2  0  0  0  0
 15 16  1  0  0  0  0
 16 14  1  0  0  0  0
 16 17  2  0  0  0  0
 18 19  1  0  0  0  0
 18  5  1  1  0  0  0
 19 20  1  0  0  0  0
 21 19  1  0  0  0  0
 21 20  1  0  0  0  0
 22 18  1  1  0  0  0
 22 33  1  0  0  0  0
 23 24  1  0  0  0  0
 24 26  2  0  0  0  0
 24 22  1  0  0  0  0
 25 27  1  0  0  0  0
 25 23  2  0  0  0  0
 27 28  2  0  0  0  0
 28 26  1  0  0  0  0
 30 32  1  0  0  0  0
 31 30  1  0  0  0  0
 32 29  1  0  0  0  0
 33 31  2  0  0  0  0
 33 34  1  0  0  0  0
 34 32  2  0  0  0  0
 37 35  1  0  0  0  0
 37 36  2  0  0  0  0
 39 38  2  0  0  0  0
 39 37  1  0  0  0  0
 40 38  1  0  0  0  0
 41 43  1  0  0  0  0
 42 40  1  6  0  0  0
 42 41  1  0  0  0  0
 42 43  1  0  0  0  0
 43 45  1  6  0  0  0
 44 47  1  0  0  0  0
 45 44  1  0  0  0  0
 46 44  2  0  0  0  0
 47 51  1  6  0  0  0
 47 48  1  0  0  0  0
 48 50  2  0  0  0  0
 48 49  1  0  0  0  0
 52 51  1  0  0  0  0
 52 55  1  0  0  0  0
 53 55  1  0  0  0  0
 53 54  2  0  0  0  0
 56 59  2  0  0  0  0
 58 64  1  0  0  0  0
 58 57  1  1  0  0  0
 58 62  1  0  0  0  0
 60 56  1  0  0  0  0
 60 64  1  0  0  0  0
 62 61  1  1  0  0  0
 63 56  1  0  0  0  0
 63 62  1  0  0  0  0
 64 53  1  1  0  0  0
M  END
>  <MODEL>
8

>  <REMARK>
 VINA RESULT:      -3.5      3.777     10.750
  Name = 
  22 active torsions:
  status: ('A' for Active; 'I' for Inactive)
    1  A    between atoms: C_5  and  C_37
    2  A    between atoms: C_7  and  C_64
    3  A    between atoms: C_10  and  C_48
    4  A    between atoms: C_12  and  C_51
    5  A    between atoms: C_16  and  C_48
    6  A    between atoms: C_17  and  C_26
    7  A    between atoms: N_21  and  C_61
    8  A    between atoms: C_22  and  C_39
    9  A    between atoms: C_22  and  C_50
   10  A    between atoms: C_23  and  C_42
   11  A    between atoms: C_23  and  C_62
   12  A    between atoms: C_26  and  O_47
   13  A    between atoms: C_31  and  N_44
   14  A    between atoms: C_31  and  C_59
   15  A    between atoms: C_32  and  N_33
   16  A    between atoms: C_32  and  C_54
   17  A    between atoms: N_36  and  C_50
   18  A    between atoms: C_37  and  C_51
   19  A    between atoms: C_37  and  N_57
   20  A    between atoms: C_38  and  C_51
   21  A    between atoms: O_47  and  C_62
   22  A    between atoms: C_48  and  C_59
                            x       y       z     vdW  Elec       q    Type
                         _______ _______ _______ _____ _____    ______ ____

>  <TORSDO>
F 22

$$$$
=
 OpenBabel11032421233D

 64 70  0  0  1  0  0  0  0  0999 V2000
  189.3330  177.8280  138.2220 C   0  0  0  0  0  2  0  0  0  0  0  0
  190.4850  176.8590  138.1000 C   0  0  2  0  0  3  0  0  0  0  0  0
  189.0690  176.3900  137.8020 C   0  0  2  0  0  3  0  0  0  0  0  0
  188.8740  176.2760  136.3100 C   0  0  0  0  0  0  0  0  0  0  0  0
  189.3000  175.2470  135.6340 N   0  0  0  0  0  0  0  0  0  0  0  0
  188.9620  178.3810  135.2220 O   0  0  0  0  0  0  0  0  0  0  0  0
  188.2600  177.3910  135.5680 C   0  0  0  0  0  0  0  0  0  0  0  0
  186.9000  177.3340  135.2480 O   0  0  0  0  0  0  0  0  0  0  0  0
  186.2400  176.1360  134.8440 C   0  0  0  0  0  2  0  0  0  0  0  0
  184.8300  175.7140  136.8970 C   0  0  0  0  0  2  0  0  0  0  0  0
  184.8210  176.0410  135.4080 C   0  0  1  0  0  3  0  0  0  0  0  0
  183.5400  175.0140  137.2860 C   0  0  0  0  0  2  0  0  0  0  0  0
  184.0400  177.2790  135.0790 C   0  0  0  0  0  3  0  0  0  0  0  0
  182.7530  177.4810  135.3790 C   0  0  0  0  0  3  0  0  0  0  0  0
  182.4150  176.0200  137.4770 C   0  0  0  0  0  2  0  0  0  0  0  0
  181.9170  176.5710  136.1770 C   0  0  0  0  0  0  0  0  0  0  0  0
  180.6450  176.5590  135.9550 N   0  0  0  0  0  2  0  0  0  0  0  0
  189.9940  174.0910  136.1970 C   0  0  1  0  0  3  0  0  0  0  0  0
  189.0360  172.8840  136.2220 C   0  0  0  0  0  3  0  0  0  0  0  0
  188.3130  172.7330  137.5480 C   0  0  0  0  0  2  0  0  0  0  0  0
  187.5770  173.2860  136.3400 C   0  0  0  0  0  2  0  0  0  0  0  0
  191.3820  173.8490  135.5520 C   0  0  2  0  0  3  0  0  0  0  0  0
  190.6820  171.5750  134.8010 C   0  0  0  0  0  3  0  0  0  0  0  0
  191.6800  172.3990  135.3320 C   0  0  0  0  0  0  0  0  0  0  0  0
  190.9270  170.2130  134.5940 C   0  0  0  0  0  3  0  0  0  0  0  0
  192.9280  171.8490  135.6600 C   0  0  0  0  0  3  0  0  0  0  0  0
  192.1720  169.6690  134.9220 C   0  0  0  0  0  3  0  0  0  0  0  0
  193.1720  170.4860  135.4560 C   0  0  0  0  0  3  0  0  0  0  0  0
  195.0980  177.0800  136.0740 C   0  0  0  0  0  1  0  0  0  0  0  0
  193.9480  175.3580  137.5490 C   0  0  0  0  0  2  0  0  0  0  0  0
  192.9430  174.4750  137.4030 N   0  0  0  0  0  0  0  0  0  0  0  0
  194.1020  176.0120  136.3480 C   0  0  0  0  0  0  0  0  0  0  0  0
  192.5350  174.6210  136.1250 C   0  0  0  0  0  0  0  0  0  0  0  0
  193.2140  175.5670  135.4450 N   0  0  0  0  0  0  0  0  0  0  0  0
  190.8880  176.3490  139.4700 C   0  0  0  0  0  2  0  0  0  0  0  0
  192.5080  178.0930  139.3370 O   0  0  0  0  0  0  0  0  0  0  0  0
  191.9440  177.2290  140.0580 C   0  0  0  0  0  0  0  0  0  0  0  0
  191.6560  177.6240  142.3630 N   0  0  0  0  0  0  0  0  0  0  0  0
  192.3340  177.0920  141.4250 N   0  0  0  0  0  0  0  0  0  0  0  0
  192.0700  177.4750  143.7470 C   0  0  0  0  0  2  0  0  0  0  0  0
  190.5760  179.3460  143.8230 O   0  0  0  0  0  0  0  0  0  0  0  0
  191.4890  178.6040  144.5940 C   0  0  1  0  0  3  0  0  0  0  0  0
  190.0150  178.5280  144.8240 C   0  0  2  0  0  3  0  0  0  0  0  0
  187.9930  177.1000  144.3070 C   0  0  0  0  0  0  0  0  0  0  0  0
  189.3920  177.3650  144.2040 N   0  0  0  0  0  2  0  0  0  0  0  0
  187.5070  176.1140  143.6930 O   0  0  0  0  0  0  0  0  0  0  0  0
  187.0980  178.0100  145.0940 C   0  0  2  0  0  3  0  0  0  0  0  0
  187.2440  177.8340  146.5850 C   0  0  0  0  0  0  0  0  0  0  0  0
  188.2760  177.0660  147.1100 O   0  0  0  0  0  0  0  0  0  0  0  0
  186.4770  178.4480  147.3730 O   0  0  0  0  0  1  0  0  0  0  0  0
  185.6560  177.8330  144.6290 C   0  0  0  0  0  2  0  0  0  0  0  0
  185.3060  178.8280  143.5280 C   0  0  0  0  0  2  0  0  0  0  0  0
  182.8980  178.9230  142.6900 C   0  0  0  0  0  0  0  0  0  0  0  0
  181.7190  179.3170  142.8960 O   0  0  0  0  0  0  0  0  0  0  0  0
  183.9150  179.2610  143.6350 N   0  0  0  0  0  2  0  0  0  0  0  0
  184.1910  179.4560  139.5540 C   0  0  0  0  0  0  0  0  0  0  0  0
  180.8680  177.4940  141.2680 O   0  0  0  0  0  1  0  0  0  0  0  0
  182.0050  177.8650  140.5450 C   0  0  1  0  0  3  0  0  0  0  0  0
  185.1690  180.1130  139.1100 O   0  0  0  0  0  0  0  0  0  0  0  0
  184.3490  178.6670  140.7400 N   0  0  0  0  0  2  0  0  0  0  0  0
  181.2720  180.1690  140.3770 O   0  0  0  0  0  1  0  0  0  0  0  0
  181.7000  179.0630  139.6390 C   0  0  1  0  0  3  0  0  0  0  0  0
  182.9050  179.4340  138.7760 C   0  0  0  0  0  2  0  0  0  0  0  0
  183.2150  178.0990  141.4690 C   0  0  1  0  0  3  0  0  0  0  0  0
  2  1  1  0  0  0  0
  2 35  1  1  0  0  0
  3  4  1  6  0  0  0
  3  2  1  0  0  0  0
  3  1  1  0  0  0  0
  5  4  2  0  0  0  0
  6  7  2  0  0  0  0
  7  4  1  0  0  0  0
  8  7  1  0  0  0  0
  9  8  1  0  0  0  0
 10 12  1  0  0  0  0
 11  9  1  1  0  0  0
 11 10  1  0  0  0  0
 12 15  1  0  0  0  0
 13 14  2  0  0  0  0
 13 11  1  0  0  0  0
 14 16  1  0  0  0  0
 16 15  1  0  0  0  0
 17 16  2  0  0  0  0
 18  5  1  6  0  0  0
 18 19  1  0  0  0  0
 19 21  1  0  0  0  0
 19 20  1  0  0  0  0
 21 20  1  0  0  0  0
 22 33  1  0  0  0  0
 22 18  1  1  0  0  0
 23 24  1  0  0  0  0
 24 22  1  0  0  0  0
 24 26  2  0  0  0  0
 25 23  2  0  0  0  0
 25 27  1  0  0  0  0
 27 28  2  0  0  0  0
 28 26  1  0  0  0  0
 29 32  1  0  0  0  0
 31 30  1  0  0  0  0
 32 30  1  0  0  0  0
 33 31  2  0  0  0  0
 34 33  1  0  0  0  0
 34 32  2  0  0  0  0
 35 37  1  0  0  0  0
 36 37  2  0  0  0  0
 37 39  1  0  0  0  0
 38 40  1  0  0  0  0
 39 38  2  0  0  0  0
 41 42  1  0  0  0  0
 41 43  1  0  0  0  0
 42 40  1  6  0  0  0
 42 43  1  0  0  0  0
 43 45  1  6  0  0  0
 44 47  1  0  0  0  0
 45 44  1  0  0  0  0
 46 44  2  0  0  0  0
 47 51  1  6  0  0  0
 47 48  1  0  0  0  0
 48 49  2  0  0  0  0
 48 50  1  0  0  0  0
 52 55  1  0  0  0  0
 52 51  1  0  0  0  0
 53 54  2  0  0  0  0
 53 55  1  0  0  0  0
 56 60  1  0  0  0  0
 58 57  1  1  0  0  0
 58 64  1  0  0  0  0
 59 56  2  0  0  0  0
 60 64  1  0  0  0  0
 62 61  1  1  0  0  0
 62 58  1  0  0  0  0
 63 56  1  0  0  0  0
 63 62  1  0  0  0  0
 64 53  1  1  0  0  0
M  END
>  <MODEL>
9

>  <REMARK>
 VINA RESULT:      -3.3      2.802      8.190
  Name = 
  22 active torsions:
  status: ('A' for Active; 'I' for Inactive)
    1  A    between atoms: C_5  and  C_37
    2  A    between atoms: C_7  and  C_64
    3  A    between atoms: C_10  and  C_48
    4  A    between atoms: C_12  and  C_51
    5  A    between atoms: C_16  and  C_48
    6  A    between atoms: C_17  and  C_26
    7  A    between atoms: N_21  and  C_61
    8  A    between atoms: C_22  and  C_39
    9  A    between atoms: C_22  and  C_50
   10  A    between atoms: C_23  and  C_42
   11  A    between atoms: C_23  and  C_62
   12  A    between atoms: C_26  and  O_47
   13  A    between atoms: C_31  and  N_44
   14  A    between atoms: C_31  and  C_59
   15  A    between atoms: C_32  and  N_33
   16  A    between atoms: C_32  and  C_54
   17  A    between atoms: N_36  and  C_50
   18  A    between atoms: C_37  and  C_51
   19  A    between atoms: C_37  and  N_57
   20  A    between atoms: C_38  and  C_51
   21  A    between atoms: O_47  and  C_62
   22  A    between atoms: C_48  and  C_59
                            x       y       z     vdW  Elec       q    Type
                         _______ _______ _______ _____ _____    ______ ____

>  <TORSDO>
F 22

$$$$
