=
 OpenBabel11042411443D

 40 44  0  0  0  0  0  0  0  0999 V2000
  188.2130  177.9680  141.5150 C   0  0  0  0  0  0  0  0  0  0  0  0
  183.5240  178.2250  141.1290 C   0  0  0  0  0  2  0  0  0  0  0  0
  189.4040  177.5160  140.9380 C   0  0  0  0  0  3  0  0  0  0  0  0
  185.5730  178.8070  146.7420 C   0  0  0  0  0  2  0  0  0  0  0  0
  185.2190  178.6520  145.3200 C   0  0  0  0  0  0  0  0  0  0  0  0
  185.6320  178.7030  142.4320 N   0  0  0  0  0  0  0  0  0  0  0  0
  180.7020  178.2470  138.9010 C   0  0  0  0  0  3  0  0  0  0  0  0
  188.4840  176.3650  143.3120 C   0  0  0  0  0  3  0  0  0  0  0  0
  181.3760  178.3550  140.0130 C   0  0  0  0  0  0  0  0  0  0  0  0
  186.2150  179.3430  141.2800 C   0  0  0  0  0  3  0  0  0  0  0  0
  187.2250  177.4820  145.6780 C   0  0  0  0  0  2  0  0  0  0  0  0
  181.3190  178.5480  142.3920 C   0  0  0  0  0  3  0  0  0  0  0  0
  186.7300  177.9390  146.9830 N   0  0  0  0  0  0  0  0  0  0  0  0
  186.4900  177.9450  143.3110 C   0  0  0  0  0  0  0  0  0  0  0  0
  190.1330  176.4920  141.5460 C   0  0  0  0  0  3  0  0  0  0  0  0
  183.4690  178.6780  143.5840 C   0  0  0  0  0  0  0  0  0  0  0  0
  187.7530  177.4090  142.7220 C   0  0  0  0  0  0  0  0  0  0  0  0
  186.2610  177.9320  144.6370 C   0  0  0  0  0  0  0  0  0  0  0  0
  184.2000  178.5550  142.4490 C   0  0  0  0  0  0  0  0  0  0  0  0
  187.4340  179.0180  140.8420 C   0  0  0  0  0  3  0  0  0  0  0  0
  181.9930  178.6440  143.5340 C   0  0  0  0  0  3  0  0  0  0  0  0
  189.6720  175.9080  142.7360 C   0  0  0  0  0  0  0  0  0  0  0  0
  182.0430  178.4550  141.1270 C   0  0  0  0  0  0  0  0  0  0  0  0
  184.0330  178.9340  144.8760 N   0  0  0  0  0  0  0  0  0  0  0  0
  178.9310  177.9970  138.9520 S   0  0  0  0  0  0  0  0  0  0  0  0
  179.3850  175.3690  139.5460 C   0  0  0  0  0  1  0  0  0  0  0  0
  179.0540  176.2760  138.3780 C   0  0  0  0  0  2  0  0  0  0  0  0
  187.7750  178.7620  147.5720 C   0  0  0  0  0  2  0  0  0  0  0  0
  188.5470  177.9590  148.6040 C   0  0  0  0  0  2  0  0  0  0  0  0
  189.6670  176.1720  147.4100 N   0  0  0  0  0  0  0  0  0  0  0  0
  188.7050  176.5860  148.1430 N   0  0  0  0  0  0  0  0  0  0  0  0
  191.8180  177.1280  147.5440 O   0  0  0  0  0  0  0  0  0  0  0  0
  190.7460  176.9720  146.8940 C   0  0  0  0  0  0  0  0  0  0  0  0
  190.5880  177.6020  145.6210 N   0  0  0  0  0  2  0  0  0  0  0  0
  191.6070  178.4710  145.0390 C   0  0  0  0  0  2  0  0  0  0  0  0
  190.9830  179.3740  143.9880 C   0  0  0  0  0  1  0  0  0  0  0  0
  190.3910  174.8470  143.3760 N   0  0  0  0  0  2  0  0  0  0  0  0
  191.6180  175.0270  144.1430 C   0  0  0  0  0  3  0  0  0  0  0  0
  192.4670  175.9000  143.4880 F   0  0  0  0  0  0  0  0  0  0  0  0
  192.2470  173.8100  144.3330 F   0  0  0  0  0  0  0  0  0  0  0  0
  1 17  1  0  0  0  0
  2 19  1  0  0  0  0
  3  1  2  0  0  0  0
  3 15  1  0  0  0  0
  4 13  1  0  0  0  0
  5  4  1  0  0  0  0
  6 19  1  0  0  0  0
  6 14  1  0  0  0  0
  7 25  1  0  0  0  0
  7  9  2  0  0  0  0
  9 23  2  0  0  0  0
 10  6  1  0  0  0  0
 11 13  1  0  0  0  0
 12 21  2  0  0  0  0
 13 28  1  0  0  0  0
 14 18  2  0  0  0  0
 15 22  2  0  0  0  0
 16 24  1  0  0  0  0
 17 14  1  0  0  0  0
 17  8  2  0  0  0  0
 18  5  1  0  0  0  0
 18 11  1  0  0  0  0
 19 16  2  0  0  0  0
 20 10  2  0  0  0  0
 20  1  1  0  0  0  0
 21 16  1  0  0  0  0
 22  8  1  0  0  0  0
 22 37  1  0  0  0  0
 23  2  1  0  0  0  0
 23 12  1  0  0  0  0
 24  5  2  0  0  0  0
 27 25  1  0  0  0  0
 27 26  1  0  0  0  0
 28 29  1  0  0  0  0
 30 31  2  0  0  0  0
 31 29  1  0  0  0  0
 33 30  1  0  0  0  0
 33 32  2  0  0  0  0
 34 33  1  0  0  0  0
 35 34  1  0  0  0  0
 36 35  1  0  0  0  0
 37 38  1  0  0  0  0
 38 40  1  0  0  0  0
 39 38  1  0  0  0  0
M  END
>  <MODEL>
1

>  <REMARK>
 VINA RESULT:      -8.1      0.000      0.000
  Name = 
  9 active torsions:
  status: ('A' for Active; 'I' for Inactive)
    1  A    between atoms: C_1  and  C_19
    2  A    between atoms: C_1  and  N_25
    3  A    between atoms: N_2  and  C_21
    4  A    between atoms: C_6  and  N_30
    5  A    between atoms: C_11  and  S_15
    6  A    between atoms: S_15  and  C_39
    7  A    between atoms: N_18  and  C_19
    8  A    between atoms: C_26  and  N_40
    9  A    between atoms: N_30  and  C_32
                            x       y       z     vdW  Elec       q    Type
                         _______ _______ _______ _____ _____    ______ ____

>  <TORSDO>
F 9

$$$$
=
 OpenBabel11042411443D

 40 44  0  0  0  0  0  0  0  0999 V2000
  187.3240  176.7660  137.4990 C   0  0  0  0  0  0  0  0  0  0  0  0
  188.6100  177.2090  142.0100 C   0  0  0  0  0  2  0  0  0  0  0  0
  186.3000  176.4240  136.6100 C   0  0  0  0  0  3  0  0  0  0  0  0
  193.1920  176.5000  138.1970 C   0  0  0  0  0  2  0  0  0  0  0  0
  191.9740  176.6680  139.0090 C   0  0  0  0  0  0  0  0  0  0  0  0
  189.1880  177.3410  139.5570 N   0  0  0  0  0  0  0  0  0  0  0  0
  187.5220  177.7850  145.3890 C   0  0  0  0  0  3  0  0  0  0  0  0
  188.5660  174.8020  136.8120 C   0  0  0  0  0  3  0  0  0  0  0  0
  188.3370  177.6300  144.3830 C   0  0  0  0  0  0  0  0  0  0  0  0
  188.0580  178.2050  139.3230 C   0  0  0  0  0  3  0  0  0  0  0  0
  191.3910  175.4020  137.1170 C   0  0  0  0  0  2  0  0  0  0  0  0
  190.5830  177.2990  143.6410 C   0  0  0  0  0  3  0  0  0  0  0  0
  192.8500  175.5740  137.1140 N   0  0  0  0  0  0  0  0  0  0  0  0
  189.5550  176.3900  138.5360 C   0  0  0  0  0  0  0  0  0  0  0  0
  186.4090  175.2740  135.8240 C   0  0  0  0  0  3  0  0  0  0  0  0
  190.9760  177.1150  141.2190 C   0  0  0  0  0  0  0  0  0  0  0  0
  188.4790  175.9660  137.5920 C   0  0  0  0  0  0  0  0  0  0  0  0
  190.8500  176.0920  138.3200 C   0  0  0  0  0  0  0  0  0  0  0  0
  189.6600  177.2260  140.9120 C   0  0  0  0  0  0  0  0  0  0  0  0
  187.1780  177.9550  138.3510 C   0  0  0  0  0  3  0  0  0  0  0  0
  191.4240  177.1270  142.6260 C   0  0  0  0  0  3  0  0  0  0  0  0
  187.5430  174.4540  135.9260 C   0  0  0  0  0  0  0  0  0  0  0  0
  189.1550  177.4680  143.3820 C   0  0  0  0  0  0  0  0  0  0  0  0
  192.0240  177.0680  140.2420 N   0  0  0  0  0  0  0  0  0  0  0  0
  188.1200  177.5700  147.0620 S   0  0  0  0  0  0  0  0  0  0  0  0
  185.6530  178.7080  146.7710 C   0  0  0  0  0  1  0  0  0  0  0  0
  186.7750  178.5600  147.7790 C   0  0  0  0  0  2  0  0  0  0  0  0
  193.2000  176.2230  135.8600 C   0  0  0  0  0  2  0  0  0  0  0  0
  194.6890  176.0790  135.6000 C   0  0  0  0  0  2  0  0  0  0  0  0
  196.0480  174.1590  136.1830 N   0  0  0  0  0  0  0  0  0  0  0  0
  195.0500  174.6680  135.5680 N   0  0  0  0  0  0  0  0  0  0  0  0
  197.7820  175.7270  136.4940 O   0  0  0  0  0  0  0  0  0  0  0  0
  196.9980  174.8730  136.9950 C   0  0  0  0  0  0  0  0  0  0  0  0
  197.0500  174.5960  138.3970 N   0  0  0  0  0  2  0  0  0  0  0  0
  198.0140  175.2330  139.2910 C   0  0  0  0  0  2  0  0  0  0  0  0
  197.4590  175.2790  140.7050 C   0  0  0  0  0  1  0  0  0  0  0  0
  187.6770  173.2630  135.1420 N   0  0  0  0  0  2  0  0  0  0  0  0
  187.1050  171.9710  135.4980 C   0  0  0  0  0  3  0  0  0  0  0  0
  186.0500  172.1420  136.3750 F   0  0  0  0  0  0  0  0  0  0  0  0
  188.0700  171.1620  136.0740 F   0  0  0  0  0  0  0  0  0  0  0  0
  1 17  1  0  0  0  0
  1 20  1  0  0  0  0
  2 23  1  0  0  0  0
  3  1  2  0  0  0  0
  4  5  1  0  0  0  0
  5 24  2  0  0  0  0
  6 19  1  0  0  0  0
  7 25  1  0  0  0  0
  8 17  2  0  0  0  0
  9  7  2  0  0  0  0
 10  6  1  0  0  0  0
 11 18  1  0  0  0  0
 13 11  1  0  0  0  0
 13  4  1  0  0  0  0
 14  6  1  0  0  0  0
 15 22  2  0  0  0  0
 15  3  1  0  0  0  0
 16 21  1  0  0  0  0
 17 14  1  0  0  0  0
 18 14  2  0  0  0  0
 18  5  1  0  0  0  0
 19 16  2  0  0  0  0
 19  2  1  0  0  0  0
 20 10  2  0  0  0  0
 21 12  2  0  0  0  0
 22  8  1  0  0  0  0
 23 12  1  0  0  0  0
 23  9  2  0  0  0  0
 24 16  1  0  0  0  0
 25 27  1  0  0  0  0
 26 27  1  0  0  0  0
 28 13  1  0  0  0  0
 29 28  1  0  0  0  0
 30 33  1  0  0  0  0
 31 29  1  0  0  0  0
 31 30  2  0  0  0  0
 32 33  2  0  0  0  0
 33 34  1  0  0  0  0
 34 35  1  0  0  0  0
 35 36  1  0  0  0  0
 37 38  1  0  0  0  0
 37 22  1  0  0  0  0
 38 40  1  0  0  0  0
 38 39  1  0  0  0  0
M  END
>  <MODEL>
2

>  <REMARK>
 VINA RESULT:      -8.0      6.139      9.397
  Name = 
  9 active torsions:
  status: ('A' for Active; 'I' for Inactive)
    1  A    between atoms: C_1  and  C_19
    2  A    between atoms: C_1  and  N_25
    3  A    between atoms: N_2  and  C_21
    4  A    between atoms: C_6  and  N_30
    5  A    between atoms: C_11  and  S_15
    6  A    between atoms: S_15  and  C_39
    7  A    between atoms: N_18  and  C_19
    8  A    between atoms: C_26  and  N_40
    9  A    between atoms: N_30  and  C_32
                            x       y       z     vdW  Elec       q    Type
                         _______ _______ _______ _____ _____    ______ ____

>  <TORSDO>
F 9

$$$$
=
 OpenBabel11042411443D

 40 44  0  0  0  0  0  0  0  0999 V2000
  189.4160  177.4950  136.8300 C   0  0  0  0  0  0  0  0  0  0  0  0
  184.9380  178.1320  138.1490 C   0  0  0  0  0  2  0  0  0  0  0  0
  190.2800  176.9860  135.8550 C   0  0  0  0  0  3  0  0  0  0  0  0
  188.8810  178.2410  142.6740 C   0  0  0  0  0  2  0  0  0  0  0  0
  188.0350  178.1930  141.4700 C   0  0  0  0  0  0  0  0  0  0  0  0
  187.4040  178.3730  138.6260 N   0  0  0  0  0  0  0  0  0  0  0  0
  181.5250  178.4950  137.0760 C   0  0  0  0  0  3  0  0  0  0  0  0
  190.1560  175.7780  138.3720 C   0  0  0  0  0  3  0  0  0  0  0  0
  182.5550  178.4880  137.8760 C   0  0  0  0  0  0  0  0  0  0  0  0
  187.5990  179.0300  137.3580 C   0  0  0  0  0  3  0  0  0  0  0  0
  189.9220  176.8540  141.0590 C   0  0  0  0  0  2  0  0  0  0  0  0
  183.3600  178.5520  140.1230 C   0  0  0  0  0  3  0  0  0  0  0  0
  189.9640  177.2750  142.4660 N   0  0  0  0  0  0  0  0  0  0  0  0
  188.4440  177.5040  139.1220 C   0  0  0  0  0  0  0  0  0  0  0  0
  191.0800  175.8770  136.1380 C   0  0  0  0  0  3  0  0  0  0  0  0
  185.7940  178.4500  140.4730 C   0  0  0  0  0  0  0  0  0  0  0  0
  189.3630  176.9060  138.1080 C   0  0  0  0  0  0  0  0  0  0  0  0
  188.6980  177.4350  140.4420 C   0  0  0  0  0  0  0  0  0  0  0  0
  186.0640  178.3350  139.1490 C   0  0  0  0  0  0  0  0  0  0  0  0
  188.5490  178.6370  136.5060 C   0  0  0  0  0  3  0  0  0  0  0  0
  184.4000  178.5320  140.9520 C   0  0  0  0  0  3  0  0  0  0  0  0
  191.0170  175.2640  137.3990 C   0  0  0  0  0  0  0  0  0  0  0  0
  183.5790  178.4740  138.6810 C   0  0  0  0  0  0  0  0  0  0  0  0
  186.7990  178.5890  141.4850 N   0  0  0  0  0  0  0  0  0  0  0  0
  179.8710  178.3780  137.7490 S   0  0  0  0  0  0  0  0  0  0  0  0
  179.9150  180.0910  139.8770 C   0  0  0  0  0  1  0  0  0  0  0  0
  179.8890  180.0890  138.3620 C   0  0  0  0  0  2  0  0  0  0  0  0
  191.2200  177.9810  142.6630 C   0  0  0  0  0  2  0  0  0  0  0  0
  191.6380  177.8970  144.1210 C   0  0  0  0  0  2  0  0  0  0  0  0
  191.6060  176.0360  145.6710 N   0  0  0  0  0  0  0  0  0  0  0  0
  191.8220  176.5030  144.5020 N   0  0  0  0  0  0  0  0  0  0  0  0
  191.9620  177.0820  147.7540 O   0  0  0  0  0  0  0  0  0  0  0  0
  191.1680  176.7860  146.8180 C   0  0  0  0  0  0  0  0  0  0  0  0
  189.7990  177.1950  146.8900 N   0  0  0  0  0  2  0  0  0  0  0  0
  189.2510  177.9160  148.0360 C   0  0  0  0  0  2  0  0  0  0  0  0
  187.7340  177.9530  147.9490 C   0  0  0  0  0  1  0  0  0  0  0  0
  191.8160  174.1170  137.7140 N   0  0  0  0  0  2  0  0  0  0  0  0
  193.2190  173.9630  137.3490 C   0  0  0  0  0  3  0  0  0  0  0  0
  193.8960  175.1540  137.5410 F   0  0  0  0  0  0  0  0  0  0  0  0
  193.3300  173.5660  136.0280 F   0  0  0  0  0  0  0  0  0  0  0  0
  1 17  1  0  0  0  0
  2 23  1  0  0  0  0
  2 19  1  0  0  0  0
  3 15  1  0  0  0  0
  3  1  2  0  0  0  0
  5 24  2  0  0  0  0
  5  4  1  0  0  0  0
  6 14  1  0  0  0  0
  6 19  1  0  0  0  0
  7 25  1  0  0  0  0
  7  9  2  0  0  0  0
  9 23  2  0  0  0  0
 10  6  1  0  0  0  0
 11 13  1  0  0  0  0
 12 21  2  0  0  0  0
 13 28  1  0  0  0  0
 13  4  1  0  0  0  0
 14 18  2  0  0  0  0
 15 22  2  0  0  0  0
 16 21  1  0  0  0  0
 16 24  1  0  0  0  0
 17  8  2  0  0  0  0
 17 14  1  0  0  0  0
 18 11  1  0  0  0  0
 18  5  1  0  0  0  0
 19 16  2  0  0  0  0
 20  1  1  0  0  0  0
 20 10  2  0  0  0  0
 22 37  1  0  0  0  0
 22  8  1  0  0  0  0
 23 12  1  0  0  0  0
 25 27  1  0  0  0  0
 27 26  1  0  0  0  0
 28 29  1  0  0  0  0
 29 31  1  0  0  0  0
 30 33  1  0  0  0  0
 31 30  2  0  0  0  0
 33 34  1  0  0  0  0
 33 32  2  0  0  0  0
 34 35  1  0  0  0  0
 36 35  1  0  0  0  0
 38 39  1  0  0  0  0
 38 37  1  0  0  0  0
 40 38  1  0  0  0  0
M  END
>  <MODEL>
3

>  <REMARK>
 VINA RESULT:      -7.6      3.189      4.609
  Name = 
  9 active torsions:
  status: ('A' for Active; 'I' for Inactive)
    1  A    between atoms: C_1  and  C_19
    2  A    between atoms: C_1  and  N_25
    3  A    between atoms: N_2  and  C_21
    4  A    between atoms: C_6  and  N_30
    5  A    between atoms: C_11  and  S_15
    6  A    between atoms: S_15  and  C_39
    7  A    between atoms: N_18  and  C_19
    8  A    between atoms: C_26  and  N_40
    9  A    between atoms: N_30  and  C_32
                            x       y       z     vdW  Elec       q    Type
                         _______ _______ _______ _____ _____    ______ ____

>  <TORSDO>
F 9

$$$$
=
 OpenBabel11042411443D

 40 44  0  0  0  0  0  0  0  0999 V2000
  191.7280  177.4010  141.0750 C   0  0  0  0  0  0  0  0  0  0  0  0
  193.6490  174.4960  137.9010 C   0  0  0  0  0  2  0  0  0  0  0  0
  191.6910  177.7980  142.4160 C   0  0  0  0  0  3  0  0  0  0  0  0
  188.2890  176.6870  136.3150 C   0  0  0  0  0  2  0  0  0  0  0  0
  189.5920  176.2340  136.8330 C   0  0  0  0  0  0  0  0  0  0  0  0
  192.0100  176.3310  138.4640 N   0  0  0  0  0  0  0  0  0  0  0  0
  196.5070  172.5020  137.0140 C   0  0  0  0  0  3  0  0  0  0  0  0
  189.4870  176.5030  141.2870 C   0  0  0  0  0  3  0  0  0  0  0  0
  195.3570  173.1050  136.8880 C   0  0  0  0  0  0  0  0  0  0  0  0
  193.0660  177.1100  139.0600 C   0  0  0  0  0  3  0  0  0  0  0  0
  188.2170  176.6930  138.6830 C   0  0  0  0  0  2  0  0  0  0  0  0
  193.3600  173.3890  135.6100 C   0  0  0  0  0  3  0  0  0  0  0  0
  187.3960  176.8090  137.4700 N   0  0  0  0  0  0  0  0  0  0  0  0
  190.6930  176.3870  139.0510 C   0  0  0  0  0  0  0  0  0  0  0  0
  190.5550  177.5490  143.1900 C   0  0  0  0  0  3  0  0  0  0  0  0
  191.6800  174.9810  136.4450 C   0  0  0  0  0  0  0  0  0  0  0  0
  190.6140  176.7670  140.4930 C   0  0  0  0  0  0  0  0  0  0  0  0
  189.5990  176.3250  138.2700 C   0  0  0  0  0  0  0  0  0  0  0  0
  192.3970  175.2840  137.5550 C   0  0  0  0  0  0  0  0  0  0  0  0
  192.9450  177.6310  140.2830 C   0  0  0  0  0  3  0  0  0  0  0  0
  192.1790  173.9850  135.4750 C   0  0  0  0  0  3  0  0  0  0  0  0
  189.4480  176.8950  142.6290 C   0  0  0  0  0  0  0  0  0  0  0  0
  194.2050  173.7000  136.7600 C   0  0  0  0  0  0  0  0  0  0  0  0
  190.4600  175.6370  136.0760 N   0  0  0  0  0  0  0  0  0  0  0  0
  196.9340  171.1580  135.9130 S   0  0  0  0  0  0  0  0  0  0  0  0
  194.6410  169.8060  135.2950 C   0  0  0  0  0  1  0  0  0  0  0  0
  195.5450  170.1250  136.4680 C   0  0  0  0  0  2  0  0  0  0  0  0
  186.8460  178.1550  137.4540 C   0  0  0  0  0  2  0  0  0  0  0  0
  185.4610  178.1570  138.0760 C   0  0  0  0  0  2  0  0  0  0  0  0
  184.5030  179.9050  139.4540 N   0  0  0  0  0  0  0  0  0  0  0  0
  185.0510  179.5250  138.3640 N   0  0  0  0  0  0  0  0  0  0  0  0
  183.1030  178.4040  140.6140 O   0  0  0  0  0  0  0  0  0  0  0  0
  184.1780  179.0670  140.5780 C   0  0  0  0  0  0  0  0  0  0  0  0
  185.0960  178.9960  141.6720 N   0  0  0  0  0  2  0  0  0  0  0  0
  184.8290  178.2130  142.8750 C   0  0  0  0  0  2  0  0  0  0  0  0
  184.3070  179.1170  143.9790 C   0  0  0  0  0  1  0  0  0  0  0  0
  188.2750  176.6150  143.4010 N   0  0  0  0  0  2  0  0  0  0  0  0
  187.9900  177.1920  144.7090 C   0  0  0  0  0  3  0  0  0  0  0  0
  188.8700  176.6910  145.6530 F   0  0  0  0  0  0  0  0  0  0  0  0
  186.6880  176.9120  145.0840 F   0  0  0  0  0  0  0  0  0  0  0  0
  1  3  1  0  0  0  0
  3 15  2  0  0  0  0
  4  5  1  0  0  0  0
  4 13  1  0  0  0  0
  5 18  1  0  0  0  0
  6 14  1  0  0  0  0
  6 10  1  0  0  0  0
  8 22  2  0  0  0  0
  9  7  2  0  0  0  0
 10 20  2  0  0  0  0
 12 23  1  0  0  0  0
 13 11  1  0  0  0  0
 14 17  1  0  0  0  0
 16 19  2  0  0  0  0
 17  1  2  0  0  0  0
 17  8  1  0  0  0  0
 18 11  1  0  0  0  0
 18 14  2  0  0  0  0
 19  2  1  0  0  0  0
 19  6  1  0  0  0  0
 20  1  1  0  0  0  0
 21 12  2  0  0  0  0
 21 16  1  0  0  0  0
 22 15  1  0  0  0  0
 22 37  1  0  0  0  0
 23  9  2  0  0  0  0
 23  2  1  0  0  0  0
 24 16  1  0  0  0  0
 24  5  2  0  0  0  0
 25 27  1  0  0  0  0
 25  7  1  0  0  0  0
 26 27  1  0  0  0  0
 28 13  1  0  0  0  0
 28 29  1  0  0  0  0
 29 31  1  0  0  0  0
 30 33  1  0  0  0  0
 31 30  2  0  0  0  0
 33 32  2  0  0  0  0
 33 34  1  0  0  0  0
 34 35  1  0  0  0  0
 35 36  1  0  0  0  0
 37 38  1  0  0  0  0
 38 40  1  0  0  0  0
 38 39  1  0  0  0  0
M  END
>  <MODEL>
4

>  <REMARK>
 VINA RESULT:      -7.5      5.953     10.146
  Name = 
  9 active torsions:
  status: ('A' for Active; 'I' for Inactive)
    1  A    between atoms: C_1  and  C_19
    2  A    between atoms: C_1  and  N_25
    3  A    between atoms: N_2  and  C_21
    4  A    between atoms: C_6  and  N_30
    5  A    between atoms: C_11  and  S_15
    6  A    between atoms: S_15  and  C_39
    7  A    between atoms: N_18  and  C_19
    8  A    between atoms: C_26  and  N_40
    9  A    between atoms: N_30  and  C_32
                            x       y       z     vdW  Elec       q    Type
                         _______ _______ _______ _____ _____    ______ ____

>  <TORSDO>
F 9

$$$$
=
 OpenBabel11042411443D

 40 44  0  0  0  0  0  0  0  0999 V2000
  188.4180  177.9480  141.7290 C   0  0  0  0  0  0  0  0  0  0  0  0
  183.7320  178.2390  141.3330 C   0  0  0  0  0  2  0  0  0  0  0  0
  189.6100  177.5120  141.1410 C   0  0  0  0  0  3  0  0  0  0  0  0
  185.7590  178.6100  146.9720 C   0  0  0  0  0  2  0  0  0  0  0  0
  185.4100  178.5080  145.5440 C   0  0  0  0  0  0  0  0  0  0  0  0
  185.8360  178.6600  142.6610 N   0  0  0  0  0  0  0  0  0  0  0  0
  180.9190  178.3530  139.0960 C   0  0  0  0  0  3  0  0  0  0  0  0
  188.6740  176.2810  143.4680 C   0  0  0  0  0  3  0  0  0  0  0  0
  181.5890  178.4170  140.2130 C   0  0  0  0  0  0  0  0  0  0  0  0
  186.4260  179.3390  141.5350 C   0  0  0  0  0  3  0  0  0  0  0  0
  187.4100  177.3170  145.8680 C   0  0  0  0  0  2  0  0  0  0  0  0
  181.5230  178.5260  142.5970 C   0  0  0  0  0  3  0  0  0  0  0  0
  186.9110  177.7290  147.1870 N   0  0  0  0  0  0  0  0  0  0  0  0
  186.6870  177.8680  143.5160 C   0  0  0  0  0  0  0  0  0  0  0  0
  190.3320  176.4640  141.7160 C   0  0  0  0  0  3  0  0  0  0  0  0
  183.6670  178.6040  143.8020 C   0  0  0  0  0  0  0  0  0  0  0  0
  187.9500  177.3480  142.9130 C   0  0  0  0  0  0  0  0  0  0  0  0
  186.4520  177.8080  144.8400 C   0  0  0  0  0  0  0  0  0  0  0  0
  184.4040  178.5180  142.6670 C   0  0  0  0  0  0  0  0  0  0  0  0
  187.6460  179.0250  141.0910 C   0  0  0  0  0  3  0  0  0  0  0  0
  182.1920  178.5780  143.7460 C   0  0  0  0  0  3  0  0  0  0  0  0
  189.8630  175.8390  142.8810 C   0  0  0  0  0  0  0  0  0  0  0  0
  182.2520  178.4750  141.3330 C   0  0  0  0  0  0  0  0  0  0  0  0
  184.2270  178.8100  145.1060 N   0  0  0  0  0  0  0  0  0  0  0  0
  179.1470  178.1080  139.1310 S   0  0  0  0  0  0  0  0  0  0  0  0
  180.1860  179.3850  136.9500 C   0  0  0  0  0  1  0  0  0  0  0  0
  178.9310  178.6750  137.4170 C   0  0  0  0  0  2  0  0  0  0  0  0
  187.9570  178.5260  147.8090 C   0  0  0  0  0  2  0  0  0  0  0  0
  189.2090  177.6870  147.9910 C   0  0  0  0  0  2  0  0  0  0  0  0
  191.1690  177.1950  146.6540 N   0  0  0  0  0  0  0  0  0  0  0  0
  190.0350  177.7680  146.7940 N   0  0  0  0  0  0  0  0  0  0  0  0
  191.8480  175.1300  147.5680 O   0  0  0  0  0  0  0  0  0  0  0  0
  191.8410  176.3910  147.6400 C   0  0  0  0  0  0  0  0  0  0  0  0
  192.5070  177.0450  148.7230 N   0  0  0  0  0  2  0  0  0  0  0  0
  193.1730  176.3130  149.7970 C   0  0  0  0  0  2  0  0  0  0  0  0
  194.4250  177.0540  150.2340 C   0  0  0  0  0  1  0  0  0  0  0  0
  190.5760  174.7530  143.4860 N   0  0  0  0  0  2  0  0  0  0  0  0
  191.9710  174.8120  143.9020 C   0  0  0  0  0  3  0  0  0  0  0  0
  192.2120  173.8800  144.8960 F   0  0  0  0  0  0  0  0  0  0  0  0
  192.2820  176.0800  144.3600 F   0  0  0  0  0  0  0  0  0  0  0  0
  1 17  1  0  0  0  0
  2 23  1  0  0  0  0
  2 19  1  0  0  0  0
  3 15  1  0  0  0  0
  3  1  2  0  0  0  0
  4 13  1  0  0  0  0
  5  4  1  0  0  0  0
  6 19  1  0  0  0  0
  6 14  1  0  0  0  0
  7 25  1  0  0  0  0
  7  9  2  0  0  0  0
  9 23  2  0  0  0  0
 10  6  1  0  0  0  0
 11 13  1  0  0  0  0
 12 21  2  0  0  0  0
 13 28  1  0  0  0  0
 14 18  2  0  0  0  0
 15 22  2  0  0  0  0
 16 24  1  0  0  0  0
 17  8  2  0  0  0  0
 17 14  1  0  0  0  0
 18  5  1  0  0  0  0
 18 11  1  0  0  0  0
 19 16  2  0  0  0  0
 20 10  2  0  0  0  0
 20  1  1  0  0  0  0
 21 16  1  0  0  0  0
 22  8  1  0  0  0  0
 22 37  1  0  0  0  0
 23 12  1  0  0  0  0
 24  5  2  0  0  0  0
 26 27  1  0  0  0  0
 27 25  1  0  0  0  0
 28 29  1  0  0  0  0
 30 31  2  0  0  0  0
 30 33  1  0  0  0  0
 31 29  1  0  0  0  0
 32 33  2  0  0  0  0
 33 34  1  0  0  0  0
 34 35  1  0  0  0  0
 35 36  1  0  0  0  0
 37 38  1  0  0  0  0
 38 40  1  0  0  0  0
 38 39  1  0  0  0  0
M  END
>  <MODEL>
5

>  <REMARK>
 VINA RESULT:      -7.3      1.370      1.998
  Name = 
  9 active torsions:
  status: ('A' for Active; 'I' for Inactive)
    1  A    between atoms: C_1  and  C_19
    2  A    between atoms: C_1  and  N_25
    3  A    between atoms: N_2  and  C_21
    4  A    between atoms: C_6  and  N_30
    5  A    between atoms: C_11  and  S_15
    6  A    between atoms: S_15  and  C_39
    7  A    between atoms: N_18  and  C_19
    8  A    between atoms: C_26  and  N_40
    9  A    between atoms: N_30  and  C_32
                            x       y       z     vdW  Elec       q    Type
                         _______ _______ _______ _____ _____    ______ ____

>  <TORSDO>
F 9

$$$$
=
 OpenBabel11042411443D

 40 44  0  0  0  0  0  0  0  0999 V2000
  191.7760  177.3520  141.1250 C   0  0  0  0  0  0  0  0  0  0  0  0
  193.7920  174.5670  137.9020 C   0  0  0  0  0  2  0  0  0  0  0  0
  191.6980  177.6960  142.4780 C   0  0  0  0  0  3  0  0  0  0  0  0
  188.4920  176.8380  136.2310 C   0  0  0  0  0  2  0  0  0  0  0  0
  189.7760  176.3600  136.7730 C   0  0  0  0  0  0  0  0  0  0  0  0
  192.1400  176.3840  138.4840 N   0  0  0  0  0  0  0  0  0  0  0  0
  196.6720  172.5980  137.0300 C   0  0  0  0  0  3  0  0  0  0  0  0
  189.5280  176.4550  141.2290 C   0  0  0  0  0  3  0  0  0  0  0  0
  195.5290  173.2100  136.8900 C   0  0  0  0  0  0  0  0  0  0  0  0
  193.1790  177.1350  139.1430 C   0  0  0  0  0  3  0  0  0  0  0  0
  188.3430  176.7520  138.5950 C   0  0  0  0  0  2  0  0  0  0  0  0
  193.5750  173.5510  135.5610 C   0  0  0  0  0  3  0  0  0  0  0  0
  187.5620  176.9180  137.3620 N   0  0  0  0  0  0  0  0  0  0  0  0
  190.8050  176.4220  139.0300 C   0  0  0  0  0  0  0  0  0  0  0  0
  190.5370  177.4210  143.2040 C   0  0  0  0  0  3  0  0  0  0  0  0
  191.8720  175.1150  136.4040 C   0  0  0  0  0  0  0  0  0  0  0  0
  190.6800  176.7450  140.4820 C   0  0  0  0  0  0  0  0  0  0  0  0
  189.7370  176.3940  138.2120 C   0  0  0  0  0  0  0  0  0  0  0  0
  192.5530  175.3720  137.5470 C   0  0  0  0  0  0  0  0  0  0  0  0
  193.0190  177.6080  140.3820 C   0  0  0  0  0  3  0  0  0  0  0  0
  192.4000  174.1570  135.4120 C   0  0  0  0  0  3  0  0  0  0  0  0
  189.4470  176.7940  142.5830 C   0  0  0  0  0  0  0  0  0  0  0  0
  194.3830  173.8130  136.7490 C   0  0  0  0  0  0  0  0  0  0  0  0
  190.6660  175.7900  136.0220 N   0  0  0  0  0  0  0  0  0  0  0  0
  197.1310  171.2960  135.8910 S   0  0  0  0  0  0  0  0  0  0  0  0
  194.8390  169.9910  135.1760 C   0  0  0  0  0  1  0  0  0  0  0  0
  195.7340  170.2390  136.3740 C   0  0  0  0  0  2  0  0  0  0  0  0
  187.0160  178.2660  137.3800 C   0  0  0  0  0  2  0  0  0  0  0  0
  185.6910  178.2780  138.1220 C   0  0  0  0  0  2  0  0  0  0  0  0
  184.8600  179.3630  140.1220 N   0  0  0  0  0  0  0  0  0  0  0  0
  185.8330  179.0070  139.3750 N   0  0  0  0  0  0  0  0  0  0  0  0
  182.8020  179.8850  139.0960 O   0  0  0  0  0  0  0  0  0  0  0  0
  183.4630  179.1320  139.8650 C   0  0  0  0  0  0  0  0  0  0  0  0
  182.8200  178.0260  140.5040 N   0  0  0  0  0  2  0  0  0  0  0  0
  181.3970  177.7420  140.3430 C   0  0  0  0  0  2  0  0  0  0  0  0
  181.2050  176.3320  139.8110 C   0  0  0  0  0  1  0  0  0  0  0  0
  188.2480  176.4880  143.3050 N   0  0  0  0  0  2  0  0  0  0  0  0
  187.7340  177.2730  144.4210 C   0  0  0  0  0  3  0  0  0  0  0  0
  188.3340  176.8730  145.6020 F   0  0  0  0  0  0  0  0  0  0  0  0
  186.3610  177.1270  144.5170 F   0  0  0  0  0  0  0  0  0  0  0  0
  1  3  1  0  0  0  0
  3 15  2  0  0  0  0
  4  5  1  0  0  0  0
  4 13  1  0  0  0  0
  5 18  1  0  0  0  0
  6 14  1  0  0  0  0
  6 10  1  0  0  0  0
  8 22  2  0  0  0  0
  9  7  2  0  0  0  0
 10 20  2  0  0  0  0
 12 23  1  0  0  0  0
 13 28  1  0  0  0  0
 13 11  1  0  0  0  0
 14 17  1  0  0  0  0
 16 19  2  0  0  0  0
 17  1  2  0  0  0  0
 17  8  1  0  0  0  0
 18 11  1  0  0  0  0
 18 14  2  0  0  0  0
 19  2  1  0  0  0  0
 19  6  1  0  0  0  0
 20  1  1  0  0  0  0
 21 12  2  0  0  0  0
 21 16  1  0  0  0  0
 22 15  1  0  0  0  0
 22 37  1  0  0  0  0
 23  9  2  0  0  0  0
 23  2  1  0  0  0  0
 24 16  1  0  0  0  0
 24  5  2  0  0  0  0
 25 27  1  0  0  0  0
 25  7  1  0  0  0  0
 26 27  1  0  0  0  0
 28 29  1  0  0  0  0
 29 31  1  0  0  0  0
 31 30  2  0  0  0  0
 32 33  2  0  0  0  0
 33 30  1  0  0  0  0
 33 34  1  0  0  0  0
 35 34  1  0  0  0  0
 36 35  1  0  0  0  0
 37 38  1  0  0  0  0
 38 40  1  0  0  0  0
 38 39  1  0  0  0  0
M  END
>  <MODEL>
6

>  <REMARK>
 VINA RESULT:      -7.1      6.080     10.476
  Name = 
  9 active torsions:
  status: ('A' for Active; 'I' for Inactive)
    1  A    between atoms: C_1  and  C_19
    2  A    between atoms: C_1  and  N_25
    3  A    between atoms: N_2  and  C_21
    4  A    between atoms: C_6  and  N_30
    5  A    between atoms: C_11  and  S_15
    6  A    between atoms: S_15  and  C_39
    7  A    between atoms: N_18  and  C_19
    8  A    between atoms: C_26  and  N_40
    9  A    between atoms: N_30  and  C_32
                            x       y       z     vdW  Elec       q    Type
                         _______ _______ _______ _____ _____    ______ ____

>  <TORSDO>
F 9

$$$$
=
 OpenBabel11042411443D

 40 44  0  0  0  0  0  0  0  0999 V2000
  186.9340  176.4290  137.4040 C   0  0  0  0  0  0  0  0  0  0  0  0
  191.6260  176.4650  136.9680 C   0  0  0  0  0  2  0  0  0  0  0  0
  185.7050  176.5940  136.7570 C   0  0  0  0  0  3  0  0  0  0  0  0
  189.6610  177.3640  142.5700 C   0  0  0  0  0  2  0  0  0  0  0  0
  189.9950  177.1300  141.1540 C   0  0  0  0  0  0  0  0  0  0  0  0
  189.5740  176.2110  138.4160 N   0  0  0  0  0  0  0  0  0  0  0  0
  194.4290  176.0350  134.7570 C   0  0  0  0  0  3  0  0  0  0  0  0
  186.5310  178.4560  138.6710 C   0  0  0  0  0  3  0  0  0  0  0  0
  193.7720  176.1980  135.8730 C   0  0  0  0  0  0  0  0  0  0  0  0
  189.0460  175.2170  137.5150 C   0  0  0  0  0  3  0  0  0  0  0  0
  187.8940  178.1820  141.2190 C   0  0  0  0  0  2  0  0  0  0  0  0
  193.8570  176.7070  138.2040 C   0  0  0  0  0  3  0  0  0  0  0  0
  188.4340  178.1650  142.5850 N   0  0  0  0  0  0  0  0  0  0  0  0
  188.6570  177.1160  139.0650 C   0  0  0  0  0  0  0  0  0  0  0  0
  184.8910  177.6850  137.0670 C   0  0  0  0  0  3  0  0  0  0  0  0
  191.7320  176.7490  139.4470 C   0  0  0  0  0  0  0  0  0  0  0  0
  187.3480  177.3510  138.3850 C   0  0  0  0  0  0  0  0  0  0  0  0
  188.8900  177.5310  140.3240 C   0  0  0  0  0  0  0  0  0  0  0  0
  190.9870  176.4760  138.3470 C   0  0  0  0  0  0  0  0  0  0  0  0
  187.8010  175.2990  137.0390 C   0  0  0  0  0  3  0  0  0  0  0  0
  193.1990  176.8910  139.3450 C   0  0  0  0  0  3  0  0  0  0  0  0
  185.3040  178.6260  138.0230 C   0  0  0  0  0  0  0  0  0  0  0  0
  193.1210  176.3690  136.9880 C   0  0  0  0  0  0  0  0  0  0  0  0
  191.1990  176.8320  140.7740 N   0  0  0  0  0  0  0  0  0  0  0  0
  196.1710  176.4380  134.6810 S   0  0  0  0  0  0  0  0  0  0  0  0
  197.1840  174.8850  136.6890 C   0  0  0  0  0  1  0  0  0  0  0  0
  196.6820  174.7920  135.2620 C   0  0  0  0  0  2  0  0  0  0  0  0
  187.4690  177.4630  143.4180 C   0  0  0  0  0  2  0  0  0  0  0  0
  188.1780  176.7920  144.5800 C   0  0  0  0  0  2  0  0  0  0  0  0
  189.1330  177.8750  146.5260 N   0  0  0  0  0  0  0  0  0  0  0  0
  188.1420  177.6610  145.7490 N   0  0  0  0  0  0  0  0  0  0  0  0
  191.2450  177.6550  145.5020 O   0  0  0  0  0  0  0  0  0  0  0  0
  190.4440  177.2940  146.4090 C   0  0  0  0  0  0  0  0  0  0  0  0
  190.8350  176.2830  147.3420 N   0  0  0  0  0  2  0  0  0  0  0  0
  192.1250  175.6020  147.2720 C   0  0  0  0  0  2  0  0  0  0  0  0
  192.9490  175.9190  148.5080 C   0  0  0  0  0  1  0  0  0  0  0  0
  184.4960  179.7620  138.3520 N   0  0  0  0  0  2  0  0  0  0  0  0
  183.2500  179.6990  139.1060 C   0  0  0  0  0  3  0  0  0  0  0  0
  183.3160  178.6930  140.0540 F   0  0  0  0  0  0  0  0  0  0  0  0
  182.1840  179.4720  138.2530 F   0  0  0  0  0  0  0  0  0  0  0  0
  1 17  1  0  0  0  0
  2 23  1  0  0  0  0
  2 19  1  0  0  0  0
  3 15  1  0  0  0  0
  3  1  2  0  0  0  0
  4 13  1  0  0  0  0
  5  4  1  0  0  0  0
  6 14  1  0  0  0  0
  7  9  2  0  0  0  0
  9 23  2  0  0  0  0
 10  6  1  0  0  0  0
 11 13  1  0  0  0  0
 12 21  2  0  0  0  0
 13 28  1  0  0  0  0
 14 18  2  0  0  0  0
 15 22  2  0  0  0  0
 16 24  1  0  0  0  0
 17  8  2  0  0  0  0
 17 14  1  0  0  0  0
 18  5  1  0  0  0  0
 18 11  1  0  0  0  0
 19  6  1  0  0  0  0
 19 16  2  0  0  0  0
 20  1  1  0  0  0  0
 20 10  2  0  0  0  0
 21 16  1  0  0  0  0
 22 37  1  0  0  0  0
 22  8  1  0  0  0  0
 23 12  1  0  0  0  0
 24  5  2  0  0  0  0
 25  7  1  0  0  0  0
 25 27  1  0  0  0  0
 27 26  1  0  0  0  0
 28 29  1  0  0  0  0
 29 31  1  0  0  0  0
 31 30  2  0  0  0  0
 32 33  2  0  0  0  0
 33 30  1  0  0  0  0
 33 34  1  0  0  0  0
 35 34  1  0  0  0  0
 35 36  1  0  0  0  0
 37 38  1  0  0  0  0
 38 39  1  0  0  0  0
 40 38  1  0  0  0  0
M  END
>  <MODEL>
7

>  <REMARK>
 VINA RESULT:      -6.9      5.441      8.935
  Name = 
  9 active torsions:
  status: ('A' for Active; 'I' for Inactive)
    1  A    between atoms: C_1  and  C_19
    2  A    between atoms: C_1  and  N_25
    3  A    between atoms: N_2  and  C_21
    4  A    between atoms: C_6  and  N_30
    5  A    between atoms: C_11  and  S_15
    6  A    between atoms: S_15  and  C_39
    7  A    between atoms: N_18  and  C_19
    8  A    between atoms: C_26  and  N_40
    9  A    between atoms: N_30  and  C_32
                            x       y       z     vdW  Elec       q    Type
                         _______ _______ _______ _____ _____    ______ ____

>  <TORSDO>
F 9

$$$$
=
 OpenBabel11042411443D

 40 44  0  0  0  0  0  0  0  0999 V2000
  184.8660  178.5530  140.4790 C   0  0  0  0  0  0  0  0  0  0  0  0
  183.3500  174.7820  138.0950 C   0  0  0  0  0  2  0  0  0  0  0  0
  185.8990  179.1090  141.2400 C   0  0  0  0  0  3  0  0  0  0  0  0
  178.9740  178.4420  139.9630 C   0  0  0  0  0  2  0  0  0  0  0  0
  180.1480  177.6440  139.5680 C   0  0  0  0  0  0  0  0  0  0  0  0
  182.9520  177.1220  138.9520 N   0  0  0  0  0  0  0  0  0  0  0  0
  184.2760  171.8360  136.2520 C   0  0  0  0  0  3  0  0  0  0  0  0
  183.4500  178.5080  142.4440 C   0  0  0  0  0  3  0  0  0  0  0  0
  183.5150  172.7730  136.7470 C   0  0  0  0  0  0  0  0  0  0  0  0
  184.1880  177.5640  138.3570 C   0  0  0  0  0  3  0  0  0  0  0  0
  180.7010  178.7800  141.5500 C   0  0  0  0  0  2  0  0  0  0  0  0
  181.2990  173.5510  137.1770 C   0  0  0  0  0  3  0  0  0  0  0  0
  179.2750  179.0100  141.2800 N   0  0  0  0  0  0  0  0  0  0  0  0
  182.5430  177.6990  140.2100 C   0  0  0  0  0  0  0  0  0  0  0  0
  185.7070  179.3650  142.6000 C   0  0  0  0  0  3  0  0  0  0  0  0
  181.0460  175.7150  138.3220 C   0  0  0  0  0  0  0  0  0  0  0  0
  183.6220  178.2670  141.0720 C   0  0  0  0  0  0  0  0  0  0  0  0
  181.2400  177.9120  140.4670 C   0  0  0  0  0  0  0  0  0  0  0  0
  182.3830  175.8970  138.4530 C   0  0  0  0  0  0  0  0  0  0  0  0
  185.0940  178.2490  139.0580 C   0  0  0  0  0  3  0  0  0  0  0  0
  180.5110  174.4920  137.6890 C   0  0  0  0  0  3  0  0  0  0  0  0
  184.4810  179.0600  143.2100 C   0  0  0  0  0  0  0  0  0  0  0  0
  182.7510  173.7020  137.2450 C   0  0  0  0  0  0  0  0  0  0  0  0
  180.0650  176.6940  138.6890 N   0  0  0  0  0  0  0  0  0  0  0  0
  183.5490  170.2950  135.7020 S   0  0  0  0  0  0  0  0  0  0  0  0
  181.0100  170.4710  134.7070 C   0  0  0  0  0  1  0  0  0  0  0  0
  182.3720  171.1270  134.5950 C   0  0  0  0  0  2  0  0  0  0  0  0
  179.0850  180.4490  141.1860 C   0  0  0  0  0  2  0  0  0  0  0  0
  179.1450  180.8860  139.7330 C   0  0  0  0  0  2  0  0  0  0  0  0
  181.0140  181.6100  138.3710 N   0  0  0  0  0  0  0  0  0  0  0  0
  180.3870  181.6060  139.4850 N   0  0  0  0  0  0  0  0  0  0  0  0
  179.8370  181.4170  136.3370 O   0  0  0  0  0  0  0  0  0  0  0  0
  180.6290  180.9050  137.1780 C   0  0  0  0  0  0  0  0  0  0  0  0
  181.1560  179.5950  136.9520 N   0  0  0  0  0  2  0  0  0  0  0  0
  180.7840  178.7840  135.7960 C   0  0  0  0  0  2  0  0  0  0  0  0
  181.9460  177.8920  135.3910 C   0  0  0  0  0  1  0  0  0  0  0  0
  184.2600  179.2990  144.6050 N   0  0  0  0  0  2  0  0  0  0  0  0
  185.0660  178.7320  145.6780 C   0  0  0  0  0  3  0  0  0  0  0  0
  185.8600  177.7100  145.1900 F   0  0  0  0  0  0  0  0  0  0  0  0
  184.2510  178.2530  146.6880 F   0  0  0  0  0  0  0  0  0  0  0  0
  1 17  2  0  0  0  0
  1  3  1  0  0  0  0
  2 19  1  0  0  0  0
  3 15  2  0  0  0  0
  4 13  1  0  0  0  0
  5  4  1  0  0  0  0
  5 18  1  0  0  0  0
  6 14  1  0  0  0  0
  7  9  2  0  0  0  0
  8 22  2  0  0  0  0
  9 23  2  0  0  0  0
 10  6  1  0  0  0  0
 10 20  2  0  0  0  0
 12 23  1  0  0  0  0
 12 21  2  0  0  0  0
 13 11  1  0  0  0  0
 14 18  2  0  0  0  0
 14 17  1  0  0  0  0
 15 22  1  0  0  0  0
 16 19  2  0  0  0  0
 16 24  1  0  0  0  0
 17  8  1  0  0  0  0
 18 11  1  0  0  0  0
 19  6  1  0  0  0  0
 20  1  1  0  0  0  0
 21 16  1  0  0  0  0
 22 37  1  0  0  0  0
 23  2  1  0  0  0  0
 24  5  2  0  0  0  0
 25  7  1  0  0  0  0
 27 26  1  0  0  0  0
 27 25  1  0  0  0  0
 28 13  1  0  0  0  0
 29 28  1  0  0  0  0
 30 31  2  0  0  0  0
 31 29  1  0  0  0  0
 32 33  2  0  0  0  0
 33 30  1  0  0  0  0
 34 33  1  0  0  0  0
 35 34  1  0  0  0  0
 36 35  1  0  0  0  0
 37 38  1  0  0  0  0
 38 40  1  0  0  0  0
 39 38  1  0  0  0  0
M  END
>  <MODEL>
8

>  <REMARK>
 VINA RESULT:      -6.9      5.228      8.787
  Name = 
  9 active torsions:
  status: ('A' for Active; 'I' for Inactive)
    1  A    between atoms: C_1  and  C_19
    2  A    between atoms: C_1  and  N_25
    3  A    between atoms: N_2  and  C_21
    4  A    between atoms: C_6  and  N_30
    5  A    between atoms: C_11  and  S_15
    6  A    between atoms: S_15  and  C_39
    7  A    between atoms: N_18  and  C_19
    8  A    between atoms: C_26  and  N_40
    9  A    between atoms: N_30  and  C_32
                            x       y       z     vdW  Elec       q    Type
                         _______ _______ _______ _____ _____    ______ ____

>  <TORSDO>
F 9

$$$$
=
 OpenBabel11042411443D

 40 44  0  0  0  0  0  0  0  0999 V2000
  181.9220  179.0020  143.5720 C   0  0  0  0  0  0  0  0  0  0  0  0
  186.4090  177.8840  144.4790 C   0  0  0  0  0  2  0  0  0  0  0  0
  180.5960  178.9380  144.0120 C   0  0  0  0  0  3  0  0  0  0  0  0
  185.2340  178.8550  138.6720 C   0  0  0  0  0  2  0  0  0  0  0  0
  185.3730  178.6500  140.1240 C   0  0  0  0  0  0  0  0  0  0  0  0
  184.6870  178.9150  142.9480 N   0  0  0  0  0  0  0  0  0  0  0  0
  188.8570  177.1500  147.0090 C   0  0  0  0  0  3  0  0  0  0  0  0
  181.3840  177.4900  141.7560 C   0  0  0  0  0  3  0  0  0  0  0  0
  188.3680  177.4140  145.8290 C   0  0  0  0  0  0  0  0  0  0  0  0
  184.2000  179.7370  144.0280 C   0  0  0  0  0  3  0  0  0  0  0  0
  183.1610  178.1090  139.5450 C   0  0  0  0  0  2  0  0  0  0  0  0
  188.7320  177.5030  143.4710 C   0  0  0  0  0  3  0  0  0  0  0  0
  183.9060  178.3570  138.3030 N   0  0  0  0  0  0  0  0  0  0  0  0
  183.7430  178.4140  141.9790 C   0  0  0  0  0  0  0  0  0  0  0  0
  179.6670  178.1540  143.3260 C   0  0  0  0  0  3  0  0  0  0  0  0
  186.8570  178.2190  142.0460 C   0  0  0  0  0  0  0  0  0  0  0  0
  182.3230  178.2920  142.4230 C   0  0  0  0  0  0  0  0  0  0  0  0
  184.0980  178.2910  140.6870 C   0  0  0  0  0  0  0  0  0  0  0  0
  186.0050  178.3540  143.0920 C   0  0  0  0  0  0  0  0  0  0  0  0
  182.9000  179.7980  144.3270 C   0  0  0  0  0  3  0  0  0  0  0  0
  188.2430  177.7550  142.2600 C   0  0  0  0  0  3  0  0  0  0  0  0
  180.0590  177.4210  142.1950 C   0  0  0  0  0  0  0  0  0  0  0  0
  187.8820  177.6680  144.6470 C   0  0  0  0  0  0  0  0  0  0  0  0
  186.5350  178.5860  140.6980 N   0  0  0  0  0  0  0  0  0  0  0  0
  190.4700  176.3890  147.1560 S   0  0  0  0  0  0  0  0  0  0  0  0
  191.6850  176.3270  144.7090 C   0  0  0  0  0  1  0  0  0  0  0  0
  191.1440  177.3020  145.7360 C   0  0  0  0  0  2  0  0  0  0  0  0
  183.2200  179.4310  137.6010 C   0  0  0  0  0  2  0  0  0  0  0  0
  181.7460  179.0960  137.4560 C   0  0  0  0  0  2  0  0  0  0  0  0
  180.6240  180.9500  136.3710 N   0  0  0  0  0  0  0  0  0  0  0  0
  181.1890  179.8050  136.3120 N   0  0  0  0  0  0  0  0  0  0  0  0
  181.0290  182.8260  137.7400 O   0  0  0  0  0  0  0  0  0  0  0  0
  180.4190  181.7350  137.5590 C   0  0  0  0  0  0  0  0  0  0  0  0
  179.5070  181.2560  138.5510 N   0  0  0  0  0  2  0  0  0  0  0  0
  179.2720  181.9580  139.8100 C   0  0  0  0  0  2  0  0  0  0  0  0
  179.2980  180.9730  140.9670 C   0  0  0  0  0  1  0  0  0  0  0  0
  179.1310  176.5980  141.4790 N   0  0  0  0  0  2  0  0  0  0  0  0
  179.0040  176.5670  140.0270 C   0  0  0  0  0  3  0  0  0  0  0  0
  179.6720  175.4710  139.5120 F   0  0  0  0  0  0  0  0  0  0  0  0
  179.5130  177.7310  139.4770 F   0  0  0  0  0  0  0  0  0  0  0  0
  1  3  1  0  0  0  0
  1 20  1  0  0  0  0
  2 23  1  0  0  0  0
  4  5  1  0  0  0  0
  5 18  1  0  0  0  0
  5 24  2  0  0  0  0
  6 19  1  0  0  0  0
  6 10  1  0  0  0  0
  7 25  1  0  0  0  0
  8 22  2  0  0  0  0
  8 17  1  0  0  0  0
  9  7  2  0  0  0  0
 10 20  2  0  0  0  0
 11 18  1  0  0  0  0
 12 23  1  0  0  0  0
 13  4  1  0  0  0  0
 13 11  1  0  0  0  0
 14 17  1  0  0  0  0
 14  6  1  0  0  0  0
 15  3  2  0  0  0  0
 16 21  1  0  0  0  0
 16 19  2  0  0  0  0
 17  1  2  0  0  0  0
 18 14  2  0  0  0  0
 19  2  1  0  0  0  0
 21 12  2  0  0  0  0
 22 15  1  0  0  0  0
 23  9  2  0  0  0  0
 24 16  1  0  0  0  0
 26 27  1  0  0  0  0
 27 25  1  0  0  0  0
 28 13  1  0  0  0  0
 29 28  1  0  0  0  0
 30 33  1  0  0  0  0
 31 30  2  0  0  0  0
 31 29  1  0  0  0  0
 33 32  2  0  0  0  0
 33 34  1  0  0  0  0
 34 35  1  0  0  0  0
 35 36  1  0  0  0  0
 37 22  1  0  0  0  0
 38 37  1  0  0  0  0
 39 38  1  0  0  0  0
 40 38  1  0  0  0  0
M  END
>  <MODEL>
9

>  <REMARK>
 VINA RESULT:      -6.6      5.402     10.184
  Name = 
  9 active torsions:
  status: ('A' for Active; 'I' for Inactive)
    1  A    between atoms: C_1  and  C_19
    2  A    between atoms: C_1  and  N_25
    3  A    between atoms: N_2  and  C_21
    4  A    between atoms: C_6  and  N_30
    5  A    between atoms: C_11  and  S_15
    6  A    between atoms: S_15  and  C_39
    7  A    between atoms: N_18  and  C_19
    8  A    between atoms: C_26  and  N_40
    9  A    between atoms: N_30  and  C_32
                            x       y       z     vdW  Elec       q    Type
                         _______ _______ _______ _____ _____    ______ ____

>  <TORSDO>
F 9

$$$$
