=
 OpenBabel11042411043D

 39 40  0  0  1  0  0  0  0  0999 V2000
  188.1880  177.8110  141.2290 C   0  0  2  0  0  3  0  0  0  0  0  0
  190.8700  177.0380  144.5200 C   0  0  0  0  0  0  0  0  0  0  0  0
  190.6260  178.3590  144.1140 C   0  0  0  0  0  3  0  0  0  0  0  0
  189.1240  177.5650  142.3800 C   0  0  0  0  0  0  0  0  0  0  0  0
  189.7590  178.6210  143.0500 C   0  0  0  0  0  3  0  0  0  0  0  0
  189.3640  176.2480  142.7860 C   0  0  0  0  0  3  0  0  0  0  0  0
  190.2330  175.9870  143.8490 C   0  0  0  0  0  3  0  0  0  0  0  0
  192.4200  176.3340  147.9110 O   0  0  0  0  0  1  0  0  0  0  0  0
  191.4150  176.5730  146.9810 C   0  0  0  0  0  0  0  0  0  0  0  0
  191.7640  176.7280  145.5980 N   0  0  0  0  0  2  0  0  0  0  0  0
  190.2160  176.6290  147.3660 O   0  0  0  0  0  0  0  0  0  0  0  0
  188.8570  177.9560  139.8910 C   0  0  0  0  0  0  0  0  0  0  0  0
  188.7210  179.0400  139.2560 O   0  0  0  0  0  0  0  0  0  0  0  0
  189.6450  176.8910  139.3460 N   0  0  0  0  0  0  0  0  0  0  0  0
  190.9120  177.0180  139.1130 C   0  0  0  0  0  3  0  0  0  0  0  0
  191.6860  175.8900  138.5180 C   0  0  0  0  0  2  0  0  0  0  0  0
  192.9280  176.3890  137.7890 C   0  0  0  0  0  2  0  0  0  0  0  0
  194.9050  175.1600  138.7750 N   0  0  0  0  0  2  0  0  0  0  0  0
  193.9670  175.3180  137.7070 C   0  0  0  0  0  0  0  0  0  0  0  0
  193.9950  174.5440  136.7100 O   0  0  0  0  0  0  0  0  0  0  0  0
  195.9200  174.1160  138.7590 C   0  0  0  0  0  1  0  0  0  0  0  0
  187.1260  178.8790  141.5140 C   0  0  0  0  0  2  0  0  0  0  0  0
  185.8850  178.3340  142.2150 C   0  0  1  0  0  3  0  0  0  0  0  0
  186.2930  177.6180  144.5430 C   0  0  0  0  0  2  0  0  0  0  0  0
  185.9600  178.5890  143.6960 C   0  0  0  0  0  3  0  0  0  0  0  0
  184.7920  178.9230  140.0470 C   0  0  0  0  0  1  0  0  0  0  0  0
  184.6070  178.8840  141.5560 C   0  0  1  0  0  3  0  0  0  0  0  0
  182.3950  178.0080  140.7600 C   0  0  0  0  0  3  0  0  0  0  0  0
  182.5300  178.8840  142.8910 N   0  0  0  0  0  0  0  0  0  0  0  0
  183.3240  178.1210  141.9330 C   0  0  2  0  0  3  0  0  0  0  0  0
  181.2880  178.6380  141.1060 C   0  0  0  0  0  0  0  0  0  0  0  0
  181.3900  179.1700  142.4160 N   0  0  0  0  0  0  0  0  0  0  0  0
  179.7350  179.8410  139.5920 C   0  0  0  0  0  3  0  0  0  0  0  0
  180.1020  178.7390  140.2440 C   0  0  0  0  0  3  0  0  0  0  0  0
  180.4690  181.0200  139.6630 O   0  0  0  0  0  0  0  0  0  0  0  0
  181.3830  181.5560  138.3160 P   0  0  0  0  0  0  0  0  0  0  0  0
  182.8450  181.6250  138.6940 O   0  0  0  0  0  1  0  0  0  0  0  0
  180.8500  183.0880  137.8370 O   0  0  0  0  0  1  0  0  0  0  0  0
  181.1830  180.4670  137.0390 O   0  0  0  0  0  0  0  0  0  0  0  0
  1 22  1  1  0  0  0
  1  4  1  0  0  0  0
  2 10  1  0  0  0  0
  3  2  1  0  0  0  0
  4  6  2  0  0  0  0
  4  5  1  0  0  0  0
  5  3  2  0  0  0  0
  6  7  1  0  0  0  0
  7  2  2  0  0  0  0
  9 11  2  0  0  0  0
  9  8  1  0  0  0  0
 10  9  1  0  0  0  0
 12  1  1  0  0  0  0
 13 12  2  0  0  0  0
 14 12  1  0  0  0  0
 15 14  2  0  0  0  0
 16 15  1  0  0  0  0
 17 16  1  0  0  0  0
 19 17  1  0  0  0  0
 19 18  1  0  0  0  0
 20 19  2  0  0  0  0
 21 18  1  0  0  0  0
 23 22  1  6  0  0  0
 23 25  1  0  0  0  0
 25 24  2  0  0  0  0
 27 26  1  6  0  0  0
 27 23  1  0  0  0  0
 28 31  2  0  0  0  0
 28 30  1  0  0  0  0
 30 27  1  6  0  0  0
 30 29  1  0  0  0  0
 31 32  1  0  0  0  0
 32 29  2  0  0  0  0
 33 35  1  0  0  0  0
 33 34  2  0  0  0  0
 34 31  1  0  0  0  0
 36 37  1  0  0  0  0
 36 35  1  0  0  0  0
 38 36  1  0  0  0  0
 39 36  2  0  0  0  0
M  END
>  <MODEL>
1

>  <REMARK>
 VINA RESULT:      -7.3      0.000      0.000
  Name = 
  15 active torsions:
  status: ('A' for Active; 'I' for Inactive)
    1  A    between atoms: C_1  and  O_5
    2  A    between atoms: C_2  and  N_21
    3  A    between atoms: O_5  and  P_7
    4  A    between atoms: C_12  and  C_35
    5  A    between atoms: C_13  and  C_15
    6  A    between atoms: C_15  and  C_35
    7  A    between atoms: C_16  and  C_25
    8  A    between atoms: C_16  and  C_37
    9  A    between atoms: C_17  and  C_19
   10  A    between atoms: C_18  and  C_31
   11  A    between atoms: C_18  and  C_35
   12  A    between atoms: C_22  and  C_25
   13  A    between atoms: C_23  and  C_31
   14  A    between atoms: N_28  and  C_32
   15  A    between atoms: C_31  and  C_32
                            x       y       z     vdW  Elec       q    Type
                         _______ _______ _______ _____ _____    ______ ____

>  <TORSDO>
F 15

$$$$
=
 OpenBabel11042411043D

 39 40  0  0  1  0  0  0  0  0999 V2000
  188.7900  177.8880  140.9010 C   0  0  2  0  0  3  0  0  0  0  0  0
  191.1500  177.1990  144.4460 C   0  0  0  0  0  0  0  0  0  0  0  0
  190.7870  178.5080  144.0930 C   0  0  0  0  0  3  0  0  0  0  0  0
  189.6100  177.6710  142.1420 C   0  0  0  0  0  0  0  0  0  0  0  0
  190.0220  178.7430  142.9480 C   0  0  0  0  0  3  0  0  0  0  0  0
  189.9690  176.3660  142.4940 C   0  0  0  0  0  3  0  0  0  0  0  0
  190.7360  176.1320  143.6390 C   0  0  0  0  0  3  0  0  0  0  0  0
  192.3740  176.4160  147.9510 O   0  0  0  0  0  1  0  0  0  0  0  0
  191.4630  176.5980  146.9190 C   0  0  0  0  0  0  0  0  0  0  0  0
  191.9460  176.9190  145.6060 N   0  0  0  0  0  2  0  0  0  0  0  0
  190.2310  176.4590  147.1480 O   0  0  0  0  0  0  0  0  0  0  0  0
  187.3740  178.3290  141.1480 C   0  0  0  0  0  0  0  0  0  0  0  0
  186.6480  178.6330  140.1600 O   0  0  0  0  0  0  0  0  0  0  0  0
  186.8480  178.3920  142.4800 N   0  0  0  0  0  0  0  0  0  0  0  0
  185.6060  178.6640  142.7200 C   0  0  0  0  0  3  0  0  0  0  0  0
  185.1110  178.7480  144.1250 C   0  0  0  0  0  2  0  0  0  0  0  0
  185.7640  177.6950  145.0110 C   0  0  0  0  0  2  0  0  0  0  0  0
  187.3030  177.9400  147.0010 N   0  0  0  0  0  2  0  0  0  0  0  0
  186.0580  178.2450  146.3690 C   0  0  0  0  0  0  0  0  0  0  0  0
  185.2160  178.9950  146.9380 O   0  0  0  0  0  0  0  0  0  0  0  0
  187.6520  178.4720  148.3100 C   0  0  0  0  0  1  0  0  0  0  0  0
  188.9210  176.7630  139.8680 C   0  0  0  0  0  2  0  0  0  0  0  0
  189.1630  177.2640  138.4460 C   0  0  1  0  0  3  0  0  0  0  0  0
  188.9780  179.4600  137.3330 C   0  0  0  0  0  2  0  0  0  0  0  0
  189.2740  178.7640  138.4270 C   0  0  0  0  0  3  0  0  0  0  0  0
  191.4370  176.3260  138.8780 C   0  0  0  0  0  1  0  0  0  0  0  0
  190.3690  176.5450  137.8180 C   0  0  1  0  0  3  0  0  0  0  0  0
  191.0320  174.1580  137.4150 C   0  0  0  0  0  2  0  0  0  0  0  0
  190.1330  175.3620  135.6630 N   0  0  0  0  0  2  0  0  0  0  0  0
  190.0180  175.2230  137.1120 C   0  0  2  0  0  3  0  0  0  0  0  0
  191.5720  173.8240  136.2580 C   0  0  0  0  0  0  0  0  0  0  0  0
  191.0090  174.5740  135.1950 N   0  0  0  0  0  0  0  0  0  0  0  0
  193.9050  172.9850  136.2820 C   0  0  0  0  0  3  0  0  0  0  0  0
  192.6000  172.7850  136.1070 C   0  0  0  0  0  3  0  0  0  0  0  0
  194.4200  174.2250  136.6450 O   0  0  0  0  0  0  0  0  0  0  0  0
  195.3810  174.3850  138.0550 P   0  0  0  0  0  0  0  0  0  0  0  0
  194.8130  175.4800  138.9300 O   0  0  0  0  0  1  0  0  0  0  0  0
  196.9690  174.7750  137.6240 O   0  0  0  0  0  0  0  0  0  0  0  0
  195.3720  172.9250  138.9060 O   0  0  0  0  0  1  0  0  0  0  0  0
  1 22  1  1  0  0  0
  1 12  1  0  0  0  0
  1  4  1  0  0  0  0
  2 10  1  0  0  0  0
  3  2  1  0  0  0  0
  4  6  2  0  0  0  0
  4  5  1  0  0  0  0
  5  3  2  0  0  0  0
  6  7  1  0  0  0  0
  7  2  2  0  0  0  0
  9 11  2  0  0  0  0
  9  8  1  0  0  0  0
 10  9  1  0  0  0  0
 12 14  1  0  0  0  0
 13 12  2  0  0  0  0
 14 15  2  0  0  0  0
 15 16  1  0  0  0  0
 16 17  1  0  0  0  0
 17 19  1  0  0  0  0
 18 21  1  0  0  0  0
 19 20  2  0  0  0  0
 19 18  1  0  0  0  0
 23 25  1  1  0  0  0
 23 22  1  0  0  0  0
 24 25  2  0  0  0  0
 27 23  1  0  0  0  0
 27 26  1  1  0  0  0
 29 30  1  0  0  0  0
 30 28  1  0  0  0  0
 30 27  1  1  0  0  0
 31 28  1  0  0  0  0
 32 29  1  0  0  0  0
 32 31  2  0  0  0  0
 33 35  1  0  0  0  0
 34 31  1  0  0  0  0
 34 33  2  0  0  0  0
 35 36  1  0  0  0  0
 36 39  1  0  0  0  0
 36 37  1  0  0  0  0
 38 36  2  0  0  0  0
M  END
>  <MODEL>
2

>  <REMARK>
 VINA RESULT:      -7.3      4.181      9.500
  Name = 
  15 active torsions:
  status: ('A' for Active; 'I' for Inactive)
    1  A    between atoms: C_1  and  O_5
    2  A    between atoms: C_2  and  N_21
    3  A    between atoms: O_5  and  P_7
    4  A    between atoms: C_12  and  C_35
    5  A    between atoms: C_13  and  C_15
    6  A    between atoms: C_15  and  C_35
    7  A    between atoms: C_16  and  C_25
    8  A    between atoms: C_16  and  C_37
    9  A    between atoms: C_17  and  C_19
   10  A    between atoms: C_18  and  C_31
   11  A    between atoms: C_18  and  C_35
   12  A    between atoms: C_22  and  C_25
   13  A    between atoms: C_23  and  C_31
   14  A    between atoms: N_28  and  C_32
   15  A    between atoms: C_31  and  C_32
                            x       y       z     vdW  Elec       q    Type
                         _______ _______ _______ _____ _____    ______ ____

>  <TORSDO>
F 15

$$$$
=
 OpenBabel11042411043D

 39 40  0  0  1  0  0  0  0  0999 V2000
  187.2960  177.9190  141.6430 C   0  0  2  0  0  3  0  0  0  0  0  0
  189.6850  177.6460  145.2260 C   0  0  0  0  0  0  0  0  0  0  0  0
  190.1430  178.4040  144.1380 C   0  0  0  0  0  3  0  0  0  0  0  0
  188.1430  177.8390  142.8830 C   0  0  0  0  0  0  0  0  0  0  0  0
  189.3770  178.5000  142.9730 C   0  0  0  0  0  3  0  0  0  0  0  0
  187.6850  177.0860  143.9680 C   0  0  0  0  0  3  0  0  0  0  0  0
  188.4520  176.9890  145.1320 C   0  0  0  0  0  3  0  0  0  0  0  0
  192.1670  176.5960  147.8970 O   0  0  0  0  0  1  0  0  0  0  0  0
  191.5780  176.6510  146.6400 C   0  0  0  0  0  0  0  0  0  0  0  0
  190.4490  177.5120  146.4330 N   0  0  0  0  0  2  0  0  0  0  0  0
  192.0570  175.9600  145.7010 O   0  0  0  0  0  0  0  0  0  0  0  0
  188.0650  177.9250  140.3510 C   0  0  0  0  0  0  0  0  0  0  0  0
  187.6430  178.6320  139.3940 O   0  0  0  0  0  0  0  0  0  0  0  0
  189.2630  177.1510  140.2080 N   0  0  0  0  0  0  0  0  0  0  0  0
  190.2430  177.5290  139.4520 C   0  0  0  0  0  3  0  0  0  0  0  0
  191.4590  176.6760  139.3110 C   0  0  0  0  0  2  0  0  0  0  0  0
  191.7010  176.2830  137.8590 C   0  0  0  0  0  2  0  0  0  0  0  0
  193.5890  174.6030  137.9080 N   0  0  0  0  0  2  0  0  0  0  0  0
  193.1350  175.9300  137.6310 C   0  0  0  0  0  0  0  0  0  0  0  0
  193.9300  176.7970  137.1730 O   0  0  0  0  0  0  0  0  0  0  0  0
  194.9680  174.1980  137.6780 C   0  0  0  0  0  1  0  0  0  0  0  0
  186.1920  178.9790  141.7160 C   0  0  0  0  0  2  0  0  0  0  0  0
  184.9140  178.4870  142.3900 C   0  0  1  0  0  3  0  0  0  0  0  0
  184.8920  179.0100  144.8030 C   0  0  0  0  0  2  0  0  0  0  0  0
  184.5650  179.3620  143.5620 C   0  0  0  0  0  3  0  0  0  0  0  0
  182.4420  178.5850  142.0460 C   0  0  0  0  0  1  0  0  0  0  0  0
  183.7790  178.3480  141.3600 C   0  0  1  0  0  3  0  0  0  0  0  0
  182.6110  179.8340  139.7100 C   0  0  0  0  0  2  0  0  0  0  0  0
  184.3170  178.4760  138.9540 N   0  0  0  0  0  2  0  0  0  0  0  0
  183.9320  179.2560  140.1260 C   0  0  2  0  0  3  0  0  0  0  0  0
  182.3840  179.3890  138.4880 C   0  0  0  0  0  0  0  0  0  0  0  0
  183.4400  178.5570  138.0420 N   0  0  0  0  0  0  0  0  0  0  0  0
  180.8500  180.9920  137.3790 C   0  0  0  0  0  3  0  0  0  0  0  0
  181.1980  179.7460  137.6960 C   0  0  0  0  0  3  0  0  0  0  0  0
  181.6060  182.0920  137.7690 O   0  0  0  0  0  0  0  0  0  0  0  0
  181.2060  183.6620  137.2110 P   0  0  0  0  0  0  0  0  0  0  0  0
  182.3040  184.6280  137.5950 O   0  0  0  0  0  1  0  0  0  0  0  0
  179.7470  184.1610  137.9040 O   0  0  0  0  0  1  0  0  0  0  0  0
  181.0480  183.6310  135.5280 O   0  0  0  0  0  0  0  0  0  0  0  0
  1 22  1  1  0  0  0
  1  4  1  0  0  0  0
  2 10  1  0  0  0  0
  3  2  2  0  0  0  0
  4  5  2  0  0  0  0
  4  6  1  0  0  0  0
  5  3  1  0  0  0  0
  6  7  2  0  0  0  0
  7  2  1  0  0  0  0
  9  8  1  0  0  0  0
 10  9  1  0  0  0  0
 11  9  2  0  0  0  0
 12  1  1  0  0  0  0
 13 12  2  0  0  0  0
 14 12  1  0  0  0  0
 15 14  2  0  0  0  0
 16 15  1  0  0  0  0
 17 16  1  0  0  0  0
 19 17  1  0  0  0  0
 19 18  1  0  0  0  0
 20 19  2  0  0  0  0
 21 18  1  0  0  0  0
 23 22  1  6  0  0  0
 23 25  1  0  0  0  0
 25 24  2  0  0  0  0
 27 26  1  1  0  0  0
 27 23  1  0  0  0  0
 28 30  1  0  0  0  0
 29 30  1  0  0  0  0
 30 27  1  1  0  0  0
 31 28  1  0  0  0  0
 32 31  2  0  0  0  0
 32 29  1  0  0  0  0
 33 34  2  0  0  0  0
 33 35  1  0  0  0  0
 34 31  1  0  0  0  0
 36 37  1  0  0  0  0
 36 35  1  0  0  0  0
 36 38  1  0  0  0  0
 39 36  2  0  0  0  0
M  END
>  <MODEL>
3

>  <REMARK>
 VINA RESULT:      -7.2      1.848      2.127
  Name = 
  15 active torsions:
  status: ('A' for Active; 'I' for Inactive)
    1  A    between atoms: C_1  and  O_5
    2  A    between atoms: C_2  and  N_21
    3  A    between atoms: O_5  and  P_7
    4  A    between atoms: C_12  and  C_35
    5  A    between atoms: C_13  and  C_15
    6  A    between atoms: C_15  and  C_35
    7  A    between atoms: C_16  and  C_25
    8  A    between atoms: C_16  and  C_37
    9  A    between atoms: C_17  and  C_19
   10  A    between atoms: C_18  and  C_31
   11  A    between atoms: C_18  and  C_35
   12  A    between atoms: C_22  and  C_25
   13  A    between atoms: C_23  and  C_31
   14  A    between atoms: N_28  and  C_32
   15  A    between atoms: C_31  and  C_32
                            x       y       z     vdW  Elec       q    Type
                         _______ _______ _______ _____ _____    ______ ____

>  <TORSDO>
F 15

$$$$
=
 OpenBabel11042411043D

 39 40  0  0  1  0  0  0  0  0999 V2000
  188.9550  177.8760  140.9870 C   0  0  2  0  0  3  0  0  0  0  0  0
  191.2060  177.2940  144.6220 C   0  0  0  0  0  0  0  0  0  0  0  0
  190.8410  178.5900  144.2270 C   0  0  0  0  0  3  0  0  0  0  0  0
  189.7360  177.6960  142.2590 C   0  0  0  0  0  0  0  0  0  0  0  0
  190.1110  178.7900  143.0520 C   0  0  0  0  0  3  0  0  0  0  0  0
  190.0970  176.4040  142.6530 C   0  0  0  0  0  3  0  0  0  0  0  0
  190.8290  176.2040  143.8280 C   0  0  0  0  0  3  0  0  0  0  0  0
  192.3230  176.5240  148.1650 O   0  0  0  0  0  1  0  0  0  0  0  0
  191.4500  176.6590  147.0940 C   0  0  0  0  0  0  0  0  0  0  0  0
  191.9660  177.0490  145.8130 N   0  0  0  0  0  2  0  0  0  0  0  0
  190.2240  176.4170  147.2600 O   0  0  0  0  0  0  0  0  0  0  0  0
  187.5040  178.2220  141.1800 C   0  0  0  0  0  0  0  0  0  0  0  0
  186.8450  178.6590  140.1950 O   0  0  0  0  0  0  0  0  0  0  0  0
  186.8740  178.0490  142.4550 N   0  0  0  0  0  0  0  0  0  0  0  0
  185.7730  178.6530  142.7690 C   0  0  0  0  0  3  0  0  0  0  0  0
  185.1680  178.4650  144.1200 C   0  0  0  0  0  2  0  0  0  0  0  0
  186.0420  177.5830  145.0050 C   0  0  0  0  0  2  0  0  0  0  0  0
  187.4170  177.9130  147.0990 N   0  0  0  0  0  2  0  0  0  0  0  0
  186.2320  178.1990  146.3530 C   0  0  0  0  0  0  0  0  0  0  0  0
  185.3590  178.9870  146.8130 O   0  0  0  0  0  0  0  0  0  0  0  0
  187.6660  178.5080  148.4050 C   0  0  0  0  0  1  0  0  0  0  0  0
  189.1990  176.7740  139.9500 C   0  0  0  0  0  2  0  0  0  0  0  0
  189.6490  177.3030  138.5910 C   0  0  1  0  0  3  0  0  0  0  0  0
  188.9880  179.2420  137.2120 C   0  0  0  0  0  2  0  0  0  0  0  0
  189.2310  178.7380  138.4190 C   0  0  0  0  0  3  0  0  0  0  0  0
  191.8400  176.9860  139.7480 C   0  0  0  0  0  1  0  0  0  0  0  0
  191.1580  177.0690  138.3920 C   0  0  1  0  0  3  0  0  0  0  0  0
  190.8450  175.9280  136.1800 C   0  0  0  0  0  3  0  0  0  0  0  0
  190.8960  174.6330  138.0900 N   0  0  0  0  0  0  0  0  0  0  0  0
  191.4960  175.8400  137.5290 C   0  0  2  0  0  3  0  0  0  0  0  0
  190.0300  174.8920  136.0970 C   0  0  0  0  0  0  0  0  0  0  0  0
  190.0740  174.1100  137.2780 N   0  0  0  0  0  0  0  0  0  0  0  0
  188.0840  175.2170  134.5940 C   0  0  0  0  0  3  0  0  0  0  0  0
  189.2140  174.5880  134.9130 C   0  0  0  0  0  3  0  0  0  0  0  0
  187.5720  176.2530  135.3690 O   0  0  0  0  0  0  0  0  0  0  0  0
  186.2680  175.9680  136.4430 P   0  0  0  0  0  0  0  0  0  0  0  0
  186.6330  174.8520  137.3950 O   0  0  0  0  0  1  0  0  0  0  0  0
  184.8890  175.5330  135.5650 O   0  0  0  0  0  0  0  0  0  0  0  0
  185.9530  177.3770  137.3230 O   0  0  0  0  0  1  0  0  0  0  0  0
  1 22  1  1  0  0  0
  1 12  1  0  0  0  0
  1  4  1  0  0  0  0
  2 10  1  0  0  0  0
  3  2  1  0  0  0  0
  4  6  2  0  0  0  0
  4  5  1  0  0  0  0
  5  3  2  0  0  0  0
  6  7  1  0  0  0  0
  7  2  2  0  0  0  0
  9 11  2  0  0  0  0
  9  8  1  0  0  0  0
 10  9  1  0  0  0  0
 12 14  1  0  0  0  0
 13 12  2  0  0  0  0
 14 15  2  0  0  0  0
 15 16  1  0  0  0  0
 16 17  1  0  0  0  0
 17 19  1  0  0  0  0
 18 21  1  0  0  0  0
 19 20  2  0  0  0  0
 19 18  1  0  0  0  0
 23 25  1  1  0  0  0
 23 22  1  0  0  0  0
 24 25  2  0  0  0  0
 27 23  1  0  0  0  0
 27 26  1  1  0  0  0
 28 30  1  0  0  0  0
 30 29  1  0  0  0  0
 30 27  1  1  0  0  0
 31 28  2  0  0  0  0
 31 32  1  0  0  0  0
 32 29  2  0  0  0  0
 33 34  2  0  0  0  0
 33 35  1  0  0  0  0
 34 31  1  0  0  0  0
 35 36  1  0  0  0  0
 36 39  1  0  0  0  0
 36 37  1  0  0  0  0
 38 36  2  0  0  0  0
M  END
>  <MODEL>
4

>  <REMARK>
 VINA RESULT:      -7.2      3.702      7.625
  Name = 
  15 active torsions:
  status: ('A' for Active; 'I' for Inactive)
    1  A    between atoms: C_1  and  O_5
    2  A    between atoms: C_2  and  N_21
    3  A    between atoms: O_5  and  P_7
    4  A    between atoms: C_12  and  C_35
    5  A    between atoms: C_13  and  C_15
    6  A    between atoms: C_15  and  C_35
    7  A    between atoms: C_16  and  C_25
    8  A    between atoms: C_16  and  C_37
    9  A    between atoms: C_17  and  C_19
   10  A    between atoms: C_18  and  C_31
   11  A    between atoms: C_18  and  C_35
   12  A    between atoms: C_22  and  C_25
   13  A    between atoms: C_23  and  C_31
   14  A    between atoms: N_28  and  C_32
   15  A    between atoms: C_31  and  C_32
                            x       y       z     vdW  Elec       q    Type
                         _______ _______ _______ _____ _____    ______ ____

>  <TORSDO>
F 15

$$$$
=
 OpenBabel11042411043D

 39 40  0  0  1  0  0  0  0  0999 V2000
  183.4020  178.5490  140.2480 C   0  0  2  0  0  3  0  0  0  0  0  0
  180.6350  175.9250  138.2280 C   0  0  0  0  0  0  0  0  0  0  0  0
  181.5010  175.4080  139.2050 C   0  0  0  0  0  3  0  0  0  0  0  0
  182.4440  177.6170  139.5590 C   0  0  0  0  0  0  0  0  0  0  0  0
  182.4010  176.2490  139.8650 C   0  0  0  0  0  3  0  0  0  0  0  0
  181.5800  178.1330  138.5880 C   0  0  0  0  0  3  0  0  0  0  0  0
  180.6810  177.2910  137.9260 C   0  0  0  0  0  3  0  0  0  0  0  0
  178.9340  173.6430  135.7200 O   0  0  0  0  0  0  0  0  0  0  0  0
  179.9680  174.3540  136.3150 C   0  0  0  0  0  0  0  0  0  0  0  0
  179.7080  175.0920  137.5190 N   0  0  0  0  0  2  0  0  0  0  0  0
  181.1170  174.3240  135.8000 O   0  0  0  0  0  1  0  0  0  0  0  0
  184.3390  179.2840  139.3300 C   0  0  0  0  0  0  0  0  0  0  0  0
  184.1260  180.5070  139.0940 O   0  0  0  0  0  0  0  0  0  0  0  0
  185.4620  178.6170  138.7420 N   0  0  0  0  0  0  0  0  0  0  0  0
  185.3280  177.7420  137.7970 C   0  0  0  0  0  3  0  0  0  0  0  0
  186.5250  177.0510  137.2350 C   0  0  0  0  0  2  0  0  0  0  0  0
  187.6040  178.0460  136.8260 C   0  0  0  0  0  2  0  0  0  0  0  0
  189.4170  176.8850  138.1520 N   0  0  0  0  0  2  0  0  0  0  0  0
  188.7070  178.0840  137.8340 C   0  0  0  0  0  0  0  0  0  0  0  0
  189.0210  179.1790  138.3800 O   0  0  0  0  0  0  0  0  0  0  0  0
  190.5170  176.8710  139.1050 C   0  0  0  0  0  1  0  0  0  0  0  0
  184.0860  177.9350  141.4750 C   0  0  0  0  0  2  0  0  0  0  0  0
  184.3140  178.9310  142.6090 C   0  0  1  0  0  3  0  0  0  0  0  0
  181.9340  178.9940  143.2650 C   0  0  0  0  0  2  0  0  0  0  0  0
  183.2070  178.8390  143.6220 C   0  0  0  0  0  3  0  0  0  0  0  0
  185.6000  178.2460  144.6380 C   0  0  0  0  0  1  0  0  0  0  0  0
  185.7200  178.7530  143.2090 C   0  0  1  0  0  3  0  0  0  0  0  0
  187.6480  177.1480  143.2570 C   0  0  0  0  0  2  0  0  0  0  0  0
  187.5040  178.6440  141.5050 N   0  0  0  0  0  2  0  0  0  0  0  0
  186.6490  177.8470  142.3810 C   0  0  2  0  0  3  0  0  0  0  0  0
  188.8380  177.5550  142.8550 C   0  0  0  0  0  0  0  0  0  0  0  0
  188.7290  178.4740  141.7810 N   0  0  0  0  0  0  0  0  0  0  0  0
  190.5010  177.3410  144.6830 C   0  0  0  0  0  3  0  0  0  0  0  0
  190.1020  177.0830  143.4390 C   0  0  0  0  0  3  0  0  0  0  0  0
  189.7290  178.0890  145.5650 O   0  0  0  0  0  0  0  0  0  0  0  0
  189.1930  177.4060  147.0430 P   0  0  0  0  0  0  0  0  0  0  0  0
  187.9130  176.6370  146.8070 O   0  0  0  0  0  0  0  0  0  0  0  0
  188.9140  178.6330  148.1730 O   0  0  0  0  0  1  0  0  0  0  0  0
  190.3790  176.3560  147.6340 O   0  0  0  0  0  1  0  0  0  0  0  0
  1 22  1  1  0  0  0
  2  3  1  0  0  0  0
  3  5  2  0  0  0  0
  4  5  1  0  0  0  0
  4  1  1  0  0  0  0
  6  4  2  0  0  0  0
  7  2  2  0  0  0  0
  7  6  1  0  0  0  0
  8  9  2  0  0  0  0
  9 10  1  0  0  0  0
 10  2  1  0  0  0  0
 11  9  1  0  0  0  0
 12  1  1  0  0  0  0
 13 12  2  0  0  0  0
 14 12  1  0  0  0  0
 15 14  2  0  0  0  0
 16 15  1  0  0  0  0
 17 16  1  0  0  0  0
 17 19  1  0  0  0  0
 18 21  1  0  0  0  0
 19 18  1  0  0  0  0
 19 20  2  0  0  0  0
 23 22  1  6  0  0  0
 23 27  1  0  0  0  0
 23 25  1  0  0  0  0
 24 25  2  0  0  0  0
 27 26  1  1  0  0  0
 29 32  1  0  0  0  0
 29 30  1  0  0  0  0
 30 27  1  1  0  0  0
 30 28  1  0  0  0  0
 31 28  1  0  0  0  0
 31 34  1  0  0  0  0
 32 31  2  0  0  0  0
 33 35  1  0  0  0  0
 34 33  2  0  0  0  0
 35 36  1  0  0  0  0
 36 39  1  0  0  0  0
 36 38  1  0  0  0  0
 37 36  2  0  0  0  0
M  END
>  <MODEL>
5

>  <REMARK>
 VINA RESULT:      -7.1      3.532      9.173
  Name = 
  15 active torsions:
  status: ('A' for Active; 'I' for Inactive)
    1  A    between atoms: C_1  and  O_5
    2  A    between atoms: C_2  and  N_21
    3  A    between atoms: O_5  and  P_7
    4  A    between atoms: C_12  and  C_35
    5  A    between atoms: C_13  and  C_15
    6  A    between atoms: C_15  and  C_35
    7  A    between atoms: C_16  and  C_25
    8  A    between atoms: C_16  and  C_37
    9  A    between atoms: C_17  and  C_19
   10  A    between atoms: C_18  and  C_31
   11  A    between atoms: C_18  and  C_35
   12  A    between atoms: C_22  and  C_25
   13  A    between atoms: C_23  and  C_31
   14  A    between atoms: N_28  and  C_32
   15  A    between atoms: C_31  and  C_32
                            x       y       z     vdW  Elec       q    Type
                         _______ _______ _______ _____ _____    ______ ____

>  <TORSDO>
F 15

$$$$
=
 OpenBabel11042411043D

 39 40  0  0  1  0  0  0  0  0999 V2000
  185.5470  178.7660  141.5400 C   0  0  2  0  0  3  0  0  0  0  0  0
  182.3840  178.5190  138.6150 C   0  0  0  0  0  0  0  0  0  0  0  0
  183.1970  179.6620  138.6690 C   0  0  0  0  0  3  0  0  0  0  0  0
  184.4530  178.7000  140.5110 C   0  0  0  0  0  0  0  0  0  0  0  0
  184.2250  179.7520  139.6110 C   0  0  0  0  0  3  0  0  0  0  0  0
  183.6440  177.5600  140.4560 C   0  0  0  0  0  3  0  0  0  0  0  0
  182.6150  177.4710  139.5150 C   0  0  0  0  0  3  0  0  0  0  0  0
  180.2810  177.9810  135.5040 O   0  0  0  0  0  0  0  0  0  0  0  0
  181.4190  177.9860  136.3010 C   0  0  0  0  0  0  0  0  0  0  0  0
  181.3100  178.3960  137.6720 N   0  0  0  0  0  2  0  0  0  0  0  0
  182.5190  177.6130  135.8130 O   0  0  0  0  0  1  0  0  0  0  0  0
  186.9390  178.6150  140.9920 C   0  0  0  0  0  0  0  0  0  0  0  0
  187.9200  178.7160  141.7830 O   0  0  0  0  0  0  0  0  0  0  0  0
  187.1540  178.3510  139.6000 N   0  0  0  0  0  0  0  0  0  0  0  0
  188.3400  178.2240  139.0960 C   0  0  0  0  0  3  0  0  0  0  0  0
  188.5160  177.9780  137.6360 C   0  0  0  0  0  2  0  0  0  0  0  0
  188.7700  176.5040  137.3440 C   0  0  0  0  0  2  0  0  0  0  0  0
  191.2770  176.7170  137.0930 N   0  0  0  0  0  2  0  0  0  0  0  0
  190.1560  176.1110  137.7410 C   0  0  0  0  0  0  0  0  0  0  0  0
  190.3290  175.2670  138.6640 O   0  0  0  0  0  0  0  0  0  0  0  0
  192.6470  176.3920  137.4600 C   0  0  0  0  0  1  0  0  0  0  0  0
  185.2740  177.9190  142.7880 C   0  0  0  0  0  2  0  0  0  0  0  0
  185.5190  178.6640  144.0970 C   0  0  1  0  0  3  0  0  0  0  0  0
  183.1050  178.6400  144.6190 C   0  0  0  0  0  2  0  0  0  0  0  0
  184.2510  179.3160  144.5780 C   0  0  0  0  0  3  0  0  0  0  0  0
  186.8220  176.5590  144.4230 C   0  0  0  0  0  1  0  0  0  0  0  0
  186.1700  177.7330  145.1360 C   0  0  1  0  0  3  0  0  0  0  0  0
  188.5700  177.9380  145.8380 C   0  0  0  0  0  3  0  0  0  0  0  0
  186.9330  178.0610  147.4610 N   0  0  0  0  0  0  0  0  0  0  0  0
  187.1720  178.4350  146.0700 C   0  0  2  0  0  3  0  0  0  0  0  0
  188.9590  177.3920  146.9750 C   0  0  0  0  0  0  0  0  0  0  0  0
  187.9410  177.4750  147.9580 N   0  0  0  0  0  0  0  0  0  0  0  0
  191.2510  176.7650  146.2640 C   0  0  0  0  0  3  0  0  0  0  0  0
  190.2900  176.8050  147.1850 C   0  0  0  0  0  3  0  0  0  0  0  0
  191.0770  177.3020  144.9920 O   0  0  0  0  0  0  0  0  0  0  0  0
  191.2080  176.3050  143.6050 P   0  0  0  0  0  0  0  0  0  0  0  0
  189.8250  175.9450  143.1110 O   0  0  0  0  0  1  0  0  0  0  0  0
  192.0540  174.8930  143.9930 O   0  0  0  0  0  1  0  0  0  0  0  0
  192.0370  177.1420  142.3930 O   0  0  0  0  0  0  0  0  0  0  0  0
  1 22  1  1  0  0  0
  2  3  2  0  0  0  0
  2  7  1  0  0  0  0
  3  5  1  0  0  0  0
  4  1  1  0  0  0  0
  5  4  2  0  0  0  0
  6  4  1  0  0  0  0
  7  6  2  0  0  0  0
  8  9  2  0  0  0  0
  9 10  1  0  0  0  0
 10  2  1  0  0  0  0
 11  9  1  0  0  0  0
 12  1  1  0  0  0  0
 12 13  2  0  0  0  0
 14 12  1  0  0  0  0
 15 14  2  0  0  0  0
 16 15  1  0  0  0  0
 17 16  1  0  0  0  0
 17 19  1  0  0  0  0
 18 21  1  0  0  0  0
 18 19  1  0  0  0  0
 19 20  2  0  0  0  0
 23 22  1  6  0  0  0
 23 25  1  0  0  0  0
 23 27  1  0  0  0  0
 25 24  2  0  0  0  0
 27 26  1  6  0  0  0
 28 30  1  0  0  0  0
 28 31  2  0  0  0  0
 29 32  2  0  0  0  0
 30 27  1  6  0  0  0
 30 29  1  0  0  0  0
 31 34  1  0  0  0  0
 31 32  1  0  0  0  0
 33 34  2  0  0  0  0
 35 33  1  0  0  0  0
 36 38  1  0  0  0  0
 36 35  1  0  0  0  0
 37 36  1  0  0  0  0
 39 36  2  0  0  0  0
M  END
>  <MODEL>
6

>  <REMARK>
 VINA RESULT:      -6.8      3.552      8.665
  Name = 
  15 active torsions:
  status: ('A' for Active; 'I' for Inactive)
    1  A    between atoms: C_1  and  O_5
    2  A    between atoms: C_2  and  N_21
    3  A    between atoms: O_5  and  P_7
    4  A    between atoms: C_12  and  C_35
    5  A    between atoms: C_13  and  C_15
    6  A    between atoms: C_15  and  C_35
    7  A    between atoms: C_16  and  C_25
    8  A    between atoms: C_16  and  C_37
    9  A    between atoms: C_17  and  C_19
   10  A    between atoms: C_18  and  C_31
   11  A    between atoms: C_18  and  C_35
   12  A    between atoms: C_22  and  C_25
   13  A    between atoms: C_23  and  C_31
   14  A    between atoms: N_28  and  C_32
   15  A    between atoms: C_31  and  C_32
                            x       y       z     vdW  Elec       q    Type
                         _______ _______ _______ _____ _____    ______ ____

>  <TORSDO>
F 15

$$$$
=
 OpenBabel11042411043D

 39 40  0  0  1  0  0  0  0  0999 V2000
  185.7080  178.7750  141.6300 C   0  0  2  0  0  3  0  0  0  0  0  0
  182.2620  178.8800  139.0350 C   0  0  0  0  0  0  0  0  0  0  0  0
  182.3330  177.9280  140.0640 C   0  0  0  0  0  3  0  0  0  0  0  0
  184.4970  178.7960  140.7390 C   0  0  0  0  0  0  0  0  0  0  0  0
  183.4430  177.8850  140.9100 C   0  0  0  0  0  3  0  0  0  0  0  0
  184.4260  179.7470  139.7170 C   0  0  0  0  0  3  0  0  0  0  0  0
  183.3150  179.7880  138.8690 C   0  0  0  0  0  3  0  0  0  0  0  0
  179.9810  178.7620  136.0060 O   0  0  0  0  0  0  0  0  0  0  0  0
  181.1380  178.5750  136.7520 C   0  0  0  0  0  0  0  0  0  0  0  0
  181.1450  178.9460  138.1380 N   0  0  0  0  0  2  0  0  0  0  0  0
  182.1520  178.0660  136.2040 O   0  0  0  0  0  1  0  0  0  0  0  0
  187.0180  178.6060  140.9120 C   0  0  0  0  0  0  0  0  0  0  0  0
  188.0910  178.6740  141.5760 O   0  0  0  0  0  0  0  0  0  0  0  0
  187.0530  178.3610  139.5000 N   0  0  0  0  0  0  0  0  0  0  0  0
  188.1650  178.2610  138.8440 C   0  0  0  0  0  3  0  0  0  0  0  0
  188.1510  178.0350  137.3700 C   0  0  0  0  0  2  0  0  0  0  0  0
  186.7620  178.2540  136.7840 C   0  0  0  0  0  2  0  0  0  0  0  0
  184.8950  176.6820  137.4440 N   0  0  0  0  0  2  0  0  0  0  0  0
  186.0360  176.9570  136.6270 C   0  0  0  0  0  0  0  0  0  0  0  0
  186.4180  176.1240  135.7590 O   0  0  0  0  0  0  0  0  0  0  0  0
  184.1350  175.4470  137.3130 C   0  0  0  0  0  1  0  0  0  0  0  0
  185.5530  177.8770  142.8620 C   0  0  0  0  0  2  0  0  0  0  0  0
  185.8290  178.5960  144.1800 C   0  0  1  0  0  3  0  0  0  0  0  0
  183.4330  178.7740  144.7500 C   0  0  0  0  0  2  0  0  0  0  0  0
  184.6170  179.3680  144.6240 C   0  0  0  0  0  3  0  0  0  0  0  0
  187.0430  176.4430  144.5410 C   0  0  0  0  0  1  0  0  0  0  0  0
  186.3540  177.6060  145.2360 C   0  0  1  0  0  3  0  0  0  0  0  0
  188.7170  177.9080  146.0250 C   0  0  0  0  0  3  0  0  0  0  0  0
  187.0540  177.6420  147.6040 N   0  0  0  0  0  0  0  0  0  0  0  0
  187.2770  178.2410  146.2910 C   0  0  2  0  0  3  0  0  0  0  0  0
  189.1380  177.2310  147.0770 C   0  0  0  0  0  0  0  0  0  0  0  0
  188.1040  177.0760  148.0340 N   0  0  0  0  0  0  0  0  0  0  0  0
  191.4330  176.7520  146.2690 C   0  0  0  0  0  3  0  0  0  0  0  0
  190.5130  176.7350  147.2320 C   0  0  0  0  0  3  0  0  0  0  0  0
  191.1690  177.2650  145.0040 O   0  0  0  0  0  0  0  0  0  0  0  0
  191.3200  176.2710  143.6160 P   0  0  0  0  0  0  0  0  0  0  0  0
  189.9450  175.8730  143.1290 O   0  0  0  0  0  1  0  0  0  0  0  0
  192.2070  174.8830  144.0010 O   0  0  0  0  0  1  0  0  0  0  0  0
  192.1210  177.1290  142.4000 O   0  0  0  0  0  0  0  0  0  0  0  0
  1 22  1  1  0  0  0
  2  3  1  0  0  0  0
  3  5  2  0  0  0  0
  4  5  1  0  0  0  0
  4  1  1  0  0  0  0
  6  4  2  0  0  0  0
  7  2  2  0  0  0  0
  7  6  1  0  0  0  0
  8  9  2  0  0  0  0
  9 10  1  0  0  0  0
 10  2  1  0  0  0  0
 11  9  1  0  0  0  0
 12 13  2  0  0  0  0
 12  1  1  0  0  0  0
 14 12  1  0  0  0  0
 15 14  2  0  0  0  0
 16 15  1  0  0  0  0
 17 16  1  0  0  0  0
 19 17  1  0  0  0  0
 19 18  1  0  0  0  0
 20 19  2  0  0  0  0
 21 18  1  0  0  0  0
 23 22  1  6  0  0  0
 23 25  1  0  0  0  0
 23 27  1  0  0  0  0
 25 24  2  0  0  0  0
 27 26  1  6  0  0  0
 28 30  1  0  0  0  0
 28 31  2  0  0  0  0
 29 32  2  0  0  0  0
 30 27  1  6  0  0  0
 30 29  1  0  0  0  0
 31 34  1  0  0  0  0
 31 32  1  0  0  0  0
 33 34  2  0  0  0  0
 35 33  1  0  0  0  0
 36 38  1  0  0  0  0
 36 35  1  0  0  0  0
 37 36  1  0  0  0  0
 39 36  2  0  0  0  0
M  END
>  <MODEL>
7

>  <REMARK>
 VINA RESULT:      -6.8      4.154      9.212
  Name = 
  15 active torsions:
  status: ('A' for Active; 'I' for Inactive)
    1  A    between atoms: C_1  and  O_5
    2  A    between atoms: C_2  and  N_21
    3  A    between atoms: O_5  and  P_7
    4  A    between atoms: C_12  and  C_35
    5  A    between atoms: C_13  and  C_15
    6  A    between atoms: C_15  and  C_35
    7  A    between atoms: C_16  and  C_25
    8  A    between atoms: C_16  and  C_37
    9  A    between atoms: C_17  and  C_19
   10  A    between atoms: C_18  and  C_31
   11  A    between atoms: C_18  and  C_35
   12  A    between atoms: C_22  and  C_25
   13  A    between atoms: C_23  and  C_31
   14  A    between atoms: N_28  and  C_32
   15  A    between atoms: C_31  and  C_32
                            x       y       z     vdW  Elec       q    Type
                         _______ _______ _______ _____ _____    ______ ____

>  <TORSDO>
F 15

$$$$
=
 OpenBabel11042411043D

 39 40  0  0  1  0  0  0  0  0999 V2000
  188.1530  177.6560  141.3530 C   0  0  2  0  0  3  0  0  0  0  0  0
  190.8880  176.9220  144.6080 C   0  0  0  0  0  0  0  0  0  0  0  0
  190.4990  175.8640  143.7720 C   0  0  0  0  0  3  0  0  0  0  0  0
  189.1090  177.3790  142.4790 C   0  0  0  0  0  0  0  0  0  0  0  0
  189.6140  176.0910  142.7140 C   0  0  0  0  0  3  0  0  0  0  0  0
  189.4990  178.4330  143.3100 C   0  0  0  0  0  3  0  0  0  0  0  0
  190.3820  178.2050  144.3700 C   0  0  0  0  0  3  0  0  0  0  0  0
  192.4180  176.4310  148.0450 O   0  0  0  0  0  1  0  0  0  0  0  0
  191.4180  176.5450  147.0880 C   0  0  0  0  0  0  0  0  0  0  0  0
  191.7830  176.7260  145.7120 N   0  0  0  0  0  2  0  0  0  0  0  0
  190.2100  176.4670  147.4410 O   0  0  0  0  0  0  0  0  0  0  0  0
  188.8030  177.9300  140.0250 C   0  0  0  0  0  0  0  0  0  0  0  0
  188.6030  179.0460  139.4670 O   0  0  0  0  0  0  0  0  0  0  0  0
  189.6450  176.9500  139.4050 N   0  0  0  0  0  0  0  0  0  0  0  0
  190.9210  177.1220  139.2700 C   0  0  0  0  0  3  0  0  0  0  0  0
  191.7540  176.0860  138.5920 C   0  0  0  0  0  2  0  0  0  0  0  0
  191.5360  176.0950  137.0830 C   0  0  0  0  0  2  0  0  0  0  0  0
  189.8040  174.2600  137.2460 N   0  0  0  0  0  2  0  0  0  0  0  0
  190.9720  174.7920  136.6160 C   0  0  0  0  0  0  0  0  0  0  0  0
  191.5160  174.1820  135.6530 O   0  0  0  0  0  0  0  0  0  0  0  0
  189.1980  173.0100  136.8130 C   0  0  0  0  0  1  0  0  0  0  0  0
  187.0400  178.6440  141.7170 C   0  0  0  0  0  2  0  0  0  0  0  0
  185.8800  178.0050  142.4760 C   0  0  1  0  0  3  0  0  0  0  0  0
  186.2380  177.8790  144.9160 C   0  0  0  0  0  2  0  0  0  0  0  0
  185.7890  178.5660  143.8690 C   0  0  0  0  0  3  0  0  0  0  0  0
  183.4630  178.6240  142.5840 C   0  0  0  0  0  1  0  0  0  0  0  0
  184.5740  178.1280  141.6720 C   0  0  1  0  0  3  0  0  0  0  0  0
  183.3340  179.4390  139.9270 C   0  0  0  0  0  2  0  0  0  0  0  0
  185.1990  178.2390  139.2860 N   0  0  0  0  0  2  0  0  0  0  0  0
  184.6880  179.0100  140.4150 C   0  0  2  0  0  3  0  0  0  0  0  0
  183.2060  178.9370  138.7130 C   0  0  0  0  0  0  0  0  0  0  0  0
  184.3590  178.2030  138.3370 N   0  0  0  0  0  0  0  0  0  0  0  0
  181.3940  178.1830  137.1960 C   0  0  0  0  0  3  0  0  0  0  0  0
  182.0250  179.1480  137.8630 C   0  0  0  0  0  3  0  0  0  0  0  0
  181.8020  176.8550  137.2580 O   0  0  0  0  0  0  0  0  0  0  0  0
  181.1430  175.8000  138.4370 P   0  0  0  0  0  0  0  0  0  0  0  0
  181.1560  174.3830  137.9080 O   0  0  0  0  0  0  0  0  0  0  0  0
  179.5540  176.2570  138.7890 O   0  0  0  0  0  1  0  0  0  0  0  0
  182.0770  175.8830  139.8430 O   0  0  0  0  0  1  0  0  0  0  0  0
  1 22  1  1  0  0  0
  1  4  1  0  0  0  0
  2 10  1  0  0  0  0
  3  2  2  0  0  0  0
  4  5  2  0  0  0  0
  4  6  1  0  0  0  0
  5  3  1  0  0  0  0
  6  7  2  0  0  0  0
  7  2  1  0  0  0  0
  9 11  2  0  0  0  0
  9  8  1  0  0  0  0
 10  9  1  0  0  0  0
 12  1  1  0  0  0  0
 13 12  2  0  0  0  0
 14 12  1  0  0  0  0
 15 14  2  0  0  0  0
 16 15  1  0  0  0  0
 17 16  1  0  0  0  0
 19 17  1  0  0  0  0
 19 18  1  0  0  0  0
 20 19  2  0  0  0  0
 21 18  1  0  0  0  0
 23 22  1  6  0  0  0
 23 25  1  0  0  0  0
 25 24  2  0  0  0  0
 27 23  1  0  0  0  0
 27 26  1  1  0  0  0
 28 30  1  0  0  0  0
 29 30  1  0  0  0  0
 30 27  1  1  0  0  0
 31 28  1  0  0  0  0
 32 31  2  0  0  0  0
 32 29  1  0  0  0  0
 33 35  1  0  0  0  0
 33 34  2  0  0  0  0
 34 31  1  0  0  0  0
 35 36  1  0  0  0  0
 36 38  1  0  0  0  0
 36 39  1  0  0  0  0
 37 36  2  0  0  0  0
M  END
>  <MODEL>
8

>  <REMARK>
 VINA RESULT:      -6.7      2.679      3.248
  Name = 
  15 active torsions:
  status: ('A' for Active; 'I' for Inactive)
    1  A    between atoms: C_1  and  O_5
    2  A    between atoms: C_2  and  N_21
    3  A    between atoms: O_5  and  P_7
    4  A    between atoms: C_12  and  C_35
    5  A    between atoms: C_13  and  C_15
    6  A    between atoms: C_15  and  C_35
    7  A    between atoms: C_16  and  C_25
    8  A    between atoms: C_16  and  C_37
    9  A    between atoms: C_17  and  C_19
   10  A    between atoms: C_18  and  C_31
   11  A    between atoms: C_18  and  C_35
   12  A    between atoms: C_22  and  C_25
   13  A    between atoms: C_23  and  C_31
   14  A    between atoms: N_28  and  C_32
   15  A    between atoms: C_31  and  C_32
                            x       y       z     vdW  Elec       q    Type
                         _______ _______ _______ _____ _____    ______ ____

>  <TORSDO>
F 15

$$$$
=
 OpenBabel11042411043D

 39 40  0  0  1  0  0  0  0  0999 V2000
  185.0440  178.4060  142.0510 C   0  0  2  0  0  3  0  0  0  0  0  0
  186.2320  178.1570  146.1920 C   0  0  0  0  0  0  0  0  0  0  0  0
  185.4260  179.2220  145.7590 C   0  0  0  0  0  3  0  0  0  0  0  0
  185.4440  178.3370  143.4990 C   0  0  0  0  0  0  0  0  0  0  0  0
  185.0350  179.3120  144.4210 C   0  0  0  0  0  3  0  0  0  0  0  0
  186.2440  177.2740  143.9290 C   0  0  0  0  0  3  0  0  0  0  0  0
  186.6360  177.1860  145.2680 C   0  0  0  0  0  3  0  0  0  0  0  0
  188.2660  177.9590  149.3880 O   0  0  0  0  0  1  0  0  0  0  0  0
  188.0090  178.1670  148.0390 C   0  0  0  0  0  0  0  0  0  0  0  0
  186.6650  178.0380  147.5540 N   0  0  0  0  0  2  0  0  0  0  0  0
  188.9560  178.4850  147.2700 O   0  0  0  0  0  0  0  0  0  0  0  0
  186.1750  178.6640  141.0940 C   0  0  0  0  0  0  0  0  0  0  0  0
  185.9080  178.8750  139.8780 O   0  0  0  0  0  0  0  0  0  0  0  0
  187.5320  178.6830  141.5530 N   0  0  0  0  0  0  0  0  0  0  0  0
  188.3750  177.7460  141.2560 C   0  0  0  0  0  3  0  0  0  0  0  0
  189.7700  177.7930  141.7820 C   0  0  0  0  0  2  0  0  0  0  0  0
  189.8060  178.2620  143.2310 C   0  0  0  0  0  2  0  0  0  0  0  0
  190.6520  177.0520  145.2830 N   0  0  0  0  0  2  0  0  0  0  0  0
  190.9090  177.5910  143.9840 C   0  0  0  0  0  0  0  0  0  0  0  0
  192.0520  177.4820  143.4590 O   0  0  0  0  0  0  0  0  0  0  0  0
  191.6820  176.3640  146.0480 C   0  0  0  0  0  1  0  0  0  0  0  0
  183.8020  179.2650  141.7930 C   0  0  0  0  0  2  0  0  0  0  0  0
  182.5120  178.4570  141.6780 C   0  0  1  0  0  3  0  0  0  0  0  0
  181.8910  178.6330  144.0620 C   0  0  0  0  0  2  0  0  0  0  0  0
  181.5620  178.8200  142.7860 C   0  0  0  0  0  3  0  0  0  0  0  0
  182.8660  179.3810  139.3850 C   0  0  0  0  0  1  0  0  0  0  0  0
  181.9070  178.6010  140.2700 C   0  0  1  0  0  3  0  0  0  0  0  0
  182.6930  176.3390  139.5210 C   0  0  0  0  0  2  0  0  0  0  0  0
  181.1600  177.4620  138.2110 N   0  0  0  0  0  2  0  0  0  0  0  0
  181.5150  177.2650  139.6130 C   0  0  2  0  0  3  0  0  0  0  0  0
  182.8850  176.1150  138.2340 C   0  0  0  0  0  0  0  0  0  0  0  0
  181.9360  176.8140  137.4460 N   0  0  0  0  0  0  0  0  0  0  0  0
  185.0880  175.6500  137.1940 C   0  0  0  0  0  3  0  0  0  0  0  0
  183.9330  175.2300  137.7070 C   0  0  0  0  0  3  0  0  0  0  0  0
  185.4160  177.0000  137.1230 O   0  0  0  0  0  0  0  0  0  0  0  0
  187.0230  177.4850  136.7760 P   0  0  0  0  0  0  0  0  0  0  0  0
  187.1170  178.9930  136.8350 O   0  0  0  0  0  1  0  0  0  0  0  0
  187.4600  176.9510  135.2320 O   0  0  0  0  0  0  0  0  0  0  0  0
  188.0680  176.8120  137.9210 O   0  0  0  0  0  1  0  0  0  0  0  0
  1 22  1  1  0  0  0
  1  4  1  0  0  0  0
  2 10  1  0  0  0  0
  3  2  1  0  0  0  0
  4  6  2  0  0  0  0
  4  5  1  0  0  0  0
  5  3  2  0  0  0  0
  6  7  1  0  0  0  0
  7  2  2  0  0  0  0
  9  8  1  0  0  0  0
 10  9  1  0  0  0  0
 11  9  2  0  0  0  0
 12 14  1  0  0  0  0
 12  1  1  0  0  0  0
 13 12  2  0  0  0  0
 15 14  2  0  0  0  0
 15 16  1  0  0  0  0
 16 17  1  0  0  0  0
 17 19  1  0  0  0  0
 18 21  1  0  0  0  0
 19 18  1  0  0  0  0
 20 19  2  0  0  0  0
 23 22  1  6  0  0  0
 23 25  1  0  0  0  0
 25 24  2  0  0  0  0
 27 26  1  6  0  0  0
 27 23  1  0  0  0  0
 28 30  1  0  0  0  0
 29 30  1  0  0  0  0
 30 27  1  6  0  0  0
 31 28  1  0  0  0  0
 32 29  1  0  0  0  0
 32 31  2  0  0  0  0
 33 34  2  0  0  0  0
 34 31  1  0  0  0  0
 35 33  1  0  0  0  0
 36 37  1  0  0  0  0
 36 35  1  0  0  0  0
 36 39  1  0  0  0  0
 38 36  2  0  0  0  0
M  END
>  <MODEL>
9

>  <REMARK>
 VINA RESULT:      -6.7      3.800      5.286
  Name = 
  15 active torsions:
  status: ('A' for Active; 'I' for Inactive)
    1  A    between atoms: C_1  and  O_5
    2  A    between atoms: C_2  and  N_21
    3  A    between atoms: O_5  and  P_7
    4  A    between atoms: C_12  and  C_35
    5  A    between atoms: C_13  and  C_15
    6  A    between atoms: C_15  and  C_35
    7  A    between atoms: C_16  and  C_25
    8  A    between atoms: C_16  and  C_37
    9  A    between atoms: C_17  and  C_19
   10  A    between atoms: C_18  and  C_31
   11  A    between atoms: C_18  and  C_35
   12  A    between atoms: C_22  and  C_25
   13  A    between atoms: C_23  and  C_31
   14  A    between atoms: N_28  and  C_32
   15  A    between atoms: C_31  and  C_32
                            x       y       z     vdW  Elec       q    Type
                         _______ _______ _______ _____ _____    ______ ____

>  <TORSDO>
F 15

$$$$
