=
 OpenBabel11032420533D

 42 46  0  0  1  0  0  0  0  0999 V2000
  190.7300  176.2600  138.9020 C   0  0  0  0  0  3  0  0  0  0  0  0
  188.1500  177.4530  138.8510 C   0  0  0  0  0  0  0  0  0  0  0  0
  189.9140  176.0030  137.6710 C   0  0  1  0  0  3  0  0  0  0  0  0
  183.9890  176.8230  137.1020 C   0  0  0  0  0  3  0  0  0  0  0  0
  185.6950  177.9860  138.3660 C   0  0  0  0  0  0  0  0  0  0  0  0
  183.4030  178.7750  138.3010 C   0  0  0  0  0  0  0  0  0  0  0  0
  186.8870  178.1910  138.9290 C   0  0  0  0  0  3  0  0  0  0  0  0
  186.1320  175.9930  136.9800 C   0  0  0  0  0  3  0  0  0  0  0  0
  187.5780  175.7920  137.0840 C   0  0  0  0  0  3  0  0  0  0  0  0
  188.4700  176.4140  137.8470 C   0  0  0  0  0  0  0  0  0  0  0  0
  190.3320  177.1270  139.8330 C   0  0  0  0  0  0  0  0  0  0  0  0
  183.0650  177.7340  137.5010 N   0  0  0  0  0  0  0  0  0  0  0  0
  184.7140  178.9100  138.7460 C   0  0  0  0  0  3  0  0  0  0  0  0
  185.3270  176.9190  137.5030 C   0  0  2  0  0  3  0  0  0  0  0  0
  189.0470  177.7590  139.7430 N   0  0  0  0  0  2  0  0  0  0  0  0
  182.4040  179.7240  138.7050 C   0  0  0  0  0  0  0  0  0  0  0  0
  181.5990  180.4900  139.0280 N   0  0  0  0  0  0  0  0  0  0  0  0
  190.5610  176.7410  136.4980 C   0  0  0  0  0  2  0  0  0  0  0  0
  190.9860  175.7890  135.3890 C   0  0  0  0  0  2  0  0  0  0  0  0
  192.4250  175.8470  135.2030 N   0  0  0  0  0  2  0  0  0  0  0  0
  193.2780  175.4140  136.2210 N   0  0  0  0  0  0  0  0  0  0  0  0
  197.1860  173.6730  135.7270 C   0  0  0  0  0  1  0  0  0  0  0  0
  196.2700  174.2470  139.1530 C   0  0  1  0  0  3  0  0  0  0  0  0
  197.4020  175.9220  136.5000 O   0  0  0  0  0  1  0  0  0  0  0  0
  195.0000  174.5020  138.3610 C   0  0  0  0  0  2  0  0  0  0  0  0
  194.5350  175.2370  135.9790 C   0  0  0  0  0  3  0  0  0  0  0  0
  197.4160  174.1960  138.1460 C   0  0  0  0  0  2  0  0  0  0  0  0
  195.4270  174.7900  137.0060 N   0  0  0  0  0  0  0  0  0  0  0  0
  196.4790  175.3010  140.0410 O   0  0  0  0  0  1  0  0  0  0  0  0
  196.8590  174.6770  136.8180 C   0  0  2  0  0  0  0  0  0  0  0  0
  191.2090  177.3860  141.0080 C   0  0  0  0  0  2  0  0  0  0  0  0
  190.3670  177.7000  142.2330 C   0  0  0  0  0  2  0  0  0  0  0  0
  190.5920  176.6500  143.3100 C   0  0  2  0  0  3  0  0  0  0  0  0
  190.2290  175.3900  142.8360 O   0  0  0  0  0  1  0  0  0  0  0  0
  191.8020  176.9970  145.8070 O   0  0  0  0  0  0  0  0  0  0  0  0
  187.4470  177.0020  143.1480 Cl  0  0  0  0  0  0  0  0  0  0  0  0
  189.8380  176.9790  144.5750 C   0  0  2  0  0  3  0  0  0  0  0  0
  188.4350  177.1500  144.5940 C   0  0  0  0  0  0  0  0  0  0  0  0
  187.7910  177.4520  145.7940 C   0  0  0  0  0  3  0  0  0  0  0  0
  189.8870  177.4220  146.9330 N   0  0  0  0  0  0  0  0  0  0  0  0
  190.5490  177.1300  145.7810 C   0  0  0  0  0  0  0  0  0  0  0  0
  188.5390  177.5830  146.9640 C   0  0  0  0  0  3  0  0  0  0  0  0
  1 11  2  0  0  0  0
  2  7  1  0  0  0  0
  2 15  1  0  0  0  0
  3 18  1  6  0  0  0
  3 10  1  0  0  0  0
  3  1  1  0  0  0  0
  4 12  2  0  0  0  0
  4 14  1  0  0  0  0
  5 13  1  0  0  0  0
  5  7  2  0  0  0  0
  6 16  1  0  0  0  0
  6 13  2  0  0  0  0
  8  9  2  0  0  0  0
  9 10  1  0  0  0  0
 10  2  2  0  0  0  0
 11 31  1  0  0  0  0
 12  6  1  0  0  0  0
 14  8  1  6  0  0  0
 14  5  1  0  0  0  0
 15 11  1  0  0  0  0
 16 17  3  0  0  0  0
 19 18  1  0  0  0  0
 20 19  1  0  0  0  0
 20 21  1  0  0  0  0
 23 29  1  1  0  0  0
 24 30  1  0  0  0  0
 25 23  1  0  0  0  0
 26 21  2  0  0  0  0
 26 28  1  0  0  0  0
 27 23  1  0  0  0  0
 28 25  1  0  0  0  0
 30 22  1  6  0  0  0
 30 28  1  0  0  0  0
 30 27  1  0  0  0  0
 31 32  1  0  0  0  0
 32 33  1  0  0  0  0
 33 34  1  6  0  0  0
 36 38  1  0  0  0  0
 37 33  1  6  0  0  0
 37 38  1  0  0  0  0
 37 41  1  0  0  0  0
 38 39  2  0  0  0  0
 39 42  1  0  0  0  0
 40 42  2  0  0  0  0
 41 35  2  0  0  0  0
 41 40  1  0  0  0  0
M  END
>  <MODEL>
1

>  <REMARK>
 VINA RESULT:      -8.9      0.000      0.000
  Name = 
  9 active torsions:
  status: ('A' for Active; 'I' for Inactive)
    1  A    between atoms: N_5  and  N_10
    2  A    between atoms: C_6  and  C_20
    3  A    between atoms: C_7  and  N_10
    4  A    between atoms: C_7  and  C_13
    5  A    between atoms: C_8  and  C_13
    6  A    between atoms: C_11  and  C_26
    7  A    between atoms: C_15  and  C_30
    8  A    between atoms: C_15  and  C_36
    9  A    between atoms: C_26  and  C_36
                            x       y       z     vdW  Elec       q    Type
                         _______ _______ _______ _____ _____    ______ ____

>  <TORSDO>
F 9

$$$$
=
 OpenBabel11032420533D

 42 46  0  0  1  0  0  0  0  0999 V2000
  189.7350  176.5310  138.2090 C   0  0  0  0  0  3  0  0  0  0  0  0
  190.3510  176.6810  140.9800 C   0  0  0  0  0  0  0  0  0  0  0  0
  188.8510  177.4230  139.0290 C   0  0  1  0  0  3  0  0  0  0  0  0
  188.3650  177.4050  145.0180 C   0  0  0  0  0  3  0  0  0  0  0  0
  190.2170  176.9770  143.5180 C   0  0  0  0  0  0  0  0  0  0  0  0
  190.5150  177.0190  145.9250 C   0  0  0  0  0  0  0  0  0  0  0  0
  190.8340  176.7240  142.3620 C   0  0  0  0  0  3  0  0  0  0  0  0
  187.9270  177.4930  142.7610 C   0  0  0  0  0  3  0  0  0  0  0  0
  188.0310  177.5300  141.3010 C   0  0  0  0  0  3  0  0  0  0  0  0
  189.0540  177.2190  140.5140 C   0  0  0  0  0  0  0  0  0  0  0  0
  190.8350  175.9800  138.7210 C   0  0  0  0  0  0  0  0  0  0  0  0
  189.1940  177.2750  146.0860 N   0  0  0  0  0  0  0  0  0  0  0  0
  191.0390  176.8620  144.6450 C   0  0  0  0  0  3  0  0  0  0  0  0
  188.8410  177.2750  143.7070 C   0  0  2  0  0  3  0  0  0  0  0  0
  191.1490  176.1280  140.1130 N   0  0  0  0  0  2  0  0  0  0  0  0
  191.3670  176.8890  147.0730 C   0  0  0  0  0  0  0  0  0  0  0  0
  192.0520  176.7840  148.0000 N   0  0  0  0  0  0  0  0  0  0  0  0
  189.1200  178.8740  138.6270 C   0  0  0  0  0  2  0  0  0  0  0  0
  188.7650  179.1380  137.1710 C   0  0  0  0  0  2  0  0  0  0  0  0
  187.3730  178.8090  136.9280 N   0  0  0  0  0  2  0  0  0  0  0  0
  186.4490  178.8680  137.9740 N   0  0  0  0  0  0  0  0  0  0  0  0
  182.2540  177.9160  137.7540 C   0  0  0  0  0  1  0  0  0  0  0  0
  183.4040  178.6680  141.0730 C   0  0  1  0  0  3  0  0  0  0  0  0
  183.4180  176.1580  138.8760 O   0  0  0  0  0  1  0  0  0  0  0  0
  184.5650  179.0350  140.1660 C   0  0  0  0  0  2  0  0  0  0  0  0
  185.3230  178.2400  137.8800 C   0  0  0  0  0  3  0  0  0  0  0  0
  182.4270  177.8520  140.2330 C   0  0  0  0  0  2  0  0  0  0  0  0
  184.3610  178.2910  138.9390 N   0  0  0  0  0  0  0  0  0  0  0  0
  183.8740  177.8870  142.1280 O   0  0  0  0  0  1  0  0  0  0  0  0
  183.1320  177.5230  138.9280 C   0  0  2  0  0  0  0  0  0  0  0  0
  191.7070  175.1490  137.8450 C   0  0  0  0  0  2  0  0  0  0  0  0
  192.4210  176.0270  136.8310 C   0  0  0  0  0  2  0  0  0  0  0  0
  193.9140  176.0540  137.1160 C   0  0  2  0  0  3  0  0  0  0  0  0
  194.5940  176.6570  136.0580 O   0  0  0  0  0  1  0  0  0  0  0  0
  195.2610  175.3170  139.4530 O   0  0  0  0  0  0  0  0  0  0  0  0
  193.4920  173.8230  134.9060 Cl  0  0  0  0  0  0  0  0  0  0  0  0
  194.4580  174.6710  137.3760 C   0  0  2  0  0  3  0  0  0  0  0  0
  194.3170  173.6170  136.4440 C   0  0  0  0  0  0  0  0  0  0  0  0
  194.8420  172.3590  136.7390 C   0  0  0  0  0  3  0  0  0  0  0  0
  195.6240  173.1700  138.8410 N   0  0  0  0  0  0  0  0  0  0  0  0
  195.1230  174.4090  138.5890 C   0  0  0  0  0  0  0  0  0  0  0  0
  195.5000  172.1520  137.9500 C   0  0  0  0  0  3  0  0  0  0  0  0
  1 11  2  0  0  0  0
  1  3  1  0  0  0  0
  2  7  1  0  0  0  0
  3 18  1  6  0  0  0
  3 10  1  0  0  0  0
  4 12  2  0  0  0  0
  5 14  1  0  0  0  0
  5 13  1  0  0  0  0
  6 12  1  0  0  0  0
  6 16  1  0  0  0  0
  7  5  2  0  0  0  0
  9  8  2  0  0  0  0
 10  2  2  0  0  0  0
 10  9  1  0  0  0  0
 11 15  1  0  0  0  0
 13  6  2  0  0  0  0
 14  8  1  6  0  0  0
 14  4  1  0  0  0  0
 15  2  1  0  0  0  0
 16 17  3  0  0  0  0
 19 18  1  0  0  0  0
 20 19  1  0  0  0  0
 20 21  1  0  0  0  0
 23 29  1  1  0  0  0
 24 30  1  0  0  0  0
 25 23  1  0  0  0  0
 26 21  2  0  0  0  0
 26 28  1  0  0  0  0
 27 23  1  0  0  0  0
 28 25  1  0  0  0  0
 30 22  1  6  0  0  0
 30 28  1  0  0  0  0
 30 27  1  0  0  0  0
 31 11  1  0  0  0  0
 32 33  1  0  0  0  0
 32 31  1  0  0  0  0
 33 34  1  6  0  0  0
 36 38  1  0  0  0  0
 37 33  1  1  0  0  0
 37 41  1  0  0  0  0
 38 39  2  0  0  0  0
 38 37  1  0  0  0  0
 39 42  1  0  0  0  0
 41 40  1  0  0  0  0
 41 35  2  0  0  0  0
 42 40  2  0  0  0  0
M  END
>  <MODEL>
2

>  <REMARK>
 VINA RESULT:      -8.9      2.958      9.460
  Name = 
  9 active torsions:
  status: ('A' for Active; 'I' for Inactive)
    1  A    between atoms: N_5  and  N_10
    2  A    between atoms: C_6  and  C_20
    3  A    between atoms: C_7  and  N_10
    4  A    between atoms: C_7  and  C_13
    5  A    between atoms: C_8  and  C_13
    6  A    between atoms: C_11  and  C_26
    7  A    between atoms: C_15  and  C_30
    8  A    between atoms: C_15  and  C_36
    9  A    between atoms: C_26  and  C_36
                            x       y       z     vdW  Elec       q    Type
                         _______ _______ _______ _____ _____    ______ ____

>  <TORSDO>
F 9

$$$$
=
 OpenBabel11032420533D

 42 46  0  0  1  0  0  0  0  0999 V2000
  189.7520  177.6100  137.5880 C   0  0  0  0  0  3  0  0  0  0  0  0
  189.1630  177.5220  140.3670 C   0  0  0  0  0  0  0  0  0  0  0  0
  190.8270  177.0450  138.4670 C   0  0  1  0  0  3  0  0  0  0  0  0
  191.2200  177.6570  144.4320 C   0  0  0  0  0  3  0  0  0  0  0  0
  189.3390  177.4710  142.9190 C   0  0  0  0  0  0  0  0  0  0  0  0
  189.0330  177.5420  145.3240 C   0  0  0  0  0  0  0  0  0  0  0  0
  188.6910  177.4640  141.7530 C   0  0  0  0  0  3  0  0  0  0  0  0
  191.6930  177.5090  142.1850 C   0  0  0  0  0  3  0  0  0  0  0  0
  191.6200  177.3330  140.7330 C   0  0  0  0  0  3  0  0  0  0  0  0
  190.5610  177.3050  139.9330 C   0  0  0  0  0  0  0  0  0  0  0  0
  188.5410  177.8950  138.0640 C   0  0  0  0  0  0  0  0  0  0  0  0
  190.3730  177.6500  145.4930 N   0  0  0  0  0  0  0  0  0  0  0  0
  188.5010  177.4570  144.0410 C   0  0  0  0  0  3  0  0  0  0  0  0
  190.7420  177.5560  143.1190 C   0  0  2  0  0  3  0  0  0  0  0  0
  188.2600  177.7800  139.4660 N   0  0  0  0  0  2  0  0  0  0  0  0
  188.1630  177.5350  146.4660 C   0  0  0  0  0  0  0  0  0  0  0  0
  187.4640  177.5290  147.3880 N   0  0  0  0  0  0  0  0  0  0  0  0
  190.9480  175.5480  138.1830 C   0  0  0  0  0  2  0  0  0  0  0  0
  191.5250  175.2740  136.8020 C   0  0  0  0  0  2  0  0  0  0  0  0
  192.4840  174.1860  136.8670 N   0  0  0  0  0  2  0  0  0  0  0  0
  193.6090  174.2950  137.6880 N   0  0  0  0  0  0  0  0  0  0  0  0
  197.6840  173.4380  136.5880 C   0  0  0  0  0  1  0  0  0  0  0  0
  197.3250  174.8090  139.8890 C   0  0  1  0  0  3  0  0  0  0  0  0
  197.3650  175.8020  136.7050 O   0  0  0  0  0  1  0  0  0  0  0  0
  195.9070  174.5080  139.4350 C   0  0  0  0  0  2  0  0  0  0  0  0
  194.7890  174.3480  137.1640 C   0  0  0  0  0  3  0  0  0  0  0  0
  198.2140  174.7170  138.6530 C   0  0  0  0  0  2  0  0  0  0  0  0
  195.9560  174.4560  137.9870 N   0  0  0  0  0  0  0  0  0  0  0  0
  197.3780  176.1030  140.4040 O   0  0  0  0  0  1  0  0  0  0  0  0
  197.2910  174.6240  137.4500 C   0  0  2  0  0  0  0  0  0  0  0  0
  187.4930  178.4000  137.1330 C   0  0  0  0  0  2  0  0  0  0  0  0
  186.2130  177.6000  137.3010 C   0  0  0  0  0  2  0  0  0  0  0  0
  186.0050  176.6800  136.1090 C   0  0  2  0  0  3  0  0  0  0  0  0
  184.6860  176.7620  135.6630 O   0  0  0  0  0  1  0  0  0  0  0  0
  188.3640  175.4310  135.2730 O   0  0  0  0  0  0  0  0  0  0  0  0
  183.9970  174.9800  137.8760 Cl  0  0  0  0  0  0  0  0  0  0  0  0
  186.3660  175.2520  136.4370 C   0  0  2  0  0  3  0  0  0  0  0  0
  185.5280  174.4220  137.2160 C   0  0  0  0  0  0  0  0  0  0  0  0
  185.9140  173.1090  137.4860 C   0  0  0  0  0  3  0  0  0  0  0  0
  187.9230  173.4370  136.2430 N   0  0  0  0  0  0  0  0  0  0  0  0
  187.5810  174.7220  135.9620 C   0  0  0  0  0  0  0  0  0  0  0  0
  187.1230  172.6280  136.9850 C   0  0  0  0  0  3  0  0  0  0  0  0
  1 11  2  0  0  0  0
  1  3  1  0  0  0  0
  2  7  1  0  0  0  0
  3 18  1  1  0  0  0
  3 10  1  0  0  0  0
  4 12  2  0  0  0  0
  5 14  1  0  0  0  0
  5 13  1  0  0  0  0
  6 12  1  0  0  0  0
  6 16  1  0  0  0  0
  7  5  2  0  0  0  0
  9  8  2  0  0  0  0
 10  2  2  0  0  0  0
 10  9  1  0  0  0  0
 11 15  1  0  0  0  0
 13  6  2  0  0  0  0
 14  8  1  1  0  0  0
 14  4  1  0  0  0  0
 15  2  1  0  0  0  0
 16 17  3  0  0  0  0
 19 20  1  0  0  0  0
 19 18  1  0  0  0  0
 20 21  1  0  0  0  0
 23 29  1  6  0  0  0
 24 30  1  0  0  0  0
 25 23  1  0  0  0  0
 26 21  2  0  0  0  0
 26 28  1  0  0  0  0
 27 23  1  0  0  0  0
 28 25  1  0  0  0  0
 30 22  1  6  0  0  0
 30 28  1  0  0  0  0
 30 27  1  0  0  0  0
 31 32  1  0  0  0  0
 31 11  1  0  0  0  0
 33 34  1  1  0  0  0
 33 32  1  0  0  0  0
 35 41  2  0  0  0  0
 37 33  1  1  0  0  0
 37 38  1  0  0  0  0
 38 39  2  0  0  0  0
 38 36  1  0  0  0  0
 40 42  2  0  0  0  0
 41 40  1  0  0  0  0
 41 37  1  0  0  0  0
 42 39  1  0  0  0  0
M  END
>  <MODEL>
3

>  <REMARK>
 VINA RESULT:      -8.8      2.827      6.599
  Name = 
  9 active torsions:
  status: ('A' for Active; 'I' for Inactive)
    1  A    between atoms: N_5  and  N_10
    2  A    between atoms: C_6  and  C_20
    3  A    between atoms: C_7  and  N_10
    4  A    between atoms: C_7  and  C_13
    5  A    between atoms: C_8  and  C_13
    6  A    between atoms: C_11  and  C_26
    7  A    between atoms: C_15  and  C_30
    8  A    between atoms: C_15  and  C_36
    9  A    between atoms: C_26  and  C_36
                            x       y       z     vdW  Elec       q    Type
                         _______ _______ _______ _____ _____    ______ ____

>  <TORSDO>
F 9

$$$$
=
 OpenBabel11032420533D

 42 46  0  0  1  0  0  0  0  0999 V2000
  188.5100  177.7860  137.7860 C   0  0  0  0  0  3  0  0  0  0  0  0
  188.6100  177.5470  140.6160 C   0  0  0  0  0  0  0  0  0  0  0  0
  189.7710  177.2010  138.3490 C   0  0  1  0  0  3  0  0  0  0  0  0
  191.5880  177.5240  144.0670 C   0  0  0  0  0  3  0  0  0  0  0  0
  189.3990  177.3730  143.0440 C   0  0  0  0  0  0  0  0  0  0  0  0
  189.6820  177.3180  145.4530 C   0  0  0  0  0  0  0  0  0  0  0  0
  188.4880  177.4100  142.0700 C   0  0  0  0  0  3  0  0  0  0  0  0
  191.5050  177.4980  141.7680 C   0  0  0  0  0  3  0  0  0  0  0  0
  191.0850  177.3930  140.3690 C   0  0  0  0  0  3  0  0  0  0  0  0
  189.8640  177.3820  139.8470 C   0  0  0  0  0  0  0  0  0  0  0  0
  187.4470  178.0210  138.5540 C   0  0  0  0  0  0  0  0  0  0  0  0
  191.0230  177.4470  145.2990 N   0  0  0  0  0  0  0  0  0  0  0  0
  188.8570  177.2850  144.3330 C   0  0  0  0  0  3  0  0  0  0  0  0
  190.8080  177.4780  142.9050 C   0  0  2  0  0  3  0  0  0  0  0  0
  187.5140  177.8300  139.9750 N   0  0  0  0  0  2  0  0  0  0  0  0
  189.1140  177.2360  146.7680 C   0  0  0  0  0  0  0  0  0  0  0  0
  188.6540  177.1730  147.8290 N   0  0  0  0  0  0  0  0  0  0  0  0
  189.8330  175.7230  137.9650 C   0  0  0  0  0  2  0  0  0  0  0  0
  190.8510  175.4610  136.8640 C   0  0  0  0  0  2  0  0  0  0  0  0
  192.0150  176.3090  137.0470 N   0  0  0  0  0  2  0  0  0  0  0  0
  193.2940  175.7970  136.8190 N   0  0  0  0  0  0  0  0  0  0  0  0
  196.2170  174.7620  139.8070 C   0  0  0  0  0  1  0  0  0  0  0  0
  197.2050  173.9300  136.4550 C   0  0  1  0  0  3  0  0  0  0  0  0
  195.2560  172.7720  138.9020 O   0  0  0  0  0  1  0  0  0  0  0  0
  195.9480  174.7670  136.2950 C   0  0  0  0  0  2  0  0  0  0  0  0
  193.9360  175.2100  137.7740 C   0  0  0  0  0  3  0  0  0  0  0  0
  197.2930  173.5420  137.9280 C   0  0  0  0  0  2  0  0  0  0  0  0
  195.2500  174.6820  137.5630 N   0  0  0  0  0  0  0  0  0  0  0  0
  197.0930  172.7790  135.6770 O   0  0  0  0  0  1  0  0  0  0  0  0
  195.9690  173.9230  138.5660 C   0  0  2  0  0  0  0  0  0  0  0  0
  186.2020  178.5490  137.9320 C   0  0  0  0  0  2  0  0  0  0  0  0
  184.9860  178.0930  138.7210 C   0  0  0  0  0  2  0  0  0  0  0  0
  183.9380  179.1930  138.7570 C   0  0  2  0  0  3  0  0  0  0  0  0
  184.5390  180.4210  139.0300 O   0  0  0  0  0  1  0  0  0  0  0  0
  181.2580  178.7550  138.0870 O   0  0  0  0  0  0  0  0  0  0  0  0
  184.7250  179.0260  141.8210 Cl  0  0  0  0  0  0  0  0  0  0  0  0
  182.8530  178.8980  139.7630 C   0  0  2  0  0  3  0  0  0  0  0  0
  183.1150  178.8080  141.1500 C   0  0  0  0  0  0  0  0  0  0  0  0
  182.0720  178.5340  142.0340 C   0  0  0  0  0  3  0  0  0  0  0  0
  180.5420  178.4310  140.2080 N   0  0  0  0  0  0  0  0  0  0  0  0
  181.5340  178.6950  139.3160 C   0  0  0  0  0  0  0  0  0  0  0  0
  180.7810  178.3490  141.5420 C   0  0  0  0  0  3  0  0  0  0  0  0
  1  3  1  0  0  0  0
  1 11  2  0  0  0  0
  2  7  1  0  0  0  0
  3 18  1  1  0  0  0
  3 10  1  0  0  0  0
  4 12  2  0  0  0  0
  5 13  1  0  0  0  0
  6 16  1  0  0  0  0
  7  5  2  0  0  0  0
  9  8  2  0  0  0  0
 10  9  1  0  0  0  0
 10  2  2  0  0  0  0
 11 15  1  0  0  0  0
 12  6  1  0  0  0  0
 13  6  2  0  0  0  0
 14  8  1  6  0  0  0
 14  5  1  0  0  0  0
 14  4  1  0  0  0  0
 15  2  1  0  0  0  0
 16 17  3  0  0  0  0
 19 20  1  0  0  0  0
 19 18  1  0  0  0  0
 21 20  1  0  0  0  0
 21 26  2  0  0  0  0
 23 29  1  6  0  0  0
 23 27  1  0  0  0  0
 25 23  1  0  0  0  0
 25 28  1  0  0  0  0
 27 30  1  0  0  0  0
 28 26  1  0  0  0  0
 28 30  1  0  0  0  0
 30 24  1  0  0  0  0
 30 22  1  1  0  0  0
 31 11  1  0  0  0  0
 31 32  1  0  0  0  0
 32 33  1  0  0  0  0
 33 34  1  1  0  0  0
 35 41  2  0  0  0  0
 37 33  1  6  0  0  0
 37 38  1  0  0  0  0
 38 36  1  0  0  0  0
 38 39  2  0  0  0  0
 40 42  2  0  0  0  0
 41 37  1  0  0  0  0
 41 40  1  0  0  0  0
 42 39  1  0  0  0  0
M  END
>  <MODEL>
4

>  <REMARK>
 VINA RESULT:      -8.6      2.689      6.677
  Name = 
  9 active torsions:
  status: ('A' for Active; 'I' for Inactive)
    1  A    between atoms: N_5  and  N_10
    2  A    between atoms: C_6  and  C_20
    3  A    between atoms: C_7  and  N_10
    4  A    between atoms: C_7  and  C_13
    5  A    between atoms: C_8  and  C_13
    6  A    between atoms: C_11  and  C_26
    7  A    between atoms: C_15  and  C_30
    8  A    between atoms: C_15  and  C_36
    9  A    between atoms: C_26  and  C_36
                            x       y       z     vdW  Elec       q    Type
                         _______ _______ _______ _____ _____    ______ ____

>  <TORSDO>
F 9

$$$$
=
 OpenBabel11032420533D

 42 46  0  0  1  0  0  0  0  0999 V2000
  183.4640  178.6770  144.7090 C   0  0  0  0  0  3  0  0  0  0  0  0
  185.1130  178.7000  142.3940 C   0  0  0  0  0  0  0  0  0  0  0  0
  184.9320  178.4920  144.9500 C   0  0  1  0  0  3  0  0  0  0  0  0
  189.0460  177.0120  140.8280 C   0  0  0  0  0  3  0  0  0  0  0  0
  187.0160  178.3290  140.7260 C   0  0  2  0  0  3  0  0  0  0  0  0
  188.4920  178.1190  138.8120 C   0  0  0  0  0  0  0  0  0  0  0  0
  185.8410  178.8150  141.1290 C   0  0  0  0  0  3  0  0  0  0  0  0
  187.8080  177.1810  142.7600 C   0  0  0  0  0  3  0  0  0  0  0  0
  186.8310  177.5530  143.7860 C   0  0  0  0  0  3  0  0  0  0  0  0
  185.6900  178.2220  143.6700 C   0  0  0  0  0  0  0  0  0  0  0  0
  182.9890  178.9960  143.5060 C   0  0  0  0  0  0  0  0  0  0  0  0
  189.3150  177.3170  139.5320 N   0  0  0  0  0  0  0  0  0  0  0  0
  187.3360  178.6280  139.3960 C   0  0  0  0  0  3  0  0  0  0  0  0
  187.9060  177.5100  141.4710 C   0  0  0  0  0  0  0  0  0  0  0  0
  183.8620  179.0600  142.3690 N   0  0  0  0  0  2  0  0  0  0  0  0
  188.8040  178.4260  137.4450 C   0  0  0  0  0  0  0  0  0  0  0  0
  189.0560  178.6710  136.3420 N   0  0  0  0  0  0  0  0  0  0  0  0
  185.4670  179.7370  145.6580 C   0  0  0  0  0  2  0  0  0  0  0  0
  186.1170  179.3990  146.9930 C   0  0  0  0  0  2  0  0  0  0  0  0
  186.3040  177.9650  147.1090 N   0  0  0  0  0  2  0  0  0  0  0  0
  187.5860  177.4410  147.2910 N   0  0  0  0  0  0  0  0  0  0  0  0
  190.3900  176.3760  144.2000 C   0  0  0  0  0  1  0  0  0  0  0  0
  191.7110  176.0810  147.5270 C   0  0  1  0  0  3  0  0  0  0  0  0
  191.0730  178.4180  145.2340 O   0  0  0  0  0  1  0  0  0  0  0  0
  190.2240  176.3290  147.7180 C   0  0  0  0  0  2  0  0  0  0  0  0
  188.4470  177.4870  146.3290 C   0  0  0  0  0  3  0  0  0  0  0  0
  192.0280  176.3970  146.0690 C   0  0  0  0  0  2  0  0  0  0  0  0
  189.7650  176.9530  146.4930 N   0  0  0  0  0  0  0  0  0  0  0  0
  192.4300  176.9400  148.3560 O   0  0  0  0  0  1  0  0  0  0  0  0
  190.7990  177.0720  145.4850 C   0  0  2  0  0  0  0  0  0  0  0  0
  181.5280  179.2240  143.3360 C   0  0  0  0  0  2  0  0  0  0  0  0
  180.8980  178.0620  142.5870 C   0  0  0  0  0  2  0  0  0  0  0  0
  179.9340  178.5770  141.5300 C   0  0  2  0  0  3  0  0  0  0  0  0
  179.1540  177.5290  141.0400 O   0  0  0  0  0  1  0  0  0  0  0  0
  179.4970  181.2400  140.7940 O   0  0  0  0  0  0  0  0  0  0  0  0
  182.1090  176.9470  139.9020 Cl  0  0  0  0  0  0  0  0  0  0  0  0
  180.6580  179.2710  140.4030 C   0  0  2  0  0  3  0  0  0  0  0  0
  181.6410  178.6180  139.6240 C   0  0  0  0  0  0  0  0  0  0  0  0
  182.2780  179.3100  138.5930 C   0  0  0  0  0  3  0  0  0  0  0  0
  180.9990  181.2580  139.1020 N   0  0  0  0  0  0  0  0  0  0  0  0
  180.3590  180.6160  140.1160 C   0  0  0  0  0  0  0  0  0  0  0  0
  181.9400  180.6390  138.3430 C   0  0  0  0  0  3  0  0  0  0  0  0
  1  3  1  0  0  0  0
  2 10  1  0  0  0  0
  3 18  1  6  0  0  0
  4 14  1  0  0  0  0
  5 13  1  6  0  0  0
  5  7  1  0  0  0  0
  5 14  1  0  0  0  0
  6 13  2  0  0  0  0
  6 12  1  0  0  0  0
  7  2  2  0  0  0  0
  8  9  1  0  0  0  0
 10  9  2  0  0  0  0
 10  3  1  0  0  0  0
 11  1  2  0  0  0  0
 12  4  2  0  0  0  0
 14  8  2  0  0  0  0
 15  2  1  0  0  0  0
 15 11  1  0  0  0  0
 16  6  1  0  0  0  0
 17 16  3  0  0  0  0
 18 19  1  0  0  0  0
 19 20  1  0  0  0  0
 20 21  1  0  0  0  0
 23 25  1  0  0  0  0
 23 29  1  1  0  0  0
 24 30  1  0  0  0  0
 26 28  1  0  0  0  0
 26 21  2  0  0  0  0
 27 23  1  0  0  0  0
 28 25  1  0  0  0  0
 30 22  1  6  0  0  0
 30 27  1  0  0  0  0
 30 28  1  0  0  0  0
 31 11  1  0  0  0  0
 32 31  1  0  0  0  0
 33 34  1  6  0  0  0
 33 32  1  0  0  0  0
 37 33  1  1  0  0  0
 38 36  1  0  0  0  0
 38 37  1  0  0  0  0
 39 38  2  0  0  0  0
 40 41  1  0  0  0  0
 41 37  1  0  0  0  0
 41 35  2  0  0  0  0
 42 39  1  0  0  0  0
 42 40  2  0  0  0  0
M  END
>  <MODEL>
5

>  <REMARK>
 VINA RESULT:      -8.4      4.624      9.438
  Name = 
  9 active torsions:
  status: ('A' for Active; 'I' for Inactive)
    1  A    between atoms: N_5  and  N_10
    2  A    between atoms: C_6  and  C_20
    3  A    between atoms: C_7  and  N_10
    4  A    between atoms: C_7  and  C_13
    5  A    between atoms: C_8  and  C_13
    6  A    between atoms: C_11  and  C_26
    7  A    between atoms: C_15  and  C_30
    8  A    between atoms: C_15  and  C_36
    9  A    between atoms: C_26  and  C_36
                            x       y       z     vdW  Elec       q    Type
                         _______ _______ _______ _____ _____    ______ ____

>  <TORSDO>
F 9

$$$$
=
 OpenBabel11032420533D

 42 46  0  0  1  0  0  0  0  0999 V2000
  188.8990  178.3840  140.0990 C   0  0  0  0  0  3  0  0  0  0  0  0
  190.4200  176.3810  138.7760 C   0  0  0  0  0  0  0  0  0  0  0  0
  188.5410  178.1320  138.6650 C   0  0  1  0  0  3  0  0  0  0  0  0
  191.9100  175.2240  134.6270 C   0  0  0  0  0  3  0  0  0  0  0  0
  191.6080  174.9560  137.0140 C   0  0  0  0  0  0  0  0  0  0  0  0
  192.9760  173.4220  135.7260 C   0  0  0  0  0  0  0  0  0  0  0  0
  191.2250  175.2750  138.2520 C   0  0  0  0  0  3  0  0  0  0  0  0
  190.5060  176.7130  135.6800 C   0  0  0  0  0  3  0  0  0  0  0  0
  189.6570  177.4170  136.6430 C   0  0  0  0  0  3  0  0  0  0  0  0
  189.5750  177.2810  137.9610 C   0  0  0  0  0  0  0  0  0  0  0  0
  189.7600  177.6040  140.7510 C   0  0  0  0  0  0  0  0  0  0  0  0
  192.7140  174.1300  134.6010 N   0  0  0  0  0  0  0  0  0  0  0  0
  192.4330  173.8270  136.9420 C   0  0  0  0  0  3  0  0  0  0  0  0
  191.3220  175.6670  135.8190 C   0  0  2  0  0  3  0  0  0  0  0  0
  190.4650  176.5600  140.0650 N   0  0  0  0  0  2  0  0  0  0  0  0
  193.8280  172.2680  135.6670 C   0  0  0  0  0  0  0  0  0  0  0  0
  194.5140  171.3370  135.6230 N   0  0  0  0  0  0  0  0  0  0  0  0
  187.1600  177.4780  138.6180 C   0  0  0  0  0  2  0  0  0  0  0  0
  186.1120  178.4000  138.0120 C   0  0  0  0  0  2  0  0  0  0  0  0
  185.2920  178.9830  139.0580 N   0  0  0  0  0  2  0  0  0  0  0  0
  184.0630  178.4050  139.3850 N   0  0  0  0  0  0  0  0  0  0  0  0
  181.8290  179.0030  143.0180 C   0  0  0  0  0  1  0  0  0  0  0  0
  180.1200  177.0040  140.5710 C   0  0  1  0  0  3  0  0  0  0  0  0
  180.7930  180.2040  141.2330 O   0  0  0  0  0  1  0  0  0  0  0  0
  181.5320  177.1600  140.0310 C   0  0  0  0  0  2  0  0  0  0  0  0
  183.3380  178.9160  140.3240 C   0  0  0  0  0  3  0  0  0  0  0  0
  179.9660  178.0160  141.7020 C   0  0  0  0  0  2  0  0  0  0  0  0
  182.0770  178.3370  140.6780 N   0  0  0  0  0  0  0  0  0  0  0  0
  179.2070  177.2950  139.5600 O   0  0  0  0  0  1  0  0  0  0  0  0
  181.1780  178.9290  141.6490 C   0  0  2  0  0  0  0  0  0  0  0  0
  190.0340  177.8660  142.1910 C   0  0  0  0  0  2  0  0  0  0  0  0
  188.7460  178.2190  142.9150 C   0  0  0  0  0  2  0  0  0  0  0  0
  188.4150  177.1570  143.9510 C   0  0  2  0  0  3  0  0  0  0  0  0
  187.9210  176.0130  143.3240 O   0  0  0  0  0  1  0  0  0  0  0  0
  188.9680  177.3380  146.6860 O   0  0  0  0  0  0  0  0  0  0  0  0
  185.5570  178.1110  142.9690 Cl  0  0  0  0  0  0  0  0  0  0  0  0
  187.4340  177.6650  144.9780 C   0  0  2  0  0  3  0  0  0  0  0  0
  186.1380  178.1080  144.6290 C   0  0  0  0  0  0  0  0  0  0  0  0
  185.2730  178.5670  145.6220 C   0  0  0  0  0  3  0  0  0  0  0  0
  186.9450  178.1640  147.2730 N   0  0  0  0  0  0  0  0  0  0  0  0
  187.8170  177.7120  146.3320 C   0  0  0  0  0  0  0  0  0  0  0  0
  185.6950  178.5860  146.9500 C   0  0  0  0  0  3  0  0  0  0  0  0
  1 11  2  0  0  0  0
  2 15  1  0  0  0  0
  3 18  1  1  0  0  0
  3  1  1  0  0  0  0
  5  7  2  0  0  0  0
  6 13  2  0  0  0  0
  7  2  1  0  0  0  0
  8 14  1  0  0  0  0
  8  9  2  0  0  0  0
  9 10  1  0  0  0  0
 10  3  1  0  0  0  0
 10  2  2  0  0  0  0
 11 31  1  0  0  0  0
 12  4  2  0  0  0  0
 12  6  1  0  0  0  0
 13  5  1  0  0  0  0
 14  4  1  6  0  0  0
 14  5  1  0  0  0  0
 15 11  1  0  0  0  0
 16  6  1  0  0  0  0
 17 16  3  0  0  0  0
 19 18  1  0  0  0  0
 19 20  1  0  0  0  0
 20 21  1  0  0  0  0
 21 26  2  0  0  0  0
 23 29  1  6  0  0  0
 23 27  1  0  0  0  0
 24 30  1  0  0  0  0
 25 23  1  0  0  0  0
 25 28  1  0  0  0  0
 26 28  1  0  0  0  0
 28 30  1  0  0  0  0
 30 27  1  0  0  0  0
 30 22  1  1  0  0  0
 31 32  1  0  0  0  0
 32 33  1  0  0  0  0
 33 34  1  6  0  0  0
 36 38  1  0  0  0  0
 37 33  1  6  0  0  0
 37 41  1  0  0  0  0
 38 37  1  0  0  0  0
 38 39  2  0  0  0  0
 39 42  1  0  0  0  0
 41 35  2  0  0  0  0
 41 40  1  0  0  0  0
 42 40  2  0  0  0  0
M  END
>  <MODEL>
6

>  <REMARK>
 VINA RESULT:      -8.3      3.326      9.414
  Name = 
  9 active torsions:
  status: ('A' for Active; 'I' for Inactive)
    1  A    between atoms: N_5  and  N_10
    2  A    between atoms: C_6  and  C_20
    3  A    between atoms: C_7  and  N_10
    4  A    between atoms: C_7  and  C_13
    5  A    between atoms: C_8  and  C_13
    6  A    between atoms: C_11  and  C_26
    7  A    between atoms: C_15  and  C_30
    8  A    between atoms: C_15  and  C_36
    9  A    between atoms: C_26  and  C_36
                            x       y       z     vdW  Elec       q    Type
                         _______ _______ _______ _____ _____    ______ ____

>  <TORSDO>
F 9

$$$$
=
 OpenBabel11032420533D

 42 46  0  0  1  0  0  0  0  0999 V2000
  189.6250  176.6540  138.3420 C   0  0  0  0  0  3  0  0  0  0  0  0
  190.2840  176.7560  141.1050 C   0  0  0  0  0  0  0  0  0  0  0  0
  188.7640  177.5430  139.1880 C   0  0  1  0  0  3  0  0  0  0  0  0
  188.3670  177.4420  145.1820 C   0  0  0  0  0  3  0  0  0  0  0  0
  190.1910  177.0160  143.6490 C   0  0  0  0  0  0  0  0  0  0  0  0
  190.5250  177.0180  146.0510 C   0  0  0  0  0  0  0  0  0  0  0  0
  190.7880  176.7720  142.4800 C   0  0  0  0  0  3  0  0  0  0  0  0
  187.8970  177.5690  142.9340 C   0  0  0  0  0  3  0  0  0  0  0  0
  187.9790  177.6260  141.4730 C   0  0  0  0  0  3  0  0  0  0  0  0
  188.9860  177.3150  140.6660 C   0  0  0  0  0  0  0  0  0  0  0  0
  190.7260  176.0820  138.8290 C   0  0  0  0  0  0  0  0  0  0  0  0
  189.2100  177.2870  146.2350 N   0  0  0  0  0  0  0  0  0  0  0  0
  191.0290  176.8740  144.7620 C   0  0  0  0  0  3  0  0  0  0  0  0
  188.8220  177.3260  143.8630 C   0  0  2  0  0  3  0  0  0  0  0  0
  191.0620  176.2060  140.2180 N   0  0  0  0  0  2  0  0  0  0  0  0
  191.3930  176.8620  147.1840 C   0  0  0  0  0  0  0  0  0  0  0  0
  192.0920  176.7390  148.0980 N   0  0  0  0  0  0  0  0  0  0  0  0
  189.0440  178.9960  138.8030 C   0  0  0  0  0  2  0  0  0  0  0  0
  189.0590  179.1950  137.2940 C   0  0  0  0  0  2  0  0  0  0  0  0
  187.7830  179.7220  136.8460 N   0  0  0  0  0  2  0  0  0  0  0  0
  186.6160  178.9780  137.0340 N   0  0  0  0  0  0  0  0  0  0  0  0
  185.3660  175.5430  134.7560 C   0  0  0  0  0  1  0  0  0  0  0  0
  183.2320  176.2940  137.5450 C   0  0  1  0  0  3  0  0  0  0  0  0
  186.1630  174.8400  136.8940 O   0  0  0  0  0  1  0  0  0  0  0  0
  184.1700  177.4840  137.4410 C   0  0  0  0  0  2  0  0  0  0  0  0
  186.5190  177.7900  136.5340 C   0  0  0  0  0  3  0  0  0  0  0  0
  183.8140  175.1930  136.6650 C   0  0  0  0  0  2  0  0  0  0  0  0
  185.3300  177.0120  136.7110 N   0  0  0  0  0  0  0  0  0  0  0  0
  183.1880  175.8570  138.8680 O   0  0  0  0  0  1  0  0  0  0  0  0
  185.2090  175.6390  136.2620 C   0  0  2  0  0  0  0  0  0  0  0  0
  191.5750  175.2540  137.9280 C   0  0  0  0  0  2  0  0  0  0  0  0
  192.9320  175.9110  137.7360 C   0  0  0  0  0  2  0  0  0  0  0  0
  193.3150  175.9080  136.2650 C   0  0  2  0  0  3  0  0  0  0  0  0
  192.5670  174.9550  135.5750 O   0  0  0  0  0  1  0  0  0  0  0  0
  195.1290  177.8650  135.4250 O   0  0  0  0  0  0  0  0  0  0  0  0
  194.4600  173.0170  136.8720 Cl  0  0  0  0  0  0  0  0  0  0  0  0
  194.7920  175.6640  136.0730 C   0  0  2  0  0  3  0  0  0  0  0  0
  195.3860  174.4040  136.3180 C   0  0  0  0  0  0  0  0  0  0  0  0
  196.7560  174.2370  136.1220 C   0  0  0  0  0  3  0  0  0  0  0  0
  196.9480  176.5210  135.4620 N   0  0  0  0  0  0  0  0  0  0  0  0
  195.6160  176.7220  135.6440 C   0  0  0  0  0  0  0  0  0  0  0  0
  197.5280  175.3140  135.6880 C   0  0  0  0  0  3  0  0  0  0  0  0
  1 11  2  0  0  0  0
  1  3  1  0  0  0  0
  2  7  1  0  0  0  0
  3 18  1  6  0  0  0
  3 10  1  0  0  0  0
  4 12  2  0  0  0  0
  5 14  1  0  0  0  0
  5 13  1  0  0  0  0
  6 12  1  0  0  0  0
  6 16  1  0  0  0  0
  7  5  2  0  0  0  0
  9  8  2  0  0  0  0
 10  2  2  0  0  0  0
 10  9  1  0  0  0  0
 11 15  1  0  0  0  0
 13  6  2  0  0  0  0
 14  8  1  6  0  0  0
 14  4  1  0  0  0  0
 15  2  1  0  0  0  0
 16 17  3  0  0  0  0
 19 18  1  0  0  0  0
 20 21  1  0  0  0  0
 20 19  1  0  0  0  0
 23 29  1  1  0  0  0
 25 23  1  0  0  0  0
 26 28  1  0  0  0  0
 26 21  2  0  0  0  0
 27 23  1  0  0  0  0
 28 25  1  0  0  0  0
 30 22  1  6  0  0  0
 30 27  1  0  0  0  0
 30 28  1  0  0  0  0
 30 24  1  0  0  0  0
 31 11  1  0  0  0  0
 32 31  1  0  0  0  0
 33 34  1  6  0  0  0
 33 32  1  0  0  0  0
 35 41  2  0  0  0  0
 37 33  1  1  0  0  0
 37 38  1  0  0  0  0
 38 36  1  0  0  0  0
 39 38  2  0  0  0  0
 40 41  1  0  0  0  0
 40 42  2  0  0  0  0
 41 37  1  0  0  0  0
 42 39  1  0  0  0  0
M  END
>  <MODEL>
7

>  <REMARK>
 VINA RESULT:      -8.2      3.350      9.377
  Name = 
  9 active torsions:
  status: ('A' for Active; 'I' for Inactive)
    1  A    between atoms: N_5  and  N_10
    2  A    between atoms: C_6  and  C_20
    3  A    between atoms: C_7  and  N_10
    4  A    between atoms: C_7  and  C_13
    5  A    between atoms: C_8  and  C_13
    6  A    between atoms: C_11  and  C_26
    7  A    between atoms: C_15  and  C_30
    8  A    between atoms: C_15  and  C_36
    9  A    between atoms: C_26  and  C_36
                            x       y       z     vdW  Elec       q    Type
                         _______ _______ _______ _____ _____    ______ ____

>  <TORSDO>
F 9

$$$$
=
 OpenBabel11032420533D

 42 46  0  0  1  0  0  0  0  0999 V2000
  184.0610  178.3330  145.2310 C   0  0  0  0  0  3  0  0  0  0  0  0
  185.6510  178.5070  142.8820 C   0  0  0  0  0  0  0  0  0  0  0  0
  185.5190  178.0300  145.4040 C   0  0  1  0  0  3  0  0  0  0  0  0
  189.4230  176.7550  141.0180 C   0  0  0  0  0  2  0  0  0  0  0  0
  187.4840  178.2020  141.1240 C   0  0  0  0  0  0  0  0  0  0  0  0
  188.8960  178.1110  139.1530 C   0  0  0  0  0  0  0  0  0  0  0  0
  186.3540  178.7150  141.6140 C   0  0  0  0  0  3  0  0  0  0  0  0
  188.2470  176.7880  142.9950 C   0  0  0  0  0  3  0  0  0  0  0  0
  187.3230  177.1060  144.0850 C   0  0  0  0  0  3  0  0  0  0  0  0
  186.2260  177.8550  144.0790 C   0  0  0  0  0  0  0  0  0  0  0  0
  183.5800  178.8120  144.0850 C   0  0  0  0  0  0  0  0  0  0  0  0
  189.6800  177.1850  139.7560 N   0  0  0  0  0  0  0  0  0  0  0  0
  187.7910  178.6250  139.8250 C   0  0  0  0  0  3  0  0  0  0  0  0
  188.3350  177.2510  141.7480 C   0  0  0  0  0  0  0  0  0  0  0  0
  184.4270  178.9460  142.9350 N   0  0  0  0  0  2  0  0  0  0  0  0
  189.1940  178.5470  137.8180 C   0  0  0  0  0  0  0  0  0  0  0  0
  189.4310  178.8980  136.7410 N   0  0  0  0  0  0  0  0  0  0  0  0
  186.1530  179.1520  146.2270 C   0  0  0  0  0  2  0  0  0  0  0  0
  186.1080  178.8610  147.7200 C   0  0  0  0  0  2  0  0  0  0  0  0
  187.4500  178.6360  148.2260 N   0  0  0  0  0  2  0  0  0  0  0  0
  188.4620  178.2190  147.3580 N   0  0  0  0  0  0  0  0  0  0  0  0
  192.3200  176.6620  148.4710 C   0  0  0  0  0  1  0  0  0  0  0  0
  191.6820  176.5790  144.9370 C   0  0  1  0  0  3  0  0  0  0  0  0
  190.9270  174.8790  147.7070 O   0  0  0  0  0  1  0  0  0  0  0  0
  190.5420  177.3950  145.5210 C   0  0  0  0  0  2  0  0  0  0  0  0
  189.4160  177.4620  147.7920 C   0  0  0  0  0  3  0  0  0  0  0  0
  192.3790  175.8930  146.1080 C   0  0  0  0  0  2  0  0  0  0  0  0
  190.4650  177.0270  146.9200 N   0  0  0  0  0  0  0  0  0  0  0  0
  191.1630  175.6140  144.0760 O   0  0  0  0  0  1  0  0  0  0  0  0
  191.4980  176.0950  147.3280 C   0  0  2  0  0  0  0  0  0  0  0  0
  182.1330  179.1500  143.9880 C   0  0  0  0  0  2  0  0  0  0  0  0
  181.5010  178.4220  142.8140 C   0  0  0  0  0  2  0  0  0  0  0  0
  181.4100  179.3430  141.6090 C   0  0  2  0  0  3  0  0  0  0  0  0
  180.2030  180.0420  141.6290 O   0  0  0  0  0  1  0  0  0  0  0  0
  183.4970  179.7500  139.7930 O   0  0  0  0  0  0  0  0  0  0  0  0
  179.2600  177.1270  140.8940 Cl  0  0  0  0  0  0  0  0  0  0  0  0
  181.5620  178.5840  140.3130 C   0  0  2  0  0  3  0  0  0  0  0  0
  180.6480  177.5810  139.9150 C   0  0  0  0  0  0  0  0  0  0  0  0
  180.8390  176.9140  138.7050 C   0  0  0  0  0  3  0  0  0  0  0  0
  182.8050  178.2010  138.2970 N   0  0  0  0  0  0  0  0  0  0  0  0
  182.6530  178.8720  139.4700 C   0  0  0  0  0  0  0  0  0  0  0  0
  181.9300  177.2410  137.9010 C   0  0  0  0  0  3  0  0  0  0  0  0
  1  3  1  0  0  0  0
  2 15  1  0  0  0  0
  2 10  1  0  0  0  0
  3 18  1  6  0  0  0
  4 14  1  0  0  0  0
  5  7  1  0  0  0  0
  5 14  1  0  0  0  0
  6 12  2  0  0  0  0
  6 13  1  0  0  0  0
  7  2  2  0  0  0  0
  8  9  1  0  0  0  0
 10  9  2  0  0  0  0
 10  3  1  0  0  0  0
 11  1  2  0  0  0  0
 12  4  1  0  0  0  0
 13  5  2  0  0  0  0
 14  8  2  0  0  0  0
 15 11  1  0  0  0  0
 16  6  1  0  0  0  0
 17 16  3  0  0  0  0
 18 19  1  0  0  0  0
 19 20  1  0  0  0  0
 21 26  2  0  0  0  0
 21 20  1  0  0  0  0
 23 29  1  6  0  0  0
 23 25  1  0  0  0  0
 23 27  1  0  0  0  0
 25 28  1  0  0  0  0
 27 30  1  0  0  0  0
 28 30  1  0  0  0  0
 28 26  1  0  0  0  0
 30 24  1  0  0  0  0
 30 22  1  1  0  0  0
 31 11  1  0  0  0  0
 32 31  1  0  0  0  0
 33 34  1  6  0  0  0
 33 32  1  0  0  0  0
 37 33  1  1  0  0  0
 38 37  1  0  0  0  0
 38 36  1  0  0  0  0
 39 38  2  0  0  0  0
 40 41  1  0  0  0  0
 41 35  2  0  0  0  0
 41 37  1  0  0  0  0
 42 40  2  0  0  0  0
 42 39  1  0  0  0  0
M  END
>  <MODEL>
8

>  <REMARK>
 VINA RESULT:      -8.2      4.466      9.358
  Name = 
  9 active torsions:
  status: ('A' for Active; 'I' for Inactive)
    1  A    between atoms: N_5  and  N_10
    2  A    between atoms: C_6  and  C_20
    3  A    between atoms: C_7  and  N_10
    4  A    between atoms: C_7  and  C_13
    5  A    between atoms: C_8  and  C_13
    6  A    between atoms: C_11  and  C_26
    7  A    between atoms: C_15  and  C_30
    8  A    between atoms: C_15  and  C_36
    9  A    between atoms: C_26  and  C_36
                            x       y       z     vdW  Elec       q    Type
                         _______ _______ _______ _____ _____    ______ ____

>  <TORSDO>
F 9

$$$$
=
 OpenBabel11032420533D

 42 46  0  0  1  0  0  0  0  0999 V2000
  189.3250  178.7000  141.5540 C   0  0  0  0  0  3  0  0  0  0  0  0
  190.2830  176.9240  139.5530 C   0  0  0  0  0  0  0  0  0  0  0  0
  188.5290  178.6540  140.2850 C   0  0  1  0  0  3  0  0  0  0  0  0
  190.3590  176.3930  135.0270 C   0  0  0  0  0  2  0  0  0  0  0  0
  190.8080  175.7800  137.3260 C   0  0  0  0  0  0  0  0  0  0  0  0
  191.6490  174.4610  135.4710 C   0  0  0  0  0  0  0  0  0  0  0  0
  190.8430  175.9130  138.6530 C   0  0  0  0  0  3  0  0  0  0  0  0
  189.4090  177.7000  136.6650 C   0  0  0  0  0  3  0  0  0  0  0  0
  188.9300  178.2490  137.9350 C   0  0  0  0  0  3  0  0  0  0  0  0
  189.2590  177.9240  139.1800 C   0  0  0  0  0  0  0  0  0  0  0  0
  190.3180  177.8420  141.7860 C   0  0  0  0  0  0  0  0  0  0  0  0
  191.0740  175.3220  134.5960 N   0  0  0  0  0  0  0  0  0  0  0  0
  191.5280  174.6810  136.8400 C   0  0  0  0  0  3  0  0  0  0  0  0
  190.1890  176.6540  136.3930 C   0  0  0  0  0  0  0  0  0  0  0  0
  190.7350  176.9150  140.7730 N   0  0  0  0  0  2  0  0  0  0  0  0
  192.3970  173.3360  134.9860 C   0  0  0  0  0  0  0  0  0  0  0  0
  192.9980  172.4280  134.5940 N   0  0  0  0  0  0  0  0  0  0  0  0
  187.1790  178.0000  140.5840 C   0  0  0  0  0  2  0  0  0  0  0  0
  186.2500  178.9320  141.3480 C   0  0  0  0  0  2  0  0  0  0  0  0
  185.1720  179.3820  140.4860 N   0  0  0  0  0  2  0  0  0  0  0  0
  183.8440  179.2140  140.8860 N   0  0  0  0  0  0  0  0  0  0  0  0
  180.5750  177.8610  138.4290 C   0  0  0  0  0  1  0  0  0  0  0  0
  179.7080  178.3140  141.8850 C   0  0  1  0  0  3  0  0  0  0  0  0
  181.2450  176.1100  139.9080 O   0  0  0  0  0  1  0  0  0  0  0  0
  181.0980  178.9100  141.7500 C   0  0  0  0  0  2  0  0  0  0  0  0
  183.0430  178.4880  140.1780 C   0  0  0  0  0  3  0  0  0  0  0  0
  179.4470  177.5100  140.6150 C   0  0  0  0  0  2  0  0  0  0  0  0
  181.6770  178.3050  140.5660 N   0  0  0  0  0  0  0  0  0  0  0  0
  179.6770  177.4620  142.9880 O   0  0  0  0  0  1  0  0  0  0  0  0
  180.7660  177.4200  139.8680 C   0  0  2  0  0  0  0  0  0  0  0  0
  191.0380  177.8970  143.0880 C   0  0  0  0  0  2  0  0  0  0  0  0
  190.0900  178.3270  144.1940 C   0  0  0  0  0  2  0  0  0  0  0  0
  189.5600  177.1120  144.9380 C   0  0  2  0  0  3  0  0  0  0  0  0
  188.7340  176.3610  144.1020 O   0  0  0  0  0  1  0  0  0  0  0  0
  190.7220  177.1460  147.4810 O   0  0  0  0  0  0  0  0  0  0  0  0
  186.5210  177.9800  144.7060 Cl  0  0  0  0  0  0  0  0  0  0  0  0
  188.8260  177.5030  146.1960 C   0  0  2  0  0  3  0  0  0  0  0  0
  187.4690  177.9010  146.1850 C   0  0  0  0  0  0  0  0  0  0  0  0
  186.8410  178.2510  147.3800 C   0  0  0  0  0  3  0  0  0  0  0  0
  188.8630  177.8300  148.5730 N   0  0  0  0  0  0  0  0  0  0  0  0
  189.5090  177.4830  147.4270 C   0  0  0  0  0  0  0  0  0  0  0  0
  187.5580  178.2070  148.5750 C   0  0  0  0  0  3  0  0  0  0  0  0
  1 11  2  0  0  0  0
  2 15  1  0  0  0  0
  3 18  1  1  0  0  0
  3  1  1  0  0  0  0
  4 14  1  0  0  0  0
  5  7  1  0  0  0  0
  6 13  1  0  0  0  0
  7  2  2  0  0  0  0
  8  9  1  0  0  0  0
  9 10  2  0  0  0  0
 10  2  1  0  0  0  0
 10  3  1  0  0  0  0
 11 31  1  0  0  0  0
 12  4  1  0  0  0  0
 12  6  2  0  0  0  0
 13  5  2  0  0  0  0
 14  8  2  0  0  0  0
 14  5  1  0  0  0  0
 15 11  1  0  0  0  0
 16  6  1  0  0  0  0
 17 16  3  0  0  0  0
 18 19  1  0  0  0  0
 20 21  1  0  0  0  0
 20 19  1  0  0  0  0
 23 29  1  1  0  0  0
 25 23  1  0  0  0  0
 26 28  1  0  0  0  0
 26 21  2  0  0  0  0
 27 23  1  0  0  0  0
 28 25  1  0  0  0  0
 30 22  1  6  0  0  0
 30 24  1  0  0  0  0
 30 28  1  0  0  0  0
 30 27  1  0  0  0  0
 31 32  1  0  0  0  0
 32 33  1  0  0  0  0
 33 34  1  6  0  0  0
 36 38  1  0  0  0  0
 37 33  1  6  0  0  0
 37 41  1  0  0  0  0
 38 37  1  0  0  0  0
 38 39  2  0  0  0  0
 39 42  1  0  0  0  0
 40 42  2  0  0  0  0
 41 35  2  0  0  0  0
 41 40  1  0  0  0  0
M  END
>  <MODEL>
9

>  <REMARK>
 VINA RESULT:      -8.1      3.454      9.197
  Name = 
  9 active torsions:
  status: ('A' for Active; 'I' for Inactive)
    1  A    between atoms: N_5  and  N_10
    2  A    between atoms: C_6  and  C_20
    3  A    between atoms: C_7  and  N_10
    4  A    between atoms: C_7  and  C_13
    5  A    between atoms: C_8  and  C_13
    6  A    between atoms: C_11  and  C_26
    7  A    between atoms: C_15  and  C_30
    8  A    between atoms: C_15  and  C_36
    9  A    between atoms: C_26  and  C_36
                            x       y       z     vdW  Elec       q    Type
                         _______ _______ _______ _____ _____    ______ ____

>  <TORSDO>
F 9

$$$$
