=
 OpenBabel11042412293D

 27 30  0  0  1  0  0  0  0  0999 V2000
  185.0840  178.3050  142.8780 C   0  0  1  0  0  3  0  0  0  0  0  0
  185.7260  178.9570  146.5920 C   0  0  0  0  0  3  0  0  0  0  0  0
  185.6660  178.2380  144.2730 C   0  0  0  0  0  0  0  0  0  0  0  0
  186.7930  178.0910  146.8430 C   0  0  0  0  0  0  0  0  0  0  0  0
  186.7350  177.3720  144.5240 C   0  0  0  0  0  3  0  0  0  0  0  0
  185.1640  179.0320  145.3160 C   0  0  0  0  0  3  0  0  0  0  0  0
  187.2970  177.2970  145.8000 C   0  0  0  0  0  3  0  0  0  0  0  0
  188.7340  178.0530  148.3770 C   0  0  0  0  0  1  0  0  0  0  0  0
  187.3340  178.0390  148.1310 O   0  0  0  0  0  0  0  0  0  0  0  0
  183.1500  179.3500  143.7760 C   0  0  0  0  0  1  0  0  0  0  0  0
  183.6120  178.3560  142.8160 N   0  0  0  0  0  0  0  0  0  0  0  0
  182.9310  177.5070  140.6300 C   0  0  0  0  0  2  0  0  0  0  0  0
  181.0450  178.9760  140.2780 N   0  0  0  0  0  1  0  0  0  0  0  0
  181.7340  178.1710  141.2690 C   0  0  2  0  0  3  0  0  0  0  0  0
  183.1250  178.7410  141.4910 C   0  0  1  0  0  3  0  0  0  0  0  0
  185.7170  179.3900  142.0050 C   0  0  0  0  0  2  0  0  0  0  0  0
  186.6520  178.3230  138.5450 N   0  0  0  0  0  0  0  0  0  0  0  0
  186.1210  178.7640  139.6880 N   0  0  0  0  0  0  0  0  0  0  0  0
  188.1130  177.3910  136.9200 N   0  0  0  0  0  1  0  0  0  0  0  0
  187.8390  178.3440  141.3880 C   0  0  0  0  0  3  0  0  0  0  0  0
  190.7410  176.8480  140.0370 C   0  0  0  0  0  3  0  0  0  0  0  0
  188.8280  177.7770  140.6250 C   0  0  0  0  0  0  0  0  0  0  0  0
  186.5980  178.7920  140.9600 C   0  0  0  0  0  0  0  0  0  0  0  0
  190.0230  176.9420  138.8960 N   0  0  0  0  0  0  0  0  0  0  0  0
  187.8540  177.7550  138.2730 C   0  0  0  0  0  0  0  0  0  0  0  0
  188.8440  177.5060  139.2140 C   0  0  0  0  0  0  0  0  0  0  0  0
  190.0390  177.3510  141.1210 C   0  0  0  0  0  3  0  0  0  0  0  0
  1 16  1  1  0  0  0
  1  3  1  0  0  0  0
  2  4  1  0  0  0  0
  3  5  2  0  0  0  0
  3  6  1  0  0  0  0
  4  9  1  0  0  0  0
  5  7  1  0  0  0  0
  6  2  2  0  0  0  0
  7  4  2  0  0  0  0
  9  8  1  0  0  0  0
 11  1  1  0  0  0  0
 11 10  1  0  0  0  0
 12 14  1  0  0  0  0
 12 15  1  0  0  0  0
 14 13  1  6  0  0  0
 14 15  1  0  0  0  0
 15 11  1  1  0  0  0
 17 18  1  0  0  0  0
 18 23  2  0  0  0  0
 19 25  1  0  0  0  0
 21 27  2  0  0  0  0
 22 27  1  0  0  0  0
 22 20  2  0  0  0  0
 23 20  1  0  0  0  0
 23 16  1  0  0  0  0
 24 26  2  0  0  0  0
 24 21  1  0  0  0  0
 25 17  2  0  0  0  0
 25 26  1  0  0  0  0
 26 22  1  0  0  0  0
M  END
>  <MODEL>
1

>  <REMARK>
 VINA RESULT:      -8.4      0.000      0.000
  Name = 
  6 active torsions:
  status: ('A' for Active; 'I' for Inactive)
    1  A    between atoms: C_6  and  C_12
    2  A    between atoms: C_6  and  C_21
    3  A    between atoms: C_7  and  C_12
    4  A    between atoms: C_12  and  N_16
    5  A    between atoms: C_13  and  O_23
    6  A    between atoms: N_16  and  C_20
                            x       y       z     vdW  Elec       q    Type
                         _______ _______ _______ _____ _____    ______ ____

>  <TORSDO>
F 6

$$$$
=
 OpenBabel11042412293D

 27 30  0  0  1  0  0  0  0  0999 V2000
  189.7510  177.5260  142.5830 C   0  0  1  0  0  3  0  0  0  0  0  0
  191.4780  177.1100  145.9710 C   0  0  0  0  0  3  0  0  0  0  0  0
  190.5470  176.9490  143.7340 C   0  0  0  0  0  0  0  0  0  0  0  0
  192.0480  175.8410  145.8360 C   0  0  0  0  0  0  0  0  0  0  0  0
  191.1170  175.6800  143.5980 C   0  0  0  0  0  3  0  0  0  0  0  0
  190.7320  177.6630  144.9280 C   0  0  0  0  0  3  0  0  0  0  0  0
  191.8640  175.1270  144.6400 C   0  0  0  0  0  3  0  0  0  0  0  0
  192.6570  175.7830  148.2330 C   0  0  0  0  0  1  0  0  0  0  0  0
  192.7900  175.3150  146.8980 O   0  0  0  0  0  0  0  0  0  0  0  0
  191.9200  177.5350  141.6160 C   0  0  0  0  0  1  0  0  0  0  0  0
  190.5010  177.6860  141.3230 N   0  0  0  0  0  0  0  0  0  0  0  0
  189.6530  177.3600  139.0570 C   0  0  0  0  0  2  0  0  0  0  0  0
  191.0820  175.5150  138.4310 N   0  0  0  0  0  1  0  0  0  0  0  0
  191.0510  176.7920  139.1210 C   0  0  2  0  0  3  0  0  0  0  0  0
  190.1320  176.6810  140.3260 C   0  0  1  0  0  3  0  0  0  0  0  0
  188.4150  176.8180  142.3510 C   0  0  0  0  0  2  0  0  0  0  0  0
  185.1960  178.6800  142.7380 N   0  0  0  0  0  0  0  0  0  0  0  0
  186.3090  178.0380  142.3770 N   0  0  0  0  0  0  0  0  0  0  0  0
  183.4570  179.6980  143.9960 N   0  0  0  0  0  1  0  0  0  0  0  0
  187.4150  177.4550  144.4880 C   0  0  0  0  0  3  0  0  0  0  0  0
  185.5970  178.5480  147.3140 C   0  0  0  0  0  3  0  0  0  0  0  0
  186.5310  177.9770  145.3990 C   0  0  0  0  0  0  0  0  0  0  0  0
  187.3160  177.4860  143.1060 C   0  0  0  0  0  0  0  0  0  0  0  0
  184.7600  179.0050  146.3570 N   0  0  0  0  0  0  0  0  0  0  0  0
  184.6940  178.9930  143.9590 C   0  0  0  0  0  0  0  0  0  0  0  0
  185.2970  178.6760  145.1690 C   0  0  0  0  0  0  0  0  0  0  0  0
  186.6980  177.9100  146.7640 C   0  0  0  0  0  3  0  0  0  0  0  0
  1 16  1  6  0  0  0
  1  3  1  0  0  0  0
  3  6  1  0  0  0  0
  4  2  1  0  0  0  0
  4  9  1  0  0  0  0
  5  3  2  0  0  0  0
  5  7  1  0  0  0  0
  6  2  2  0  0  0  0
  7  4  2  0  0  0  0
  9  8  1  0  0  0  0
 11 10  1  0  0  0  0
 11  1  1  0  0  0  0
 12 14  1  0  0  0  0
 12 15  1  0  0  0  0
 14 13  1  6  0  0  0
 14 15  1  0  0  0  0
 15 11  1  1  0  0  0
 16 23  1  0  0  0  0
 17 25  1  0  0  0  0
 18 17  2  0  0  0  0
 18 23  1  0  0  0  0
 20 22  1  0  0  0  0
 22 27  2  0  0  0  0
 23 20  2  0  0  0  0
 24 21  2  0  0  0  0
 25 19  1  0  0  0  0
 25 26  2  0  0  0  0
 26 22  1  0  0  0  0
 26 24  1  0  0  0  0
 27 21  1  0  0  0  0
M  END
>  <MODEL>
2

>  <REMARK>
 VINA RESULT:      -8.2      2.739      6.607
  Name = 
  6 active torsions:
  status: ('A' for Active; 'I' for Inactive)
    1  A    between atoms: C_6  and  C_12
    2  A    between atoms: C_6  and  C_21
    3  A    between atoms: C_7  and  C_12
    4  A    between atoms: C_12  and  N_16
    5  A    between atoms: C_13  and  O_23
    6  A    between atoms: N_16  and  C_20
                            x       y       z     vdW  Elec       q    Type
                         _______ _______ _______ _____ _____    ______ ____

>  <TORSDO>
F 6

$$$$
=
 OpenBabel11042412293D

 27 30  0  0  1  0  0  0  0  0999 V2000
  183.5400  178.3500  140.5340 C   0  0  1  0  0  3  0  0  0  0  0  0
  185.1100  178.4120  144.0220 C   0  0  0  0  0  3  0  0  0  0  0  0
  183.7260  178.5010  142.0290 C   0  0  0  0  0  0  0  0  0  0  0  0
  184.0150  178.7770  144.8100 C   0  0  0  0  0  0  0  0  0  0  0  0
  182.6300  178.8650  142.8160 C   0  0  0  0  0  3  0  0  0  0  0  0
  184.9690  178.2740  142.6400 C   0  0  0  0  0  3  0  0  0  0  0  0
  182.7700  179.0030  144.1990 C   0  0  0  0  0  3  0  0  0  0  0  0
  185.4210  178.6270  146.8400 C   0  0  0  0  0  1  0  0  0  0  0  0
  184.1880  178.9070  146.1910 O   0  0  0  0  0  0  0  0  0  0  0  0
  181.8870  179.6280  139.4050 C   0  0  0  0  0  1  0  0  0  0  0  0
  182.1390  178.3590  140.0750 N   0  0  0  0  0  0  0  0  0  0  0  0
  182.5470  176.0040  139.5740 C   0  0  0  0  0  2  0  0  0  0  0  0
  180.3230  175.4360  138.8200 N   0  0  0  0  0  1  0  0  0  0  0  0
  181.0670  176.1820  139.8170 C   0  0  2  0  0  3  0  0  0  0  0  0
  181.8590  177.2790  139.1260 C   0  0  1  0  0  3  0  0  0  0  0  0
  184.4020  179.3100  139.7120 C   0  0  0  0  0  2  0  0  0  0  0  0
  187.9210  178.0870  139.3940 N   0  0  0  0  0  0  0  0  0  0  0  0
  186.7380  178.6280  139.6950 N   0  0  0  0  0  0  0  0  0  0  0  0
  189.6780  176.8940  138.3300 N   0  0  0  0  0  1  0  0  0  0  0  0
  185.2420  177.9270  137.8810 C   0  0  0  0  0  3  0  0  0  0  0  0
  186.8810  175.9200  135.4780 C   0  0  0  0  0  3  0  0  0  0  0  0
  186.1000  177.1840  137.1080 C   0  0  0  0  0  0  0  0  0  0  0  0
  185.5360  178.5910  139.0620 C   0  0  0  0  0  0  0  0  0  0  0  0
  187.9300  176.1310  136.3010 N   0  0  0  0  0  0  0  0  0  0  0  0
  188.3170  177.3130  138.3530 C   0  0  0  0  0  0  0  0  0  0  0  0
  187.4940  176.9010  137.3140 C   0  0  0  0  0  0  0  0  0  0  0  0
  185.7370  176.5520  135.9400 C   0  0  0  0  0  3  0  0  0  0  0  0
  1 16  1  6  0  0  0
  1  3  1  0  0  0  0
  2  4  1  0  0  0  0
  3  6  1  0  0  0  0
  3  5  2  0  0  0  0
  4  9  1  0  0  0  0
  5  7  1  0  0  0  0
  6  2  2  0  0  0  0
  7  4  2  0  0  0  0
  9  8  1  0  0  0  0
 10 11  1  0  0  0  0
 11  1  1  0  0  0  0
 12 14  1  0  0  0  0
 14 13  1  6  0  0  0
 15 12  1  0  0  0  0
 15 14  1  0  0  0  0
 15 11  1  1  0  0  0
 17 18  1  0  0  0  0
 19 25  1  0  0  0  0
 20 23  1  0  0  0  0
 21 27  2  0  0  0  0
 21 24  1  0  0  0  0
 22 26  1  0  0  0  0
 22 20  2  0  0  0  0
 23 18  2  0  0  0  0
 23 16  1  0  0  0  0
 24 26  2  0  0  0  0
 25 17  2  0  0  0  0
 26 25  1  0  0  0  0
 27 22  1  0  0  0  0
M  END
>  <MODEL>
3

>  <REMARK>
 VINA RESULT:      -8.2      2.003      3.571
  Name = 
  6 active torsions:
  status: ('A' for Active; 'I' for Inactive)
    1  A    between atoms: C_6  and  C_12
    2  A    between atoms: C_6  and  C_21
    3  A    between atoms: C_7  and  C_12
    4  A    between atoms: C_12  and  N_16
    5  A    between atoms: C_13  and  O_23
    6  A    between atoms: N_16  and  C_20
                            x       y       z     vdW  Elec       q    Type
                         _______ _______ _______ _____ _____    ______ ____

>  <TORSDO>
F 6

$$$$
=
 OpenBabel11042412293D

 27 30  0  0  1  0  0  0  0  0999 V2000
  185.8110  178.1790  142.6360 C   0  0  1  0  0  3  0  0  0  0  0  0
  186.6930  177.5940  146.3120 C   0  0  0  0  0  3  0  0  0  0  0  0
  186.5790  177.8620  143.9020 C   0  0  0  0  0  0  0  0  0  0  0  0
  188.0530  177.2840  146.2230 C   0  0  0  0  0  0  0  0  0  0  0  0
  187.9400  177.5540  143.8120 C   0  0  0  0  0  3  0  0  0  0  0  0
  185.9580  177.8820  145.1600 C   0  0  0  0  0  3  0  0  0  0  0  0
  188.6740  177.2660  144.9640 C   0  0  0  0  0  3  0  0  0  0  0  0
  190.1790  176.9190  147.4340 C   0  0  0  0  0  1  0  0  0  0  0  0
  188.7610  177.0010  147.3950 O   0  0  0  0  0  0  0  0  0  0  0  0
  184.3010  179.6550  143.7230 C   0  0  0  0  0  1  0  0  0  0  0  0
  184.3860  178.5040  142.8340 N   0  0  0  0  0  0  0  0  0  0  0  0
  183.3000  177.5800  140.8510 C   0  0  0  0  0  2  0  0  0  0  0  0
  181.4850  179.1680  140.7000 N   0  0  0  0  0  1  0  0  0  0  0  0
  182.2720  178.3730  141.6240 C   0  0  2  0  0  3  0  0  0  0  0  0
  183.7150  178.8450  141.5790 C   0  0  1  0  0  3  0  0  0  0  0  0
  186.5010  179.2170  141.7480 C   0  0  0  0  0  2  0  0  0  0  0  0
  186.6720  178.1750  138.1620 N   0  0  0  0  0  0  0  0  0  0  0  0
  186.4070  178.6270  139.3890 N   0  0  0  0  0  0  0  0  0  0  0  0
  187.7130  177.1670  136.2790 N   0  0  0  0  0  1  0  0  0  0  0  0
  188.3640  178.0050  140.7310 C   0  0  0  0  0  3  0  0  0  0  0  0
  190.8120  176.2980  138.8380 C   0  0  0  0  0  3  0  0  0  0  0  0
  189.1370  177.3750  139.7870 C   0  0  0  0  0  0  0  0  0  0  0  0
  187.1130  178.5740  140.5490 C   0  0  0  0  0  0  0  0  0  0  0  0
  189.9070  176.4890  137.8550 N   0  0  0  0  0  0  0  0  0  0  0  0
  187.7440  177.5110  137.6610 C   0  0  0  0  0  0  0  0  0  0  0  0
  188.8650  177.1470  138.3950 C   0  0  0  0  0  0  0  0  0  0  0  0
  190.3750  176.8290  140.0420 C   0  0  0  0  0  3  0  0  0  0  0  0
  1 16  1  1  0  0  0
  1 11  1  0  0  0  0
  1  3  1  0  0  0  0
  3  6  1  0  0  0  0
  4  2  1  0  0  0  0
  4  9  1  0  0  0  0
  5  3  2  0  0  0  0
  5  7  1  0  0  0  0
  6  2  2  0  0  0  0
  7  4  2  0  0  0  0
  9  8  1  0  0  0  0
 11 10  1  0  0  0  0
 12 15  1  0  0  0  0
 12 14  1  0  0  0  0
 14 13  1  6  0  0  0
 15 14  1  0  0  0  0
 15 11  1  1  0  0  0
 17 18  1  0  0  0  0
 18 23  2  0  0  0  0
 19 25  1  0  0  0  0
 21 27  2  0  0  0  0
 22 27  1  0  0  0  0
 22 20  2  0  0  0  0
 23 20  1  0  0  0  0
 23 16  1  0  0  0  0
 24 26  2  0  0  0  0
 24 21  1  0  0  0  0
 25 17  2  0  0  0  0
 25 26  1  0  0  0  0
 26 22  1  0  0  0  0
M  END
>  <MODEL>
4

>  <REMARK>
 VINA RESULT:      -7.9      0.998      1.138
  Name = 
  6 active torsions:
  status: ('A' for Active; 'I' for Inactive)
    1  A    between atoms: C_6  and  C_12
    2  A    between atoms: C_6  and  C_21
    3  A    between atoms: C_7  and  C_12
    4  A    between atoms: C_12  and  N_16
    5  A    between atoms: C_13  and  O_23
    6  A    between atoms: N_16  and  C_20
                            x       y       z     vdW  Elec       q    Type
                         _______ _______ _______ _____ _____    ______ ____

>  <TORSDO>
F 6

$$$$
=
 OpenBabel11042412293D

 27 30  0  0  1  0  0  0  0  0999 V2000
  188.5420  177.5710  145.0260 C   0  0  1  0  0  3  0  0  0  0  0  0
  185.2100  178.9950  146.2540 C   0  0  0  0  0  3  0  0  0  0  0  0
  187.1000  178.0300  145.0740 C   0  0  0  0  0  0  0  0  0  0  0  0
  184.4130  178.8500  145.1150 C   0  0  0  0  0  0  0  0  0  0  0  0
  186.3030  177.8830  143.9340 C   0  0  0  0  0  3  0  0  0  0  0  0
  186.5460  178.5880  146.2360 C   0  0  0  0  0  3  0  0  0  0  0  0
  184.9670  178.2900  143.9520 C   0  0  0  0  0  3  0  0  0  0  0  0
  182.1250  178.9060  144.1760 C   0  0  0  0  0  1  0  0  0  0  0  0
  183.0790  179.2670  145.1650 O   0  0  0  0  0  0  0  0  0  0  0  0
  188.2020  176.8000  147.2470 C   0  0  0  0  0  1  0  0  0  0  0  0
  189.1820  177.3860  146.3420 N   0  0  0  0  0  0  0  0  0  0  0  0
  191.5910  177.2780  145.9570 C   0  0  0  0  0  2  0  0  0  0  0  0
  192.1290  175.6710  147.6790 N   0  0  0  0  0  1  0  0  0  0  0  0
  191.3230  176.8380  147.3770 C   0  0  2  0  0  3  0  0  0  0  0  0
  190.3360  176.4880  146.2760 C   0  0  1  0  0  3  0  0  0  0  0  0
  188.7660  176.3580  144.1210 C   0  0  0  0  0  2  0  0  0  0  0  0
  191.7150  176.9030  141.8900 N   0  0  0  0  0  0  0  0  0  0  0  0
  190.8160  176.6520  142.8430 N   0  0  0  0  0  0  0  0  0  0  0  0
  192.7620  177.5070  139.8450 N   0  0  0  0  0  1  0  0  0  0  0  0
  188.6460  177.1530  141.8130 C   0  0  0  0  0  3  0  0  0  0  0  0
  188.9580  178.2410  138.4660 C   0  0  0  0  0  3  0  0  0  0  0  0
  189.0370  177.5420  140.5570 C   0  0  0  0  0  0  0  0  0  0  0  0
  189.4600  176.7500  142.8610 C   0  0  0  0  0  0  0  0  0  0  0  0
  190.2690  178.0580  138.7320 N   0  0  0  0  0  0  0  0  0  0  0  0
  191.5740  177.3390  140.6130 C   0  0  0  0  0  0  0  0  0  0  0  0
  190.3610  177.6300  140.0040 C   0  0  0  0  0  0  0  0  0  0  0  0
  188.1690  177.9340  139.5640 C   0  0  0  0  0  3  0  0  0  0  0  0
  1 16  1  1  0  0  0
  1  3  1  0  0  0  0
  1 11  1  0  0  0  0
  3  6  2  0  0  0  0
  4  9  1  0  0  0  0
  4  2  2  0  0  0  0
  5  7  2  0  0  0  0
  5  3  1  0  0  0  0
  6  2  1  0  0  0  0
  7  4  1  0  0  0  0
  8  9  1  0  0  0  0
 11 10  1  0  0  0  0
 12 15  1  0  0  0  0
 12 14  1  0  0  0  0
 14 13  1  6  0  0  0
 15 11  1  1  0  0  0
 15 14  1  0  0  0  0
 17 18  1  0  0  0  0
 18 23  2  0  0  0  0
 19 25  1  0  0  0  0
 20 23  1  0  0  0  0
 21 24  1  0  0  0  0
 21 27  2  0  0  0  0
 22 20  2  0  0  0  0
 23 16  1  0  0  0  0
 24 26  2  0  0  0  0
 25 17  2  0  0  0  0
 26 22  1  0  0  0  0
 26 25  1  0  0  0  0
 27 22  1  0  0  0  0
M  END
>  <MODEL>
5

>  <REMARK>
 VINA RESULT:      -7.8      3.118      5.804
  Name = 
  6 active torsions:
  status: ('A' for Active; 'I' for Inactive)
    1  A    between atoms: C_6  and  C_12
    2  A    between atoms: C_6  and  C_21
    3  A    between atoms: C_7  and  C_12
    4  A    between atoms: C_12  and  N_16
    5  A    between atoms: C_13  and  O_23
    6  A    between atoms: N_16  and  C_20
                            x       y       z     vdW  Elec       q    Type
                         _______ _______ _______ _____ _____    ______ ____

>  <TORSDO>
F 6

$$$$
=
 OpenBabel11042412293D

 27 30  0  0  1  0  0  0  0  0999 V2000
  183.9610  178.3110  140.6370 C   0  0  1  0  0  3  0  0  0  0  0  0
  183.1230  178.9910  144.3070 C   0  0  0  0  0  3  0  0  0  0  0  0
  184.0790  178.4620  142.1390 C   0  0  0  0  0  0  0  0  0  0  0  0
  184.3550  178.7450  144.9210 C   0  0  0  0  0  0  0  0  0  0  0  0
  185.3110  178.2170  142.7520 C   0  0  0  0  0  3  0  0  0  0  0  0
  182.9830  178.8510  142.9250 C   0  0  0  0  0  3  0  0  0  0  0  0
  185.4510  178.3570  144.1340 C   0  0  0  0  0  3  0  0  0  0  0  0
  185.6750  178.6660  147.0110 C   0  0  0  0  0  1  0  0  0  0  0  0
  184.4620  178.8940  146.3070 O   0  0  0  0  0  0  0  0  0  0  0  0
  182.4590  179.6930  139.4210 C   0  0  0  0  0  1  0  0  0  0  0  0
  182.5890  178.4120  140.1050 N   0  0  0  0  0  0  0  0  0  0  0  0
  182.3140  176.0010  139.8380 C   0  0  0  0  0  2  0  0  0  0  0  0
  180.4070  176.0480  138.3540 N   0  0  0  0  0  1  0  0  0  0  0  0
  180.9900  176.6610  139.5340 C   0  0  2  0  0  3  0  0  0  0  0  0
  182.2870  177.3500  139.1450 C   0  0  1  0  0  3  0  0  0  0  0  0
  184.9290  179.2020  139.8570 C   0  0  0  0  0  2  0  0  0  0  0  0
  186.4000  177.1250  137.1190 N   0  0  0  0  0  0  0  0  0  0  0  0
  185.6880  177.8670  137.9690 N   0  0  0  0  0  0  0  0  0  0  0  0
  188.1340  175.8700  136.0880 N   0  0  0  0  0  1  0  0  0  0  0  0
  187.1870  178.2670  139.8700 C   0  0  0  0  0  3  0  0  0  0  0  0
  190.3500  176.7520  139.4370 C   0  0  0  0  0  3  0  0  0  0  0  0
  188.3110  177.5930  139.4610 C   0  0  0  0  0  0  0  0  0  0  0  0
  185.9860  178.3890  139.1890 C   0  0  0  0  0  0  0  0  0  0  0  0
  189.7880  176.3600  138.2740 N   0  0  0  0  0  0  0  0  0  0  0  0
  187.6670  176.6450  137.1880 C   0  0  0  0  0  0  0  0  0  0  0  0
  188.5380  176.8550  138.2490 C   0  0  0  0  0  0  0  0  0  0  0  0
  189.4730  177.5120  140.1950 C   0  0  0  0  0  3  0  0  0  0  0  0
  1 16  1  6  0  0  0
  1  3  1  0  0  0  0
  2  4  1  0  0  0  0
  3  5  2  0  0  0  0
  3  6  1  0  0  0  0
  4  9  1  0  0  0  0
  5  7  1  0  0  0  0
  6  2  2  0  0  0  0
  7  4  2  0  0  0  0
  9  8  1  0  0  0  0
 10 11  1  0  0  0  0
 11  1  1  0  0  0  0
 14 13  1  6  0  0  0
 14 12  1  0  0  0  0
 15 14  1  0  0  0  0
 15 12  1  0  0  0  0
 15 11  1  1  0  0  0
 17 25  2  0  0  0  0
 17 18  1  0  0  0  0
 18 23  2  0  0  0  0
 19 25  1  0  0  0  0
 21 27  2  0  0  0  0
 22 20  2  0  0  0  0
 22 27  1  0  0  0  0
 23 16  1  0  0  0  0
 23 20  1  0  0  0  0
 24 21  1  0  0  0  0
 25 26  1  0  0  0  0
 26 24  2  0  0  0  0
 26 22  1  0  0  0  0
M  END
>  <MODEL>
6

>  <REMARK>
 VINA RESULT:      -7.8      1.665      2.518
  Name = 
  6 active torsions:
  status: ('A' for Active; 'I' for Inactive)
    1  A    between atoms: C_6  and  C_12
    2  A    between atoms: C_6  and  C_21
    3  A    between atoms: C_7  and  C_12
    4  A    between atoms: C_12  and  N_16
    5  A    between atoms: C_13  and  O_23
    6  A    between atoms: N_16  and  C_20
                            x       y       z     vdW  Elec       q    Type
                         _______ _______ _______ _____ _____    ______ ____

>  <TORSDO>
F 6

$$$$
=
 OpenBabel11042412293D

 27 30  0  0  1  0  0  0  0  0999 V2000
  187.8930  177.4170  142.6850 C   0  0  1  0  0  3  0  0  0  0  0  0
  190.1320  177.8200  145.7600 C   0  0  0  0  0  3  0  0  0  0  0  0
  189.0170  177.2380  143.6830 C   0  0  0  0  0  0  0  0  0  0  0  0
  191.1340  176.8820  145.4960 C   0  0  0  0  0  0  0  0  0  0  0  0
  190.0190  176.3000  143.4180 C   0  0  0  0  0  3  0  0  0  0  0  0
  189.0790  177.9990  144.8610 C   0  0  0  0  0  3  0  0  0  0  0  0
  191.0720  176.1210  144.3170 C   0  0  0  0  0  3  0  0  0  0  0  0
  192.1950  175.6860  147.3840 C   0  0  0  0  0  1  0  0  0  0  0  0
  192.1750  176.7260  146.4160 O   0  0  0  0  0  0  0  0  0  0  0  0
  186.6530  177.1180  144.6880 C   0  0  0  0  0  1  0  0  0  0  0  0
  186.5340  177.3430  143.2530 N   0  0  0  0  0  0  0  0  0  0  0  0
  184.6250  178.3270  142.0920 C   0  0  0  0  0  2  0  0  0  0  0  0
  183.8220  179.7170  143.8980 N   0  0  0  0  0  1  0  0  0  0  0  0
  184.3650  178.4100  143.5780 C   0  0  2  0  0  3  0  0  0  0  0  0
  185.7780  178.5780  143.0460 C   0  0  1  0  0  3  0  0  0  0  0  0
  188.0590  178.6500  141.7940 C   0  0  0  0  0  2  0  0  0  0  0  0
  187.1570  178.3020  138.1830 N   0  0  0  0  0  0  0  0  0  0  0  0
  187.2700  178.5100  139.4960 N   0  0  0  0  0  0  0  0  0  0  0  0
  187.5800  177.6900  135.9270 N   0  0  0  0  0  1  0  0  0  0  0  0
  189.5120  177.6970  140.0750 C   0  0  0  0  0  3  0  0  0  0  0  0
  191.2580  176.4380  137.2730 C   0  0  0  0  0  3  0  0  0  0  0  0
  189.9610  177.2750  138.8490 C   0  0  0  0  0  0  0  0  0  0  0  0
  188.2790  178.2590  140.3720 C   0  0  0  0  0  0  0  0  0  0  0  0
  190.1130  176.7860  136.6460 N   0  0  0  0  0  0  0  0  0  0  0  0
  188.0190  177.7710  137.2790 C   0  0  0  0  0  0  0  0  0  0  0  0
  189.2920  177.3040  137.5770 C   0  0  0  0  0  0  0  0  0  0  0  0
  191.2020  176.7230  138.6290 C   0  0  0  0  0  3  0  0  0  0  0  0
  1 16  1  1  0  0  0
  1 11  1  0  0  0  0
  1  3  1  0  0  0  0
  3  6  1  0  0  0  0
  4  2  1  0  0  0  0
  4  9  1  0  0  0  0
  5  3  2  0  0  0  0
  5  7  1  0  0  0  0
  6  2  2  0  0  0  0
  7  4  2  0  0  0  0
  9  8  1  0  0  0  0
 11 10  1  0  0  0  0
 12 15  1  0  0  0  0
 12 14  1  0  0  0  0
 14 13  1  6  0  0  0
 15 11  1  1  0  0  0
 15 14  1  0  0  0  0
 17 18  1  0  0  0  0
 18 23  2  0  0  0  0
 19 25  1  0  0  0  0
 20 23  1  0  0  0  0
 21 27  2  0  0  0  0
 22 20  2  0  0  0  0
 23 16  1  0  0  0  0
 24 21  1  0  0  0  0
 24 26  2  0  0  0  0
 25 26  1  0  0  0  0
 25 17  2  0  0  0  0
 26 22  1  0  0  0  0
 27 22  1  0  0  0  0
M  END
>  <MODEL>
7

>  <REMARK>
 VINA RESULT:      -7.8      2.295      3.238
  Name = 
  6 active torsions:
  status: ('A' for Active; 'I' for Inactive)
    1  A    between atoms: C_6  and  C_12
    2  A    between atoms: C_6  and  C_21
    3  A    between atoms: C_7  and  C_12
    4  A    between atoms: C_12  and  N_16
    5  A    between atoms: C_13  and  O_23
    6  A    between atoms: N_16  and  C_20
                            x       y       z     vdW  Elec       q    Type
                         _______ _______ _______ _____ _____    ______ ____

>  <TORSDO>
F 6

$$$$
=
 OpenBabel11042412293D

 27 30  0  0  1  0  0  0  0  0999 V2000
  189.2290  177.7900  141.6850 C   0  0  1  0  0  3  0  0  0  0  0  0
  191.1860  176.3430  138.7330 C   0  0  0  0  0  3  0  0  0  0  0  0
  190.3560  177.4240  140.7430 C   0  0  0  0  0  0  0  0  0  0  0  0
  192.4870  176.7530  139.0380 C   0  0  0  0  0  0  0  0  0  0  0  0
  191.6570  177.8340  141.0490 C   0  0  0  0  0  3  0  0  0  0  0  0
  190.1250  176.6740  139.5790 C   0  0  0  0  0  3  0  0  0  0  0  0
  192.7180  177.5030  140.2030 C   0  0  0  0  0  3  0  0  0  0  0  0
  193.7000  175.0870  137.6700 C   0  0  0  0  0  1  0  0  0  0  0  0
  193.5270  176.4050  138.1710 O   0  0  0  0  0  0  0  0  0  0  0  0
  188.1480  178.2530  139.6210 C   0  0  0  0  0  1  0  0  0  0  0  0
  188.0940  178.4930  141.0570 N   0  0  0  0  0  0  0  0  0  0  0  0
  186.2530  178.9800  142.5850 C   0  0  0  0  0  2  0  0  0  0  0  0
  184.4370  178.3070  141.1390 N   0  0  0  0  0  1  0  0  0  0  0  0
  185.7110  179.0020  141.1750 C   0  0  2  0  0  3  0  0  0  0  0  0
  186.8030  178.0150  141.5520 C   0  0  1  0  0  3  0  0  0  0  0  0
  188.7520  176.6210  142.5490 C   0  0  0  0  0  2  0  0  0  0  0  0
  191.3050  176.4630  145.2750 N   0  0  0  0  0  0  0  0  0  0  0  0
  190.5590  176.4400  144.1690 N   0  0  0  0  0  0  0  0  0  0  0  0
  192.0550  176.7190  147.5150 N   0  0  0  0  0  1  0  0  0  0  0  0
  188.3390  177.2000  144.8870 C   0  0  0  0  0  3  0  0  0  0  0  0
  188.2190  177.9500  148.3380 C   0  0  0  0  0  3  0  0  0  0  0  0
  188.5580  177.4170  146.2250 C   0  0  0  0  0  0  0  0  0  0  0  0
  189.2530  176.7490  143.9480 C   0  0  0  0  0  0  0  0  0  0  0  0
  189.5150  177.5770  148.2670 N   0  0  0  0  0  0  0  0  0  0  0  0
  191.0080  176.8090  146.5530 C   0  0  0  0  0  0  0  0  0  0  0  0
  189.7630  177.2420  146.9880 C   0  0  0  0  0  0  0  0  0  0  0  0
  187.5970  177.8660  147.1020 C   0  0  0  0  0  3  0  0  0  0  0  0
  1 16  1  6  0  0  0
  2  4  2  0  0  0  0
  2  6  1  0  0  0  0
  3  5  1  0  0  0  0
  3  1  1  0  0  0  0
  4  7  1  0  0  0  0
  6  3  2  0  0  0  0
  7  5  2  0  0  0  0
  8  9  1  0  0  0  0
  9  4  1  0  0  0  0
 10 11  1  0  0  0  0
 11  1  1  0  0  0  0
 14 13  1  1  0  0  0
 14 15  1  0  0  0  0
 14 12  1  0  0  0  0
 15 11  1  6  0  0  0
 15 12  1  0  0  0  0
 16 23  1  0  0  0  0
 17 25  1  0  0  0  0
 18 17  2  0  0  0  0
 20 22  1  0  0  0  0
 22 26  1  0  0  0  0
 22 27  2  0  0  0  0
 23 18  1  0  0  0  0
 23 20  2  0  0  0  0
 24 21  2  0  0  0  0
 25 26  2  0  0  0  0
 25 19  1  0  0  0  0
 26 24  1  0  0  0  0
 27 21  1  0  0  0  0
M  END
>  <MODEL>
8

>  <REMARK>
 VINA RESULT:      -7.7      3.993      7.447
  Name = 
  6 active torsions:
  status: ('A' for Active; 'I' for Inactive)
    1  A    between atoms: C_6  and  C_12
    2  A    between atoms: C_6  and  C_21
    3  A    between atoms: C_7  and  C_12
    4  A    between atoms: C_12  and  N_16
    5  A    between atoms: C_13  and  O_23
    6  A    between atoms: N_16  and  C_20
                            x       y       z     vdW  Elec       q    Type
                         _______ _______ _______ _____ _____    ______ ____

>  <TORSDO>
F 6

$$$$
=
 OpenBabel11042412293D

 27 30  0  0  1  0  0  0  0  0999 V2000
  182.8420  178.4880  140.7030 C   0  0  1  0  0  3  0  0  0  0  0  0
  182.6510  179.0540  144.4810 C   0  0  0  0  0  3  0  0  0  0  0  0
  183.2140  178.5780  142.1670 C   0  0  0  0  0  0  0  0  0  0  0  0
  183.9580  178.7480  144.8720 C   0  0  0  0  0  0  0  0  0  0  0  0
  184.5210  178.2730  142.5570 C   0  0  0  0  0  3  0  0  0  0  0  0
  182.2790  178.9700  143.1380 C   0  0  0  0  0  3  0  0  0  0  0  0
  184.8940  178.3560  143.9000 C   0  0  0  0  0  3  0  0  0  0  0  0
  185.6440  178.9640  146.6700 C   0  0  0  0  0  1  0  0  0  0  0  0
  184.3000  178.8410  146.2240 O   0  0  0  0  0  0  0  0  0  0  0  0
  182.6830  176.4190  139.5470 C   0  0  0  0  0  1  0  0  0  0  0  0
  183.5990  177.4870  139.9270 N   0  0  0  0  0  0  0  0  0  0  0  0
  184.5620  179.5000  138.9350 C   0  0  0  0  0  2  0  0  0  0  0  0
  186.3310  178.4350  137.6800 N   0  0  0  0  0  1  0  0  0  0  0  0
  185.6260  178.4270  138.9480 C   0  0  2  0  0  3  0  0  0  0  0  0
  184.1740  178.0510  138.7050 C   0  0  1  0  0  3  0  0  0  0  0  0
  181.3370  178.3580  140.4620 C   0  0  0  0  0  2  0  0  0  0  0  0
  179.7100  181.6960  140.0230 N   0  0  0  0  0  0  0  0  0  0  0  0
  180.2470  180.5330  140.4000 N   0  0  0  0  0  0  0  0  0  0  0  0
  178.9310  183.5390  138.7430 N   0  0  0  0  0  1  0  0  0  0  0  0
  180.9870  179.4730  138.3150 C   0  0  0  0  0  3  0  0  0  0  0  0
  180.3010  181.4560  135.4730 C   0  0  0  0  0  3  0  0  0  0  0  0
  180.6140  180.4190  137.3940 C   0  0  0  0  0  0  0  0  0  0  0  0
  180.8160  179.5230  139.6900 C   0  0  0  0  0  0  0  0  0  0  0  0
  179.7940  182.2830  136.4120 N   0  0  0  0  0  0  0  0  0  0  0  0
  179.5570  182.2610  138.7990 C   0  0  0  0  0  0  0  0  0  0  0  0
  179.9660  181.6850  137.6040 C   0  0  0  0  0  0  0  0  0  0  0  0
  180.8150  180.2990  136.0380 C   0  0  0  0  0  3  0  0  0  0  0  0
  1 16  1  1  0  0  0
  1  3  1  0  0  0  0
  2  4  1  0  0  0  0
  3  5  2  0  0  0  0
  3  6  1  0  0  0  0
  4  9  1  0  0  0  0
  5  7  1  0  0  0  0
  6  2  2  0  0  0  0
  7  4  2  0  0  0  0
  9  8  1  0  0  0  0
 10 11  1  0  0  0  0
 11  1  1  0  0  0  0
 12 14  1  0  0  0  0
 14 13  1  6  0  0  0
 15 12  1  0  0  0  0
 15 14  1  0  0  0  0
 15 11  1  1  0  0  0
 17 18  1  0  0  0  0
 19 25  1  0  0  0  0
 20 23  1  0  0  0  0
 21 27  2  0  0  0  0
 21 24  1  0  0  0  0
 22 26  1  0  0  0  0
 22 20  2  0  0  0  0
 23 18  2  0  0  0  0
 23 16  1  0  0  0  0
 24 26  2  0  0  0  0
 25 17  2  0  0  0  0
 26 25  1  0  0  0  0
 27 22  1  0  0  0  0
M  END
>  <MODEL>
9

>  <REMARK>
 VINA RESULT:      -7.6      3.288      6.780
  Name = 
  6 active torsions:
  status: ('A' for Active; 'I' for Inactive)
    1  A    between atoms: C_6  and  C_12
    2  A    between atoms: C_6  and  C_21
    3  A    between atoms: C_7  and  C_12
    4  A    between atoms: C_12  and  N_16
    5  A    between atoms: C_13  and  O_23
    6  A    between atoms: N_16  and  C_20
                            x       y       z     vdW  Elec       q    Type
                         _______ _______ _______ _____ _____    ______ ____

>  <TORSDO>
F 6

$$$$
