=
 OpenBabel11032421133D

 50 58  0  0  1  0  0  0  0  0999 V2000
  188.1260  178.3570  139.4550 C   0  0  1  0  0  3  0  0  0  0  0  0
  182.8890  178.7930  139.8670 C   0  0  0  0  0  3  0  0  0  0  0  0
  186.0560  176.3450  137.2130 C   0  0  0  0  0  3  0  0  0  0  0  0
  180.6720  176.0450  138.5670 N   0  0  0  0  0  2  0  0  0  0  0  0
  185.2250  179.0790  139.1770 N   0  0  0  0  0  0  0  0  0  0  0  0
  183.9820  178.5710  139.0380 C   0  0  0  0  0  0  0  0  0  0  0  0
  187.4080  176.7060  137.7010 N   0  0  0  0  0  0  0  0  0  0  0  0
  182.8970  176.7350  137.9480 N   0  0  0  0  0  0  0  0  0  0  0  0
  181.7840  176.9300  138.7170 C   0  0  0  0  0  0  0  0  0  0  0  0
  183.9470  177.5840  138.0850 C   0  0  0  0  0  0  0  0  0  0  0  0
  185.9300  178.4160  138.2250 C   0  0  0  0  0  0  0  0  0  0  0  0
  185.2000  177.5140  137.5410 C   0  0  0  0  0  0  0  0  0  0  0  0
  187.2550  177.9500  138.3570 N   0  0  0  0  0  0  0  0  0  0  0  0
  181.7610  177.9690  139.6850 C   0  0  0  0  0  2  0  0  0  0  0  0
  179.4590  176.1570  139.3650 C   0  0  0  0  0  2  0  0  0  0  0  0
  179.5250  175.1700  140.5180 C   0  0  0  0  0  2  0  0  0  0  0  0
  179.4820  173.8740  140.0410 F   0  0  0  0  0  0  0  0  0  0  0  0
  187.3430  178.4060  141.7420 C   0  0  2  0  0  3  0  0  0  0  0  0
  187.8070  177.5780  140.7340 C   0  0  2  0  0  3  0  0  0  0  0  0
  190.0630  178.0040  142.4090 C   0  0  0  0  0  0  0  0  0  0  0  0
  188.7770  177.9880  141.7990 N   0  0  0  0  0  0  0  0  0  0  0  0
  190.9940  177.3050  141.9300 O   0  0  0  0  0  0  0  0  0  0  0  0
  186.5490  177.6090  142.7610 C   0  0  1  0  0  3  0  0  0  0  0  0
  185.9840  178.5360  143.8240 C   0  0  2  0  0  3  0  0  0  0  0  0
  185.0840  178.0150  142.7290 C   0  0  1  0  0  3  0  0  0  0  0  0
  184.9310  179.4400  143.2140 C   0  0  0  0  0  2  0  0  0  0  0  0
  190.2860  178.8170  143.6390 C   0  0  0  0  0  2  0  0  0  0  0  0
  191.7400  178.7360  144.0610 C   0  0  0  0  0  2  0  0  0  0  0  0
  191.8210  178.2400  145.3930 O   0  0  0  0  0  0  0  0  0  0  0  0
  191.6190  176.8900  145.6840 C   0  0  0  0  0  0  0  0  0  0  0  0
  191.7940  176.0020  144.8020 O   0  0  0  0  0  0  0  0  0  0  0  0
  191.2250  176.4950  147.0710 C   0  0  2  0  0  0  0  0  0  0  0  0
  192.2850  176.1650  148.0450 C   0  0  0  0  0  2  0  0  0  0  0  0
  191.5830  175.1620  147.3400 O   0  0  0  0  0  0  0  0  0  0  0  0
  189.8270  176.8000  147.5870 C   0  0  0  0  0  2  0  0  0  0  0  0
  188.8700  177.1010  146.4420 C   0  0  0  0  0  2  0  0  0  0  0  0
  187.9620  177.8930  148.2880 C   0  0  0  0  0  1  0  0  0  0  0  0
  187.8040  177.8740  146.9040 O   0  0  0  0  0  0  0  0  0  0  0  0
  189.5540  178.1580  139.0670 C   0  0  0  0  0  3  0  0  0  0  0  0
  190.0070  176.9690  138.6770 C   0  0  0  0  0  3  0  0  0  0  0  0
  191.3730  176.7750  138.3040 N   0  0  0  0  0  0  0  0  0  0  0  0
  192.4320  176.9530  139.1170 C   0  0  0  0  0  3  0  0  0  0  0  0
  191.8450  176.3780  137.1080 C   0  0  0  0  0  3  0  0  0  0  0  0
  193.2140  176.3310  137.2360 C   0  0  0  0  0  0  0  0  0  0  0  0
  193.5930  176.6800  138.4830 N   0  0  0  0  0  0  0  0  0  0  0  0
  194.8480  174.6140  136.5670 C   0  0  0  0  0  2  0  0  0  0  0  0
  194.1520  175.8860  136.1650 C   0  0  2  0  0  3  0  0  0  0  0  0
  196.2540  174.8910  136.1480 C   0  0  0  0  0  2  0  0  0  0  0  0
  195.1430  176.8540  135.9450 O   0  0  0  0  0  0  0  0  0  0  0  0
  196.2090  176.1660  135.4490 N   0  0  0  0  0  2  0  0  0  0  0  0
  1 39  1  6  0  0  0
  3 12  1  0  0  0  0
  3  7  2  0  0  0  0
  4  9  1  0  0  0  0
  4 15  1  0  0  0  0
  6  5  1  0  0  0  0
  6  2  2  0  0  0  0
  7 13  1  0  0  0  0
  8 10  1  0  0  0  0
  8  9  2  0  0  0  0
  9 14  1  0  0  0  0
 10  6  1  0  0  0  0
 11 13  1  0  0  0  0
 11  5  2  0  0  0  0
 12 10  2  0  0  0  0
 12 11  1  0  0  0  0
 13  1  1  0  0  0  0
 14  2  1  0  0  0  0
 15 16  1  0  0  0  0
 17 16  1  0  0  0  0
 18 21  1  1  0  0  0
 19  1  1  6  0  0  0
 19 18  1  0  0  0  0
 19 21  1  0  0  0  0
 20 27  1  0  0  0  0
 21 20  1  0  0  0  0
 22 20  2  0  0  0  0
 23 18  1  6  0  0  0
 23 24  1  0  0  0  0
 24 26  1  6  0  0  0
 25 23  1  0  0  0  0
 25 26  1  6  0  0  0
 25 24  1  0  0  0  0
 27 28  1  0  0  0  0
 28 29  1  0  0  0  0
 29 30  1  0  0  0  0
 30 32  1  0  0  0  0
 31 30  2  0  0  0  0
 32 34  1  0  0  0  0
 32 35  1  1  0  0  0
 32 33  1  0  0  0  0
 34 33  1  0  0  0  0
 36 38  1  0  0  0  0
 36 35  1  0  0  0  0
 38 37  1  0  0  0  0
 40 39  2  0  0  0  0
 41 40  1  0  0  0  0
 41 42  1  0  0  0  0
 43 44  2  0  0  0  0
 43 41  1  0  0  0  0
 44 45  1  0  0  0  0
 45 42  2  0  0  0  0
 47 46  1  0  0  0  0
 47 44  1  1  0  0  0
 48 46  1  0  0  0  0
 49 47  1  0  0  0  0
 50 49  1  0  0  0  0
 50 48  1  0  0  0  0
M  END
>  <MODEL>
1

>  <REMARK>
 VINA RESULT:      -8.1      0.000      0.000
  Name = 
  16 active torsions:
  status: ('A' for Active; 'I' for Inactive)
    1  A    between atoms: C_3  and  C_18
    2  A    between atoms: C_3  and  O_21
    3  A    between atoms: N_4  and  C_41
    4  A    between atoms: N_5  and  C_9
    5  A    between atoms: C_7  and  C_18
    6  A    between atoms: C_7  and  C_29
    7  A    between atoms: C_8  and  C_11
    8  A    between atoms: C_9  and  C_32
    9  A    between atoms: C_13  and  C_19
   10  A    between atoms: C_13  and  C_43
   11  A    between atoms: C_15  and  C_44
   12  A    between atoms: C_17  and  C_22
   13  A    between atoms: O_21  and  C_43
   14  A    between atoms: C_29  and  O_35
   15  A    between atoms: C_40  and  C_44
   16  A    between atoms: C_44  and  N_49
                            x       y       z     vdW  Elec       q    Type
                         _______ _______ _______ _____ _____    ______ ____

>  <TORSDO>
F 16

$$$$
=
 OpenBabel11032421133D

 50 58  0  0  1  0  0  0  0  0999 V2000
  186.9630  177.8700  138.7580 C   0  0  1  0  0  3  0  0  0  0  0  0
  189.8960  173.7970  137.1430 C   0  0  0  0  0  3  0  0  0  0  0  0
  189.3940  178.4570  136.0930 C   0  0  0  0  0  3  0  0  0  0  0  0
  193.1480  174.4220  135.3590 N   0  0  0  0  0  2  0  0  0  0  0  0
  188.1280  175.4850  137.3540 N   0  0  0  0  0  0  0  0  0  0  0  0
  189.2560  174.9840  136.8060 C   0  0  0  0  0  0  0  0  0  0  0  0
  188.3740  179.0070  137.0160 N   0  0  0  0  0  0  0  0  0  0  0  0
  191.1490  175.7540  135.5570 N   0  0  0  0  0  0  0  0  0  0  0  0
  191.8110  174.5900  135.8340 C   0  0  0  0  0  0  0  0  0  0  0  0
  189.8750  175.9060  136.0010 C   0  0  0  0  0  0  0  0  0  0  0  0
  188.0450  176.7200  136.7960 C   0  0  0  0  0  0  0  0  0  0  0  0
  189.0700  177.0120  135.9730 C   0  0  0  0  0  0  0  0  0  0  0  0
  187.6200  177.8930  137.4540 N   0  0  0  0  0  0  0  0  0  0  0  0
  191.1890  173.5900  136.6280 C   0  0  0  0  0  2  0  0  0  0  0  0
  193.9400  173.2310  135.6330 C   0  0  0  0  0  2  0  0  0  0  0  0
  194.8110  173.4780  136.8530 C   0  0  0  0  0  2  0  0  0  0  0  0
  195.9650  172.7230  136.7760 F   0  0  0  0  0  0  0  0  0  0  0  0
  188.3630  177.5140  140.6960 C   0  0  2  0  0  3  0  0  0  0  0  0
  187.8580  178.4780  139.8400 C   0  0  2  0  0  3  0  0  0  0  0  0
  186.1960  178.6190  142.1420 C   0  0  0  0  0  0  0  0  0  0  0  0
  187.1870  178.3070  141.1690 N   0  0  0  0  0  0  0  0  0  0  0  0
  185.3920  179.5660  141.9370 O   0  0  0  0  0  0  0  0  0  0  0  0
  189.6160  178.0200  141.3870 C   0  0  1  0  0  3  0  0  0  0  0  0
  189.6590  177.5230  142.8220 C   0  0  2  0  0  3  0  0  0  0  0  0
  190.5160  176.8570  141.7730 C   0  0  1  0  0  3  0  0  0  0  0  0
  189.8500  176.0200  142.8430 C   0  0  0  0  0  2  0  0  0  0  0  0
  186.1460  177.8490  143.4180 C   0  0  0  0  0  2  0  0  0  0  0  0
  185.4710  178.6720  144.4980 C   0  0  0  0  0  2  0  0  0  0  0  0
  185.5800  177.9970  145.7470 O   0  0  0  0  0  0  0  0  0  0  0  0
  186.2980  178.5420  146.8130 C   0  0  0  0  0  0  0  0  0  0  0  0
  185.8810  179.5710  147.4170 O   0  0  0  0  0  0  0  0  0  0  0  0
  187.5550  177.8720  147.2630 C   0  0  2  0  0  0  0  0  0  0  0  0
  187.7120  177.5390  148.6930 C   0  0  0  0  0  2  0  0  0  0  0  0
  188.2880  178.7000  148.1320 O   0  0  0  0  0  0  0  0  0  0  0  0
  188.4690  177.1970  146.2510 C   0  0  0  0  0  2  0  0  0  0  0  0
  189.9190  177.6150  146.4560 C   0  0  0  0  0  2  0  0  0  0  0  0
  191.7680  176.4680  146.1020 C   0  0  0  0  0  1  0  0  0  0  0  0
  190.6600  176.5390  146.9440 O   0  0  0  0  0  0  0  0  0  0  0  0
  185.6650  178.6030  138.6820 C   0  0  0  0  0  3  0  0  0  0  0  0
  184.5020  177.9730  138.8300 C   0  0  0  0  0  3  0  0  0  0  0  0
  183.2580  178.6730  138.7580 N   0  0  0  0  0  0  0  0  0  0  0  0
  182.0450  178.0910  138.6870 C   0  0  0  0  0  3  0  0  0  0  0  0
  183.0680  180.0040  138.7610 C   0  0  0  0  0  3  0  0  0  0  0  0
  181.7080  180.1950  138.6840 C   0  0  0  0  0  0  0  0  0  0  0  0
  181.0580  179.0120  138.6450 N   0  0  0  0  0  0  0  0  0  0  0  0
  179.7440  181.4810  137.9370 C   0  0  0  0  0  2  0  0  0  0  0  0
  181.0330  181.5250  138.7120 C   0  0  2  0  0  3  0  0  0  0  0  0
  179.8030  182.7640  137.1760 C   0  0  0  0  0  2  0  0  0  0  0  0
  181.8460  182.5020  138.1190 O   0  0  0  0  0  0  0  0  0  0  0  0
  180.9840  183.4560  137.6680 N   0  0  0  0  0  2  0  0  0  0  0  0
  1 39  1  6  0  0  0
  3  7  2  0  0  0  0
  4 15  1  0  0  0  0
  4  9  1  0  0  0  0
  6  2  2  0  0  0  0
  6  5  1  0  0  0  0
  7 13  1  0  0  0  0
  8  9  2  0  0  0  0
  8 10  1  0  0  0  0
  9 14  1  0  0  0  0
 10  6  1  0  0  0  0
 11  5  2  0  0  0  0
 11 13  1  0  0  0  0
 12 10  2  0  0  0  0
 12  3  1  0  0  0  0
 12 11  1  0  0  0  0
 13  1  1  0  0  0  0
 14  2  1  0  0  0  0
 15 16  1  0  0  0  0
 17 16  1  0  0  0  0
 18 21  1  1  0  0  0
 19  1  1  6  0  0  0
 19 18  1  0  0  0  0
 19 21  1  0  0  0  0
 20 27  1  0  0  0  0
 21 20  1  0  0  0  0
 22 20  2  0  0  0  0
 23 18  1  6  0  0  0
 23 25  1  0  0  0  0
 23 24  1  0  0  0  0
 24 26  1  6  0  0  0
 25 24  1  0  0  0  0
 25 26  1  6  0  0  0
 27 28  1  0  0  0  0
 28 29  1  0  0  0  0
 29 30  1  0  0  0  0
 30 32  1  0  0  0  0
 30 31  2  0  0  0  0
 32 35  1  6  0  0  0
 32 34  1  0  0  0  0
 32 33  1  0  0  0  0
 34 33  1  0  0  0  0
 35 36  1  0  0  0  0
 36 38  1  0  0  0  0
 37 38  1  0  0  0  0
 39 40  2  0  0  0  0
 41 43  1  0  0  0  0
 41 40  1  0  0  0  0
 42 41  1  0  0  0  0
 44 43  2  0  0  0  0
 45 44  1  0  0  0  0
 45 42  2  0  0  0  0
 46 47  1  0  0  0  0
 47 44  1  6  0  0  0
 48 50  1  0  0  0  0
 48 46  1  0  0  0  0
 49 47  1  0  0  0  0
 50 49  1  0  0  0  0
M  END
>  <MODEL>
2

>  <REMARK>
 VINA RESULT:      -7.7      3.752      8.810
  Name = 
  16 active torsions:
  status: ('A' for Active; 'I' for Inactive)
    1  A    between atoms: C_3  and  C_18
    2  A    between atoms: C_3  and  O_21
    3  A    between atoms: N_4  and  C_41
    4  A    between atoms: N_5  and  C_9
    5  A    between atoms: C_7  and  C_18
    6  A    between atoms: C_7  and  C_29
    7  A    between atoms: C_8  and  C_11
    8  A    between atoms: C_9  and  C_32
    9  A    between atoms: C_13  and  C_19
   10  A    between atoms: C_13  and  C_43
   11  A    between atoms: C_15  and  C_44
   12  A    between atoms: C_17  and  C_22
   13  A    between atoms: O_21  and  C_43
   14  A    between atoms: C_29  and  O_35
   15  A    between atoms: C_40  and  C_44
   16  A    between atoms: C_44  and  N_49
                            x       y       z     vdW  Elec       q    Type
                         _______ _______ _______ _____ _____    ______ ____

>  <TORSDO>
F 16

$$$$
=
 OpenBabel11032421133D

 50 58  0  0  1  0  0  0  0  0999 V2000
  189.6860  176.1340  137.8680 C   0  0  1  0  0  3  0  0  0  0  0  0
  191.1200  176.4020  142.9340 C   0  0  0  0  0  3  0  0  0  0  0  0
  187.7360  178.2810  140.0920 C   0  0  0  0  0  3  0  0  0  0  0  0
  188.6390  177.5320  145.5260 N   0  0  0  0  0  2  0  0  0  0  0  0
  190.8630  176.8500  140.5360 N   0  0  0  0  0  0  0  0  0  0  0  0
  190.5710  177.0570  141.8380 C   0  0  0  0  0  0  0  0  0  0  0  0
  187.9230  177.6980  138.7420 N   0  0  0  0  0  0  0  0  0  0  0  0
  188.8040  177.9830  143.1640 N   0  0  0  0  0  0  0  0  0  0  0  0
  189.3230  177.3860  144.2790 C   0  0  0  0  0  0  0  0  0  0  0  0
  189.4620  177.8510  141.9840 C   0  0  0  0  0  0  0  0  0  0  0  0
  189.9350  177.6070  139.8960 C   0  0  0  0  0  0  0  0  0  0  0  0
  189.0780  178.2300  140.7270 C   0  0  0  0  0  0  0  0  0  0  0  0
  189.2660  177.2550  138.7050 N   0  0  0  0  0  0  0  0  0  0  0  0
  190.4950  176.5900  144.1810 C   0  0  0  0  0  2  0  0  0  0  0  0
  189.0990  176.9050  146.7580 C   0  0  0  0  0  2  0  0  0  0  0  0
  188.4370  177.5870  147.9430 C   0  0  0  0  0  2  0  0  0  0  0  0
  189.1590  178.7050  148.3160 F   0  0  0  0  0  0  0  0  0  0  0  0
  187.6890  175.6580  136.5920 C   0  0  2  0  0  3  0  0  0  0  0  0
  188.9770  176.1600  136.5120 C   0  0  2  0  0  3  0  0  0  0  0  0
  189.1850  173.4930  135.5510 C   0  0  0  0  0  0  0  0  0  0  0  0
  188.7510  174.7480  136.0630 N   0  0  0  0  0  0  0  0  0  0  0  0
  190.3810  173.3410  135.1910 O   0  0  0  0  0  0  0  0  0  0  0  0
  186.8460  176.1660  135.4370 C   0  0  1  0  0  3  0  0  0  0  0  0
  185.4220  175.6550  135.5640 C   0  0  2  0  0  3  0  0  0  0  0  0
  185.7420  177.0790  135.9470 C   0  0  1  0  0  3  0  0  0  0  0  0
  184.7520  176.2850  136.7690 C   0  0  0  0  0  2  0  0  0  0  0  0
  188.2050  172.3790  135.4030 C   0  0  0  0  0  2  0  0  0  0  0  0
  187.3300  172.2850  136.6380 C   0  0  0  0  0  2  0  0  0  0  0  0
  185.9620  172.2280  136.2470 O   0  0  0  0  0  0  0  0  0  0  0  0
  184.9310  172.4820  137.1530 C   0  0  0  0  0  0  0  0  0  0  0  0
  185.1710  173.0000  138.2800 O   0  0  0  0  0  0  0  0  0  0  0  0
  183.5240  172.1670  136.7620 C   0  0  2  0  0  0  0  0  0  0  0  0
  183.1310  170.7520  136.5950 C   0  0  0  0  0  2  0  0  0  0  0  0
  183.4740  171.5650  135.4920 O   0  0  0  0  0  0  0  0  0  0  0  0
  182.4320  173.2150  136.9130 C   0  0  0  0  0  2  0  0  0  0  0  0
  182.1350  173.8960  135.5840 C   0  0  0  0  0  2  0  0  0  0  0  0
  180.0820  173.2170  136.0170 C   0  0  0  0  0  1  0  0  0  0  0  0
  180.8040  174.3150  135.5520 O   0  0  0  0  0  0  0  0  0  0  0  0
  191.1670  176.1720  137.6820 C   0  0  0  0  0  3  0  0  0  0  0  0
  191.8750  175.0560  137.5230 C   0  0  0  0  0  3  0  0  0  0  0  0
  193.2930  175.0890  137.3440 N   0  0  0  0  0  0  0  0  0  0  0  0
  193.9310  175.6860  136.3190 C   0  0  0  0  0  3  0  0  0  0  0  0
  194.2300  174.5570  138.1500 C   0  0  0  0  0  3  0  0  0  0  0  0
  195.4420  174.8510  137.5680 C   0  0  0  0  0  0  0  0  0  0  0  0
  195.2710  175.5600  136.4320 N   0  0  0  0  0  0  0  0  0  0  0  0
  196.7160  174.5390  139.6520 C   0  0  0  0  0  2  0  0  0  0  0  0
  196.7700  174.4990  138.1490 C   0  0  2  0  0  3  0  0  0  0  0  0
  197.9940  175.2360  139.9840 C   0  0  0  0  0  2  0  0  0  0  0  0
  197.7460  175.4210  137.7400 O   0  0  0  0  0  0  0  0  0  0  0  0
  198.6940  175.3930  138.7180 N   0  0  0  0  0  2  0  0  0  0  0  0
  1 39  1  6  0  0  0
  1 13  1  0  0  0  0
  2 14  1  0  0  0  0
  3 12  1  0  0  0  0
  4 15  1  0  0  0  0
  5  6  1  0  0  0  0
  6 10  1  0  0  0  0
  6  2  2  0  0  0  0
  7  3  2  0  0  0  0
  8  9  2  0  0  0  0
  9  4  1  0  0  0  0
 10  8  1  0  0  0  0
 11  5  2  0  0  0  0
 11 12  1  0  0  0  0
 12 10  2  0  0  0  0
 13  7  1  0  0  0  0
 13 11  1  0  0  0  0
 14  9  1  0  0  0  0
 15 16  1  0  0  0  0
 16 17  1  0  0  0  0
 18 21  1  6  0  0  0
 19 18  1  0  0  0  0
 19  1  1  1  0  0  0
 20 21  1  0  0  0  0
 21 19  1  0  0  0  0
 22 20  2  0  0  0  0
 23 24  1  0  0  0  0
 23 25  1  0  0  0  0
 23 18  1  1  0  0  0
 24 25  1  0  0  0  0
 24 26  1  1  0  0  0
 25 26  1  1  0  0  0
 27 20  1  0  0  0  0
 27 28  1  0  0  0  0
 29 28  1  0  0  0  0
 29 30  1  0  0  0  0
 30 31  2  0  0  0  0
 32 35  1  1  0  0  0
 32 30  1  0  0  0  0
 33 32  1  0  0  0  0
 34 33  1  0  0  0  0
 34 32  1  0  0  0  0
 36 35  1  0  0  0  0
 38 36  1  0  0  0  0
 38 37  1  0  0  0  0
 40 39  2  0  0  0  0
 41 40  1  0  0  0  0
 41 43  1  0  0  0  0
 42 45  2  0  0  0  0
 42 41  1  0  0  0  0
 44 43  2  0  0  0  0
 45 44  1  0  0  0  0
 46 48  1  0  0  0  0
 47 44  1  6  0  0  0
 47 46  1  0  0  0  0
 49 47  1  0  0  0  0
 49 50  1  0  0  0  0
 50 48  1  0  0  0  0
M  END
>  <MODEL>
3

>  <REMARK>
 VINA RESULT:      -7.3      4.506      8.688
  Name = 
  16 active torsions:
  status: ('A' for Active; 'I' for Inactive)
    1  A    between atoms: C_3  and  C_18
    2  A    between atoms: C_3  and  O_21
    3  A    between atoms: N_4  and  C_41
    4  A    between atoms: N_5  and  C_9
    5  A    between atoms: C_7  and  C_18
    6  A    between atoms: C_7  and  C_29
    7  A    between atoms: C_8  and  C_11
    8  A    between atoms: C_9  and  C_32
    9  A    between atoms: C_13  and  C_19
   10  A    between atoms: C_13  and  C_43
   11  A    between atoms: C_15  and  C_44
   12  A    between atoms: C_17  and  C_22
   13  A    between atoms: O_21  and  C_43
   14  A    between atoms: C_29  and  O_35
   15  A    between atoms: C_40  and  C_44
   16  A    between atoms: C_44  and  N_49
                            x       y       z     vdW  Elec       q    Type
                         _______ _______ _______ _____ _____    ______ ____

>  <TORSDO>
F 16

$$$$
=
 OpenBabel11032421133D

 50 58  0  0  1  0  0  0  0  0999 V2000
  187.2020  177.8700  137.7020 C   0  0  1  0  0  3  0  0  0  0  0  0
  190.2850  173.6420  137.0610 C   0  0  0  0  0  3  0  0  0  0  0  0
  189.1050  177.5900  134.5940 C   0  0  0  0  0  3  0  0  0  0  0  0
  193.1270  173.7510  134.5990 N   0  0  0  0  0  2  0  0  0  0  0  0
  188.3940  175.2040  137.0070 N   0  0  0  0  0  0  0  0  0  0  0  0
  189.4710  174.5980  136.4640 C   0  0  0  0  0  0  0  0  0  0  0  0
  188.1870  178.3810  135.4460 N   0  0  0  0  0  0  0  0  0  0  0  0
  191.0470  174.9650  134.6970 N   0  0  0  0  0  0  0  0  0  0  0  0
  191.8700  174.0110  135.2280 C   0  0  0  0  0  0  0  0  0  0  0  0
  189.8490  175.2010  135.2910 C   0  0  0  0  0  0  0  0  0  0  0  0
  188.0870  176.1530  136.0860 C   0  0  0  0  0  0  0  0  0  0  0  0
  188.9310  176.1830  135.0370 C   0  0  0  0  0  0  0  0  0  0  0  0
  187.6410  177.4610  136.3700 N   0  0  0  0  0  0  0  0  0  0  0  0
  191.4970  173.3290  136.4160 C   0  0  0  0  0  2  0  0  0  0  0  0
  194.0810  172.7770  135.1110 C   0  0  0  0  0  2  0  0  0  0  0  0
  195.3660  173.4900  135.4970 C   0  0  0  0  0  2  0  0  0  0  0  0
  195.1570  174.2800  136.6110 F   0  0  0  0  0  0  0  0  0  0  0  0
  184.8760  177.5750  137.1150 C   0  0  2  0  0  3  0  0  0  0  0  0
  185.8450  177.2560  138.0510 C   0  0  2  0  0  3  0  0  0  0  0  0
  184.3810  179.3870  139.2310 C   0  0  0  0  0  0  0  0  0  0  0  0
  184.8900  178.3610  138.3860 N   0  0  0  0  0  0  0  0  0  0  0  0
  184.8690  179.5550  140.3790 O   0  0  0  0  0  0  0  0  0  0  0  0
  183.7390  176.5700  137.1610 C   0  0  1  0  0  3  0  0  0  0  0  0
  182.5380  177.1050  136.4010 C   0  0  2  0  0  3  0  0  0  0  0  0
  183.4230  176.0610  135.7640 C   0  0  1  0  0  3  0  0  0  0  0  0
  182.8550  177.1810  134.9210 C   0  0  0  0  0  2  0  0  0  0  0  0
  183.2410  180.2280  138.7640 C   0  0  0  0  0  2  0  0  0  0  0  0
  181.9300  179.5010  138.9910 C   0  0  0  0  0  2  0  0  0  0  0  0
  181.4330  179.8100  140.2890 O   0  0  0  0  0  0  0  0  0  0  0  0
  181.1350  178.8100  141.2160 C   0  0  0  0  0  0  0  0  0  0  0  0
  181.2910  177.5900  140.9260 O   0  0  0  0  0  0  0  0  0  0  0  0
  180.6590  179.1980  142.5780 C   0  0  2  0  0  0  0  0  0  0  0  0
  179.2310  179.5240  142.7670 C   0  0  0  0  0  2  0  0  0  0  0  0
  180.2080  180.5300  142.5970 O   0  0  0  0  0  0  0  0  0  0  0  0
  181.5070  178.8920  143.8030 C   0  0  0  0  0  2  0  0  0  0  0  0
  182.9650  179.2630  143.5700 C   0  0  0  0  0  2  0  0  0  0  0  0
  185.0870  178.7060  143.7940 C   0  0  0  0  0  1  0  0  0  0  0  0
  183.7970  178.2820  144.1110 O   0  0  0  0  0  0  0  0  0  0  0  0
  188.2280  177.4780  138.7130 C   0  0  0  0  0  3  0  0  0  0  0  0
  188.2220  177.9900  139.9420 C   0  0  0  0  0  3  0  0  0  0  0  0
  189.2020  177.6160  140.9130 N   0  0  0  0  0  0  0  0  0  0  0  0
  190.5350  177.6540  140.7230 C   0  0  0  0  0  3  0  0  0  0  0  0
  188.9850  177.1810  142.1670 C   0  0  0  0  0  3  0  0  0  0  0  0
  190.2280  176.9570  142.7120 C   0  0  0  0  0  0  0  0  0  0  0  0
  191.2020  177.2540  141.8260 N   0  0  0  0  0  0  0  0  0  0  0  0
  189.4300  177.0850  145.0390 C   0  0  0  0  0  2  0  0  0  0  0  0
  190.4730  176.5140  144.1150 C   0  0  2  0  0  3  0  0  0  0  0  0
  190.2600  177.5180  146.2020 C   0  0  0  0  0  2  0  0  0  0  0  0
  191.7220  176.9660  144.5630 O   0  0  0  0  0  0  0  0  0  0  0  0
  191.6070  177.0480  145.9180 N   0  0  0  0  0  2  0  0  0  0  0  0
  1 39  1  1  0  0  0
  3 12  1  0  0  0  0
  3  7  2  0  0  0  0
  4 15  1  0  0  0  0
  4  9  1  0  0  0  0
  6  5  1  0  0  0  0
  6  2  2  0  0  0  0
  7 13  1  0  0  0  0
  8  9  2  0  0  0  0
  8 10  1  0  0  0  0
  9 14  1  0  0  0  0
 10  6  1  0  0  0  0
 11 13  1  0  0  0  0
 11  5  2  0  0  0  0
 12 10  2  0  0  0  0
 12 11  1  0  0  0  0
 13  1  1  0  0  0  0
 14  2  1  0  0  0  0
 15 16  1  0  0  0  0
 16 17  1  0  0  0  0
 18 19  1  0  0  0  0
 18 21  1  1  0  0  0
 19  1  1  6  0  0  0
 19 21  1  0  0  0  0
 20 22  2  0  0  0  0
 21 20  1  0  0  0  0
 23 18  1  6  0  0  0
 24 26  1  6  0  0  0
 24 23  1  0  0  0  0
 25 26  1  6  0  0  0
 25 24  1  0  0  0  0
 25 23  1  0  0  0  0
 27 28  1  0  0  0  0
 27 20  1  0  0  0  0
 28 29  1  0  0  0  0
 29 30  1  0  0  0  0
 30 32  1  0  0  0  0
 31 30  2  0  0  0  0
 32 34  1  0  0  0  0
 32 33  1  0  0  0  0
 32 35  1  1  0  0  0
 34 33  1  0  0  0  0
 36 35  1  0  0  0  0
 36 38  1  0  0  0  0
 37 38  1  0  0  0  0
 39 40  2  0  0  0  0
 40 41  1  0  0  0  0
 41 43  1  0  0  0  0
 42 41  1  0  0  0  0
 42 45  2  0  0  0  0
 43 44  2  0  0  0  0
 45 44  1  0  0  0  0
 46 48  1  0  0  0  0
 47 44  1  6  0  0  0
 47 49  1  0  0  0  0
 47 46  1  0  0  0  0
 49 50  1  0  0  0  0
 50 48  1  0  0  0  0
M  END
>  <MODEL>
4

>  <REMARK>
 VINA RESULT:      -7.2      4.124      8.891
  Name = 
  16 active torsions:
  status: ('A' for Active; 'I' for Inactive)
    1  A    between atoms: C_3  and  C_18
    2  A    between atoms: C_3  and  O_21
    3  A    between atoms: N_4  and  C_41
    4  A    between atoms: N_5  and  C_9
    5  A    between atoms: C_7  and  C_18
    6  A    between atoms: C_7  and  C_29
    7  A    between atoms: C_8  and  C_11
    8  A    between atoms: C_9  and  C_32
    9  A    between atoms: C_13  and  C_19
   10  A    between atoms: C_13  and  C_43
   11  A    between atoms: C_15  and  C_44
   12  A    between atoms: C_17  and  C_22
   13  A    between atoms: O_21  and  C_43
   14  A    between atoms: C_29  and  O_35
   15  A    between atoms: C_40  and  C_44
   16  A    between atoms: C_44  and  N_49
                            x       y       z     vdW  Elec       q    Type
                         _______ _______ _______ _____ _____    ______ ____

>  <TORSDO>
F 16

$$$$
=
 OpenBabel11032421133D

 50 58  0  0  1  0  0  0  0  0999 V2000
  189.7900  176.8710  139.9600 C   0  0  1  0  0  3  0  0  0  0  0  0
  187.3650  176.7570  144.6390 C   0  0  0  0  0  3  0  0  0  0  0  0
  191.7760  177.6040  142.9400 C   0  0  0  0  0  3  0  0  0  0  0  0
  188.8560  178.5880  147.5680 N   0  0  0  0  0  2  0  0  0  0  0  0
  188.6450  176.1450  142.6390 N   0  0  0  0  0  0  0  0  0  0  0  0
  188.5370  176.5430  143.9240 C   0  0  0  0  0  0  0  0  0  0  0  0
  191.7050  177.4990  141.4640 N   0  0  0  0  0  0  0  0  0  0  0  0
  189.8580  177.6550  145.5840 N   0  0  0  0  0  0  0  0  0  0  0  0
  188.7390  177.8650  146.3410 C   0  0  0  0  0  0  0  0  0  0  0  0
  189.7450  176.9590  144.4250 C   0  0  0  0  0  0  0  0  0  0  0  0
  189.9760  176.2650  142.3970 C   0  0  0  0  0  0  0  0  0  0  0  0
  190.6750  176.7440  143.4440 C   0  0  0  0  0  0  0  0  0  0  0  0
  190.5560  176.7190  141.1940 N   0  0  0  0  0  0  0  0  0  0  0  0
  187.4740  177.4110  145.8810 C   0  0  0  0  0  2  0  0  0  0  0  0
  187.7150  178.8860  148.4220 C   0  0  0  0  0  2  0  0  0  0  0  0
  187.6390  177.8530  149.5340 C   0  0  0  0  0  2  0  0  0  0  0  0
  187.9350  176.5980  149.0400 F   0  0  0  0  0  0  0  0  0  0  0  0
  187.6330  177.8950  140.3330 C   0  0  2  0  0  3  0  0  0  0  0  0
  188.9480  178.1490  139.9840 C   0  0  2  0  0  3  0  0  0  0  0  0
  187.5430  178.1220  137.5140 C   0  0  0  0  0  0  0  0  0  0  0  0
  187.9380  178.0780  138.8810 N   0  0  0  0  0  0  0  0  0  0  0  0
  188.3880  178.4100  136.6260 O   0  0  0  0  0  0  0  0  0  0  0  0
  186.9710  179.1530  140.8660 C   0  0  1  0  0  3  0  0  0  0  0  0
  185.4600  179.0050  140.8290 C   0  0  2  0  0  3  0  0  0  0  0  0
  186.1960  178.8470  142.1380 C   0  0  1  0  0  3  0  0  0  0  0  0
  185.0200  177.9490  141.8230 C   0  0  0  0  0  2  0  0  0  0  0  0
  186.1200  177.8700  137.1480 C   0  0  0  0  0  2  0  0  0  0  0  0
  186.0450  176.9280  135.9620 C   0  0  0  0  0  2  0  0  0  0  0  0
  186.6220  175.6750  136.3140 O   0  0  0  0  0  0  0  0  0  0  0  0
  186.0900  174.4690  135.8540 C   0  0  0  0  0  0  0  0  0  0  0  0
  185.5910  174.3800  134.6960 O   0  0  0  0  0  0  0  0  0  0  0  0
  186.1480  173.2650  136.7350 C   0  0  2  0  0  0  0  0  0  0  0  0
  187.4330  172.5500  136.8800 C   0  0  0  0  0  2  0  0  0  0  0  0
  186.4300  172.1050  135.9910 O   0  0  0  0  0  0  0  0  0  0  0  0
  185.0500  173.0050  137.7550 C   0  0  0  0  0  2  0  0  0  0  0  0
  183.9640  172.1080  137.1780 C   0  0  0  0  0  2  0  0  0  0  0  0
  181.8960  172.8000  136.8500 C   0  0  0  0  0  1  0  0  0  0  0  0
  183.1710  172.8340  136.2880 O   0  0  0  0  0  0  0  0  0  0  0  0
  190.7170  176.8790  138.7900 C   0  0  0  0  0  3  0  0  0  0  0  0
  191.0800  175.7510  138.1850 C   0  0  0  0  0  3  0  0  0  0  0  0
  191.9670  175.7550  137.0640 N   0  0  0  0  0  0  0  0  0  0  0  0
  191.5880  175.8600  135.7760 C   0  0  0  0  0  3  0  0  0  0  0  0
  193.3100  175.6720  137.0840 C   0  0  0  0  0  3  0  0  0  0  0  0
  193.7130  175.7240  135.7690 C   0  0  0  0  0  0  0  0  0  0  0  0
  192.6520  175.8480  134.9450 N   0  0  0  0  0  0  0  0  0  0  0  0
  195.8040  174.4240  135.6950 C   0  0  0  0  0  2  0  0  0  0  0  0
  195.1350  175.7180  135.3170 C   0  0  2  0  0  3  0  0  0  0  0  0
  197.1250  174.9020  136.2010 C   0  0  0  0  0  2  0  0  0  0  0  0
  195.8520  176.7550  135.9310 O   0  0  0  0  0  0  0  0  0  0  0  0
  197.1470  176.3330  135.9460 N   0  0  0  0  0  2  0  0  0  0  0  0
  1 39  1  6  0  0  0
  1 13  1  0  0  0  0
  2 14  1  0  0  0  0
  3 12  1  0  0  0  0
  4 15  1  0  0  0  0
  5  6  1  0  0  0  0
  6 10  1  0  0  0  0
  6  2  2  0  0  0  0
  7  3  2  0  0  0  0
  8  9  2  0  0  0  0
  9  4  1  0  0  0  0
 10  8  1  0  0  0  0
 11  5  2  0  0  0  0
 11 12  1  0  0  0  0
 12 10  2  0  0  0  0
 13  7  1  0  0  0  0
 13 11  1  0  0  0  0
 14  9  1  0  0  0  0
 15 16  1  0  0  0  0
 17 16  1  0  0  0  0
 18 21  1  6  0  0  0
 19  1  1  6  0  0  0
 19 18  1  0  0  0  0
 20 21  1  0  0  0  0
 21 19  1  0  0  0  0
 22 20  2  0  0  0  0
 23 18  1  6  0  0  0
 23 25  1  0  0  0  0
 24 23  1  0  0  0  0
 24 26  1  6  0  0  0
 24 25  1  0  0  0  0
 25 26  1  6  0  0  0
 27 20  1  0  0  0  0
 28 29  1  0  0  0  0
 28 27  1  0  0  0  0
 30 29  1  0  0  0  0
 30 32  1  0  0  0  0
 31 30  2  0  0  0  0
 32 33  1  0  0  0  0
 32 35  1  1  0  0  0
 34 32  1  0  0  0  0
 34 33  1  0  0  0  0
 36 35  1  0  0  0  0
 38 37  1  0  0  0  0
 38 36  1  0  0  0  0
 40 39  2  0  0  0  0
 41 43  1  0  0  0  0
 41 40  1  0  0  0  0
 42 41  1  0  0  0  0
 44 43  2  0  0  0  0
 45 44  1  0  0  0  0
 45 42  2  0  0  0  0
 46 48  1  0  0  0  0
 47 46  1  0  0  0  0
 47 44  1  1  0  0  0
 47 49  1  0  0  0  0
 49 50  1  0  0  0  0
 50 48  1  0  0  0  0
M  END
>  <MODEL>
5

>  <REMARK>
 VINA RESULT:      -7.2      4.241      7.923
  Name = 
  16 active torsions:
  status: ('A' for Active; 'I' for Inactive)
    1  A    between atoms: C_3  and  C_18
    2  A    between atoms: C_3  and  O_21
    3  A    between atoms: N_4  and  C_41
    4  A    between atoms: N_5  and  C_9
    5  A    between atoms: C_7  and  C_18
    6  A    between atoms: C_7  and  C_29
    7  A    between atoms: C_8  and  C_11
    8  A    between atoms: C_9  and  C_32
    9  A    between atoms: C_13  and  C_19
   10  A    between atoms: C_13  and  C_43
   11  A    between atoms: C_15  and  C_44
   12  A    between atoms: C_17  and  C_22
   13  A    between atoms: O_21  and  C_43
   14  A    between atoms: C_29  and  O_35
   15  A    between atoms: C_40  and  C_44
   16  A    between atoms: C_44  and  N_49
                            x       y       z     vdW  Elec       q    Type
                         _______ _______ _______ _____ _____    ______ ____

>  <TORSDO>
F 16

$$$$
=
 OpenBabel11032421133D

 50 58  0  0  1  0  0  0  0  0999 V2000
  189.7840  176.8870  139.9820 C   0  0  1  0  0  3  0  0  0  0  0  0
  187.2120  176.5660  144.5730 C   0  0  0  0  0  3  0  0  0  0  0  0
  191.6570  177.5570  143.0480 C   0  0  0  0  0  3  0  0  0  0  0  0
  188.5700  178.3260  147.6080 N   0  0  0  0  0  2  0  0  0  0  0  0
  188.5680  176.0470  142.5960 N   0  0  0  0  0  0  0  0  0  0  0  0
  188.4110  176.4000  143.8900 C   0  0  0  0  0  0  0  0  0  0  0  0
  191.6350  177.5010  141.5680 N   0  0  0  0  0  0  0  0  0  0  0  0
  189.6540  177.4810  145.6280 N   0  0  0  0  0  0  0  0  0  0  0  0
  188.5070  177.6420  146.3540 C   0  0  0  0  0  0  0  0  0  0  0  0
  189.5930  176.8220  144.4430 C   0  0  0  0  0  0  0  0  0  0  0  0
  189.9030  176.2020  142.4020 C   0  0  0  0  0  0  0  0  0  0  0  0
  190.5580  176.6590  143.4870 C   0  0  0  0  0  0  0  0  0  0  0  0
  190.5120  176.7090  141.2350 N   0  0  0  0  0  0  0  0  0  0  0  0
  187.2680  177.1800  145.8380 C   0  0  0  0  0  2  0  0  0  0  0  0
  187.3960  178.5720  148.4340 C   0  0  0  0  0  2  0  0  0  0  0  0
  186.5060  179.5930  147.7470 C   0  0  0  0  0  2  0  0  0  0  0  0
  185.3500  178.9900  147.2910 F   0  0  0  0  0  0  0  0  0  0  0  0
  187.6180  177.9150  140.2920 C   0  0  2  0  0  3  0  0  0  0  0  0
  188.9480  178.1690  140.0050 C   0  0  2  0  0  3  0  0  0  0  0  0
  187.6480  178.2160  137.4780 C   0  0  0  0  0  0  0  0  0  0  0  0
  187.9840  178.1340  138.8590 N   0  0  0  0  0  0  0  0  0  0  0  0
  188.5300  178.5220  136.6340 O   0  0  0  0  0  0  0  0  0  0  0  0
  186.9420  179.1630  140.8300 C   0  0  1  0  0  3  0  0  0  0  0  0
  185.4370  179.0620  140.6490 C   0  0  2  0  0  3  0  0  0  0  0  0
  186.0460  178.8160  142.0080 C   0  0  1  0  0  3  0  0  0  0  0  0
  184.8820  177.9700  141.5410 C   0  0  0  0  0  2  0  0  0  0  0  0
  186.2400  177.9840  137.0470 C   0  0  0  0  0  2  0  0  0  0  0  0
  185.8960  176.5120  137.1600 C   0  0  0  0  0  2  0  0  0  0  0  0
  184.7400  176.3550  137.9760 O   0  0  0  0  0  0  0  0  0  0  0  0
  183.4510  176.4550  137.4480 C   0  0  0  0  0  0  0  0  0  0  0  0
  183.2380  176.2630  136.2180 O   0  0  0  0  0  0  0  0  0  0  0  0
  182.3110  176.7590  138.3640 C   0  0  2  0  0  0  0  0  0  0  0  0
  182.0640  175.8650  139.5140 C   0  0  0  0  0  2  0  0  0  0  0  0
  181.3350  175.7490  138.3100 O   0  0  0  0  0  0  0  0  0  0  0  0
  181.6700  178.1390  138.3610 C   0  0  0  0  0  2  0  0  0  0  0  0
  182.7180  179.2330  138.2110 C   0  0  0  0  0  2  0  0  0  0  0  0
  181.1320  180.7560  138.3680 C   0  0  0  0  0  1  0  0  0  0  0  0
  182.3380  180.3580  138.9430 O   0  0  0  0  0  0  0  0  0  0  0  0
  190.7440  176.9100  138.8390 C   0  0  0  0  0  3  0  0  0  0  0  0
  190.9270  175.8440  138.0650 C   0  0  0  0  0  3  0  0  0  0  0  0
  191.8450  175.8630  136.9690 N   0  0  0  0  0  0  0  0  0  0  0  0
  191.5090  176.0580  135.6800 C   0  0  0  0  0  3  0  0  0  0  0  0
  193.1810  175.7090  137.0210 C   0  0  0  0  0  3  0  0  0  0  0  0
  193.6250  175.8110  135.7220 C   0  0  0  0  0  0  0  0  0  0  0  0
  192.5960  176.0360  134.8790 N   0  0  0  0  0  0  0  0  0  0  0  0
  195.7320  174.5490  135.9030 C   0  0  0  0  0  2  0  0  0  0  0  0
  195.0570  175.7550  135.3080 C   0  0  2  0  0  3  0  0  0  0  0  0
  197.0350  175.1230  136.3560 C   0  0  0  0  0  2  0  0  0  0  0  0
  195.7460  176.8890  135.7630 O   0  0  0  0  0  0  0  0  0  0  0  0
  197.0450  176.4960  135.8740 N   0  0  0  0  0  2  0  0  0  0  0  0
  1 39  1  6  0  0  0
  1 13  1  0  0  0  0
  2 14  1  0  0  0  0
  3 12  1  0  0  0  0
  4 15  1  0  0  0  0
  5  6  1  0  0  0  0
  6 10  1  0  0  0  0
  6  2  2  0  0  0  0
  7  3  2  0  0  0  0
  8  9  2  0  0  0  0
  9  4  1  0  0  0  0
 10  8  1  0  0  0  0
 11  5  2  0  0  0  0
 11 12  1  0  0  0  0
 12 10  2  0  0  0  0
 13  7  1  0  0  0  0
 13 11  1  0  0  0  0
 14  9  1  0  0  0  0
 16 15  1  0  0  0  0
 17 16  1  0  0  0  0
 18 21  1  6  0  0  0
 19  1  1  6  0  0  0
 19 18  1  0  0  0  0
 20 21  1  0  0  0  0
 21 19  1  0  0  0  0
 22 20  2  0  0  0  0
 23 18  1  6  0  0  0
 23 25  1  0  0  0  0
 24 23  1  0  0  0  0
 24 26  1  6  0  0  0
 24 25  1  0  0  0  0
 25 26  1  6  0  0  0
 27 28  1  0  0  0  0
 27 20  1  0  0  0  0
 28 29  1  0  0  0  0
 30 29  1  0  0  0  0
 30 32  1  0  0  0  0
 31 30  2  0  0  0  0
 32 35  1  1  0  0  0
 32 33  1  0  0  0  0
 34 32  1  0  0  0  0
 34 33  1  0  0  0  0
 36 35  1  0  0  0  0
 36 38  1  0  0  0  0
 37 38  1  0  0  0  0
 40 39  2  0  0  0  0
 41 43  1  0  0  0  0
 41 40  1  0  0  0  0
 42 41  1  0  0  0  0
 44 43  2  0  0  0  0
 45 42  2  0  0  0  0
 45 44  1  0  0  0  0
 46 48  1  0  0  0  0
 47 44  1  1  0  0  0
 47 49  1  0  0  0  0
 47 46  1  0  0  0  0
 49 50  1  0  0  0  0
 50 48  1  0  0  0  0
M  END
>  <MODEL>
6

>  <REMARK>
 VINA RESULT:      -7.2      3.900      7.698
  Name = 
  16 active torsions:
  status: ('A' for Active; 'I' for Inactive)
    1  A    between atoms: C_3  and  C_18
    2  A    between atoms: C_3  and  O_21
    3  A    between atoms: N_4  and  C_41
    4  A    between atoms: N_5  and  C_9
    5  A    between atoms: C_7  and  C_18
    6  A    between atoms: C_7  and  C_29
    7  A    between atoms: C_8  and  C_11
    8  A    between atoms: C_9  and  C_32
    9  A    between atoms: C_13  and  C_19
   10  A    between atoms: C_13  and  C_43
   11  A    between atoms: C_15  and  C_44
   12  A    between atoms: C_17  and  C_22
   13  A    between atoms: O_21  and  C_43
   14  A    between atoms: C_29  and  O_35
   15  A    between atoms: C_40  and  C_44
   16  A    between atoms: C_44  and  N_49
                            x       y       z     vdW  Elec       q    Type
                         _______ _______ _______ _____ _____    ______ ____

>  <TORSDO>
F 16

$$$$
=
 OpenBabel11032421133D

 50 58  0  0  1  0  0  0  0  0999 V2000
  190.2180  177.8450  138.8300 C   0  0  1  0  0  3  0  0  0  0  0  0
  187.3530  177.0820  143.1890 C   0  0  0  0  0  3  0  0  0  0  0  0
  191.9930  177.1720  141.9530 C   0  0  0  0  0  3  0  0  0  0  0  0
  188.9240  177.5680  146.5720 N   0  0  0  0  0  2  0  0  0  0  0  0
  188.6520  176.7330  141.1370 N   0  0  0  0  0  0  0  0  0  0  0  0
  188.5070  176.7730  142.4790 C   0  0  0  0  0  0  0  0  0  0  0  0
  192.0560  177.5030  140.5100 N   0  0  0  0  0  0  0  0  0  0  0  0
  189.8750  176.9920  144.4340 N   0  0  0  0  0  0  0  0  0  0  0  0
  188.7660  177.2710  145.1830 C   0  0  0  0  0  0  0  0  0  0  0  0
  189.7200  176.6990  143.1170 C   0  0  0  0  0  0  0  0  0  0  0  0
  189.9890  176.5600  140.9840 C   0  0  0  0  0  0  0  0  0  0  0  0
  190.6680  176.5280  142.1460 C   0  0  0  0  0  0  0  0  0  0  0  0
  190.7880  177.1600  139.9870 N   0  0  0  0  0  0  0  0  0  0  0  0
  187.4850  177.3130  144.5710 C   0  0  0  0  0  2  0  0  0  0  0  0
  187.8050  177.9070  147.4410 C   0  0  0  0  0  2  0  0  0  0  0  0
  188.3110  178.0860  148.8620 C   0  0  0  0  0  2  0  0  0  0  0  0
  189.5830  178.6260  148.8520 F   0  0  0  0  0  0  0  0  0  0  0  0
  190.3650  175.6770  137.7700 C   0  0  2  0  0  3  0  0  0  0  0  0
  190.4430  177.0410  137.5460 C   0  0  2  0  0  3  0  0  0  0  0  0
  193.1480  176.1840  137.7090 C   0  0  0  0  0  0  0  0  0  0  0  0
  191.7280  176.2820  137.6750 N   0  0  0  0  0  0  0  0  0  0  0  0
  193.8540  177.2010  137.4800 O   0  0  0  0  0  0  0  0  0  0  0  0
  190.0540  174.9440  136.4780 C   0  0  1  0  0  3  0  0  0  0  0  0
  189.1750  173.7380  136.7600 C   0  0  2  0  0  3  0  0  0  0  0  0
  188.5620  174.9920  136.1850 C   0  0  1  0  0  3  0  0  0  0  0  0
  187.8050  174.1930  137.2220 C   0  0  0  0  0  2  0  0  0  0  0  0
  193.7890  174.8640  137.9720 C   0  0  0  0  0  2  0  0  0  0  0  0
  193.7200  173.9940  136.7320 C   0  0  0  0  0  2  0  0  0  0  0  0
  194.6510  174.4690  135.7650 O   0  0  0  0  0  0  0  0  0  0  0  0
  195.9770  174.7460  136.1000 C   0  0  0  0  0  0  0  0  0  0  0  0
  196.4230  175.9270  136.0640 O   0  0  0  0  0  0  0  0  0  0  0  0
  196.8650  173.6270  136.5400 C   0  0  2  0  0  0  0  0  0  0  0  0
  197.7860  173.0200  135.5560 C   0  0  0  0  0  2  0  0  0  0  0  0
  196.5420  172.4320  135.8740 O   0  0  0  0  0  0  0  0  0  0  0  0
  197.1100  173.3790  138.0200 C   0  0  0  0  0  2  0  0  0  0  0  0
  197.7400  174.5950  138.6850 C   0  0  0  0  0  2  0  0  0  0  0  0
  197.6890  175.2550  140.7880 C   0  0  0  0  0  1  0  0  0  0  0  0
  196.8820  175.1000  139.6630 O   0  0  0  0  0  0  0  0  0  0  0  0
  188.7610  178.0790  139.0500 C   0  0  0  0  0  3  0  0  0  0  0  0
  187.8720  177.8780  138.0790 C   0  0  0  0  0  3  0  0  0  0  0  0
  186.4750  178.1010  138.2870 N   0  0  0  0  0  0  0  0  0  0  0  0
  185.4910  177.6560  137.4820 C   0  0  0  0  0  3  0  0  0  0  0  0
  185.8960  178.7680  139.3020 C   0  0  0  0  0  3  0  0  0  0  0  0
  184.5410  178.7090  139.0720 C   0  0  0  0  0  0  0  0  0  0  0  0
  184.2750  178.0130  137.9460 N   0  0  0  0  0  0  0  0  0  0  0  0
  183.5670  178.6170  141.3320 C   0  0  0  0  0  2  0  0  0  0  0  0
  183.5000  179.2730  139.9790 C   0  0  2  0  0  3  0  0  0  0  0  0
  182.1220  178.3880  141.6300 C   0  0  0  0  0  2  0  0  0  0  0  0
  182.2170  179.0390  139.4630 O   0  0  0  0  0  0  0  0  0  0  0  0
  181.3930  179.0300  140.5470 N   0  0  0  0  0  2  0  0  0  0  0  0
  1 39  1  1  0  0  0
  1 13  1  0  0  0  0
  2 14  1  0  0  0  0
  3 12  1  0  0  0  0
  4 15  1  0  0  0  0
  5  6  1  0  0  0  0
  6 10  1  0  0  0  0
  6  2  2  0  0  0  0
  7  3  2  0  0  0  0
  8  9  2  0  0  0  0
  9  4  1  0  0  0  0
 10  8  1  0  0  0  0
 11  5  2  0  0  0  0
 11 12  1  0  0  0  0
 12 10  2  0  0  0  0
 13  7  1  0  0  0  0
 13 11  1  0  0  0  0
 14  9  1  0  0  0  0
 15 16  1  0  0  0  0
 17 16  1  0  0  0  0
 18 21  1  6  0  0  0
 19 21  1  0  0  0  0
 19 18  1  0  0  0  0
 19  1  1  1  0  0  0
 20 27  1  0  0  0  0
 21 20  1  0  0  0  0
 22 20  2  0  0  0  0
 23 24  1  0  0  0  0
 23 18  1  1  0  0  0
 24 26  1  1  0  0  0
 25 23  1  0  0  0  0
 25 24  1  0  0  0  0
 25 26  1  1  0  0  0
 28 27  1  0  0  0  0
 29 30  1  0  0  0  0
 29 28  1  0  0  0  0
 30 32  1  0  0  0  0
 31 30  2  0  0  0  0
 32 35  1  1  0  0  0
 33 34  1  0  0  0  0
 33 32  1  0  0  0  0
 34 32  1  0  0  0  0
 35 36  1  0  0  0  0
 36 38  1  0  0  0  0
 38 37  1  0  0  0  0
 40 41  1  0  0  0  0
 40 39  2  0  0  0  0
 41 43  1  0  0  0  0
 42 45  2  0  0  0  0
 42 41  1  0  0  0  0
 44 43  2  0  0  0  0
 45 44  1  0  0  0  0
 46 48  1  0  0  0  0
 47 44  1  6  0  0  0
 47 46  1  0  0  0  0
 49 47  1  0  0  0  0
 49 50  1  0  0  0  0
 50 48  1  0  0  0  0
M  END
>  <MODEL>
7

>  <REMARK>
 VINA RESULT:      -6.9      3.844      9.482
  Name = 
  16 active torsions:
  status: ('A' for Active; 'I' for Inactive)
    1  A    between atoms: C_3  and  C_18
    2  A    between atoms: C_3  and  O_21
    3  A    between atoms: N_4  and  C_41
    4  A    between atoms: N_5  and  C_9
    5  A    between atoms: C_7  and  C_18
    6  A    between atoms: C_7  and  C_29
    7  A    between atoms: C_8  and  C_11
    8  A    between atoms: C_9  and  C_32
    9  A    between atoms: C_13  and  C_19
   10  A    between atoms: C_13  and  C_43
   11  A    between atoms: C_15  and  C_44
   12  A    between atoms: C_17  and  C_22
   13  A    between atoms: O_21  and  C_43
   14  A    between atoms: C_29  and  O_35
   15  A    between atoms: C_40  and  C_44
   16  A    between atoms: C_44  and  N_49
                            x       y       z     vdW  Elec       q    Type
                         _______ _______ _______ _____ _____    ______ ____

>  <TORSDO>
F 16

$$$$
=
 OpenBabel11032421133D

 50 58  0  0  1  0  0  0  0  0999 V2000
  183.4820  178.0240  139.0380 C   0  0  1  0  0  3  0  0  0  0  0  0
  188.3900  178.1740  140.9570 C   0  0  0  0  0  3  0  0  0  0  0  0
  183.9000  178.2480  142.6620 C   0  0  0  0  0  3  0  0  0  0  0  0
  189.0310  177.2150  144.5380 N   0  0  0  0  0  2  0  0  0  0  0  0
  186.1770  178.8050  140.1060 N   0  0  0  0  0  0  0  0  0  0  0  0
  187.0660  178.5770  141.0960 C   0  0  0  0  0  0  0  0  0  0  0  0
  182.9880  178.1220  141.5010 N   0  0  0  0  0  0  0  0  0  0  0  0
  187.0690  178.0830  143.4400 N   0  0  0  0  0  0  0  0  0  0  0  0
  188.3800  177.7050  143.3630 C   0  0  0  0  0  0  0  0  0  0  0  0
  186.4570  178.5580  142.3250 C   0  0  0  0  0  0  0  0  0  0  0  0
  185.0160  178.9940  140.7830 C   0  0  0  0  0  0  0  0  0  0  0  0
  185.1390  178.8620  142.1180 C   0  0  0  0  0  0  0  0  0  0  0  0
  183.7430  178.5380  140.3800 N   0  0  0  0  0  0  0  0  0  0  0  0
  189.0630  177.7520  142.1190 C   0  0  0  0  0  2  0  0  0  0  0  0
  190.4150  176.7600  144.5440 C   0  0  0  0  0  2  0  0  0  0  0  0
  191.3000  177.8580  145.1080 C   0  0  0  0  0  2  0  0  0  0  0  0
  191.4420  178.8780  144.1870 F   0  0  0  0  0  0  0  0  0  0  0  0
  181.6630  179.5410  138.5530 C   0  0  2  0  0  3  0  0  0  0  0  0
  182.9100  179.1150  138.1290 C   0  0  2  0  0  3  0  0  0  0  0  0
  181.0740  177.7480  136.4450 C   0  0  0  0  0  0  0  0  0  0  0  0
  181.7100  178.5670  137.4200 N   0  0  0  0  0  0  0  0  0  0  0  0
  181.7690  177.0940  135.6240 O   0  0  0  0  0  0  0  0  0  0  0  0
  181.3610  180.9250  138.0100 C   0  0  1  0  0  3  0  0  0  0  0  0
  179.8850  181.0420  137.6680 C   0  0  2  0  0  3  0  0  0  0  0  0
  180.4110  181.6650  138.9390 C   0  0  1  0  0  3  0  0  0  0  0  0
  179.0560  180.9920  138.9350 C   0  0  0  0  0  2  0  0  0  0  0  0
  179.5850  177.7050  136.3740 C   0  0  0  0  0  2  0  0  0  0  0  0
  179.0330  176.8620  137.5070 C   0  0  0  0  0  2  0  0  0  0  0  0
  179.0550  175.4890  137.1310 O   0  0  0  0  0  0  0  0  0  0  0  0
  179.8580  174.5610  137.7960 C   0  0  0  0  0  0  0  0  0  0  0  0
  180.2080  174.7470  138.9950 O   0  0  0  0  0  0  0  0  0  0  0  0
  180.2740  173.3150  137.0830 C   0  0  2  0  0  0  0  0  0  0  0  0
  179.3940  172.1300  137.1480 C   0  0  0  0  0  2  0  0  0  0  0  0
  180.5190  172.2700  137.9910 O   0  0  0  0  0  0  0  0  0  0  0  0
  181.3490  173.3680  136.0080 C   0  0  0  0  0  2  0  0  0  0  0  0
  182.7060  172.9610  136.5660 C   0  0  0  0  0  2  0  0  0  0  0  0
  184.4910  173.7510  137.5890 C   0  0  0  0  0  1  0  0  0  0  0  0
  183.5550  174.0670  136.6060 O   0  0  0  0  0  0  0  0  0  0  0  0
  184.7390  177.4670  138.4570 C   0  0  0  0  0  3  0  0  0  0  0  0
  184.9330  177.4190  137.1410 C   0  0  0  0  0  3  0  0  0  0  0  0
  186.1370  176.8870  136.5820 N   0  0  0  0  0  0  0  0  0  0  0  0
  186.3100  176.5550  135.2880 C   0  0  0  0  0  3  0  0  0  0  0  0
  187.2930  176.6360  137.2210 C   0  0  0  0  0  3  0  0  0  0  0  0
  188.1540  176.1410  136.2690 C   0  0  0  0  0  0  0  0  0  0  0  0
  187.5570  176.0930  135.0600 N   0  0  0  0  0  0  0  0  0  0  0  0
  189.9300  174.4980  135.8050 C   0  0  0  0  0  2  0  0  0  0  0  0
  189.5790  175.7750  136.5200 C   0  0  2  0  0  3  0  0  0  0  0  0
  190.7150  173.7730  136.8480 C   0  0  0  0  0  2  0  0  0  0  0  0
  189.7990  175.5640  137.8890 O   0  0  0  0  0  0  0  0  0  0  0  0
  190.8590  174.7100  137.9520 N   0  0  0  0  0  2  0  0  0  0  0  0
  1 39  1  6  0  0  0
  1 13  1  0  0  0  0
  2  6  2  0  0  0  0
  2 14  1  0  0  0  0
  4 15  1  0  0  0  0
  5 11  2  0  0  0  0
  5  6  1  0  0  0  0
  6 10  1  0  0  0  0
  7  3  2  0  0  0  0
  9  8  2  0  0  0  0
  9  4  1  0  0  0  0
 10  8  1  0  0  0  0
 11 12  1  0  0  0  0
 12 10  2  0  0  0  0
 12  3  1  0  0  0  0
 13 11  1  0  0  0  0
 13  7  1  0  0  0  0
 14  9  1  0  0  0  0
 15 16  1  0  0  0  0
 17 16  1  0  0  0  0
 18 21  1  6  0  0  0
 19 18  1  0  0  0  0
 19  1  1  1  0  0  0
 20 21  1  0  0  0  0
 21 19  1  0  0  0  0
 22 20  2  0  0  0  0
 23 18  1  1  0  0  0
 23 25  1  0  0  0  0
 24 23  1  0  0  0  0
 24 26  1  1  0  0  0
 24 25  1  0  0  0  0
 25 26  1  1  0  0  0
 27 20  1  0  0  0  0
 27 28  1  0  0  0  0
 29 28  1  0  0  0  0
 29 30  1  0  0  0  0
 30 31  2  0  0  0  0
 32 35  1  6  0  0  0
 32 33  1  0  0  0  0
 32 30  1  0  0  0  0
 32 34  1  0  0  0  0
 33 34  1  0  0  0  0
 35 36  1  0  0  0  0
 36 38  1  0  0  0  0
 38 37  1  0  0  0  0
 40 39  2  0  0  0  0
 41 40  1  0  0  0  0
 41 43  1  0  0  0  0
 42 41  1  0  0  0  0
 44 43  2  0  0  0  0
 45 42  2  0  0  0  0
 45 44  1  0  0  0  0
 46 47  1  0  0  0  0
 46 48  1  0  0  0  0
 47 44  1  1  0  0  0
 47 49  1  0  0  0  0
 48 50  1  0  0  0  0
 49 50  1  0  0  0  0
M  END
>  <MODEL>
8

>  <REMARK>
 VINA RESULT:      -6.7      4.809      9.384
  Name = 
  16 active torsions:
  status: ('A' for Active; 'I' for Inactive)
    1  A    between atoms: C_3  and  C_18
    2  A    between atoms: C_3  and  O_21
    3  A    between atoms: N_4  and  C_41
    4  A    between atoms: N_5  and  C_9
    5  A    between atoms: C_7  and  C_18
    6  A    between atoms: C_7  and  C_29
    7  A    between atoms: C_8  and  C_11
    8  A    between atoms: C_9  and  C_32
    9  A    between atoms: C_13  and  C_19
   10  A    between atoms: C_13  and  C_43
   11  A    between atoms: C_15  and  C_44
   12  A    between atoms: C_17  and  C_22
   13  A    between atoms: O_21  and  C_43
   14  A    between atoms: C_29  and  O_35
   15  A    between atoms: C_40  and  C_44
   16  A    between atoms: C_44  and  N_49
                            x       y       z     vdW  Elec       q    Type
                         _______ _______ _______ _____ _____    ______ ____

>  <TORSDO>
F 16

$$$$
=
 OpenBabel11032421133D

 50 58  0  0  1  0  0  0  0  0999 V2000
  188.1950  178.1680  138.6380 C   0  0  1  0  0  3  0  0  0  0  0  0
  188.4750  176.6720  143.6860 C   0  0  0  0  0  3  0  0  0  0  0  0
  191.4910  177.4050  140.0210 C   0  0  0  0  0  3  0  0  0  0  0  0
  191.7180  177.0060  145.5620 N   0  0  0  0  0  2  0  0  0  0  0  0
  188.3280  176.6700  141.2370 N   0  0  0  0  0  0  0  0  0  0  0  0
  189.0000  176.5650  142.4030 C   0  0  0  0  0  0  0  0  0  0  0  0
  190.6810  177.8780  138.8740 N   0  0  0  0  0  0  0  0  0  0  0  0
  191.2470  176.7490  143.2120 N   0  0  0  0  0  0  0  0  0  0  0  0
  190.7830  176.8270  144.4960 C   0  0  0  0  0  0  0  0  0  0  0  0
  190.3570  176.5680  142.2030 C   0  0  0  0  0  0  0  0  0  0  0  0
  189.3240  176.6650  140.3150 C   0  0  0  0  0  0  0  0  0  0  0  0
  190.5580  176.5990  140.8500 C   0  0  0  0  0  0  0  0  0  0  0  0
  189.3610  177.4450  139.1390 N   0  0  0  0  0  0  0  0  0  0  0  0
  189.3870  176.7830  144.7520 C   0  0  0  0  0  2  0  0  0  0  0  0
  191.3140  177.1320  146.9560 C   0  0  0  0  0  2  0  0  0  0  0  0
  191.6860  175.8620  147.7010 C   0  0  0  0  0  2  0  0  0  0  0  0
  193.0340  175.5980  147.5530 F   0  0  0  0  0  0  0  0  0  0  0  0
  187.7800  176.0360  137.5770 C   0  0  2  0  0  3  0  0  0  0  0  0
  187.5030  177.3910  137.5160 C   0  0  2  0  0  3  0  0  0  0  0  0
  189.5380  176.9860  135.5720 C   0  0  0  0  0  0  0  0  0  0  0  0
  188.5500  176.8530  136.5890 N   0  0  0  0  0  0  0  0  0  0  0  0
  189.7190  178.1000  135.0150 O   0  0  0  0  0  0  0  0  0  0  0  0
  186.7150  175.2410  136.8430 C   0  0  1  0  0  3  0  0  0  0  0  0
  187.3630  174.1800  135.9710 C   0  0  2  0  0  3  0  0  0  0  0  0
  186.7370  173.7870  137.2880 C   0  0  1  0  0  3  0  0  0  0  0  0
  188.0240  173.1290  136.8400 C   0  0  0  0  0  2  0  0  0  0  0  0
  190.3210  175.7920  135.1430 C   0  0  0  0  0  2  0  0  0  0  0  0
  191.7380  175.8790  135.6740 C   0  0  0  0  0  2  0  0  0  0  0  0
  192.0750  174.6600  136.3300 O   0  0  0  0  0  0  0  0  0  0  0  0
  193.3010  174.0280  136.1140 C   0  0  0  0  0  0  0  0  0  0  0  0
  193.3670  172.9450  135.4670 O   0  0  0  0  0  0  0  0  0  0  0  0
  194.5500  174.6670  136.6270 C   0  0  2  0  0  0  0  0  0  0  0  0
  195.2360  175.6670  135.7840 C   0  0  0  0  0  2  0  0  0  0  0  0
  195.6590  174.3200  135.8350 O   0  0  0  0  0  0  0  0  0  0  0  0
  194.8950  174.6000  138.1070 C   0  0  0  0  0  2  0  0  0  0  0  0
  195.8180  173.4270  138.4050 C   0  0  0  0  0  2  0  0  0  0  0  0
  195.5700  171.2970  137.8920 C   0  0  0  0  0  1  0  0  0  0  0  0
  195.0640  172.2970  138.7220 O   0  0  0  0  0  0  0  0  0  0  0  0
  187.2420  178.4250  139.7580 C   0  0  0  0  0  3  0  0  0  0  0  0
  185.9250  178.4180  139.5640 C   0  0  0  0  0  3  0  0  0  0  0  0
  185.0100  178.6640  140.6340 N   0  0  0  0  0  0  0  0  0  0  0  0
  183.6740  178.5080  140.5630 C   0  0  0  0  0  3  0  0  0  0  0  0
  185.3030  179.0730  141.8820 C   0  0  0  0  0  3  0  0  0  0  0  0
  184.1010  179.1600  142.5450 C   0  0  0  0  0  0  0  0  0  0  0  0
  183.0800  178.8040  141.7380 N   0  0  0  0  0  0  0  0  0  0  0  0
  185.2980  179.6860  144.6330 C   0  0  0  0  0  2  0  0  0  0  0  0
  183.9490  179.5280  143.9830 C   0  0  2  0  0  3  0  0  0  0  0  0
  185.0910  178.9840  145.9350 C   0  0  0  0  0  2  0  0  0  0  0  0
  183.2640  178.5220  144.6790 O   0  0  0  0  0  0  0  0  0  0  0  0
  183.6790  178.6360  145.9710 N   0  0  0  0  0  2  0  0  0  0  0  0
  1 13  1  0  0  0  0
  1 39  1  1  0  0  0
  2 14  1  0  0  0  0
  3 12  1  0  0  0  0
  4 15  1  0  0  0  0
  5  6  1  0  0  0  0
  6  2  2  0  0  0  0
  7 13  1  0  0  0  0
  7  3  2  0  0  0  0
  8  9  2  0  0  0  0
  9 14  1  0  0  0  0
  9  4  1  0  0  0  0
 10  6  1  0  0  0  0
 10  8  1  0  0  0  0
 11 12  1  0  0  0  0
 11  5  2  0  0  0  0
 12 10  2  0  0  0  0
 13 11  1  0  0  0  0
 15 16  1  0  0  0  0
 17 16  1  0  0  0  0
 18 21  1  6  0  0  0
 19 18  1  0  0  0  0
 19  1  1  1  0  0  0
 20 21  1  0  0  0  0
 21 19  1  0  0  0  0
 22 20  2  0  0  0  0
 23 25  1  0  0  0  0
 23 18  1  1  0  0  0
 24 26  1  1  0  0  0
 24 23  1  0  0  0  0
 24 25  1  0  0  0  0
 25 26  1  1  0  0  0
 27 20  1  0  0  0  0
 27 28  1  0  0  0  0
 28 29  1  0  0  0  0
 30 29  1  0  0  0  0
 30 32  1  0  0  0  0
 31 30  2  0  0  0  0
 32 35  1  1  0  0  0
 33 34  1  0  0  0  0
 33 32  1  0  0  0  0
 34 32  1  0  0  0  0
 35 36  1  0  0  0  0
 36 38  1  0  0  0  0
 37 38  1  0  0  0  0
 40 39  2  0  0  0  0
 40 41  1  0  0  0  0
 41 43  1  0  0  0  0
 42 41  1  0  0  0  0
 42 45  2  0  0  0  0
 43 44  2  0  0  0  0
 45 44  1  0  0  0  0
 46 48  1  0  0  0  0
 47 44  1  6  0  0  0
 47 46  1  0  0  0  0
 47 49  1  0  0  0  0
 48 50  1  0  0  0  0
 49 50  1  0  0  0  0
M  END
>  <MODEL>
9

>  <REMARK>
 VINA RESULT:      -6.6      4.004      9.882
  Name = 
  16 active torsions:
  status: ('A' for Active; 'I' for Inactive)
    1  A    between atoms: C_3  and  C_18
    2  A    between atoms: C_3  and  O_21
    3  A    between atoms: N_4  and  C_41
    4  A    between atoms: N_5  and  C_9
    5  A    between atoms: C_7  and  C_18
    6  A    between atoms: C_7  and  C_29
    7  A    between atoms: C_8  and  C_11
    8  A    between atoms: C_9  and  C_32
    9  A    between atoms: C_13  and  C_19
   10  A    between atoms: C_13  and  C_43
   11  A    between atoms: C_15  and  C_44
   12  A    between atoms: C_17  and  C_22
   13  A    between atoms: O_21  and  C_43
   14  A    between atoms: C_29  and  O_35
   15  A    between atoms: C_40  and  C_44
   16  A    between atoms: C_44  and  N_49
                            x       y       z     vdW  Elec       q    Type
                         _______ _______ _______ _____ _____    ______ ____

>  <TORSDO>
F 16

$$$$
