=
 OpenBabel11032420283D

 33 36  0  0  1  0  0  0  0  0999 V2000
  188.5910  177.7430  140.2620 C   0  0  1  0  0  3  0  0  0  0  0  0
  188.9650  178.9190  142.3140 O   0  0  0  0  0  1  0  0  0  0  0  0
  189.3700  177.7980  141.5810 C   0  0  1  0  0  3  0  0  0  0  0  0
  189.7170  177.0440  144.8500 C   0  0  0  0  0  0  0  0  0  0  0  0
  189.5430  177.8360  146.0700 C   0  0  0  0  0  2  0  0  0  0  0  0
  190.8970  176.5400  144.6420 N   0  0  0  0  0  2  0  0  0  0  0  0
  191.2070  175.7710  143.4730 C   0  0  0  0  0  3  0  0  0  0  0  0
  186.6100  177.2630  145.2240 C   0  0  0  0  0  3  0  0  0  0  0  0
  188.4160  178.1420  146.7050 C   0  0  0  0  0  3  0  0  0  0  0  0
  187.0360  177.7590  146.3840 C   0  0  0  0  0  0  0  0  0  0  0  0
  189.1500  176.5240  142.4190 C   0  0  2  0  0  3  0  0  0  0  0  0
  188.6770  176.8630  143.8120 C   0  0  0  0  0  0  0  0  0  0  0  0
  186.0540  178.0000  147.3850 N   0  0  0  0  0  1  0  0  0  0  0  0
  187.3620  176.9460  144.0040 C   0  0  0  0  0  3  0  0  0  0  0  0
  190.3800  175.7260  142.4710 N   0  0  0  0  0  0  0  0  0  0  0  0
  186.2430  178.0480  140.3870 N   0  0  0  0  0  0  0  0  0  0  0  0
  187.3990  178.5760  140.3470 N   0  0  0  0  0  0  0  0  0  0  0  0
  184.5170  179.4260  139.2560 C   0  0  0  0  0  1  0  0  0  0  0  0
  185.0770  178.8270  140.4660 N   0  0  0  0  0  0  0  0  0  0  0  0
  182.3520  178.9910  143.2020 C   0  0  0  0  0  2  0  0  0  0  0  0
  183.0280  178.4770  141.9320 C   0  0  0  0  0  2  0  0  0  0  0  0
  185.1190  179.5220  142.7770 C   0  0  0  0  0  3  0  0  0  0  0  0
  184.5090  179.7650  144.1290 C   0  0  0  0  0  2  0  0  0  0  0  0
  184.4360  179.0030  141.7420 C   0  0  0  0  0  0  0  0  0  0  0  0
  183.3090  178.8610  144.3760 C   0  0  0  0  0  2  0  0  0  0  0  0
  189.4320  178.2170  139.1660 N   0  0  0  0  0  2  0  0  0  0  0  0
  191.5330  175.6550  136.5320 C   0  0  0  0  0  0  0  0  0  0  0  0
  190.4210  176.3720  136.0840 C   0  0  0  0  0  3  0  0  0  0  0  0
  191.2720  176.6280  138.7340 C   0  0  0  0  0  3  0  0  0  0  0  0
  190.1500  177.3450  138.2890 C   0  0  0  0  0  0  0  0  0  0  0  0
  191.9600  175.7830  137.8570 C   0  0  0  0  0  3  0  0  0  0  0  0
  189.7320  177.2170  136.9610 C   0  0  0  0  0  3  0  0  0  0  0  0
  192.2140  174.8160  135.6620 O   0  0  0  0  0  1  0  0  0  0  0  0
  1 26  1  6  0  0  0
  1 17  1  0  0  0  0
  1  3  1  0  0  0  0
  3  2  1  1  0  0  0
  4  5  1  0  0  0  0
  5  9  1  0  0  0  0
  6  4  1  0  0  0  0
  7  6  1  0  0  0  0
  8 10  1  0  0  0  0
 10  9  2  0  0  0  0
 10 13  1  0  0  0  0
 11  3  1  6  0  0  0
 11 15  1  0  0  0  0
 11 12  1  0  0  0  0
 12 14  1  0  0  0  0
 12  4  2  0  0  0  0
 14  8  2  0  0  0  0
 15  7  2  0  0  0  0
 16 19  1  0  0  0  0
 17 16  2  0  0  0  0
 18 19  1  0  0  0  0
 19 24  1  0  0  0  0
 20 25  1  0  0  0  0
 21 20  1  0  0  0  0
 22 23  1  0  0  0  0
 23 25  1  0  0  0  0
 24 21  1  0  0  0  0
 24 22  2  0  0  0  0
 27 31  1  0  0  0  0
 28 27  2  0  0  0  0
 28 32  1  0  0  0  0
 30 29  1  0  0  0  0
 30 26  1  0  0  0  0
 31 29  2  0  0  0  0
 32 30  2  0  0  0  0
 33 27  1  0  0  0  0
M  END
>  <MODEL>
1

>  <REMARK>
 VINA RESULT:      -8.6      0.000      0.000
  Name = 
  7 active torsions:
  status: ('A' for Active; 'I' for Inactive)
    1  A    between atoms: N_6  and  N_24
    2  A    between atoms: N_6  and  C_26
    3  A    between atoms: C_17  and  C_23
    4  A    between atoms: C_18  and  N_19
    5  A    between atoms: N_19  and  C_22
    6  A    between atoms: C_22  and  C_23
    7  A    between atoms: C_22  and  N_25
                            x       y       z     vdW  Elec       q    Type
                         _______ _______ _______ _____ _____    ______ ____

>  <TORSDO>
F 7

$$$$
=
 OpenBabel11032420283D

 33 36  0  0  1  0  0  0  0  0999 V2000
  188.4760  178.5040  142.0130 C   0  0  1  0  0  3  0  0  0  0  0  0
  190.1300  179.0260  143.6650 O   0  0  0  0  0  1  0  0  0  0  0  0
  189.7450  178.0470  142.7420 C   0  0  1  0  0  3  0  0  0  0  0  0
  190.7390  176.7930  145.7110 C   0  0  0  0  0  0  0  0  0  0  0  0
  190.9980  177.4180  147.0100 C   0  0  0  0  0  2  0  0  0  0  0  0
  191.7350  176.1710  145.1520 N   0  0  0  0  0  2  0  0  0  0  0  0
  191.6220  175.5430  143.8680 C   0  0  0  0  0  3  0  0  0  0  0  0
  187.8940  177.3690  146.9010 C   0  0  0  0  0  3  0  0  0  0  0  0
  190.1230  177.7780  147.9450 C   0  0  0  0  0  3  0  0  0  0  0  0
  188.6630  177.6320  147.9550 C   0  0  0  0  0  0  0  0  0  0  0  0
  189.5260  176.7070  143.4700 C   0  0  2  0  0  3  0  0  0  0  0  0
  189.4650  176.9030  144.9660 C   0  0  0  0  0  0  0  0  0  0  0  0
  188.0050  177.8560  149.1970 N   0  0  0  0  0  1  0  0  0  0  0  0
  188.2670  177.1320  145.5010 C   0  0  0  0  0  3  0  0  0  0  0  0
  190.5830  175.7520  143.1170 N   0  0  0  0  0  0  0  0  0  0  0  0
  189.4390  177.6340  140.0290 N   0  0  0  0  0  0  0  0  0  0  0  0
  188.7010  178.5140  140.5730 N   0  0  0  0  0  0  0  0  0  0  0  0
  189.0340  178.6180  137.7870 C   0  0  0  0  0  1  0  0  0  0  0  0
  189.6750  177.6220  138.6440 N   0  0  0  0  0  0  0  0  0  0  0  0
  192.9170  175.7480  137.6890 C   0  0  0  0  0  2  0  0  0  0  0  0
  192.0090  176.6160  138.5600 C   0  0  0  0  0  2  0  0  0  0  0  0
  190.1000  175.6870  137.2660 C   0  0  0  0  0  3  0  0  0  0  0  0
  190.9760  174.6460  136.6260 C   0  0  0  0  0  2  0  0  0  0  0  0
  190.5680  176.6380  138.0930 C   0  0  0  0  0  0  0  0  0  0  0  0
  192.2460  174.4080  137.4310 C   0  0  0  0  0  2  0  0  0  0  0  0
  187.3710  177.6030  142.3220 N   0  0  0  0  0  2  0  0  0  0  0  0
  183.4490  178.9250  143.2110 C   0  0  0  0  0  0  0  0  0  0  0  0
  183.8300  178.6770  141.8890 C   0  0  0  0  0  3  0  0  0  0  0  0
  185.6620  178.2960  143.9650 C   0  0  0  0  0  3  0  0  0  0  0  0
  186.0500  178.0530  142.6390 C   0  0  0  0  0  0  0  0  0  0  0  0
  184.3650  178.7340  144.2490 C   0  0  0  0  0  3  0  0  0  0  0  0
  185.1270  178.2400  141.6040 C   0  0  0  0  0  3  0  0  0  0  0  0
  182.1620  179.3600  143.4920 O   0  0  0  0  0  1  0  0  0  0  0  0
  1 17  1  6  0  0  0
  1 26  1  0  0  0  0
  1  3  1  0  0  0  0
  3  2  1  1  0  0  0
  4  5  1  0  0  0  0
  5  9  1  0  0  0  0
  6  4  1  0  0  0  0
  7  6  1  0  0  0  0
  8 10  1  0  0  0  0
  9 10  2  0  0  0  0
 10 13  1  0  0  0  0
 11  3  1  6  0  0  0
 11 12  1  0  0  0  0
 12 14  1  0  0  0  0
 12  4  2  0  0  0  0
 14  8  2  0  0  0  0
 15 11  1  0  0  0  0
 15  7  2  0  0  0  0
 16 17  2  0  0  0  0
 18 19  1  0  0  0  0
 19 16  1  0  0  0  0
 20 21  1  0  0  0  0
 22 24  2  0  0  0  0
 23 22  1  0  0  0  0
 23 25  1  0  0  0  0
 24 21  1  0  0  0  0
 24 19  1  0  0  0  0
 25 20  1  0  0  0  0
 26 30  1  0  0  0  0
 27 33  1  0  0  0  0
 27 31  1  0  0  0  0
 28 27  2  0  0  0  0
 29 31  2  0  0  0  0
 30 29  1  0  0  0  0
 32 28  1  0  0  0  0
 32 30  2  0  0  0  0
M  END
>  <MODEL>
2

>  <REMARK>
 VINA RESULT:      -8.4      2.178      6.515
  Name = 
  7 active torsions:
  status: ('A' for Active; 'I' for Inactive)
    1  A    between atoms: N_6  and  N_24
    2  A    between atoms: N_6  and  C_26
    3  A    between atoms: C_17  and  C_23
    4  A    between atoms: C_18  and  N_19
    5  A    between atoms: N_19  and  C_22
    6  A    between atoms: C_22  and  C_23
    7  A    between atoms: C_22  and  N_25
                            x       y       z     vdW  Elec       q    Type
                         _______ _______ _______ _____ _____    ______ ____

>  <TORSDO>
F 7

$$$$
=
 OpenBabel11032420283D

 33 36  0  0  1  0  0  0  0  0999 V2000
  188.0530  178.6330  142.0330 C   0  0  1  0  0  3  0  0  0  0  0  0
  190.0120  178.9830  143.3660 O   0  0  0  0  0  1  0  0  0  0  0  0
  189.3920  178.0620  142.5140 C   0  0  1  0  0  3  0  0  0  0  0  0
  190.5790  176.7720  145.3960 C   0  0  0  0  0  0  0  0  0  0  0  0
  190.9440  177.3850  146.6750 C   0  0  0  0  0  2  0  0  0  0  0  0
  191.5190  176.1360  144.7620 N   0  0  0  0  0  2  0  0  0  0  0  0
  191.3010  175.5180  143.4870 C   0  0  0  0  0  3  0  0  0  0  0  0
  187.8400  177.3910  146.7940 C   0  0  0  0  0  3  0  0  0  0  0  0
  190.1470  177.7550  147.6730 C   0  0  0  0  0  3  0  0  0  0  0  0
  188.6890  177.6350  147.7900 C   0  0  0  0  0  0  0  0  0  0  0  0
  189.2030  176.7210  143.2490 C   0  0  2  0  0  3  0  0  0  0  0  0
  189.2550  176.9100  144.7460 C   0  0  0  0  0  0  0  0  0  0  0  0
  188.1290  177.8630  149.0780 N   0  0  0  0  0  1  0  0  0  0  0  0
  188.1050  177.1570  145.3690 C   0  0  0  0  0  3  0  0  0  0  0  0
  190.2140  175.7500  142.8150 N   0  0  0  0  0  0  0  0  0  0  0  0
  188.0870  177.8480  139.7960 N   0  0  0  0  0  0  0  0  0  0  0  0
  188.0840  178.8400  140.5910 N   0  0  0  0  0  0  0  0  0  0  0  0
  189.2910  178.6240  137.7700 C   0  0  0  0  0  1  0  0  0  0  0  0
  188.1200  178.0190  138.4020 N   0  0  0  0  0  0  0  0  0  0  0  0
  184.5010  177.2410  137.2930 C   0  0  0  0  0  2  0  0  0  0  0  0
  185.6090  178.0200  138.0010 C   0  0  0  0  0  2  0  0  0  0  0  0
  187.2090  176.8630  136.4900 C   0  0  0  0  0  3  0  0  0  0  0  0
  186.0930  176.3340  135.6330 C   0  0  0  0  0  2  0  0  0  0  0  0
  187.0030  177.5710  137.6140 C   0  0  0  0  0  0  0  0  0  0  0  0
  184.8160  177.1450  135.8080 C   0  0  0  0  0  2  0  0  0  0  0  0
  186.9700  177.7120  142.3650 N   0  0  0  0  0  2  0  0  0  0  0  0
  183.0130  178.9720  143.1800 C   0  0  0  0  0  0  0  0  0  0  0  0
  183.9670  178.9340  144.2000 C   0  0  0  0  0  3  0  0  0  0  0  0
  184.6690  178.1790  141.6020 C   0  0  0  0  0  3  0  0  0  0  0  0
  185.6280  178.1330  142.6250 C   0  0  0  0  0  0  0  0  0  0  0  0
  183.3630  178.5960  141.8810 C   0  0  0  0  0  3  0  0  0  0  0  0
  185.2730  178.5170  143.9220 C   0  0  0  0  0  3  0  0  0  0  0  0
  181.7170  179.3850  143.4580 O   0  0  0  0  0  1  0  0  0  0  0  0
  1 17  1  6  0  0  0
  1 26  1  0  0  0  0
  1  3  1  0  0  0  0
  3  2  1  1  0  0  0
  4  5  1  0  0  0  0
  5  9  1  0  0  0  0
  6  4  1  0  0  0  0
  7  6  1  0  0  0  0
  8 10  1  0  0  0  0
  9 10  2  0  0  0  0
 10 13  1  0  0  0  0
 11  3  1  6  0  0  0
 11 12  1  0  0  0  0
 12 14  1  0  0  0  0
 12  4  2  0  0  0  0
 14  8  2  0  0  0  0
 15 11  1  0  0  0  0
 15  7  2  0  0  0  0
 16 17  2  0  0  0  0
 18 19  1  0  0  0  0
 19 16  1  0  0  0  0
 20 21  1  0  0  0  0
 22 24  2  0  0  0  0
 23 25  1  0  0  0  0
 23 22  1  0  0  0  0
 24 21  1  0  0  0  0
 24 19  1  0  0  0  0
 25 20  1  0  0  0  0
 26 30  1  0  0  0  0
 27 33  1  0  0  0  0
 27 28  1  0  0  0  0
 29 31  1  0  0  0  0
 29 30  2  0  0  0  0
 30 32  1  0  0  0  0
 31 27  2  0  0  0  0
 32 28  2  0  0  0  0
M  END
>  <MODEL>
3

>  <REMARK>
 VINA RESULT:      -8.4      2.378      5.772
  Name = 
  7 active torsions:
  status: ('A' for Active; 'I' for Inactive)
    1  A    between atoms: N_6  and  N_24
    2  A    between atoms: N_6  and  C_26
    3  A    between atoms: C_17  and  C_23
    4  A    between atoms: C_18  and  N_19
    5  A    between atoms: N_19  and  C_22
    6  A    between atoms: C_22  and  C_23
    7  A    between atoms: C_22  and  N_25
                            x       y       z     vdW  Elec       q    Type
                         _______ _______ _______ _____ _____    ______ ____

>  <TORSDO>
F 7

$$$$
=
 OpenBabel11032420283D

 33 36  0  0  1  0  0  0  0  0999 V2000
  188.6880  178.3120  140.3360 C   0  0  1  0  0  3  0  0  0  0  0  0
  189.7320  178.6910  138.2130 O   0  0  0  0  0  1  0  0  0  0  0  0
  188.5440  178.2560  138.8110 C   0  0  1  0  0  3  0  0  0  0  0  0
  189.1470  176.5340  135.9740 C   0  0  0  0  0  0  0  0  0  0  0  0
  190.2560  176.5640  135.0180 C   0  0  0  0  0  3  0  0  0  0  0  0
  187.9660  176.8190  135.5110 N   0  0  0  0  0  2  0  0  0  0  0  0
  186.8030  176.8540  136.3480 C   0  0  0  0  0  3  0  0  0  0  0  0
  191.4800  175.0020  137.4080 C   0  0  0  0  0  3  0  0  0  0  0  0
  191.4480  175.9820  135.1130 C   0  0  0  0  0  3  0  0  0  0  0  0
  191.9820  175.1280  136.1810 C   0  0  0  0  0  0  0  0  0  0  0  0
  188.2120  176.8310  138.3280 C   0  0  2  0  0  3  0  0  0  0  0  0
  189.2990  176.2940  137.4280 C   0  0  1  0  0  3  0  0  0  0  0  0
  193.1830  174.4210  135.8960 N   0  0  0  0  0  1  0  0  0  0  0  0
  190.2940  175.6250  138.0070 C   0  0  0  0  0  3  0  0  0  0  0  0
  186.9150  176.8100  137.6410 N   0  0  0  0  0  0  0  0  0  0  0  0
  186.8690  178.7790  141.7830 N   0  0  0  0  0  0  0  0  0  0  0  0
  187.4240  177.9710  140.9730 N   0  0  0  0  0  0  0  0  0  0  0  0
  184.4470  178.2660  141.6120 C   0  0  0  0  0  1  0  0  0  0  0  0
  185.6510  178.4730  142.4130 N   0  0  0  0  0  0  0  0  0  0  0  0
  186.5940  177.4630  146.0230 C   0  0  0  0  0  2  0  0  0  0  0  0
  186.8520  177.8470  144.5660 C   0  0  0  0  0  2  0  0  0  0  0  0
  184.5450  178.7720  144.5370 C   0  0  0  0  0  3  0  0  0  0  0  0
  184.4220  178.6430  146.0300 C   0  0  0  0  0  2  0  0  0  0  0  0
  185.6160  178.3460  143.8460 C   0  0  0  0  0  0  0  0  0  0  0  0
  185.7860  178.5570  146.7020 C   0  0  0  0  0  2  0  0  0  0  0  0
  189.7180  177.3760  140.7750 N   0  0  0  0  0  2  0  0  0  0  0  0
  191.2830  177.2380  144.7050 C   0  0  0  0  0  0  0  0  0  0  0  0
  191.1630  176.0680  143.9500 C   0  0  0  0  0  3  0  0  0  0  0  0
  190.3710  178.5190  142.8640 C   0  0  0  0  0  3  0  0  0  0  0  0
  190.2420  177.3450  142.1050 C   0  0  0  0  0  0  0  0  0  0  0  0
  190.8890  178.4640  144.1610 C   0  0  0  0  0  3  0  0  0  0  0  0
  190.6450  176.1220  142.6520 C   0  0  0  0  0  3  0  0  0  0  0  0
  191.7960  177.1830  145.9930 O   0  0  0  0  0  1  0  0  0  0  0  0
  1 26  1  1  0  0  0
  1 17  1  0  0  0  0
  3  2  1  6  0  0  0
  3  1  1  0  0  0  0
  4 12  1  0  0  0  0
  5  9  1  0  0  0  0
  5  4  2  0  0  0  0
  6  4  1  0  0  0  0
  6  7  1  0  0  0  0
  7 15  2  0  0  0  0
  8 14  2  0  0  0  0
  9 10  2  0  0  0  0
 10  8  1  0  0  0  0
 11  3  1  6  0  0  0
 12 14  1  6  0  0  0
 12 11  1  0  0  0  0
 13 10  1  0  0  0  0
 15 11  1  0  0  0  0
 16 19  1  0  0  0  0
 17 16  2  0  0  0  0
 18 19  1  0  0  0  0
 19 24  1  0  0  0  0
 20 25  1  0  0  0  0
 21 20  1  0  0  0  0
 22 23  1  0  0  0  0
 23 25  1  0  0  0  0
 24 22  2  0  0  0  0
 24 21  1  0  0  0  0
 26 30  1  0  0  0  0
 27 33  1  0  0  0  0
 28 27  2  0  0  0  0
 29 31  2  0  0  0  0
 30 32  2  0  0  0  0
 30 29  1  0  0  0  0
 31 27  1  0  0  0  0
 32 28  1  0  0  0  0
M  END
>  <MODEL>
4

>  <REMARK>
 VINA RESULT:      -8.2      2.266      6.881
  Name = 
  7 active torsions:
  status: ('A' for Active; 'I' for Inactive)
    1  A    between atoms: N_6  and  N_24
    2  A    between atoms: N_6  and  C_26
    3  A    between atoms: C_17  and  C_23
    4  A    between atoms: C_18  and  N_19
    5  A    between atoms: N_19  and  C_22
    6  A    between atoms: C_22  and  C_23
    7  A    between atoms: C_22  and  N_25
                            x       y       z     vdW  Elec       q    Type
                         _______ _______ _______ _____ _____    ______ ____

>  <TORSDO>
F 7

$$$$
=
 OpenBabel11032420283D

 33 36  0  0  1  0  0  0  0  0999 V2000
  186.1220  178.5340  141.0970 C   0  0  1  0  0  3  0  0  0  0  0  0
  188.3300  179.1890  141.7530 O   0  0  0  0  0  1  0  0  0  0  0  0
  187.5900  178.6790  140.6810 C   0  0  1  0  0  3  0  0  0  0  0  0
  190.7010  177.3760  140.6530 C   0  0  0  0  0  0  0  0  0  0  0  0
  191.8550  177.5550  141.5380 C   0  0  0  0  0  2  0  0  0  0  0  0
  190.8630  177.7050  139.4060 N   0  0  0  0  0  2  0  0  0  0  0  0
  189.8050  177.6060  138.4440 C   0  0  0  0  0  3  0  0  0  0  0  0
  190.0140  175.6960  143.2110 C   0  0  0  0  0  3  0  0  0  0  0  0
  192.0920  176.9840  142.7140 C   0  0  0  0  0  3  0  0  0  0  0  0
  191.2880  175.9990  143.4480 C   0  0  0  0  0  0  0  0  0  0  0  0
  188.1860  177.3300  140.2350 C   0  0  2  0  0  3  0  0  0  0  0  0
  189.3590  176.9400  141.1020 C   0  0  0  0  0  0  0  0  0  0  0  0
  191.9130  175.3560  144.5520 N   0  0  0  0  0  1  0  0  0  0  0  0
  189.0990  176.2120  142.1860 C   0  0  0  0  0  3  0  0  0  0  0  0
  188.5820  177.3850  138.8230 N   0  0  0  0  0  0  0  0  0  0  0  0
  185.8840  178.0560  143.4070 N   0  0  0  0  0  0  0  0  0  0  0  0
  185.9530  178.9320  142.4880 N   0  0  0  0  0  0  0  0  0  0  0  0
  184.4560  178.9950  145.2050 C   0  0  0  0  0  1  0  0  0  0  0  0
  185.7180  178.4110  144.7560 N   0  0  0  0  0  0  0  0  0  0  0  0
  187.7440  178.2210  148.0410 C   0  0  0  0  0  2  0  0  0  0  0  0
  186.4920  178.1760  147.1670 C   0  0  0  0  0  2  0  0  0  0  0  0
  188.0130  177.8350  145.2300 C   0  0  0  0  0  3  0  0  0  0  0  0
  189.1910  177.6010  146.1340 C   0  0  0  0  0  2  0  0  0  0  0  0
  186.7920  178.1710  145.6820 C   0  0  0  0  0  0  0  0  0  0  0  0
  188.7530  177.2010  147.5370 C   0  0  0  0  0  2  0  0  0  0  0  0
  185.2780  179.3720  140.2500 N   0  0  0  0  0  2  0  0  0  0  0  0
  181.2830  178.4380  139.2130 C   0  0  0  0  0  0  0  0  0  0  0  0
  181.9640  179.4630  138.5510 C   0  0  0  0  0  3  0  0  0  0  0  0
  183.2420  178.0130  140.5710 C   0  0  0  0  0  3  0  0  0  0  0  0
  183.9270  179.0460  139.9130 C   0  0  0  0  0  0  0  0  0  0  0  0
  181.9210  177.7120  140.2220 C   0  0  0  0  0  3  0  0  0  0  0  0
  183.2840  179.7650  138.9000 C   0  0  0  0  0  3  0  0  0  0  0  0
  179.9720  178.1400  138.8670 O   0  0  0  0  0  1  0  0  0  0  0  0
  1 26  1  6  0  0  0
  1 17  1  0  0  0  0
  3  1  1  0  0  0  0
  3  2  1  1  0  0  0
  4 12  2  0  0  0  0
  4  5  1  0  0  0  0
  5  9  1  0  0  0  0
  6  4  1  0  0  0  0
  7 15  2  0  0  0  0
  7  6  1  0  0  0  0
  8 10  1  0  0  0  0
  9 10  2  0  0  0  0
 10 13  1  0  0  0  0
 11  3  1  1  0  0  0
 11 12  1  0  0  0  0
 12 14  1  0  0  0  0
 14  8  2  0  0  0  0
 15 11  1  0  0  0  0
 16 19  1  0  0  0  0
 17 16  2  0  0  0  0
 19 18  1  0  0  0  0
 19 24  1  0  0  0  0
 21 20  1  0  0  0  0
 22 24  2  0  0  0  0
 22 23  1  0  0  0  0
 23 25  1  0  0  0  0
 24 21  1  0  0  0  0
 25 20  1  0  0  0  0
 27 31  1  0  0  0  0
 28 32  1  0  0  0  0
 28 27  2  0  0  0  0
 30 26  1  0  0  0  0
 30 29  1  0  0  0  0
 31 29  2  0  0  0  0
 32 30  2  0  0  0  0
 33 27  1  0  0  0  0
M  END
>  <MODEL>
5

>  <REMARK>
 VINA RESULT:      -8.2      2.334      6.117
  Name = 
  7 active torsions:
  status: ('A' for Active; 'I' for Inactive)
    1  A    between atoms: N_6  and  N_24
    2  A    between atoms: N_6  and  C_26
    3  A    between atoms: C_17  and  C_23
    4  A    between atoms: C_18  and  N_19
    5  A    between atoms: N_19  and  C_22
    6  A    between atoms: C_22  and  C_23
    7  A    between atoms: C_22  and  N_25
                            x       y       z     vdW  Elec       q    Type
                         _______ _______ _______ _____ _____    ______ ____

>  <TORSDO>
F 7

$$$$
=
 OpenBabel11032420283D

 33 36  0  0  1  0  0  0  0  0999 V2000
  186.9740  178.8310  140.9860 C   0  0  1  0  0  3  0  0  0  0  0  0
  184.8830  179.7870  140.3150 O   0  0  0  0  0  1  0  0  0  0  0  0
  185.5730  179.2750  141.4200 C   0  0  1  0  0  3  0  0  0  0  0  0
  182.3000  178.7190  142.0150 C   0  0  0  0  0  0  0  0  0  0  0  0
  181.0840  179.1380  141.3140 C   0  0  0  0  0  3  0  0  0  0  0  0
  182.4250  179.1040  143.2500 N   0  0  0  0  0  2  0  0  0  0  0  0
  183.5810  178.7870  144.0380 C   0  0  0  0  0  3  0  0  0  0  0  0
  182.1600  176.8700  139.4850 C   0  0  0  0  0  3  0  0  0  0  0  0
  180.5320  178.6090  140.2260 C   0  0  0  0  0  3  0  0  0  0  0  0
  180.9630  177.4510  139.4350 C   0  0  0  0  0  0  0  0  0  0  0  0
  184.7760  178.1080  142.0330 C   0  0  2  0  0  3  0  0  0  0  0  0
  183.4170  177.9780  141.3870 C   0  0  1  0  0  3  0  0  0  0  0  0
  180.0360  176.9440  138.4830 N   0  0  0  0  0  1  0  0  0  0  0  0
  183.3240  177.1860  140.3210 C   0  0  0  0  0  3  0  0  0  0  0  0
  184.6430  178.2840  143.4840 N   0  0  0  0  0  0  0  0  0  0  0  0
  188.3550  178.0360  142.7410 N   0  0  0  0  0  0  0  0  0  0  0  0
  187.4650  177.7820  141.8700 N   0  0  0  0  0  0  0  0  0  0  0  0
  189.5350  175.8760  143.0550 C   0  0  0  0  0  1  0  0  0  0  0  0
  188.8480  177.0430  143.6050 N   0  0  0  0  0  0  0  0  0  0  0  0
  189.5640  176.9610  147.4020 C   0  0  0  0  0  2  0  0  0  0  0  0
  189.9060  177.0780  145.9170 C   0  0  0  0  0  2  0  0  0  0  0  0
  187.5010  177.5770  145.5340 C   0  0  0  0  0  3  0  0  0  0  0  0
  187.2490  177.7360  147.0080 C   0  0  0  0  0  2  0  0  0  0  0  0
  188.6880  177.2060  145.0250 C   0  0  0  0  0  0  0  0  0  0  0  0
  188.5360  178.0190  147.7720 C   0  0  0  0  0  2  0  0  0  0  0  0
  186.9370  178.3280  139.6160 N   0  0  0  0  0  2  0  0  0  0  0  0
  190.2550  176.6130  137.6250 C   0  0  0  0  0  0  0  0  0  0  0  0
  188.9580  176.1690  137.3510 C   0  0  0  0  0  3  0  0  0  0  0  0
  189.3720  178.2040  139.2220 C   0  0  0  0  0  3  0  0  0  0  0  0
  188.0680  177.7570  138.9540 C   0  0  0  0  0  0  0  0  0  0  0  0
  190.4620  177.6310  138.5600 C   0  0  0  0  0  3  0  0  0  0  0  0
  187.8670  176.7420  138.0130 C   0  0  0  0  0  3  0  0  0  0  0  0
  191.3360  176.0430  136.9690 O   0  0  0  0  0  1  0  0  0  0  0  0
  1 26  1  6  0  0  0
  1  3  1  0  0  0  0
  1 17  1  0  0  0  0
  3  2  1  6  0  0  0
  4  6  1  0  0  0  0
  5  4  2  0  0  0  0
  6  7  1  0  0  0  0
  8 14  2  0  0  0  0
  9  5  1  0  0  0  0
 10  8  1  0  0  0  0
 10  9  2  0  0  0  0
 11  3  1  6  0  0  0
 11 15  1  0  0  0  0
 12 14  1  1  0  0  0
 12  4  1  0  0  0  0
 12 11  1  0  0  0  0
 13 10  1  0  0  0  0
 15  7  2  0  0  0  0
 16 19  1  0  0  0  0
 17 16  2  0  0  0  0
 18 19  1  0  0  0  0
 19 24  1  0  0  0  0
 20 25  1  0  0  0  0
 21 20  1  0  0  0  0
 22 23  1  0  0  0  0
 23 25  1  0  0  0  0
 24 22  2  0  0  0  0
 24 21  1  0  0  0  0
 27 31  1  0  0  0  0
 28 27  2  0  0  0  0
 28 32  1  0  0  0  0
 30 29  1  0  0  0  0
 30 26  1  0  0  0  0
 31 29  2  0  0  0  0
 32 30  2  0  0  0  0
 33 27  1  0  0  0  0
M  END
>  <MODEL>
6

>  <REMARK>
 VINA RESULT:      -8.1      2.241      6.076
  Name = 
  7 active torsions:
  status: ('A' for Active; 'I' for Inactive)
    1  A    between atoms: N_6  and  N_24
    2  A    between atoms: N_6  and  C_26
    3  A    between atoms: C_17  and  C_23
    4  A    between atoms: C_18  and  N_19
    5  A    between atoms: N_19  and  C_22
    6  A    between atoms: C_22  and  C_23
    7  A    between atoms: C_22  and  N_25
                            x       y       z     vdW  Elec       q    Type
                         _______ _______ _______ _____ _____    ______ ____

>  <TORSDO>
F 7

$$$$
=
 OpenBabel11032420283D

 33 36  0  0  1  0  0  0  0  0999 V2000
  186.9080  178.5340  142.3040 C   0  0  1  0  0  3  0  0  0  0  0  0
  186.3330  178.6570  139.9830 O   0  0  0  0  0  1  0  0  0  0  0  0
  187.2710  178.1230  140.8730 C   0  0  1  0  0  3  0  0  0  0  0  0
  189.8160  176.7830  139.1120 C   0  0  0  0  0  0  0  0  0  0  0  0
  189.8520  175.8720  137.9650 C   0  0  0  0  0  3  0  0  0  0  0  0
  190.3990  176.3760  140.2010 N   0  0  0  0  0  2  0  0  0  0  0  0
  190.4100  177.1590  141.4020 C   0  0  0  0  0  3  0  0  0  0  0  0
  189.0460  178.5680  136.6510 C   0  0  0  0  0  3  0  0  0  0  0  0
  189.6810  176.1550  136.6780 C   0  0  0  0  0  3  0  0  0  0  0  0
  189.4340  177.4520  136.0370 C   0  0  0  0  0  0  0  0  0  0  0  0
  188.6830  178.6060  140.4890 C   0  0  2  0  0  3  0  0  0  0  0  0
  189.0910  178.0730  139.1370 C   0  0  1  0  0  3  0  0  0  0  0  0
  189.5620  177.5020  134.6210 N   0  0  0  0  0  1  0  0  0  0  0  0
  188.7920  178.8190  138.0740 C   0  0  0  0  0  3  0  0  0  0  0  0
  189.6570  178.2110  141.5150 N   0  0  0  0  0  0  0  0  0  0  0  0
  184.5850  178.2030  142.6500 N   0  0  0  0  0  0  0  0  0  0  0  0
  185.5290  179.0030  142.3570 N   0  0  0  0  0  0  0  0  0  0  0  0
  182.7000  179.1520  143.9540 C   0  0  0  0  0  1  0  0  0  0  0  0
  183.2470  178.6280  142.7050 N   0  0  0  0  0  0  0  0  0  0  0  0
  182.1730  178.0430  139.0390 C   0  0  0  0  0  2  0  0  0  0  0  0
  182.9600  177.7840  140.3230 C   0  0  0  0  0  2  0  0  0  0  0  0
  181.2010  179.0810  141.5080 C   0  0  0  0  0  3  0  0  0  0  0  0
  180.3130  179.0770  140.2950 C   0  0  0  0  0  2  0  0  0  0  0  0
  182.4410  178.5600  141.5160 C   0  0  0  0  0  0  0  0  0  0  0  0
  180.6830  177.9600  139.3300 C   0  0  0  0  0  2  0  0  0  0  0  0
  187.0650  177.3970  143.2060 N   0  0  0  0  0  2  0  0  0  0  0  0
  188.3400  177.7630  147.2250 C   0  0  0  0  0  0  0  0  0  0  0  0
  189.2590  177.4630  146.2160 C   0  0  0  0  0  3  0  0  0  0  0  0
  186.5610  177.8300  145.5840 C   0  0  0  0  0  3  0  0  0  0  0  0
  187.4800  177.5220  144.5690 C   0  0  0  0  0  0  0  0  0  0  0  0
  186.9920  177.9480  146.9090 C   0  0  0  0  0  3  0  0  0  0  0  0
  188.8290  177.3440  144.8900 C   0  0  0  0  0  3  0  0  0  0  0  0
  188.7680  177.8800  148.5400 O   0  0  0  0  0  1  0  0  0  0  0  0
  1 17  1  6  0  0  0
  1 26  1  0  0  0  0
  3  2  1  6  0  0  0
  3  1  1  0  0  0  0
  4 12  1  0  0  0  0
  4  6  1  0  0  0  0
  5  4  2  0  0  0  0
  6  7  1  0  0  0  0
  7 15  2  0  0  0  0
  8 14  2  0  0  0  0
  9  5  1  0  0  0  0
 10  8  1  0  0  0  0
 10  9  2  0  0  0  0
 11  3  1  1  0  0  0
 11 15  1  0  0  0  0
 12 14  1  1  0  0  0
 12 11  1  0  0  0  0
 13 10  1  0  0  0  0
 16 19  1  0  0  0  0
 17 16  2  0  0  0  0
 19 18  1  0  0  0  0
 20 25  1  0  0  0  0
 20 21  1  0  0  0  0
 21 24  1  0  0  0  0
 22 24  2  0  0  0  0
 23 22  1  0  0  0  0
 24 19  1  0  0  0  0
 25 23  1  0  0  0  0
 26 30  1  0  0  0  0
 27 33  1  0  0  0  0
 28 27  2  0  0  0  0
 29 31  2  0  0  0  0
 30 32  2  0  0  0  0
 30 29  1  0  0  0  0
 31 27  1  0  0  0  0
 32 28  1  0  0  0  0
M  END
>  <MODEL>
7

>  <REMARK>
 VINA RESULT:      -7.9      2.403      6.973
  Name = 
  7 active torsions:
  status: ('A' for Active; 'I' for Inactive)
    1  A    between atoms: N_6  and  N_24
    2  A    between atoms: N_6  and  C_26
    3  A    between atoms: C_17  and  C_23
    4  A    between atoms: C_18  and  N_19
    5  A    between atoms: N_19  and  C_22
    6  A    between atoms: C_22  and  C_23
    7  A    between atoms: C_22  and  N_25
                            x       y       z     vdW  Elec       q    Type
                         _______ _______ _______ _____ _____    ______ ____

>  <TORSDO>
F 7

$$$$
=
 OpenBabel11032420283D

 33 36  0  0  1  0  0  0  0  0999 V2000
  190.3780  176.9600  140.4710 C   0  0  1  0  0  3  0  0  0  0  0  0
  189.7590  178.4530  142.2390 O   0  0  0  0  0  1  0  0  0  0  0  0
  190.5380  177.3270  141.9510 C   0  0  1  0  0  3  0  0  0  0  0  0
  189.8320  177.0590  145.2380 C   0  0  0  0  0  0  0  0  0  0  0  0
  189.2260  177.9860  146.1970 C   0  0  0  0  0  2  0  0  0  0  0  0
  191.0400  176.6550  145.4980 N   0  0  0  0  0  2  0  0  0  0  0  0
  191.7570  175.7710  144.6260 C   0  0  0  0  0  3  0  0  0  0  0  0
  186.7680  177.0080  144.5710 C   0  0  0  0  0  3  0  0  0  0  0  0
  187.9390  178.2580  146.3850 C   0  0  0  0  0  3  0  0  0  0  0  0
  186.7630  177.6960  145.7100 C   0  0  0  0  0  0  0  0  0  0  0  0
  190.1230  176.1610  142.8690 C   0  0  2  0  0  3  0  0  0  0  0  0
  189.2020  176.6350  143.9680 C   0  0  0  0  0  0  0  0  0  0  0  0
  185.4960  177.9690  146.2970 N   0  0  0  0  0  1  0  0  0  0  0  0
  187.8940  176.6080  143.7180 C   0  0  0  0  0  3  0  0  0  0  0  0
  191.3090  175.5070  143.4350 N   0  0  0  0  0  0  0  0  0  0  0  0
  188.3240  177.2710  139.3280 N   0  0  0  0  0  0  0  0  0  0  0  0
  189.3550  177.7950  139.8550 N   0  0  0  0  0  0  0  0  0  0  0  0
  187.4440  178.4270  137.3160 C   0  0  0  0  0  1  0  0  0  0  0  0
  187.3250  178.0530  138.7240 N   0  0  0  0  0  0  0  0  0  0  0  0
  183.7670  179.2400  139.6570 C   0  0  0  0  0  2  0  0  0  0  0  0
  184.8260  178.5140  138.8280 C   0  0  0  0  0  2  0  0  0  0  0  0
  186.3000  178.6560  140.8240 C   0  0  0  0  0  3  0  0  0  0  0  0
  185.1600  179.1060  141.6950 C   0  0  0  0  0  2  0  0  0  0  0  0
  186.1820  178.4530  139.5010 C   0  0  0  0  0  0  0  0  0  0  0  0
  183.8120  178.7370  141.0910 C   0  0  0  0  0  2  0  0  0  0  0  0
  191.6430  177.1510  139.7700 N   0  0  0  0  0  2  0  0  0  0  0  0
  192.6950  174.9690  136.2990 C   0  0  0  0  0  0  0  0  0  0  0  0
  191.5110  174.6810  136.9840 C   0  0  0  0  0  3  0  0  0  0  0  0
  193.1980  176.7120  137.9020 C   0  0  0  0  0  3  0  0  0  0  0  0
  192.0140  176.4210  138.5970 C   0  0  0  0  0  0  0  0  0  0  0  0
  193.5370  175.9860  136.7570 C   0  0  0  0  0  3  0  0  0  0  0  0
  191.1710  175.4070  138.1300 C   0  0  0  0  0  3  0  0  0  0  0  0
  193.0320  174.2480  135.1620 O   0  0  0  0  0  1  0  0  0  0  0  0
  1 26  1  6  0  0  0
  1  3  1  0  0  0  0
  3  2  1  1  0  0  0
  4  6  1  0  0  0  0
  4  5  1  0  0  0  0
  5  9  1  0  0  0  0
  7  6  1  0  0  0  0
  8 10  1  0  0  0  0
 10 13  1  0  0  0  0
 10  9  2  0  0  0  0
 11  3  1  1  0  0  0
 11 15  1  0  0  0  0
 11 12  1  0  0  0  0
 12  4  2  0  0  0  0
 14 12  1  0  0  0  0
 14  8  2  0  0  0  0
 15  7  2  0  0  0  0
 16 17  2  0  0  0  0
 17  1  1  0  0  0  0
 18 19  1  0  0  0  0
 19 16  1  0  0  0  0
 19 24  1  0  0  0  0
 20 25  1  0  0  0  0
 21 24  1  0  0  0  0
 21 20  1  0  0  0  0
 22 23  1  0  0  0  0
 24 22  2  0  0  0  0
 25 23  1  0  0  0  0
 27 31  2  0  0  0  0
 27 28  1  0  0  0  0
 28 32  2  0  0  0  0
 29 30  2  0  0  0  0
 30 26  1  0  0  0  0
 31 29  1  0  0  0  0
 32 30  1  0  0  0  0
 33 27  1  0  0  0  0
M  END
>  <MODEL>
8

>  <REMARK>
 VINA RESULT:      -7.9      1.558      2.075
  Name = 
  7 active torsions:
  status: ('A' for Active; 'I' for Inactive)
    1  A    between atoms: N_6  and  N_24
    2  A    between atoms: N_6  and  C_26
    3  A    between atoms: C_17  and  C_23
    4  A    between atoms: C_18  and  N_19
    5  A    between atoms: N_19  and  C_22
    6  A    between atoms: C_22  and  C_23
    7  A    between atoms: C_22  and  N_25
                            x       y       z     vdW  Elec       q    Type
                         _______ _______ _______ _____ _____    ______ ____

>  <TORSDO>
F 7

$$$$
=
 OpenBabel11032420283D

 33 36  0  0  1  0  0  0  0  0999 V2000
  187.9430  177.8940  140.4920 C   0  0  1  0  0  3  0  0  0  0  0  0
  189.8680  177.8120  139.0700 O   0  0  0  0  0  1  0  0  0  0  0  0
  188.4760  177.9530  139.0560 C   0  0  1  0  0  3  0  0  0  0  0  0
  188.8960  176.9830  135.8540 C   0  0  0  0  0  0  0  0  0  0  0  0
  190.0610  176.9860  134.9650 C   0  0  0  0  0  3  0  0  0  0  0  0
  187.8680  177.6810  135.4720 N   0  0  0  0  0  2  0  0  0  0  0  0
  186.6770  177.7860  136.2640 C   0  0  0  0  0  3  0  0  0  0  0  0
  190.6440  174.5650  136.8220 C   0  0  0  0  0  3  0  0  0  0  0  0
  191.0610  176.1110  134.9080 C   0  0  0  0  0  3  0  0  0  0  0  0
  191.2710  174.8890  135.6930 C   0  0  0  0  0  0  0  0  0  0  0  0
  187.8520  176.8530  138.1770 C   0  0  2  0  0  3  0  0  0  0  0  0
  188.8520  176.3220  137.1780 C   0  0  1  0  0  3  0  0  0  0  0  0
  192.2840  174.0000  135.2360 N   0  0  0  0  0  1  0  0  0  0  0  0
  189.5970  175.2850  137.5550 C   0  0  0  0  0  3  0  0  0  0  0  0
  186.6570  177.3600  137.4910 N   0  0  0  0  0  0  0  0  0  0  0  0
  189.1540  177.1620  142.3940 N   0  0  0  0  0  0  0  0  0  0  0  0
  189.0440  177.9950  141.4410 N   0  0  0  0  0  0  0  0  0  0  0  0
  191.5820  177.3750  142.8590 C   0  0  0  0  0  1  0  0  0  0  0  0
  190.2030  177.2380  143.3250 N   0  0  0  0  0  0  0  0  0  0  0  0
  190.5590  176.6970  147.1350 C   0  0  0  0  0  2  0  0  0  0  0  0
  191.0320  177.0280  145.7200 C   0  0  0  0  0  2  0  0  0  0  0  0
  188.6450  177.4360  145.1580 C   0  0  0  0  0  3  0  0  0  0  0  0
  188.2440  177.3850  146.6050 C   0  0  0  0  0  2  0  0  0  0  0  0
  189.8980  177.2030  144.7310 C   0  0  0  0  0  0  0  0  0  0  0  0
  189.4300  177.6370  147.5270 C   0  0  0  0  0  2  0  0  0  0  0  0
  187.0060  178.9890  140.7220 N   0  0  0  0  0  2  0  0  0  0  0  0
  183.5650  178.6510  143.1640 C   0  0  0  0  0  0  0  0  0  0  0  0
  183.4450  178.6780  141.7720 C   0  0  0  0  0  3  0  0  0  0  0  0
  185.9700  178.8430  142.9600 C   0  0  0  0  0  3  0  0  0  0  0  0
  185.8530  178.8780  141.5610 C   0  0  0  0  0  0  0  0  0  0  0  0
  184.8280  178.7330  143.7580 C   0  0  0  0  0  3  0  0  0  0  0  0
  184.5870  178.7900  140.9730 C   0  0  0  0  0  3  0  0  0  0  0  0
  182.4310  178.5420  143.9560 O   0  0  0  0  0  1  0  0  0  0  0  0
  1 26  1  1  0  0  0
  1 17  1  0  0  0  0
  3  2  1  1  0  0  0
  3  1  1  0  0  0  0
  4 12  1  0  0  0  0
  5  4  2  0  0  0  0
  6  4  1  0  0  0  0
  6  7  1  0  0  0  0
  7 15  2  0  0  0  0
  8 14  2  0  0  0  0
  9  5  1  0  0  0  0
  9 10  2  0  0  0  0
 10  8  1  0  0  0  0
 11  3  1  6  0  0  0
 12 14  1  6  0  0  0
 12 11  1  0  0  0  0
 13 10  1  0  0  0  0
 15 11  1  0  0  0  0
 16 19  1  0  0  0  0
 17 16  2  0  0  0  0
 18 19  1  0  0  0  0
 19 24  1  0  0  0  0
 20 25  1  0  0  0  0
 21 20  1  0  0  0  0
 22 23  1  0  0  0  0
 23 25  1  0  0  0  0
 24 22  2  0  0  0  0
 24 21  1  0  0  0  0
 26 30  1  0  0  0  0
 27 31  1  0  0  0  0
 27 33  1  0  0  0  0
 28 27  2  0  0  0  0
 29 31  2  0  0  0  0
 30 29  1  0  0  0  0
 32 30  2  0  0  0  0
 32 28  1  0  0  0  0
M  END
>  <MODEL>
9

>  <REMARK>
 VINA RESULT:      -7.8      2.387      8.129
  Name = 
  7 active torsions:
  status: ('A' for Active; 'I' for Inactive)
    1  A    between atoms: N_6  and  N_24
    2  A    between atoms: N_6  and  C_26
    3  A    between atoms: C_17  and  C_23
    4  A    between atoms: C_18  and  N_19
    5  A    between atoms: N_19  and  C_22
    6  A    between atoms: C_22  and  C_23
    7  A    between atoms: C_22  and  N_25
                            x       y       z     vdW  Elec       q    Type
                         _______ _______ _______ _____ _____    ______ ____

>  <TORSDO>
F 7

$$$$
