=
 OpenBabel11042409503D

 33 37  0  0  1  0  0  0  0  0999 V2000
  184.6410  178.6060  140.9870 C   0  0  0  0  0  3  0  0  0  0  0  0
  186.4580  178.4170  139.3610 C   0  0  0  0  0  0  0  0  0  0  0  0
  185.0980  178.6430  139.6590 C   0  0  0  0  0  3  0  0  0  0  0  0
  185.3640  178.2250  143.4740 C   0  0  2  0  0  3  0  0  0  0  0  0
  188.7150  177.9090  140.1260 O   0  0  0  0  0  1  0  0  0  0  0  0
  186.7120  177.9080  143.9580 N   0  0  0  0  0  0  0  0  0  0  0  0
  188.9420  177.5600  143.1060 N   0  0  0  0  0  2  0  0  0  0  0  0
  187.3720  178.1450  140.3970 C   0  0  0  0  0  0  0  0  0  0  0  0
  186.8880  178.1170  141.7060 C   0  0  0  0  0  0  0  0  0  0  0  0
  185.5690  178.3470  141.9960 C   0  0  0  0  0  0  0  0  0  0  0  0
  187.5450  177.8520  142.9660 C   0  0  0  0  0  0  0  0  0  0  0  0
  189.0980  175.4610  136.8060 C   0  0  0  0  0  3  0  0  0  0  0  0
  186.8940  178.4610  138.0060 N   0  0  0  0  0  0  0  0  0  0  0  0
  187.6320  177.9020  136.8420 C   0  0  1  0  0  0  0  0  0  0  0  0
  190.0410  176.8900  134.7110 Cl  0  0  0  0  0  0  0  0  0  0  0  0
  186.9730  176.6290  136.3110 C   0  0  0  0  0  2  0  0  0  0  0  0
  187.7590  175.4190  136.7350 C   0  0  0  0  0  3  0  0  0  0  0  0
  189.8530  176.7230  136.4770 C   0  0  1  0  0  3  0  0  0  0  0  0
  186.9720  179.0940  136.6510 C   0  0  0  0  0  2  0  0  0  0  0  0
  189.1490  177.9560  137.0570 C   0  0  0  0  0  2  0  0  0  0  0  0
  189.0760  177.5550  145.5800 C   0  0  0  0  0  3  0  0  0  0  0  0
  191.0960  176.7650  146.6910 C   0  0  0  0  0  0  0  0  0  0  0  0
  189.7820  177.2950  146.7590 C   0  0  0  0  0  0  0  0  0  0  0  0
  190.9380  176.7800  144.2600 C   0  0  0  0  0  3  0  0  0  0  0  0
  189.6460  177.3000  144.3270 C   0  0  0  0  0  0  0  0  0  0  0  0
  189.0950  177.5960  148.0480 C   0  0  0  0  0  1  0  0  0  0  0  0
  191.6540  176.5150  145.4300 C   0  0  0  0  0  3  0  0  0  0  0  0
  191.9200  176.4590  147.8850 C   0  0  0  0  0  0  0  0  0  0  0  0
  192.3050  177.4860  148.7410 O   0  0  0  0  0  1  0  0  0  0  0  0
  192.2850  175.2830  148.1480 O   0  0  0  0  0  0  0  0  0  0  0  0
  184.9110  179.5510  144.0720 C   0  0  0  0  0  2  0  0  0  0  0  0
  184.2920  178.9520  146.1600 O   0  0  0  0  0  1  0  0  0  0  0  0
  183.7830  179.3460  144.9680 N   0  0  0  0  0  2  0  0  0  0  0  0
  1 10  1  0  0  0  0
  2  3  1  0  0  0  0
  2  8  2  0  0  0  0
  3  1  2  0  0  0  0
  4  6  1  0  0  0  0
  4 31  1  1  0  0  0
  5  8  1  0  0  0  0
  7 25  1  0  0  0  0
  8  9  1  0  0  0  0
  9 10  2  0  0  0  0
  9 11  1  0  0  0  0
 10  4  1  0  0  0  0
 11  7  1  0  0  0  0
 11  6  2  0  0  0  0
 13  2  1  0  0  0  0
 14 16  1  6  0  0  0
 14 20  1  0  0  0  0
 14 13  1  0  0  0  0
 16 17  1  0  0  0  0
 17 12  2  0  0  0  0
 18 15  1  6  0  0  0
 18 12  1  0  0  0  0
 18 20  1  0  0  0  0
 19 14  1  0  0  0  0
 19 13  1  0  0  0  0
 21 23  1  0  0  0  0
 22 23  2  0  0  0  0
 22 28  1  0  0  0  0
 23 26  1  0  0  0  0
 24 25  1  0  0  0  0
 24 27  2  0  0  0  0
 25 21  2  0  0  0  0
 27 22  1  0  0  0  0
 28 30  2  0  0  0  0
 28 29  1  0  0  0  0
 31 33  1  0  0  0  0
 33 32  1  0  0  0  0
M  END
>  <MODEL>
1

>  <REMARK>
 VINA RESULT:      -9.1      0.000      0.000
  Name = 
  5 active torsions:
  status: ('A' for Active; 'I' for Inactive)
    1  A    between atoms: C_1  and  C_8
    2  A    between atoms: N_3  and  C_11
    3  A    between atoms: N_13  and  C_18
    4  A    between atoms: C_18  and  C_19
    5  A    between atoms: C_22  and  N_25
                            x       y       z     vdW  Elec       q    Type
                         _______ _______ _______ _____ _____    ______ ____

>  <TORSDO>
F 5

$$$$
=
 OpenBabel11042409503D

 33 37  0  0  1  0  0  0  0  0999 V2000
  188.1950  178.2440  138.1420 C   0  0  0  0  0  3  0  0  0  0  0  0
  185.9980  178.5610  139.1700 C   0  0  0  0  0  0  0  0  0  0  0  0
  186.8240  178.5330  138.0280 C   0  0  0  0  0  3  0  0  0  0  0  0
  190.1120  177.6730  139.8290 C   0  0  2  0  0  3  0  0  0  0  0  0
  185.7520  178.3370  141.5850 O   0  0  0  0  0  1  0  0  0  0  0  0
  189.9920  177.5430  141.2860 N   0  0  0  0  0  0  0  0  0  0  0  0
  188.3160  177.6820  143.0160 N   0  0  0  0  0  2  0  0  0  0  0  0
  186.5450  178.3040  140.4430 C   0  0  0  0  0  0  0  0  0  0  0  0
  187.9090  178.0180  140.5240 C   0  0  0  0  0  0  0  0  0  0  0  0
  188.7080  177.9800  139.4120 C   0  0  0  0  0  0  0  0  0  0  0  0
  188.7630  177.7370  141.6550 C   0  0  0  0  0  0  0  0  0  0  0  0
  182.2530  175.7950  138.4200 C   0  0  0  0  0  3  0  0  0  0  0  0
  184.6120  178.8560  139.0260 N   0  0  0  0  0  0  0  0  0  0  0  0
  183.1980  178.4540  138.8020 C   0  0  1  0  0  0  0  0  0  0  0  0
  180.3060  177.3940  137.4330 Cl  0  0  0  0  0  0  0  0  0  0  0  0
  182.6360  177.6720  139.9880 C   0  0  0  0  0  2  0  0  0  0  0  0
  182.5640  176.2060  139.6580 C   0  0  0  0  0  3  0  0  0  0  0  0
  181.9800  176.7880  137.3200 C   0  0  1  0  0  3  0  0  0  0  0  0
  183.4480  179.7960  138.9790 C   0  0  0  0  0  2  0  0  0  0  0  0
  182.9720  177.9570  137.3690 C   0  0  0  0  0  2  0  0  0  0  0  0
  188.6110  177.5250  145.4710 C   0  0  0  0  0  3  0  0  0  0  0  0
  190.7510  176.8240  146.4000 C   0  0  0  0  0  0  0  0  0  0  0  0
  189.4100  177.2450  146.5850 C   0  0  0  0  0  0  0  0  0  0  0  0
  190.4350  176.9840  143.9900 C   0  0  0  0  0  3  0  0  0  0  0  0
  189.1150  177.3980  144.1710 C   0  0  0  0  0  0  0  0  0  0  0  0
  188.7880  177.4070  147.9300 C   0  0  0  0  0  1  0  0  0  0  0  0
  191.2430  176.7000  145.0930 C   0  0  0  0  0  3  0  0  0  0  0  0
  191.6720  176.5050  147.5180 C   0  0  0  0  0  0  0  0  0  0  0  0
  192.0720  177.5110  148.3920 O   0  0  0  0  0  1  0  0  0  0  0  0
  192.1070  175.3370  147.7000 O   0  0  0  0  0  0  0  0  0  0  0  0
  190.5770  176.3460  139.2400 C   0  0  0  0  0  2  0  0  0  0  0  0
  192.7470  176.7210  138.7370 O   0  0  0  0  0  1  0  0  0  0  0  0
  191.5290  176.5730  138.1640 N   0  0  0  0  0  2  0  0  0  0  0  0
  1 10  1  0  0  0  0
  2  8  2  0  0  0  0
  3  1  2  0  0  0  0
  3  2  1  0  0  0  0
  4 31  1  6  0  0  0
  4  6  1  0  0  0  0
  6 11  2  0  0  0  0
  7 25  1  0  0  0  0
  8  9  1  0  0  0  0
  8  5  1  0  0  0  0
  9 11  1  0  0  0  0
 10  4  1  0  0  0  0
 10  9  2  0  0  0  0
 11  7  1  0  0  0  0
 12 17  2  0  0  0  0
 13  2  1  0  0  0  0
 14 20  1  6  0  0  0
 14 19  1  0  0  0  0
 14 13  1  0  0  0  0
 14 16  1  0  0  0  0
 17 16  1  0  0  0  0
 18 20  1  0  0  0  0
 18 15  1  1  0  0  0
 18 12  1  0  0  0  0
 19 13  1  0  0  0  0
 21 23  1  0  0  0  0
 22 23  2  0  0  0  0
 22 28  1  0  0  0  0
 23 26  1  0  0  0  0
 24 25  1  0  0  0  0
 24 27  2  0  0  0  0
 25 21  2  0  0  0  0
 27 22  1  0  0  0  0
 28 30  2  0  0  0  0
 28 29  1  0  0  0  0
 33 32  1  0  0  0  0
 33 31  1  0  0  0  0
M  END
>  <MODEL>
2

>  <REMARK>
 VINA RESULT:      -8.8      2.875      4.924
  Name = 
  5 active torsions:
  status: ('A' for Active; 'I' for Inactive)
    1  A    between atoms: C_1  and  C_8
    2  A    between atoms: N_3  and  C_11
    3  A    between atoms: N_13  and  C_18
    4  A    between atoms: C_18  and  C_19
    5  A    between atoms: C_22  and  N_25
                            x       y       z     vdW  Elec       q    Type
                         _______ _______ _______ _____ _____    ______ ____

>  <TORSDO>
F 5

$$$$
=
 OpenBabel11042409503D

 33 37  0  0  1  0  0  0  0  0999 V2000
  184.0790  178.9180  145.5890 C   0  0  0  0  0  3  0  0  0  0  0  0
  186.2350  178.0850  144.7900 C   0  0  0  0  0  0  0  0  0  0  0  0
  185.4030  178.5220  145.8410 C   0  0  0  0  0  3  0  0  0  0  0  0
  182.2760  179.2350  143.7190 C   0  0  2  0  0  3  0  0  0  0  0  0
  186.5500  177.6300  142.4170 O   0  0  0  0  0  1  0  0  0  0  0  0
  182.4440  178.9790  142.2840 N   0  0  0  0  0  0  0  0  0  0  0  0
  184.1200  178.1990  140.7350 N   0  0  0  0  0  2  0  0  0  0  0  0
  185.7440  178.0480  143.4710 C   0  0  0  0  0  0  0  0  0  0  0  0
  184.4240  178.4440  143.2520 C   0  0  0  0  0  0  0  0  0  0  0  0
  183.6130  178.8580  144.2760 C   0  0  0  0  0  0  0  0  0  0  0  0
  183.6400  178.5400  142.0420 C   0  0  0  0  0  0  0  0  0  0  0  0
  189.9870  177.4460  142.0060 C   0  0  0  0  0  3  0  0  0  0  0  0
  187.5740  177.6900  145.0740 N   0  0  0  0  0  0  0  0  0  0  0  0
  188.9660  177.3660  144.6620 C   0  0  1  0  0  0  0  0  0  0  0  0
  191.7060  175.8750  143.3840 Cl  0  0  0  0  0  0  0  0  0  0  0  0
  189.7170  178.6050  144.1760 C   0  0  0  0  0  2  0  0  0  0  0  0
  189.8200  178.5960  142.6750 C   0  0  0  0  0  3  0  0  0  0  0  0
  190.0640  176.1290  142.7340 C   0  0  1  0  0  3  0  0  0  0  0  0
  188.6730  177.2790  146.0040 C   0  0  0  0  0  2  0  0  0  0  0  0
  189.0280  176.0590  143.8630 C   0  0  0  0  0  2  0  0  0  0  0  0
  182.6970  179.4200  139.1150 C   0  0  0  0  0  3  0  0  0  0  0  0
  181.9570  178.3210  137.0710 C   0  0  0  0  0  0  0  0  0  0  0  0
  181.9850  179.4620  137.9120 C   0  0  0  0  0  0  0  0  0  0  0  0
  183.3580  177.1430  138.6780 C   0  0  0  0  0  3  0  0  0  0  0  0
  183.3860  178.2650  139.5060 C   0  0  0  0  0  0  0  0  0  0  0  0
  181.2820  180.7340  137.5780 C   0  0  0  0  0  1  0  0  0  0  0  0
  182.6510  177.1720  137.4740 C   0  0  0  0  0  3  0  0  0  0  0  0
  181.2300  178.2720  135.7790 C   0  0  0  0  0  0  0  0  0  0  0  0
  181.9050  178.5510  134.5950 O   0  0  0  0  0  0  0  0  0  0  0  0
  180.0050  177.9840  135.7240 O   0  0  0  0  0  1  0  0  0  0  0  0
  181.1810  178.3290  144.2700 C   0  0  0  0  0  2  0  0  0  0  0  0
  178.9400  178.5320  144.4600 O   0  0  0  0  0  1  0  0  0  0  0  0
  179.9380  178.5360  143.5440 N   0  0  0  0  0  2  0  0  0  0  0  0
  1  3  1  0  0  0  0
  2 13  1  0  0  0  0
  2  3  2  0  0  0  0
  4 31  1  1  0  0  0
  4 10  1  0  0  0  0
  5  8  1  0  0  0  0
  6  4  1  0  0  0  0
  7 11  1  0  0  0  0
  8  2  1  0  0  0  0
  9  8  2  0  0  0  0
  9 10  1  0  0  0  0
 10  1  2  0  0  0  0
 11  6  2  0  0  0  0
 11  9  1  0  0  0  0
 12 17  2  0  0  0  0
 12 18  1  0  0  0  0
 13 19  1  0  0  0  0
 14 20  1  6  0  0  0
 14 13  1  0  0  0  0
 14 19  1  0  0  0  0
 16 14  1  0  0  0  0
 17 16  1  0  0  0  0
 18 15  1  1  0  0  0
 18 20  1  0  0  0  0
 21 25  1  0  0  0  0
 22 27  2  0  0  0  0
 22 23  1  0  0  0  0
 23 21  2  0  0  0  0
 24 25  2  0  0  0  0
 25  7  1  0  0  0  0
 26 23  1  0  0  0  0
 27 24  1  0  0  0  0
 28 22  1  0  0  0  0
 29 28  2  0  0  0  0
 30 28  1  0  0  0  0
 33 31  1  0  0  0  0
 33 32  1  0  0  0  0
M  END
>  <MODEL>
3

>  <REMARK>
 VINA RESULT:      -8.8      4.048      8.834
  Name = 
  5 active torsions:
  status: ('A' for Active; 'I' for Inactive)
    1  A    between atoms: C_1  and  C_8
    2  A    between atoms: N_3  and  C_11
    3  A    between atoms: N_13  and  C_18
    4  A    between atoms: C_18  and  C_19
    5  A    between atoms: C_22  and  N_25
                            x       y       z     vdW  Elec       q    Type
                         _______ _______ _______ _____ _____    ______ ____

>  <TORSDO>
F 5

$$$$
=
 OpenBabel11042409503D

 33 37  0  0  1  0  0  0  0  0999 V2000
  186.4620  178.6150  138.6390 C   0  0  0  0  0  3  0  0  0  0  0  0
  184.4140  178.7280  139.9720 C   0  0  0  0  0  0  0  0  0  0  0  0
  185.0730  178.8130  138.7290 C   0  0  0  0  0  3  0  0  0  0  0  0
  188.6270  178.0950  140.0150 C   0  0  2  0  0  3  0  0  0  0  0  0
  184.5190  178.3680  142.3800 O   0  0  0  0  0  1  0  0  0  0  0  0
  188.7180  177.8860  141.4640 N   0  0  0  0  0  0  0  0  0  0  0  0
  187.2930  177.8220  143.4100 N   0  0  0  0  0  2  0  0  0  0  0  0
  185.1460  178.4470  141.1410 C   0  0  0  0  0  0  0  0  0  0  0  0
  186.5240  178.2520  141.0210 C   0  0  0  0  0  0  0  0  0  0  0  0
  187.1620  178.3250  139.8110 C   0  0  0  0  0  0  0  0  0  0  0  0
  187.5430  177.9750  142.0070 C   0  0  0  0  0  0  0  0  0  0  0  0
  181.1850  179.4250  136.6070 C   0  0  0  0  0  3  0  0  0  0  0  0
  183.0060  178.9330  140.0330 N   0  0  0  0  0  0  0  0  0  0  0  0
  181.6830  179.1760  139.3990 C   0  0  1  0  0  0  0  0  0  0  0  0
  179.0510  180.5660  137.8170 Cl  0  0  0  0  0  0  0  0  0  0  0  0
  181.2040  177.9620  138.6030 C   0  0  0  0  0  2  0  0  0  0  0  0
  181.3770  178.2040  137.1290 C   0  0  0  0  0  3  0  0  0  0  0  0
  180.8030  180.5910  137.4810 C   0  0  1  0  0  3  0  0  0  0  0  0
  181.7110  179.0720  140.7710 C   0  0  0  0  0  2  0  0  0  0  0  0
  181.5960  180.5820  138.7940 C   0  0  0  0  0  2  0  0  0  0  0  0
  187.9580  177.6450  145.7910 C   0  0  0  0  0  3  0  0  0  0  0  0
  190.2220  176.9630  146.3780 C   0  0  0  0  0  0  0  0  0  0  0  0
  188.9190  177.3640  146.7680 C   0  0  0  0  0  0  0  0  0  0  0  0
  189.5430  177.1430  144.0450 C   0  0  0  0  0  3  0  0  0  0  0  0
  188.2610  177.5380  144.4280 C   0  0  0  0  0  0  0  0  0  0  0  0
  188.5060  177.5050  148.1930 C   0  0  0  0  0  1  0  0  0  0  0  0
  190.5120  176.8590  145.0100 C   0  0  0  0  0  3  0  0  0  0  0  0
  191.3050  176.6460  147.3400 C   0  0  0  0  0  0  0  0  0  0  0  0
  191.8700  175.3740  147.3500 O   0  0  0  0  0  0  0  0  0  0  0  0
  191.7300  177.5030  148.1580 O   0  0  0  0  0  1  0  0  0  0  0  0
  189.0860  176.8340  139.2920 C   0  0  0  0  0  2  0  0  0  0  0  0
  190.9090  175.6270  138.7260 O   0  0  0  0  0  1  0  0  0  0  0  0
  190.4650  176.5250  139.6370 N   0  0  0  0  0  2  0  0  0  0  0  0
  1  3  2  0  0  0  0
  1 10  1  0  0  0  0
  2 13  1  0  0  0  0
  2  8  2  0  0  0  0
  3  2  1  0  0  0  0
  4 31  1  6  0  0  0
  4  6  1  0  0  0  0
  6 11  2  0  0  0  0
  7 25  1  0  0  0  0
  8  5  1  0  0  0  0
  9  8  1  0  0  0  0
  9 11  1  0  0  0  0
 10  4  1  0  0  0  0
 10  9  2  0  0  0  0
 11  7  1  0  0  0  0
 12 17  2  0  0  0  0
 12 18  1  0  0  0  0
 13 19  1  0  0  0  0
 14 16  1  6  0  0  0
 14 13  1  0  0  0  0
 14 19  1  0  0  0  0
 17 16  1  0  0  0  0
 18 15  1  1  0  0  0
 18 20  1  0  0  0  0
 20 14  1  0  0  0  0
 21 23  1  0  0  0  0
 22 23  2  0  0  0  0
 22 28  1  0  0  0  0
 23 26  1  0  0  0  0
 24 25  1  0  0  0  0
 24 27  2  0  0  0  0
 25 21  2  0  0  0  0
 27 22  1  0  0  0  0
 28 29  2  0  0  0  0
 28 30  1  0  0  0  0
 31 33  1  0  0  0  0
 32 33  1  0  0  0  0
M  END
>  <MODEL>
4

>  <REMARK>
 VINA RESULT:      -8.4      3.279      5.313
  Name = 
  5 active torsions:
  status: ('A' for Active; 'I' for Inactive)
    1  A    between atoms: C_1  and  C_8
    2  A    between atoms: N_3  and  C_11
    3  A    between atoms: N_13  and  C_18
    4  A    between atoms: C_18  and  C_19
    5  A    between atoms: C_22  and  N_25
                            x       y       z     vdW  Elec       q    Type
                         _______ _______ _______ _____ _____    ______ ____

>  <TORSDO>
F 5

$$$$
=
 OpenBabel11042409503D

 33 37  0  0  1  0  0  0  0  0999 V2000
  191.5480  177.4950  142.7200 C   0  0  0  0  0  3  0  0  0  0  0  0
  191.0620  177.0820  140.3590 C   0  0  0  0  0  0  0  0  0  0  0  0
  191.9820  177.1730  141.4230 C   0  0  0  0  0  3  0  0  0  0  0  0
  189.4530  178.0900  144.1730 C   0  0  2  0  0  3  0  0  0  0  0  0
  188.7680  177.2470  139.5510 O   0  0  0  0  0  1  0  0  0  0  0  0
  188.0660  178.2060  143.7080 N   0  0  0  0  0  0  0  0  0  0  0  0
  186.7760  177.9810  141.6820 N   0  0  0  0  0  2  0  0  0  0  0  0
  189.6930  177.3200  140.5870 C   0  0  0  0  0  0  0  0  0  0  0  0
  189.2910  177.6360  141.8870 C   0  0  0  0  0  0  0  0  0  0  0  0
  190.1850  177.7130  142.9220 C   0  0  0  0  0  0  0  0  0  0  0  0
  187.9940  177.9500  142.4390 C   0  0  0  0  0  0  0  0  0  0  0  0
  189.0280  174.8020  136.7670 C   0  0  0  0  0  3  0  0  0  0  0  0
  191.5300  176.7530  139.0540 N   0  0  0  0  0  0  0  0  0  0  0  0
  191.3580  176.1390  137.7110 C   0  0  1  0  0  0  0  0  0  0  0  0
  191.0350  173.9610  135.1590 Cl  0  0  0  0  0  0  0  0  0  0  0  0
  190.3390  176.9000  136.8650 C   0  0  0  0  0  2  0  0  0  0  0  0
  189.0400  176.1430  136.8080 C   0  0  0  0  0  3  0  0  0  0  0  0
  190.3120  174.0140  136.7890 C   0  0  1  0  0  3  0  0  0  0  0  0
  192.5620  176.7530  137.9700 C   0  0  0  0  0  2  0  0  0  0  0  0
  191.3090  174.6090  137.7920 C   0  0  0  0  0  2  0  0  0  0  0  0
  185.2190  178.4970  143.5400 C   0  0  0  0  0  3  0  0  0  0  0  0
  182.8520  178.8500  143.0850 C   0  0  0  0  0  0  0  0  0  0  0  0
  183.9300  178.7820  144.0030 C   0  0  0  0  0  0  0  0  0  0  0  0
  184.4030  178.3440  141.2770 C   0  0  0  0  0  3  0  0  0  0  0  0
  185.4640  178.2760  142.1790 C   0  0  0  0  0  0  0  0  0  0  0  0
  183.7640  179.0030  145.4690 C   0  0  0  0  0  1  0  0  0  0  0  0
  183.1110  178.6280  141.7260 C   0  0  0  0  0  3  0  0  0  0  0  0
  181.4540  179.1450  143.4830 C   0  0  0  0  0  0  0  0  0  0  0  0
  180.7460  178.2280  144.2540 O   0  0  0  0  0  1  0  0  0  0  0  0
  180.8830  180.2130  143.1380 O   0  0  0  0  0  0  0  0  0  0  0  0
  189.5470  176.9810  145.2140 C   0  0  0  0  0  2  0  0  0  0  0  0
  191.5610  177.1260  146.2270 O   0  0  0  0  0  1  0  0  0  0  0  0
  190.2560  177.4510  146.3940 N   0  0  0  0  0  2  0  0  0  0  0  0
  1 10  1  0  0  0  0
  2  8  2  0  0  0  0
  2  3  1  0  0  0  0
  3  1  2  0  0  0  0
  4 31  1  1  0  0  0
  5  8  1  0  0  0  0
  6  4  1  0  0  0  0
  7 25  1  0  0  0  0
  7 11  1  0  0  0  0
  8  9  1  0  0  0  0
  9 11  1  0  0  0  0
  9 10  2  0  0  0  0
 10  4  1  0  0  0  0
 11  6  2  0  0  0  0
 12 18  1  0  0  0  0
 12 17  2  0  0  0  0
 13  2  1  0  0  0  0
 14 16  1  6  0  0  0
 14 20  1  0  0  0  0
 14 19  1  0  0  0  0
 14 13  1  0  0  0  0
 17 16  1  0  0  0  0
 18 15  1  6  0  0  0
 18 20  1  0  0  0  0
 19 13  1  0  0  0  0
 21 23  1  0  0  0  0
 22 28  1  0  0  0  0
 22 23  2  0  0  0  0
 23 26  1  0  0  0  0
 24 27  2  0  0  0  0
 24 25  1  0  0  0  0
 25 21  2  0  0  0  0
 27 22  1  0  0  0  0
 28 29  1  0  0  0  0
 30 28  2  0  0  0  0
 31 33  1  0  0  0  0
 32 33  1  0  0  0  0
M  END
>  <MODEL>
5

>  <REMARK>
 VINA RESULT:      -8.2      2.420      6.223
  Name = 
  5 active torsions:
  status: ('A' for Active; 'I' for Inactive)
    1  A    between atoms: C_1  and  C_8
    2  A    between atoms: N_3  and  C_11
    3  A    between atoms: N_13  and  C_18
    4  A    between atoms: C_18  and  C_19
    5  A    between atoms: C_22  and  N_25
                            x       y       z     vdW  Elec       q    Type
                         _______ _______ _______ _____ _____    ______ ____

>  <TORSDO>
F 5

$$$$
=
 OpenBabel11042409503D

 33 37  0  0  1  0  0  0  0  0999 V2000
  189.2870  176.9710  137.5280 C   0  0  0  0  0  3  0  0  0  0  0  0
  191.6960  176.5870  137.6960 C   0  0  0  0  0  0  0  0  0  0  0  0
  190.5290  176.7270  136.9180 C   0  0  0  0  0  3  0  0  0  0  0  0
  188.0760  177.3070  139.8240 C   0  0  2  0  0  3  0  0  0  0  0  0
  192.7610  176.5420  139.8880 O   0  0  0  0  0  1  0  0  0  0  0  0
  188.6920  177.2730  141.1550 N   0  0  0  0  0  0  0  0  0  0  0  0
  190.8580  176.9760  142.1770 N   0  0  0  0  0  2  0  0  0  0  0  0
  191.6250  176.6870  139.0990 C   0  0  0  0  0  0  0  0  0  0  0  0
  190.3780  176.9320  139.6760 C   0  0  0  0  0  0  0  0  0  0  0  0
  189.2460  177.0790  138.9180 C   0  0  0  0  0  0  0  0  0  0  0  0
  189.9690  177.0660  141.0550 C   0  0  0  0  0  0  0  0  0  0  0  0
  193.8880  172.5840  136.5120 C   0  0  0  0  0  3  0  0  0  0  0  0
  192.9420  176.3400  137.0520 N   0  0  0  0  0  0  0  0  0  0  0  0
  193.9850  175.4290  136.5080 C   0  0  1  0  0  0  0  0  0  0  0  0
  196.5000  173.2090  136.1790 Cl  0  0  0  0  0  0  0  0  0  0  0  0
  193.4970  174.6860  135.2650 C   0  0  0  0  0  2  0  0  0  0  0  0
  193.1630  173.2600  135.6090 C   0  0  0  0  0  3  0  0  0  0  0  0
  195.0500  173.2340  137.2180 C   0  0  1  0  0  3  0  0  0  0  0  0
  194.2140  176.7820  136.3970 C   0  0  0  0  0  2  0  0  0  0  0  0
  194.7130  174.6740  137.6260 C   0  0  0  0  0  2  0  0  0  0  0  0
  191.3140  176.5890  144.5820 C   0  0  0  0  0  3  0  0  0  0  0  0
  189.7570  177.4100  146.2660 C   0  0  0  0  0  0  0  0  0  0  0  0
  190.9540  176.7300  145.9260 C   0  0  0  0  0  0  0  0  0  0  0  0
  189.3320  177.7790  143.8960 C   0  0  0  0  0  3  0  0  0  0  0  0
  190.5090  177.1100  143.5610 C   0  0  0  0  0  0  0  0  0  0  0  0
  191.8710  176.1440  146.9450 C   0  0  0  0  0  1  0  0  0  0  0  0
  188.9610  177.9270  145.2340 C   0  0  0  0  0  3  0  0  0  0  0  0
  189.2940  177.6080  147.6610 C   0  0  0  0  0  0  0  0  0  0  0  0
  188.2040  176.8850  148.1370 O   0  0  0  0  0  0  0  0  0  0  0  0
  189.8640  178.4210  148.4350 O   0  0  0  0  0  1  0  0  0  0  0  0
  187.4630  178.6820  139.5850 C   0  0  0  0  0  2  0  0  0  0  0  0
  185.3810  179.3360  140.1670 O   0  0  0  0  0  1  0  0  0  0  0  0
  186.0460  178.5600  139.2800 N   0  0  0  0  0  2  0  0  0  0  0  0
  1 10  1  0  0  0  0
  2  8  2  0  0  0  0
  3  1  2  0  0  0  0
  3  2  1  0  0  0  0
  4 31  1  6  0  0  0
  4  6  1  0  0  0  0
  7 25  1  0  0  0  0
  8  9  1  0  0  0  0
  8  5  1  0  0  0  0
  9 11  1  0  0  0  0
 10  9  2  0  0  0  0
 10  4  1  0  0  0  0
 11  6  2  0  0  0  0
 11  7  1  0  0  0  0
 12 18  1  0  0  0  0
 13  2  1  0  0  0  0
 14 16  1  6  0  0  0
 14 13  1  0  0  0  0
 14 20  1  0  0  0  0
 16 17  1  0  0  0  0
 17 12  2  0  0  0  0
 18 15  1  6  0  0  0
 18 20  1  0  0  0  0
 19 14  1  0  0  0  0
 19 13  1  0  0  0  0
 21 23  1  0  0  0  0
 22 28  1  0  0  0  0
 23 22  2  0  0  0  0
 23 26  1  0  0  0  0
 24 27  2  0  0  0  0
 25 24  1  0  0  0  0
 25 21  2  0  0  0  0
 27 22  1  0  0  0  0
 28 29  2  0  0  0  0
 28 30  1  0  0  0  0
 33 31  1  0  0  0  0
 33 32  1  0  0  0  0
M  END
>  <MODEL>
6

>  <REMARK>
 VINA RESULT:      -8.1      3.443      4.993
  Name = 
  5 active torsions:
  status: ('A' for Active; 'I' for Inactive)
    1  A    between atoms: C_1  and  C_8
    2  A    between atoms: N_3  and  C_11
    3  A    between atoms: N_13  and  C_18
    4  A    between atoms: C_18  and  C_19
    5  A    between atoms: C_22  and  N_25
                            x       y       z     vdW  Elec       q    Type
                         _______ _______ _______ _____ _____    ______ ____

>  <TORSDO>
F 5

$$$$
=
 OpenBabel11042409503D

 33 37  0  0  1  0  0  0  0  0999 V2000
  190.8210  176.1580  135.7370 C   0  0  0  0  0  3  0  0  0  0  0  0
  193.1910  175.9930  136.3180 C   0  0  0  0  0  0  0  0  0  0  0  0
  192.1580  175.9480  135.3590 C   0  0  0  0  0  3  0  0  0  0  0  0
  189.2370  176.6490  137.7620 C   0  0  2  0  0  3  0  0  0  0  0  0
  193.8890  176.2810  138.6350 O   0  0  0  0  0  1  0  0  0  0  0  0
  189.6310  176.8150  139.1650 N   0  0  0  0  0  0  0  0  0  0  0  0
  191.6170  176.8120  140.5350 N   0  0  0  0  0  2  0  0  0  0  0  0
  192.8880  176.2430  137.6710 C   0  0  0  0  0  0  0  0  0  0  0  0
  191.5510  176.4490  138.0150 C   0  0  0  0  0  0  0  0  0  0  0  0
  190.5500  176.4170  137.0810 C   0  0  0  0  0  0  0  0  0  0  0  0
  190.9170  176.7020  139.2880 C   0  0  0  0  0  0  0  0  0  0  0  0
  195.8940  172.1290  136.2910 C   0  0  0  0  0  3  0  0  0  0  0  0
  194.5380  175.7770  135.9070 N   0  0  0  0  0  0  0  0  0  0  0  0
  195.7290  174.9110  135.7070 C   0  0  1  0  0  0  0  0  0  0  0  0
  198.4580  172.9880  136.1790 Cl  0  0  0  0  0  0  0  0  0  0  0  0
  195.5060  173.8880  134.5940 C   0  0  0  0  0  2  0  0  0  0  0  0
  195.2560  172.5250  135.1800 C   0  0  0  0  0  3  0  0  0  0  0  0
  196.8700  173.0390  136.9910 C   0  0  1  0  0  3  0  0  0  0  0  0
  195.8490  176.2340  135.3470 C   0  0  0  0  0  2  0  0  0  0  0  0
  196.3450  174.4790  137.0430 C   0  0  0  0  0  2  0  0  0  0  0  0
  191.3460  178.2280  142.5510 C   0  0  0  0  0  3  0  0  0  0  0  0
  189.8710  177.5130  144.3540 C   0  0  0  0  0  0  0  0  0  0  0  0
  190.7740  178.4600  143.8060 C   0  0  0  0  0  0  0  0  0  0  0  0
  190.1540  176.1410  142.3610 C   0  0  0  0  0  3  0  0  0  0  0  0
  191.0420  177.0710  141.8220 C   0  0  0  0  0  0  0  0  0  0  0  0
  191.1550  179.7180  144.5090 C   0  0  0  0  0  1  0  0  0  0  0  0
  189.5750  176.3600  143.6130 C   0  0  0  0  0  3  0  0  0  0  0  0
  189.2170  177.6730  145.6750 C   0  0  0  0  0  0  0  0  0  0  0  0
  187.9120  178.1510  145.7470 O   0  0  0  0  0  0  0  0  0  0  0  0
  189.8160  177.3870  146.7450 O   0  0  0  0  0  1  0  0  0  0  0  0
  188.5850  177.9340  137.2640 C   0  0  0  0  0  2  0  0  0  0  0  0
  186.5970  178.6230  138.0860 O   0  0  0  0  0  1  0  0  0  0  0  0
  187.9240  178.6250  138.3590 N   0  0  0  0  0  2  0  0  0  0  0  0
  1 10  1  0  0  0  0
  2  8  2  0  0  0  0
  3  1  2  0  0  0  0
  3  2  1  0  0  0  0
  4 31  1  6  0  0  0
  4  6  1  0  0  0  0
  6 11  2  0  0  0  0
  7 25  1  0  0  0  0
  8  9  1  0  0  0  0
  8  5  1  0  0  0  0
  9 11  1  0  0  0  0
 10  4  1  0  0  0  0
 10  9  2  0  0  0  0
 11  7  1  0  0  0  0
 12 18  1  0  0  0  0
 13  2  1  0  0  0  0
 14 16  1  6  0  0  0
 14 13  1  0  0  0  0
 14 20  1  0  0  0  0
 16 17  1  0  0  0  0
 17 12  2  0  0  0  0
 18 15  1  6  0  0  0
 18 20  1  0  0  0  0
 19 14  1  0  0  0  0
 19 13  1  0  0  0  0
 21 23  1  0  0  0  0
 22 28  1  0  0  0  0
 23 22  2  0  0  0  0
 23 26  1  0  0  0  0
 24 27  2  0  0  0  0
 25 24  1  0  0  0  0
 25 21  2  0  0  0  0
 27 22  1  0  0  0  0
 28 29  2  0  0  0  0
 28 30  1  0  0  0  0
 31 33  1  0  0  0  0
 32 33  1  0  0  0  0
M  END
>  <MODEL>
7

>  <REMARK>
 VINA RESULT:      -8.1      4.485      6.690
  Name = 
  5 active torsions:
  status: ('A' for Active; 'I' for Inactive)
    1  A    between atoms: C_1  and  C_8
    2  A    between atoms: N_3  and  C_11
    3  A    between atoms: N_13  and  C_18
    4  A    between atoms: C_18  and  C_19
    5  A    between atoms: C_22  and  N_25
                            x       y       z     vdW  Elec       q    Type
                         _______ _______ _______ _____ _____    ______ ____

>  <TORSDO>
F 5

$$$$
=
 OpenBabel11042409503D

 33 37  0  0  1  0  0  0  0  0999 V2000
  182.6720  178.7410  144.3210 C   0  0  0  0  0  3  0  0  0  0  0  0
  181.9040  179.1810  142.0410 C   0  0  0  0  0  0  0  0  0  0  0  0
  181.6440  179.0740  143.4230 C   0  0  0  0  0  3  0  0  0  0  0  0
  185.2130  178.1410  144.5140 C   0  0  2  0  0  3  0  0  0  0  0  0
  183.4780  179.0370  140.1870 O   0  0  0  0  0  1  0  0  0  0  0  0
  186.1770  178.0370  143.4130 N   0  0  0  0  0  0  0  0  0  0  0  0
  186.2720  178.2900  141.0160 N   0  0  0  0  0  2  0  0  0  0  0  0
  183.2010  178.9470  141.5460 C   0  0  0  0  0  0  0  0  0  0  0  0
  184.2020  178.6200  142.4630 C   0  0  0  0  0  0  0  0  0  0  0  0
  183.9520  178.5280  143.8060 C   0  0  0  0  0  0  0  0  0  0  0  0
  185.6010  178.3070  142.2830 C   0  0  0  0  0  0  0  0  0  0  0  0
  181.5780  179.0740  137.3380 C   0  0  0  0  0  3  0  0  0  0  0  0
  180.8420  179.5210  141.1540 N   0  0  0  0  0  0  0  0  0  0  0  0
  180.2630  179.6700  139.7920 C   0  0  1  0  0  0  0  0  0  0  0  0
  179.5390  180.7250  136.6730 Cl  0  0  0  0  0  0  0  0  0  0  0  0
  180.0360  178.3160  139.1200 C   0  0  0  0  0  2  0  0  0  0  0  0
  181.0950  178.0670  138.0810 C   0  0  0  0  0  3  0  0  0  0  0  0
  181.0850  180.4850  137.5300 C   0  0  1  0  0  3  0  0  0  0  0  0
  179.4560  180.0000  140.8570 C   0  0  0  0  0  2  0  0  0  0  0  0
  180.9240  180.8170  139.0190 C   0  0  0  0  0  2  0  0  0  0  0  0
  188.4540  177.3690  141.7450 C   0  0  0  0  0  3  0  0  0  0  0  0
  190.3750  177.4520  140.2480 C   0  0  0  0  0  0  0  0  0  0  0  0
  189.8030  177.0940  141.4950 C   0  0  0  0  0  0  0  0  0  0  0  0
  188.2190  178.3500  139.5550 C   0  0  0  0  0  3  0  0  0  0  0  0
  187.6560  177.9970  140.7810 C   0  0  0  0  0  0  0  0  0  0  0  0
  190.5750  176.4220  142.5790 C   0  0  0  0  0  1  0  0  0  0  0  0
  189.5640  178.0800  139.2920 C   0  0  0  0  0  3  0  0  0  0  0  0
  191.7930  177.2020  139.8940 C   0  0  0  0  0  0  0  0  0  0  0  0
  192.1010  176.4530  138.7620 O   0  0  0  0  0  0  0  0  0  0  0  0
  192.7360  177.6500  140.5970 O   0  0  0  0  0  1  0  0  0  0  0  0
  185.6570  179.2390  145.4740 C   0  0  0  0  0  2  0  0  0  0  0  0
  185.8530  179.7910  147.6550 O   0  0  0  0  0  1  0  0  0  0  0  0
  185.1890  178.9550  146.8220 N   0  0  0  0  0  2  0  0  0  0  0  0
  2  3  1  0  0  0  0
  3  1  2  0  0  0  0
  4 31  1  1  0  0  0
  5  8  1  0  0  0  0
  6  4  1  0  0  0  0
  7 11  1  0  0  0  0
  8  2  2  0  0  0  0
  8  9  1  0  0  0  0
  9 10  2  0  0  0  0
 10  1  1  0  0  0  0
 10  4  1  0  0  0  0
 11  9  1  0  0  0  0
 11  6  2  0  0  0  0
 12 18  1  0  0  0  0
 12 17  2  0  0  0  0
 13  2  1  0  0  0  0
 14 20  1  6  0  0  0
 14 19  1  0  0  0  0
 14 13  1  0  0  0  0
 16 14  1  0  0  0  0
 17 16  1  0  0  0  0
 18 15  1  6  0  0  0
 18 20  1  0  0  0  0
 19 13  1  0  0  0  0
 22 23  2  0  0  0  0
 23 21  1  0  0  0  0
 23 26  1  0  0  0  0
 24 25  1  0  0  0  0
 25  7  1  0  0  0  0
 25 21  2  0  0  0  0
 27 24  2  0  0  0  0
 27 22  1  0  0  0  0
 28 22  1  0  0  0  0
 28 30  1  0  0  0  0
 29 28  2  0  0  0  0
 31 33  1  0  0  0  0
 33 32  1  0  0  0  0
M  END
>  <MODEL>
8

>  <REMARK>
 VINA RESULT:      -8.0      3.888      6.217
  Name = 
  5 active torsions:
  status: ('A' for Active; 'I' for Inactive)
    1  A    between atoms: C_1  and  C_8
    2  A    between atoms: N_3  and  C_11
    3  A    between atoms: N_13  and  C_18
    4  A    between atoms: C_18  and  C_19
    5  A    between atoms: C_22  and  N_25
                            x       y       z     vdW  Elec       q    Type
                         _______ _______ _______ _____ _____    ______ ____

>  <TORSDO>
F 5

$$$$
=
 OpenBabel11042409503D

 33 37  0  0  1  0  0  0  0  0999 V2000
  189.7210  176.6880  136.5080 C   0  0  0  0  0  3  0  0  0  0  0  0
  192.1210  176.3380  136.8220 C   0  0  0  0  0  0  0  0  0  0  0  0
  190.9980  176.4400  135.9760 C   0  0  0  0  0  3  0  0  0  0  0  0
  188.3810  177.0810  138.7210 C   0  0  2  0  0  3  0  0  0  0  0  0
  193.0630  176.3750  139.0690 O   0  0  0  0  0  1  0  0  0  0  0  0
  188.9220  177.0960  140.0850 N   0  0  0  0  0  0  0  0  0  0  0  0
  191.0300  176.8570  141.2350 N   0  0  0  0  0  2  0  0  0  0  0  0
  191.9710  176.4810  138.2150 C   0  0  0  0  0  0  0  0  0  0  0  0
  190.6910  176.7290  138.7130 C   0  0  0  0  0  0  0  0  0  0  0  0
  189.6020  176.8380  137.8900 C   0  0  0  0  0  0  0  0  0  0  0  0
  190.2040  176.9010  140.0630 C   0  0  0  0  0  0  0  0  0  0  0  0
  194.5860  172.3580  136.2590 C   0  0  0  0  0  3  0  0  0  0  0  0
  193.4040  176.0860  136.2560 N   0  0  0  0  0  0  0  0  0  0  0  0
  194.5180  175.1780  135.8730 C   0  0  1  0  0  0  0  0  0  0  0  0
  197.1680  173.0960  135.9260 Cl  0  0  0  0  0  0  0  0  0  0  0  0
  194.1230  174.2470  134.7280 C   0  0  0  0  0  2  0  0  0  0  0  0
  193.8590  172.8610  135.2510 C   0  0  0  0  0  3  0  0  0  0  0  0
  195.6800  173.1690  136.9060 C   0  0  1  0  0  3  0  0  0  0  0  0
  194.6730  176.5160  135.5880 C   0  0  0  0  0  2  0  0  0  0  0  0
  195.2440  174.6260  137.1050 C   0  0  0  0  0  2  0  0  0  0  0  0
  189.2540  176.9590  142.9600 C   0  0  0  0  0  3  0  0  0  0  0  0
  189.8380  177.3840  145.2870 C   0  0  0  0  0  0  0  0  0  0  0  0
  188.8600  177.1320  144.2910 C   0  0  0  0  0  0  0  0  0  0  0  0
  191.5650  177.2770  143.5720 C   0  0  0  0  0  3  0  0  0  0  0  0
  190.6040  177.0300  142.5920 C   0  0  0  0  0  0  0  0  0  0  0  0
  187.4030  177.0390  144.5900 C   0  0  0  0  0  1  0  0  0  0  0  0
  191.1850  177.4520  144.9050 C   0  0  0  0  0  3  0  0  0  0  0  0
  189.5150  177.5810  146.7210 C   0  0  0  0  0  0  0  0  0  0  0  0
  190.3800  177.0950  147.6970 O   0  0  0  0  0  1  0  0  0  0  0  0
  188.4690  178.1800  147.0840 O   0  0  0  0  0  0  0  0  0  0  0  0
  187.7680  178.4400  138.4050 C   0  0  0  0  0  2  0  0  0  0  0  0
  185.8770  178.8540  139.5700 O   0  0  0  0  0  1  0  0  0  0  0  0
  186.3160  178.3510  138.3910 N   0  0  0  0  0  2  0  0  0  0  0  0
  1 10  1  0  0  0  0
  2  8  2  0  0  0  0
  3  1  2  0  0  0  0
  3  2  1  0  0  0  0
  4 31  1  6  0  0  0
  4  6  1  0  0  0  0
  7 25  1  0  0  0  0
  8  9  1  0  0  0  0
  8  5  1  0  0  0  0
  9 11  1  0  0  0  0
 10  9  2  0  0  0  0
 10  4  1  0  0  0  0
 11  6  2  0  0  0  0
 11  7  1  0  0  0  0
 12 18  1  0  0  0  0
 13  2  1  0  0  0  0
 14 16  1  6  0  0  0
 14 13  1  0  0  0  0
 14 20  1  0  0  0  0
 16 17  1  0  0  0  0
 17 12  2  0  0  0  0
 18 15  1  6  0  0  0
 18 20  1  0  0  0  0
 19 14  1  0  0  0  0
 19 13  1  0  0  0  0
 21 23  1  0  0  0  0
 22 28  1  0  0  0  0
 23 26  1  0  0  0  0
 23 22  2  0  0  0  0
 24 27  2  0  0  0  0
 25 21  2  0  0  0  0
 25 24  1  0  0  0  0
 27 22  1  0  0  0  0
 28 30  2  0  0  0  0
 28 29  1  0  0  0  0
 33 31  1  0  0  0  0
 33 32  1  0  0  0  0
M  END
>  <MODEL>
9

>  <REMARK>
 VINA RESULT:      -8.0      3.773      5.592
  Name = 
  5 active torsions:
  status: ('A' for Active; 'I' for Inactive)
    1  A    between atoms: C_1  and  C_8
    2  A    between atoms: N_3  and  C_11
    3  A    between atoms: N_13  and  C_18
    4  A    between atoms: C_18  and  C_19
    5  A    between atoms: C_22  and  N_25
                            x       y       z     vdW  Elec       q    Type
                         _______ _______ _______ _____ _____    ______ ____

>  <TORSDO>
F 5

$$$$
