=
 OpenBabel11032419353D

 49 51  0  0  1  0  0  0  0  0999 V2000
  191.5950  177.4000  142.7520 C   0  0  0  0  0  3  0  0  0  0  0  0
  189.5820  175.9420  137.5830 C   0  0  0  0  0  3  0  0  0  0  0  0
  184.6420  178.2480  146.9870 O   0  0  0  0  0  0  0  0  0  0  0  0
  191.5640  177.4230  140.3760 O   0  0  0  0  0  0  0  0  0  0  0  0
  185.6090  178.1420  146.1870 C   0  0  0  0  0  0  0  0  0  0  0  0
  187.4330  177.9520  143.0310 C   0  0  0  0  0  3  0  0  0  0  0  0
  188.6500  178.0380  140.4470 C   0  0  0  0  0  3  0  0  0  0  0  0
  187.6760  177.8870  145.4180 C   0  0  0  0  0  0  0  0  0  0  0  0
  190.9830  177.4710  144.0010 C   0  0  0  0  0  3  0  0  0  0  0  0
  188.8300  177.6720  139.1780 C   0  0  0  0  0  0  0  0  0  0  0  0
  189.0170  177.7170  145.3220 N   0  0  0  0  0  0  0  0  0  0  0  0
  188.8270  177.7710  142.9060 C   0  0  0  0  0  0  0  0  0  0  0  0
  189.6070  177.6500  144.0930 C   0  0  0  0  0  0  0  0  0  0  0  0
  191.8410  175.0930  137.5430 C   0  0  0  0  0  0  0  0  0  0  0  0
  190.8510  177.5030  141.5730 C   0  0  0  0  0  0  0  0  0  0  0  0
  186.9540  177.9730  146.6330 N   0  0  0  0  0  2  0  0  0  0  0  0
  192.1460  175.8760  138.6570 C   0  0  0  0  0  3  0  0  0  0  0  0
  189.4530  177.7060  141.6380 C   0  0  0  0  0  0  0  0  0  0  0  0
  185.4560  178.1780  144.6960 C   0  0  0  0  0  2  0  0  0  0  0  0
  189.8720  176.7320  138.7090 C   0  0  0  0  0  0  0  0  0  0  0  0
  186.8800  178.0010  144.3080 C   0  0  0  0  0  0  0  0  0  0  0  0
  190.5530  175.1180  137.0120 C   0  0  0  0  0  3  0  0  0  0  0  0
  191.1720  176.6820  139.2600 C   0  0  0  0  0  0  0  0  0  0  0  0
  192.8860  174.2340  136.9200 C   0  0  0  0  0  2  0  0  0  0  0  0
  193.5660  173.5100  137.9040 O   0  0  0  0  0  0  0  0  0  0  0  0
  195.7890  172.8060  136.2380 C   0  0  0  0  0  1  0  0  0  0  0  0
  195.4030  175.2820  137.2930 O   0  0  0  0  0  0  0  0  0  0  0  0
  196.1210  173.4280  139.0040 O   0  0  0  0  0  1  0  0  0  0  0  0
  195.2110  173.8180  137.6300 P   0  0  1  0  0  0  0  0  0  0  0  0
  187.8490  178.2290  138.1940 C   0  0  0  0  0  2  0  0  0  0  0  0
  186.4350  178.1470  138.7530 C   0  0  0  0  0  2  0  0  0  0  0  0
  185.4090  178.2910  137.6370 C   0  0  0  0  0  2  0  0  0  0  0  0
  185.4070  177.1330  136.8460 O   0  0  0  0  0  0  0  0  0  0  0  0
  184.3410  176.4120  137.2790 N   0  0  0  0  0  0  0  0  0  0  0  0
  184.6310  174.9950  137.0140 C   0  0  2  0  0  3  0  0  0  0  0  0
  184.0730  174.1640  137.9930 O   0  0  0  0  0  1  0  0  0  0  0  0
  186.4680  173.3390  137.3030 C   0  0  0  0  0  1  0  0  0  0  0  0
  186.1310  174.7600  136.8910 C   0  0  0  0  0  2  0  0  0  0  0  0
  183.1800  176.8420  136.5020 C   0  0  0  0  0  2  0  0  0  0  0  0
  181.9480  176.9280  137.3950 C   0  0  0  0  0  1  0  0  0  0  0  0
  181.9830  178.2220  138.1970 O   0  0  0  0  0  1  0  0  0  0  0  0
  181.6860  178.9410  138.1190 O   0  0  0  0  0  0  0  0  0  0  0  0
  180.8540  178.5970  139.0030 C   0  0  0  0  0  1  0  0  0  0  0  0
  181.0310  178.9140  140.4470 C   0  0  0  0  0  1  0  0  0  0  0  0
  180.3130  180.0690  140.7590 O   0  0  0  0  0  0  0  0  0  0  0  0
  179.7340  179.8020  142.0030 C   0  0  2  0  0  3  0  0  0  0  0  0
  180.0100  180.8460  142.8850 O   0  0  0  0  0  1  0  0  0  0  0  0
  179.3920  177.9810  143.4990 O   0  0  0  0  0  1  0  0  0  0  0  0
  180.2850  178.5070  142.5640 C   0  0  0  0  0  2  0  0  0  0  0  0
  1  9  1  0  0  0  0
  2 20  1  0  0  0  0
  4 15  1  0  0  0  0
  5 16  1  0  0  0  0
  5  3  2  0  0  0  0
  6 21  2  0  0  0  0
  7 18  1  0  0  0  0
  8 16  1  0  0  0  0
  9 13  2  0  0  0  0
 10  7  2  0  0  0  0
 11  8  2  0  0  0  0
 12  6  1  0  0  0  0
 12 13  1  0  0  0  0
 13 11  1  0  0  0  0
 14 17  2  0  0  0  0
 15 18  1  0  0  0  0
 15  1  2  0  0  0  0
 17 23  1  0  0  0  0
 18 12  2  0  0  0  0
 19  5  1  0  0  0  0
 20 10  1  0  0  0  0
 20 23  2  0  0  0  0
 21 19  1  0  0  0  0
 21  8  1  0  0  0  0
 22 14  1  0  0  0  0
 22  2  2  0  0  0  0
 23  4  1  0  0  0  0
 24 14  1  0  0  0  0
 24 25  1  0  0  0  0
 27 29  2  0  0  0  0
 29 26  1  6  0  0  0
 29 25  1  0  0  0  0
 29 28  1  0  0  0  0
 30 31  1  0  0  0  0
 30 10  1  0  0  0  0
 32 31  1  0  0  0  0
 33 34  1  0  0  0  0
 33 32  1  0  0  0  0
 35 34  1  0  0  0  0
 35 36  1  1  0  0  0
 38 35  1  0  0  0  0
 38 37  1  0  0  0  0
 39 34  1  0  0  0  0
 39 40  1  0  0  0  0
 42 41  1  0  0  0  0
 42 43  1  0  0  0  0
 44 45  1  0  0  0  0
 45 46  1  0  0  0  0
 46 49  1  0  0  0  0
 46 47  1  1  0  0  0
 49 48  1  0  0  0  0
M  END
>  <MODEL>
1

>  <REMARK>
 VINA RESULT:      -7.5      0.000      0.000
  Name = 
  18 active torsions:
  status: ('A' for Active; 'I' for Inactive)
    1  A    between atoms: C_1  and  C_22
    2  A    between atoms: C_1  and  C_45
    3  A    between atoms: C_2  and  C_26
    4  A    between atoms: C_2  and  N_33
    5  A    between atoms: C_3  and  O_21
    6  A    between atoms: C_3  and  C_30
    7  A    between atoms: C_7  and  O_21
    8  A    between atoms: C_7  and  C_32
    9  A    between atoms: C_18  and  C_22
   10  A    between atoms: C_23  and  C_28
   11  A    between atoms: C_23  and  O_48
   12  A    between atoms: C_30  and  O_43
   13  A    between atoms: N_33  and  O_34
   14  A    between atoms: N_33  and  C_44
   15  A    between atoms: O_34  and  C_45
   16  A    between atoms: P_41  and  O_48
   17  A    between atoms: O_43  and  C_47
   18  A    between atoms: C_44  and  C_47
                            x       y       z     vdW  Elec       q    Type
                         _______ _______ _______ _____ _____    ______ ____

>  <TORSDO>
F 18

$$$$
=
 OpenBabel11032419353D

 49 50  0  0  1  0  0  0  0  0999 V2000
  181.8710  178.9550  143.7010 C   0  0  0  0  0  3  0  0  0  0  0  0
  182.3500  180.0000  138.0820 C   0  0  0  0  0  3  0  0  0  0  0  0
  189.6750  177.5440  145.7280 O   0  0  0  0  0  0  0  0  0  0  0  0
  181.1820  178.8400  141.4290 O   0  0  0  0  0  0  0  0  0  0  0  0
  188.5240  177.7210  145.2470 C   0  0  0  0  0  0  0  0  0  0  0  0
  185.8580  177.9820  142.7690 C   0  0  0  0  0  3  0  0  0  0  0  0
  183.9150  177.9280  140.6740 C   0  0  0  0  0  3  0  0  0  0  0  0
  186.3530  178.1610  145.1100 C   0  0  0  0  0  0  0  0  0  0  0  0
  182.8230  178.8670  144.7140 C   0  0  0  0  0  3  0  0  0  0  0  0
  183.3930  178.2620  139.4930 C   0  0  0  0  0  0  0  0  0  0  0  0
  185.0660  178.4670  145.4050 N   0  0  0  0  0  0  0  0  0  0  0  0
  184.5120  178.3030  143.0510 C   0  0  0  0  0  0  0  0  0  0  0  0
  184.1410  178.5490  144.4040 C   0  0  0  0  0  0  0  0  0  0  0  0
  180.2690  181.0790  138.6570 C   0  0  0  0  0  0  0  0  0  0  0  0
  182.2120  178.7310  142.3640 C   0  0  0  0  0  0  0  0  0  0  0  0
  187.3970  178.0460  146.0580 N   0  0  0  0  0  2  0  0  0  0  0  0
  180.2460  180.3740  139.8610 C   0  0  0  0  0  3  0  0  0  0  0  0
  183.5410  178.3860  142.0240 C   0  0  0  0  0  0  0  0  0  0  0  0
  188.2160  177.6140  143.7830 C   0  0  0  0  0  2  0  0  0  0  0  0
  182.3450  179.2870  139.2930 C   0  0  0  0  0  0  0  0  0  0  0  0
  186.7630  177.9240  143.8240 C   0  0  0  0  0  0  0  0  0  0  0  0
  181.3280  180.8990  137.7700 C   0  0  0  0  0  3  0  0  0  0  0  0
  181.2820  179.4940  140.2010 C   0  0  0  0  0  0  0  0  0  0  0  0
  179.1640  182.0180  138.3160 C   0  0  0  0  0  2  0  0  0  0  0  0
  179.4170  183.2790  138.8660 O   0  0  0  0  0  0  0  0  0  0  0  0
  181.4660  184.5650  137.3290 C   0  0  0  0  0  1  0  0  0  0  0  0
  179.1250  183.6570  136.2850 O   0  0  0  0  0  0  0  0  0  0  0  0
  178.9320  185.7990  137.7870 O   0  0  0  0  0  1  0  0  0  0  0  0
  179.6810  184.3000  137.5370 P   0  0  1  0  0  0  0  0  0  0  0  0
  183.9780  177.5690  138.3020 C   0  0  0  0  0  2  0  0  0  0  0  0
  185.3660  178.1180  138.0000 C   0  0  0  0  0  2  0  0  0  0  0  0
  186.1730  177.1160  137.1870 C   0  0  0  0  0  2  0  0  0  0  0  0
  185.4770  175.9010  137.1120 O   0  0  0  0  0  0  0  0  0  0  0  0
  186.3750  175.0110  136.6150 N   0  0  0  0  0  0  0  0  0  0  0  0
  186.0440  173.6920  137.1740 C   0  0  2  0  0  3  0  0  0  0  0  0
  186.2130  172.6740  136.2290 O   0  0  0  0  0  1  0  0  0  0  0  0
  183.8820  172.4570  137.2390 C   0  0  0  0  0  1  0  0  0  0  0  0
  184.6280  173.6800  137.7390 C   0  0  0  0  0  2  0  0  0  0  0  0
  187.7000  175.4310  137.0680 C   0  0  0  0  0  1  0  0  0  0  0  0
  188.7650  174.4690  136.5530 C   0  0  0  0  0 15  0  0  0  0  0  0
  190.1100  175.1790  136.4860 O   0  0  0  0  0  1  0  0  0  0  0  0
  189.9270  174.7120  137.0860 O   0  0  0  0  0  0  0  0  0  0  0  0
  191.0680  174.9990  137.5430 C   0  0  0  0  0  1  0  0  0  0  0  0
  191.2890  176.0730  138.5510 C   0  0  0  0  0  1  0  0  0  0  0  0
  190.1630  176.1770  139.3700 O   0  0  0  0  0  0  0  0  0  0  0  0
  190.3290  177.3870  140.0490 C   0  0  2  0  0  3  0  0  0  0  0  0
  190.9380  177.1550  141.2820 O   0  0  0  0  0  1  0  0  0  0  0  0
  188.6000  178.7280  139.1090 O   0  0  0  0  0  1  0  0  0  0  0  0
  188.9840  178.0490  140.2660 C   0  0  0  0  0  2  0  0  0  0  0  0
  1  9  1  0  0  0  0
  2 20  1  0  0  0  0
  4 15  1  0  0  0  0
  5  3  2  0  0  0  0
  5 16  1  0  0  0  0
  6 12  1  0  0  0  0
  6 21  2  0  0  0  0
  7 18  1  0  0  0  0
  8 11  2  0  0  0  0
  8 16  1  0  0  0  0
 10  7  2  0  0  0  0
 12 13  1  0  0  0  0
 13  9  2  0  0  0  0
 13 11  1  0  0  0  0
 14 17  2  0  0  0  0
 15  1  2  0  0  0  0
 17 23  1  0  0  0  0
 18 15  1  0  0  0  0
 18 12  2  0  0  0  0
 19 21  1  0  0  0  0
 19  5  1  0  0  0  0
 20 10  1  0  0  0  0
 20 23  2  0  0  0  0
 21  8  1  0  0  0  0
 22  2  2  0  0  0  0
 22 14  1  0  0  0  0
 23  4  1  0  0  0  0
 24 14  1  0  0  0  0
 24 25  1  0  0  0  0
 27 29  2  0  0  0  0
 29 26  1  6  0  0  0
 29 28  1  0  0  0  0
 29 25  1  0  0  0  0
 30 10  1  0  0  0  0
 31 30  1  0  0  0  0
 32 31  1  0  0  0  0
 33 32  1  0  0  0  0
 34 39  1  0  0  0  0
 34 33  1  0  0  0  0
 34 35  1  0  0  0  0
 35 36  1  6  0  0  0
 35 38  1  0  0  0  0
 37 38  1  0  0  0  0
 41 42  1  0  0  0  0
 42 43  1  0  0  0  0
 44 45  1  0  0  0  0
 45 46  1  0  0  0  0
 46 49  1  0  0  0  0
 46 47  1  1  0  0  0
 48 49  1  0  0  0  0
M  END
>  <MODEL>
2

>  <REMARK>
 VINA RESULT:      -7.5      3.783      9.442
  Name = 
  18 active torsions:
  status: ('A' for Active; 'I' for Inactive)
    1  A    between atoms: C_1  and  C_22
    2  A    between atoms: C_1  and  C_45
    3  A    between atoms: C_2  and  C_26
    4  A    between atoms: C_2  and  N_33
    5  A    between atoms: C_3  and  O_21
    6  A    between atoms: C_3  and  C_30
    7  A    between atoms: C_7  and  O_21
    8  A    between atoms: C_7  and  C_32
    9  A    between atoms: C_18  and  C_22
   10  A    between atoms: C_23  and  C_28
   11  A    between atoms: C_23  and  O_48
   12  A    between atoms: C_30  and  O_43
   13  A    between atoms: N_33  and  O_34
   14  A    between atoms: N_33  and  C_44
   15  A    between atoms: O_34  and  C_45
   16  A    between atoms: P_41  and  O_48
   17  A    between atoms: O_43  and  C_47
   18  A    between atoms: C_44  and  C_47
                            x       y       z     vdW  Elec       q    Type
                         _______ _______ _______ _____ _____    ______ ____

>  <TORSDO>
F 18

$$$$
=
 OpenBabel11032419353D

 49 51  0  0  1  0  0  0  0  0999 V2000
  183.0020  179.0420  144.6120 C   0  0  0  0  0  3  0  0  0  0  0  0
  188.3190  177.1960  143.5080 C   0  0  0  0  0  3  0  0  0  0  0  0
  179.2110  177.2720  137.5760 O   0  0  0  0  0  0  0  0  0  0  0  0
  185.3740  179.1510  144.7020 O   0  0  0  0  0  0  0  0  0  0  0  0
  179.9480  177.5390  138.5620 C   0  0  0  0  0  0  0  0  0  0  0  0
  182.9820  178.1170  140.5070 C   0  0  0  0  0  3  0  0  0  0  0  0
  185.4800  178.7230  141.7560 C   0  0  0  0  0  3  0  0  0  0  0  0
  180.5860  178.0410  140.6280 C   0  0  0  0  0  0  0  0  0  0  0  0
  181.7940  178.8460  143.9470 C   0  0  0  0  0  3  0  0  0  0  0  0
  186.7420  178.4940  142.1200 C   0  0  0  0  0  0  0  0  0  0  0  0
  180.5990  178.3460  141.9480 N   0  0  0  0  0  0  0  0  0  0  0  0
  183.0200  178.4320  141.8820 C   0  0  0  0  0  0  0  0  0  0  0  0
  181.7880  178.5370  142.5900 C   0  0  0  0  0  0  0  0  0  0  0  0
  188.2290  177.1770  145.9200 C   0  0  0  0  0  0  0  0  0  0  0  0
  184.2240  178.9320  143.9430 C   0  0  0  0  0  0  0  0  0  0  0  0
  179.4200  177.8230  139.8570 N   0  0  0  0  0  2  0  0  0  0  0  0
  187.0830  177.9710  145.8750 C   0  0  0  0  0  3  0  0  0  0  0  0
  184.2460  178.6390  142.5590 C   0  0  0  0  0  0  0  0  0  0  0  0
  181.4450  177.5810  138.4870 C   0  0  0  0  0  2  0  0  0  0  0  0
  187.1610  177.9900  143.4460 C   0  0  0  0  0  0  0  0  0  0  0  0
  181.7440  177.9200  139.9030 C   0  0  0  0  0  0  0  0  0  0  0  0
  188.8430  176.7810  144.7340 C   0  0  0  0  0  3  0  0  0  0  0  0
  186.5280  178.3680  144.6520 C   0  0  0  0  0  0  0  0  0  0  0  0
  188.8010  176.7560  147.2300 C   0  0  0  0  0  2  0  0  0  0  0  0
  189.8920  177.5640  147.5620 O   0  0  0  0  0  0  0  0  0  0  0  0
  191.8290  176.6390  145.6630 C   0  0  0  0  0  1  0  0  0  0  0  0
  192.3590  177.0560  148.2980 O   0  0  0  0  0  1  0  0  0  0  0  0
  190.8660  174.9650  147.7660 O   0  0  0  0  0  0  0  0  0  0  0  0
  191.2540  176.5700  147.3840 P   0  0  1  0  0  0  0  0  0  0  0  0
  187.7760  178.7200  141.0610 C   0  0  0  0  0  2  0  0  0  0  0  0
  188.5970  177.4570  140.8450 C   0  0  0  0  0  2  0  0  0  0  0  0
  189.1680  177.4230  139.4340 C   0  0  0  0  0  2  0  0  0  0  0  0
  188.2830  176.7450  138.5840 O   0  0  0  0  0  0  0  0  0  0  0  0
  188.6430  177.1200  137.3290 N   0  0  0  0  0  0  0  0  0  0  0  0
  187.4810  177.7790  136.7160 C   0  0  2  0  0  3  0  0  0  0  0  0
  187.3100  179.0810  137.2020 O   0  0  0  0  0  1  0  0  0  0  0  0
  185.1440  177.8000  137.5790 C   0  0  0  0  0  1  0  0  0  0  0  0
  186.2160  176.9530  136.9180 C   0  0  0  0  0  2  0  0  0  0  0  0
  188.9780  175.9040  136.5900 C   0  0  0  0  0  2  0  0  0  0  0  0
  190.4700  175.8690  136.2790 C   0  0  0  0  0  1  0  0  0  0  0  0
  191.2350  175.3340  137.4820 O   0  0  0  0  0  1  0  0  0  0  0  0
  191.3800  174.8200  138.0520 O   0  0  0  0  0  0  0  0  0  0  0  0
  192.2800  174.3650  137.2940 C   0  0  0  0  0  1  0  0  0  0  0  0
  193.7090  174.7680  137.4050 C   0  0  0  0  0  1  0  0  0  0  0  0
  194.4830  173.6480  137.7160 O   0  0  0  0  0  0  0  0  0  0  0  0
  195.3080  174.0670  138.7620 C   0  0  2  0  0  3  0  0  0  0  0  0
  195.0600  175.4090  139.0500 O   0  0  0  0  0  1  0  0  0  0  0  0
  197.4310  175.1130  138.5010 O   0  0  0  0  0  1  0  0  0  0  0  0
  196.7630  173.8950  138.3760 C   0  0  0  0  0  2  0  0  0  0  0  0
  2 22  1  0  0  0  0
  3  5  2  0  0  0  0
  5 16  1  0  0  0  0
  6 12  1  0  0  0  0
  7 10  2  0  0  0  0
  7 18  1  0  0  0  0
  8 11  2  0  0  0  0
  9  1  1  0  0  0  0
 10 20  1  0  0  0  0
 11 13  1  0  0  0  0
 12 18  2  0  0  0  0
 12 13  1  0  0  0  0
 13  9  2  0  0  0  0
 14 24  1  0  0  0  0
 15  1  2  0  0  0  0
 15  4  1  0  0  0  0
 16  8  1  0  0  0  0
 17 14  1  0  0  0  0
 18 15  1  0  0  0  0
 19  5  1  0  0  0  0
 19 21  1  0  0  0  0
 20  2  2  0  0  0  0
 20 23  1  0  0  0  0
 21  6  2  0  0  0  0
 21  8  1  0  0  0  0
 22 14  2  0  0  0  0
 23  4  1  0  0  0  0
 23 17  2  0  0  0  0
 24 25  1  0  0  0  0
 29 26  1  6  0  0  0
 29 25  1  0  0  0  0
 29 28  2  0  0  0  0
 29 27  1  0  0  0  0
 30 10  1  0  0  0  0
 31 30  1  0  0  0  0
 32 31  1  0  0  0  0
 33 32  1  0  0  0  0
 34 33  1  0  0  0  0
 35 38  1  0  0  0  0
 35 36  1  1  0  0  0
 35 34  1  0  0  0  0
 38 37  1  0  0  0  0
 39 34  1  0  0  0  0
 40 39  1  0  0  0  0
 41 42  1  0  0  0  0
 43 42  1  0  0  0  0
 44 45  1  0  0  0  0
 45 46  1  0  0  0  0
 46 47  1  6  0  0  0
 49 48  1  0  0  0  0
 49 46  1  0  0  0  0
M  END
>  <MODEL>
3

>  <REMARK>
 VINA RESULT:      -7.3      3.288      9.466
  Name = 
  18 active torsions:
  status: ('A' for Active; 'I' for Inactive)
    1  A    between atoms: C_1  and  C_22
    2  A    between atoms: C_1  and  C_45
    3  A    between atoms: C_2  and  C_26
    4  A    between atoms: C_2  and  N_33
    5  A    between atoms: C_3  and  O_21
    6  A    between atoms: C_3  and  C_30
    7  A    between atoms: C_7  and  O_21
    8  A    between atoms: C_7  and  C_32
    9  A    between atoms: C_18  and  C_22
   10  A    between atoms: C_23  and  C_28
   11  A    between atoms: C_23  and  O_48
   12  A    between atoms: C_30  and  O_43
   13  A    between atoms: N_33  and  O_34
   14  A    between atoms: N_33  and  C_44
   15  A    between atoms: O_34  and  C_45
   16  A    between atoms: P_41  and  O_48
   17  A    between atoms: O_43  and  C_47
   18  A    between atoms: C_44  and  C_47
                            x       y       z     vdW  Elec       q    Type
                         _______ _______ _______ _____ _____    ______ ____

>  <TORSDO>
F 18

$$$$
=
 OpenBabel11032419353D

 49 51  0  0  1  0  0  0  0  0999 V2000
  191.4300  177.1600  142.5330 C   0  0  0  0  0  3  0  0  0  0  0  0
  189.3650  175.7740  137.3640 C   0  0  0  0  0  3  0  0  0  0  0  0
  184.5130  178.4100  146.7270 O   0  0  0  0  0  0  0  0  0  0  0  0
  191.4110  177.1680  140.1560 O   0  0  0  0  0  0  0  0  0  0  0  0
  185.4770  178.2470  145.9330 C   0  0  0  0  0  0  0  0  0  0  0  0
  187.3020  177.9360  142.7870 C   0  0  0  0  0  3  0  0  0  0  0  0
  188.5340  177.9370  140.2090 C   0  0  0  0  0  3  0  0  0  0  0  0
  187.5310  177.8760  145.1760 C   0  0  0  0  0  0  0  0  0  0  0  0
  190.8170  177.2730  143.7780 C   0  0  0  0  0  3  0  0  0  0  0  0
  188.7000  177.5530  138.9430 C   0  0  0  0  0  0  0  0  0  0  0  0
  188.8610  177.6330  145.0870 N   0  0  0  0  0  0  0  0  0  0  0  0
  188.6850  177.6800  142.6700 C   0  0  0  0  0  0  0  0  0  0  0  0
  189.4520  177.5260  143.8620 C   0  0  0  0  0  0  0  0  0  0  0  0
  191.5760  174.8050  137.3410 C   0  0  0  0  0  0  0  0  0  0  0  0
  190.6980  177.2940  141.3490 C   0  0  0  0  0  0  0  0  0  0  0  0
  186.8090  178.0090  146.3860 N   0  0  0  0  0  2  0  0  0  0  0  0
  191.9180  175.5790  138.4510 C   0  0  0  0  0  3  0  0  0  0  0  0
  189.3130  177.5720  141.4060 C   0  0  0  0  0  0  0  0  0  0  0  0
  185.3330  178.2790  144.4410 C   0  0  0  0  0  2  0  0  0  0  0  0
  189.6920  176.5560  138.4860 C   0  0  0  0  0  0  0  0  0  0  0  0
  186.7470  178.0230  144.0600 C   0  0  0  0  0  0  0  0  0  0  0  0
  190.2940  174.8950  136.8030 C   0  0  0  0  0  3  0  0  0  0  0  0
  190.9850  176.4400  139.0440 C   0  0  0  0  0  0  0  0  0  0  0  0
  192.5770  173.8870  136.7300 C   0  0  0  0  0  2  0  0  0  0  0  0
  193.6950  173.7700  137.5590 O   0  0  0  0  0  0  0  0  0  0  0  0
  193.7240  171.3150  136.0810 C   0  0  0  0  0  1  0  0  0  0  0  0
  195.4580  173.3660  135.6580 O   0  0  0  0  0  0  0  0  0  0  0  0
  195.8320  172.0150  137.8760 O   0  0  0  0  0  1  0  0  0  0  0  0
  194.7180  172.6660  136.7770 P   0  0  1  0  0  0  0  0  0  0  0  0
  187.7540  178.1550  137.9500 C   0  0  0  0  0  2  0  0  0  0  0  0
  186.4010  177.4600  138.0200 C   0  0  0  0  0  2  0  0  0  0  0  0
  185.2800  178.4820  138.1500 C   0  0  0  0  0  2  0  0  0  0  0  0
  184.6850  178.3710  139.4150 O   0  0  0  0  0  0  0  0  0  0  0  0
  183.3720  178.1270  139.1660 N   0  0  0  0  0  0  0  0  0  0  0  0
  182.6200  179.3320  139.5430 C   0  0  2  0  0  3  0  0  0  0  0  0
  181.7960  179.0990  140.6510 O   0  0  0  0  0  1  0  0  0  0  0  0
  181.7380  181.3740  138.4220 C   0  0  0  0  0  1  0  0  0  0  0  0
  181.8100  179.8590  138.3640 C   0  0  0  0  0  2  0  0  0  0  0  0
  182.9720  177.0000  140.0080 C   0  0  0  0  0  2  0  0  0  0  0  0
  182.4520  175.8540  139.1470 C   0  0  0  0  0  1  0  0  0  0  0  0
  183.4380  175.5670  138.0220 O   0  0  0  0  0  1  0  0  0  0  0  0
  183.6240  174.8510  138.2730 O   0  0  0  0  0  0  0  0  0  0  0  0
  183.2200  174.4470  137.1480 C   0  0  0  0  0  1  0  0  0  0  0  0
  184.1380  174.1980  136.0020 C   0  0  0  0  0  1  0  0  0  0  0  0
  185.0920  173.2480  136.3720 O   0  0  0  0  0  0  0  0  0  0  0  0
  186.3150  173.9170  136.2790 C   0  0  2  0  0  3  0  0  0  0  0  0
  186.1890  175.0110  135.4210 O   0  0  0  0  0  1  0  0  0  0  0  0
  187.6300  171.9740  136.6840 O   0  0  0  0  0  1  0  0  0  0  0  0
  187.3800  172.9800  135.7490 C   0  0  0  0  0  2  0  0  0  0  0  0
  1  9  1  0  0  0  0
  2 20  1  0  0  0  0
  4 15  1  0  0  0  0
  5 16  1  0  0  0  0
  5  3  2  0  0  0  0
  6 21  2  0  0  0  0
  7 18  1  0  0  0  0
  8 16  1  0  0  0  0
  9 13  2  0  0  0  0
 10  7  2  0  0  0  0
 11  8  2  0  0  0  0
 12  6  1  0  0  0  0
 12 13  1  0  0  0  0
 13 11  1  0  0  0  0
 14 17  2  0  0  0  0
 15 18  1  0  0  0  0
 15  1  2  0  0  0  0
 17 23  1  0  0  0  0
 18 12  2  0  0  0  0
 19  5  1  0  0  0  0
 20 10  1  0  0  0  0
 20 23  2  0  0  0  0
 21 19  1  0  0  0  0
 21  8  1  0  0  0  0
 22 14  1  0  0  0  0
 22  2  2  0  0  0  0
 23  4  1  0  0  0  0
 24 14  1  0  0  0  0
 24 25  1  0  0  0  0
 27 29  2  0  0  0  0
 29 26  1  6  0  0  0
 29 25  1  0  0  0  0
 29 28  1  0  0  0  0
 30 31  1  0  0  0  0
 30 10  1  0  0  0  0
 31 32  1  0  0  0  0
 32 33  1  0  0  0  0
 34 33  1  0  0  0  0
 34 35  1  0  0  0  0
 34 39  1  0  0  0  0
 35 36  1  1  0  0  0
 38 37  1  0  0  0  0
 38 35  1  0  0  0  0
 40 39  1  0  0  0  0
 41 42  1  0  0  0  0
 43 42  1  0  0  0  0
 44 45  1  0  0  0  0
 46 47  1  6  0  0  0
 46 45  1  0  0  0  0
 49 46  1  0  0  0  0
 49 48  1  0  0  0  0
M  END
>  <MODEL>
4

>  <REMARK>
 VINA RESULT:      -7.1      1.637      4.448
  Name = 
  18 active torsions:
  status: ('A' for Active; 'I' for Inactive)
    1  A    between atoms: C_1  and  C_22
    2  A    between atoms: C_1  and  C_45
    3  A    between atoms: C_2  and  C_26
    4  A    between atoms: C_2  and  N_33
    5  A    between atoms: C_3  and  O_21
    6  A    between atoms: C_3  and  C_30
    7  A    between atoms: C_7  and  O_21
    8  A    between atoms: C_7  and  C_32
    9  A    between atoms: C_18  and  C_22
   10  A    between atoms: C_23  and  C_28
   11  A    between atoms: C_23  and  O_48
   12  A    between atoms: C_30  and  O_43
   13  A    between atoms: N_33  and  O_34
   14  A    between atoms: N_33  and  C_44
   15  A    between atoms: O_34  and  C_45
   16  A    between atoms: P_41  and  O_48
   17  A    between atoms: O_43  and  C_47
   18  A    between atoms: C_44  and  C_47
                            x       y       z     vdW  Elec       q    Type
                         _______ _______ _______ _____ _____    ______ ____

>  <TORSDO>
F 18

$$$$
=
 OpenBabel11032419353D

 49 51  0  0  1  0  0  0  0  0999 V2000
  182.0990  179.0770  143.9190 C   0  0  0  0  0  3  0  0  0  0  0  0
  182.5130  180.0850  138.2870 C   0  0  0  0  0  3  0  0  0  0  0  0
  189.8660  177.2960  145.7910 O   0  0  0  0  0  0  0  0  0  0  0  0
  181.3580  178.9900  141.6620 O   0  0  0  0  0  0  0  0  0  0  0  0
  188.7160  177.5270  145.3320 C   0  0  0  0  0  0  0  0  0  0  0  0
  186.0140  177.9110  142.9080 C   0  0  0  0  0  3  0  0  0  0  0  0
  184.0280  177.9450  140.8540 C   0  0  0  0  0  3  0  0  0  0  0  0
  186.5660  178.0710  145.2390 C   0  0  0  0  0  0  0  0  0  0  0  0
  183.0660  178.9460  144.9120 C   0  0  0  0  0  3  0  0  0  0  0  0
  183.4990  178.3020  139.6830 C   0  0  0  0  0  0  0  0  0  0  0  0
  185.3020  178.4400  145.5580 N   0  0  0  0  0  0  0  0  0  0  0  0
  184.6920  178.2970  143.2170 C   0  0  0  0  0  0  0  0  0  0  0  0
  184.3610  178.5640  144.5770 C   0  0  0  0  0  0  0  0  0  0  0  0
  180.4980  181.2640  138.9020 C   0  0  0  0  0  0  0  0  0  0  0  0
  182.4020  178.8330  142.5760 C   0  0  0  0  0  0  0  0  0  0  0  0
  187.6230  177.9080  146.1660 N   0  0  0  0  0  2  0  0  0  0  0  0
  180.4660  180.5630  140.1080 C   0  0  0  0  0  3  0  0  0  0  0  0
  183.7050  178.4240  142.2100 C   0  0  0  0  0  0  0  0  0  0  0  0
  188.3730  177.4320  143.8760 C   0  0  0  0  0  2  0  0  0  0  0  0
  182.4980  179.3760  139.5010 C   0  0  0  0  0  0  0  0  0  0  0  0
  186.9370  177.8120  143.9450 C   0  0  0  0  0  0  0  0  0  0  0  0
  181.5290  181.0310  137.9940 C   0  0  0  0  0  3  0  0  0  0  0  0
  181.4650  179.6350  140.4300 C   0  0  0  0  0  0  0  0  0  0  0  0
  179.4330  182.2550  138.5800 C   0  0  0  0  0  2  0  0  0  0  0  0
  179.4890  182.6000  137.2270 O   0  0  0  0  0  0  0  0  0  0  0  0
  178.9310  185.0050  138.6830 C   0  0  0  0  0  1  0  0  0  0  0  0
  181.1760  184.6100  137.2020 O   0  0  0  0  0  1  0  0  0  0  0  0
  178.9670  184.9500  135.8290 O   0  0  0  0  0  0  0  0  0  0  0  0
  179.6980  184.2830  137.2040 P   0  0  1  0  0  0  0  0  0  0  0  0
  184.0260  177.5790  138.4830 C   0  0  0  0  0  2  0  0  0  0  0  0
  185.4320  178.0580  138.1520 C   0  0  0  0  0  2  0  0  0  0  0  0
  185.8730  177.5270  136.7950 C   0  0  0  0  0  2  0  0  0  0  0  0
  187.2720  177.4350  136.7560 O   0  0  0  0  0  0  0  0  0  0  0  0
  187.5870  176.4730  137.6620 N   0  0  0  0  0  0  0  0  0  0  0  0
  188.7760  176.9300  138.3950 C   0  0  2  0  0  3  0  0  0  0  0  0
  189.8460  176.0390  138.2490 O   0  0  0  0  0  1  0  0  0  0  0  0
  188.7160  178.6060  140.2370 C   0  0  0  0  0  1  0  0  0  0  0  0
  188.4550  177.1570  139.8670 C   0  0  0  0  0  2  0  0  0  0  0  0
  187.8940  175.2550  136.9150 C   0  0  0  0  0  2  0  0  0  0  0  0
  186.6370  174.7140  136.2440 C   0  0  0  0  0  1  0  0  0  0  0  0
  185.9010  173.7870  137.2020 O   0  0  0  0  0  1  0  0  0  0  0  0
  185.5670  173.4560  137.8260 O   0  0  0  0  0  0  0  0  0  0  0  0
  184.4820  173.9280  137.3870 C   0  0  0  0  0  1  0  0  0  0  0  0
  183.5320  173.1350  136.5590 C   0  0  0  0  0  1  0  0  0  0  0  0
  182.4930  173.9600  136.1270 O   0  0  0  0  0  0  0  0  0  0  0  0
  181.6960  174.1510  137.2590 C   0  0  2  0  0  3  0  0  0  0  0  0
  181.1170  172.9390  137.6360 O   0  0  0  0  0  1  0  0  0  0  0  0
  180.9490  176.3980  137.5090 O   0  0  0  0  0  1  0  0  0  0  0  0
  180.6070  175.1600  136.9610 C   0  0  0  0  0  2  0  0  0  0  0  0
  1  9  1  0  0  0  0
  2 20  1  0  0  0  0
  4 15  1  0  0  0  0
  5  3  2  0  0  0  0
  5 16  1  0  0  0  0
  6 12  1  0  0  0  0
  6 21  2  0  0  0  0
  7 18  1  0  0  0  0
  8 11  2  0  0  0  0
  8 16  1  0  0  0  0
 10  7  2  0  0  0  0
 12 13  1  0  0  0  0
 13  9  2  0  0  0  0
 13 11  1  0  0  0  0
 14 17  2  0  0  0  0
 15  1  2  0  0  0  0
 17 23  1  0  0  0  0
 18 15  1  0  0  0  0
 18 12  2  0  0  0  0
 19 21  1  0  0  0  0
 19  5  1  0  0  0  0
 20 10  1  0  0  0  0
 20 23  2  0  0  0  0
 21  8  1  0  0  0  0
 22  2  2  0  0  0  0
 22 14  1  0  0  0  0
 23  4  1  0  0  0  0
 24 14  1  0  0  0  0
 25 24  1  0  0  0  0
 27 29  1  0  0  0  0
 28 29  2  0  0  0  0
 29 25  1  0  0  0  0
 29 26  1  1  0  0  0
 30 10  1  0  0  0  0
 31 30  1  0  0  0  0
 32 31  1  0  0  0  0
 33 32  1  0  0  0  0
 33 34  1  0  0  0  0
 34 35  1  0  0  0  0
 35 36  1  1  0  0  0
 35 38  1  0  0  0  0
 38 37  1  0  0  0  0
 39 34  1  0  0  0  0
 40 39  1  0  0  0  0
 41 42  1  0  0  0  0
 43 42  1  0  0  0  0
 45 44  1  0  0  0  0
 45 46  1  0  0  0  0
 46 47  1  6  0  0  0
 49 46  1  0  0  0  0
 49 48  1  0  0  0  0
M  END
>  <MODEL>
5

>  <REMARK>
 VINA RESULT:      -6.9      3.912      8.972
  Name = 
  18 active torsions:
  status: ('A' for Active; 'I' for Inactive)
    1  A    between atoms: C_1  and  C_22
    2  A    between atoms: C_1  and  C_45
    3  A    between atoms: C_2  and  C_26
    4  A    between atoms: C_2  and  N_33
    5  A    between atoms: C_3  and  O_21
    6  A    between atoms: C_3  and  C_30
    7  A    between atoms: C_7  and  O_21
    8  A    between atoms: C_7  and  C_32
    9  A    between atoms: C_18  and  C_22
   10  A    between atoms: C_23  and  C_28
   11  A    between atoms: C_23  and  O_48
   12  A    between atoms: C_30  and  O_43
   13  A    between atoms: N_33  and  O_34
   14  A    between atoms: N_33  and  C_44
   15  A    between atoms: O_34  and  C_45
   16  A    between atoms: P_41  and  O_48
   17  A    between atoms: O_43  and  C_47
   18  A    between atoms: C_44  and  C_47
                            x       y       z     vdW  Elec       q    Type
                         _______ _______ _______ _____ _____    ______ ____

>  <TORSDO>
F 18

$$$$
=
 OpenBabel11032419353D

 49 51  0  0  1  0  0  0  0  0999 V2000
  183.1650  178.9940  144.5880 C   0  0  0  0  0  3  0  0  0  0  0  0
  188.4990  177.1860  143.5020 C   0  0  0  0  0  3  0  0  0  0  0  0
  179.4470  177.3380  137.4870 O   0  0  0  0  0  0  0  0  0  0  0  0
  185.5360  179.1100  144.7030 O   0  0  0  0  0  0  0  0  0  0  0  0
  180.1730  177.5890  138.4840 C   0  0  0  0  0  0  0  0  0  0  0  0
  183.1870  178.1430  140.4670 C   0  0  0  0  0  3  0  0  0  0  0  0
  185.6700  178.7340  141.7510 C   0  0  0  0  0  3  0  0  0  0  0  0
  180.7900  178.0570  140.5640 C   0  0  0  0  0  0  0  0  0  0  0  0
  181.9640  178.8060  143.9080 C   0  0  0  0  0  3  0  0  0  0  0  0
  186.9300  178.5040  142.1220 C   0  0  0  0  0  0  0  0  0  0  0  0
  180.7900  178.3380  141.8900 N   0  0  0  0  0  0  0  0  0  0  0  0
  183.2110  178.4330  141.8480 C   0  0  0  0  0  0  0  0  0  0  0  0
  181.9720  178.5210  142.5460 C   0  0  0  0  0  0  0  0  0  0  0  0
  188.3860  177.1240  145.9130 C   0  0  0  0  0  0  0  0  0  0  0  0
  184.3940  178.9000  143.9290 C   0  0  0  0  0  0  0  0  0  0  0  0
  179.6320  177.8480  139.7780 N   0  0  0  0  0  2  0  0  0  0  0  0
  187.2380  177.9150  145.8710 C   0  0  0  0  0  3  0  0  0  0  0  0
  184.4300  178.6320  142.5400 C   0  0  0  0  0  0  0  0  0  0  0  0
  181.6700  177.6370  138.4240 C   0  0  0  0  0  2  0  0  0  0  0  0
  187.3380  177.9770  143.4430 C   0  0  0  0  0  0  0  0  0  0  0  0
  181.9550  177.9520  139.8490 C   0  0  0  0  0  0  0  0  0  0  0  0
  189.0120  176.7500  144.7250 C   0  0  0  0  0  3  0  0  0  0  0  0
  186.6920  178.3310  144.6490 C   0  0  0  0  0  0  0  0  0  0  0  0
  188.9470  176.6820  147.2200 C   0  0  0  0  0  2  0  0  0  0  0  0
  189.9230  177.5820  147.6560 O   0  0  0  0  0  0  0  0  0  0  0  0
  191.0970  174.9710  147.5090 C   0  0  0  0  0  1  0  0  0  0  0  0
  192.0300  177.1370  146.1550 O   0  0  0  0  0  0  0  0  0  0  0  0
  192.4500  177.1610  148.7450 O   0  0  0  0  0  1  0  0  0  0  0  0
  191.3970  176.7620  147.4780 P   0  0  1  0  0  0  0  0  0  0  0  0
  187.9730  178.7520  141.0770 C   0  0  0  0  0  2  0  0  0  0  0  0
  188.6730  177.4510  140.7090 C   0  0  0  0  0  2  0  0  0  0  0  0
  189.5880  177.6560  139.5100 C   0  0  0  0  0  2  0  0  0  0  0  0
  190.2220  176.4480  139.1880 O   0  0  0  0  0  0  0  0  0  0  0  0
  189.7550  176.1230  137.9550 N   0  0  0  0  0  0  0  0  0  0  0  0
  190.8380  175.4300  137.2420 C   0  0  2  0  0  3  0  0  0  0  0  0
  191.2650  174.2910  137.9350 O   0  0  0  0  0  1  0  0  0  0  0  0
  193.2040  175.9630  137.8110 C   0  0  0  0  0  1  0  0  0  0  0  0
  192.0050  176.3730  136.9750 C   0  0  0  0  0  2  0  0  0  0  0  0
  189.4230  177.3720  137.2720 C   0  0  0  0  0  2  0  0  0  0  0  0
  188.2150  177.1730  136.3630 C   0  0  0  0  0  1  0  0  0  0  0  0
  187.0830  176.5230  137.1460 O   0  0  0  0  0  1  0  0  0  0  0  0
  186.4590  176.7230  137.5730 O   0  0  0  0  0  0  0  0  0  0  0  0
  185.7760  176.4130  136.5580 C   0  0  0  0  0  1  0  0  0  0  0  0
  185.1350  175.0790  136.3920 C   0  0  0  0  0  1  0  0  0  0  0  0
  184.7250  174.6040  137.6390 O   0  0  0  0  0  0  0  0  0  0  0  0
  184.9710  173.2290  137.5940 C   0  0  2  0  0  3  0  0  0  0  0  0
  186.3420  173.0000  137.4670 O   0  0  0  0  0  1  0  0  0  0  0  0
  183.4560  171.5470  136.8580 O   0  0  0  0  0  1  0  0  0  0  0  0
  184.2450  172.6110  136.4180 C   0  0  0  0  0  2  0  0  0  0  0  0
  2 22  1  0  0  0  0
  3  5  2  0  0  0  0
  5 16  1  0  0  0  0
  6 12  1  0  0  0  0
  7 10  2  0  0  0  0
  7 18  1  0  0  0  0
  8 11  2  0  0  0  0
  9  1  2  0  0  0  0
 10 20  1  0  0  0  0
 11 13  1  0  0  0  0
 12 18  1  0  0  0  0
 12 13  2  0  0  0  0
 13  9  1  0  0  0  0
 14 24  1  0  0  0  0
 15  1  1  0  0  0  0
 15  4  1  0  0  0  0
 16  8  1  0  0  0  0
 17 14  1  0  0  0  0
 18 15  2  0  0  0  0
 19  5  1  0  0  0  0
 19 21  1  0  0  0  0
 20  2  2  0  0  0  0
 20 23  1  0  0  0  0
 21  6  2  0  0  0  0
 21  8  1  0  0  0  0
 22 14  2  0  0  0  0
 23  4  1  0  0  0  0
 23 17  2  0  0  0  0
 24 25  1  0  0  0  0
 27 29  2  0  0  0  0
 29 26  1  1  0  0  0
 29 25  1  0  0  0  0
 29 28  1  0  0  0  0
 30 10  1  0  0  0  0
 31 30  1  0  0  0  0
 32 31  1  0  0  0  0
 33 32  1  0  0  0  0
 34 33  1  0  0  0  0
 35 36  1  1  0  0  0
 35 34  1  0  0  0  0
 38 35  1  0  0  0  0
 38 37  1  0  0  0  0
 39 34  1  0  0  0  0
 40 39  1  0  0  0  0
 41 42  1  0  0  0  0
 43 42  1  0  0  0  0
 44 45  1  0  0  0  0
 46 47  1  6  0  0  0
 46 45  1  0  0  0  0
 49 48  1  0  0  0  0
 49 46  1  0  0  0  0
M  END
>  <MODEL>
6

>  <REMARK>
 VINA RESULT:      -6.8      3.335      7.899
  Name = 
  18 active torsions:
  status: ('A' for Active; 'I' for Inactive)
    1  A    between atoms: C_1  and  C_22
    2  A    between atoms: C_1  and  C_45
    3  A    between atoms: C_2  and  C_26
    4  A    between atoms: C_2  and  N_33
    5  A    between atoms: C_3  and  O_21
    6  A    between atoms: C_3  and  C_30
    7  A    between atoms: C_7  and  O_21
    8  A    between atoms: C_7  and  C_32
    9  A    between atoms: C_18  and  C_22
   10  A    between atoms: C_23  and  C_28
   11  A    between atoms: C_23  and  O_48
   12  A    between atoms: C_30  and  O_43
   13  A    between atoms: N_33  and  O_34
   14  A    between atoms: N_33  and  C_44
   15  A    between atoms: O_34  and  C_45
   16  A    between atoms: P_41  and  O_48
   17  A    between atoms: O_43  and  C_47
   18  A    between atoms: C_44  and  C_47
                            x       y       z     vdW  Elec       q    Type
                         _______ _______ _______ _____ _____    ______ ____

>  <TORSDO>
F 18

$$$$
=
 OpenBabel11032419353D

 49 50  0  0  1  0  0  0  0  0999 V2000
  182.1270  178.9930  144.0900 C   0  0  0  0  0  3  0  0  0  0  0  0
  182.5800  180.1590  138.4920 C   0  0  0  0  0  3  0  0  0  0  0  0
  189.9070  177.3170  146.0010 O   0  0  0  0  0  0  0  0  0  0  0  0
  181.4120  178.9510  141.8240 O   0  0  0  0  0  0  0  0  0  0  0  0
  188.7580  177.5370  145.5360 C   0  0  0  0  0  0  0  0  0  0  0  0
  186.0750  177.9320  143.0930 C   0  0  0  0  0  3  0  0  0  0  0  0
  184.1110  177.9810  141.0180 C   0  0  0  0  0  3  0  0  0  0  0  0
  186.5990  178.0410  145.4330 C   0  0  0  0  0  0  0  0  0  0  0  0
  183.0860  178.8550  145.0900 C   0  0  0  0  0  3  0  0  0  0  0  0
  183.5870  178.3590  139.8520 C   0  0  0  0  0  0  0  0  0  0  0  0
  185.3240  178.3750  145.7480 N   0  0  0  0  0  0  0  0  0  0  0  0
  184.7420  178.2830  143.3970 C   0  0  0  0  0  0  0  0  0  0  0  0
  184.3920  178.5070  144.7600 C   0  0  0  0  0  0  0  0  0  0  0  0
  180.5360  181.2810  139.1150 C   0  0  0  0  0  0  0  0  0  0  0  0
  182.4490  178.7910  142.7450 C   0  0  0  0  0  0  0  0  0  0  0  0
  187.6480  177.8740  146.3670 N   0  0  0  0  0  2  0  0  0  0  0  0
  180.5050  180.5480  140.3020 C   0  0  0  0  0  3  0  0  0  0  0  0
  183.7640  178.4170  142.3830 C   0  0  0  0  0  0  0  0  0  0  0  0
  188.4320  177.4740  144.0740 C   0  0  0  0  0  2  0  0  0  0  0  0
  182.5670  179.4170  139.6870 C   0  0  0  0  0  0  0  0  0  0  0  0
  186.9890  177.8230  144.1370 C   0  0  0  0  0  0  0  0  0  0  0  0
  181.5810  181.0930  138.2130 C   0  0  0  0  0  3  0  0  0  0  0  0
  181.5190  179.6310  140.6100 C   0  0  0  0  0  0  0  0  0  0  0  0
  179.4550  182.2590  138.8080 C   0  0  0  0  0  2  0  0  0  0  0  0
  179.5300  182.6560  137.4700 O   0  0  0  0  0  0  0  0  0  0  0  0
  178.9320  185.0500  136.0120 C   0  0  0  0  0  1  0  0  0  0  0  0
  178.9430  184.8840  138.7260 O   0  0  0  0  0  1  0  0  0  0  0  0
  181.3030  184.7990  137.5820 O   0  0  0  0  0  0  0  0  0  0  0  0
  179.6720  184.3460  137.5130 P   0  0  1  0  0  0  0  0  0  0  0  0
  184.1410  177.6780  138.6390 C   0  0  0  0  0  2  0  0  0  0  0  0
  185.3120  178.4720  138.0750 C   0  0  0  0  0  2  0  0  0  0  0  0
  186.5420  177.5850  137.9350 C   0  0  0  0  0  2  0  0  0  0  0  0
  187.6890  178.3100  138.2880 O   0  0  0  0  0  0  0  0  0  0  0  0
  188.6990  177.4020  138.2700 N   0  0  0  0  0  0  0  0  0  0  0  0
  189.7460  177.8890  139.1790 C   0  0  2  0  0  3  0  0  0  0  0  0
  191.0050  177.3850  138.8320 O   0  0  0  0  0  1  0  0  0  0  0  0
  190.5400  176.7640  141.2550 C   0  0  0  0  0  1  0  0  0  0  0  0
  189.4080  177.5560  140.6280 C   0  0  0  0  0  2  0  0  0  0  0  0
  189.2080  177.3440  136.9010 C   0  0  0  0  0  1  0  0  0  0  0  0
  189.1190  175.9210  136.3620 C   0  0  0  0  0 15  0  0  0  0  0  0
  190.3860  175.5840  135.5880 O   0  0  0  0  0  1  0  0  0  0  0  0
  190.5490  175.6530  136.3490 O   0  0  0  0  0  0  0  0  0  0  0  0
  191.3700  174.7120  136.1700 C   0  0  0  0  0  1  0  0  0  0  0  0
  192.8200  174.9420  135.9210 C   0  0  0  0  0  1  0  0  0  0  0  0
  193.5500  173.8540  136.4030 O   0  0  0  0  0  0  0  0  0  0  0  0
  194.8190  173.9980  135.8350 C   0  0  2  0  0  3  0  0  0  0  0  0
  195.0310  172.9900  134.8950 O   0  0  0  0  0  1  0  0  0  0  0  0
  195.8860  175.0950  137.6600 O   0  0  0  0  0  1  0  0  0  0  0  0
  195.8810  173.9160  136.9120 C   0  0  0  0  0  2  0  0  0  0  0  0
  1  9  1  0  0  0  0
  2 20  1  0  0  0  0
  4 15  1  0  0  0  0
  5  3  2  0  0  0  0
  5 16  1  0  0  0  0
  6 12  1  0  0  0  0
  6 21  2  0  0  0  0
  7 18  1  0  0  0  0
  8 11  2  0  0  0  0
  8 16  1  0  0  0  0
 10  7  2  0  0  0  0
 12 13  1  0  0  0  0
 13  9  2  0  0  0  0
 13 11  1  0  0  0  0
 14 17  2  0  0  0  0
 15  1  2  0  0  0  0
 17 23  1  0  0  0  0
 18 15  1  0  0  0  0
 18 12  2  0  0  0  0
 19 21  1  0  0  0  0
 19  5  1  0  0  0  0
 20 10  1  0  0  0  0
 20 23  2  0  0  0  0
 21  8  1  0  0  0  0
 22  2  2  0  0  0  0
 22 14  1  0  0  0  0
 23  4  1  0  0  0  0
 24 14  1  0  0  0  0
 25 29  1  0  0  0  0
 25 24  1  0  0  0  0
 29 26  1  6  0  0  0
 29 28  2  0  0  0  0
 29 27  1  0  0  0  0
 30 10  1  0  0  0  0
 31 30  1  0  0  0  0
 32 31  1  0  0  0  0
 32 33  1  0  0  0  0
 34 33  1  0  0  0  0
 34 35  1  0  0  0  0
 35 36  1  6  0  0  0
 35 38  1  0  0  0  0
 38 37  1  0  0  0  0
 39 34  1  0  0  0  0
 41 42  1  0  0  0  0
 43 42  1  0  0  0  0
 44 45  1  0  0  0  0
 46 47  1  6  0  0  0
 46 45  1  0  0  0  0
 46 49  1  0  0  0  0
 49 48  1  0  0  0  0
M  END
>  <MODEL>
7

>  <REMARK>
 VINA RESULT:      -6.8      3.833     10.633
  Name = 
  18 active torsions:
  status: ('A' for Active; 'I' for Inactive)
    1  A    between atoms: C_1  and  C_22
    2  A    between atoms: C_1  and  C_45
    3  A    between atoms: C_2  and  C_26
    4  A    between atoms: C_2  and  N_33
    5  A    between atoms: C_3  and  O_21
    6  A    between atoms: C_3  and  C_30
    7  A    between atoms: C_7  and  O_21
    8  A    between atoms: C_7  and  C_32
    9  A    between atoms: C_18  and  C_22
   10  A    between atoms: C_23  and  C_28
   11  A    between atoms: C_23  and  O_48
   12  A    between atoms: C_30  and  O_43
   13  A    between atoms: N_33  and  O_34
   14  A    between atoms: N_33  and  C_44
   15  A    between atoms: O_34  and  C_45
   16  A    between atoms: P_41  and  O_48
   17  A    between atoms: O_43  and  C_47
   18  A    between atoms: C_44  and  C_47
                            x       y       z     vdW  Elec       q    Type
                         _______ _______ _______ _____ _____    ______ ____

>  <TORSDO>
F 18

$$$$
=
 OpenBabel11032419353D

 49 50  0  0  1  0  0  0  0  0999 V2000
  188.0090  172.9210  136.1970 C   0  0  0  0  0  3  0  0  0  0  0  0
  191.9360  176.7390  137.9010 C   0  0  0  0  0  3  0  0  0  0  0  0
  181.4610  177.7240  135.1730 O   0  0  0  0  0  0  0  0  0  0  0  0
  189.8550  173.6690  137.4940 O   0  0  0  0  0  0  0  0  0  0  0  0
  182.5320  177.1170  135.4380 C   0  0  0  0  0  0  0  0  0  0  0  0
  185.8430  176.4730  136.8310 C   0  0  0  0  0  3  0  0  0  0  0  0
  188.3300  176.1300  138.1970 C   0  0  0  0  0  3  0  0  0  0  0  0
  184.0940  175.5410  135.4770 C   0  0  0  0  0  0  0  0  0  0  0  0
  186.7460  173.0780  135.6330 C   0  0  0  0  0  3  0  0  0  0  0  0
  189.5720  176.4550  138.5570 C   0  0  0  0  0  0  0  0  0  0  0  0
  184.7940  174.3970  135.2820 N   0  0  0  0  0  0  0  0  0  0  0  0
  186.5920  175.2920  136.6390 C   0  0  0  0  0  0  0  0  0  0  0  0
  186.0320  174.2540  135.8400 C   0  0  0  0  0  0  0  0  0  0  0  0
  193.2800  174.9300  137.0350 C   0  0  0  0  0  0  0  0  0  0  0  0
  188.5870  173.9300  136.9730 C   0  0  0  0  0  0  0  0  0  0  0  0
  182.8060  175.8040  134.9530 N   0  0  0  0  0  2  0  0  0  0  0  0
  192.1640  174.0940  137.0720 C   0  0  0  0  0  3  0  0  0  0  0  0
  187.8740  175.1270  137.2170 C   0  0  0  0  0  0  0  0  0  0  0  0
  183.6260  177.7020  136.2800 C   0  0  0  0  0  2  0  0  0  0  0  0
  190.8000  175.9110  137.9380 C   0  0  0  0  0  0  0  0  0  0  0  0
  184.5920  176.5730  136.2300 C   0  0  0  0  0  0  0  0  0  0  0  0
  193.1630  176.2580  137.4410 C   0  0  0  0  0  3  0  0  0  0  0  0
  190.9180  174.5730  137.5000 C   0  0  0  0  0  0  0  0  0  0  0  0
  194.5940  174.4080  136.5670 C   0  0  0  0  0  2  0  0  0  0  0  0
  195.6090  175.3220  136.8630 O   0  0  0  0  0  0  0  0  0  0  0  0
  197.2360  172.9870  136.5200 C   0  0  0  0  0  1  0  0  0  0  0  0
  198.0770  175.2590  137.7550 O   0  0  0  0  0  0  0  0  0  0  0  0
  196.3350  173.8260  139.0960 O   0  0  0  0  0  1  0  0  0  0  0  0
  196.8400  174.4040  137.5850 P   0  0  1  0  0  0  0  0  0  0  0  0
  189.6880  177.4940  139.6290 C   0  0  0  0  0  2  0  0  0  0  0  0
  188.3080  178.0010  140.0250 C   0  0  0  0  0  2  0  0  0  0  0  0
  188.3190  178.5180  141.4570 C   0  0  0  0  0  2  0  0  0  0  0  0
  189.3020  177.8420  142.1950 O   0  0  0  0  0  0  0  0  0  0  0  0
  188.9540  178.0260  143.4950 N   0  0  0  0  0  0  0  0  0  0  0  0
  190.1970  178.1290  144.2730 C   0  0  2  0  0  3  0  0  0  0  0  0
  190.8760  179.3240  144.0030 O   0  0  0  0  0  1  0  0  0  0  0  0
  191.6650  176.4230  145.3400 C   0  0  0  0  0  1  0  0  0  0  0  0
  191.0970  176.9250  144.0250 C   0  0  0  0  0  2  0  0  0  0  0  0
  188.1960  176.8470  143.9130 C   0  0  0  0  0  1  0  0  0  0  0  0
  187.5710  177.0790  145.2840 C   0  0  0  0  0 15  0  0  0  0  0  0
  186.9410  178.4650  145.3350 O   0  0  0  0  0  1  0  0  0  0  0  0
  186.4800  177.8390  145.2500 O   0  0  0  0  0  0  0  0  0  0  0  0
  185.5320  178.6020  145.5830 C   0  0  0  0  0  1  0  0  0  0  0  0
  184.6560  179.2830  144.5900 C   0  0  0  0  0  1  0  0  0  0  0  0
  184.0580  178.3270  143.7680 O   0  0  0  0  0  0  0  0  0  0  0  0
  184.7630  178.4020  142.5640 C   0  0  2  0  0  3  0  0  0  0  0  0
  185.1870  179.7130  142.3470 O   0  0  0  0  0  1  0  0  0  0  0  0
  182.6370  178.5910  141.5090 O   0  0  0  0  0  1  0  0  0  0  0  0
  183.8790  177.9600  141.4160 C   0  0  0  0  0  2  0  0  0  0  0  0
  1 15  1  0  0  0  0
  2 20  1  0  0  0  0
  3  5  2  0  0  0  0
  4 23  1  0  0  0  0
  5 19  1  0  0  0  0
  7 10  2  0  0  0  0
  8 21  1  0  0  0  0
  9 13  1  0  0  0  0
  9  1  2  0  0  0  0
 10 30  1  0  0  0  0
 11  8  2  0  0  0  0
 11 13  1  0  0  0  0
 12  6  1  0  0  0  0
 12 18  1  0  0  0  0
 13 12  2  0  0  0  0
 14 17  2  0  0  0  0
 14 22  1  0  0  0  0
 15 18  2  0  0  0  0
 15  4  1  0  0  0  0
 16  5  1  0  0  0  0
 16  8  1  0  0  0  0
 17 23  1  0  0  0  0
 18  7  1  0  0  0  0
 20 10  1  0  0  0  0
 21 19  1  0  0  0  0
 21  6  2  0  0  0  0
 22  2  2  0  0  0  0
 23 20  2  0  0  0  0
 24 25  1  0  0  0  0
 24 14  1  0  0  0  0
 25 29  1  0  0  0  0
 29 26  1  6  0  0  0
 29 27  2  0  0  0  0
 29 28  1  0  0  0  0
 30 31  1  0  0  0  0
 31 32  1  0  0  0  0
 32 33  1  0  0  0  0
 33 34  1  0  0  0  0
 34 39  1  0  0  0  0
 34 35  1  0  0  0  0
 35 36  1  6  0  0  0
 38 35  1  0  0  0  0
 38 37  1  0  0  0  0
 42 41  1  0  0  0  0
 42 43  1  0  0  0  0
 45 44  1  0  0  0  0
 46 47  1  6  0  0  0
 46 45  1  0  0  0  0
 49 48  1  0  0  0  0
 49 46  1  0  0  0  0
M  END
>  <MODEL>
8

>  <REMARK>
 VINA RESULT:      -6.8      2.353      7.020
  Name = 
  18 active torsions:
  status: ('A' for Active; 'I' for Inactive)
    1  A    between atoms: C_1  and  C_22
    2  A    between atoms: C_1  and  C_45
    3  A    between atoms: C_2  and  C_26
    4  A    between atoms: C_2  and  N_33
    5  A    between atoms: C_3  and  O_21
    6  A    between atoms: C_3  and  C_30
    7  A    between atoms: C_7  and  O_21
    8  A    between atoms: C_7  and  C_32
    9  A    between atoms: C_18  and  C_22
   10  A    between atoms: C_23  and  C_28
   11  A    between atoms: C_23  and  O_48
   12  A    between atoms: C_30  and  O_43
   13  A    between atoms: N_33  and  O_34
   14  A    between atoms: N_33  and  C_44
   15  A    between atoms: O_34  and  C_45
   16  A    between atoms: P_41  and  O_48
   17  A    between atoms: O_43  and  C_47
   18  A    between atoms: C_44  and  C_47
                            x       y       z     vdW  Elec       q    Type
                         _______ _______ _______ _____ _____    ______ ____

>  <TORSDO>
F 18

$$$$
=
 OpenBabel11032419353D

 49 51  0  0  1  0  0  0  0  0999 V2000
  184.2930  176.2670  136.7150 C   0  0  0  0  0  3  0  0  0  0  0  0
  189.2750  178.1640  138.8330 C   0  0  0  0  0  3  0  0  0  0  0  0
  179.3400  182.5540  138.4270 O   0  0  0  0  0  0  0  0  0  0  0  0
  186.3740  176.0370  137.8410 O   0  0  0  0  0  0  0  0  0  0  0  0
  180.2090  181.6520  138.2950 C   0  0  0  0  0  0  0  0  0  0  0  0
  183.2960  179.7760  138.8120 C   0  0  0  0  0  3  0  0  0  0  0  0
  185.6810  178.3820  139.5430 C   0  0  0  0  0  3  0  0  0  0  0  0
  181.2510  179.8360  137.5590 C   0  0  0  0  0  0  0  0  0  0  0  0
  183.0870  176.9130  136.4590 C   0  0  0  0  0  3  0  0  0  0  0  0
  186.9890  178.2480  139.7660 C   0  0  0  0  0  0  0  0  0  0  0  0
  181.5740  178.7020  136.8920 N   0  0  0  0  0  0  0  0  0  0  0  0
  183.6570  178.5960  138.1280 C   0  0  0  0  0  0  0  0  0  0  0  0
  182.7590  178.0750  137.1510 C   0  0  0  0  0  0  0  0  0  0  0  0
  189.9680  176.5100  137.2170 C   0  0  0  0  0  0  0  0  0  0  0  0
  185.1960  176.7640  137.6590 C   0  0  0  0  0  0  0  0  0  0  0  0
  180.0550  180.5700  137.3780 N   0  0  0  0  0  2  0  0  0  0  0  0
  188.6660  176.0120  137.1800 C   0  0  0  0  0  3  0  0  0  0  0  0
  184.8790  177.9320  138.3900 C   0  0  0  0  0  0  0  0  0  0  0  0
  181.4890  181.6180  139.0750 C   0  0  0  0  0  2  0  0  0  0  0  0
  187.9560  177.6770  138.8030 C   0  0  0  0  0  0  0  0  0  0  0  0
  182.0830  180.3820  138.5010 C   0  0  0  0  0  0  0  0  0  0  0  0
  190.2710  177.5950  138.0380 C   0  0  0  0  0  3  0  0  0  0  0  0
  187.6490  176.5940  137.9480 C   0  0  0  0  0  0  0  0  0  0  0  0
  191.0350  175.8860  136.3860 C   0  0  0  0  0  2  0  0  0  0  0  0
  192.2580  176.5230  136.6130 O   0  0  0  0  0  0  0  0  0  0  0  0
  193.0070  173.7580  136.7080 C   0  0  0  0  0  1  0  0  0  0  0  0
  193.4990  175.3950  134.5940 O   0  0  0  0  0  0  0  0  0  0  0  0
  194.9560  175.8450  136.7290 O   0  0  0  0  0  1  0  0  0  0  0  0
  193.4390  175.4160  136.1060 P   0  0  1  0  0  0  0  0  0  0  0  0
  187.4840  178.7800  141.0740 C   0  0  0  0  0  2  0  0  0  0  0  0
  187.7840  177.6340  142.0320 C   0  0  0  0  0  2  0  0  0  0  0  0
  186.7960  177.6320  143.1900 C   0  0  0  0  0  2  0  0  0  0  0  0
  187.3760  177.0060  144.3030 O   0  0  0  0  0  0  0  0  0  0  0  0
  187.4640  177.9780  145.2480 N   0  0  0  0  0  0  0  0  0  0  0  0
  188.7490  177.8040  145.9400 C   0  0  2  0  0  3  0  0  0  0  0  0
  189.6600  177.0780  145.1620 O   0  0  0  0  0  1  0  0  0  0  0  0
  188.9070  178.1210  148.4060 C   0  0  0  0  0  1  0  0  0  0  0  0
  188.5500  177.1450  147.3000 C   0  0  0  0  0  2  0  0  0  0  0  0
  186.3590  177.7770  146.1830 C   0  0  0  0  0  2  0  0  0  0  0  0
  185.4310  178.9870  146.1720 C   0  0  0  0  0  1  0  0  0  0  0  0
  184.0880  178.6000  145.5670 O   0  0  0  0  0  1  0  0  0  0  0  0
  183.9600  179.3710  145.5730 O   0  0  0  0  0  0  0  0  0  0  0  0
  183.6360  179.2370  144.3600 C   0  0  0  0  0  1  0  0  0  0  0  0
  182.2240  179.0860  143.9130 C   0  0  0  0  0  1  0  0  0  0  0  0
  182.1860  179.0050  142.5200 O   0  0  0  0  0  0  0  0  0  0  0  0
  180.8880  179.3930  142.1770 C   0  0  2  0  0  3  0  0  0  0  0  0
  180.4840  180.4550  142.9870 O   0  0  0  0  0  1  0  0  0  0  0  0
  178.9340  178.5770  143.2660 O   0  0  0  0  0  1  0  0  0  0  0  0
  179.9340  178.2300  142.3570 C   0  0  0  0  0  2  0  0  0  0  0  0
  1 15  1  0  0  0  0
  4 23  1  0  0  0  0
  5  3  2  0  0  0  0
  5 19  1  0  0  0  0
  7 10  2  0  0  0  0
  8 21  1  0  0  0  0
  9  1  2  0  0  0  0
  9 13  1  0  0  0  0
 10 30  1  0  0  0  0
 11 13  1  0  0  0  0
 11  8  2  0  0  0  0
 12 18  1  0  0  0  0
 12  6  1  0  0  0  0
 13 12  2  0  0  0  0
 14 22  1  0  0  0  0
 15  4  1  0  0  0  0
 15 18  2  0  0  0  0
 16  8  1  0  0  0  0
 16  5  1  0  0  0  0
 17 14  2  0  0  0  0
 17 23  1  0  0  0  0
 18  7  1  0  0  0  0
 20  2  1  0  0  0  0
 20 10  1  0  0  0  0
 21  6  2  0  0  0  0
 21 19  1  0  0  0  0
 22  2  2  0  0  0  0
 23 20  2  0  0  0  0
 24 25  1  0  0  0  0
 24 14  1  0  0  0  0
 27 29  2  0  0  0  0
 29 25  1  0  0  0  0
 29 26  1  1  0  0  0
 29 28  1  0  0  0  0
 30 31  1  0  0  0  0
 31 32  1  0  0  0  0
 32 33  1  0  0  0  0
 33 34  1  0  0  0  0
 34 35  1  0  0  0  0
 34 39  1  0  0  0  0
 35 36  1  6  0  0  0
 35 38  1  0  0  0  0
 38 37  1  0  0  0  0
 40 39  1  0  0  0  0
 41 42  1  0  0  0  0
 43 42  1  0  0  0  0
 45 44  1  0  0  0  0
 46 49  1  0  0  0  0
 46 45  1  0  0  0  0
 46 47  1  1  0  0  0
 49 48  1  0  0  0  0
M  END
>  <MODEL>
9

>  <REMARK>
 VINA RESULT:      -6.7      2.248      6.984
  Name = 
  18 active torsions:
  status: ('A' for Active; 'I' for Inactive)
    1  A    between atoms: C_1  and  C_22
    2  A    between atoms: C_1  and  C_45
    3  A    between atoms: C_2  and  C_26
    4  A    between atoms: C_2  and  N_33
    5  A    between atoms: C_3  and  O_21
    6  A    between atoms: C_3  and  C_30
    7  A    between atoms: C_7  and  O_21
    8  A    between atoms: C_7  and  C_32
    9  A    between atoms: C_18  and  C_22
   10  A    between atoms: C_23  and  C_28
   11  A    between atoms: C_23  and  O_48
   12  A    between atoms: C_30  and  O_43
   13  A    between atoms: N_33  and  O_34
   14  A    between atoms: N_33  and  C_44
   15  A    between atoms: O_34  and  C_45
   16  A    between atoms: P_41  and  O_48
   17  A    between atoms: O_43  and  C_47
   18  A    between atoms: C_44  and  C_47
                            x       y       z     vdW  Elec       q    Type
                         _______ _______ _______ _____ _____    ______ ____

>  <TORSDO>
F 18

$$$$
