=
 OpenBabel11032420203D

 32 37  0  0  1  0  0  0  0  0999 V2000
  187.4070  173.9580  137.2000 O   0  0  0  0  0  0  0  0  0  0  0  0
  189.8890  174.6000  136.0310 N   0  0  0  0  0  2  0  0  0  0  0  0
  194.2730  174.9350  135.4090 N   0  0  0  0  0  0  0  0  0  0  0  0
  189.2680  175.8570  136.1810 N   0  0  1  0  0  0  0  0  0  0  0  0
  194.6630  176.0500  135.9790 C   0  0  0  0  0  0  0  0  0  0  0  0
  187.9240  175.7470  135.7670 N   0  0  0  0  0  0  0  0  0  0  0  0
  190.5780  175.5690  138.1410 C   0  0  2  0  0  3  0  0  0  0  0  0
  187.4610  176.7010  134.7620 C   0  0  0  0  0  2  0  0  0  0  0  0
  193.0110  174.3020  135.7130 C   0  0  0  0  0  3  0  0  0  0  0  0
  192.2110  174.8670  136.6140 C   0  0  0  0  0  0  0  0  0  0  0  0
  191.7200  176.5000  138.0990 N   0  0  0  0  0  0  0  0  0  0  0  0
  189.2080  177.7030  137.8120 C   0  0  0  0  0  2  0  0  0  0  0  0
  185.5710  178.4940  138.3940 C   0  0  0  0  0  1  0  0  0  0  0  0
  187.0180  174.7590  136.3070 C   0  0  0  0  0  0  0  0  0  0  0  0
  192.5900  176.0700  137.2590 C   0  0  0  0  0  0  0  0  0  0  0  0
  187.8070  178.1670  137.5720 C   0  0  0  0  0  0  0  0  0  0  0  0
  193.8300  176.7030  136.9550 N   0  0  0  0  0  2  0  0  0  0  0  0
  195.9190  176.6190  135.6290 N   0  0  0  0  0  1  0  0  0  0  0  0
  187.4670  178.7560  136.2290 C   0  0  0  0  0  2  0  0  0  0  0  0
  190.8720  174.4670  137.1050 C   0  0  2  0  0  3  0  0  0  0  0  0
  186.6160  177.7980  135.4010 C   0  0  0  0  0  2  0  0  0  0  0  0
  186.9400  178.0570  138.5210 N   0  0  0  0  0  0  0  0  0  0  0  0
  189.3090  176.1930  137.6000 C   0  0  1  0  0  3  0  0  0  0  0  0
  180.7740  174.4110  135.8790 C   0  0  0  0  0  2  0  0  0  0  0  0
  181.5980  173.5010  135.1710 O   0  0  0  0  0  0  0  0  0  0  0  0
  183.8960  173.0960  134.8810 N   0  0  0  0  0  0  0  0  0  0  0  0
  185.3200  173.3390  135.1490 C   0  0  0  0  0  2  0  0  0  0  0  0
  185.5990  174.6850  135.8320 C   0  0  1  0  0  3  0  0  0  0  0  0
  181.7360  175.2980  136.6850 C   0  0  0  0  0  2  0  0  0  0  0  0
  184.4470  174.9840  137.2130 S   0  0  0  0  0  0  0  0  0  0  0  0
  182.9230  173.8500  135.2960 C   0  0  0  0  0  0  0  0  0  0  0  0
  183.0950  175.1250  136.0180 C   0  0  1  0  0  3  0  0  0  0  0  0
  3  9  1  0  0  0  0
  3  5  2  0  0  0  0
  4  2  1  1  0  0  0
  4 23  1  0  0  0  0
  5 17  1  0  0  0  0
  6  4  1  0  0  0  0
  6 14  1  0  0  0  0
  7 11  1  6  0  0  0
  8 21  1  0  0  0  0
  8  6  1  0  0  0  0
  9 10  2  0  0  0  0
 10 20  1  0  0  0  0
 10 15  1  0  0  0  0
 13 22  1  0  0  0  0
 14  1  2  0  0  0  0
 15 11  2  0  0  0  0
 16 12  1  0  0  0  0
 16 22  2  0  0  0  0
 17 15  1  0  0  0  0
 18  5  1  0  0  0  0
 19 16  1  0  0  0  0
 20  2  1  6  0  0  0
 20  7  1  0  0  0  0
 21 19  1  0  0  0  0
 23 12  1  6  0  0  0
 23  7  1  0  0  0  0
 24 29  1  0  0  0  0
 25 31  1  0  0  0  0
 25 24  1  0  0  0  0
 26 27  1  0  0  0  0
 26 31  2  0  0  0  0
 27 28  1  0  0  0  0
 28 14  1  1  0  0  0
 28 30  1  0  0  0  0
 31 32  1  0  0  0  0
 32 29  1  1  0  0  0
 32 30  1  0  0  0  0
M  END
>  <MODEL>
1

>  <REMARK>
 VINA RESULT:      -6.0      0.000      0.000
  Name = 
  1 active torsions:
  status: ('A' for Active; 'I' for Inactive)
    1  A    between atoms: C_16  and  C_20
                            x       y       z     vdW  Elec       q    Type
                         _______ _______ _______ _____ _____    ______ ____

>  <TORSDO>
F 1

$$$$
=
 OpenBabel11032420203D

 32 37  0  0  1  0  0  0  0  0999 V2000
  187.5410  177.0630  139.4610 O   0  0  0  0  0  0  0  0  0  0  0  0
  185.5910  178.8980  138.5840 N   0  0  0  0  0  2  0  0  0  0  0  0
  181.7420  181.0860  138.2400 N   0  0  0  0  0  0  0  0  0  0  0  0
  185.9110  178.1820  137.4120 N   0  0  1  0  0  0  0  0  0  0  0  0
  181.0040  180.4400  137.3710 C   0  0  0  0  0  0  0  0  0  0  0  0
  187.3140  178.0450  137.3380 N   0  0  0  0  0  0  0  0  0  0  0  0
  184.0380  177.0550  138.3380 C   0  0  2  0  0  3  0  0  0  0  0  0
  187.9580  178.4890  136.1040 C   0  0  0  0  0  2  0  0  0  0  0  0
  182.8880  180.4900  138.8880 C   0  0  0  0  0  3  0  0  0  0  0  0
  183.2060  179.2300  138.5980 C   0  0  0  0  0  0  0  0  0  0  0  0
  182.8610  177.2930  137.4830 N   0  0  0  0  0  0  0  0  0  0  0  0
  185.0850  176.2300  136.1570 C   0  0  0  0  0  2  0  0  0  0  0  0
  188.0880  174.0690  135.4460 C   0  0  0  0  0  1  0  0  0  0  0  0
  188.1010  177.4780  138.4100 C   0  0  0  0  0  0  0  0  0  0  0  0
  182.4350  178.4900  137.6670 C   0  0  0  0  0  0  0  0  0  0  0  0
  186.3870  175.7620  135.5890 C   0  0  0  0  0  0  0  0  0  0  0  0
  181.3110  179.0770  137.0190 N   0  0  0  0  0  2  0  0  0  0  0  0
  179.8910  181.0900  136.7690 N   0  0  0  0  0  1  0  0  0  0  0  0
  187.0980  176.6490  134.6030 C   0  0  0  0  0  2  0  0  0  0  0  0
  184.3170  178.3780  139.0790 C   0  0  2  0  0  3  0  0  0  0  0  0
  188.3310  177.2990  135.2260 C   0  0  0  0  0  2  0  0  0  0  0  0
  186.8530  174.6160  135.9530 N   0  0  0  0  0  0  0  0  0  0  0  0
  185.3040  176.8610  137.5310 C   0  0  1  0  0  3  0  0  0  0  0  0
  193.9870  175.4100  137.8060 C   0  0  0  0  0  2  0  0  0  0  0  0
  193.6370  176.2970  138.8550 O   0  0  0  0  0  0  0  0  0  0  0  0
  191.7180  177.4190  139.6180 N   0  0  0  0  0  0  0  0  0  0  0  0
  190.2860  177.7490  139.5880 C   0  0  0  0  0  2  0  0  0  0  0  0
  189.5880  177.3550  138.2800 C   0  0  1  0  0  3  0  0  0  0  0  0
  192.6790  175.1270  137.0510 C   0  0  0  0  0  2  0  0  0  0  0  0
  190.0460  175.6680  137.7610 S   0  0  0  0  0  0  0  0  0  0  0  0
  192.3400  176.7290  138.7100 C   0  0  0  0  0  0  0  0  0  0  0  0
  191.7330  176.2500  137.4530 C   0  0  1  0  0  3  0  0  0  0  0  0
  3  9  1  0  0  0  0
  4 23  1  0  0  0  0
  4  2  1  1  0  0  0
  5  3  2  0  0  0  0
  6  4  1  0  0  0  0
  6 14  1  0  0  0  0
  7 11  1  6  0  0  0
  7 20  1  0  0  0  0
  8  6  1  0  0  0  0
 10  9  2  0  0  0  0
 10 20  1  0  0  0  0
 11 15  2  0  0  0  0
 13 22  1  0  0  0  0
 14  1  2  0  0  0  0
 15 10  1  0  0  0  0
 16 22  2  0  0  0  0
 16 12  1  0  0  0  0
 17  5  1  0  0  0  0
 17 15  1  0  0  0  0
 18  5  1  0  0  0  0
 19 21  1  0  0  0  0
 19 16  1  0  0  0  0
 20  2  1  6  0  0  0
 21  8  1  0  0  0  0
 23 12  1  6  0  0  0
 23  7  1  0  0  0  0
 24 25  1  0  0  0  0
 27 26  1  0  0  0  0
 28 14  1  1  0  0  0
 28 27  1  0  0  0  0
 29 24  1  0  0  0  0
 30 28  1  0  0  0  0
 31 25  1  0  0  0  0
 31 26  2  0  0  0  0
 32 29  1  1  0  0  0
 32 30  1  0  0  0  0
 32 31  1  0  0  0  0
M  END
>  <MODEL>
2

>  <REMARK>
 VINA RESULT:      -5.6      3.271      8.835
  Name = 
  1 active torsions:
  status: ('A' for Active; 'I' for Inactive)
    1  A    between atoms: C_16  and  C_20
                            x       y       z     vdW  Elec       q    Type
                         _______ _______ _______ _____ _____    ______ ____

>  <TORSDO>
F 1

$$$$
=
 OpenBabel11032420203D

 32 37  0  0  1  0  0  0  0  0999 V2000
  192.9150  176.8760  138.4600 O   0  0  0  0  0  0  0  0  0  0  0  0
  194.3550  174.5260  137.8760 N   0  0  0  0  0  2  0  0  0  0  0  0
  197.6850  171.8210  136.7290 N   0  0  0  0  0  0  0  0  0  0  0  0
  193.2870  174.4860  136.9570 N   0  0  1  0  0  0  0  0  0  0  0  0
  197.6460  171.6880  135.4250 C   0  0  0  0  0  0  0  0  0  0  0  0
  192.0980  174.8330  137.6340 N   0  0  0  0  0  0  0  0  0  0  0  0
  195.0700  175.5390  135.7950 C   0  0  2  0  0  3  0  0  0  0  0  0
  190.9780  173.9020  137.5240 C   0  0  0  0  0  2  0  0  0  0  0  0
  197.0140  172.8950  137.4250 C   0  0  0  0  0  3  0  0  0  0  0  0
  196.3340  173.7930  136.7160 C   0  0  0  0  0  0  0  0  0  0  0  0
  195.5740  174.6240  134.7550 N   0  0  0  0  0  0  0  0  0  0  0  0
  192.8280  175.1520  134.6300 C   0  0  0  0  0  2  0  0  0  0  0  0
  189.5810  177.0620  134.6880 C   0  0  0  0  0  1  0  0  0  0  0  0
  191.9590  176.0560  138.3930 C   0  0  0  0  0  0  0  0  0  0  0  0
  196.2670  173.6930  135.3040 C   0  0  0  0  0  0  0  0  0  0  0  0
  191.3710  175.4590  134.7690 C   0  0  0  0  0  0  0  0  0  0  0  0
  196.9190  172.6300  134.6140 N   0  0  0  0  0  2  0  0  0  0  0  0
  198.3280  170.6040  134.8060 N   0  0  0  0  0  1  0  0  0  0  0  0
  190.4290  174.3310  135.0970 C   0  0  0  0  0  2  0  0  0  0  0  0
  195.5430  174.9680  137.1470 C   0  0  2  0  0  3  0  0  0  0  0  0
  189.9350  174.4180  136.5370 C   0  0  0  0  0  2  0  0  0  0  0  0
  190.9660  176.6710  134.5960 N   0  0  0  0  0  0  0  0  0  0  0  0
  193.5630  175.4830  135.9280 C   0  0  1  0  0  3  0  0  0  0  0  0
  186.5760  178.6280  140.3150 C   0  0  0  0  0  2  0  0  0  0  0  0
  187.6010  178.3190  141.2440 O   0  0  0  0  0  0  0  0  0  0  0  0
  189.7540  177.3750  141.2110 N   0  0  0  0  0  0  0  0  0  0  0  0
  190.9340  176.8100  140.5420 C   0  0  0  0  0  2  0  0  0  0  0  0
  190.6750  176.3760  139.0930 C   0  0  1  0  0  3  0  0  0  0  0  0
  187.1420  178.2550  138.9360 C   0  0  0  0  0  2  0  0  0  0  0  0
  189.7450  177.6460  138.1720 S   0  0  0  0  0  0  0  0  0  0  0  0
  188.6230  177.6360  140.6270 C   0  0  0  0  0  0  0  0  0  0  0  0
  188.3080  177.3160  139.2220 C   0  0  1  0  0  3  0  0  0  0  0  0
  3  9  1  0  0  0  0
  4  6  1  0  0  0  0
  4  2  1  1  0  0  0
  5  3  2  0  0  0  0
  6 14  1  0  0  0  0
  7 11  1  6  0  0  0
  7 23  1  0  0  0  0
  7 20  1  0  0  0  0
  8  6  1  0  0  0  0
 10  9  2  0  0  0  0
 11 15  2  0  0  0  0
 12 16  1  0  0  0  0
 14  1  2  0  0  0  0
 15 10  1  0  0  0  0
 16 19  1  0  0  0  0
 17 15  1  0  0  0  0
 17  5  1  0  0  0  0
 18  5  1  0  0  0  0
 19 21  1  0  0  0  0
 20 10  1  6  0  0  0
 20  2  1  0  0  0  0
 21  8  1  0  0  0  0
 22 13  1  0  0  0  0
 22 16  2  0  0  0  0
 23 12  1  6  0  0  0
 23  4  1  0  0  0  0
 24 25  1  0  0  0  0
 27 26  1  0  0  0  0
 28 14  1  6  0  0  0
 28 27  1  0  0  0  0
 29 24  1  0  0  0  0
 30 28  1  0  0  0  0
 30 32  1  0  0  0  0
 31 26  2  0  0  0  0
 31 25  1  0  0  0  0
 32 29  1  6  0  0  0
 32 31  1  0  0  0  0
M  END
>  <MODEL>
3

>  <REMARK>
 VINA RESULT:      -5.4      4.238      6.108
  Name = 
  1 active torsions:
  status: ('A' for Active; 'I' for Inactive)
    1  A    between atoms: C_16  and  C_20
                            x       y       z     vdW  Elec       q    Type
                         _______ _______ _______ _____ _____    ______ ____

>  <TORSDO>
F 1

$$$$
=
 OpenBabel11032420203D

 32 37  0  0  1  0  0  0  0  0999 V2000
  185.0910  179.3780  138.3420 O   0  0  0  0  0  0  0  0  0  0  0  0
  186.9150  177.2300  138.3740 N   0  0  0  0  0  2  0  0  0  0  0  0
  190.6810  174.9170  137.9430 N   0  0  0  0  0  0  0  0  0  0  0  0
  185.9030  176.7820  137.5010 N   0  0  1  0  0  0  0  0  0  0  0  0
  190.7150  174.4540  136.7170 C   0  0  0  0  0  0  0  0  0  0  0  0
  184.6490  177.0860  138.0710 N   0  0  0  0  0  0  0  0  0  0  0  0
  187.5350  177.7870  136.1000 C   0  0  2  0  0  3  0  0  0  0  0  0
  183.7000  175.9840  138.2090 C   0  0  0  0  0  2  0  0  0  0  0  0
  189.8190  176.0050  138.3440 C   0  0  0  0  0  3  0  0  0  0  0  0
  189.0300  176.5680  137.4310 C   0  0  0  0  0  0  0  0  0  0  0  0
  188.2200  176.7350  135.3260 N   0  0  0  0  0  0  0  0  0  0  0  0
  185.4320  176.7490  135.0830 C   0  0  0  0  0  2  0  0  0  0  0  0
  181.9180  178.0430  134.6640 C   0  0  0  0  0  1  0  0  0  0  0  0
  184.2840  178.4200  138.4920 C   0  0  0  0  0  0  0  0  0  0  0  0
  189.0330  176.1030  136.0920 C   0  0  0  0  0  0  0  0  0  0  0  0
  183.9400  176.8340  135.1450 C   0  0  0  0  0  0  0  0  0  0  0  0
  189.8750  175.0240  135.6950 N   0  0  0  0  0  2  0  0  0  0  0  0
  191.5870  173.3780  136.3940 N   0  0  0  0  0  1  0  0  0  0  0  0
  183.1830  175.6850  135.7560 C   0  0  0  0  0  2  0  0  0  0  0  0
  188.0430  177.6650  137.5500 C   0  0  2  0  0  3  0  0  0  0  0  0
  182.6260  176.0510  137.1280 C   0  0  0  0  0  2  0  0  0  0  0  0
  183.3510  177.8780  134.6690 N   0  0  0  0  0  0  0  0  0  0  0  0
  186.0540  177.5160  136.2490 C   0  0  1  0  0  3  0  0  0  0  0  0
  179.0230  181.0520  140.6540 C   0  0  0  0  0  2  0  0  0  0  0  0
  179.7820  180.1790  141.4720 O   0  0  0  0  0  0  0  0  0  0  0  0
  181.7460  178.8980  141.2980 N   0  0  0  0  0  0  0  0  0  0  0  0
  182.9510  178.4230  140.6040 C   0  0  0  0  0  2  0  0  0  0  0  0
  182.9390  178.6890  139.0930 C   0  0  1  0  0  3  0  0  0  0  0  0
  179.8050  181.1680  139.3360 C   0  0  0  0  0  2  0  0  0  0  0  0
  182.4020  180.3900  138.7190 S   0  0  0  0  0  0  0  0  0  0  0  0
  180.8070  179.6100  140.7510 C   0  0  0  0  0  0  0  0  0  0  0  0
  180.7480  179.9720  139.3230 C   0  0  1  0  0  3  0  0  0  0  0  0
  1 14  2  0  0  0  0
  3  9  1  0  0  0  0
  4  6  1  0  0  0  0
  4  2  1  1  0  0  0
  5  3  2  0  0  0  0
  6  8  1  0  0  0  0
  6 14  1  0  0  0  0
  7 11  1  6  0  0  0
  7 23  1  0  0  0  0
  7 20  1  0  0  0  0
 10  9  2  0  0  0  0
 11 15  2  0  0  0  0
 12 16  1  0  0  0  0
 13 22  1  0  0  0  0
 15 10  1  0  0  0  0
 16 19  1  0  0  0  0
 17 15  1  0  0  0  0
 17  5  1  0  0  0  0
 18  5  1  0  0  0  0
 19 21  1  0  0  0  0
 20 10  1  6  0  0  0
 20  2  1  0  0  0  0
 21  8  1  0  0  0  0
 22 16  2  0  0  0  0
 23 12  1  6  0  0  0
 23  4  1  0  0  0  0
 24 25  1  0  0  0  0
 27 26  1  0  0  0  0
 28 14  1  1  0  0  0
 28 27  1  0  0  0  0
 29 24  1  0  0  0  0
 30 28  1  0  0  0  0
 30 32  1  0  0  0  0
 31 26  2  0  0  0  0
 31 25  1  0  0  0  0
 32 29  1  1  0  0  0
 32 31  1  0  0  0  0
M  END
>  <MODEL>
4

>  <REMARK>
 VINA RESULT:      -5.3      3.722      5.641
  Name = 
  1 active torsions:
  status: ('A' for Active; 'I' for Inactive)
    1  A    between atoms: C_16  and  C_20
                            x       y       z     vdW  Elec       q    Type
                         _______ _______ _______ _____ _____    ______ ____

>  <TORSDO>
F 1

$$$$
=
 OpenBabel11032420203D

 32 37  0  0  1  0  0  0  0  0999 V2000
  186.1420  173.3690  137.9250 O   0  0  0  0  0  0  0  0  0  0  0  0
  188.4750  173.6630  136.3730 N   0  0  0  0  0  2  0  0  0  0  0  0
  192.7590  174.0460  135.2690 N   0  0  0  0  0  0  0  0  0  0  0  0
  187.7320  174.8200  136.0620 N   0  0  1  0  0  0  0  0  0  0  0  0
  193.0570  175.3230  135.3030 C   0  0  0  0  0  0  0  0  0  0  0  0
  186.3870  174.4490  135.8520 N   0  0  0  0  0  0  0  0  0  0  0  0
  189.1670  175.4610  137.8420 C   0  0  2  0  0  3  0  0  0  0  0  0
  185.7720  174.8690  134.5960 C   0  0  0  0  0  2  0  0  0  0  0  0
  191.5900  173.4990  135.9170 C   0  0  0  0  0  3  0  0  0  0  0  0
  190.7820  174.3210  136.5840 C   0  0  0  0  0  0  0  0  0  0  0  0
  190.1990  176.3770  137.3230 N   0  0  0  0  0  0  0  0  0  0  0  0
  187.5610  177.1620  136.8090 C   0  0  0  0  0  2  0  0  0  0  0  0
  183.8970  177.8430  137.3560 C   0  0  0  0  0  1  0  0  0  0  0  0
  185.6220  173.7020  136.8260 C   0  0  0  0  0  0  0  0  0  0  0  0
  191.0650  175.7080  136.6520 C   0  0  0  0  0  0  0  0  0  0  0  0
  186.1080  177.3780  136.5330 C   0  0  0  0  0  0  0  0  0  0  0  0
  192.2120  176.2530  136.0060 N   0  0  0  0  0  2  0  0  0  0  0  0
  194.2240  175.7920  134.6400 N   0  0  0  0  0  1  0  0  0  0  0  0
  185.6360  177.3380  135.1040 C   0  0  0  0  0  2  0  0  0  0  0  0
  189.5220  174.0570  137.3150 C   0  0  2  0  0  3  0  0  0  0  0  0
  184.8490  176.0640  134.8130 C   0  0  0  0  0  2  0  0  0  0  0  0
  185.3090  177.6010  137.5210 N   0  0  0  0  0  0  0  0  0  0  0  0
  187.8120  175.7100  137.2150 C   0  0  1  0  0  3  0  0  0  0  0  0
  179.3950  173.0040  137.0050 C   0  0  0  0  0  2  0  0  0  0  0  0
  180.2460  171.8750  136.8960 O   0  0  0  0  0  0  0  0  0  0  0  0
  182.5520  171.4400  136.7650 N   0  0  0  0  0  0  0  0  0  0  0  0
  183.9690  171.8310  136.7710 C   0  0  0  0  0  2  0  0  0  0  0  0
  184.1960  173.3320  136.5530 C   0  0  1  0  0  3  0  0  0  0  0  0
  180.3310  174.2170  137.1120 C   0  0  0  0  0  2  0  0  0  0  0  0
  183.0700  174.3340  137.5790 S   0  0  0  0  0  0  0  0  0  0  0  0
  181.5530  172.2690  136.7300 C   0  0  0  0  0  0  0  0  0  0  0  0
  181.6780  173.7320  136.5900 C   0  0  1  0  0  3  0  0  0  0  0  0
  3  5  2  0  0  0  0
  3  9  1  0  0  0  0
  4  2  1  1  0  0  0
  4 23  1  0  0  0  0
  5 17  1  0  0  0  0
  6  4  1  0  0  0  0
  6 14  1  0  0  0  0
  7 11  1  6  0  0  0
  8 21  1  0  0  0  0
  8  6  1  0  0  0  0
  9 10  2  0  0  0  0
 10 15  1  0  0  0  0
 10 20  1  0  0  0  0
 13 22  1  0  0  0  0
 14  1  2  0  0  0  0
 15 11  2  0  0  0  0
 16 12  1  0  0  0  0
 16 22  2  0  0  0  0
 17 15  1  0  0  0  0
 18  5  1  0  0  0  0
 19 16  1  0  0  0  0
 20  2  1  6  0  0  0
 20  7  1  0  0  0  0
 21 19  1  0  0  0  0
 23 12  1  6  0  0  0
 23  7  1  0  0  0  0
 24 29  1  0  0  0  0
 25 24  1  0  0  0  0
 26 27  1  0  0  0  0
 28 27  1  0  0  0  0
 28 14  1  1  0  0  0
 28 30  1  0  0  0  0
 31 26  2  0  0  0  0
 31 25  1  0  0  0  0
 32 31  1  0  0  0  0
 32 29  1  1  0  0  0
 32 30  1  0  0  0  0
M  END
>  <MODEL>
5

>  <REMARK>
 VINA RESULT:      -4.6      1.719      2.040
  Name = 
  1 active torsions:
  status: ('A' for Active; 'I' for Inactive)
    1  A    between atoms: C_16  and  C_20
                            x       y       z     vdW  Elec       q    Type
                         _______ _______ _______ _____ _____    ______ ____

>  <TORSDO>
F 1

$$$$
=
 OpenBabel11032420203D

 32 37  0  0  1  0  0  0  0  0999 V2000
  186.9840  177.2750  138.3500 O   0  0  0  0  0  0  0  0  0  0  0  0
  184.7250  178.8960  137.8930 N   0  0  0  0  0  2  0  0  0  0  0  0
  181.2840  181.6020  138.6340 N   0  0  0  0  0  0  0  0  0  0  0  0
  184.3260  177.6380  137.3970 N   0  0  1  0  0  0  0  0  0  0  0  0
  180.2410  180.8460  138.8810 C   0  0  0  0  0  0  0  0  0  0  0  0
  185.3850  177.0970  136.6370 N   0  0  0  0  0  0  0  0  0  0  0  0
  183.5660  177.6910  139.6460 C   0  0  2  0  0  3  0  0  0  0  0  0
  185.0730  176.6720  135.2750 C   0  0  0  0  0  2  0  0  0  0  0  0
  182.6400  181.1120  138.7150 C   0  0  0  0  0  3  0  0  0  0  0  0
  182.8440  179.8430  139.0610 C   0  0  0  0  0  0  0  0  0  0  0  0
  182.0960  177.7940  139.6560 N   0  0  0  0  0  0  0  0  0  0  0  0
  183.1170  175.6420  138.1860 C   0  0  0  0  0  2  0  0  0  0  0  0
  185.2460  172.6730  137.2640 C   0  0  0  0  0  1  0  0  0  0  0  0
  186.7230  176.9400  137.1620 C   0  0  0  0  0  0  0  0  0  0  0  0
  181.7490  178.9890  139.3400 C   0  0  0  0  0  0  0  0  0  0  0  0
  183.8280  174.6120  137.3670 C   0  0  0  0  0  0  0  0  0  0  0  0
  180.4090  179.4660  139.2530 N   0  0  0  0  0  2  0  0  0  0  0  0
  178.9330  181.3950  138.7800 N   0  0  0  0  0  1  0  0  0  0  0  0
  183.6730  174.6560  135.8700 C   0  0  0  0  0  2  0  0  0  0  0  0
  184.0980  179.0690  139.2030 C   0  0  2  0  0  3  0  0  0  0  0  0
  184.9470  175.1540  135.1930 C   0  0  0  0  0  2  0  0  0  0  0  0
  184.5400  173.7180  137.9640 N   0  0  0  0  0  0  0  0  0  0  0  0
  184.0710  176.7800  138.5480 C   0  0  1  0  0  3  0  0  0  0  0  0
  191.4780  173.5610  134.8710 C   0  0  0  0  0  2  0  0  0  0  0  0
  191.5360  174.9780  134.8770 O   0  0  0  0  0  0  0  0  0  0  0  0
  190.1680  176.7720  135.5370 N   0  0  0  0  0  0  0  0  0  0  0  0
  188.9650  177.3570  136.1450 C   0  0  0  0  0  2  0  0  0  0  0  0
  187.8110  176.3600  136.3140 C   0  0  1  0  0  3  0  0  0  0  0  0
  190.1460  173.1990  135.5440 C   0  0  0  0  0  2  0  0  0  0  0  0
  188.3920  174.7790  137.0130 S   0  0  0  0  0  0  0  0  0  0  0  0
  190.3350  175.5080  135.2880 C   0  0  0  0  0  0  0  0  0  0  0  0
  189.3070  174.4690  135.4820 C   0  0  1  0  0  3  0  0  0  0  0  0
  3  9  1  0  0  0  0
  3  5  2  0  0  0  0
  4  2  1  1  0  0  0
  4 23  1  0  0  0  0
  5 17  1  0  0  0  0
  6 14  1  0  0  0  0
  6  4  1  0  0  0  0
  7 11  1  6  0  0  0
  8  6  1  0  0  0  0
  9 10  2  0  0  0  0
 10 20  1  0  0  0  0
 10 15  1  0  0  0  0
 13 22  1  0  0  0  0
 14  1  2  0  0  0  0
 15 11  2  0  0  0  0
 16 22  2  0  0  0  0
 16 12  1  0  0  0  0
 17 15  1  0  0  0  0
 18  5  1  0  0  0  0
 19 16  1  0  0  0  0
 20  2  1  6  0  0  0
 20  7  1  0  0  0  0
 21  8  1  0  0  0  0
 21 19  1  0  0  0  0
 23 12  1  6  0  0  0
 23  7  1  0  0  0  0
 24 25  1  0  0  0  0
 24 29  1  0  0  0  0
 25 31  1  0  0  0  0
 26 27  1  0  0  0  0
 27 28  1  0  0  0  0
 28 30  1  0  0  0  0
 28 14  1  1  0  0  0
 31 32  1  0  0  0  0
 31 26  2  0  0  0  0
 32 29  1  1  0  0  0
 32 30  1  0  0  0  0
M  END
>  <MODEL>
6

>  <REMARK>
 VINA RESULT:      -4.6      3.572      8.700
  Name = 
  1 active torsions:
  status: ('A' for Active; 'I' for Inactive)
    1  A    between atoms: C_16  and  C_20
                            x       y       z     vdW  Elec       q    Type
                         _______ _______ _______ _____ _____    ______ ____

>  <TORSDO>
F 1

$$$$
=
 OpenBabel11032420203D

 32 37  0  0  1  0  0  0  0  0999 V2000
  186.0280  178.9120  138.3220 O   0  0  0  0  0  0  0  0  0  0  0  0
  188.1210  177.0400  138.0880 N   0  0  0  0  0  2  0  0  0  0  0  0
  192.1340  175.3090  137.3020 N   0  0  0  0  0  0  0  0  0  0  0  0
  187.1340  176.5320  137.2190 N   0  0  1  0  0  0  0  0  0  0  0  0
  192.1660  174.9590  136.0390 C   0  0  0  0  0  0  0  0  0  0  0  0
  185.8810  176.6120  137.8630 N   0  0  0  0  0  0  0  0  0  0  0  0
  188.5440  177.8650  135.8500 C   0  0  2  0  0  3  0  0  0  0  0  0
  185.0950  175.3830  137.9390 C   0  0  0  0  0  2  0  0  0  0  0  0
  191.1560  176.2320  137.8330 C   0  0  0  0  0  3  0  0  0  0  0  0
  190.2530  176.7550  137.0070 C   0  0  0  0  0  0  0  0  0  0  0  0
  189.3220  176.9860  134.9590 N   0  0  0  0  0  0  0  0  0  0  0  0
  186.5470  176.6380  134.8280 C   0  0  0  0  0  2  0  0  0  0  0  0
  182.8760  177.4680  134.6670 C   0  0  0  0  0  1  0  0  0  0  0  0
  185.3650  177.8440  138.4170 C   0  0  0  0  0  0  0  0  0  0  0  0
  190.2500  176.4090  135.6320 C   0  0  0  0  0  0  0  0  0  0  0  0
  185.0630  176.5120  134.9570 C   0  0  0  0  0  0  0  0  0  0  0  0
  191.2060  175.4930  135.1070 N   0  0  0  0  0  2  0  0  0  0  0  0
  193.1560  174.0440  135.5860 N   0  0  0  0  0  1  0  0  0  0  0  0
  184.4970  175.2230  135.4910 C   0  0  0  0  0  2  0  0  0  0  0  0
  189.1370  177.6920  137.2630 C   0  0  2  0  0  3  0  0  0  0  0  0
  183.9680  175.3930  136.9110 C   0  0  0  0  0  2  0  0  0  0  0  0
  184.3170  177.5020  134.6000 N   0  0  0  0  0  0  0  0  0  0  0  0
  187.1210  177.3820  136.0340 C   0  0  1  0  0  3  0  0  0  0  0  0
  179.5400  179.2190  140.2810 C   0  0  0  0  0  2  0  0  0  0  0  0
  180.5870  179.0790  141.2260 O   0  0  0  0  0  0  0  0  0  0  0  0
  182.8850  178.5810  141.2180 N   0  0  0  0  0  0  0  0  0  0  0  0
  184.1670  178.2890  140.5630 C   0  0  0  0  0  2  0  0  0  0  0  0
  184.0280  177.8740  139.0920 C   0  0  1  0  0  3  0  0  0  0  0  0
  180.1970  179.0230  138.9050 C   0  0  0  0  0  2  0  0  0  0  0  0
  182.8840  178.9740  138.1930 S   0  0  0  0  0  0  0  0  0  0  0  0
  181.7370  178.6380  140.6130 C   0  0  0  0  0  0  0  0  0  0  0  0
  181.5200  178.3220  139.1880 C   0  0  1  0  0  3  0  0  0  0  0  0
  1 14  2  0  0  0  0
  3  9  1  0  0  0  0
  4  6  1  0  0  0  0
  4  2  1  1  0  0  0
  5  3  2  0  0  0  0
  6  8  1  0  0  0  0
  6 14  1  0  0  0  0
  7 11  1  6  0  0  0
  7 23  1  0  0  0  0
  7 20  1  0  0  0  0
 10  9  2  0  0  0  0
 11 15  2  0  0  0  0
 12 16  1  0  0  0  0
 15 10  1  0  0  0  0
 16 19  1  0  0  0  0
 17 15  1  0  0  0  0
 17  5  1  0  0  0  0
 18  5  1  0  0  0  0
 19 21  1  0  0  0  0
 20 10  1  6  0  0  0
 20  2  1  0  0  0  0
 21  8  1  0  0  0  0
 22 13  1  0  0  0  0
 22 16  2  0  0  0  0
 23 12  1  6  0  0  0
 23  4  1  0  0  0  0
 24 25  1  0  0  0  0
 27 26  1  0  0  0  0
 28 14  1  6  0  0  0
 28 27  1  0  0  0  0
 29 24  1  0  0  0  0
 30 28  1  0  0  0  0
 30 32  1  0  0  0  0
 31 26  2  0  0  0  0
 31 25  1  0  0  0  0
 32 29  1  6  0  0  0
 32 31  1  0  0  0  0
M  END
>  <MODEL>
7

>  <REMARK>
 VINA RESULT:      -4.5      3.107      4.699
  Name = 
  1 active torsions:
  status: ('A' for Active; 'I' for Inactive)
    1  A    between atoms: C_16  and  C_20
                            x       y       z     vdW  Elec       q    Type
                         _______ _______ _______ _____ _____    ______ ____

>  <TORSDO>
F 1

$$$$
=
 OpenBabel11032420203D

 32 37  0  0  1  0  0  0  0  0999 V2000
  185.3130  178.1880  140.6390 O   0  0  0  0  0  0  0  0  0  0  0  0
  184.1270  180.1460  138.9950 N   0  0  0  0  0  2  0  0  0  0  0  0
  181.1480  182.9930  137.3420 N   0  0  0  0  0  0  0  0  0  0  0  0
  184.4480  179.1140  138.0890 N   0  0  1  0  0  0  0  0  0  0  0  0
  180.4320  182.3390  136.4600 C   0  0  0  0  0  0  0  0  0  0  0  0
  185.7500  178.6500  138.3760 N   0  0  0  0  0  0  0  0  0  0  0  0
  182.2030  178.6960  138.7400 C   0  0  2  0  0  3  0  0  0  0  0  0
  186.7030  178.6250  137.2700 C   0  0  0  0  0  2  0  0  0  0  0  0
  181.9510  182.3300  138.3430 C   0  0  0  0  0  3  0  0  0  0  0  0
  181.9610  181.0000  138.3800 C   0  0  0  0  0  0  0  0  0  0  0  0
  181.3110  178.9790  137.6010 N   0  0  0  0  0  0  0  0  0  0  0  0
  183.3640  177.1530  137.0640 C   0  0  0  0  0  2  0  0  0  0  0  0
  185.7430  174.2660  137.5070 C   0  0  0  0  0  1  0  0  0  0  0  0
  186.1450  178.1980  139.6910 C   0  0  0  0  0  0  0  0  0  0  0  0
  181.2010  180.2490  137.4490 C   0  0  0  0  0  0  0  0  0  0  0  0
  184.5690  176.2810  136.9200 C   0  0  0  0  0  0  0  0  0  0  0  0
  180.4150  180.8990  136.4540 N   0  0  0  0  0  2  0  0  0  0  0  0
  179.6660  183.0570  135.5010 N   0  0  0  0  0  1  0  0  0  0  0  0
  185.6620  176.7190  135.9820 C   0  0  0  0  0  2  0  0  0  0  0  0
  182.6920  180.0620  139.2620 C   0  0  2  0  0  3  0  0  0  0  0  0
  186.8900  177.2050  136.7450 C   0  0  0  0  0  2  0  0  0  0  0  0
  184.6320  175.1820  137.5940 N   0  0  0  0  0  0  0  0  0  0  0  0
  183.4930  178.0330  138.3070 C   0  0  1  0  0  3  0  0  0  0  0  0
  191.7420  176.8510  142.1700 C   0  0  0  0  0  2  0  0  0  0  0  0
  191.6460  177.5030  140.9150 O   0  0  0  0  0  0  0  0  0  0  0  0
  189.9520  178.2530  139.4680 N   0  0  0  0  0  0  0  0  0  0  0  0
  188.5520  178.4970  139.0950 C   0  0  0  0  0  2  0  0  0  0  0  0
  187.5400  177.7160  139.9440 C   0  0  1  0  0  3  0  0  0  0  0  0
  190.2950  176.6780  142.6570 C   0  0  0  0  0  2  0  0  0  0  0  0
  187.9400  177.8190  141.7200 S   0  0  0  0  0  0  0  0  0  0  0  0
  190.3350  177.5670  140.5030 C   0  0  0  0  0  0  0  0  0  0  0  0
  189.4310  176.8400  141.4130 C   0  0  1  0  0  3  0  0  0  0  0  0
  2 20  1  0  0  0  0
  3  9  1  0  0  0  0
  4 23  1  0  0  0  0
  4  6  1  0  0  0  0
  4  2  1  1  0  0  0
  5  3  2  0  0  0  0
  6 14  1  0  0  0  0
  7 11  1  6  0  0  0
  7 20  1  0  0  0  0
  8  6  1  0  0  0  0
  9 10  2  0  0  0  0
 13 22  1  0  0  0  0
 14  1  2  0  0  0  0
 15 11  2  0  0  0  0
 15 10  1  0  0  0  0
 16 12  1  0  0  0  0
 16 22  2  0  0  0  0
 17  5  1  0  0  0  0
 17 15  1  0  0  0  0
 18  5  1  0  0  0  0
 19 21  1  0  0  0  0
 19 16  1  0  0  0  0
 20 10  1  6  0  0  0
 21  8  1  0  0  0  0
 23 12  1  6  0  0  0
 23  7  1  0  0  0  0
 24 29  1  0  0  0  0
 25 24  1  0  0  0  0
 26 31  2  0  0  0  0
 27 26  1  0  0  0  0
 27 28  1  0  0  0  0
 28 14  1  1  0  0  0
 28 30  1  0  0  0  0
 31 25  1  0  0  0  0
 31 32  1  0  0  0  0
 32 30  1  0  0  0  0
 32 29  1  1  0  0  0
M  END
>  <MODEL>
8

>  <REMARK>
 VINA RESULT:      -4.1      4.441      9.524
  Name = 
  1 active torsions:
  status: ('A' for Active; 'I' for Inactive)
    1  A    between atoms: C_16  and  C_20
                            x       y       z     vdW  Elec       q    Type
                         _______ _______ _______ _____ _____    ______ ____

>  <TORSDO>
F 1

$$$$
=
 OpenBabel11032420203D

 32 37  0  0  1  0  0  0  0  0999 V2000
  183.1030  179.0340  141.1350 O   0  0  0  0  0  0  0  0  0  0  0  0
  182.5900  180.9980  139.1810 N   0  0  0  0  0  2  0  0  0  0  0  0
  180.4560  184.0350  136.7440 N   0  0  0  0  0  0  0  0  0  0  0  0
  182.9950  179.8830  138.4200 N   0  0  1  0  0  0  0  0  0  0  0  0
  179.9010  183.4060  135.7370 C   0  0  0  0  0  0  0  0  0  0  0  0
  184.1240  179.3030  139.0360 N   0  0  0  0  0  0  0  0  0  0  0  0
  180.6260  179.7480  138.5110 C   0  0  2  0  0  3  0  0  0  0  0  0
  185.3060  179.1060  138.2000 C   0  0  0  0  0  2  0  0  0  0  0  0
  180.9090  183.3560  137.9360 C   0  0  0  0  0  3  0  0  0  0  0  0
  180.7530  182.0370  138.0210 C   0  0  0  0  0  0  0  0  0  0  0  0
  180.0740  180.0510  137.1780 N   0  0  0  0  0  0  0  0  0  0  0  0
  181.9640  177.9870  137.2300 C   0  0  0  0  0  2  0  0  0  0  0  0
  183.8070  174.8970  138.3480 C   0  0  0  0  0  1  0  0  0  0  0  0
  184.1350  178.8950  140.4230 C   0  0  0  0  0  0  0  0  0  0  0  0
  180.1550  181.3130  136.9590 C   0  0  0  0  0  0  0  0  0  0  0  0
  183.0570  176.9840  137.4190 C   0  0  0  0  0  0  0  0  0  0  0  0
  179.7150  181.9780  135.7790 N   0  0  0  0  0  2  0  0  0  0  0  0
  179.4790  184.1390  134.5940 N   0  0  0  0  0  1  0  0  0  0  0  0
  184.3880  177.2430  136.7640 C   0  0  0  0  0  2  0  0  0  0  0  0
  181.1330  181.0850  139.0890 C   0  0  2  0  0  3  0  0  0  0  0  0
  185.4450  177.6430  137.7890 C   0  0  0  0  0  2  0  0  0  0  0  0
  182.8250  175.9300  138.1250 N   0  0  0  0  0  0  0  0  0  0  0  0
  181.8940  178.9250  138.4340 C   0  0  1  0  0  3  0  0  0  0  0  0
  188.7130  177.0340  144.2780 C   0  0  0  0  0  2  0  0  0  0  0  0
  189.0180  177.6880  143.0580 O   0  0  0  0  0  0  0  0  0  0  0  0
  187.8500  178.5910  141.2280 N   0  0  0  0  0  0  0  0  0  0  0  0
  186.6300  178.9650  140.4990 C   0  0  0  0  0  2  0  0  0  0  0  0
  185.3610  178.2850  141.0280 C   0  0  1  0  0  3  0  0  0  0  0  0
  187.1790  176.9990  144.3560 C   0  0  0  0  0  2  0  0  0  0  0  0
  185.2760  178.3540  142.8480 S   0  0  0  0  0  0  0  0  0  0  0  0
  187.8770  177.8750  142.3120 C   0  0  0  0  0  0  0  0  0  0  0  0
  186.6990  177.2380  142.9300 C   0  0  1  0  0  3  0  0  0  0  0  0
  3  9  1  0  0  0  0
  4 23  1  0  0  0  0
  4  6  1  0  0  0  0
  4  2  1  1  0  0  0
  5 17  1  0  0  0  0
  5  3  2  0  0  0  0
  6 14  1  0  0  0  0
  7 11  1  6  0  0  0
  7 20  1  0  0  0  0
  8  6  1  0  0  0  0
  9 10  2  0  0  0  0
 12 16  1  0  0  0  0
 14  1  2  0  0  0  0
 15 11  2  0  0  0  0
 15 10  1  0  0  0  0
 16 22  2  0  0  0  0
 17 15  1  0  0  0  0
 18  5  1  0  0  0  0
 19 16  1  0  0  0  0
 19 21  1  0  0  0  0
 20 10  1  6  0  0  0
 20  2  1  0  0  0  0
 21  8  1  0  0  0  0
 22 13  1  0  0  0  0
 23 12  1  6  0  0  0
 23  7  1  0  0  0  0
 24 29  1  0  0  0  0
 25 24  1  0  0  0  0
 26 31  2  0  0  0  0
 27 28  1  0  0  0  0
 27 26  1  0  0  0  0
 28 14  1  6  0  0  0
 28 30  1  0  0  0  0
 30 32  1  0  0  0  0
 31 32  1  0  0  0  0
 31 25  1  0  0  0  0
 32 29  1  1  0  0  0
M  END
>  <MODEL>
9

>  <REMARK>
 VINA RESULT:      -3.9      5.749     10.293
  Name = 
  1 active torsions:
  status: ('A' for Active; 'I' for Inactive)
    1  A    between atoms: C_16  and  C_20
                            x       y       z     vdW  Elec       q    Type
                         _______ _______ _______ _____ _____    ______ ____

>  <TORSDO>
F 1

$$$$
