=
 OpenBabel11032421283D

 34 37  0  0  1  0  0  0  0  0999 V2000
  193.0810  177.1280  139.1650 C   0  0  0  0  0  3  0  0  0  0  0  0
  190.2290  176.4720  138.5010 C   0  0  0  0  0  0  0  0  0  0  0  0
  192.5930  174.1470  136.8820 C   0  0  0  0  0  1  0  0  0  0  0  0
  193.1800  175.9360  138.3670 N   0  0  0  0  0  0  0  0  0  0  0  0
  190.9040  175.8660  137.5740 N   0  0  0  0  0  0  0  0  0  0  0  0
  190.7790  176.6110  139.8930 C   0  0  2  0  0  3  0  0  0  0  0  0
  189.7720  177.1380  140.8990 C   0  0  0  0  0  0  0  0  0  0  0  0
  188.2400  177.6630  139.0530 C   0  0  0  0  0  3  0  0  0  0  0  0
  191.9920  177.4780  139.8480 C   0  0  0  0  0  3  0  0  0  0  0  0
  188.9780  177.0750  138.1660 N   0  0  0  0  0  0  0  0  0  0  0  0
  192.2310  175.3270  137.7090 C   0  0  0  0  0  0  0  0  0  0  0  0
  188.6190  177.7140  140.4810 C   0  0  0  0  0  0  0  0  0  0  0  0
  190.3260  178.1500  143.1720 C   0  0  0  0  0  2  0  0  0  0  0  0
  190.4800  175.7860  142.9530 C   0  0  0  0  0  2  0  0  0  0  0  0
  190.8470  176.1940  144.3610 C   0  0  0  0  0  2  0  0  0  0  0  0
  190.0810  177.0140  142.3070 N   0  0  0  0  0  0  0  0  0  0  0  0
  190.9270  177.6540  144.4060 N   0  0  0  0  0  0  0  0  0  0  0  0
  190.0760  178.1020  145.4990 C   0  0  0  0  0  2  0  0  0  0  0  0
  187.2260  177.7270  146.8660 C   0  0  0  0  0  2  0  0  0  0  0  0
  188.9280  177.1230  145.7010 C   0  0  0  0  0  3  0  0  0  0  0  0
  188.5500  177.0520  147.1700 C   0  0  0  0  0  2  0  0  0  0  0  0
  187.6090  177.8070  145.4000 C   0  0  0  0  0  2  0  0  0  0  0  0
  187.7500  178.3550  141.4280 N   0  0  0  0  0  2  0  0  0  0  0  0
  186.4190  178.8360  141.1990 C   0  0  0  0  0  0  0  0  0  0  0  0
  185.8770  178.7570  140.0660 O   0  0  0  0  0  0  0  0  0  0  0  0
  185.6790  179.4770  142.3190 C   0  0  0  0  0  2  0  0  0  0  0  0
  184.7230  178.4730  142.9380 C   0  0  0  0  0  2  0  0  0  0  0  0
  183.5760  179.1920  143.6380 C   0  0  2  0  0  3  0  0  0  0  0  0
  184.2460  179.1950  145.9170 O   0  0  0  0  0  0  0  0  0  0  0  0
  183.4760  178.7630  145.0720 C   0  0  0  0  0  3  0  0  0  0  0  0
  182.2590  178.9230  142.9210 C   0  0  0  0  0  2  0  0  0  0  0  0
  181.1090  178.7820  143.9090 C   0  0  0  0  0  2  0  0  0  0  0  0
  180.0440  178.5250  141.9930 C   0  0  0  0  0  1  0  0  0  0  0  0
  180.0520  178.0880  143.3170 O   0  0  0  0  0  0  0  0  0  0  0  0
  1  9  2  0  0  0  0
  2  6  1  0  0  0  0
  3 11  1  0  0  0  0
  4  1  1  0  0  0  0
  5 11  1  0  0  0  0
  5  2  2  0  0  0  0
  6  9  1  6  0  0  0
  6  7  1  0  0  0  0
  7 16  1  0  0  0  0
  8 12  1  0  0  0  0
 10  2  1  0  0  0  0
 10  8  2  0  0  0  0
 11  4  2  0  0  0  0
 12  7  2  0  0  0  0
 12 23  1  0  0  0  0
 13 17  1  0  0  0  0
 14 15  1  0  0  0  0
 15 17  1  0  0  0  0
 16 14  1  0  0  0  0
 16 13  1  0  0  0  0
 17 18  1  0  0  0  0
 18 20  1  0  0  0  0
 19 21  1  0  0  0  0
 20 21  1  0  0  0  0
 22 20  1  0  0  0  0
 22 19  1  0  0  0  0
 24 23  1  0  0  0  0
 24 26  1  0  0  0  0
 25 24  2  0  0  0  0
 26 27  1  0  0  0  0
 27 28  1  0  0  0  0
 28 31  1  6  0  0  0
 28 30  1  0  0  0  0
 30 29  2  0  0  0  0
 31 32  1  0  0  0  0
 33 34  1  0  0  0  0
 34 32  1  0  0  0  0
M  END
>  <MODEL>
1

>  <REMARK>
 VINA RESULT:      -7.9      0.000      0.000
  Name = 
  11 active torsions:
  status: ('A' for Active; 'I' for Inactive)
    1  A    between atoms: N_2  and  C_34
    2  A    between atoms: C_6  and  C_33
    3  A    between atoms: C_9  and  C_23
    4  A    between atoms: C_13  and  C_27
    5  A    between atoms: C_13  and  C_29
    6  A    between atoms: O_15  and  C_29
    7  A    between atoms: N_18  and  C_21
    8  A    between atoms: C_19  and  C_27
    9  A    between atoms: C_19  and  C_33
   10  A    between atoms: C_23  and  N_32
   11  A    between atoms: C_27  and  C_28
                            x       y       z     vdW  Elec       q    Type
                         _______ _______ _______ _____ _____    ______ ____

>  <TORSDO>
F 11

$$$$
=
 OpenBabel11032421283D

 34 37  0  0  1  0  0  0  0  0999 V2000
  182.0430  177.4290  140.5830 C   0  0  0  0  0  3  0  0  0  0  0  0
  184.1600  179.0280  139.1800 C   0  0  0  0  0  0  0  0  0  0  0  0
  180.7660  180.2550  138.4090 C   0  0  0  0  0  1  0  0  0  0  0  0
  181.3020  178.4600  139.9070 N   0  0  0  0  0  0  0  0  0  0  0  0
  183.0810  179.2980  138.5110 N   0  0  0  0  0  0  0  0  0  0  0  0
  184.1100  178.7780  140.6610 C   0  0  2  0  0  3  0  0  0  0  0  0
  185.4770  178.7050  141.3160 C   0  0  0  0  0  0  0  0  0  0  0  0
  186.5130  178.6630  139.0900 C   0  0  0  0  0  3  0  0  0  0  0  0
  183.3290  177.5330  140.9140 C   0  0  0  0  0  3  0  0  0  0  0  0
  185.3960  178.8970  138.4770 N   0  0  0  0  0  0  0  0  0  0  0  0
  181.7450  179.3310  139.0410 C   0  0  0  0  0  0  0  0  0  0  0  0
  186.5940  178.5590  140.5620 C   0  0  0  0  0  0  0  0  0  0  0  0
  186.2000  177.7870  143.5810 C   0  0  0  0  0  2  0  0  0  0  0  0
  184.7540  179.6770  143.5700 C   0  0  0  0  0  2  0  0  0  0  0  0
  185.0660  179.2810  144.9940 C   0  0  0  0  0  2  0  0  0  0  0  0
  185.5510  178.7870  142.7580 N   0  0  0  0  0  0  0  0  0  0  0  0
  185.7950  178.0120  144.9650 N   0  0  0  0  0  0  0  0  0  0  0  0
  187.0150  178.1950  145.7380 C   0  0  0  0  0  2  0  0  0  0  0  0
  188.3400  178.1040  148.6300 C   0  0  0  0  0  2  0  0  0  0  0  0
  186.7830  177.7820  147.1850 C   0  0  0  0  0  3  0  0  0  0  0  0
  187.9610  176.9710  147.6950 C   0  0  0  0  0  2  0  0  0  0  0  0
  187.1700  178.9180  148.1120 C   0  0  0  0  0  2  0  0  0  0  0  0
  187.8630  178.3270  141.1930 N   0  0  0  0  0  2  0  0  0  0  0  0
  188.9610  177.5600  140.6810 C   0  0  0  0  0  0  0  0  0  0  0  0
  188.8870  176.9640  139.5740 O   0  0  0  0  0  0  0  0  0  0  0  0
  190.1990  177.4380  141.4940 C   0  0  0  0  0  2  0  0  0  0  0  0
  189.8820  177.7200  142.9510 C   0  0  0  0  0  2  0  0  0  0  0  0
  190.8990  177.0410  143.8600 C   0  0  2  0  0  3  0  0  0  0  0  0
  192.0330  174.9540  143.8580 O   0  0  0  0  0  0  0  0  0  0  0  0
  191.0570  175.5950  143.4950 C   0  0  0  0  0  3  0  0  0  0  0  0
  190.4810  177.1670  145.3200 C   0  0  0  0  0  2  0  0  0  0  0  0
  191.6900  177.1630  146.2440 C   0  0  0  0  0  2  0  0  0  0  0  0
  192.3680  175.6950  147.7460 C   0  0  0  0  0  1  0  0  0  0  0  0
  191.3480  176.6090  147.4790 O   0  0  0  0  0  0  0  0  0  0  0  0
  1  9  2  0  0  0  0
  2  6  1  0  0  0  0
  3 11  1  0  0  0  0
  4  1  1  0  0  0  0
  5 11  1  0  0  0  0
  5  2  2  0  0  0  0
  6  9  1  6  0  0  0
  6  7  1  0  0  0  0
  7 16  1  0  0  0  0
  8 12  1  0  0  0  0
 10  8  2  0  0  0  0
 10  2  1  0  0  0  0
 11  4  2  0  0  0  0
 12 23  1  0  0  0  0
 12  7  2  0  0  0  0
 13 17  1  0  0  0  0
 14 15  1  0  0  0  0
 16 14  1  0  0  0  0
 16 13  1  0  0  0  0
 17 15  1  0  0  0  0
 17 18  1  0  0  0  0
 18 20  1  0  0  0  0
 20 21  1  0  0  0  0
 20 22  1  0  0  0  0
 21 19  1  0  0  0  0
 22 19  1  0  0  0  0
 24 23  1  0  0  0  0
 24 26  1  0  0  0  0
 25 24  2  0  0  0  0
 26 27  1  0  0  0  0
 28 27  1  6  0  0  0
 28 31  1  0  0  0  0
 30 29  2  0  0  0  0
 30 28  1  0  0  0  0
 31 32  1  0  0  0  0
 32 34  1  0  0  0  0
 34 33  1  0  0  0  0
M  END
>  <MODEL>
2

>  <REMARK>
 VINA RESULT:      -7.0      3.495      7.440
  Name = 
  11 active torsions:
  status: ('A' for Active; 'I' for Inactive)
    1  A    between atoms: N_2  and  C_34
    2  A    between atoms: C_6  and  C_33
    3  A    between atoms: C_9  and  C_23
    4  A    between atoms: C_13  and  C_27
    5  A    between atoms: C_13  and  C_29
    6  A    between atoms: O_15  and  C_29
    7  A    between atoms: N_18  and  C_21
    8  A    between atoms: C_19  and  C_27
    9  A    between atoms: C_19  and  C_33
   10  A    between atoms: C_23  and  N_32
   11  A    between atoms: C_27  and  C_28
                            x       y       z     vdW  Elec       q    Type
                         _______ _______ _______ _____ _____    ______ ____

>  <TORSDO>
F 11

$$$$
=
 OpenBabel11032421283D

 34 37  0  0  1  0  0  0  0  0999 V2000
  192.2180  174.0590  136.3990 C   0  0  0  0  0  3  0  0  0  0  0  0
  193.1650  176.3760  138.0540 C   0  0  0  0  0  0  0  0  0  0  0  0
  195.3550  175.7710  135.1460 C   0  0  0  0  0  1  0  0  0  0  0  0
  193.3530  174.5590  135.6700 N   0  0  0  0  0  0  0  0  0  0  0  0
  194.2120  176.0500  137.3600 N   0  0  0  0  0  0  0  0  0  0  0  0
  191.7830  176.2350  137.4810 C   0  0  2  0  0  3  0  0  0  0  0  0
  190.7000  176.8710  138.3330 C   0  0  0  0  0  0  0  0  0  0  0  0
  192.3360  177.1790  140.1390 C   0  0  0  0  0  3  0  0  0  0  0  0
  191.5010  174.7890  137.2520 C   0  0  0  0  0  3  0  0  0  0  0  0
  193.3360  176.8060  139.4050 N   0  0  0  0  0  0  0  0  0  0  0  0
  194.2060  175.4750  136.0420 C   0  0  0  0  0  0  0  0  0  0  0  0
  190.9540  177.2270  139.6150 C   0  0  0  0  0  0  0  0  0  0  0  0
  188.4640  176.0020  137.4720 C   0  0  0  0  0  2  0  0  0  0  0  0
  188.9800  178.2920  137.0790 C   0  0  0  0  0  2  0  0  0  0  0  0
  187.6240  177.9660  136.4960 C   0  0  0  0  0  2  0  0  0  0  0  0
  189.3960  177.0770  137.7420 N   0  0  0  0  0  0  0  0  0  0  0  0
  187.4250  176.5190  136.5860 N   0  0  0  0  0  0  0  0  0  0  0  0
  186.1510  176.2970  137.2550 C   0  0  0  0  0  2  0  0  0  0  0  0
  182.9950  176.6640  137.0760 C   0  0  0  0  0  2  0  0  0  0  0  0
  185.0360  177.0140  136.5060 C   0  0  0  0  0  3  0  0  0  0  0  0
  183.9600  176.0250  136.0950 C   0  0  0  0  0  2  0  0  0  0  0  0
  184.0740  177.6440  137.4930 C   0  0  0  0  0  2  0  0  0  0  0  0
  189.8850  177.6750  140.4640 N   0  0  0  0  0  2  0  0  0  0  0  0
  189.4560  177.0940  141.7020 C   0  0  0  0  0  0  0  0  0  0  0  0
  189.9990  176.0570  142.1640 O   0  0  0  0  0  0  0  0  0  0  0  0
  188.3200  177.7120  142.4360 C   0  0  0  0  0  2  0  0  0  0  0  0
  187.9080  176.8140  143.5880 C   0  0  0  0  0  2  0  0  0  0  0  0
  187.7770  177.6220  144.8730 C   0  0  2  0  0  3  0  0  0  0  0  0
  189.9620  177.1500  145.6750 O   0  0  0  0  0  0  0  0  0  0  0  0
  188.7610  177.1500  145.9020 C   0  0  0  0  0  3  0  0  0  0  0  0
  186.3590  177.5240  145.4250 C   0  0  0  0  0  2  0  0  0  0  0  0
  186.0900  178.6120  146.4550 C   0  0  0  0  0  2  0  0  0  0  0  0
  184.4370  178.9880  145.0420 C   0  0  0  0  0  1  0  0  0  0  0  0
  184.7500  179.0010  146.4010 O   0  0  0  0  0  0  0  0  0  0  0  0
  1  9  2  0  0  0  0
  2 10  1  0  0  0  0
  3 11  1  0  0  0  0
  4 11  2  0  0  0  0
  4  1  1  0  0  0  0
  5  2  2  0  0  0  0
  6  9  1  1  0  0  0
  6  2  1  0  0  0  0
  6  7  1  0  0  0  0
  7 12  2  0  0  0  0
 10  8  2  0  0  0  0
 11  5  1  0  0  0  0
 12  8  1  0  0  0  0
 12 23  1  0  0  0  0
 13 16  1  0  0  0  0
 14 16  1  0  0  0  0
 15 17  1  0  0  0  0
 15 14  1  0  0  0  0
 16  7  1  0  0  0  0
 17 18  1  0  0  0  0
 17 13  1  0  0  0  0
 19 22  1  0  0  0  0
 20 18  1  0  0  0  0
 20 22  1  0  0  0  0
 21 20  1  0  0  0  0
 21 19  1  0  0  0  0
 23 24  1  0  0  0  0
 24 25  2  0  0  0  0
 24 26  1  0  0  0  0
 26 27  1  0  0  0  0
 28 27  1  6  0  0  0
 28 31  1  0  0  0  0
 28 30  1  0  0  0  0
 29 30  2  0  0  0  0
 31 32  1  0  0  0  0
 33 34  1  0  0  0  0
 34 32  1  0  0  0  0
M  END
>  <MODEL>
3

>  <REMARK>
 VINA RESULT:      -7.0      2.721      5.928
  Name = 
  11 active torsions:
  status: ('A' for Active; 'I' for Inactive)
    1  A    between atoms: N_2  and  C_34
    2  A    between atoms: C_6  and  C_33
    3  A    between atoms: C_9  and  C_23
    4  A    between atoms: C_13  and  C_27
    5  A    between atoms: C_13  and  C_29
    6  A    between atoms: O_15  and  C_29
    7  A    between atoms: N_18  and  C_21
    8  A    between atoms: C_19  and  C_27
    9  A    between atoms: C_19  and  C_33
   10  A    between atoms: C_23  and  N_32
   11  A    between atoms: C_27  and  C_28
                            x       y       z     vdW  Elec       q    Type
                         _______ _______ _______ _____ _____    ______ ____

>  <TORSDO>
F 11

$$$$
=
 OpenBabel11032421283D

 34 37  0  0  1  0  0  0  0  0999 V2000
  181.6810  175.7190  139.3410 C   0  0  0  0  0  3  0  0  0  0  0  0
  183.3300  177.8850  138.0770 C   0  0  0  0  0  0  0  0  0  0  0  0
  180.0280  177.5440  136.4640 C   0  0  0  0  0  1  0  0  0  0  0  0
  180.8030  176.2850  138.3520 N   0  0  0  0  0  0  0  0  0  0  0  0
  182.4300  177.6240  137.1800 N   0  0  0  0  0  0  0  0  0  0  0  0
  183.0100  177.7900  139.5430 C   0  0  2  0  0  3  0  0  0  0  0  0
  184.0970  178.3450  140.4440 C   0  0  0  0  0  0  0  0  0  0  0  0
  185.5930  178.4990  138.5010 C   0  0  0  0  0  3  0  0  0  0  0  0
  182.7110  176.3690  139.8800 C   0  0  0  0  0  3  0  0  0  0  0  0
  184.6590  178.1950  137.6570 N   0  0  0  0  0  0  0  0  0  0  0  0
  181.0900  177.1670  137.4330 C   0  0  0  0  0  0  0  0  0  0  0  0
  185.3380  178.5880  139.9550 C   0  0  0  0  0  0  0  0  0  0  0  0
  184.5830  178.1240  142.9360 C   0  0  0  0  0  2  0  0  0  0  0  0
  182.4940  179.0720  142.3010 C   0  0  0  0  0  2  0  0  0  0  0  0
  182.5960  179.0210  143.8080 C   0  0  0  0  0  2  0  0  0  0  0  0
  183.7760  178.5990  141.8310 N   0  0  0  0  0  0  0  0  0  0  0  0
  183.7980  178.2640  144.1590 N   0  0  0  0  0  0  0  0  0  0  0  0
  184.5800  179.0890  145.0690 C   0  0  0  0  0  2  0  0  0  0  0  0
  187.1510  178.2900  146.7670 C   0  0  0  0  0  2  0  0  0  0  0  0
  185.0670  178.2510  146.2440 C   0  0  0  0  0  3  0  0  0  0  0  0
  186.2910  177.4470  145.8440 C   0  0  0  0  0  2  0  0  0  0  0  0
  185.9290  179.1000  147.1580 C   0  0  0  0  0  2  0  0  0  0  0  0
  186.4040  178.9570  140.8450 N   0  0  0  0  0  2  0  0  0  0  0  0
  187.6860  178.3280  140.9740 C   0  0  0  0  0  0  0  0  0  0  0  0
  187.9920  177.3150  140.2920 O   0  0  0  0  0  0  0  0  0  0  0  0
  188.6580  178.8640  141.9620 C   0  0  0  0  0  2  0  0  0  0  0  0
  189.3820  177.7140  142.6390 C   0  0  0  0  0  2  0  0  0  0  0  0
  189.8700  178.1310  144.0210 C   0  0  2  0  0  3  0  0  0  0  0  0
  191.2110  180.0860  144.1650 O   0  0  0  0  0  0  0  0  0  0  0  0
  191.1600  178.8890  143.9240 C   0  0  0  0  0  3  0  0  0  0  0  0
  190.0480  176.9100  144.9160 C   0  0  0  0  0  2  0  0  0  0  0  0
  191.5080  176.7130  145.2980 C   0  0  0  0  0  2  0  0  0  0  0  0
  190.4310  176.7950  147.2230 C   0  0  0  0  0  1  0  0  0  0  0  0
  191.6900  176.9880  146.6550 O   0  0  0  0  0  0  0  0  0  0  0  0
  1  9  2  0  0  0  0
  2  6  1  0  0  0  0
  3 11  1  0  0  0  0
  4  1  1  0  0  0  0
  5 11  1  0  0  0  0
  5  2  2  0  0  0  0
  6  9  1  1  0  0  0
  6  7  1  0  0  0  0
  7 16  1  0  0  0  0
  8 12  1  0  0  0  0
 10  2  1  0  0  0  0
 10  8  2  0  0  0  0
 11  4  2  0  0  0  0
 12  7  2  0  0  0  0
 12 23  1  0  0  0  0
 13 17  1  0  0  0  0
 14 15  1  0  0  0  0
 15 17  1  0  0  0  0
 16 14  1  0  0  0  0
 16 13  1  0  0  0  0
 17 18  1  0  0  0  0
 18 20  1  0  0  0  0
 19 22  1  0  0  0  0
 20 22  1  0  0  0  0
 21 20  1  0  0  0  0
 21 19  1  0  0  0  0
 23 24  1  0  0  0  0
 24 26  1  0  0  0  0
 25 24  2  0  0  0  0
 26 27  1  0  0  0  0
 28 27  1  6  0  0  0
 28 31  1  0  0  0  0
 30 28  1  0  0  0  0
 30 29  2  0  0  0  0
 31 32  1  0  0  0  0
 32 34  1  0  0  0  0
 34 33  1  0  0  0  0
M  END
>  <MODEL>
4

>  <REMARK>
 VINA RESULT:      -7.0      3.872      7.548
  Name = 
  11 active torsions:
  status: ('A' for Active; 'I' for Inactive)
    1  A    between atoms: N_2  and  C_34
    2  A    between atoms: C_6  and  C_33
    3  A    between atoms: C_9  and  C_23
    4  A    between atoms: C_13  and  C_27
    5  A    between atoms: C_13  and  C_29
    6  A    between atoms: O_15  and  C_29
    7  A    between atoms: N_18  and  C_21
    8  A    between atoms: C_19  and  C_27
    9  A    between atoms: C_19  and  C_33
   10  A    between atoms: C_23  and  N_32
   11  A    between atoms: C_27  and  C_28
                            x       y       z     vdW  Elec       q    Type
                         _______ _______ _______ _____ _____    ______ ____

>  <TORSDO>
F 11

$$$$
=
 OpenBabel11032421283D

 34 37  0  0  1  0  0  0  0  0999 V2000
  190.7570  178.6120  144.4790 C   0  0  0  0  0  3  0  0  0  0  0  0
  190.6370  176.6620  142.2010 C   0  0  0  0  0  0  0  0  0  0  0  0
  192.0810  175.1460  145.2410 C   0  0  0  0  0  1  0  0  0  0  0  0
  191.2380  177.3840  145.0530 N   0  0  0  0  0  0  0  0  0  0  0  0
  191.5040  176.1330  143.0090 N   0  0  0  0  0  0  0  0  0  0  0  0
  189.4670  177.4440  142.7280 C   0  0  2  0  0  3  0  0  0  0  0  0
  188.4370  177.7920  141.6680 C   0  0  0  0  0  0  0  0  0  0  0  0
  190.0000  177.0280  139.9340 C   0  0  0  0  0  3  0  0  0  0  0  0
  189.9730  178.6730  143.4040 C   0  0  0  0  0  3  0  0  0  0  0  0
  190.8460  176.5530  140.7930 N   0  0  0  0  0  0  0  0  0  0  0  0
  191.5150  176.2640  144.4410 C   0  0  0  0  0  0  0  0  0  0  0  0
  188.7390  177.6760  140.3520 C   0  0  0  0  0  0  0  0  0  0  0  0
  186.3880  177.6370  143.1760 C   0  0  0  0  0  2  0  0  0  0  0  0
  186.3010  179.1650  141.3530 C   0  0  0  0  0  2  0  0  0  0  0  0
  185.0010  179.2130  142.1230 C   0  0  0  0  0  2  0  0  0  0  0  0
  187.1380  178.2560  142.1020 N   0  0  0  0  0  0  0  0  0  0  0  0
  185.0170  178.1340  143.1110 N   0  0  0  0  0  0  0  0  0  0  0  0
  184.7220  178.7280  144.4070 C   0  0  0  0  0  2  0  0  0  0  0  0
  186.0620  178.9350  147.2870 C   0  0  0  0  0  2  0  0  0  0  0  0
  185.3900  177.9240  145.5140 C   0  0  0  0  0  3  0  0  0  0  0  0
  186.6820  178.5960  145.9450 C   0  0  0  0  0  2  0  0  0  0  0  0
  184.7680  178.2740  146.8520 C   0  0  0  0  0  2  0  0  0  0  0  0
  187.8220  178.1600  139.3570 N   0  0  0  0  0  2  0  0  0  0  0  0
  187.4240  177.5020  138.1480 C   0  0  0  0  0  0  0  0  0  0  0  0
  187.9000  176.3840  137.8210 O   0  0  0  0  0  0  0  0  0  0  0  0
  186.4570  178.1770  137.2420 C   0  0  0  0  0  2  0  0  0  0  0  0
  185.5940  177.1360  136.5520 C   0  0  0  0  0  2  0  0  0  0  0  0
  184.1380  177.2870  136.9730 C   0  0  2  0  0  3  0  0  0  0  0  0
  183.3430  177.5910  139.1900 O   0  0  0  0  0  0  0  0  0  0  0  0
  184.0330  178.0200  138.2770 C   0  0  0  0  0  3  0  0  0  0  0  0
  183.4700  175.9220  137.0880 C   0  0  0  0  0  2  0  0  0  0  0  0
  184.4620  174.7960  136.8310 C   0  0  0  0  0  2  0  0  0  0  0  0
  185.5290  173.0510  137.6600 C   0  0  0  0  0  1  0  0  0  0  0  0
  184.4280  173.8780  137.8820 O   0  0  0  0  0  0  0  0  0  0  0  0
  1  4  1  0  0  0  0
  2  6  1  0  0  0  0
  2  5  2  0  0  0  0
  5 11  1  0  0  0  0
  6  9  1  6  0  0  0
  7 16  1  0  0  0  0
  7  6  1  0  0  0  0
  8 12  1  0  0  0  0
  8 10  2  0  0  0  0
  9  1  2  0  0  0  0
 10  2  1  0  0  0  0
 11  4  2  0  0  0  0
 11  3  1  0  0  0  0
 12  7  2  0  0  0  0
 14 16  1  0  0  0  0
 14 15  1  0  0  0  0
 15 17  1  0  0  0  0
 16 13  1  0  0  0  0
 17 13  1  0  0  0  0
 17 18  1  0  0  0  0
 18 20  1  0  0  0  0
 20 21  1  0  0  0  0
 20 22  1  0  0  0  0
 21 19  1  0  0  0  0
 22 19  1  0  0  0  0
 23 12  1  0  0  0  0
 24 23  1  0  0  0  0
 25 24  2  0  0  0  0
 26 24  1  0  0  0  0
 27 26  1  0  0  0  0
 28 27  1  1  0  0  0
 28 31  1  0  0  0  0
 28 30  1  0  0  0  0
 30 29  2  0  0  0  0
 32 31  1  0  0  0  0
 32 34  1  0  0  0  0
 33 34  1  0  0  0  0
M  END
>  <MODEL>
5

>  <REMARK>
 VINA RESULT:      -6.6      2.730      5.464
  Name = 
  11 active torsions:
  status: ('A' for Active; 'I' for Inactive)
    1  A    between atoms: N_2  and  C_34
    2  A    between atoms: C_6  and  C_33
    3  A    between atoms: C_9  and  C_23
    4  A    between atoms: C_13  and  C_27
    5  A    between atoms: C_13  and  C_29
    6  A    between atoms: O_15  and  C_29
    7  A    between atoms: N_18  and  C_21
    8  A    between atoms: C_19  and  C_27
    9  A    between atoms: C_19  and  C_33
   10  A    between atoms: C_23  and  N_32
   11  A    between atoms: C_27  and  C_28
                            x       y       z     vdW  Elec       q    Type
                         _______ _______ _______ _____ _____    ______ ____

>  <TORSDO>
F 11

$$$$
=
 OpenBabel11032421283D

 34 37  0  0  1  0  0  0  0  0999 V2000
  190.6840  178.5880  144.5740 C   0  0  0  0  0  3  0  0  0  0  0  0
  190.7000  176.7380  142.2120 C   0  0  0  0  0  0  0  0  0  0  0  0
  192.1270  175.1470  145.2200 C   0  0  0  0  0  1  0  0  0  0  0  0
  191.2000  177.3560  145.1080 N   0  0  0  0  0  0  0  0  0  0  0  0
  191.5670  176.2080  143.0190 N   0  0  0  0  0  0  0  0  0  0  0  0
  189.4860  177.4500  142.7400 C   0  0  2  0  0  3  0  0  0  0  0  0
  188.4710  177.8050  141.6690 C   0  0  0  0  0  0  0  0  0  0  0  0
  190.1060  177.1790  139.9460 C   0  0  0  0  0  3  0  0  0  0  0  0
  189.9260  178.6670  143.4820 C   0  0  0  0  0  3  0  0  0  0  0  0
  190.9490  176.7000  140.8060 N   0  0  0  0  0  0  0  0  0  0  0  0
  191.5370  176.2760  144.4550 C   0  0  0  0  0  0  0  0  0  0  0  0
  188.8100  177.7580  140.3580 C   0  0  0  0  0  0  0  0  0  0  0  0
  186.4370  177.5760  143.1880 C   0  0  0  0  0  2  0  0  0  0  0  0
  186.2470  179.0170  141.3040 C   0  0  0  0  0  2  0  0  0  0  0  0
  184.9480  179.0100  142.0760 C   0  0  0  0  0  2  0  0  0  0  0  0
  187.1430  178.1980  142.0870 N   0  0  0  0  0  0  0  0  0  0  0  0
  185.0360  177.9760  143.1080 N   0  0  0  0  0  0  0  0  0  0  0  0
  184.7020  178.6030  144.3790 C   0  0  0  0  0  2  0  0  0  0  0  0
  186.0240  178.9930  147.2470 C   0  0  0  0  0  2  0  0  0  0  0  0
  185.4060  177.8780  145.5180 C   0  0  0  0  0  3  0  0  0  0  0  0
  186.6630  178.6280  145.9210 C   0  0  0  0  0  2  0  0  0  0  0  0
  184.7650  178.2520  146.8400 C   0  0  0  0  0  2  0  0  0  0  0  0
  187.9000  178.2500  139.3610 N   0  0  0  0  0  2  0  0  0  0  0  0
  187.4440  177.5670  138.1860 C   0  0  0  0  0  0  0  0  0  0  0  0
  187.8540  176.4120  137.8970 O   0  0  0  0  0  0  0  0  0  0  0  0
  186.4950  178.2540  137.2710 C   0  0  0  0  0  2  0  0  0  0  0  0
  185.3080  177.3500  136.9950 C   0  0  0  0  0  2  0  0  0  0  0  0
  184.3660  177.3260  138.1920 C   0  0  2  0  0  3  0  0  0  0  0  0
  183.3410  175.1890  138.3470 O   0  0  0  0  0  0  0  0  0  0  0  0
  183.2500  176.3490  137.9720 C   0  0  0  0  0  3  0  0  0  0  0  0
  183.7980  178.7160  138.4550 C   0  0  0  0  0  2  0  0  0  0  0  0
  182.3100  178.6550  138.7690 C   0  0  0  0  0  2  0  0  0  0  0  0
  180.7010  178.9580  140.2490 C   0  0  0  0  0  1  0  0  0  0  0  0
  182.0860  179.0130  140.1000 O   0  0  0  0  0  0  0  0  0  0  0  0
  1  4  1  0  0  0  0
  2  6  1  0  0  0  0
  2  5  2  0  0  0  0
  5 11  1  0  0  0  0
  6  9  1  6  0  0  0
  7 16  1  0  0  0  0
  7  6  1  0  0  0  0
  8 12  1  0  0  0  0
  8 10  2  0  0  0  0
  9  1  2  0  0  0  0
 10  2  1  0  0  0  0
 11  4  2  0  0  0  0
 11  3  1  0  0  0  0
 12  7  2  0  0  0  0
 14 15  1  0  0  0  0
 14 16  1  0  0  0  0
 15 17  1  0  0  0  0
 16 13  1  0  0  0  0
 17 13  1  0  0  0  0
 17 18  1  0  0  0  0
 18 20  1  0  0  0  0
 20 21  1  0  0  0  0
 20 22  1  0  0  0  0
 21 19  1  0  0  0  0
 22 19  1  0  0  0  0
 23 12  1  0  0  0  0
 24 23  1  0  0  0  0
 25 24  2  0  0  0  0
 26 24  1  0  0  0  0
 27 26  1  0  0  0  0
 28 27  1  6  0  0  0
 28 31  1  0  0  0  0
 30 28  1  0  0  0  0
 30 29  2  0  0  0  0
 31 32  1  0  0  0  0
 32 34  1  0  0  0  0
 34 33  1  0  0  0  0
M  END
>  <MODEL>
6

>  <REMARK>
 VINA RESULT:      -6.5      2.478      4.946
  Name = 
  11 active torsions:
  status: ('A' for Active; 'I' for Inactive)
    1  A    between atoms: N_2  and  C_34
    2  A    between atoms: C_6  and  C_33
    3  A    between atoms: C_9  and  C_23
    4  A    between atoms: C_13  and  C_27
    5  A    between atoms: C_13  and  C_29
    6  A    between atoms: O_15  and  C_29
    7  A    between atoms: N_18  and  C_21
    8  A    between atoms: C_19  and  C_27
    9  A    between atoms: C_19  and  C_33
   10  A    between atoms: C_23  and  N_32
   11  A    between atoms: C_27  and  C_28
                            x       y       z     vdW  Elec       q    Type
                         _______ _______ _______ _____ _____    ______ ____

>  <TORSDO>
F 11

$$$$
=
 OpenBabel11032421283D

 34 37  0  0  1  0  0  0  0  0999 V2000
  191.9220  175.5500  147.2690 C   0  0  0  0  0  3  0  0  0  0  0  0
  189.9990  177.6820  148.1420 C   0  0  0  0  0  0  0  0  0  0  0  0
  193.2390  177.9470  149.8880 C   0  0  0  0  0  1  0  0  0  0  0  0
  192.6890  176.3480  148.1870 N   0  0  0  0  0  0  0  0  0  0  0  0
  190.8780  177.6560  149.0950 N   0  0  0  0  0  0  0  0  0  0  0  0
  190.3950  177.4100  146.7180 C   0  0  2  0  0  3  0  0  0  0  0  0
  189.2980  177.7040  145.7110 C   0  0  0  0  0  0  0  0  0  0  0  0
  187.7060  177.9740  147.5620 C   0  0  0  0  0  3  0  0  0  0  0  0
  190.8560  175.9960  146.6070 C   0  0  0  0  0  3  0  0  0  0  0  0
  188.6270  177.9010  148.4700 N   0  0  0  0  0  0  0  0  0  0  0  0
  192.2690  177.3170  148.9540 C   0  0  0  0  0  0  0  0  0  0  0  0
  188.0180  177.8770  146.1200 C   0  0  0  0  0  0  0  0  0  0  0  0
  189.2100  176.8310  143.3180 C   0  0  0  0  0  2  0  0  0  0  0  0
  190.7140  178.6150  143.7840 C   0  0  0  0  0  2  0  0  0  0  0  0
  190.8070  178.2360  142.3240 C   0  0  0  0  0  2  0  0  0  0  0  0
  189.6550  177.7860  144.3120 N   0  0  0  0  0  0  0  0  0  0  0  0
  190.0180  177.0210  142.1170 N   0  0  0  0  0  0  0  0  0  0  0  0
  189.0940  177.2860  141.0240 C   0  0  0  0  0  2  0  0  0  0  0  0
  188.8810  177.5940  137.8630 C   0  0  0  0  0  2  0  0  0  0  0  0
  189.8650  177.6790  139.7720 C   0  0  0  0  0  3  0  0  0  0  0  0
  189.6940  176.6210  138.6960 C   0  0  0  0  0  2  0  0  0  0  0  0
  189.0430  178.6470  138.9430 C   0  0  0  0  0  2  0  0  0  0  0  0
  186.9610  177.9920  145.1530 N   0  0  0  0  0  2  0  0  0  0  0  0
  185.7430  178.7360  145.2800 C   0  0  0  0  0  0  0  0  0  0  0  0
  185.4660  179.3690  146.3320 O   0  0  0  0  0  0  0  0  0  0  0  0
  184.7690  178.7260  144.1560 C   0  0  0  0  0  2  0  0  0  0  0  0
  185.4530  178.2370  142.8930 C   0  0  0  0  0  2  0  0  0  0  0  0
  184.4740  178.2280  141.7260 C   0  0  2  0  0  3  0  0  0  0  0  0
  186.0160  178.9970  140.0910 O   0  0  0  0  0  0  0  0  0  0  0  0
  184.9340  179.1520  140.6380 C   0  0  0  0  0  3  0  0  0  0  0  0
  183.0800  178.6280  142.1930 C   0  0  0  0  0  2  0  0  0  0  0  0
  182.0330  178.3330  141.1280 C   0  0  0  0  0  2  0  0  0  0  0  0
  180.9470  178.7750  142.9970 C   0  0  0  0  0  1  0  0  0  0  0  0
  180.7620  178.2850  141.7050 O   0  0  0  0  0  0  0  0  0  0  0  0
  1  4  1  0  0  0  0
  2 10  1  0  0  0  0
  2  5  2  0  0  0  0
  4 11  2  0  0  0  0
  6  9  1  1  0  0  0
  6  2  1  0  0  0  0
  7 12  2  0  0  0  0
  7  6  1  0  0  0  0
  8 10  2  0  0  0  0
  9  1  2  0  0  0  0
 11  5  1  0  0  0  0
 11  3  1  0  0  0  0
 12  8  1  0  0  0  0
 13 16  1  0  0  0  0
 14 16  1  0  0  0  0
 15 14  1  0  0  0  0
 16  7  1  0  0  0  0
 17 15  1  0  0  0  0
 17 13  1  0  0  0  0
 18 17  1  0  0  0  0
 19 21  1  0  0  0  0
 19 22  1  0  0  0  0
 20 18  1  0  0  0  0
 21 20  1  0  0  0  0
 22 20  1  0  0  0  0
 23 24  1  0  0  0  0
 23 12  1  0  0  0  0
 24 25  2  0  0  0  0
 26 24  1  0  0  0  0
 27 26  1  0  0  0  0
 28 30  1  6  0  0  0
 28 31  1  0  0  0  0
 28 27  1  0  0  0  0
 29 30  2  0  0  0  0
 32 34  1  0  0  0  0
 32 31  1  0  0  0  0
 34 33  1  0  0  0  0
M  END
>  <MODEL>
7

>  <REMARK>
 VINA RESULT:      -6.3      2.301      6.622
  Name = 
  11 active torsions:
  status: ('A' for Active; 'I' for Inactive)
    1  A    between atoms: N_2  and  C_34
    2  A    between atoms: C_6  and  C_33
    3  A    between atoms: C_9  and  C_23
    4  A    between atoms: C_13  and  C_27
    5  A    between atoms: C_13  and  C_29
    6  A    between atoms: O_15  and  C_29
    7  A    between atoms: N_18  and  C_21
    8  A    between atoms: C_19  and  C_27
    9  A    between atoms: C_19  and  C_33
   10  A    between atoms: C_23  and  N_32
   11  A    between atoms: C_27  and  C_28
                            x       y       z     vdW  Elec       q    Type
                         _______ _______ _______ _____ _____    ______ ____

>  <TORSDO>
F 11

$$$$
=
 OpenBabel11032421283D

 34 37  0  0  1  0  0  0  0  0999 V2000
  190.5550  178.6920  144.7510 C   0  0  0  0  0  3  0  0  0  0  0  0
  190.6720  176.5800  142.6220 C   0  0  0  0  0  0  0  0  0  0  0  0
  192.0490  175.3830  145.8300 C   0  0  0  0  0  1  0  0  0  0  0  0
  191.0810  177.5420  145.4370 N   0  0  0  0  0  0  0  0  0  0  0  0
  191.5270  176.1690  143.5070 N   0  0  0  0  0  0  0  0  0  0  0  0
  189.4310  177.3210  143.0340 C   0  0  2  0  0  3  0  0  0  0  0  0
  188.4370  177.5250  141.9050 C   0  0  0  0  0  0  0  0  0  0  0  0
  190.1310  176.7420  140.3070 C   0  0  0  0  0  3  0  0  0  0  0  0
  189.8250  178.6250  143.6390 C   0  0  0  0  0  3  0  0  0  0  0  0
  190.9590  176.3860  141.2370 N   0  0  0  0  0  0  0  0  0  0  0  0
  191.4570  176.4020  144.9240 C   0  0  0  0  0  0  0  0  0  0  0  0
  188.8120  177.3340  140.6160 C   0  0  0  0  0  0  0  0  0  0  0  0
  186.3320  178.8940  141.4680 C   0  0  0  0  0  2  0  0  0  0  0  0
  186.4550  177.6860  143.5150 C   0  0  0  0  0  2  0  0  0  0  0  0
  185.1430  178.4330  143.4400 C   0  0  0  0  0  2  0  0  0  0  0  0
  187.0910  177.9330  142.2410 N   0  0  0  0  0  0  0  0  0  0  0  0
  185.1840  179.3090  142.2680 N   0  0  0  0  0  0  0  0  0  0  0  0
  183.9950  179.0290  141.4760 C   0  0  0  0  0  2  0  0  0  0  0  0
  182.8770  178.6540  138.5200 C   0  0  0  0  0  2  0  0  0  0  0  0
  184.3890  178.6880  140.0460 C   0  0  0  0  0  3  0  0  0  0  0  0
  183.4550  177.6330  139.4810 C   0  0  0  0  0  2  0  0  0  0  0  0
  183.8020  179.7110  139.0920 C   0  0  0  0  0  2  0  0  0  0  0  0
  187.9190  177.6860  139.5470 N   0  0  0  0  0  2  0  0  0  0  0  0
  188.2540  178.3300  138.3110 C   0  0  0  0  0  0  0  0  0  0  0  0
  189.4330  178.6900  138.0560 O   0  0  0  0  0  0  0  0  0  0  0  0
  187.1770  178.6100  137.3260 C   0  0  0  0  0  2  0  0  0  0  0  0
  186.2800  177.3930  137.1910 C   0  0  0  0  0  2  0  0  0  0  0  0
  186.2800  176.8870  135.7540 C   0  0  2  0  0  3  0  0  0  0  0  0
  184.0760  176.0870  136.1290 O   0  0  0  0  0  0  0  0  0  0  0  0
  184.8960  176.5030  135.3240 C   0  0  0  0  0  3  0  0  0  0  0  0
  187.2210  175.6960  135.6070 C   0  0  0  0  0  2  0  0  0  0  0  0
  188.5460  176.1120  134.9850 C   0  0  0  0  0  2  0  0  0  0  0  0
  189.2180  175.0300  136.7870 C   0  0  0  0  0  1  0  0  0  0  0  0
  189.5550  176.0930  135.9500 O   0  0  0  0  0  0  0  0  0  0  0  0
  1  4  1  0  0  0  0
  2  6  1  0  0  0  0
  2  5  2  0  0  0  0
  5 11  1  0  0  0  0
  6  9  1  6  0  0  0
  7 16  1  0  0  0  0
  7  6  1  0  0  0  0
  8 12  1  0  0  0  0
  8 10  2  0  0  0  0
  9  1  2  0  0  0  0
 10  2  1  0  0  0  0
 11  4  2  0  0  0  0
 11  3  1  0  0  0  0
 12  7  2  0  0  0  0
 13 16  1  0  0  0  0
 13 17  1  0  0  0  0
 15 14  1  0  0  0  0
 16 14  1  0  0  0  0
 17 15  1  0  0  0  0
 18 17  1  0  0  0  0
 19 22  1  0  0  0  0
 19 21  1  0  0  0  0
 20 18  1  0  0  0  0
 21 20  1  0  0  0  0
 22 20  1  0  0  0  0
 23 12  1  0  0  0  0
 24 23  1  0  0  0  0
 25 24  2  0  0  0  0
 26 24  1  0  0  0  0
 27 26  1  0  0  0  0
 28 30  1  1  0  0  0
 28 27  1  0  0  0  0
 30 29  2  0  0  0  0
 31 28  1  0  0  0  0
 32 31  1  0  0  0  0
 32 34  1  0  0  0  0
 34 33  1  0  0  0  0
M  END
>  <MODEL>
8

>  <REMARK>
 VINA RESULT:      -6.3      3.162      7.057
  Name = 
  11 active torsions:
  status: ('A' for Active; 'I' for Inactive)
    1  A    between atoms: N_2  and  C_34
    2  A    between atoms: C_6  and  C_33
    3  A    between atoms: C_9  and  C_23
    4  A    between atoms: C_13  and  C_27
    5  A    between atoms: C_13  and  C_29
    6  A    between atoms: O_15  and  C_29
    7  A    between atoms: N_18  and  C_21
    8  A    between atoms: C_19  and  C_27
    9  A    between atoms: C_19  and  C_33
   10  A    between atoms: C_23  and  N_32
   11  A    between atoms: C_27  and  C_28
                            x       y       z     vdW  Elec       q    Type
                         _______ _______ _______ _____ _____    ______ ____

>  <TORSDO>
F 11

$$$$
=
 OpenBabel11032421283D

 34 37  0  0  1  0  0  0  0  0999 V2000
  189.6000  175.9140  142.8780 C   0  0  0  0  0  3  0  0  0  0  0  0
  188.3320  177.9440  144.6870 C   0  0  0  0  0  0  0  0  0  0  0  0
  192.0150  178.1750  144.7190 C   0  0  0  0  0  1  0  0  0  0  0  0
  190.7160  176.6710  143.3780 N   0  0  0  0  0  0  0  0  0  0  0  0
  189.5570  177.8800  145.1120 N   0  0  0  0  0  0  0  0  0  0  0  0
  188.0090  177.7690  143.2300 C   0  0  2  0  0  3  0  0  0  0  0  0
  186.5700  178.1000  142.8780 C   0  0  0  0  0  0  0  0  0  0  0  0
  186.0390  178.2200  145.2730 C   0  0  0  0  0  3  0  0  0  0  0  0
  188.3510  176.3750  142.8250 C   0  0  0  0  0  3  0  0  0  0  0  0
  187.2780  178.1130  145.6360 N   0  0  0  0  0  0  0  0  0  0  0  0
  190.7140  177.5820  144.3130 C   0  0  0  0  0  0  0  0  0  0  0  0
  185.6350  178.2190  143.8510 C   0  0  0  0  0  0  0  0  0  0  0  0
  187.2080  178.2730  140.4170 C   0  0  0  0  0  2  0  0  0  0  0  0
  184.9570  178.7670  141.0080 C   0  0  0  0  0  2  0  0  0  0  0  0
  185.1400  178.9270  139.5160 C   0  0  0  0  0  2  0  0  0  0  0  0
  186.2290  178.2750  141.4840 N   0  0  0  0  0  0  0  0  0  0  0  0
  186.5680  178.8030  139.2170 N   0  0  0  0  0  0  0  0  0  0  0  0
  186.7070  177.7910  138.1810 C   0  0  0  0  0  2  0  0  0  0  0  0
  188.8480  177.5840  135.8350 C   0  0  0  0  0  2  0  0  0  0  0  0
  187.1770  178.4340  136.8830 C   0  0  0  0  0  3  0  0  0  0  0  0
  188.6810  178.6390  136.9120 C   0  0  0  0  0  2  0  0  0  0  0  0
  187.3460  177.3720  135.8140 C   0  0  0  0  0  2  0  0  0  0  0  0
  184.2490  178.3680  143.5030 N   0  0  0  0  0  2  0  0  0  0  0  0
  183.2080  178.9430  144.3040 C   0  0  0  0  0  0  0  0  0  0  0  0
  183.4330  179.3660  145.4680 O   0  0  0  0  0  0  0  0  0  0  0  0
  181.8270  179.0050  143.7590 C   0  0  0  0  0  2  0  0  0  0  0  0
  181.8110  178.4530  142.3460 C   0  0  0  0  0  2  0  0  0  0  0  0
  180.8620  179.2590  141.4680 C   0  0  2  0  0  3  0  0  0  0  0  0
  179.6580  181.2490  141.9500 O   0  0  0  0  0  0  0  0  0  0  0  0
  179.9650  180.1200  142.3060 C   0  0  0  0  0  3  0  0  0  0  0  0
  180.0270  178.3340  140.5910 C   0  0  0  0  0  2  0  0  0  0  0  0
  180.5970  176.9230  140.5740 C   0  0  0  0  0  2  0  0  0  0  0  0
  182.3810  176.2420  139.4660 C   0  0  0  0  0  1  0  0  0  0  0  0
  181.0450  176.6030  139.2910 O   0  0  0  0  0  0  0  0  0  0  0  0
  1  4  1  0  0  0  0
  2  5  2  0  0  0  0
  2 10  1  0  0  0  0
  4 11  2  0  0  0  0
  6  9  1  1  0  0  0
  6  2  1  0  0  0  0
  7  6  1  0  0  0  0
  7 12  2  0  0  0  0
  8 10  2  0  0  0  0
  9  1  2  0  0  0  0
 11  3  1  0  0  0  0
 11  5  1  0  0  0  0
 12  8  1  0  0  0  0
 13 16  1  0  0  0  0
 14 16  1  0  0  0  0
 15 14  1  0  0  0  0
 16  7  1  0  0  0  0
 17 15  1  0  0  0  0
 17 13  1  0  0  0  0
 18 17  1  0  0  0  0
 19 21  1  0  0  0  0
 20 21  1  0  0  0  0
 20 18  1  0  0  0  0
 22 19  1  0  0  0  0
 22 20  1  0  0  0  0
 23 12  1  0  0  0  0
 23 24  1  0  0  0  0
 24 25  2  0  0  0  0
 26 24  1  0  0  0  0
 27 26  1  0  0  0  0
 28 31  1  1  0  0  0
 28 30  1  0  0  0  0
 28 27  1  0  0  0  0
 29 30  2  0  0  0  0
 32 31  1  0  0  0  0
 34 33  1  0  0  0  0
 34 32  1  0  0  0  0
M  END
>  <MODEL>
9

>  <REMARK>
 VINA RESULT:      -6.3      2.832      6.354
  Name = 
  11 active torsions:
  status: ('A' for Active; 'I' for Inactive)
    1  A    between atoms: N_2  and  C_34
    2  A    between atoms: C_6  and  C_33
    3  A    between atoms: C_9  and  C_23
    4  A    between atoms: C_13  and  C_27
    5  A    between atoms: C_13  and  C_29
    6  A    between atoms: O_15  and  C_29
    7  A    between atoms: N_18  and  C_21
    8  A    between atoms: C_19  and  C_27
    9  A    between atoms: C_19  and  C_33
   10  A    between atoms: C_23  and  N_32
   11  A    between atoms: C_27  and  C_28
                            x       y       z     vdW  Elec       q    Type
                         _______ _______ _______ _____ _____    ______ ____

>  <TORSDO>
F 11

$$$$
