=
 OpenBabel11032419133D

 58 64  0  0  1  0  0  0  0  0999 V2000
  183.9830  177.7200  137.8530 S   0  0  0  0  0  0  0  0  0  0  0  0
  181.5260  176.6600  136.0940 C   0  0  0  0  0  2  0  0  0  0  0  0
  182.9350  176.7310  135.5230 C   0  0  0  0  0  2  0  0  0  0  0  0
  181.3190  177.7030  137.1840 C   0  0  0  0  0  2  0  0  0  0  0  0
  182.2440  177.4310  138.3660 C   0  0  2  0  0  3  0  0  0  0  0  0
  183.9620  176.3990  136.5940 C   0  0  1  0  0  3  0  0  0  0  0  0
  182.3070  177.7880  140.9840 C   0  0  1  0  0  3  0  0  0  0  0  0
  180.8920  177.4710  140.5300 C   0  0  0  0  0  2  0  0  0  0  0  0
  181.8180  178.2470  139.6070 C   0  0  2  0  0  0  0  0  0  0  0  0
  181.8460  181.8290  138.3550 C   0  0  0  0  0  3  0  0  0  0  0  0
  182.2920  180.6450  138.7750 C   0  0  0  0  0  3  0  0  0  0  0  0
  179.6170  181.4370  139.4720 C   0  0  0  0  0  2  0  0  0  0  0  0
  180.0950  180.0210  139.6470 C   0  0  0  0  0  3  0  0  0  0  0  0
  181.3650  179.6730  139.3990 C   0  0  0  0  0  0  0  0  0  0  0  0
  180.4690  182.1760  138.5390 N   0  0  0  0  0  2  0  0  0  0  0  0
  182.2700  178.8660  142.0600 C   0  0  0  0  0  2  0  0  0  0  0  0
  183.6830  179.2350  142.4810 C   0  0  0  0  0  2  0  0  0  0  0  0
  183.7580  179.3580  143.9310 N   0  0  0  0  0  2  0  0  0  0  0  0
  185.2140  177.7850  142.0530 C   0  0  0  0  0  2  0  0  0  0  0  0
  185.5980  179.1490  145.4880 C   0  0  0  0  0  2  0  0  0  0  0  0
  184.8030  178.4540  144.3900 C   0  0  2  0  0  3  0  0  0  0  0  0
  185.7260  178.0490  143.2570 C   0  0  0  0  0  0  0  0  0  0  0  0
  187.4610  177.5600  145.0490 C   0  0  0  0  0  0  0  0  0  0  0  0
  189.9120  177.4110  144.5300 C   0  0  2  0  0  3  0  0  0  0  0  0
  189.5230  177.2880  143.0440 C   0  0  0  0  0  2  0  0  0  0  0  0
  188.7630  176.8920  145.4160 C   0  0  1  0  0  3  0  0  0  0  0  0
  188.2010  178.0060  142.7300 C   0  0  0  0  0  2  0  0  0  0  0  0
  187.0700  177.4420  143.5940 C   0  0  2  0  0  3  0  0  0  0  0  0
  186.7810  178.3290  145.9160 C   0  0  0  0  0  3  0  0  0  0  0  0
  189.0750  176.8290  146.8850 C   0  0  0  0  0  0  0  0  0  0  0  0
  190.2610  176.6210  147.2620 O   0  0  0  0  0  0  0  0  0  0  0  0
  188.0640  176.9170  147.8330 O   0  0  0  0  0  1  0  0  0  0  0  0
  191.4080  179.3330  143.9580 C   0  0  0  0  0  1  0  0  0  0  0  0
  190.2920  178.8540  144.8650 C   0  0  0  0  0  2  0  0  0  0  0  0
  185.3350  176.2840  135.9530 C   0  0  0  0  0  2  0  0  0  0  0  0
  186.3260  175.8890  136.9430 N   0  0  0  0  0  2  0  0  0  0  0  0
  189.5220  178.8160  136.9540 F   0  0  0  0  0  0  0  0  0  0  0  0
  189.0690  178.1910  138.1020 C   0  0  0  0  0  0  0  0  0  0  0  0
  187.5060  176.7160  136.7360 C   0  0  1  0  0  3  0  0  0  0  0  0
  189.9950  177.0000  138.4280 C   0  0  1  0  0  3  0  0  0  0  0  0
  189.0960  179.1100  139.1380 F   0  0  0  0  0  0  0  0  0  0  0  0
  190.2100  176.8930  139.7890 F   0  0  0  0  0  0  0  0  0  0  0  0
  187.6270  177.7300  137.8860 C   0  0  0  0  0  2  0  0  0  0  0  0
  189.4930  175.6540  137.8870 C   0  0  1  0  0  3  0  0  0  0  0  0
  188.7500  175.8320  136.5640 C   0  0  0  0  0  2  0  0  0  0  0  0
  190.5760  174.7880  137.7110 O   0  0  0  0  0  0  0  0  0  0  0  0
  192.0510  175.7440  136.0690 C   0  0  0  0  0  2  0  0  0  0  0  0
  193.4110  173.6670  135.8950 C   0  0  0  0  0  2  0  0  0  0  0  0
  190.8570  174.8190  136.3410 C   0  0  1  0  0  3  0  0  0  0  0  0
  191.1770  173.4110  135.8310 C   0  0  0  0  0  2  0  0  0  0  0  0
  192.3460  172.9270  136.4420 O   0  0  0  0  0  0  0  0  0  0  0  0
  193.4090  175.1200  136.4300 C   0  0  2  0  0  0  0  0  0  0  0  0
  193.5490  175.1440  137.9520 C   0  0  0  0  0  1  0  0  0  0  0  0
  194.4040  175.9340  135.8260 O   0  0  0  0  0  0  0  0  0  0  0  0
  196.2890  174.1680  135.1110 O   0  0  0  0  0  0  0  0  0  0  0  0
  197.1150  176.5630  135.7630 O   0  0  0  0  0  1  0  0  0  0  0  0
  195.9950  175.3260  136.0420 P   0  0  0  0  0  0  0  0  0  0  0  0
  196.1610  174.7960  137.6430 O   0  0  0  0  0  1  0  0  0  0  0  0
  1  5  1  0  0  0  0
  2  4  1  0  0  0  0
  3  2  1  0  0  0  0
  3  6  1  0  0  0  0
  5  4  1  6  0  0  0
  5  9  1  0  0  0  0
  6 35  1  6  0  0  0
  6  1  1  0  0  0  0
  7 16  1  1  0  0  0
  8  7  1  0  0  0  0
  9 14  1  6  0  0  0
  9  8  1  0  0  0  0
  9  7  1  0  0  0  0
 10 15  1  0  0  0  0
 10 11  2  0  0  0  0
 11 14  1  0  0  0  0
 12 13  1  0  0  0  0
 14 13  2  0  0  0  0
 15 12  1  0  0  0  0
 16 17  1  0  0  0  0
 17 18  1  0  0  0  0
 19 22  2  0  0  0  0
 20 29  1  0  0  0  0
 21 18  1  6  0  0  0
 21 20  1  0  0  0  0
 22 28  1  0  0  0  0
 22 21  1  0  0  0  0
 23 26  1  0  0  0  0
 23 29  2  0  0  0  0
 24 34  1  1  0  0  0
 24 26  1  0  0  0  0
 25 24  1  0  0  0  0
 26 30  1  1  0  0  0
 27 25  1  0  0  0  0
 28 27  1  6  0  0  0
 28 23  1  0  0  0  0
 30 31  2  0  0  0  0
 30 32  1  0  0  0  0
 33 34  1  0  0  0  0
 35 36  1  0  0  0  0
 37 38  1  0  0  0  0
 38 40  1  0  0  0  0
 38 41  1  0  0  0  0
 39 36  1  1  0  0  0
 39 43  1  0  0  0  0
 40 42  1  1  0  0  0
 43 38  1  0  0  0  0
 44 46  1  6  0  0  0
 44 40  1  0  0  0  0
 45 39  1  0  0  0  0
 45 44  1  0  0  0  0
 47 49  1  0  0  0  0
 47 52  1  0  0  0  0
 48 52  1  0  0  0  0
 48 51  1  0  0  0  0
 49 46  1  1  0  0  0
 50 49  1  0  0  0  0
 50 51  1  0  0  0  0
 52 53  1  1  0  0  0
 54 57  1  0  0  0  0
 54 52  1  0  0  0  0
 55 57  2  0  0  0  0
 56 57  1  0  0  0  0
 57 58  1  0  0  0  0
M  END
>  <MODEL>
1

>  <REMARK>
 VINA RESULT:      -9.0      0.000      0.000
  Name = 
  15 active torsions:
  status: ('A' for Active; 'I' for Inactive)
    1  A    between atoms: N_3  and  C_4
    2  A    between atoms: N_3  and  C_15
    3  A    between atoms: C_4  and  C_20
    4  A    between atoms: C_7  and  C_47
    5  A    between atoms: C_11  and  C_34
    6  A    between atoms: N_13  and  C_25
    7  A    between atoms: N_13  and  C_37
    8  A    between atoms: O_19  and  C_26
    9  A    between atoms: O_19  and  C_55
   10  A    between atoms: C_20  and  C_22
   11  A    between atoms: C_25  and  C_53
   12  A    between atoms: P_31  and  O_50
   13  A    between atoms: C_40  and  O_50
   14  A    between atoms: C_42  and  C_57
   15  A    between atoms: C_43  and  C_57
                            x       y       z     vdW  Elec       q    Type
                         _______ _______ _______ _____ _____    ______ ____

>  <TORSDO>
F 15

$$$$
=
 OpenBabel11032419133D

 58 64  0  0  1  0  0  0  0  0999 V2000
  188.5330  177.8010  141.0110 S   0  0  0  0  0  0  0  0  0  0  0  0
  189.5980  176.0460  143.4690 C   0  0  0  0  0  2  0  0  0  0  0  0
  190.3330  176.0700  142.1360 C   0  0  0  0  0  2  0  0  0  0  0  0
  188.1110  176.3170  143.2840 C   0  0  0  0  0  2  0  0  0  0  0  0
  187.8880  177.7200  142.7280 C   0  0  2  0  0  3  0  0  0  0  0  0
  190.2540  177.4520  141.5080 C   0  0  1  0  0  3  0  0  0  0  0  0
  185.4940  177.9770  141.6400 C   0  0  1  0  0  3  0  0  0  0  0  0
  186.0620  179.3420  141.9900 C   0  0  0  0  0  2  0  0  0  0  0  0
  186.4080  178.1430  142.8580 C   0  0  2  0  0  0  0  0  0  0  0  0
  186.2110  178.0300  146.6450 C   0  0  0  0  0  3  0  0  0  0  0  0
  186.5890  177.7370  145.4010 C   0  0  0  0  0  3  0  0  0  0  0  0
  184.0390  179.0030  145.8050 C   0  0  0  0  0  2  0  0  0  0  0  0
  184.6670  178.9050  144.4410 C   0  0  0  0  0  3  0  0  0  0  0  0
  185.8160  178.2420  144.2440 C   0  0  0  0  0  0  0  0  0  0  0  0
  185.0310  178.8110  146.8640 N   0  0  0  0  0  2  0  0  0  0  0  0
  184.0060  177.9420  141.9670 C   0  0  0  0  0  2  0  0  0  0  0  0
  183.2320  178.8050  140.9830 C   0  0  0  0  0  2  0  0  0  0  0  0
  181.9800  178.1520  140.6230 N   0  0  0  0  0  2  0  0  0  0  0  0
  183.4000  179.5160  138.5610 C   0  0  0  0  0  2  0  0  0  0  0  0
  182.5140  176.0460  139.5560 C   0  0  0  0  0  2  0  0  0  0  0  0
  182.1790  177.5160  139.3290 C   0  0  2  0  0  3  0  0  0  0  0  0
  183.2900  178.1860  138.5440 C   0  0  0  0  0  0  0  0  0  0  0  0
  183.5120  175.9920  137.2790 C   0  0  0  0  0  0  0  0  0  0  0  0
  185.5820  175.3950  135.9920 C   0  0  2  0  0  3  0  0  0  0  0  0
  185.9850  176.8800  136.0790 C   0  0  0  0  0  2  0  0  0  0  0  0
  184.0490  175.2640  136.0710 C   0  0  1  0  0  3  0  0  0  0  0  0
  185.4260  177.5590  137.3390 C   0  0  0  0  0  2  0  0  0  0  0  0
  183.8990  177.4500  137.3700 C   0  0  2  0  0  3  0  0  0  0  0  0
  182.8670  175.3560  138.2720 C   0  0  0  0  0  3  0  0  0  0  0  0
  183.5200  173.8730  135.8570 C   0  0  0  0  0  0  0  0  0  0  0  0
  182.4110  173.7100  135.2780 O   0  0  0  0  0  0  0  0  0  0  0  0
  184.1960  172.7690  136.3570 O   0  0  0  0  0  1  0  0  0  0  0  0
  187.4120  173.7610  136.4860 C   0  0  0  0  0  1  0  0  0  0  0  0
  186.2880  174.5860  137.0810 C   0  0  0  0  0  2  0  0  0  0  0  0
  191.1560  177.4990  140.2860 C   0  0  0  0  0  2  0  0  0  0  0  0
  190.3620  177.4670  139.0670 N   0  0  0  0  0  2  0  0  0  0  0  0
  190.6620  174.0020  136.4820 F   0  0  0  0  0  0  0  0  0  0  0  0
  190.8590  175.2960  136.0340 C   0  0  0  0  0  0  0  0  0  0  0  0
  190.6290  176.2000  138.4020 C   0  0  1  0  0  3  0  0  0  0  0  0
  192.3720  175.5970  136.0080 C   0  0  1  0  0  3  0  0  0  0  0  0
  190.3340  175.3990  134.7560 F   0  0  0  0  0  0  0  0  0  0  0  0
  192.7140  176.3440  134.8950 F   0  0  0  0  0  0  0  0  0  0  0  0
  190.1160  176.2650  136.9540 C   0  0  0  0  0  2  0  0  0  0  0  0
  192.8890  176.3030  137.2690 C   0  0  1  0  0  3  0  0  0  0  0  0
  192.1210  175.8500  138.5100 C   0  0  0  0  0  2  0  0  0  0  0  0
  194.2510  176.0340  137.4300 O   0  0  0  0  0  0  0  0  0  0  0  0
  194.6440  173.6930  137.0380 C   0  0  0  0  0  2  0  0  0  0  0  0
  196.9690  173.8050  137.9180 C   0  0  0  0  0  2  0  0  0  0  0  0
  194.3120  174.7860  138.0610 C   0  0  1  0  0  3  0  0  0  0  0  0
  195.3780  174.7980  139.1610 C   0  0  0  0  0  2  0  0  0  0  0  0
  196.6510  174.9930  138.5990 O   0  0  0  0  0  0  0  0  0  0  0  0
  196.1250  173.6620  136.6280 C   0  0  2  0  0  0  0  0  0  0  0  0
  196.3750  174.8330  135.6770 C   0  0  0  0  0  1  0  0  0  0  0  0
  196.3370  172.4270  135.9610 O   0  0  0  0  0  0  0  0  0  0  0  0
  197.8110  170.8000  137.5000 O   0  0  0  0  0  1  0  0  0  0  0  0
  195.4160  171.3880  138.3730 O   0  0  0  0  0  1  0  0  0  0  0  0
  196.3990  171.0840  137.0300 P   0  0  0  0  0  0  0  0  0  0  0  0
  195.8070  169.7180  136.2220 O   0  0  0  0  0  0  0  0  0  0  0  0
  1  6  1  0  0  0  0
  1  5  1  0  0  0  0
  3  2  1  0  0  0  0
  4  2  1  0  0  0  0
  5  9  1  0  0  0  0
  5  4  1  6  0  0  0
  6 35  1  6  0  0  0
  6  3  1  0  0  0  0
  7 16  1  1  0  0  0
  7  8  1  0  0  0  0
  7  9  1  0  0  0  0
  8  9  1  0  0  0  0
  9 14  1  1  0  0  0
 10 15  1  0  0  0  0
 11 10  2  0  0  0  0
 12 15  1  0  0  0  0
 13 12  1  0  0  0  0
 14 13  2  0  0  0  0
 14 11  1  0  0  0  0
 17 16  1  0  0  0  0
 18 17  1  0  0  0  0
 21 20  1  0  0  0  0
 21 18  1  1  0  0  0
 22 19  2  0  0  0  0
 22 21  1  0  0  0  0
 23 28  1  0  0  0  0
 23 29  2  0  0  0  0
 24 26  1  0  0  0  0
 24 25  1  0  0  0  0
 24 34  1  1  0  0  0
 25 27  1  0  0  0  0
 26 30  1  1  0  0  0
 26 23  1  0  0  0  0
 28 27  1  1  0  0  0
 28 22  1  0  0  0  0
 29 20  1  0  0  0  0
 30 32  1  0  0  0  0
 31 30  2  0  0  0  0
 33 34  1  0  0  0  0
 36 35  1  0  0  0  0
 38 37  1  0  0  0  0
 38 43  1  0  0  0  0
 39 45  1  0  0  0  0
 39 36  1  6  0  0  0
 40 42  1  6  0  0  0
 40 38  1  0  0  0  0
 40 44  1  0  0  0  0
 41 38  1  0  0  0  0
 43 39  1  0  0  0  0
 44 46  1  1  0  0  0
 44 45  1  0  0  0  0
 47 49  1  0  0  0  0
 48 51  1  0  0  0  0
 49 46  1  6  0  0  0
 49 50  1  0  0  0  0
 51 50  1  0  0  0  0
 52 53  1  6  0  0  0
 52 47  1  0  0  0  0
 52 48  1  0  0  0  0
 54 52  1  0  0  0  0
 54 57  1  0  0  0  0
 57 55  1  0  0  0  0
 57 56  1  0  0  0  0
 58 57  2  0  0  0  0
M  END
>  <MODEL>
2

>  <REMARK>
 VINA RESULT:      -8.7      3.302      7.033
  Name = 
  15 active torsions:
  status: ('A' for Active; 'I' for Inactive)
    1  A    between atoms: N_3  and  C_4
    2  A    between atoms: N_3  and  C_15
    3  A    between atoms: C_4  and  C_20
    4  A    between atoms: C_7  and  C_47
    5  A    between atoms: C_11  and  C_34
    6  A    between atoms: N_13  and  C_25
    7  A    between atoms: N_13  and  C_37
    8  A    between atoms: O_19  and  C_26
    9  A    between atoms: O_19  and  C_55
   10  A    between atoms: C_20  and  C_22
   11  A    between atoms: C_25  and  C_53
   12  A    between atoms: P_31  and  O_50
   13  A    between atoms: C_40  and  O_50
   14  A    between atoms: C_42  and  C_57
   15  A    between atoms: C_43  and  C_57
                            x       y       z     vdW  Elec       q    Type
                         _______ _______ _______ _____ _____    ______ ____

>  <TORSDO>
F 15

$$$$
=
 OpenBabel11032419133D

 58 64  0  0  1  0  0  0  0  0999 V2000
  181.9260  175.7570  138.4230 S   0  0  0  0  0  0  0  0  0  0  0  0
  178.9310  174.9990  137.5760 C   0  0  0  0  0  2  0  0  0  0  0  0
  180.1320  174.3110  136.9410 C   0  0  0  0  0  2  0  0  0  0  0  0
  179.2840  176.4060  138.0400 C   0  0  0  0  0  2  0  0  0  0  0  0
  180.3440  176.3580  139.1360 C   0  0  2  0  0  3  0  0  0  0  0  0
  181.2440  174.1280  137.9620 C   0  0  1  0  0  3  0  0  0  0  0  0
  181.1920  177.7680  141.2030 C   0  0  1  0  0  3  0  0  0  0  0  0
  179.6740  177.7660  141.1550 C   0  0  0  0  0  2  0  0  0  0  0  0
  180.4640  177.7190  139.8570 C   0  0  2  0  0  0  0  0  0  0  0  0
  181.1420  180.3060  137.1660 C   0  0  0  0  0  3  0  0  0  0  0  0
  181.3620  179.3550  138.0730 C   0  0  0  0  0  3  0  0  0  0  0  0
  178.9670  180.9310  138.2830 C   0  0  0  0  0  2  0  0  0  0  0  0
  179.1520  179.6630  139.0720 C   0  0  0  0  0  3  0  0  0  0  0  0
  180.3020  178.9750  139.0350 C   0  0  0  0  0  0  0  0  0  0  0  0
  179.8830  180.9890  137.1440 N   0  0  0  0  0  2  0  0  0  0  0  0
  181.6910  179.1520  141.6020 C   0  0  0  0  0  2  0  0  0  0  0  0
  181.6180  179.3220  143.1100 C   0  0  0  0  0  2  0  0  0  0  0  0
  182.4930  178.3600  143.7660 N   0  0  0  0  0  2  0  0  0  0  0  0
  184.3160  178.9270  145.8830 C   0  0  0  0  0  2  0  0  0  0  0  0
  184.3710  177.8830  142.3160 C   0  0  0  0  0  2  0  0  0  0  0  0
  183.8640  178.7460  143.4660 C   0  0  2  0  0  3  0  0  0  0  0  0
  184.7660  178.5840  144.6740 C   0  0  0  0  0  0  0  0  0  0  0  0
  186.6930  178.4260  143.0240 C   0  0  0  0  0  0  0  0  0  0  0  0
  188.9050  177.4180  143.6460 C   0  0  2  0  0  3  0  0  0  0  0  0
  188.4780  177.5530  145.1200 C   0  0  0  0  0  2  0  0  0  0  0  0
  188.1840  178.4790  142.7930 C   0  0  1  0  0  3  0  0  0  0  0  0
  186.9530  177.4700  145.2910 C   0  0  0  0  0  2  0  0  0  0  0  0
  186.2640  178.5610  144.4670 C   0  0  2  0  0  3  0  0  0  0  0  0
  185.8260  178.1300  142.0410 C   0  0  0  0  0  3  0  0  0  0  0  0
  188.6220  178.5430  141.3560 C   0  0  0  0  0  0  0  0  0  0  0  0
  187.8060  178.9250  140.4730 O   0  0  0  0  0  0  0  0  0  0  0  0
  189.8850  178.1120  140.9770 O   0  0  0  0  0  1  0  0  0  0  0  0
  189.9420  175.2160  143.0660 C   0  0  0  0  0  1  0  0  0  0  0  0
  188.6460  175.9980  143.1420 C   0  0  0  0  0  2  0  0  0  0  0  0
  182.3410  173.2680  137.3580 C   0  0  0  0  0  2  0  0  0  0  0  0
  183.3430  174.1040  136.7130 N   0  0  0  0  0  2  0  0  0  0  0  0
  187.1020  172.2780  137.8620 F   0  0  0  0  0  0  0  0  0  0  0  0
  186.6830  172.3780  136.5470 C   0  0  0  0  0  0  0  0  0  0  0  0
  184.6420  173.7260  137.2510 C   0  0  1  0  0  3  0  0  0  0  0  0
  187.3430  173.6140  135.8990 C   0  0  1  0  0  3  0  0  0  0  0  0
  187.0720  171.2290  135.8790 F   0  0  0  0  0  0  0  0  0  0  0  0
  187.7190  173.3530  134.5950 F   0  0  0  0  0  0  0  0  0  0  0  0
  185.1580  172.4800  136.5120 C   0  0  0  0  0  2  0  0  0  0  0  0
  186.4690  174.8760  135.9310 C   0  0  1  0  0  3  0  0  0  0  0  0
  185.6080  174.9190  137.1920 C   0  0  0  0  0  2  0  0  0  0  0  0
  187.2840  176.0090  135.8730 O   0  0  0  0  0  0  0  0  0  0  0  0
  188.8170  176.3440  137.6970 C   0  0  0  0  0  2  0  0  0  0  0  0
  189.0120  178.7850  137.2530 C   0  0  0  0  0  2  0  0  0  0  0  0
  187.3740  176.4700  137.1910 C   0  0  1  0  0  3  0  0  0  0  0  0
  186.9300  177.9330  137.2750 C   0  0  0  0  0  2  0  0  0  0  0  0
  187.8030  178.7480  136.5350 O   0  0  0  0  0  0  0  0  0  0  0  0
  189.7570  177.4310  137.1530 C   0  0  2  0  0  0  0  0  0  0  0  0
  190.0810  177.0900  135.6980 C   0  0  0  0  0  1  0  0  0  0  0  0
  190.9340  177.3870  137.9470 O   0  0  0  0  0  0  0  0  0  0  0  0
  193.2690  176.1240  138.3140 O   0  0  0  0  0  1  0  0  0  0  0  0
  191.1610  174.6120  137.9720 O   0  0  0  0  0  1  0  0  0  0  0  0
  191.9510  176.0540  137.5730 P   0  0  0  0  0  0  0  0  0  0  0  0
  192.2600  176.0590  135.9060 O   0  0  0  0  0  0  0  0  0  0  0  0
  1  5  1  0  0  0  0
  2  4  1  0  0  0  0
  3  2  1  0  0  0  0
  3  6  1  0  0  0  0
  5  4  1  6  0  0  0
  5  9  1  0  0  0  0
  6 35  1  6  0  0  0
  6  1  1  0  0  0  0
  7 16  1  6  0  0  0
  8  7  1  0  0  0  0
  9 14  1  6  0  0  0
  9  8  1  0  0  0  0
  9  7  1  0  0  0  0
 10 11  2  0  0  0  0
 11 14  1  0  0  0  0
 12 13  1  0  0  0  0
 14 13  2  0  0  0  0
 15 10  1  0  0  0  0
 15 12  1  0  0  0  0
 16 17  1  0  0  0  0
 17 18  1  0  0  0  0
 20 21  1  0  0  0  0
 21 18  1  1  0  0  0
 21 22  1  0  0  0  0
 22 19  2  0  0  0  0
 23 28  1  0  0  0  0
 24 34  1  6  0  0  0
 24 25  1  0  0  0  0
 25 27  1  0  0  0  0
 26 30  1  6  0  0  0
 26 23  1  0  0  0  0
 26 24  1  0  0  0  0
 28 22  1  0  0  0  0
 28 27  1  1  0  0  0
 29 20  1  0  0  0  0
 29 23  2  0  0  0  0
 31 30  2  0  0  0  0
 32 30  1  0  0  0  0
 33 34  1  0  0  0  0
 36 35  1  0  0  0  0
 38 37  1  0  0  0  0
 39 36  1  6  0  0  0
 40 42  1  6  0  0  0
 40 44  1  0  0  0  0
 40 38  1  0  0  0  0
 41 38  1  0  0  0  0
 43 38  1  0  0  0  0
 43 39  1  0  0  0  0
 44 46  1  1  0  0  0
 44 45  1  0  0  0  0
 45 39  1  0  0  0  0
 49 46  1  6  0  0  0
 49 50  1  0  0  0  0
 49 47  1  0  0  0  0
 51 48  1  0  0  0  0
 51 50  1  0  0  0  0
 52 53  1  6  0  0  0
 52 48  1  0  0  0  0
 52 47  1  0  0  0  0
 52 54  1  0  0  0  0
 57 54  1  0  0  0  0
 57 56  1  0  0  0  0
 57 55  1  0  0  0  0
 58 57  2  0  0  0  0
M  END
>  <MODEL>
3

>  <REMARK>
 VINA RESULT:      -8.7      2.955      4.262
  Name = 
  15 active torsions:
  status: ('A' for Active; 'I' for Inactive)
    1  A    between atoms: N_3  and  C_4
    2  A    between atoms: N_3  and  C_15
    3  A    between atoms: C_4  and  C_20
    4  A    between atoms: C_7  and  C_47
    5  A    between atoms: C_11  and  C_34
    6  A    between atoms: N_13  and  C_25
    7  A    between atoms: N_13  and  C_37
    8  A    between atoms: O_19  and  C_26
    9  A    between atoms: O_19  and  C_55
   10  A    between atoms: C_20  and  C_22
   11  A    between atoms: C_25  and  C_53
   12  A    between atoms: P_31  and  O_50
   13  A    between atoms: C_40  and  O_50
   14  A    between atoms: C_42  and  C_57
   15  A    between atoms: C_43  and  C_57
                            x       y       z     vdW  Elec       q    Type
                         _______ _______ _______ _____ _____    ______ ____

>  <TORSDO>
F 15

$$$$
=
 OpenBabel11032419133D

 58 64  0  0  1  0  0  0  0  0999 V2000
  188.5300  177.2760  140.4520 S   0  0  0  0  0  0  0  0  0  0  0  0
  191.3870  177.4200  141.8920 C   0  0  0  0  0  2  0  0  0  0  0  0
  190.1280  177.9370  142.5760 C   0  0  0  0  0  2  0  0  0  0  0  0
  191.2660  177.5060  140.3770 C   0  0  0  0  0  2  0  0  0  0  0  0
  190.1390  176.6060  139.8780 C   0  0  2  0  0  3  0  0  0  0  0  0
  188.9320  177.0690  142.2200 C   0  0  1  0  0  3  0  0  0  0  0  0
  189.3700  177.3100  137.4500 C   0  0  1  0  0  3  0  0  0  0  0  0
  188.9200  175.8910  137.7540 C   0  0  0  0  0  2  0  0  0  0  0  0
  190.2210  176.4070  138.3480 C   0  0  2  0  0  0  0  0  0  0  0  0
  193.8610  175.7300  137.5210 C   0  0  0  0  0  3  0  0  0  0  0  0
  192.7380  176.4010  137.7750 C   0  0  0  0  0  3  0  0  0  0  0  0
  192.5410  173.6870  136.8460 C   0  0  0  0  0  2  0  0  0  0  0  0
  191.3590  174.4120  137.4300 C   0  0  0  0  0  3  0  0  0  0  0  0
  191.4330  175.7030  137.7860 C   0  0  0  0  0  0  0  0  0  0  0  0
  193.8010  174.3310  137.2230 N   0  0  0  0  0  2  0  0  0  0  0  0
  189.8490  177.3980  136.0060 C   0  0  0  0  0  2  0  0  0  0  0  0
  188.6610  177.4840  135.0620 C   0  0  0  0  0  2  0  0  0  0  0  0
  188.2960  176.1540  134.5940 N   0  0  0  0  0  2  0  0  0  0  0  0
  187.0130  173.6430  135.0110 C   0  0  0  0  0  2  0  0  0  0  0  0
  186.2970  177.2710  135.3780 C   0  0  0  0  0  2  0  0  0  0  0  0
  186.8420  176.0700  134.6140 C   0  0  2  0  0  3  0  0  0  0  0  0
  186.3680  174.7840  135.2620 C   0  0  0  0  0  0  0  0  0  0  0  0
  184.1860  176.0030  135.7290 C   0  0  0  0  0  0  0  0  0  0  0  0
  182.5650  175.2190  137.4760 C   0  0  2  0  0  3  0  0  0  0  0  0
  183.3150  173.8720  137.4730 C   0  0  0  0  0  2  0  0  0  0  0  0
  182.7290  175.9110  136.1090 C   0  0  1  0  0  3  0  0  0  0  0  0
  184.7970  174.0360  137.0990 C   0  0  0  0  0  2  0  0  0  0  0  0
  184.9290  174.6860  135.7200 C   0  0  2  0  0  3  0  0  0  0  0  0
  184.8100  177.1810  135.5590 C   0  0  0  0  0  3  0  0  0  0  0  0
  181.9270  177.1700  135.9370 C   0  0  0  0  0  0  0  0  0  0  0  0
  181.2550  177.3410  134.8820 O   0  0  0  0  0  0  0  0  0  0  0  0
  181.9770  178.1820  136.8850 O   0  0  0  0  0  1  0  0  0  0  0  0
  182.0040  176.1570  139.7260 C   0  0  0  0  0  1  0  0  0  0  0  0
  183.0490  176.0970  138.6300 C   0  0  0  0  0  2  0  0  0  0  0  0
  187.7410  177.4870  143.0660 C   0  0  0  0  0  2  0  0  0  0  0  0
  186.5670  177.6850  142.2280 N   0  0  0  0  0  2  0  0  0  0  0  0
  183.5380  180.2990  143.8930 F   0  0  0  0  0  0  0  0  0  0  0  0
  183.6520  178.9630  144.2350 C   0  0  0  0  0  0  0  0  0  0  0  0
  185.7670  178.7380  142.8360 C   0  0  1  0  0  3  0  0  0  0  0  0
  184.4460  178.8450  145.5530 C   0  0  1  0  0  3  0  0  0  0  0  0
  182.3780  178.4470  144.4030 F   0  0  0  0  0  0  0  0  0  0  0  0
  183.9180  177.8630  146.3690 F   0  0  0  0  0  0  0  0  0  0  0  0
  184.3460  178.2110  143.0990 C   0  0  0  0  0  2  0  0  0  0  0  0
  185.9470  178.5860  145.3550 C   0  0  1  0  0  3  0  0  0  0  0  0
  186.4650  179.2750  144.0940 C   0  0  0  0  0  2  0  0  0  0  0  0
  186.6510  179.0460  146.4710 O   0  0  0  0  0  0  0  0  0  0  0  0
  187.7180  176.9070  146.7430 C   0  0  0  0  0  2  0  0  0  0  0  0
  189.3910  177.8030  148.3520 C   0  0  0  0  0  2  0  0  0  0  0  0
  186.7500  177.9440  147.3280 C   0  0  1  0  0  3  0  0  0  0  0  0
  187.2480  178.3860  148.7070 C   0  0  0  0  0  2  0  0  0  0  0  0
  188.5510  178.9010  148.6110 O   0  0  0  0  0  0  0  0  0  0  0  0
  189.1990  177.2860  146.9060 C   0  0  2  0  0  0  0  0  0  0  0  0
  189.5210  178.3780  145.8860 C   0  0  0  0  0  1  0  0  0  0  0  0
  189.9510  176.1130  146.6320 O   0  0  0  0  0  0  0  0  0  0  0  0
  192.4190  175.1310  146.2690 O   0  0  0  0  0  1  0  0  0  0  0  0
  191.9930  177.5710  145.4250 O   0  0  0  0  0  0  0  0  0  0  0  0
  191.6450  176.3930  146.5890 P   0  0  0  0  0  0  0  0  0  0  0  0
  192.1390  176.9670  148.1050 O   0  0  0  0  0  1  0  0  0  0  0  0
  1  6  1  0  0  0  0
  2  3  1  0  0  0  0
  4  2  1  0  0  0  0
  5  4  1  6  0  0  0
  5  1  1  0  0  0  0
  6  3  1  0  0  0  0
  6 35  1  1  0  0  0
  7 16  1  6  0  0  0
  7  8  1  0  0  0  0
  7  9  1  0  0  0  0
  8  9  1  0  0  0  0
  9 14  1  6  0  0  0
  9  5  1  0  0  0  0
 10 11  2  0  0  0  0
 11 14  1  0  0  0  0
 12 15  1  0  0  0  0
 12 13  1  0  0  0  0
 13 14  2  0  0  0  0
 15 10  1  0  0  0  0
 17 16  1  0  0  0  0
 18 17  1  0  0  0  0
 19 22  2  0  0  0  0
 20 29  1  0  0  0  0
 21 18  1  1  0  0  0
 21 22  1  0  0  0  0
 21 20  1  0  0  0  0
 22 28  1  0  0  0  0
 23 26  1  0  0  0  0
 24 34  1  1  0  0  0
 25 24  1  0  0  0  0
 26 30  1  1  0  0  0
 26 24  1  0  0  0  0
 27 25  1  0  0  0  0
 28 23  1  0  0  0  0
 28 27  1  1  0  0  0
 29 23  2  0  0  0  0
 30 32  1  0  0  0  0
 31 30  2  0  0  0  0
 34 33  1  0  0  0  0
 36 35  1  0  0  0  0
 37 38  1  0  0  0  0
 38 41  1  0  0  0  0
 38 40  1  0  0  0  0
 39 36  1  1  0  0  0
 39 43  1  0  0  0  0
 39 45  1  0  0  0  0
 40 42  1  1  0  0  0
 43 38  1  0  0  0  0
 44 40  1  0  0  0  0
 44 46  1  1  0  0  0
 45 44  1  0  0  0  0
 47 52  1  0  0  0  0
 47 49  1  0  0  0  0
 48 51  1  0  0  0  0
 49 46  1  6  0  0  0
 49 50  1  0  0  0  0
 51 50  1  0  0  0  0
 52 53  1  6  0  0  0
 52 48  1  0  0  0  0
 54 52  1  0  0  0  0
 55 57  1  0  0  0  0
 56 57  2  0  0  0  0
 57 54  1  0  0  0  0
 57 58  1  0  0  0  0
M  END
>  <MODEL>
4

>  <REMARK>
 VINA RESULT:      -8.6      4.688     10.546
  Name = 
  15 active torsions:
  status: ('A' for Active; 'I' for Inactive)
    1  A    between atoms: N_3  and  C_4
    2  A    between atoms: N_3  and  C_15
    3  A    between atoms: C_4  and  C_20
    4  A    between atoms: C_7  and  C_47
    5  A    between atoms: C_11  and  C_34
    6  A    between atoms: N_13  and  C_25
    7  A    between atoms: N_13  and  C_37
    8  A    between atoms: O_19  and  C_26
    9  A    between atoms: O_19  and  C_55
   10  A    between atoms: C_20  and  C_22
   11  A    between atoms: C_25  and  C_53
   12  A    between atoms: P_31  and  O_50
   13  A    between atoms: C_40  and  O_50
   14  A    between atoms: C_42  and  C_57
   15  A    between atoms: C_43  and  C_57
                            x       y       z     vdW  Elec       q    Type
                         _______ _______ _______ _____ _____    ______ ____

>  <TORSDO>
F 15

$$$$
=
 OpenBabel11032419133D

 58 64  0  0  1  0  0  0  0  0999 V2000
  182.8710  175.7340  138.0380 S   0  0  0  0  0  0  0  0  0  0  0  0
  179.7120  175.2150  137.9530 C   0  0  0  0  0  2  0  0  0  0  0  0
  180.6480  174.5690  136.9410 C   0  0  0  0  0  2  0  0  0  0  0  0
  180.2780  176.5330  138.4650 C   0  0  0  0  0  2  0  0  0  0  0  0
  181.5830  176.2980  139.2190 C   0  0  2  0  0  3  0  0  0  0  0  0
  181.9740  174.2090  137.5940 C   0  0  1  0  0  3  0  0  0  0  0  0
  183.2230  177.4570  140.9360 C   0  0  1  0  0  3  0  0  0  0  0  0
  181.8300  177.3460  141.5320 C   0  0  0  0  0  2  0  0  0  0  0  0
  181.9890  177.5460  140.0330 C   0  0  2  0  0  0  0  0  0  0  0  0
  180.0760  180.8220  140.0910 C   0  0  0  0  0  3  0  0  0  0  0  0
  180.3780  179.5430  140.3150 C   0  0  0  0  0  3  0  0  0  0  0  0
  181.6180  180.8840  138.0930 C   0  0  0  0  0  2  0  0  0  0  0  0
  182.1120  179.5520  138.5910 C   0  0  0  0  0  3  0  0  0  0  0  0
  181.4810  178.8920  139.5730 C   0  0  0  0  0  0  0  0  0  0  0  0
  180.8030  181.5610  139.1030 N   0  0  0  0  0  2  0  0  0  0  0  0
  183.8340  178.8030  141.3070 C   0  0  0  0  0  2  0  0  0  0  0  0
  183.7400  179.0260  142.8080 C   0  0  0  0  0  2  0  0  0  0  0  0
  184.4170  177.9490  143.5170 N   0  0  0  0  0  2  0  0  0  0  0  0
  185.1110  178.5000  146.2260 C   0  0  0  0  0  2  0  0  0  0  0  0
  186.7630  177.6430  143.0100 C   0  0  0  0  0  2  0  0  0  0  0  0
  185.7540  178.4190  143.8480 C   0  0  2  0  0  3  0  0  0  0  0  0
  186.0580  178.2420  145.3230 C   0  0  0  0  0  0  0  0  0  0  0  0
  188.5130  178.2680  144.6630 C   0  0  0  0  0  0  0  0  0  0  0  0
  190.3070  177.3440  146.1550 C   0  0  2  0  0  3  0  0  0  0  0  0
  189.2800  177.3820  147.3030 C   0  0  0  0  0  2  0  0  0  0  0  0
  189.9510  178.4090  145.1000 C   0  0  1  0  0  3  0  0  0  0  0  0
  187.8390  177.2120  146.7970 C   0  0  0  0  0  2  0  0  0  0  0  0
  187.4980  178.3070  145.7830 C   0  0  2  0  0  3  0  0  0  0  0  0
  188.1750  177.9780  143.3950 C   0  0  0  0  0  3  0  0  0  0  0  0
  190.9580  178.5680  143.9960 C   0  0  0  0  0  0  0  0  0  0  0  0
  192.0810  179.0850  144.2470 O   0  0  0  0  0  1  0  0  0  0  0  0
  190.6410  178.2270  142.6880 O   0  0  0  0  0  0  0  0  0  0  0  0
  191.8070  175.4150  145.6170 C   0  0  0  0  0  1  0  0  0  0  0  0
  190.3860  175.9400  145.5550 C   0  0  0  0  0  2  0  0  0  0  0  0
  182.8060  173.3930  136.6180 C   0  0  0  0  0  2  0  0  0  0  0  0
  183.9560  174.1620  136.1660 N   0  0  0  0  0  2  0  0  0  0  0  0
  187.3320  171.9330  137.7190 F   0  0  0  0  0  0  0  0  0  0  0  0
  187.0990  172.1020  136.3660 C   0  0  0  0  0  0  0  0  0  0  0  0
  185.1290  173.6410  136.8510 C   0  0  1  0  0  3  0  0  0  0  0  0
  187.9570  173.2760  135.8480 C   0  0  1  0  0  3  0  0  0  0  0  0
  187.4530  170.9330  135.7130 F   0  0  0  0  0  0  0  0  0  0  0  0
  188.4700  173.0040  134.5940 F   0  0  0  0  0  0  0  0  0  0  0  0
  185.6090  172.3630  136.1420 C   0  0  0  0  0  2  0  0  0  0  0  0
  187.2180  174.6210  135.8120 C   0  0  1  0  0  3  0  0  0  0  0  0
  186.2090  174.7270  136.9550 C   0  0  0  0  0  2  0  0  0  0  0  0
  188.1430  175.6650  135.8960 O   0  0  0  0  0  0  0  0  0  0  0  0
  189.5830  174.9500  137.6850 C   0  0  0  0  0  2  0  0  0  0  0  0
  190.9440  177.0310  137.5910 C   0  0  0  0  0  2  0  0  0  0  0  0
  188.3980  175.8270  137.2620 C   0  0  1  0  0  3  0  0  0  0  0  0
  188.7100  177.2930  137.5750 C   0  0  0  0  0  2  0  0  0  0  0  0
  189.8930  177.6860  136.9250 O   0  0  0  0  0  0  0  0  0  0  0  0
  190.9490  175.5170  137.2660 C   0  0  2  0  0  0  0  0  0  0  0  0
  191.1190  175.2800  135.7660 C   0  0  0  0  0  1  0  0  0  0  0  0
  191.9310  174.7970  137.9980 O   0  0  0  0  0  0  0  0  0  0  0  0
  193.7820  176.6850  138.4350 O   0  0  0  0  0  1  0  0  0  0  0  0
  194.6390  174.2180  138.2790 O   0  0  0  0  0  1  0  0  0  0  0  0
  193.5280  175.3700  137.7300 P   0  0  0  0  0  0  0  0  0  0  0  0
  193.7530  175.5890  136.0650 O   0  0  0  0  0  0  0  0  0  0  0  0
  1  5  1  0  0  0  0
  2  4  1  0  0  0  0
  3  6  1  0  0  0  0
  3  2  1  0  0  0  0
  5  4  1  6  0  0  0
  5  9  1  0  0  0  0
  6 35  1  6  0  0  0
  6  1  1  0  0  0  0
  7 16  1  1  0  0  0
  7  8  1  0  0  0  0
  9 14  1  6  0  0  0
  9  7  1  0  0  0  0
  9  8  1  0  0  0  0
 10 11  2  0  0  0  0
 12 13  1  0  0  0  0
 12 15  1  0  0  0  0
 13 14  2  0  0  0  0
 14 11  1  0  0  0  0
 15 10  1  0  0  0  0
 16 17  1  0  0  0  0
 17 18  1  0  0  0  0
 20 29  1  0  0  0  0
 20 21  1  0  0  0  0
 21 18  1  1  0  0  0
 21 22  1  0  0  0  0
 22 28  1  0  0  0  0
 22 19  2  0  0  0  0
 23 26  1  0  0  0  0
 23 28  1  0  0  0  0
 24 34  1  6  0  0  0
 24 25  1  0  0  0  0
 26 30  1  6  0  0  0
 26 24  1  0  0  0  0
 27 25  1  0  0  0  0
 28 27  1  1  0  0  0
 29 23  2  0  0  0  0
 30 31  1  0  0  0  0
 32 30  2  0  0  0  0
 34 33  1  0  0  0  0
 36 35  1  0  0  0  0
 38 37  1  0  0  0  0
 39 36  1  6  0  0  0
 39 45  1  0  0  0  0
 40 42  1  6  0  0  0
 40 38  1  0  0  0  0
 41 38  1  0  0  0  0
 43 38  1  0  0  0  0
 43 39  1  0  0  0  0
 44 40  1  0  0  0  0
 44 46  1  1  0  0  0
 44 45  1  0  0  0  0
 49 46  1  6  0  0  0
 49 50  1  0  0  0  0
 49 47  1  0  0  0  0
 51 50  1  0  0  0  0
 51 48  1  0  0  0  0
 52 53  1  6  0  0  0
 52 48  1  0  0  0  0
 52 47  1  0  0  0  0
 52 54  1  0  0  0  0
 57 54  1  0  0  0  0
 57 56  1  0  0  0  0
 57 55  1  0  0  0  0
 58 57  2  0  0  0  0
M  END
>  <MODEL>
5

>  <REMARK>
 VINA RESULT:      -8.1      2.537      3.708
  Name = 
  15 active torsions:
  status: ('A' for Active; 'I' for Inactive)
    1  A    between atoms: N_3  and  C_4
    2  A    between atoms: N_3  and  C_15
    3  A    between atoms: C_4  and  C_20
    4  A    between atoms: C_7  and  C_47
    5  A    between atoms: C_11  and  C_34
    6  A    between atoms: N_13  and  C_25
    7  A    between atoms: N_13  and  C_37
    8  A    between atoms: O_19  and  C_26
    9  A    between atoms: O_19  and  C_55
   10  A    between atoms: C_20  and  C_22
   11  A    between atoms: C_25  and  C_53
   12  A    between atoms: P_31  and  O_50
   13  A    between atoms: C_40  and  O_50
   14  A    between atoms: C_42  and  C_57
   15  A    between atoms: C_43  and  C_57
                            x       y       z     vdW  Elec       q    Type
                         _______ _______ _______ _____ _____    ______ ____

>  <TORSDO>
F 15

$$$$
=
 OpenBabel11032419133D

 58 64  0  0  1  0  0  0  0  0999 V2000
  184.4810  178.2850  139.6360 S   0  0  0  0  0  0  0  0  0  0  0  0
  181.4840  177.9860  140.7250 C   0  0  0  0  0  2  0  0  0  0  0  0
  181.7740  178.1500  139.2390 C   0  0  0  0  0  2  0  0  0  0  0  0
  182.5660  178.6400  141.5730 C   0  0  0  0  0  2  0  0  0  0  0  0
  183.9100  177.9530  141.3490 C   0  0  2  0  0  3  0  0  0  0  0  0
  183.0630  177.4350  138.8650 C   0  0  1  0  0  3  0  0  0  0  0  0
  184.4630  178.4110  143.8920 C   0  0  1  0  0  3  0  0  0  0  0  0
  184.5980  179.6910  143.0860 C   0  0  0  0  0  2  0  0  0  0  0  0
  184.9310  178.3580  142.4350 C   0  0  2  0  0  0  0  0  0  0  0  0
  188.3480  176.7470  142.0810 C   0  0  0  0  0  3  0  0  0  0  0  0
  187.1300  177.0110  142.5550 C   0  0  0  0  0  3  0  0  0  0  0  0
  188.4730  179.0250  141.0020 C   0  0  0  0  0  2  0  0  0  0  0  0
  187.0050  179.1190  141.3220 C   0  0  0  0  0  3  0  0  0  0  0  0
  186.4010  178.2220  142.1140 C   0  0  0  0  0  0  0  0  0  0  0  0
  188.9680  177.6580  141.1660 N   0  0  0  0  0  2  0  0  0  0  0  0
  185.5850  178.3310  144.9200 C   0  0  0  0  0  2  0  0  0  0  0  0
  185.0440  178.6210  146.3110 C   0  0  0  0  0  2  0  0  0  0  0  0
  185.9060  178.0170  147.3190 N   0  0  0  0  0  2  0  0  0  0  0  0
  188.0170  177.5670  149.1810 C   0  0  0  0  0  2  0  0  0  0  0  0
  187.5090  177.8700  145.5120 C   0  0  0  0  0  2  0  0  0  0  0  0
  187.2820  178.3180  146.9500 C   0  0  2  0  0  3  0  0  0  0  0  0
  188.2690  177.6280  147.8720 C   0  0  0  0  0  0  0  0  0  0  0  0
  189.9520  177.8420  145.9780 C   0  0  0  0  0  0  0  0  0  0  0  0
  192.0170  176.4210  145.8590 C   0  0  2  0  0  3  0  0  0  0  0  0
  191.7810  176.0700  147.3410 C   0  0  0  0  0  2  0  0  0  0  0  0
  191.3960  177.7960  145.5430 C   0  0  1  0  0  3  0  0  0  0  0  0
  190.2910  176.1140  147.7160 C   0  0  0  0  0  2  0  0  0  0  0  0
  189.7110  177.5010  147.4310 C   0  0  2  0  0  3  0  0  0  0  0  0
  188.9450  178.0230  145.1060 C   0  0  0  0  0  3  0  0  0  0  0  0
  191.6800  178.3170  144.1620 C   0  0  0  0  0  0  0  0  0  0  0  0
  191.6540  179.5600  143.9470 O   0  0  0  0  0  1  0  0  0  0  0  0
  191.8940  177.4460  143.1020 O   0  0  0  0  0  0  0  0  0  0  0  0
  192.4300  174.1470  144.9030 C   0  0  0  0  0  1  0  0  0  0  0  0
  191.4690  175.3180  144.9550 C   0  0  0  0  0  2  0  0  0  0  0  0
  183.2210  177.4470  137.3530 C   0  0  0  0  0  2  0  0  0  0  0  0
  182.9680  176.1230  136.8060 N   0  0  0  0  0  2  0  0  0  0  0  0
  185.2730  172.7950  138.3540 F   0  0  0  0  0  0  0  0  0  0  0  0
  184.8120  172.8510  137.0510 C   0  0  0  0  0  0  0  0  0  0  0  0
  183.9180  175.2060  137.4200 C   0  0  1  0  0  3  0  0  0  0  0  0
  185.9430  173.3660  136.1360 C   0  0  1  0  0  3  0  0  0  0  0  0
  184.4360  171.5740  136.6670 F   0  0  0  0  0  0  0  0  0  0  0  0
  185.9540  172.6940  134.9280 F   0  0  0  0  0  0  0  0  0  0  0  0
  183.5880  173.7660  136.9900 C   0  0  0  0  0  2  0  0  0  0  0  0
  185.8940  174.8780  135.8740 C   0  0  1  0  0  3  0  0  0  0  0  0
  185.3550  175.6310  137.0890 C   0  0  0  0  0  2  0  0  0  0  0  0
  187.1740  175.3390  135.5580 O   0  0  0  0  0  0  0  0  0  0  0  0
  188.5970  175.4370  137.4950 C   0  0  0  0  0  2  0  0  0  0  0  0
  190.2840  176.8590  136.3420 C   0  0  0  0  0  2  0  0  0  0  0  0
  187.5510  176.1540  136.6310 C   0  0  1  0  0  3  0  0  0  0  0  0
  188.1320  177.4750  136.1170 C   0  0  0  0  0  2  0  0  0  0  0  0
  189.3140  177.2380  135.3960 O   0  0  0  0  0  0  0  0  0  0  0  0
  190.0060  175.4340  136.8800 C   0  0  2  0  0  0  0  0  0  0  0  0
  190.0240  174.4070  135.7480 C   0  0  0  0  0  1  0  0  0  0  0  0
  190.9000  175.0480  137.9140 O   0  0  0  0  0  0  0  0  0  0  0  0
  192.9850  176.6730  138.3610 O   0  0  0  0  0  1  0  0  0  0  0  0
  193.5330  174.1460  137.9640 O   0  0  0  0  0  1  0  0  0  0  0  0
  192.5350  175.4570  137.5790 P   0  0  0  0  0  0  0  0  0  0  0  0
  192.6850  175.7840  135.9230 O   0  0  0  0  0  0  0  0  0  0  0  0
  1  5  1  0  0  0  0
  2  4  1  0  0  0  0
  3  2  1  0  0  0  0
  5  4  1  1  0  0  0
  5  9  1  0  0  0  0
  6 35  1  6  0  0  0
  6  3  1  0  0  0  0
  6  1  1  0  0  0  0
  7 16  1  1  0  0  0
  8  7  1  0  0  0  0
  9 14  1  6  0  0  0
  9  8  1  0  0  0  0
  9  7  1  0  0  0  0
 10 11  2  0  0  0  0
 12 15  1  0  0  0  0
 12 13  1  0  0  0  0
 13 14  2  0  0  0  0
 14 11  1  0  0  0  0
 15 10  1  0  0  0  0
 16 17  1  0  0  0  0
 17 18  1  0  0  0  0
 20 21  1  0  0  0  0
 21 18  1  1  0  0  0
 21 22  1  0  0  0  0
 22 19  2  0  0  0  0
 23 28  1  0  0  0  0
 24 34  1  6  0  0  0
 24 25  1  0  0  0  0
 25 27  1  0  0  0  0
 26 30  1  6  0  0  0
 26 24  1  0  0  0  0
 26 23  1  0  0  0  0
 28 27  1  6  0  0  0
 28 22  1  0  0  0  0
 29 20  1  0  0  0  0
 29 23  2  0  0  0  0
 31 30  1  0  0  0  0
 32 30  2  0  0  0  0
 33 34  1  0  0  0  0
 36 35  1  0  0  0  0
 38 37  1  0  0  0  0
 39 36  1  6  0  0  0
 40 42  1  6  0  0  0
 40 38  1  0  0  0  0
 41 38  1  0  0  0  0
 43 38  1  0  0  0  0
 43 39  1  0  0  0  0
 44 46  1  1  0  0  0
 44 40  1  0  0  0  0
 44 45  1  0  0  0  0
 45 39  1  0  0  0  0
 48 52  1  0  0  0  0
 49 46  1  6  0  0  0
 49 47  1  0  0  0  0
 50 49  1  0  0  0  0
 51 50  1  0  0  0  0
 51 48  1  0  0  0  0
 52 53  1  6  0  0  0
 52 47  1  0  0  0  0
 52 54  1  0  0  0  0
 57 54  1  0  0  0  0
 57 56  1  0  0  0  0
 57 55  1  0  0  0  0
 58 57  2  0  0  0  0
M  END
>  <MODEL>
6

>  <REMARK>
 VINA RESULT:      -8.1      2.934      5.182
  Name = 
  15 active torsions:
  status: ('A' for Active; 'I' for Inactive)
    1  A    between atoms: N_3  and  C_4
    2  A    between atoms: N_3  and  C_15
    3  A    between atoms: C_4  and  C_20
    4  A    between atoms: C_7  and  C_47
    5  A    between atoms: C_11  and  C_34
    6  A    between atoms: N_13  and  C_25
    7  A    between atoms: N_13  and  C_37
    8  A    between atoms: O_19  and  C_26
    9  A    between atoms: O_19  and  C_55
   10  A    between atoms: C_20  and  C_22
   11  A    between atoms: C_25  and  C_53
   12  A    between atoms: P_31  and  O_50
   13  A    between atoms: C_40  and  O_50
   14  A    between atoms: C_42  and  C_57
   15  A    between atoms: C_43  and  C_57
                            x       y       z     vdW  Elec       q    Type
                         _______ _______ _______ _____ _____    ______ ____

>  <TORSDO>
F 15

$$$$
=
 OpenBabel11032419133D

 58 64  0  0  1  0  0  0  0  0999 V2000
  182.9220  177.5460  137.6800 S   0  0  0  0  0  0  0  0  0  0  0  0
  180.8700  175.8210  139.4330 C   0  0  0  0  0  2  0  0  0  0  0  0
  180.6850  175.9850  137.9310 C   0  0  0  0  0  2  0  0  0  0  0  0
  181.6050  177.0130  140.0310 C   0  0  0  0  0  2  0  0  0  0  0  0
  183.0170  177.1110  139.4610 C   0  0  2  0  0  3  0  0  0  0  0  0
  182.0320  176.0180  137.2270 C   0  0  1  0  0  3  0  0  0  0  0  0
  183.4790  178.3660  141.7400 C   0  0  1  0  0  3  0  0  0  0  0  0
  183.1600  179.3680  140.6440 C   0  0  0  0  0  2  0  0  0  0  0  0
  183.8870  178.0800  140.2920 C   0  0  2  0  0  0  0  0  0  0  0  0
  187.6350  178.6260  140.5220 C   0  0  0  0  0  3  0  0  0  0  0  0
  186.3430  178.6500  140.8490 C   0  0  0  0  0  3  0  0  0  0  0  0
  187.0590  178.3650  138.0780 C   0  0  0  0  0  2  0  0  0  0  0  0
  185.6580  178.1100  138.5650 C   0  0  0  0  0  3  0  0  0  0  0  0
  185.3090  178.3230  139.8410 C   0  0  0  0  0  0  0  0  0  0  0  0
  188.0230  178.3140  139.1790 N   0  0  0  0  0  2  0  0  0  0  0  0
  184.6020  178.9080  142.6180 C   0  0  0  0  0  2  0  0  0  0  0  0
  184.1740  178.9080  144.0760 C   0  0  0  0  0  2  0  0  0  0  0  0
  184.8340  177.8240  144.7920 N   0  0  0  0  0  2  0  0  0  0  0  0
  185.8230  179.1150  147.1330 C   0  0  0  0  0  2  0  0  0  0  0  0
  187.0680  177.0180  144.3290 C   0  0  0  0  0  2  0  0  0  0  0  0
  186.2450  178.1680  144.8950 C   0  0  2  0  0  3  0  0  0  0  0  0
  186.6480  178.4370  146.3320 C   0  0  0  0  0  0  0  0  0  0  0  0
  189.0200  177.8750  145.6110 C   0  0  0  0  0  0  0  0  0  0  0  0
  190.7990  177.2270  147.2580 C   0  0  2  0  0  3  0  0  0  0  0  0
  189.8880  177.7920  148.3650 C   0  0  0  0  0  2  0  0  0  0  0  0
  190.4960  177.9320  145.9210 C   0  0  1  0  0  3  0  0  0  0  0  0
  188.3990  177.6860  147.9980 C   0  0  0  0  0  2  0  0  0  0  0  0
  188.1180  178.4290  146.6900 C   0  0  2  0  0  3  0  0  0  0  0  0
  188.5390  177.2430  144.5270 C   0  0  0  0  0  3  0  0  0  0  0  0
  191.4170  177.5680  144.7900 C   0  0  0  0  0  0  0  0  0  0  0  0
  191.7620  178.4530  143.9590 O   0  0  0  0  0  0  0  0  0  0  0  0
  191.8300  176.2570  144.6010 O   0  0  0  0  0  1  0  0  0  0  0  0
  191.9760  175.0230  147.3810 C   0  0  0  0  0  1  0  0  0  0  0  0
  190.6430  175.7100  147.1600 C   0  0  0  0  0  2  0  0  0  0  0  0
  181.8130  175.9830  135.7240 C   0  0  0  0  0  2  0  0  0  0  0  0
  182.3300  174.7430  135.1650 N   0  0  0  0  0  2  0  0  0  0  0  0
  184.6510  172.3200  137.9080 F   0  0  0  0  0  0  0  0  0  0  0  0
  184.4140  171.9550  136.5950 C   0  0  0  0  0  0  0  0  0  0  0  0
  183.2460  174.1700  136.1400 C   0  0  1  0  0  3  0  0  0  0  0  0
  185.6280  172.3550  135.7320 C   0  0  1  0  0  3  0  0  0  0  0  0
  184.2340  170.5820  136.5510 F   0  0  0  0  0  0  0  0  0  0  0  0
  185.9090  171.3890  134.7840 F   0  0  0  0  0  0  0  0  0  0  0  0
  183.1360  172.6370  136.1060 C   0  0  0  0  0  2  0  0  0  0  0  0
  185.4780  173.7170  135.0380 C   0  0  1  0  0  3  0  0  0  0  0  0
  184.6710  174.6890  135.8970 C   0  0  0  0  0  2  0  0  0  0  0  0
  186.7430  174.2500  134.7760 O   0  0  0  0  0  0  0  0  0  0  0  0
  188.1090  174.5680  136.7310 C   0  0  0  0  0  2  0  0  0  0  0  0
  189.6320  176.1540  135.5640 C   0  0  0  0  0  2  0  0  0  0  0  0
  187.0000  175.1310  135.8320 C   0  0  1  0  0  3  0  0  0  0  0  0
  187.4250  176.5000  135.2920 C   0  0  0  0  0  2  0  0  0  0  0  0
  188.6400  176.3890  134.5950 O   0  0  0  0  0  0  0  0  0  0  0  0
  189.5190  174.7200  136.1370 C   0  0  2  0  0  0  0  0  0  0  0  0
  189.6800  173.6750  135.0330 C   0  0  0  0  0  1  0  0  0  0  0  0
  190.4340  174.4720  137.1940 O   0  0  0  0  0  0  0  0  0  0  0  0
  190.3910  177.1480  137.3320 O   0  0  0  0  0  0  0  0  0  0  0  0
  190.4810  175.8590  139.6070 O   0  0  0  0  0  1  0  0  0  0  0  0
  190.9570  175.9040  137.9840 P   0  0  0  0  0  0  0  0  0  0  0  0
  192.6490  175.9740  137.9170 O   0  0  0  0  0  1  0  0  0  0  0  0
  1  5  1  0  0  0  0
  2  4  1  0  0  0  0
  3  2  1  0  0  0  0
  5  4  1  1  0  0  0
  5  9  1  0  0  0  0
  6 35  1  6  0  0  0
  6  1  1  0  0  0  0
  6  3  1  0  0  0  0
  7 16  1  1  0  0  0
  8  7  1  0  0  0  0
  9 14  1  6  0  0  0
  9  8  1  0  0  0  0
  9  7  1  0  0  0  0
 10 11  2  0  0  0  0
 12 13  1  0  0  0  0
 12 15  1  0  0  0  0
 13 14  2  0  0  0  0
 14 11  1  0  0  0  0
 15 10  1  0  0  0  0
 16 17  1  0  0  0  0
 17 18  1  0  0  0  0
 20 29  1  0  0  0  0
 20 21  1  0  0  0  0
 21 18  1  1  0  0  0
 21 22  1  0  0  0  0
 22 28  1  0  0  0  0
 22 19  2  0  0  0  0
 23 26  1  0  0  0  0
 23 28  1  0  0  0  0
 24 34  1  6  0  0  0
 24 25  1  0  0  0  0
 26 30  1  6  0  0  0
 26 24  1  0  0  0  0
 27 25  1  0  0  0  0
 28 27  1  1  0  0  0
 29 23  2  0  0  0  0
 31 30  2  0  0  0  0
 32 30  1  0  0  0  0
 34 33  1  0  0  0  0
 36 35  1  0  0  0  0
 38 37  1  0  0  0  0
 39 36  1  6  0  0  0
 40 42  1  6  0  0  0
 40 38  1  0  0  0  0
 41 38  1  0  0  0  0
 43 39  1  0  0  0  0
 43 38  1  0  0  0  0
 44 46  1  1  0  0  0
 44 40  1  0  0  0  0
 44 45  1  0  0  0  0
 45 39  1  0  0  0  0
 48 52  1  0  0  0  0
 49 46  1  6  0  0  0
 49 47  1  0  0  0  0
 50 49  1  0  0  0  0
 51 50  1  0  0  0  0
 51 48  1  0  0  0  0
 52 53  1  6  0  0  0
 52 47  1  0  0  0  0
 52 54  1  0  0  0  0
 54 57  1  0  0  0  0
 55 57  2  0  0  0  0
 57 56  1  0  0  0  0
 58 57  1  0  0  0  0
M  END
>  <MODEL>
7

>  <REMARK>
 VINA RESULT:      -7.9      3.230      4.949
  Name = 
  15 active torsions:
  status: ('A' for Active; 'I' for Inactive)
    1  A    between atoms: N_3  and  C_4
    2  A    between atoms: N_3  and  C_15
    3  A    between atoms: C_4  and  C_20
    4  A    between atoms: C_7  and  C_47
    5  A    between atoms: C_11  and  C_34
    6  A    between atoms: N_13  and  C_25
    7  A    between atoms: N_13  and  C_37
    8  A    between atoms: O_19  and  C_26
    9  A    between atoms: O_19  and  C_55
   10  A    between atoms: C_20  and  C_22
   11  A    between atoms: C_25  and  C_53
   12  A    between atoms: P_31  and  O_50
   13  A    between atoms: C_40  and  O_50
   14  A    between atoms: C_42  and  C_57
   15  A    between atoms: C_43  and  C_57
                            x       y       z     vdW  Elec       q    Type
                         _______ _______ _______ _____ _____    ______ ____

>  <TORSDO>
F 15

$$$$
=
 OpenBabel11032419133D

 58 64  0  0  1  0  0  0  0  0999 V2000
  182.5520  178.2380  142.2230 S   0  0  0  0  0  0  0  0  0  0  0  0
  179.4360  178.6570  142.8310 C   0  0  0  0  0  2  0  0  0  0  0  0
  180.4430  178.4620  143.9560 C   0  0  0  0  0  2  0  0  0  0  0  0
  179.9010  177.9780  141.5500 C   0  0  0  0  0  2  0  0  0  0  0  0
  181.1930  178.6140  141.0470 C   0  0  2  0  0  3  0  0  0  0  0  0
  181.7660  179.1260  143.6090 C   0  0  1  0  0  3  0  0  0  0  0  0
  180.3450  178.1920  138.5800 C   0  0  1  0  0  3  0  0  0  0  0  0
  180.8080  176.8880  139.2070 C   0  0  0  0  0  2  0  0  0  0  0  0
  181.4940  178.1890  139.5920 C   0  0  2  0  0  0  0  0  0  0  0  0
  184.8920  179.6570  138.7550 C   0  0  0  0  0  3  0  0  0  0  0  0
  183.5730  179.5700  138.9320 C   0  0  0  0  0  3  0  0  0  0  0  0
  185.0680  177.1520  138.4990 C   0  0  0  0  0  2  0  0  0  0  0  0
  183.6460  177.1270  138.9930 C   0  0  0  0  0  3  0  0  0  0  0  0
  182.9260  178.2510  139.1150 C   0  0  0  0  0  0  0  0  0  0  0  0
  185.6820  178.4630  138.7090 N   0  0  0  0  0  2  0  0  0  0  0  0
  180.7860  178.2460  137.1220 C   0  0  0  0  0  2  0  0  0  0  0  0
  179.6570  177.7860  136.2140 C   0  0  0  0  0  2  0  0  0  0  0  0
  180.1200  176.7140  135.3440 N   0  0  0  0  0  2  0  0  0  0  0  0
  179.6240  174.5050  137.0760 C   0  0  0  0  0  2  0  0  0  0  0  0
  182.3900  175.9290  135.0430 C   0  0  0  0  0  2  0  0  0  0  0  0
  181.2270  176.0530  136.0200 C   0  0  2  0  0  3  0  0  0  0  0  0
  180.8290  174.6810  136.5290 C   0  0  0  0  0  0  0  0  0  0  0  0
  183.3050  174.1080  136.4680 C   0  0  0  0  0  0  0  0  0  0  0  0
  184.1270  171.7370  136.4390 C   0  0  2  0  0  3  0  0  0  0  0  0
  182.7160  171.3110  136.8880 C   0  0  0  0  0  2  0  0  0  0  0  0
  184.4110  173.1780  136.9040 C   0  0  1  0  0  3  0  0  0  0  0  0
  181.6330  172.2850  136.3950 C   0  0  0  0  0  2  0  0  0  0  0  0
  181.9170  173.7000  136.9070 C   0  0  2  0  0  3  0  0  0  0  0  0
  183.5200  175.1340  135.6280 C   0  0  0  0  0  3  0  0  0  0  0  0
  185.8110  173.6620  136.6480 C   0  0  0  0  0  0  0  0  0  0  0  0
  186.5540  173.9610  137.6230 O   0  0  0  0  0  1  0  0  0  0  0  0
  186.2710  173.8600  135.3540 O   0  0  0  0  0  0  0  0  0  0  0  0
  185.0300  170.3050  134.5970 C   0  0  0  0  0  1  0  0  0  0  0  0
  184.2770  171.5780  134.9250 C   0  0  0  0  0  2  0  0  0  0  0  0
  182.6790  179.0870  144.8230 C   0  0  0  0  0  2  0  0  0  0  0  0
  183.9580  178.4860  144.4760 N   0  0  0  0  0  2  0  0  0  0  0  0
  186.6570  179.5930  147.6820 F   0  0  0  0  0  0  0  0  0  0  0  0
  186.4640  178.2840  147.2770 C   0  0  0  0  0  0  0  0  0  0  0  0
  184.9630  179.0470  145.3680 C   0  0  1  0  0  3  0  0  0  0  0  0
  187.5920  177.8860  146.3020 C   0  0  1  0  0  3  0  0  0  0  0  0
  186.4990  177.4720  148.3980 F   0  0  0  0  0  0  0  0  0  0  0  0
  188.0080  176.5860  146.5230 F   0  0  0  0  0  0  0  0  0  0  0  0
  185.0910  178.1590  146.6170 C   0  0  0  0  0  2  0  0  0  0  0  0
  187.2250  178.0550  144.8210 C   0  0  1  0  0  3  0  0  0  0  0  0
  186.2880  179.2440  144.6170 C   0  0  0  0  0  2  0  0  0  0  0  0
  188.3890  178.2330  144.0680 O   0  0  0  0  0  0  0  0  0  0  0  0
  189.0430  176.3340  142.7430 C   0  0  0  0  0  2  0  0  0  0  0  0
  191.3840  177.1460  142.5060 C   0  0  0  0  0  2  0  0  0  0  0  0
  189.0580  177.0050  144.1230 C   0  0  1  0  0  3  0  0  0  0  0  0
  190.5070  177.2090  144.5760 C   0  0  0  0  0  2  0  0  0  0  0  0
  191.2090  177.9740  143.6290 O   0  0  0  0  0  0  0  0  0  0  0  0
  190.0470  176.9440  141.7510 C   0  0  2  0  0  0  0  0  0  0  0  0
  189.4820  178.2810  141.2710 C   0  0  0  0  0  1  0  0  0  0  0  0
  190.1540  176.0320  140.6690 O   0  0  0  0  0  0  0  0  0  0  0  0
  191.9980  177.7240  139.7080 O   0  0  0  0  0  1  0  0  0  0  0  0
  191.7190  175.4520  138.4400 O   0  0  0  0  0  1  0  0  0  0  0  0
  190.9630  176.6940  139.3060 P   0  0  0  0  0  0  0  0  0  0  0  0
  189.8170  177.4340  138.3010 O   0  0  0  0  0  0  0  0  0  0  0  0
  1  6  1  0  0  0  0
  2  3  1  0  0  0  0
  4  2  1  0  0  0  0
  5  4  1  1  0  0  0
  5  1  1  0  0  0  0
  6  3  1  0  0  0  0
  6 35  1  1  0  0  0
  7 16  1  6  0  0  0
  7  8  1  0  0  0  0
  7  9  1  0  0  0  0
  8  9  1  0  0  0  0
  9 14  1  6  0  0  0
  9  5  1  0  0  0  0
 10 11  2  0  0  0  0
 11 14  1  0  0  0  0
 12 15  1  0  0  0  0
 12 13  1  0  0  0  0
 13 14  2  0  0  0  0
 15 10  1  0  0  0  0
 17 16  1  0  0  0  0
 18 17  1  0  0  0  0
 20 29  1  0  0  0  0
 20 21  1  0  0  0  0
 21 18  1  6  0  0  0
 21 22  1  0  0  0  0
 22 28  1  0  0  0  0
 22 19  2  0  0  0  0
 23 26  1  0  0  0  0
 23 28  1  0  0  0  0
 24 34  1  6  0  0  0
 24 25  1  0  0  0  0
 24 26  1  0  0  0  0
 26 30  1  6  0  0  0
 27 25  1  0  0  0  0
 28 27  1  6  0  0  0
 29 23  2  0  0  0  0
 30 31  1  0  0  0  0
 32 30  2  0  0  0  0
 33 34  1  0  0  0  0
 36 35  1  0  0  0  0
 38 37  1  0  0  0  0
 38 41  1  0  0  0  0
 39 36  1  6  0  0  0
 39 43  1  0  0  0  0
 40 42  1  6  0  0  0
 40 38  1  0  0  0  0
 43 38  1  0  0  0  0
 44 46  1  6  0  0  0
 44 40  1  0  0  0  0
 45 44  1  0  0  0  0
 45 39  1  0  0  0  0
 47 49  1  0  0  0  0
 48 51  1  0  0  0  0
 49 46  1  6  0  0  0
 49 50  1  0  0  0  0
 51 50  1  0  0  0  0
 52 53  1  6  0  0  0
 52 48  1  0  0  0  0
 52 47  1  0  0  0  0
 54 52  1  0  0  0  0
 56 57  1  0  0  0  0
 57 55  1  0  0  0  0
 57 54  1  0  0  0  0
 58 57  2  0  0  0  0
M  END
>  <MODEL>
8

>  <REMARK>
 VINA RESULT:      -7.8      3.834      8.447
  Name = 
  15 active torsions:
  status: ('A' for Active; 'I' for Inactive)
    1  A    between atoms: N_3  and  C_4
    2  A    between atoms: N_3  and  C_15
    3  A    between atoms: C_4  and  C_20
    4  A    between atoms: C_7  and  C_47
    5  A    between atoms: C_11  and  C_34
    6  A    between atoms: N_13  and  C_25
    7  A    between atoms: N_13  and  C_37
    8  A    between atoms: O_19  and  C_26
    9  A    between atoms: O_19  and  C_55
   10  A    between atoms: C_20  and  C_22
   11  A    between atoms: C_25  and  C_53
   12  A    between atoms: P_31  and  O_50
   13  A    between atoms: C_40  and  O_50
   14  A    between atoms: C_42  and  C_57
   15  A    between atoms: C_43  and  C_57
                            x       y       z     vdW  Elec       q    Type
                         _______ _______ _______ _____ _____    ______ ____

>  <TORSDO>
F 15

$$$$
=
 OpenBabel11032419133D

 58 64  0  0  1  0  0  0  0  0999 V2000
  191.5050  177.2860  140.2240 S   0  0  0  0  0  0  0  0  0  0  0  0
  189.0100  177.1190  138.2230 C   0  0  0  0  0  2  0  0  0  0  0  0
  190.4250  177.3440  137.7080 C   0  0  0  0  0  2  0  0  0  0  0  0
  188.8470  177.6570  139.6390 C   0  0  0  0  0  2  0  0  0  0  0  0
  189.7510  176.9000  140.6060 C   0  0  2  0  0  3  0  0  0  0  0  0
  191.4290  176.5700  138.5480 C   0  0  1  0  0  3  0  0  0  0  0  0
  187.8700  177.2070  142.4360 C   0  0  1  0  0  3  0  0  0  0  0  0
  188.6330  178.5060  142.2430 C   0  0  0  0  0  2  0  0  0  0  0  0
  189.3580  177.1800  142.0730 C   0  0  2  0  0  0  0  0  0  0  0  0
  191.5700  177.8740  145.0770 C   0  0  0  0  0  3  0  0  0  0  0  0
  190.8500  178.0860  143.9750 C   0  0  0  0  0  3  0  0  0  0  0  0
  191.8500  175.4380  144.4800 C   0  0  0  0  0  2  0  0  0  0  0  0
  190.8000  175.7020  143.4350 C   0  0  0  0  0  3  0  0  0  0  0  0
  190.3960  176.9470  143.1450 C   0  0  0  0  0  0  0  0  0  0  0  0
  191.9340  176.5380  145.4420 N   0  0  0  0  0  2  0  0  0  0  0  0
  187.5760  176.9990  143.9170 C   0  0  0  0  0  2  0  0  0  0  0  0
  186.1540  177.4290  144.2350 C   0  0  0  0  0  2  0  0  0  0  0  0
  186.0750  178.8810  144.3120 N   0  0  0  0  0  2  0  0  0  0  0  0
  185.6780  179.4530  141.5480 C   0  0  0  0  0  2  0  0  0  0  0  0
  183.7100  178.4080  144.5230 C   0  0  0  0  0  2  0  0  0  0  0  0
  184.7580  179.2700  143.8280 C   0  0  2  0  0  3  0  0  0  0  0  0
  184.6480  179.1110  142.3240 C   0  0  0  0  0  0  0  0  0  0  0  0
  182.1350  178.9570  142.6780 C   0  0  0  0  0  0  0  0  0  0  0  0
  180.6030  177.9550  140.9610 C   0  0  2  0  0  3  0  0  0  0  0  0
  181.7570  178.0890  139.9490 C   0  0  0  0  0  2  0  0  0  0  0  0
  180.7550  179.0140  142.0700 C   0  0  1  0  0  3  0  0  0  0  0  0
  183.1340  178.0020  140.6260 C   0  0  0  0  0  2  0  0  0  0  0  0
  183.2730  179.0910  141.6920 C   0  0  2  0  0  3  0  0  0  0  0  0
  182.3370  178.6590  143.9730 C   0  0  0  0  0  3  0  0  0  0  0  0
  179.6130  179.0790  143.0450 C   0  0  0  0  0  0  0  0  0  0  0  0
  179.1990  178.0190  143.5910 O   0  0  0  0  0  1  0  0  0  0  0  0
  178.9560  180.2750  143.2950 O   0  0  0  0  0  0  0  0  0  0  0  0
  180.5560  175.5180  140.3990 C   0  0  0  0  0  1  0  0  0  0  0  0
  180.5480  176.5340  141.5230 C   0  0  0  0  0  2  0  0  0  0  0  0
  192.7980  176.6530  137.8940 C   0  0  0  0  0  2  0  0  0  0  0  0
  192.6740  177.0800  136.5080 N   0  0  0  0  0  2  0  0  0  0  0  0
  194.7380  173.7300  134.6920 F   0  0  0  0  0  0  0  0  0  0  0  0
  194.1460  173.6630  135.9400 C   0  0  0  0  0  0  0  0  0  0  0  0
  193.2080  176.0150  135.6720 C   0  0  1  0  0  3  0  0  0  0  0  0
  192.7460  173.0310  135.8010 C   0  0  1  0  0  3  0  0  0  0  0  0
  194.9420  172.8780  136.7580 F   0  0  0  0  0  0  0  0  0  0  0  0
  192.4760  172.1770  136.8550 F   0  0  0  0  0  0  0  0  0  0  0  0
  194.0640  175.0700  136.5330 C   0  0  0  0  0  2  0  0  0  0  0  0
  191.6080  174.0550  135.6770 C   0  0  1  0  0  3  0  0  0  0  0  0
  192.0700  175.3030  134.9270 C   0  0  0  0  0  2  0  0  0  0  0  0
  190.5270  173.4730  135.0110 O   0  0  0  0  0  0  0  0  0  0  0  0
  189.0350  173.7980  136.8700 C   0  0  0  0  0  2  0  0  0  0  0  0
  187.0300  173.1720  135.5350 C   0  0  0  0  0  2  0  0  0  0  0  0
  189.8030  172.7960  135.9980 C   0  0  1  0  0  3  0  0  0  0  0  0
  188.8160  171.8160  135.3570 C   0  0  0  0  0  2  0  0  0  0  0  0
  187.8560  172.5150  134.6050 O   0  0  0  0  0  0  0  0  0  0  0  0
  187.7720  174.3590  136.1960 C   0  0  2  0  0  0  0  0  0  0  0  0
  188.2120  175.3820  135.1490 C   0  0  0  0  0  1  0  0  0  0  0  0
  187.0120  174.9880  137.2170 O   0  0  0  0  0  0  0  0  0  0  0  0
  184.8920  173.4950  137.8950 O   0  0  0  0  0  1  0  0  0  0  0  0
  184.4720  176.0610  137.6010 O   0  0  0  0  0  1  0  0  0  0  0  0
  185.3250  174.6960  137.0800 P   0  0  0  0  0  0  0  0  0  0  0  0
  184.9540  174.4130  135.4510 O   0  0  0  0  0  0  0  0  0  0  0  0
  1  5  1  0  0  0  0
  2  4  1  0  0  0  0
  3  2  1  0  0  0  0
  3  6  1  0  0  0  0
  5  4  1  6  0  0  0
  5  9  1  0  0  0  0
  6 35  1  6  0  0  0
  6  1  1  0  0  0  0
  7 16  1  1  0  0  0
  8  7  1  0  0  0  0
  9  8  1  0  0  0  0
  9  7  1  0  0  0  0
  9 14  1  1  0  0  0
 10 15  1  0  0  0  0
 11 10  2  0  0  0  0
 12 15  1  0  0  0  0
 13 12  1  0  0  0  0
 14 13  2  0  0  0  0
 14 11  1  0  0  0  0
 16 17  1  0  0  0  0
 17 18  1  0  0  0  0
 19 22  2  0  0  0  0
 21 18  1  1  0  0  0
 21 20  1  0  0  0  0
 22 21  1  0  0  0  0
 23 29  2  0  0  0  0
 24 34  1  1  0  0  0
 24 26  1  0  0  0  0
 25 27  1  0  0  0  0
 25 24  1  0  0  0  0
 26 23  1  0  0  0  0
 26 30  1  1  0  0  0
 28 27  1  6  0  0  0
 28 22  1  0  0  0  0
 28 23  1  0  0  0  0
 29 20  1  0  0  0  0
 30 32  2  0  0  0  0
 30 31  1  0  0  0  0
 33 34  1  0  0  0  0
 36 35  1  0  0  0  0
 37 38  1  0  0  0  0
 38 43  1  0  0  0  0
 38 41  1  0  0  0  0
 39 36  1  1  0  0  0
 39 43  1  0  0  0  0
 40 38  1  0  0  0  0
 40 42  1  1  0  0  0
 44 46  1  6  0  0  0
 44 40  1  0  0  0  0
 45 39  1  0  0  0  0
 45 44  1  0  0  0  0
 48 52  1  0  0  0  0
 49 46  1  6  0  0  0
 49 47  1  0  0  0  0
 50 49  1  0  0  0  0
 51 50  1  0  0  0  0
 51 48  1  0  0  0  0
 52 53  1  6  0  0  0
 52 47  1  0  0  0  0
 52 54  1  0  0  0  0
 57 54  1  0  0  0  0
 57 56  1  0  0  0  0
 57 55  1  0  0  0  0
 58 57  2  0  0  0  0
M  END
>  <MODEL>
9

>  <REMARK>
 VINA RESULT:      -7.8      4.187      8.040
  Name = 
  15 active torsions:
  status: ('A' for Active; 'I' for Inactive)
    1  A    between atoms: N_3  and  C_4
    2  A    between atoms: N_3  and  C_15
    3  A    between atoms: C_4  and  C_20
    4  A    between atoms: C_7  and  C_47
    5  A    between atoms: C_11  and  C_34
    6  A    between atoms: N_13  and  C_25
    7  A    between atoms: N_13  and  C_37
    8  A    between atoms: O_19  and  C_26
    9  A    between atoms: O_19  and  C_55
   10  A    between atoms: C_20  and  C_22
   11  A    between atoms: C_25  and  C_53
   12  A    between atoms: P_31  and  O_50
   13  A    between atoms: C_40  and  O_50
   14  A    between atoms: C_42  and  C_57
   15  A    between atoms: C_43  and  C_57
                            x       y       z     vdW  Elec       q    Type
                         _______ _______ _______ _____ _____    ______ ____

>  <TORSDO>
F 15

$$$$
