=
 OpenBabel11042412313D

 31 35  0  0  1  0  0  0  0  0999 V2000
  185.5310  178.9370  143.8640 C   0  0  1  0  0  3  0  0  0  0  0  0
  188.8300  177.4870  143.4240 N   0  0  0  0  0  0  0  0  0  0  0  0
  191.9530  177.5600  140.4250 N   0  0  0  0  0  1  0  0  0  0  0  0
  187.4180  177.5710  143.2920 C   0  0  2  0  0  3  0  0  0  0  0  0
  190.6620  176.9140  140.2730 C   0  0  1  0  0  3  0  0  0  0  0  0
  187.0940  178.0190  142.1200 C   0  0  2  0  0  3  0  0  0  0  0  0
  188.3380  177.8670  139.9370 C   0  0  2  0  0  3  0  0  0  0  0  0
  190.0500  176.6420  141.6500 C   0  0  0  0  0  2  0  0  0  0  0  0
  188.3460  178.3810  141.3910 C   0  0  2  0  0  3  0  0  0  0  0  0
  186.4440  177.8210  144.3820 C   0  0  0  0  0  2  0  0  0  0  0  0
  189.4680  177.8640  142.2250 N   0  0  1  0  0  0  0  0  0  0  0  0
  189.7610  177.7750  139.3840 C   0  0  0  0  0  2  0  0  0  0  0  0
  185.5370  178.8730  142.0290 S   0  0  0  0  0  0  0  0  0  0  0  0
  189.6100  177.0440  147.0700 C   0  0  0  0  0  3  0  0  0  0  0  0
  190.9720  176.7370  147.0150 C   0  0  0  0  0  0  0  0  0  0  0  0
  191.6260  176.6780  145.7820 C   0  0  0  0  0  3  0  0  0  0  0  0
  188.9040  177.2950  145.8900 C   0  0  0  0  0  3  0  0  0  0  0  0
  191.6580  176.4930  148.1590 F   0  0  0  0  0  0  0  0  0  0  0  0
  189.5520  177.2450  144.6460 C   0  0  0  0  0  0  0  0  0  0  0  0
  190.9180  176.9290  144.6040 C   0  0  0  0  0  3  0  0  0  0  0  0
  184.1390  178.8270  144.4170 C   0  0  0  0  0  0  0  0  0  0  0  0
  183.1280  178.9520  143.6220 N   0  0  0  0  0  2  0  0  0  0  0  0
  183.9220  178.9390  145.8220 N   0  0  0  0  0  1  0  0  0  0  0  0
  187.4660  178.6640  139.0700 N   0  0  0  0  0  2  0  0  0  0  0  0
  186.8290  177.8200  138.0620 C   0  0  0  0  0  2  0  0  0  0  0  0
  187.1670  178.3300  136.6720 C   0  0  0  0  0  2  0  0  0  0  0  0
  187.7050  176.0520  136.6650 C   0  0  0  0  0  2  0  0  0  0  0  0
  189.1740  177.5660  135.7530 C   0  0  0  0  0  2  0  0  0  0  0  0
  187.7570  177.2660  135.8750 N   0  0  0  0  0  0  0  0  0  0  0  0
  189.0670  175.4080  136.5730 C   0  0  0  0  0  2  0  0  0  0  0  0
  189.9290  176.3270  135.8530 N   0  0  0  0  0  2  0  0  0  0  0  0
  1 10  1  0  0  0  0
  1 21  1  1  0  0  0
  2 19  1  0  0  0  0
  4  2  1  0  0  0  0
  4 10  1  1  0  0  0
  5  3  1  1  0  0  0
  5  8  1  0  0  0  0
  6 13  1  1  0  0  0
  6  4  1  0  0  0  0
  7 24  1  6  0  0  0
  7  9  1  0  0  0  0
  8 11  1  0  0  0  0
  9  6  1  0  0  0  0
  9 11  1  0  0  0  0
 11  2  1  0  0  0  0
 12  7  1  0  0  0  0
 12  5  1  0  0  0  0
 13  1  1  0  0  0  0
 15 14  1  0  0  0  0
 15 18  1  0  0  0  0
 16 15  2  0  0  0  0
 17 14  2  0  0  0  0
 19 17  1  0  0  0  0
 20 19  2  0  0  0  0
 20 16  1  0  0  0  0
 21 23  1  0  0  0  0
 22 21  2  0  0  0  0
 25 24  1  0  0  0  0
 26 25  1  0  0  0  0
 28 31  1  0  0  0  0
 28 29  1  0  0  0  0
 29 27  1  0  0  0  0
 29 26  1  0  0  0  0
 30 27  1  0  0  0  0
 31 30  1  0  0  0  0
M  END
>  <MODEL>
1

>  <REMARK>
 VINA RESULT:      -9.3      0.000      0.000
  Name = 
  6 active torsions:
  status: ('A' for Active; 'I' for Inactive)
    1  A    between atoms: C_1  and  C_3
    2  A    between atoms: N_4  and  C_16
    3  A    between atoms: N_4  and  C_28
    4  A    between atoms: N_6  and  C_24
    5  A    between atoms: C_11  and  N_14
    6  A    between atoms: C_11  and  C_28
                            x       y       z     vdW  Elec       q    Type
                         _______ _______ _______ _____ _____    ______ ____

>  <TORSDO>
F 6

$$$$
=
 OpenBabel11042412313D

 31 35  0  0  1  0  0  0  0  0999 V2000
  185.6860  178.8100  144.4450 C   0  0  1  0  0  3  0  0  0  0  0  0
  188.9500  177.3820  143.7450 N   0  0  0  0  0  0  0  0  0  0  0  0
  191.8380  177.4960  140.5200 N   0  0  0  0  0  1  0  0  0  0  0  0
  187.5320  177.4590  143.7220 C   0  0  2  0  0  3  0  0  0  0  0  0
  190.5420  176.8430  140.4620 C   0  0  1  0  0  3  0  0  0  0  0  0
  187.1180  177.9140  142.5800 C   0  0  2  0  0  3  0  0  0  0  0  0
  188.1950  177.7860  140.3090 C   0  0  2  0  0  3  0  0  0  0  0  0
  190.0370  176.5580  141.8780 C   0  0  0  0  0  2  0  0  0  0  0  0
  188.3100  178.2890  141.7620 C   0  0  2  0  0  3  0  0  0  0  0  0
  186.6410  177.6950  144.8840 C   0  0  0  0  0  2  0  0  0  0  0  0
  189.4940  177.7710  142.5050 N   0  0  1  0  0  0  0  0  0  0  0  0
  189.5720  177.7050  139.6490 C   0  0  0  0  0  2  0  0  0  0  0  0
  185.5550  178.7600  142.6150 S   0  0  0  0  0  0  0  0  0  0  0  0
  190.0480  177.0790  147.3230 C   0  0  0  0  0  3  0  0  0  0  0  0
  191.3560  176.6150  147.1620 C   0  0  0  0  0  0  0  0  0  0  0  0
  191.8700  176.4050  145.8800 C   0  0  0  0  0  3  0  0  0  0  0  0
  189.2560  177.3360  146.2010 C   0  0  0  0  0  3  0  0  0  0  0  0
  192.1250  176.3650  148.2500 F   0  0  0  0  0  0  0  0  0  0  0  0
  189.7640  177.1350  144.9080 C   0  0  0  0  0  0  0  0  0  0  0  0
  191.0760  176.6620  144.7590 C   0  0  0  0  0  3  0  0  0  0  0  0
  184.3400  178.6870  145.1000 C   0  0  0  0  0  0  0  0  0  0  0  0
  183.2780  178.9810  144.4280 N   0  0  0  0  0  2  0  0  0  0  0  0
  184.2480  178.5980  146.5210 N   0  0  0  0  0  1  0  0  0  0  0  0
  187.2550  178.5830  139.5170 N   0  0  0  0  0  2  0  0  0  0  0  0
  186.9440  177.9140  138.2570 C   0  0  0  0  0  2  0  0  0  0  0  0
  185.5100  178.2130  137.8530 C   0  0  0  0  0  2  0  0  0  0  0  0
  183.5730  177.3370  138.8330 C   0  0  0  0  0  2  0  0  0  0  0  0
  184.0210  179.5840  139.0200 C   0  0  0  0  0  2  0  0  0  0  0  0
  184.6580  178.2780  139.0310 N   0  0  0  0  0  0  0  0  0  0  0  0
  182.2960  178.0560  139.1970 C   0  0  0  0  0  2  0  0  0  0  0  0
  182.6430  179.4400  139.4620 N   0  0  0  0  0  2  0  0  0  0  0  0
  1 10  1  0  0  0  0
  1 21  1  1  0  0  0
  2 19  1  0  0  0  0
  4  2  1  0  0  0  0
  4 10  1  1  0  0  0
  5  3  1  1  0  0  0
  5  8  1  0  0  0  0
  6 13  1  1  0  0  0
  6  4  1  0  0  0  0
  7 24  1  6  0  0  0
  7  9  1  0  0  0  0
  8 11  1  0  0  0  0
  9 11  1  0  0  0  0
  9  6  1  0  0  0  0
 11  2  1  0  0  0  0
 12  7  1  0  0  0  0
 12  5  1  0  0  0  0
 13  1  1  0  0  0  0
 15 14  1  0  0  0  0
 15 18  1  0  0  0  0
 16 15  2  0  0  0  0
 17 14  2  0  0  0  0
 19 17  1  0  0  0  0
 20 19  2  0  0  0  0
 20 16  1  0  0  0  0
 21 23  1  0  0  0  0
 22 21  2  0  0  0  0
 25 24  1  0  0  0  0
 26 25  1  0  0  0  0
 26 29  1  0  0  0  0
 27 29  1  0  0  0  0
 27 30  1  0  0  0  0
 28 29  1  0  0  0  0
 28 31  1  0  0  0  0
 30 31  1  0  0  0  0
M  END
>  <MODEL>
2

>  <REMARK>
 VINA RESULT:      -9.3      1.616      2.728
  Name = 
  6 active torsions:
  status: ('A' for Active; 'I' for Inactive)
    1  A    between atoms: C_1  and  C_3
    2  A    between atoms: N_4  and  C_16
    3  A    between atoms: N_4  and  C_28
    4  A    between atoms: N_6  and  C_24
    5  A    between atoms: C_11  and  N_14
    6  A    between atoms: C_11  and  C_28
                            x       y       z     vdW  Elec       q    Type
                         _______ _______ _______ _____ _____    ______ ____

>  <TORSDO>
F 6

$$$$
=
 OpenBabel11042412313D

 31 35  0  0  1  0  0  0  0  0999 V2000
  185.4030  179.1410  143.6840 C   0  0  1  0  0  3  0  0  0  0  0  0
  188.6600  177.5790  143.3300 N   0  0  0  0  0  0  0  0  0  0  0  0
  191.8170  177.4580  140.3680 N   0  0  0  0  0  1  0  0  0  0  0  0
  187.2540  177.7010  143.1800 C   0  0  2  0  0  3  0  0  0  0  0  0
  190.5080  176.8470  140.2230 C   0  0  1  0  0  3  0  0  0  0  0  0
  186.9560  178.1190  141.9890 C   0  0  2  0  0  3  0  0  0  0  0  0
  188.2180  177.8570  139.8280 C   0  0  2  0  0  3  0  0  0  0  0  0
  189.8730  176.6390  141.6000 C   0  0  0  0  0  2  0  0  0  0  0  0
  188.2260  178.4190  141.2640 C   0  0  2  0  0  3  0  0  0  0  0  0
  186.2750  178.0160  144.2490 C   0  0  0  0  0  2  0  0  0  0  0  0
  189.3230  177.8960  142.1270 N   0  0  1  0  0  0  0  0  0  0  0  0
  189.6430  177.7040  139.2950 C   0  0  0  0  0  2  0  0  0  0  0  0
  185.4270  179.0160  141.8530 S   0  0  0  0  0  0  0  0  0  0  0  0
  191.4350  177.0610  145.8070 C   0  0  0  0  0  3  0  0  0  0  0  0
  190.7120  176.9540  146.9980 C   0  0  0  0  0  0  0  0  0  0  0  0
  189.3190  177.0520  146.9810 C   0  0  0  0  0  3  0  0  0  0  0  0
  190.7620  177.2620  144.5990 C   0  0  0  0  0  3  0  0  0  0  0  0
  191.3630  176.7580  148.1700 F   0  0  0  0  0  0  0  0  0  0  0  0
  189.3620  177.3560  144.5690 C   0  0  0  0  0  0  0  0  0  0  0  0
  188.6480  177.2540  145.7720 C   0  0  0  0  0  3  0  0  0  0  0  0
  184.0020  179.0910  144.2240 C   0  0  0  0  0  0  0  0  0  0  0  0
  183.8160  178.9670  145.4960 N   0  0  0  0  0  1  0  0  0  0  0  0
  182.9110  178.8270  143.3440 N   0  0  0  0  0  2  0  0  0  0  0  0
  187.3800  178.6500  138.9250 N   0  0  0  0  0  2  0  0  0  0  0  0
  187.6290  178.2840  137.5330 C   0  0  0  0  0  2  0  0  0  0  0  0
  186.3540  177.7550  136.9000 C   0  0  0  0  0  2  0  0  0  0  0  0
  186.9590  175.6160  136.1680 C   0  0  0  0  0  2  0  0  0  0  0  0
  184.8180  175.9950  136.9140 C   0  0  0  0  0  2  0  0  0  0  0  0
  186.2060  176.3350  137.1770 N   0  0  0  0  0  0  0  0  0  0  0  0
  186.0670  174.5090  135.6590 C   0  0  0  0  0  2  0  0  0  0  0  0
  184.7650  174.6900  136.2740 N   0  0  0  0  0  2  0  0  0  0  0  0
  1 21  1  1  0  0  0
  1 10  1  0  0  0  0
  2 19  1  0  0  0  0
  4  2  1  0  0  0  0
  4 10  1  1  0  0  0
  5  3  1  1  0  0  0
  5  8  1  0  0  0  0
  6 13  1  1  0  0  0
  6  4  1  0  0  0  0
  7 24  1  6  0  0  0
  7  9  1  0  0  0  0
  8 11  1  0  0  0  0
  9  6  1  0  0  0  0
  9 11  1  0  0  0  0
 11  2  1  0  0  0  0
 12  7  1  0  0  0  0
 12  5  1  0  0  0  0
 13  1  1  0  0  0  0
 14 15  1  0  0  0  0
 15 18  1  0  0  0  0
 16 15  2  0  0  0  0
 17 14  2  0  0  0  0
 19 17  1  0  0  0  0
 19 20  2  0  0  0  0
 20 16  1  0  0  0  0
 21 22  1  0  0  0  0
 23 21  2  0  0  0  0
 25 24  1  0  0  0  0
 26 29  1  0  0  0  0
 26 25  1  0  0  0  0
 27 29  1  0  0  0  0
 28 29  1  0  0  0  0
 30 27  1  0  0  0  0
 30 31  1  0  0  0  0
 31 28  1  0  0  0  0
M  END
>  <MODEL>
3

>  <REMARK>
 VINA RESULT:      -8.8      1.136      1.857
  Name = 
  6 active torsions:
  status: ('A' for Active; 'I' for Inactive)
    1  A    between atoms: C_1  and  C_3
    2  A    between atoms: N_4  and  C_16
    3  A    between atoms: N_4  and  C_28
    4  A    between atoms: N_6  and  C_24
    5  A    between atoms: C_11  and  N_14
    6  A    between atoms: C_11  and  C_28
                            x       y       z     vdW  Elec       q    Type
                         _______ _______ _______ _____ _____    ______ ____

>  <TORSDO>
F 6

$$$$
=
 OpenBabel11042412313D

 31 35  0  0  1  0  0  0  0  0999 V2000
  184.5830  179.1660  142.7690 C   0  0  1  0  0  3  0  0  0  0  0  0
  187.7470  177.8300  143.9440 N   0  0  0  0  0  0  0  0  0  0  0  0
  191.7960  177.4820  142.4490 N   0  0  0  0  0  1  0  0  0  0  0  0
  186.5030  177.8140  143.2600 C   0  0  2  0  0  3  0  0  0  0  0  0
  190.6490  176.7530  141.9380 C   0  0  1  0  0  3  0  0  0  0  0  0
  186.6770  178.0090  141.9900 C   0  0  2  0  0  3  0  0  0  0  0  0
  188.6710  177.5020  140.5420 C   0  0  2  0  0  3  0  0  0  0  0  0
  189.5390  176.7220  142.9920 C   0  0  0  0  0  2  0  0  0  0  0  0
  188.1240  178.2880  141.7510 C   0  0  2  0  0  3  0  0  0  0  0  0
  185.1870  178.2200  143.8110 C   0  0  0  0  0  2  0  0  0  0  0  0
  188.8140  178.0000  143.0400 N   0  0  1  0  0  0  0  0  0  0  0  0
  190.1940  177.3770  140.6160 C   0  0  0  0  0  2  0  0  0  0  0  0
  185.3050  178.7480  141.1340 S   0  0  0  0  0  0  0  0  0  0  0  0
  187.0380  178.2100  147.6120 C   0  0  0  0  0  3  0  0  0  0  0  0
  188.2860  177.9010  148.1580 C   0  0  0  0  0  0  0  0  0  0  0  0
  189.3530  177.5700  147.3190 C   0  0  0  0  0  3  0  0  0  0  0  0
  186.8590  178.1920  146.2260 C   0  0  0  0  0  3  0  0  0  0  0  0
  188.4610  177.9180  149.5020 F   0  0  0  0  0  0  0  0  0  0  0  0
  187.9250  177.8670  145.3740 C   0  0  0  0  0  0  0  0  0  0  0  0
  189.1720  177.5510  145.9340 C   0  0  0  0  0  3  0  0  0  0  0  0
  183.0830  179.0930  142.7460 C   0  0  0  0  0  0  0  0  0  0  0  0
  182.4320  179.0470  143.8610 N   0  0  0  0  0  1  0  0  0  0  0  0
  182.4080  178.7240  141.5450 N   0  0  0  0  0  2  0  0  0  0  0  0
  188.2320  178.0690  139.2650 N   0  0  0  0  0  2  0  0  0  0  0  0
  189.3620  178.2310  138.3540 C   0  0  0  0  0  2  0  0  0  0  0  0
  188.8970  178.8810  137.0620 C   0  0  0  0  0  2  0  0  0  0  0  0
  187.7850  177.3180  135.7210 C   0  0  0  0  0  2  0  0  0  0  0  0
  189.9380  176.8950  136.4070 C   0  0  0  0  0  2  0  0  0  0  0  0
  189.0640  177.9610  135.9470 N   0  0  0  0  0  0  0  0  0  0  0  0
  188.0550  175.8390  135.5790 C   0  0  0  0  0  2  0  0  0  0  0  0
  189.4620  175.6300  135.8680 N   0  0  0  0  0  2  0  0  0  0  0  0
  1 21  1  6  0  0  0
  1 10  1  0  0  0  0
  2 19  1  0  0  0  0
  4 10  1  1  0  0  0
  4  2  1  0  0  0  0
  5  3  1  1  0  0  0
  5  8  1  0  0  0  0
  6 13  1  1  0  0  0
  6  4  1  0  0  0  0
  7 24  1  6  0  0  0
  7 12  1  0  0  0  0
  7  9  1  0  0  0  0
  8 11  1  0  0  0  0
  9  6  1  0  0  0  0
  9 11  1  0  0  0  0
 11  2  1  0  0  0  0
 12  5  1  0  0  0  0
 13  1  1  0  0  0  0
 14 15  1  0  0  0  0
 15 18  1  0  0  0  0
 16 15  2  0  0  0  0
 17 14  2  0  0  0  0
 19 20  2  0  0  0  0
 19 17  1  0  0  0  0
 20 16  1  0  0  0  0
 21 22  1  0  0  0  0
 23 21  2  0  0  0  0
 25 24  1  0  0  0  0
 26 25  1  0  0  0  0
 27 29  1  0  0  0  0
 29 28  1  0  0  0  0
 29 26  1  0  0  0  0
 30 27  1  0  0  0  0
 30 31  1  0  0  0  0
 31 28  1  0  0  0  0
M  END
>  <MODEL>
4

>  <REMARK>
 VINA RESULT:      -8.7      1.503      1.969
  Name = 
  6 active torsions:
  status: ('A' for Active; 'I' for Inactive)
    1  A    between atoms: C_1  and  C_3
    2  A    between atoms: N_4  and  C_16
    3  A    between atoms: N_4  and  C_28
    4  A    between atoms: N_6  and  C_24
    5  A    between atoms: C_11  and  N_14
    6  A    between atoms: C_11  and  C_28
                            x       y       z     vdW  Elec       q    Type
                         _______ _______ _______ _____ _____    ______ ____

>  <TORSDO>
F 6

$$$$
=
 OpenBabel11042412313D

 31 35  0  0  1  0  0  0  0  0999 V2000
  188.9280  177.3370  140.6870 C   0  0  1  0  0  3  0  0  0  0  0  0
  188.1190  177.8770  144.1840 N   0  0  0  0  0  0  0  0  0  0  0  0
  184.5480  178.0170  146.6300 N   0  0  0  0  0  1  0  0  0  0  0  0
  188.3260  178.2390  142.8270 C   0  0  2  0  0  3  0  0  0  0  0  0
  184.9200  179.0050  145.6330 C   0  0  1  0  0  3  0  0  0  0  0  0
  187.1940  178.3460  142.2050 C   0  0  2  0  0  3  0  0  0  0  0  0
  184.9120  178.9150  143.1000 C   0  0  2  0  0  3  0  0  0  0  0  0
  186.4230  178.9260  145.3550 C   0  0  0  0  0  2  0  0  0  0  0  0
  186.1030  177.9370  143.1380 C   0  0  2  0  0  3  0  0  0  0  0  0
  189.5030  177.8970  141.9920 C   0  0  0  0  0  2  0  0  0  0  0  0
  186.7430  177.7920  144.4760 N   0  0  1  0  0  0  0  0  0  0  0  0
  184.0730  178.8020  144.3730 C   0  0  0  0  0  2  0  0  0  0  0  0
  187.2510  178.0460  140.4530 S   0  0  0  0  0  0  0  0  0  0  0  0
  191.4700  177.0060  145.6380 C   0  0  0  0  0  3  0  0  0  0  0  0
  191.1140  176.6710  146.9470 C   0  0  0  0  0  0  0  0  0  0  0  0
  189.7760  176.7330  147.3440 C   0  0  0  0  0  3  0  0  0  0  0  0
  190.4870  177.3980  144.7260 C   0  0  0  0  0  3  0  0  0  0  0  0
  192.0670  176.2900  147.8320 F   0  0  0  0  0  0  0  0  0  0  0  0
  189.1390  177.4580  145.1120 C   0  0  0  0  0  0  0  0  0  0  0  0
  188.7940  177.1270  146.4310 C   0  0  0  0  0  3  0  0  0  0  0  0
  189.8190  177.6240  139.5110 C   0  0  0  0  0  0  0  0  0  0  0  0
  189.3870  178.3800  138.5570 N   0  0  0  0  0  2  0  0  0  0  0  0
  190.9640  176.8080  139.2730 N   0  0  0  0  0  1  0  0  0  0  0  0
  184.0980  178.7540  141.8930 N   0  0  0  0  0  2  0  0  0  0  0  0
  182.6830  178.6290  142.2360 C   0  0  0  0  0  2  0  0  0  0  0  0
  181.8720  178.3360  140.9860 C   0  0  0  0  0  2  0  0  0  0  0  0
  180.2800  179.7670  140.0380 C   0  0  0  0  0  2  0  0  0  0  0  0
  180.5080  179.6810  142.3240 C   0  0  0  0  0  2  0  0  0  0  0  0
  180.5180  178.8470  141.1340 N   0  0  0  0  0  0  0  0  0  0  0  0
  179.6590  181.0080  140.6320 C   0  0  0  0  0  2  0  0  0  0  0  0
  179.6780  180.8500  142.0750 N   0  0  0  0  0  2  0  0  0  0  0  0
  1 21  1  6  0  0  0
  1 10  1  0  0  0  0
  2 11  1  0  0  0  0
  2 19  1  0  0  0  0
  4 10  1  6  0  0  0
  4  2  1  0  0  0  0
  5  3  1  1  0  0  0
  6 13  1  6  0  0  0
  6  4  1  0  0  0  0
  6  9  1  0  0  0  0
  7 24  1  6  0  0  0
  7  9  1  0  0  0  0
  7 12  1  0  0  0  0
  8  5  1  0  0  0  0
  9 11  1  0  0  0  0
 11  8  1  0  0  0  0
 12  5  1  0  0  0  0
 13  1  1  0  0  0  0
 14 15  1  0  0  0  0
 15 16  2  0  0  0  0
 15 18  1  0  0  0  0
 17 19  1  0  0  0  0
 17 14  2  0  0  0  0
 19 20  2  0  0  0  0
 20 16  1  0  0  0  0
 22 21  2  0  0  0  0
 23 21  1  0  0  0  0
 24 25  1  0  0  0  0
 26 29  1  0  0  0  0
 26 25  1  0  0  0  0
 27 30  1  0  0  0  0
 27 29  1  0  0  0  0
 29 28  1  0  0  0  0
 30 31  1  0  0  0  0
 31 28  1  0  0  0  0
M  END
>  <MODEL>
5

>  <REMARK>
 VINA RESULT:      -8.2      2.454      6.409
  Name = 
  6 active torsions:
  status: ('A' for Active; 'I' for Inactive)
    1  A    between atoms: C_1  and  C_3
    2  A    between atoms: N_4  and  C_16
    3  A    between atoms: N_4  and  C_28
    4  A    between atoms: N_6  and  C_24
    5  A    between atoms: C_11  and  N_14
    6  A    between atoms: C_11  and  C_28
                            x       y       z     vdW  Elec       q    Type
                         _______ _______ _______ _____ _____    ______ ____

>  <TORSDO>
F 6

$$$$
=
 OpenBabel11042412313D

 31 35  0  0  1  0  0  0  0  0999 V2000
  190.1620  176.6760  145.2050 C   0  0  1  0  0  3  0  0  0  0  0  0
  187.7770  177.9300  142.7730 N   0  0  0  0  0  0  0  0  0  0  0  0
  187.1550  177.6390  138.4970 N   0  0  0  0  0  1  0  0  0  0  0  0
  188.9740  177.9250  143.5360 C   0  0  2  0  0  3  0  0  0  0  0  0
  188.2430  178.3550  139.1380 C   0  0  1  0  0  3  0  0  0  0  0  0
  189.9650  177.4790  142.8290 C   0  0  2  0  0  3  0  0  0  0  0  0
  190.3170  177.5300  140.3380 C   0  0  2  0  0  3  0  0  0  0  0  0
  187.8720  178.6800  140.5870 C   0  0  0  0  0  2  0  0  0  0  0  0
  189.4380  177.0370  141.5040 C   0  0  2  0  0  3  0  0  0  0  0  0
  189.0840  177.7450  145.0050 C   0  0  0  0  0  2  0  0  0  0  0  0
  188.0230  177.5020  141.4520 N   0  0  1  0  0  0  0  0  0  0  0  0
  189.5310  177.5340  139.0260 C   0  0  0  0  0  2  0  0  0  0  0  0
  191.2800  176.7130  143.7490 S   0  0  0  0  0  0  0  0  0  0  0  0
  184.9300  178.5170  145.1490 C   0  0  0  0  0  3  0  0  0  0  0  0
  183.8550  178.6060  144.2600 C   0  0  0  0  0  0  0  0  0  0  0  0
  184.0720  178.4730  142.8870 C   0  0  0  0  0  3  0  0  0  0  0  0
  186.2200  178.2900  144.6630 C   0  0  0  0  0  3  0  0  0  0  0  0
  182.6030  178.8260  144.7310 F   0  0  0  0  0  0  0  0  0  0  0  0
  186.4490  178.1490  143.2850 C   0  0  0  0  0  0  0  0  0  0  0  0
  185.3630  178.2470  142.4020 C   0  0  0  0  0  3  0  0  0  0  0  0
  190.9170  176.8720  146.4880 C   0  0  0  0  0  0  0  0  0  0  0  0
  192.1100  176.3890  146.6030 N   0  0  0  0  0  2  0  0  0  0  0  0
  190.2200  177.2630  147.6700 N   0  0  0  0  0  1  0  0  0  0  0  0
  191.5660  176.7720  140.2230 N   0  0  0  0  0  2  0  0  0  0  0  0
  191.7960  176.3600  138.8410 C   0  0  0  0  0  2  0  0  0  0  0  0
  193.1880  176.7790  138.4010 C   0  0  0  0  0  2  0  0  0  0  0  0
  193.9940  176.1600  136.2920 C   0  0  0  0  0  2  0  0  0  0  0  0
  192.8630  174.6200  137.5710 C   0  0  0  0  0  2  0  0  0  0  0  0
  193.8270  175.7040  137.6590 N   0  0  0  0  0  0  0  0  0  0  0  0
  193.5170  175.0440  135.3940 C   0  0  0  0  0  2  0  0  0  0  0  0
  192.9480  174.0170  136.2500 N   0  0  0  0  0  2  0  0  0  0  0  0
  1 21  1  1  0  0  0
  2 19  1  0  0  0  0
  2  4  1  0  0  0  0
  4 10  1  1  0  0  0
  5  3  1  1  0  0  0
  5  8  1  0  0  0  0
  6  4  1  0  0  0  0
  6 13  1  1  0  0  0
  7 24  1  6  0  0  0
  7  9  1  0  0  0  0
  8 11  1  0  0  0  0
  9  6  1  0  0  0  0
 10  1  1  0  0  0  0
 11  9  1  0  0  0  0
 11  2  1  0  0  0  0
 12  5  1  0  0  0  0
 12  7  1  0  0  0  0
 13  1  1  0  0  0  0
 15 18  1  0  0  0  0
 15 14  2  0  0  0  0
 16 15  1  0  0  0  0
 17 14  1  0  0  0  0
 19 17  2  0  0  0  0
 20 16  2  0  0  0  0
 20 19  1  0  0  0  0
 21 22  2  0  0  0  0
 21 23  1  0  0  0  0
 25 24  1  0  0  0  0
 26 25  1  0  0  0  0
 27 29  1  0  0  0  0
 28 29  1  0  0  0  0
 29 26  1  0  0  0  0
 30 31  1  0  0  0  0
 30 27  1  0  0  0  0
 31 28  1  0  0  0  0
M  END
>  <MODEL>
6

>  <REMARK>
 VINA RESULT:      -8.0      3.168      5.368
  Name = 
  6 active torsions:
  status: ('A' for Active; 'I' for Inactive)
    1  A    between atoms: C_1  and  C_3
    2  A    between atoms: N_4  and  C_16
    3  A    between atoms: N_4  and  C_28
    4  A    between atoms: N_6  and  C_24
    5  A    between atoms: C_11  and  N_14
    6  A    between atoms: C_11  and  C_28
                            x       y       z     vdW  Elec       q    Type
                         _______ _______ _______ _____ _____    ______ ____

>  <TORSDO>
F 6

$$$$
=
 OpenBabel11042412313D

 31 35  0  0  1  0  0  0  0  0999 V2000
  184.6810  179.1780  142.4740 C   0  0  1  0  0  3  0  0  0  0  0  0
  187.8680  177.8190  143.5590 N   0  0  0  0  0  0  0  0  0  0  0  0
  191.9130  177.6060  142.0280 N   0  0  0  0  0  1  0  0  0  0  0  0
  186.6200  177.8250  142.8800 C   0  0  2  0  0  3  0  0  0  0  0  0
  190.7730  176.8930  141.4820 C   0  0  1  0  0  3  0  0  0  0  0  0
  186.7860  178.0930  141.6220 C   0  0  2  0  0  3  0  0  0  0  0  0
  188.7790  177.6940  140.1390 C   0  0  2  0  0  3  0  0  0  0  0  0
  189.6690  176.7890  142.5380 C   0  0  0  0  0  2  0  0  0  0  0  0
  188.2280  178.4030  141.3920 C   0  0  2  0  0  3  0  0  0  0  0  0
  185.3020  178.1830  143.4590 C   0  0  0  0  0  2  0  0  0  0  0  0
  188.9280  178.0520  142.6600 N   0  0  1  0  0  0  0  0  0  0  0  0
  190.3030  177.5850  140.2000 C   0  0  0  0  0  2  0  0  0  0  0  0
  185.4010  178.8620  140.8150 S   0  0  0  0  0  0  0  0  0  0  0  0
  187.1470  177.8210  147.2440 C   0  0  0  0  0  3  0  0  0  0  0  0
  188.4320  177.6620  147.7670 C   0  0  0  0  0  0  0  0  0  0  0  0
  189.5280  177.5540  146.9070 C   0  0  0  0  0  3  0  0  0  0  0  0
  186.9580  177.8780  145.8600 C   0  0  0  0  0  3  0  0  0  0  0  0
  188.6160  177.6070  149.1080 F   0  0  0  0  0  0  0  0  0  0  0  0
  188.0530  177.7770  144.9870 C   0  0  0  0  0  0  0  0  0  0  0  0
  189.3380  177.6100  145.5230 C   0  0  0  0  0  3  0  0  0  0  0  0
  183.1820  179.0870  142.4530 C   0  0  0  0  0  0  0  0  0  0  0  0
  182.5900  178.5920  141.4180 N   0  0  0  0  0  2  0  0  0  0  0  0
  182.4120  179.8470  143.3830 N   0  0  0  0  0  1  0  0  0  0  0  0
  188.3260  178.3260  138.8970 N   0  0  0  0  0  2  0  0  0  0  0  0
  188.9950  177.7350  137.7420 C   0  0  0  0  0  2  0  0  0  0  0  0
  187.9650  177.1580  136.7860 C   0  0  0  0  0  2  0  0  0  0  0  0
  188.1840  174.8300  136.9000 C   0  0  0  0  0  2  0  0  0  0  0  0
  186.0930  175.7630  136.6970 C   0  0  0  0  0  2  0  0  0  0  0  0
  187.3790  175.9500  137.3470 N   0  0  0  0  0  0  0  0  0  0  0  0
  187.2280  173.7700  136.4070 C   0  0  0  0  0  2  0  0  0  0  0  0
  185.8950  174.3450  136.4400 N   0  0  0  0  0  2  0  0  0  0  0  0
  1 21  1  6  0  0  0
  1 10  1  0  0  0  0
  2 19  1  0  0  0  0
  4 10  1  1  0  0  0
  4  2  1  0  0  0  0
  5  3  1  1  0  0  0
  5  8  1  0  0  0  0
  6 13  1  1  0  0  0
  6  4  1  0  0  0  0
  7 24  1  6  0  0  0
  7 12  1  0  0  0  0
  7  9  1  0  0  0  0
  8 11  1  0  0  0  0
  9  6  1  0  0  0  0
  9 11  1  0  0  0  0
 11  2  1  0  0  0  0
 12  5  1  0  0  0  0
 13  1  1  0  0  0  0
 14 15  1  0  0  0  0
 15 18  1  0  0  0  0
 16 15  2  0  0  0  0
 17 14  2  0  0  0  0
 19 20  2  0  0  0  0
 19 17  1  0  0  0  0
 20 16  1  0  0  0  0
 21 23  1  0  0  0  0
 22 21  2  0  0  0  0
 25 24  1  0  0  0  0
 26 29  1  0  0  0  0
 26 25  1  0  0  0  0
 27 29  1  0  0  0  0
 28 29  1  0  0  0  0
 30 31  1  0  0  0  0
 30 27  1  0  0  0  0
 31 28  1  0  0  0  0
M  END
>  <MODEL>
7

>  <REMARK>
 VINA RESULT:      -8.0      1.599      2.060
  Name = 
  6 active torsions:
  status: ('A' for Active; 'I' for Inactive)
    1  A    between atoms: C_1  and  C_3
    2  A    between atoms: N_4  and  C_16
    3  A    between atoms: N_4  and  C_28
    4  A    between atoms: N_6  and  C_24
    5  A    between atoms: C_11  and  N_14
    6  A    between atoms: C_11  and  C_28
                            x       y       z     vdW  Elec       q    Type
                         _______ _______ _______ _____ _____    ______ ____

>  <TORSDO>
F 6

$$$$
=
 OpenBabel11042412313D

 31 35  0  0  1  0  0  0  0  0999 V2000
  190.6190  177.6160  142.8070 C   0  0  1  0  0  3  0  0  0  0  0  0
  189.8520  176.7660  139.3620 N   0  0  0  0  0  0  0  0  0  0  0  0
  187.2200  178.2200  136.2460 N   0  0  0  0  0  1  0  0  0  0  0  0
  189.6930  176.7440  140.7730 C   0  0  2  0  0  3  0  0  0  0  0  0
  186.7910  177.5390  137.4540 C   0  0  1  0  0  3  0  0  0  0  0  0
  188.7390  177.5430  141.1370 C   0  0  2  0  0  3  0  0  0  0  0  0
  186.7030  178.3040  139.8680 C   0  0  2  0  0  3  0  0  0  0  0  0
  187.9540  176.7360  138.0410 C   0  0  0  0  0  2  0  0  0  0  0  0
  188.2430  178.2670  139.9290 C   0  0  2  0  0  3  0  0  0  0  0  0
  190.7540  176.4900  141.7770 C   0  0  0  0  0  2  0  0  0  0  0  0
  188.8930  177.6070  138.7620 N   0  0  1  0  0  0  0  0  0  0  0  0
  186.2190  178.5610  138.4410 C   0  0  0  0  0  2  0  0  0  0  0  0
  188.8820  178.2080  142.7800 S   0  0  0  0  0  0  0  0  0  0  0  0
  193.2610  176.2180  137.8870 C   0  0  0  0  0  3  0  0  0  0  0  0
  193.0680  175.0100  137.2110 C   0  0  0  0  0  0  0  0  0  0  0  0
  191.8200  174.3830  137.2430 C   0  0  0  0  0  3  0  0  0  0  0  0
  192.2040  176.8000  138.5910 C   0  0  0  0  0  3  0  0  0  0  0  0
  194.0930  174.4450  136.5270 F   0  0  0  0  0  0  0  0  0  0  0  0
  190.9440  176.1820  138.6260 C   0  0  0  0  0  0  0  0  0  0  0  0
  190.7640  174.9660  137.9490 C   0  0  0  0  0  3  0  0  0  0  0  0
  191.0320  177.1730  144.1820 C   0  0  0  0  0  0  0  0  0  0  0  0
  191.6440  176.0450  144.3280 N   0  0  0  0  0  2  0  0  0  0  0  0
  190.4580  177.7950  145.3300 N   0  0  0  0  0  1  0  0  0  0  0  0
  186.1310  179.2610  140.8190 N   0  0  0  0  0  2  0  0  0  0  0  0
  184.8330  178.7980  141.3020 C   0  0  0  0  0  2  0  0  0  0  0  0
  185.0050  178.0430  142.6090 C   0  0  0  0  0  2  0  0  0  0  0  0
  185.7380  178.3460  144.8110 C   0  0  0  0  0  2  0  0  0  0  0  0
  183.6330  179.0470  144.2110 C   0  0  0  0  0  2  0  0  0  0  0  0
  185.0020  178.9710  143.7300 N   0  0  0  0  0  0  0  0  0  0  0  0
  184.9110  178.5160  146.0630 C   0  0  0  0  0  2  0  0  0  0  0  0
  183.6460  179.1070  145.6640 N   0  0  0  0  0  2  0  0  0  0  0  0
  1 21  1  1  0  0  0
  2  4  1  0  0  0  0
  4  6  1  0  0  0  0
  4 10  1  1  0  0  0
  5  3  1  6  0  0  0
  5  8  1  0  0  0  0
  5 12  1  0  0  0  0
  6 13  1  1  0  0  0
  7  9  1  0  0  0  0
  7 24  1  1  0  0  0
  8 11  1  0  0  0  0
  9  6  1  0  0  0  0
 10  1  1  0  0  0  0
 11  2  1  0  0  0  0
 11  9  1  0  0  0  0
 12  7  1  0  0  0  0
 13  1  1  0  0  0  0
 14 17  1  0  0  0  0
 15 16  1  0  0  0  0
 15 14  2  0  0  0  0
 16 20  2  0  0  0  0
 17 19  2  0  0  0  0
 18 15  1  0  0  0  0
 19  2  1  0  0  0  0
 20 19  1  0  0  0  0
 21 22  2  0  0  0  0
 21 23  1  0  0  0  0
 24 25  1  0  0  0  0
 25 26  1  0  0  0  0
 26 29  1  0  0  0  0
 27 30  1  0  0  0  0
 28 31  1  0  0  0  0
 29 28  1  0  0  0  0
 29 27  1  0  0  0  0
 31 30  1  0  0  0  0
M  END
>  <MODEL>
8

>  <REMARK>
 VINA RESULT:      -7.8      2.965      7.051
  Name = 
  6 active torsions:
  status: ('A' for Active; 'I' for Inactive)
    1  A    between atoms: C_1  and  C_3
    2  A    between atoms: N_4  and  C_16
    3  A    between atoms: N_4  and  C_28
    4  A    between atoms: N_6  and  C_24
    5  A    between atoms: C_11  and  N_14
    6  A    between atoms: C_11  and  C_28
                            x       y       z     vdW  Elec       q    Type
                         _______ _______ _______ _____ _____    ______ ____

>  <TORSDO>
F 6

$$$$
=
 OpenBabel11042412313D

 31 35  0  0  1  0  0  0  0  0999 V2000
  189.5910  177.0150  140.8230 C   0  0  1  0  0  3  0  0  0  0  0  0
  188.5270  177.6690  144.2310 N   0  0  0  0  0  0  0  0  0  0  0  0
  184.7830  177.9430  146.3900 N   0  0  0  0  0  1  0  0  0  0  0  0
  188.8450  177.9880  142.8850 C   0  0  2  0  0  3  0  0  0  0  0  0
  185.2480  178.8940  145.3970 C   0  0  1  0  0  3  0  0  0  0  0  0
  187.7660  178.0970  142.1740 C   0  0  2  0  0  3  0  0  0  0  0  0
  185.4340  178.7320  142.8750 C   0  0  2  0  0  3  0  0  0  0  0  0
  186.7670  178.7810  145.2380 C   0  0  0  0  0  2  0  0  0  0  0  0
  186.5980  177.7340  143.0320 C   0  0  2  0  0  3  0  0  0  0  0  0
  190.0750  177.6010  142.1530 C   0  0  0  0  0  2  0  0  0  0  0  0
  187.1310  177.6170  144.4190 N   0  0  1  0  0  0  0  0  0  0  0  0
  184.4970  178.6700  144.0820 C   0  0  0  0  0  2  0  0  0  0  0  0
  187.9510  177.7450  140.4410 S   0  0  0  0  0  0  0  0  0  0  0  0
  190.0000  176.8010  147.5750 C   0  0  0  0  0  3  0  0  0  0  0  0
  191.2950  176.4270  147.2060 C   0  0  0  0  0  0  0  0  0  0  0  0
  191.6770  176.4640  145.8630 C   0  0  0  0  0  3  0  0  0  0  0  0
  189.0880  177.2140  146.5990 C   0  0  0  0  0  3  0  0  0  0  0  0
  192.1790  176.0270  148.1520 F   0  0  0  0  0  0  0  0  0  0  0  0
  189.4640  177.2600  145.2470 C   0  0  0  0  0  0  0  0  0  0  0  0
  190.7650  176.8760  144.8880 C   0  0  0  0  0  3  0  0  0  0  0  0
  190.5740  177.2510  139.7130 C   0  0  0  0  0  0  0  0  0  0  0  0
  191.8250  177.4090  139.9950 N   0  0  0  0  0  1  0  0  0  0  0  0
  190.1090  177.6470  138.4240 N   0  0  0  0  0  2  0  0  0  0  0  0
  184.7110  178.5500  141.6130 N   0  0  0  0  0  2  0  0  0  0  0  0
  183.2710  178.6810  141.8190 C   0  0  0  0  0  2  0  0  0  0  0  0
  182.5280  178.2480  140.5660 C   0  0  0  0  0  2  0  0  0  0  0  0
  183.4590  177.9240  138.4430 C   0  0  0  0  0  2  0  0  0  0  0  0
  182.6010  176.1270  139.5910 C   0  0  0  0  0  2  0  0  0  0  0  0
  183.3570  177.3540  139.7730 N   0  0  0  0  0  0  0  0  0  0  0  0
  183.2000  176.8040  137.4640 C   0  0  0  0  0  2  0  0  0  0  0  0
  182.8100  175.6390  138.2370 N   0  0  0  0  0  2  0  0  0  0  0  0
  1 21  1  6  0  0  0
  1 10  1  0  0  0  0
  2 11  1  0  0  0  0
  2 19  1  0  0  0  0
  4 10  1  6  0  0  0
  4  2  1  0  0  0  0
  5  3  1  1  0  0  0
  6 13  1  6  0  0  0
  6  4  1  0  0  0  0
  6  9  1  0  0  0  0
  7 24  1  6  0  0  0
  7  9  1  0  0  0  0
  7 12  1  0  0  0  0
  8  5  1  0  0  0  0
  9 11  1  0  0  0  0
 11  8  1  0  0  0  0
 12  5  1  0  0  0  0
 13  1  1  0  0  0  0
 15 14  1  0  0  0  0
 15 18  1  0  0  0  0
 16 15  2  0  0  0  0
 17 14  2  0  0  0  0
 19 17  1  0  0  0  0
 20 19  2  0  0  0  0
 20 16  1  0  0  0  0
 21 22  1  0  0  0  0
 23 21  2  0  0  0  0
 24 25  1  0  0  0  0
 26 25  1  0  0  0  0
 27 29  1  0  0  0  0
 28 29  1  0  0  0  0
 29 26  1  0  0  0  0
 30 31  1  0  0  0  0
 30 27  1  0  0  0  0
 31 28  1  0  0  0  0
M  END
>  <MODEL>
9

>  <REMARK>
 VINA RESULT:      -7.8      2.326      5.286
  Name = 
  6 active torsions:
  status: ('A' for Active; 'I' for Inactive)
    1  A    between atoms: C_1  and  C_3
    2  A    between atoms: N_4  and  C_16
    3  A    between atoms: N_4  and  C_28
    4  A    between atoms: N_6  and  C_24
    5  A    between atoms: C_11  and  N_14
    6  A    between atoms: C_11  and  C_28
                            x       y       z     vdW  Elec       q    Type
                         _______ _______ _______ _____ _____    ______ ____

>  <TORSDO>
F 6

$$$$
