=
 OpenBabel11042410423D

 38 40  0  0  1  0  0  0  0  0999 V2000
  185.0940  177.9750  143.2730 C   0  0  1  0  0  3  0  0  0  0  0  0
  187.3310  178.2410  141.9940 N   0  0  0  0  0  0  0  0  0  0  0  0
  185.2270  179.0630  145.6630 C   0  0  0  0  0  3  0  0  0  0  0  0
  187.3650  177.5340  144.1480 C   0  0  2  0  0  3  0  0  0  0  0  0
  188.8030  177.6010  143.7660 C   0  0  1  0  0  3  0  0  0  0  0  0
  186.5890  177.8950  143.1520 C   0  0  0  0  0  0  0  0  0  0  0  0
  188.7450  178.0770  142.3060 C   0  0  1  0  0  3  0  0  0  0  0  0
  184.6830  179.0250  144.2870 C   0  0  0  0  0  0  0  0  0  0  0  0
  186.1640  178.2610  146.1880 C   0  0  0  0  0  3  0  0  0  0  0  0
  186.8370  177.1180  145.4830 C   0  0  0  0  0  2  0  0  0  0  0  0
  183.8340  179.9040  143.9730 O   0  0  0  0  0  0  0  0  0  0  0  0
  189.3750  177.0610  141.3980 C   0  0  0  0  0  0  0  0  0  0  0  0
  189.5320  177.3360  139.9940 N   0  0  0  0  0  0  0  0  0  0  0  0
  189.8110  175.9810  141.8840 O   0  0  0  0  0  0  0  0  0  0  0  0
  190.2840  176.4300  139.1360 C   0  0  0  0  0  2  0  0  0  0  0  0
  191.7370  176.8580  139.0690 C   0  0  0  0  0  2  0  0  0  0  0  0
  192.2940  176.5250  137.6990 C   0  0  0  0  0  2  0  0  0  0  0  0
  194.4250  175.5480  138.1110 O   0  0  0  0  0  0  0  0  0  0  0  0
  191.4380  173.7700  137.1770 N   0  0  0  0  0  1  0  0  0  0  0  0
  192.7680  174.0350  137.5230 N   0  0  0  0  0  2  0  0  0  0  0  0
  193.2200  175.3600  137.7960 C   0  0  0  0  0  0  0  0  0  0  0  0
  189.0950  178.6040  139.4250 C   0  0  0  0  0  2  0  0  0  0  0  0
  188.8040  179.5950  137.2740 O   0  0  0  0  0  1  0  0  0  0  0  0
  188.6370  178.4090  137.9890 C   0  0  2  0  0  3  0  0  0  0  0  0
  186.3470  178.6800  138.5800 O   0  0  0  0  0  1  0  0  0  0  0  0
  187.2040  178.0010  137.9550 C   0  0  0  0  0  0  0  0  0  0  0  0
  186.8100  176.8570  137.2660 O   0  0  0  0  0  0  0  0  0  0  0  0
  184.4470  178.1590  141.9590 C   0  0  0  0  0  0  0  0  0  0  0  0
  183.9400  178.3030  140.9280 N   0  0  0  0  0  0  0  0  0  0  0  0
  189.5200  178.6400  144.6200 C   0  0  0  0  0  2  0  0  0  0  0  0
  190.9510  178.8450  144.1400 C   0  0  0  0  0  2  0  0  0  0  0  0
  191.6880  177.6270  144.2030 O   0  0  0  0  0  0  0  0  0  0  0  0
  192.0480  175.4570  145.3980 C   0  0  0  0  0  0  0  0  0  0  0  0
  191.6680  177.3560  146.5550 N   0  0  0  0  0  0  0  0  0  0  0  0
  192.2170  174.7260  144.3890 O   0  0  0  0  0  0  0  0  0  0  0  0
  191.8170  176.3090  147.5660 C   0  0  0  0  0  3  0  0  0  0  0  0
  192.0910  175.0020  146.8040 C   0  0  0  0  0  3  0  0  0  0  0  0
  191.7920  176.8670  145.3700 C   0  0  0  0  0  0  0  0  0  0  0  0
  1 28  1  6  0  0  0
  1  8  1  0  0  0  0
  2  7  1  0  0  0  0
  2  6  2  0  0  0  0
  3  9  2  0  0  0  0
  4 10  1  1  0  0  0
  5  4  1  0  0  0  0
  5 30  1  1  0  0  0
  6  1  1  0  0  0  0
  6  4  1  0  0  0  0
  7 12  1  6  0  0  0
  7  5  1  0  0  0  0
  8  3  1  0  0  0  0
 10  9  1  0  0  0  0
 11  8  2  0  0  0  0
 12 14  2  0  0  0  0
 13 12  1  0  0  0  0
 15 13  1  0  0  0  0
 16 15  1  0  0  0  0
 17 21  1  0  0  0  0
 17 16  1  0  0  0  0
 19 20  1  0  0  0  0
 20 21  1  0  0  0  0
 21 18  2  0  0  0  0
 22 13  1  0  0  0  0
 24 23  1  6  0  0  0
 24 22  1  0  0  0  0
 26 24  1  0  0  0  0
 26 25  1  0  0  0  0
 27 26  2  0  0  0  0
 29 28  3  0  0  0  0
 31 32  1  0  0  0  0
 31 30  1  0  0  0  0
 32 38  1  0  0  0  0
 33 37  1  0  0  0  0
 34 36  1  0  0  0  0
 35 33  2  0  0  0  0
 37 36  2  0  0  0  0
 38 33  1  0  0  0  0
 38 34  2  0  0  0  0
M  END
>  <MODEL>
1

>  <REMARK>
 VINA RESULT:      -8.3      0.000      0.000
  Name = 
  13 active torsions:
  status: ('A' for Active; 'I' for Inactive)
    1  A    between atoms: C_1  and  C_26
    2  A    between atoms: N_2  and  C_6
    3  A    between atoms: N_2  and  C_12
    4  A    between atoms: C_5  and  C_7
    5  A    between atoms: C_6  and  C_30
    6  A    between atoms: C_12  and  C_36
    7  A    between atoms: C_16  and  C_22
    8  A    between atoms: C_18  and  C_24
    9  A    between atoms: C_18  and  C_30
   10  A    between atoms: C_20  and  C_22
   11  A    between atoms: C_20  and  O_32
   12  A    between atoms: C_23  and  C_36
   13  A    between atoms: C_27  and  O_32
                            x       y       z     vdW  Elec       q    Type
                         _______ _______ _______ _____ _____    ______ ____

>  <TORSDO>
F 13

$$$$
=
 OpenBabel11042410423D

 38 40  0  0  1  0  0  0  0  0999 V2000
  185.1710  178.0110  143.2840 C   0  0  1  0  0  3  0  0  0  0  0  0
  187.2240  178.3090  141.7330 N   0  0  0  0  0  0  0  0  0  0  0  0
  185.5990  179.0780  145.6480 C   0  0  0  0  0  3  0  0  0  0  0  0
  187.5380  177.5830  143.8580 C   0  0  2  0  0  3  0  0  0  0  0  0
  188.9160  177.6680  143.2960 C   0  0  1  0  0  3  0  0  0  0  0  0
  186.6380  177.9460  142.9720 C   0  0  0  0  0  0  0  0  0  0  0  0
  188.6680  178.1560  141.8600 C   0  0  1  0  0  3  0  0  0  0  0  0
  184.8840  179.0470  144.3520 C   0  0  0  0  0  0  0  0  0  0  0  0
  186.6020  178.2800  146.0420 C   0  0  0  0  0  3  0  0  0  0  0  0
  187.1890  177.1510  145.2460 C   0  0  0  0  0  2  0  0  0  0  0  0
  183.9950  179.9210  144.1580 O   0  0  0  0  0  0  0  0  0  0  0  0
  189.1850  177.1540  140.8690 C   0  0  0  0  0  0  0  0  0  0  0  0
  188.9950  177.3600  139.4570 N   0  0  0  0  0  0  0  0  0  0  0  0
  189.8320  176.1520  141.2810 O   0  0  0  0  0  0  0  0  0  0  0  0
  189.6300  176.4820  138.4840 C   0  0  0  0  0  2  0  0  0  0  0  0
  190.8990  177.1190  137.9530 C   0  0  0  0  0  2  0  0  0  0  0  0
  192.1010  176.4090  138.5430 C   0  0  0  0  0  2  0  0  0  0  0  0
  191.9210  174.1590  137.7860 O   0  0  0  0  0  0  0  0  0  0  0  0
  194.2100  176.6310  136.5180 N   0  0  0  0  0  1  0  0  0  0  0  0
  193.5390  175.4150  136.6990 N   0  0  0  0  0  2  0  0  0  0  0  0
  192.5000  175.2700  137.6650 C   0  0  0  0  0  0  0  0  0  0  0  0
  188.3080  178.5440  138.9580 C   0  0  0  0  0  2  0  0  0  0  0  0
  187.7540  179.1830  136.7280 O   0  0  0  0  0  1  0  0  0  0  0  0
  187.5240  178.2090  137.6990 C   0  0  2  0  0  3  0  0  0  0  0  0
  185.5160  179.0690  138.6430 O   0  0  0  0  0  1  0  0  0  0  0  0
  186.0680  178.1360  138.0030 C   0  0  0  0  0  0  0  0  0  0  0  0
  185.3180  177.0300  137.6120 O   0  0  0  0  0  0  0  0  0  0  0  0
  184.3600  178.2000  142.0650 C   0  0  0  0  0  0  0  0  0  0  0  0
  183.7230  178.3490  141.1100 N   0  0  0  0  0  0  0  0  0  0  0  0
  189.7260  178.7050  144.0620 C   0  0  0  0  0  2  0  0  0  0  0  0
  191.2200  178.4300  143.9370 C   0  0  0  0  0  2  0  0  0  0  0  0
  191.5150  177.0740  144.2640 O   0  0  0  0  0  0  0  0  0  0  0  0
  192.1610  175.3300  145.9390 C   0  0  0  0  0  0  0  0  0  0  0  0
  191.4800  177.3720  146.6120 N   0  0  0  0  0  0  0  0  0  0  0  0
  192.4590  174.4130  145.1320 O   0  0  0  0  0  0  0  0  0  0  0  0
  191.7560  176.6290  147.8430 C   0  0  0  0  0  3  0  0  0  0  0  0
  192.2370  175.2350  147.4120 C   0  0  0  0  0  3  0  0  0  0  0  0
  191.7020  176.6390  145.5780 C   0  0  0  0  0  0  0  0  0  0  0  0
  1 28  1  6  0  0  0
  1  8  1  0  0  0  0
  2  7  1  0  0  0  0
  2  6  2  0  0  0  0
  3  9  2  0  0  0  0
  4 10  1  1  0  0  0
  5  4  1  0  0  0  0
  5 30  1  1  0  0  0
  6  1  1  0  0  0  0
  6  4  1  0  0  0  0
  7 12  1  6  0  0  0
  7  5  1  0  0  0  0
  8  3  1  0  0  0  0
 10  9  1  0  0  0  0
 11  8  2  0  0  0  0
 12 14  2  0  0  0  0
 13 12  1  0  0  0  0
 15 13  1  0  0  0  0
 16 15  1  0  0  0  0
 16 17  1  0  0  0  0
 19 20  1  0  0  0  0
 20 21  1  0  0  0  0
 21 18  2  0  0  0  0
 21 17  1  0  0  0  0
 22 13  1  0  0  0  0
 24 23  1  6  0  0  0
 24 26  1  0  0  0  0
 24 22  1  0  0  0  0
 26 25  1  0  0  0  0
 27 26  2  0  0  0  0
 29 28  3  0  0  0  0
 31 30  1  0  0  0  0
 31 32  1  0  0  0  0
 32 38  1  0  0  0  0
 33 37  1  0  0  0  0
 34 36  1  0  0  0  0
 35 33  2  0  0  0  0
 37 36  2  0  0  0  0
 38 33  1  0  0  0  0
 38 34  2  0  0  0  0
M  END
>  <MODEL>
2

>  <REMARK>
 VINA RESULT:      -8.0      1.000      1.098
  Name = 
  13 active torsions:
  status: ('A' for Active; 'I' for Inactive)
    1  A    between atoms: C_1  and  C_26
    2  A    between atoms: N_2  and  C_6
    3  A    between atoms: N_2  and  C_12
    4  A    between atoms: C_5  and  C_7
    5  A    between atoms: C_6  and  C_30
    6  A    between atoms: C_12  and  C_36
    7  A    between atoms: C_16  and  C_22
    8  A    between atoms: C_18  and  C_24
    9  A    between atoms: C_18  and  C_30
   10  A    between atoms: C_20  and  C_22
   11  A    between atoms: C_20  and  O_32
   12  A    between atoms: C_23  and  C_36
   13  A    between atoms: C_27  and  O_32
                            x       y       z     vdW  Elec       q    Type
                         _______ _______ _______ _____ _____    ______ ____

>  <TORSDO>
F 13

$$$$
=
 OpenBabel11042410423D

 38 40  0  0  1  0  0  0  0  0999 V2000
  185.3150  178.1920  142.9630 C   0  0  1  0  0  3  0  0  0  0  0  0
  187.6780  178.3200  141.9110 N   0  0  0  0  0  0  0  0  0  0  0  0
  185.3420  178.9950  145.4670 C   0  0  0  0  0  3  0  0  0  0  0  0
  187.4290  177.3880  143.9620 C   0  0  2  0  0  3  0  0  0  0  0  0
  188.8960  177.3220  143.7090 C   0  0  1  0  0  3  0  0  0  0  0  0
  186.7960  177.9450  142.9550 C   0  0  0  0  0  0  0  0  0  0  0  0
  189.0290  177.9540  142.3150 C   0  0  1  0  0  3  0  0  0  0  0  0
  184.9290  179.1700  144.0560 C   0  0  0  0  0  0  0  0  0  0  0  0
  186.1300  178.0340  145.9690 C   0  0  0  0  0  3  0  0  0  0  0  0
  186.7350  176.9000  145.1930 C   0  0  0  0  0  2  0  0  0  0  0  0
  184.2160  180.1730  143.7790 O   0  0  0  0  0  0  0  0  0  0  0  0
  189.6250  176.9720  141.3480 C   0  0  0  0  0  0  0  0  0  0  0  0
  189.6530  177.2620  139.9390 N   0  0  0  0  0  0  0  0  0  0  0  0
  190.1470  175.9100  141.7870 O   0  0  0  0  0  0  0  0  0  0  0  0
  190.3710  176.3940  139.0140 C   0  0  0  0  0  2  0  0  0  0  0  0
  191.8030  176.8670  138.8570 C   0  0  0  0  0  2  0  0  0  0  0  0
  192.6280  175.7630  138.2250 C   0  0  0  0  0  2  0  0  0  0  0  0
  194.1990  176.8850  136.8320 O   0  0  0  0  0  0  0  0  0  0  0  0
  191.2590  175.1370  135.7090 N   0  0  0  0  0  1  0  0  0  0  0  0
  192.4380  175.8920  135.6940 N   0  0  0  0  0  2  0  0  0  0  0  0
  193.1390  176.2080  136.8960 C   0  0  0  0  0  0  0  0  0  0  0  0
  189.1150  178.5120  139.4200 C   0  0  0  0  0  2  0  0  0  0  0  0
  188.9690  179.6120  137.3080 O   0  0  0  0  0  1  0  0  0  0  0  0
  188.8040  178.3780  137.9380 C   0  0  2  0  0  3  0  0  0  0  0  0
  187.1940  176.6890  137.4730 O   0  0  0  0  0  0  0  0  0  0  0  0
  187.4060  177.8990  137.7460 C   0  0  0  0  0  0  0  0  0  0  0  0
  186.3360  178.7850  137.8330 O   0  0  0  0  0  1  0  0  0  0  0  0
  184.8180  178.5920  141.6320 C   0  0  0  0  0  0  0  0  0  0  0  0
  184.4290  178.9050  140.5880 N   0  0  0  0  0  0  0  0  0  0  0  0
  189.6400  178.1690  144.7340 C   0  0  0  0  0  2  0  0  0  0  0  0
  190.9240  177.4820  145.1790 C   0  0  0  0  0  2  0  0  0  0  0  0
  190.9870  177.3930  146.6000 O   0  0  0  0  0  0  0  0  0  0  0  0
  189.2670  178.2450  148.2070 C   0  0  0  0  0  0  0  0  0  0  0  0
  189.2070  176.1080  147.4860 N   0  0  0  0  0  0  0  0  0  0  0  0
  189.6870  179.4260  148.3050 O   0  0  0  0  0  0  0  0  0  0  0  0
  188.0760  176.2400  148.4050 C   0  0  0  0  0  3  0  0  0  0  0  0
  188.0840  177.6940  148.9020 C   0  0  0  0  0  3  0  0  0  0  0  0
  189.8530  177.2180  147.3950 C   0  0  0  0  0  0  0  0  0  0  0  0
  1 28  1  6  0  0  0
  1  8  1  0  0  0  0
  2  7  1  0  0  0  0
  2  6  2  0  0  0  0
  3  9  2  0  0  0  0
  4 10  1  1  0  0  0
  5  4  1  0  0  0  0
  5 30  1  1  0  0  0
  6  1  1  0  0  0  0
  6  4  1  0  0  0  0
  7 12  1  6  0  0  0
  7  5  1  0  0  0  0
  8  3  1  0  0  0  0
 10  9  1  0  0  0  0
 11  8  2  0  0  0  0
 12 14  2  0  0  0  0
 13 12  1  0  0  0  0
 15 13  1  0  0  0  0
 16 15  1  0  0  0  0
 17 16  1  0  0  0  0
 18 21  2  0  0  0  0
 20 19  1  0  0  0  0
 20 21  1  0  0  0  0
 21 17  1  0  0  0  0
 22 13  1  0  0  0  0
 24 23  1  6  0  0  0
 24 22  1  0  0  0  0
 25 26  2  0  0  0  0
 26 27  1  0  0  0  0
 26 24  1  0  0  0  0
 29 28  3  0  0  0  0
 30 31  1  0  0  0  0
 31 32  1  0  0  0  0
 32 38  1  0  0  0  0
 33 35  2  0  0  0  0
 33 37  1  0  0  0  0
 34 36  1  0  0  0  0
 36 37  2  0  0  0  0
 38 34  2  0  0  0  0
 38 33  1  0  0  0  0
M  END
>  <MODEL>
3

>  <REMARK>
 VINA RESULT:      -7.1      1.607      2.088
  Name = 
  13 active torsions:
  status: ('A' for Active; 'I' for Inactive)
    1  A    between atoms: C_1  and  C_26
    2  A    between atoms: N_2  and  C_6
    3  A    between atoms: N_2  and  C_12
    4  A    between atoms: C_5  and  C_7
    5  A    between atoms: C_6  and  C_30
    6  A    between atoms: C_12  and  C_36
    7  A    between atoms: C_16  and  C_22
    8  A    between atoms: C_18  and  C_24
    9  A    between atoms: C_18  and  C_30
   10  A    between atoms: C_20  and  C_22
   11  A    between atoms: C_20  and  O_32
   12  A    between atoms: C_23  and  C_36
   13  A    between atoms: C_27  and  O_32
                            x       y       z     vdW  Elec       q    Type
                         _______ _______ _______ _____ _____    ______ ____

>  <TORSDO>
F 13

$$$$
=
 OpenBabel11042410423D

 38 40  0  0  1  0  0  0  0  0999 V2000
  185.3090  178.0570  144.0660 C   0  0  1  0  0  3  0  0  0  0  0  0
  186.0110  178.9270  141.7300 N   0  0  0  0  0  0  0  0  0  0  0  0
  187.3420  178.0600  145.7340 C   0  0  0  0  0  3  0  0  0  0  0  0
  187.3110  177.3930  142.7750 C   0  0  2  0  0  3  0  0  0  0  0  0
  188.0350  177.6760  141.5040 C   0  0  1  0  0  3  0  0  0  0  0  0
  186.2080  178.1000  142.8640 C   0  0  0  0  0  0  0  0  0  0  0  0
  187.1280  178.7110  140.8200 C   0  0  1  0  0  3  0  0  0  0  0  0
  186.0220  178.5720  145.3020 C   0  0  0  0  0  0  0  0  0  0  0  0
  188.1070  177.1540  145.1080 C   0  0  0  0  0  3  0  0  0  0  0  0
  187.7560  176.4380  143.8360 C   0  0  0  0  0  2  0  0  0  0  0  0
  185.4830  179.4630  146.0130 O   0  0  0  0  0  0  0  0  0  0  0  0
  186.6440  178.1930  139.4980 C   0  0  0  0  0  0  0  0  0  0  0  0
  185.2960  178.4470  139.0640 N   0  0  0  0  0  0  0  0  0  0  0  0
  187.4450  177.5720  138.7440 O   0  0  0  0  0  0  0  0  0  0  0  0
  184.8660  178.0900  137.7190 C   0  0  0  0  0  2  0  0  0  0  0  0
  184.3110  176.6790  137.7030 C   0  0  0  0  0  2  0  0  0  0  0  0
  184.7450  175.9840  136.4280 C   0  0  0  0  0  2  0  0  0  0  0  0
  185.8090  174.0990  137.4200 O   0  0  0  0  0  0  0  0  0  0  0  0
  187.4080  176.5720  135.3500 N   0  0  0  0  0  1  0  0  0  0  0  0
  187.2160  175.4490  136.1640 N   0  0  0  0  0  2  0  0  0  0  0  0
  185.9340  175.1230  136.6980 C   0  0  0  0  0  0  0  0  0  0  0  0
  184.3760  179.2170  139.8890 C   0  0  0  0  0  2  0  0  0  0  0  0
  183.1770  181.0080  138.8650 O   0  0  0  0  0  1  0  0  0  0  0  0
  183.1570  179.6300  139.0790 C   0  0  2  0  0  3  0  0  0  0  0  0
  180.9170  180.0270  139.7760 O   0  0  0  0  0  0  0  0  0  0  0  0
  181.9080  179.2520  139.7980 C   0  0  0  0  0  0  0  0  0  0  0  0
  181.8390  178.0640  140.5210 O   0  0  0  0  0  1  0  0  0  0  0  0
  184.0250  178.7400  143.8160 C   0  0  0  0  0  0  0  0  0  0  0  0
  183.0190  179.2770  143.6190 N   0  0  0  0  0  0  0  0  0  0  0  0
  189.3930  178.2970  141.8060 C   0  0  0  0  0  2  0  0  0  0  0  0
  190.5120  177.5130  141.1320 C   0  0  0  0  0  2  0  0  0  0  0  0
  191.6830  177.5000  141.9430 O   0  0  0  0  0  0  0  0  0  0  0  0
  191.6530  178.0730  144.3800 C   0  0  0  0  0  0  0  0  0  0  0  0
  191.6480  175.9200  143.7070 N   0  0  0  0  0  0  0  0  0  0  0  0
  191.6560  179.3250  144.2660 O   0  0  0  0  0  0  0  0  0  0  0  0
  191.6390  175.8700  145.1690 C   0  0  0  0  0  3  0  0  0  0  0  0
  191.6280  177.3270  145.6560 C   0  0  0  0  0  3  0  0  0  0  0  0
  191.6620  177.1390  143.2920 C   0  0  0  0  0  0  0  0  0  0  0  0
  1 28  1  6  0  0  0
  1  8  1  0  0  0  0
  2  6  2  0  0  0  0
  4  6  1  0  0  0  0
  4 10  1  1  0  0  0
  5 30  1  1  0  0  0
  5  4  1  0  0  0  0
  6  1  1  0  0  0  0
  7 12  1  6  0  0  0
  7  5  1  0  0  0  0
  7  2  1  0  0  0  0
  8  3  1  0  0  0  0
  8 11  2  0  0  0  0
  9  3  2  0  0  0  0
 10  9  1  0  0  0  0
 13 12  1  0  0  0  0
 13 22  1  0  0  0  0
 14 12  2  0  0  0  0
 15 13  1  0  0  0  0
 16 15  1  0  0  0  0
 17 21  1  0  0  0  0
 17 16  1  0  0  0  0
 19 20  1  0  0  0  0
 20 21  1  0  0  0  0
 21 18  2  0  0  0  0
 24 23  1  1  0  0  0
 24 26  1  0  0  0  0
 24 22  1  0  0  0  0
 25 26  2  0  0  0  0
 26 27  1  0  0  0  0
 29 28  3  0  0  0  0
 31 30  1  0  0  0  0
 31 32  1  0  0  0  0
 32 38  1  0  0  0  0
 33 37  1  0  0  0  0
 34 36  1  0  0  0  0
 35 33  2  0  0  0  0
 36 37  2  0  0  0  0
 38 34  2  0  0  0  0
 38 33  1  0  0  0  0
M  END
>  <MODEL>
4

>  <REMARK>
 VINA RESULT:      -6.9      2.601      4.365
  Name = 
  13 active torsions:
  status: ('A' for Active; 'I' for Inactive)
    1  A    between atoms: C_1  and  C_26
    2  A    between atoms: N_2  and  C_6
    3  A    between atoms: N_2  and  C_12
    4  A    between atoms: C_5  and  C_7
    5  A    between atoms: C_6  and  C_30
    6  A    between atoms: C_12  and  C_36
    7  A    between atoms: C_16  and  C_22
    8  A    between atoms: C_18  and  C_24
    9  A    between atoms: C_18  and  C_30
   10  A    between atoms: C_20  and  C_22
   11  A    between atoms: C_20  and  O_32
   12  A    between atoms: C_23  and  C_36
   13  A    between atoms: C_27  and  O_32
                            x       y       z     vdW  Elec       q    Type
                         _______ _______ _______ _____ _____    ______ ____

>  <TORSDO>
F 13

$$$$
=
 OpenBabel11042410423D

 38 40  0  0  1  0  0  0  0  0999 V2000
  186.2730  178.7250  145.7930 C   0  0  1  0  0  3  0  0  0  0  0  0
  187.2800  177.5090  143.7410 N   0  0  0  0  0  2  0  0  0  0  0  0
  183.6470  178.7800  145.6750 C   0  0  0  0  0  3  0  0  0  0  0  0
  185.6590  179.0610  143.4220 C   0  0  0  0  0  0  0  0  0  0  0  0
  185.9570  178.5600  142.0500 C   0  0  1  0  0  3  0  0  0  0  0  0
  186.4020  178.4580  144.3220 C   0  0  0  0  0  0  0  0  0  0  0  0
  187.0590  177.5190  142.3000 C   0  0  1  0  0  3  0  0  0  0  0  0
  184.9050  178.3200  146.3060 C   0  0  0  0  0  0  0  0  0  0  0  0
  183.5190  179.5360  144.5750 C   0  0  0  0  0  3  0  0  0  0  0  0
  184.6480  180.1070  143.7660 C   0  0  0  0  0  2  0  0  0  0  0  0
  184.8080  177.5730  147.3170 O   0  0  0  0  0  0  0  0  0  0  0  0
  188.3150  177.8980  141.5720 C   0  0  0  0  0  0  0  0  0  0  0  0
  189.5610  177.2470  141.8790 N   0  0  0  0  0  0  0  0  0  0  0  0
  188.2610  178.7600  140.6510 O   0  0  0  0  0  0  0  0  0  0  0  0
  190.7480  177.4910  141.0710 C   0  0  0  0  0  2  0  0  0  0  0  0
  190.7680  176.5590  139.8750 C   0  0  0  0  0  2  0  0  0  0  0  0
  190.7960  177.3790  138.6010 C   0  0  0  0  0  2  0  0  0  0  0  0
  190.1090  175.9750  136.8050 O   0  0  0  0  0  0  0  0  0  0  0  0
  193.5110  176.7650  137.6780 N   0  0  0  0  0  1  0  0  0  0  0  0
  192.4070  176.2100  137.0210 N   0  0  0  0  0  2  0  0  0  0  0  0
  191.0700  176.4940  137.4320 C   0  0  0  0  0  0  0  0  0  0  0  0
  189.6310  176.2040  142.8920 C   0  0  0  0  0  2  0  0  0  0  0  0
  191.3740  174.8800  143.8420 O   0  0  0  0  0  1  0  0  0  0  0  0
  191.0050  176.1910  143.5440 C   0  0  2  0  0  3  0  0  0  0  0  0
  191.4150  176.5060  145.8670 O   0  0  0  0  0  1  0  0  0  0  0  0
  190.9900  177.0050  144.7920 C   0  0  0  0  0  0  0  0  0  0  0  0
  190.4820  178.3010  144.7860 O   0  0  0  0  0  0  0  0  0  0  0  0
  187.3780  178.1170  146.5600 C   0  0  0  0  0  0  0  0  0  0  0  0
  188.2440  177.6400  147.1620 N   0  0  0  0  0  0  0  0  0  0  0  0
  184.7250  177.8800  141.4660 C   0  0  0  0  0  2  0  0  0  0  0  0
  184.1670  178.6790  140.2950 C   0  0  0  0  0  2  0  0  0  0  0  0
  185.1830  178.9490  139.3330 O   0  0  0  0  0  0  0  0  0  0  0  0
  186.5700  178.2050  137.3860 C   0  0  0  0  0  0  0  0  0  0  0  0
  184.5950  177.2110  137.8370 N   0  0  0  0  0  0  0  0  0  0  0  0
  187.5290  179.0040  137.5370 O   0  0  0  0  0  0  0  0  0  0  0  0
  185.1080  176.5350  136.6440 C   0  0  0  0  0  3  0  0  0  0  0  0
  186.4630  177.1840  136.3220 C   0  0  0  0  0  3  0  0  0  0  0  0
  185.4100  178.1290  138.2250 C   0  0  0  0  0  0  0  0  0  0  0  0
  1  8  1  0  0  0  0
  1 28  1  1  0  0  0
  2  6  1  0  0  0  0
  3  8  1  0  0  0  0
  4 10  1  0  0  0  0
  4  6  2  0  0  0  0
  5 30  1  1  0  0  0
  5  7  1  0  0  0  0
  5  4  1  0  0  0  0
  6  1  1  0  0  0  0
  7 12  1  6  0  0  0
  7  2  1  0  0  0  0
  8 11  2  0  0  0  0
  9  3  2  0  0  0  0
 10  9  1  0  0  0  0
 12 13  1  0  0  0  0
 13 22  1  0  0  0  0
 14 12  2  0  0  0  0
 15 13  1  0  0  0  0
 16 15  1  0  0  0  0
 17 16  1  0  0  0  0
 18 21  2  0  0  0  0
 20 21  1  0  0  0  0
 20 19  1  0  0  0  0
 21 17  1  0  0  0  0
 22 24  1  0  0  0  0
 24 23  1  1  0  0  0
 24 26  1  0  0  0  0
 26 25  1  0  0  0  0
 27 26  2  0  0  0  0
 28 29  3  0  0  0  0
 31 30  1  0  0  0  0
 32 31  1  0  0  0  0
 33 35  2  0  0  0  0
 33 38  1  0  0  0  0
 34 38  2  0  0  0  0
 36 34  1  0  0  0  0
 37 36  2  0  0  0  0
 37 33  1  0  0  0  0
 38 32  1  0  0  0  0
M  END
>  <MODEL>
5

>  <REMARK>
 VINA RESULT:      -6.8      2.108      6.236
  Name = 
  13 active torsions:
  status: ('A' for Active; 'I' for Inactive)
    1  A    between atoms: C_1  and  C_26
    2  A    between atoms: N_2  and  C_6
    3  A    between atoms: N_2  and  C_12
    4  A    between atoms: C_5  and  C_7
    5  A    between atoms: C_6  and  C_30
    6  A    between atoms: C_12  and  C_36
    7  A    between atoms: C_16  and  C_22
    8  A    between atoms: C_18  and  C_24
    9  A    between atoms: C_18  and  C_30
   10  A    between atoms: C_20  and  C_22
   11  A    between atoms: C_20  and  O_32
   12  A    between atoms: C_23  and  C_36
   13  A    between atoms: C_27  and  O_32
                            x       y       z     vdW  Elec       q    Type
                         _______ _______ _______ _____ _____    ______ ____

>  <TORSDO>
F 13

$$$$
=
 OpenBabel11042410423D

 38 40  0  0  1  0  0  0  0  0999 V2000
  188.4190  178.2790  139.0210 C   0  0  1  0  0  3  0  0  0  0  0  0
  185.8300  178.2480  138.9340 N   0  0  0  0  0  0  0  0  0  0  0  0
  189.3140  177.0720  141.1800 C   0  0  0  0  0  3  0  0  0  0  0  0
  186.8650  178.8350  140.8640 C   0  0  2  0  0  3  0  0  0  0  0  0
  185.4150  178.8940  141.1980 C   0  0  1  0  0  3  0  0  0  0  0  0
  187.0530  178.4750  139.6150 C   0  0  0  0  0  0  0  0  0  0  0  0
  184.7440  178.4980  139.8730 C   0  0  1  0  0  3  0  0  0  0  0  0
  189.1570  177.1470  139.7090 C   0  0  0  0  0  0  0  0  0  0  0  0
  188.8060  177.9100  142.0940 C   0  0  0  0  0  3  0  0  0  0  0  0
  187.9890  179.1360  141.8030 C   0  0  0  0  0  2  0  0  0  0  0  0
  189.6800  176.2280  139.0220 O   0  0  0  0  0  0  0  0  0  0  0  0
  183.8600  179.6050  139.3810 C   0  0  0  0  0  0  0  0  0  0  0  0
  182.4320  179.5260  139.5430 N   0  0  0  0  0  0  0  0  0  0  0  0
  184.3820  180.6330  138.8650 O   0  0  0  0  0  0  0  0  0  0  0  0
  181.5800  180.6620  139.2170 C   0  0  0  0  0  2  0  0  0  0  0  0
  181.3660  180.7430  137.7180 C   0  0  0  0  0  2  0  0  0  0  0  0
  180.2580  181.7340  137.4230 C   0  0  0  0  0  2  0  0  0  0  0  0
  180.1980  181.8420  135.0460 O   0  0  0  0  0  0  0  0  0  0  0  0
  181.5080  184.3800  137.2370 N   0  0  0  0  0  1  0  0  0  0  0  0
  181.1390  183.6980  136.0720 N   0  0  0  0  0  2  0  0  0  0  0  0
  180.5180  182.4140  136.1210 C   0  0  0  0  0  0  0  0  0  0  0  0
  181.8150  178.3790  140.1950 C   0  0  0  0  0  2  0  0  0  0  0  0
  181.7630  178.9050  142.5210 O   0  0  0  0  0  1  0  0  0  0  0  0
  180.9710  178.8320  141.3750 C   0  0  2  0  0  3  0  0  0  0  0  0
  179.3890  177.7200  142.7640 O   0  0  0  0  0  1  0  0  0  0  0  0
  179.8470  177.8800  141.6010 C   0  0  0  0  0  0  0  0  0  0  0  0
  179.3210  177.1420  140.5450 O   0  0  0  0  0  0  0  0  0  0  0  0
  188.3620  178.1210  137.5550 C   0  0  0  0  0  0  0  0  0  0  0  0
  188.3180  177.9980  136.4050 N   0  0  0  0  0  0  0  0  0  0  0  0
  185.0870  177.8650  142.2720 C   0  0  0  0  0  2  0  0  0  0  0  0
  185.4350  178.3950  143.6580 C   0  0  0  0  0  2  0  0  0  0  0  0
  186.0360  177.3770  144.4540 O   0  0  0  0  0  0  0  0  0  0  0  0
  186.2290  178.2540  146.7910 C   0  0  0  0  0  0  0  0  0  0  0  0
  188.0320  177.4130  145.7280 N   0  0  0  0  0  0  0  0  0  0  0  0
  185.0280  178.5920  146.9520 O   0  0  0  0  0  0  0  0  0  0  0  0
  188.5170  177.8320  147.0430 C   0  0  0  0  0  3  0  0  0  0  0  0
  187.3030  178.3980  147.7970 C   0  0  0  0  0  3  0  0  0  0  0  0
  186.7740  177.6590  145.6060 C   0  0  0  0  0  0  0  0  0  0  0  0
  1 28  1  6  0  0  0
  1  6  1  0  0  0  0
  1  8  1  0  0  0  0
  2  6  2  0  0  0  0
  2  7  1  0  0  0  0
  3  9  2  0  0  0  0
  4  5  1  0  0  0  0
  4 10  1  1  0  0  0
  5 30  1  1  0  0  0
  6  4  1  0  0  0  0
  7 12  1  6  0  0  0
  7  5  1  0  0  0  0
  8  3  1  0  0  0  0
 10  9  1  0  0  0  0
 11  8  2  0  0  0  0
 12 13  1  0  0  0  0
 13 22  1  0  0  0  0
 14 12  2  0  0  0  0
 15 13  1  0  0  0  0
 16 15  1  0  0  0  0
 17 16  1  0  0  0  0
 18 21  2  0  0  0  0
 20 21  1  0  0  0  0
 20 19  1  0  0  0  0
 21 17  1  0  0  0  0
 22 24  1  0  0  0  0
 24 26  1  0  0  0  0
 24 23  1  1  0  0  0
 26 25  1  0  0  0  0
 27 26  2  0  0  0  0
 29 28  3  0  0  0  0
 30 31  1  0  0  0  0
 31 32  1  0  0  0  0
 32 38  1  0  0  0  0
 33 35  2  0  0  0  0
 33 37  1  0  0  0  0
 34 36  1  0  0  0  0
 36 37  2  0  0  0  0
 38 34  2  0  0  0  0
 38 33  1  0  0  0  0
M  END
>  <MODEL>
6

>  <REMARK>
 VINA RESULT:      -6.7      3.948      8.166
  Name = 
  13 active torsions:
  status: ('A' for Active; 'I' for Inactive)
    1  A    between atoms: C_1  and  C_26
    2  A    between atoms: N_2  and  C_6
    3  A    between atoms: N_2  and  C_12
    4  A    between atoms: C_5  and  C_7
    5  A    between atoms: C_6  and  C_30
    6  A    between atoms: C_12  and  C_36
    7  A    between atoms: C_16  and  C_22
    8  A    between atoms: C_18  and  C_24
    9  A    between atoms: C_18  and  C_30
   10  A    between atoms: C_20  and  C_22
   11  A    between atoms: C_20  and  O_32
   12  A    between atoms: C_23  and  C_36
   13  A    between atoms: C_27  and  O_32
                            x       y       z     vdW  Elec       q    Type
                         _______ _______ _______ _____ _____    ______ ____

>  <TORSDO>
F 13

$$$$
=
 OpenBabel11042410423D

 38 40  0  0  1  0  0  0  0  0999 V2000
  185.1710  178.0960  144.7810 C   0  0  1  0  0  3  0  0  0  0  0  0
  185.2050  179.2170  142.4460 N   0  0  0  0  0  0  0  0  0  0  0  0
  187.5970  177.8880  145.7730 C   0  0  0  0  0  3  0  0  0  0  0  0
  186.6840  177.5600  142.8990 C   0  0  2  0  0  3  0  0  0  0  0  0
  187.0210  177.9770  141.5090 C   0  0  1  0  0  3  0  0  0  0  0  0
  185.6850  178.2640  143.3800 C   0  0  0  0  0  0  0  0  0  0  0  0
  186.0010  179.0930  141.2320 C   0  0  1  0  0  3  0  0  0  0  0  0
  186.2320  178.4610  145.8010 C   0  0  0  0  0  0  0  0  0  0  0  0
  188.1090  177.0510  144.8600 C   0  0  0  0  0  3  0  0  0  0  0  0
  187.3740  176.4870  143.6780 C   0  0  0  0  0  2  0  0  0  0  0  0
  185.9610  179.2720  146.7280 O   0  0  0  0  0  0  0  0  0  0  0  0
  185.1340  178.7320  140.0620 C   0  0  0  0  0  0  0  0  0  0  0  0
  185.7230  178.2820  138.8280 N   0  0  0  0  0  0  0  0  0  0  0  0
  183.8780  178.7800  140.1830 O   0  0  0  0  0  0  0  0  0  0  0  0
  184.8900  177.7770  137.7450 C   0  0  0  0  0  2  0  0  0  0  0  0
  184.3570  176.4010  138.0920 C   0  0  0  0  0  2  0  0  0  0  0  0
  184.5570  175.4730  136.9110 C   0  0  0  0  0  2  0  0  0  0  0  0
  184.4350  173.2540  137.7640 O   0  0  0  0  0  0  0  0  0  0  0  0
  181.8120  174.9810  136.0040 N   0  0  0  0  0  1  0  0  0  0  0  0
  182.5140  173.9790  136.6840 N   0  0  0  0  0  2  0  0  0  0  0  0
  183.8470  174.1840  137.1510 C   0  0  0  0  0  0  0  0  0  0  0  0
  187.1680  178.1570  138.6900 C   0  0  0  0  0  2  0  0  0  0  0  0
  187.9030  176.3600  137.3040 O   0  0  0  0  0  1  0  0  0  0  0  0
  187.5270  177.7030  137.2840 C   0  0  2  0  0  3  0  0  0  0  0  0
  188.8650  179.6700  137.2280 O   0  0  0  0  0  1  0  0  0  0  0  0
  188.6430  178.5280  136.7440 C   0  0  0  0  0  0  0  0  0  0  0  0
  189.4220  178.0630  135.6890 O   0  0  0  0  0  0  0  0  0  0  0  0
  183.9000  178.8170  144.9890 C   0  0  0  0  0  0  0  0  0  0  0  0
  182.9030  179.3820  145.1530 N   0  0  0  0  0  0  0  0  0  0  0  0
  188.4340  178.5450  141.4650 C   0  0  0  0  0  2  0  0  0  0  0  0
  189.4370  177.4770  141.0480 C   0  0  0  0  0  2  0  0  0  0  0  0
  190.7220  177.7400  141.6060 O   0  0  0  0  0  0  0  0  0  0  0  0
  191.2360  178.2330  144.0060 C   0  0  0  0  0  0  0  0  0  0  0  0
  191.3110  176.1180  143.2260 N   0  0  0  0  0  0  0  0  0  0  0  0
  191.0660  179.4790  143.9700 O   0  0  0  0  0  0  0  0  0  0  0  0
  191.6740  176.0240  144.6410 C   0  0  0  0  0  3  0  0  0  0  0  0
  191.6170  177.4530  145.2020 C   0  0  0  0  0  3  0  0  0  0  0  0
  191.0800  177.3400  142.8950 C   0  0  0  0  0  0  0  0  0  0  0  0
  1 28  1  6  0  0  0
  1  8  1  0  0  0  0
  2  6  2  0  0  0  0
  3  8  1  0  0  0  0
  4  6  1  0  0  0  0
  4 10  1  1  0  0  0
  5 30  1  1  0  0  0
  5  4  1  0  0  0  0
  6  1  1  0  0  0  0
  7 12  1  6  0  0  0
  7  5  1  0  0  0  0
  7  2  1  0  0  0  0
  8 11  2  0  0  0  0
  9  3  2  0  0  0  0
 10  9  1  0  0  0  0
 12 14  2  0  0  0  0
 13 12  1  0  0  0  0
 15 16  1  0  0  0  0
 15 13  1  0  0  0  0
 17 21  1  0  0  0  0
 17 16  1  0  0  0  0
 19 20  1  0  0  0  0
 20 21  1  0  0  0  0
 21 18  2  0  0  0  0
 22 13  1  0  0  0  0
 24 23  1  1  0  0  0
 24 22  1  0  0  0  0
 26 25  1  0  0  0  0
 26 24  1  0  0  0  0
 27 26  2  0  0  0  0
 28 29  3  0  0  0  0
 31 30  1  0  0  0  0
 31 32  1  0  0  0  0
 32 38  1  0  0  0  0
 33 37  1  0  0  0  0
 34 36  1  0  0  0  0
 35 33  2  0  0  0  0
 36 37  2  0  0  0  0
 38 34  2  0  0  0  0
 38 33  1  0  0  0  0
M  END
>  <MODEL>
7

>  <REMARK>
 VINA RESULT:      -6.6      2.808      4.790
  Name = 
  13 active torsions:
  status: ('A' for Active; 'I' for Inactive)
    1  A    between atoms: C_1  and  C_26
    2  A    between atoms: N_2  and  C_6
    3  A    between atoms: N_2  and  C_12
    4  A    between atoms: C_5  and  C_7
    5  A    between atoms: C_6  and  C_30
    6  A    between atoms: C_12  and  C_36
    7  A    between atoms: C_16  and  C_22
    8  A    between atoms: C_18  and  C_24
    9  A    between atoms: C_18  and  C_30
   10  A    between atoms: C_20  and  C_22
   11  A    between atoms: C_20  and  O_32
   12  A    between atoms: C_23  and  C_36
   13  A    between atoms: C_27  and  O_32
                            x       y       z     vdW  Elec       q    Type
                         _______ _______ _______ _____ _____    ______ ____

>  <TORSDO>
F 13

$$$$
=
 OpenBabel11042410423D

 38 40  0  0  1  0  0  0  0  0999 V2000
  191.4800  176.4570  144.5410 C   0  0  1  0  0  3  0  0  0  0  0  0
  190.5290  175.9810  142.1790 N   0  0  0  0  0  0  0  0  0  0  0  0
  189.8080  177.8990  145.9690 C   0  0  0  0  0  3  0  0  0  0  0  0
  190.4330  178.0900  143.0070 C   0  0  2  0  0  3  0  0  0  0  0  0
  189.7720  178.1920  141.6750 C   0  0  1  0  0  3  0  0  0  0  0  0
  190.8320  176.8620  143.2490 C   0  0  0  0  0  0  0  0  0  0  0  0
  189.8580  176.7530  141.1410 C   0  0  1  0  0  3  0  0  0  0  0  0
  190.5290  176.6320  145.7090 C   0  0  0  0  0  0  0  0  0  0  0  0
  189.8290  179.0130  145.2240 C   0  0  0  0  0  3  0  0  0  0  0  0
  190.6300  179.2160  143.9700 C   0  0  0  0  0  2  0  0  0  0  0  0
  190.3390  175.6800  146.5130 O   0  0  0  0  0  0  0  0  0  0  0  0
  190.6400  176.7150  139.8610 C   0  0  0  0  0  0  0  0  0  0  0  0
  189.9610  176.6920  138.5920 N   0  0  0  0  0  0  0  0  0  0  0  0
  191.9010  176.7520  139.9030 O   0  0  0  0  0  0  0  0  0  0  0  0
  190.7050  176.8170  137.3460 C   0  0  0  0  0  2  0  0  0  0  0  0
  190.8770  175.4570  136.7000 C   0  0  0  0  0  2  0  0  0  0  0  0
  192.2280  175.3950  136.0160 C   0  0  0  0  0  2  0  0  0  0  0  0
  193.1690  174.3050  137.9120 O   0  0  0  0  0  0  0  0  0  0  0  0
  194.6800  177.0030  136.0690 N   0  0  0  0  0  1  0  0  0  0  0  0
  194.4770  176.0050  137.0300 N   0  0  0  0  0  2  0  0  0  0  0  0
  193.3030  175.1940  137.0310 C   0  0  0  0  0  0  0  0  0  0  0  0
  188.5060  176.7150  138.5200 C   0  0  0  0  0  2  0  0  0  0  0  0
  188.4850  179.0940  138.3480 O   0  0  0  0  0  1  0  0  0  0  0  0
  188.0350  177.9260  137.7320 C   0  0  2  0  0  3  0  0  0  0  0  0
  185.9580  177.1760  136.8450 O   0  0  0  0  0  0  0  0  0  0  0  0
  186.5480  177.9430  137.6510 C   0  0  0  0  0  0  0  0  0  0  0  0
  185.8050  178.8210  138.4350 O   0  0  0  0  0  1  0  0  0  0  0  0
  192.0540  175.0990  144.4650 C   0  0  0  0  0  0  0  0  0  0  0  0
  192.5040  174.0350  144.4060 N   0  0  0  0  0  0  0  0  0  0  0  0
  188.3120  178.5920  141.8490 C   0  0  0  0  0  2  0  0  0  0  0  0
  187.5290  177.4980  142.5630 C   0  0  0  0  0  2  0  0  0  0  0  0
  186.9290  177.9960  143.7550 O   0  0  0  0  0  0  0  0  0  0  0  0
  184.9180  178.7580  145.0370 C   0  0  0  0  0  0  0  0  0  0  0  0
  184.7590  178.2520  142.8450 N   0  0  0  0  0  0  0  0  0  0  0  0
  185.4720  178.9180  146.1550 O   0  0  0  0  0  0  0  0  0  0  0  0
  183.4080  178.6390  143.2540 C   0  0  0  0  0  3  0  0  0  0  0  0
  183.4900  179.0030  144.7440 C   0  0  0  0  0  3  0  0  0  0  0  0
  185.5730  178.3170  143.8400 C   0  0  0  0  0  0  0  0  0  0  0  0
  1 28  1  6  0  0  0
  1  8  1  0  0  0  0
  2  6  2  0  0  0  0
  4  6  1  0  0  0  0
  4 10  1  1  0  0  0
  5 30  1  1  0  0  0
  5  4  1  0  0  0  0
  6  1  1  0  0  0  0
  7 12  1  6  0  0  0
  7  5  1  0  0  0  0
  7  2  1  0  0  0  0
  8  3  1  0  0  0  0
  8 11  2  0  0  0  0
  9  3  2  0  0  0  0
 10  9  1  0  0  0  0
 12 14  2  0  0  0  0
 13 12  1  0  0  0  0
 15 13  1  0  0  0  0
 16 15  1  0  0  0  0
 17 16  1  0  0  0  0
 17 21  1  0  0  0  0
 19 20  1  0  0  0  0
 20 21  1  0  0  0  0
 21 18  2  0  0  0  0
 22 13  1  0  0  0  0
 24 23  1  1  0  0  0
 24 22  1  0  0  0  0
 25 26  2  0  0  0  0
 26 24  1  0  0  0  0
 26 27  1  0  0  0  0
 29 28  3  0  0  0  0
 30 31  1  0  0  0  0
 31 32  1  0  0  0  0
 32 38  1  0  0  0  0
 33 35  2  0  0  0  0
 34 36  1  0  0  0  0
 34 38  2  0  0  0  0
 36 37  2  0  0  0  0
 37 33  1  0  0  0  0
 38 33  1  0  0  0  0
M  END
>  <MODEL>
8

>  <REMARK>
 VINA RESULT:      -6.5      1.923      5.126
  Name = 
  13 active torsions:
  status: ('A' for Active; 'I' for Inactive)
    1  A    between atoms: C_1  and  C_26
    2  A    between atoms: N_2  and  C_6
    3  A    between atoms: N_2  and  C_12
    4  A    between atoms: C_5  and  C_7
    5  A    between atoms: C_6  and  C_30
    6  A    between atoms: C_12  and  C_36
    7  A    between atoms: C_16  and  C_22
    8  A    between atoms: C_18  and  C_24
    9  A    between atoms: C_18  and  C_30
   10  A    between atoms: C_20  and  C_22
   11  A    between atoms: C_20  and  O_32
   12  A    between atoms: C_23  and  C_36
   13  A    between atoms: C_27  and  O_32
                            x       y       z     vdW  Elec       q    Type
                         _______ _______ _______ _____ _____    ______ ____

>  <TORSDO>
F 13

$$$$
=
 OpenBabel11042410423D

 38 40  0  0  1  0  0  0  0  0999 V2000
  186.4350  178.6790  145.9180 C   0  0  1  0  0  3  0  0  0  0  0  0
  187.3910  177.4730  143.8350 N   0  0  0  0  0  2  0  0  0  0  0  0
  183.8050  178.6450  145.9160 C   0  0  0  0  0  3  0  0  0  0  0  0
  185.7050  178.9650  143.5730 C   0  0  0  0  0  0  0  0  0  0  0  0
  185.9590  178.4580  142.1940 C   0  0  1  0  0  3  0  0  0  0  0  0
  186.5070  178.3990  144.4450 C   0  0  0  0  0  0  0  0  0  0  0  0
  187.1060  177.4580  142.4060 C   0  0  1  0  0  3  0  0  0  0  0  0
  185.1050  178.2340  146.4950 C   0  0  0  0  0  0  0  0  0  0  0  0
  183.6040  179.3820  144.8150 C   0  0  0  0  0  3  0  0  0  0  0  0
  184.6760  179.9810  143.9510 C   0  0  0  0  0  2  0  0  0  0  0  0
  185.0780  177.4960  147.5170 O   0  0  0  0  0  0  0  0  0  0  0  0
  188.3150  177.8700  141.6190 C   0  0  0  0  0  0  0  0  0  0  0  0
  189.6060  177.3080  141.9160 N   0  0  0  0  0  0  0  0  0  0  0  0
  188.1830  178.6790  140.6590 O   0  0  0  0  0  0  0  0  0  0  0  0
  190.7520  177.5770  141.0580 C   0  0  0  0  0  2  0  0  0  0  0  0
  190.8030  176.5730  139.9220 C   0  0  0  0  0  2  0  0  0  0  0  0
  190.8220  177.3140  138.6000 C   0  0  0  0  0  2  0  0  0  0  0  0
  189.2820  175.7810  137.6260 O   0  0  0  0  0  0  0  0  0  0  0  0
  189.0790  179.3710  137.4490 N   0  0  0  0  0  1  0  0  0  0  0  0
  188.7790  178.0160  137.2620 N   0  0  0  0  0  2  0  0  0  0  0  0
  189.5960  176.9860  137.8160 C   0  0  0  0  0  0  0  0  0  0  0  0
  189.7680  176.3230  142.9770 C   0  0  0  0  0  2  0  0  0  0  0  0
  191.6090  175.1660  143.9590 O   0  0  0  0  0  1  0  0  0  0  0  0
  191.1530  176.4320  143.5930 C   0  0  2  0  0  3  0  0  0  0  0  0
  191.6180  176.9210  145.8750 O   0  0  0  0  0  1  0  0  0  0  0  0
  191.1160  177.3180  144.7910 C   0  0  0  0  0  0  0  0  0  0  0  0
  190.5030  178.5660  144.7290 O   0  0  0  0  0  0  0  0  0  0  0  0
  187.5930  178.1170  146.6410 C   0  0  0  0  0  0  0  0  0  0  0  0
  188.5000  177.6750  147.2070 N   0  0  0  0  0  0  0  0  0  0  0  0
  184.7270  177.7310  141.6720 C   0  0  0  0  0  2  0  0  0  0  0  0
  184.1060  178.4830  140.5020 C   0  0  0  0  0  2  0  0  0  0  0  0
  182.9380  179.1880  140.9120 O   0  0  0  0  0  0  0  0  0  0  0  0
  180.7170  178.9270  142.0360 C   0  0  0  0  0  0  0  0  0  0  0  0
  181.2870  177.6060  140.2980 N   0  0  0  0  0  0  0  0  0  0  0  0
  180.8460  179.8370  142.8950 O   0  0  0  0  0  0  0  0  0  0  0  0
  179.9490  177.1660  140.6990 C   0  0  0  0  0  3  0  0  0  0  0  0
  179.5290  178.0610  141.8760 C   0  0  0  0  0  3  0  0  0  0  0  0
  181.6930  178.5700  141.0490 C   0  0  0  0  0  0  0  0  0  0  0  0
  1  8  1  0  0  0  0
  1 28  1  1  0  0  0
  2  6  1  0  0  0  0
  3  8  1  0  0  0  0
  4 10  1  0  0  0  0
  4  6  2  0  0  0  0
  5 30  1  1  0  0  0
  5  7  1  0  0  0  0
  5  4  1  0  0  0  0
  6  1  1  0  0  0  0
  7 12  1  6  0  0  0
  7  2  1  0  0  0  0
  8 11  2  0  0  0  0
  9  3  2  0  0  0  0
 10  9  1  0  0  0  0
 12 13  1  0  0  0  0
 13 22  1  0  0  0  0
 14 12  2  0  0  0  0
 15 13  1  0  0  0  0
 16 15  1  0  0  0  0
 17 16  1  0  0  0  0
 18 21  2  0  0  0  0
 20 19  1  0  0  0  0
 20 21  1  0  0  0  0
 21 17  1  0  0  0  0
 22 24  1  0  0  0  0
 24 23  1  1  0  0  0
 24 26  1  0  0  0  0
 26 25  1  0  0  0  0
 27 26  2  0  0  0  0
 28 29  3  0  0  0  0
 31 32  1  0  0  0  0
 31 30  1  0  0  0  0
 32 38  1  0  0  0  0
 33 35  2  0  0  0  0
 34 36  1  0  0  0  0
 34 38  2  0  0  0  0
 36 37  2  0  0  0  0
 37 33  1  0  0  0  0
 38 33  1  0  0  0  0
M  END
>  <MODEL>
9

>  <REMARK>
 VINA RESULT:      -6.5      2.504      6.906
  Name = 
  13 active torsions:
  status: ('A' for Active; 'I' for Inactive)
    1  A    between atoms: C_1  and  C_26
    2  A    between atoms: N_2  and  C_6
    3  A    between atoms: N_2  and  C_12
    4  A    between atoms: C_5  and  C_7
    5  A    between atoms: C_6  and  C_30
    6  A    between atoms: C_12  and  C_36
    7  A    between atoms: C_16  and  C_22
    8  A    between atoms: C_18  and  C_24
    9  A    between atoms: C_18  and  C_30
   10  A    between atoms: C_20  and  C_22
   11  A    between atoms: C_20  and  O_32
   12  A    between atoms: C_23  and  C_36
   13  A    between atoms: C_27  and  O_32
                            x       y       z     vdW  Elec       q    Type
                         _______ _______ _______ _____ _____    ______ ____

>  <TORSDO>
F 13

$$$$
