=
 OpenBabel11042410003D

 38 43  0  0  1  0  0  0  0  0999 V2000
  189.3360  178.2460  139.0980 C   0  0  0  0  0  2  0  0  0  0  0  0
  182.4430  176.6550  137.5740 O   0  0  0  0  0  1  0  0  0  0  0  0
  189.4780  177.3800  135.5990 C   0  0  0  0  0  2  0  0  0  0  0  0
  190.0480  176.1880  138.0480 N   0  0  2  0  0  0  0  0  0  0  0  0
  187.7120  178.0750  137.2570 N   0  0  0  0  0  0  0  0  0  0  0  0
  188.5230  178.9970  138.0490 C   0  0  0  0  0  2  0  0  0  0  0  0
  188.0930  177.3610  136.1710 C   0  0  0  0  0  0  0  0  0  0  0  0
  184.6800  174.7850  136.8380 C   0  0  0  0  0  1  0  0  0  0  0  0
  184.6160  176.2750  136.5480 C   0  0  2  0  0  3  0  0  0  0  0  0
  185.9990  176.8510  136.5430 C   0  0  0  0  0  0  0  0  0  0  0  0
  187.0510  176.5780  135.6840 C   0  0  0  0  0  3  0  0  0  0  0  0
  185.5540  178.2580  138.5340 C   0  0  0  0  0  3  0  0  0  0  0  0
  190.0670  176.0410  135.6280 N   0  0  0  0  0  0  0  0  0  0  0  0
  183.7660  176.9400  137.5540 N   0  0  0  0  0  0  0  0  0  0  0  0
  190.8340  175.8090  136.8720 C   0  0  2  0  0  3  0  0  0  0  0  0
  190.4980  177.5360  138.4320 C   0  0  2  0  0  3  0  0  0  0  0  0
  184.2800  177.8560  138.5460 C   0  0  0  0  0  3  0  0  0  0  0  0
  190.9410  176.3870  139.2050 C   0  0  0  0  0  2  0  0  0  0  0  0
  186.4300  177.7490  137.4790 C   0  0  0  0  0  0  0  0  0  0  0  0
  190.9510  176.0260  134.6020 O   0  0  0  0  0  1  0  0  0  0  0  0
  192.7310  174.0070  136.6710 C   0  0  2  0  0  3  0  0  0  0  0  0
  190.6400  172.5570  135.3440 C   0  0  0  0  0  3  0  0  0  0  0  0
  192.0650  172.4080  134.8920 C   0  0  0  0  0  2  0  0  0  0  0  0
  188.9380  173.3880  136.7230 O   0  0  0  0  0  1  0  0  0  0  0  0
  192.8820  173.6580  135.1900 C   0  0  0  0  0  2  0  0  0  0  0  0
  190.2700  173.3770  136.3320 C   0  0  0  0  0  0  0  0  0  0  0  0
  191.2500  174.3200  137.0060 C   0  0  2  0  0  3  0  0  0  0  0  0
  194.9760  174.4750  137.6510 C   0  0  0  0  0  0  0  0  0  0  0  0
  193.7160  175.0900  137.1420 C   0  0  1  0  0  3  0  0  0  0  0  0
  194.2200  175.9400  135.9610 C   0  0  0  0  0  2  0  0  0  0  0  0
  195.0440  173.7270  138.6610 O   0  0  0  0  0  0  0  0  0  0  0  0
  196.1140  174.8780  136.8480 C   0  0  0  0  0  0  0  0  0  0  0  0
  195.6970  175.7080  135.9000 C   0  0  0  0  0  0  0  0  0  0  0  0
  197.4650  174.4290  137.0540 N   0  0  0  0  0  0  0  0  0  0  0  0
  198.3720  175.1960  137.7470 O   0  0  0  0  0  0  0  0  0  0  0  0
  197.8480  173.3500  136.5580 O   0  0  0  0  0  0  0  0  0  0  0  0
  196.5560  176.3640  134.8710 C   0  0  0  0  0  2  0  0  0  0  0  0
  196.5560  177.7340  135.0620 F   0  0  0  0  0  0  0  0  0  0  0  0
  3 13  1  0  0  0  0
  3  7  1  0  0  0  0
  4 16  1  0  0  0  0
  4 18  1  1  0  0  0
  5 19  1  0  0  0  0
  5  6  1  0  0  0  0
  6  1  1  0  0  0  0
  7  5  1  0  0  0  0
  9  8  1  1  0  0  0
  9 14  1  0  0  0  0
 10  9  1  0  0  0  0
 10 19  2  0  0  0  0
 11  7  2  0  0  0  0
 11 10  1  0  0  0  0
 12 17  2  0  0  0  0
 14  2  1  0  0  0  0
 14 17  1  0  0  0  0
 15 13  1  6  0  0  0
 15 27  1  0  0  0  0
 15  4  1  0  0  0  0
 16  1  1  1  0  0  0
 16 18  1  0  0  0  0
 19 12  1  0  0  0  0
 20 13  1  0  0  0  0
 21 25  1  6  0  0  0
 21 27  1  0  0  0  0
 21 29  1  0  0  0  0
 22 26  2  0  0  0  0
 23 25  1  0  0  0  0
 23 22  1  0  0  0  0
 26 24  1  0  0  0  0
 27 26  1  6  0  0  0
 28 31  2  0  0  0  0
 29 30  1  6  0  0  0
 29 28  1  0  0  0  0
 32 34  1  0  0  0  0
 32 28  1  0  0  0  0
 33 30  1  0  0  0  0
 33 32  2  0  0  0  0
 34 35  2  0  0  0  0
 36 34  2  0  0  0  0
 37 38  1  0  0  0  0
 37 33  1  0  0  0  0
M  END
>  <MODEL>
1

>  <REMARK>
 VINA RESULT:      -6.5      0.000      0.000
  Name = 
  4 active torsions:
  status: ('A' for Active; 'I' for Inactive)
    1  A    between atoms: N_1  and  C_32
    2  A    between atoms: C_2  and  C_22
    3  A    between atoms: C_12  and  C_34
    4  A    between atoms: C_29  and  C_38
                            x       y       z     vdW  Elec       q    Type
                         _______ _______ _______ _____ _____    ______ ____

>  <TORSDO>
F 4

$$$$
=
 OpenBabel11042410003D

 38 43  0  0  1  0  0  0  0  0999 V2000
  190.8490  172.1330  135.4520 C   0  0  0  0  0  2  0  0  0  0  0  0
  197.5570  173.0950  137.9900 O   0  0  0  0  0  1  0  0  0  0  0  0
  191.3760  175.6690  134.9770 C   0  0  0  0  0  2  0  0  0  0  0  0
  190.0730  173.9980  136.7810 N   0  0  2  0  0  0  0  0  0  0  0  0
  192.8020  173.6250  135.3470 N   0  0  0  0  0  0  0  0  0  0  0  0
  191.9910  172.6680  134.5970 C   0  0  0  0  0  2  0  0  0  0  0  0
  192.5700  174.9470  135.5220 C   0  0  0  0  0  0  0  0  0  0  0  0
  195.2770  174.8330  138.8970 C   0  0  0  0  0  1  0  0  0  0  0  0
  195.6460  174.5040  137.4610 C   0  0  2  0  0  3  0  0  0  0  0  0
  194.4120  174.4920  136.6100 C   0  0  0  0  0  0  0  0  0  0  0  0
  193.5560  175.5390  136.3070 C   0  0  0  0  0  3  0  0  0  0  0  0
  194.6100  172.0680  136.1380 C   0  0  0  0  0  3  0  0  0  0  0  0
  190.5870  176.2560  136.0610 N   0  0  0  0  0  0  0  0  0  0  0  0
  196.3380  173.2020  137.4120 N   0  0  0  0  0  0  0  0  0  0  0  0
  189.5280  175.3330  136.5260 C   0  0  2  0  0  3  0  0  0  0  0  0
  189.7710  173.1910  135.5880 C   0  0  2  0  0  3  0  0  0  0  0  0
  195.7650  172.0210  136.8090 C   0  0  0  0  0  3  0  0  0  0  0  0
  188.9840  173.0050  136.7950 C   0  0  0  0  0  2  0  0  0  0  0  0
  193.9290  173.3570  136.0230 C   0  0  0  0  0  0  0  0  0  0  0  0
  189.9720  177.3270  135.5060 O   0  0  0  0  0  1  0  0  0  0  0  0
  187.5370  176.6440  137.6230 C   0  0  2  0  0  3  0  0  0  0  0  0
  189.6850  177.8330  139.1100 C   0  0  0  0  0  3  0  0  0  0  0  0
  188.4810  178.6510  138.7390 C   0  0  0  0  0  2  0  0  0  0  0  0
  190.9530  175.8640  139.2030 O   0  0  0  0  0  1  0  0  0  0  0  0
  187.8240  178.1370  137.4650 C   0  0  0  0  0  2  0  0  0  0  0  0
  189.8380  176.5550  138.7470 C   0  0  0  0  0  0  0  0  0  0  0  0
  188.8570  175.8570  137.8240 C   0  0  2  0  0  3  0  0  0  0  0  0
  185.6720  175.0870  137.0610 C   0  0  0  0  0  0  0  0  0  0  0  0
  186.6390  176.0780  136.5090 C   0  0  1  0  0  3  0  0  0  0  0  0
  185.7080  177.1620  135.9360 C   0  0  0  0  0  2  0  0  0  0  0  0
  185.9990  173.9940  137.5930 O   0  0  0  0  0  0  0  0  0  0  0  0
  184.3060  175.5340  136.8760 C   0  0  0  0  0  0  0  0  0  0  0  0
  184.3180  176.6970  136.2370 C   0  0  0  0  0  0  0  0  0  0  0  0
  183.1390  174.8240  137.3300 N   0  0  0  0  0  0  0  0  0  0  0  0
  182.5080  175.1670  138.5030 O   0  0  0  0  0  0  0  0  0  0  0  0
  182.7110  173.8460  136.6840 O   0  0  0  0  0  0  0  0  0  0  0  0
  183.1180  177.4900  135.8390 C   0  0  0  0  0  2  0  0  0  0  0  0
  182.6820  178.2530  136.9070 F   0  0  0  0  0  0  0  0  0  0  0  0
  3  7  1  0  0  0  0
  3 13  1  0  0  0  0
  4 18  1  1  0  0  0
  5  7  1  0  0  0  0
  5 19  1  0  0  0  0
  6  5  1  0  0  0  0
  6  1  1  0  0  0  0
  7 11  2  0  0  0  0
  9  8  1  1  0  0  0
 10  9  1  0  0  0  0
 11 10  1  0  0  0  0
 12 17  2  0  0  0  0
 14  9  1  0  0  0  0
 14  2  1  0  0  0  0
 15 13  1  1  0  0  0
 15  4  1  0  0  0  0
 15 27  1  0  0  0  0
 16  1  1  1  0  0  0
 16  4  1  0  0  0  0
 16 18  1  0  0  0  0
 17 14  1  0  0  0  0
 19 12  1  0  0  0  0
 19 10  2  0  0  0  0
 20 13  1  0  0  0  0
 21 25  1  6  0  0  0
 21 27  1  0  0  0  0
 23 22  1  0  0  0  0
 25 23  1  0  0  0  0
 26 22  2  0  0  0  0
 26 24  1  0  0  0  0
 27 26  1  6  0  0  0
 28 31  2  0  0  0  0
 29 30  1  1  0  0  0
 29 28  1  0  0  0  0
 29 21  1  0  0  0  0
 30 33  1  0  0  0  0
 32 28  1  0  0  0  0
 32 34  1  0  0  0  0
 33 32  2  0  0  0  0
 34 35  2  0  0  0  0
 36 34  2  0  0  0  0
 37 33  1  0  0  0  0
 37 38  1  0  0  0  0
M  END
>  <MODEL>
2

>  <REMARK>
 VINA RESULT:      -5.4      2.888      9.287
  Name = 
  4 active torsions:
  status: ('A' for Active; 'I' for Inactive)
    1  A    between atoms: N_1  and  C_32
    2  A    between atoms: C_2  and  C_22
    3  A    between atoms: C_12  and  C_34
    4  A    between atoms: C_29  and  C_38
                            x       y       z     vdW  Elec       q    Type
                         _______ _______ _______ _____ _____    ______ ____

>  <TORSDO>
F 4

$$$$
=
 OpenBabel11042410003D

 38 43  0  0  1  0  0  0  0  0999 V2000
  189.9530  172.1620  135.5110 C   0  0  0  0  0  2  0  0  0  0  0  0
  196.1790  174.9110  137.9700 O   0  0  0  0  0  1  0  0  0  0  0  0
  189.6990  175.6410  134.5960 C   0  0  0  0  0  2  0  0  0  0  0  0
  188.7330  173.9520  136.5850 N   0  0  2  0  0  0  0  0  0  0  0  0
  191.5290  174.0310  135.2360 N   0  0  0  0  0  0  0  0  0  0  0  0
  190.9790  172.8330  134.6060 C   0  0  0  0  0  2  0  0  0  0  0  0
  191.0020  175.2790  135.2390 C   0  0  0  0  0  0  0  0  0  0  0  0
  193.5370  176.1880  138.6280 C   0  0  0  0  0  1  0  0  0  0  0  0
  194.0240  175.7790  137.2480 C   0  0  2  0  0  3  0  0  0  0  0  0
  192.8570  175.3860  136.3940 C   0  0  0  0  0  0  0  0  0  0  0  0
  191.8020  176.1680  135.9530 C   0  0  0  0  0  3  0  0  0  0  0  0
  193.6060  173.0290  136.2360 C   0  0  0  0  0  3  0  0  0  0  0  0
  188.7590  176.1630  135.5880 N   0  0  0  0  0  0  0  0  0  0  0  0
  194.9900  174.6700  137.3720 N   0  0  0  0  0  0  0  0  0  0  0  0
  187.9150  175.0890  136.1570 C   0  0  2  0  0  3  0  0  0  0  0  0
  188.6630  172.9580  135.5010 C   0  0  2  0  0  3  0  0  0  0  0  0
  194.7170  173.3260  136.9180 C   0  0  0  0  0  3  0  0  0  0  0  0
  187.8910  172.7490  136.7140 C   0  0  0  0  0  2  0  0  0  0  0  0
  192.6610  174.1090  135.9510 C   0  0  0  0  0  0  0  0  0  0  0  0
  187.9430  176.9920  134.8960 O   0  0  0  0  0  1  0  0  0  0  0  0
  185.5770  175.7850  137.1240 C   0  0  2  0  0  3  0  0  0  0  0  0
  187.1200  177.9740  138.1550 C   0  0  0  0  0  3  0  0  0  0  0  0
  185.6970  178.1910  137.7250 C   0  0  0  0  0  2  0  0  0  0  0  0
  189.0350  176.6800  138.5430 O   0  0  0  0  0  1  0  0  0  0  0  0
  185.2820  177.2060  136.6410 C   0  0  0  0  0  2  0  0  0  0  0  0
  187.7420  176.7960  138.0480 C   0  0  0  0  0  0  0  0  0  0  0  0
  187.0960  175.6020  137.3720 C   0  0  2  0  0  3  0  0  0  0  0  0
  184.1250  173.7600  137.0300 C   0  0  0  0  0  0  0  0  0  0  0  0
  184.9580  174.6990  136.2260 C   0  0  1  0  0  3  0  0  0  0  0  0
  183.9280  175.2990  135.2520 C   0  0  0  0  0  2  0  0  0  0  0  0
  184.5750  173.0040  137.9310 O   0  0  0  0  0  0  0  0  0  0  0  0
  182.7380  173.8070  136.6150 C   0  0  0  0  0  0  0  0  0  0  0  0
  182.6200  174.6660  135.6090 C   0  0  0  0  0  0  0  0  0  0  0  0
  181.6730  173.0490  137.2150 N   0  0  0  0  0  0  0  0  0  0  0  0
  180.6930  173.6630  137.9600 O   0  0  0  0  0  0  0  0  0  0  0  0
  181.6530  171.8060  137.1090 O   0  0  0  0  0  0  0  0  0  0  0  0
  181.3590  174.9970  134.8830 C   0  0  0  0  0  2  0  0  0  0  0  0
  180.6330  175.9290  135.6030 F   0  0  0  0  0  0  0  0  0  0  0  0
  3  7  1  0  0  0  0
  3 13  1  0  0  0  0
  4 18  1  1  0  0  0
  5  7  1  0  0  0  0
  5 19  1  0  0  0  0
  6  5  1  0  0  0  0
  6  1  1  0  0  0  0
  7 11  2  0  0  0  0
  9 14  1  0  0  0  0
  9  8  1  1  0  0  0
 10  9  1  0  0  0  0
 11 10  1  0  0  0  0
 12 17  2  0  0  0  0
 14  2  1  0  0  0  0
 15 13  1  1  0  0  0
 15  4  1  0  0  0  0
 15 27  1  0  0  0  0
 16  1  1  1  0  0  0
 16  4  1  0  0  0  0
 16 18  1  0  0  0  0
 17 14  1  0  0  0  0
 19 12  1  0  0  0  0
 19 10  2  0  0  0  0
 20 13  1  0  0  0  0
 21 25  1  6  0  0  0
 21 27  1  0  0  0  0
 23 22  1  0  0  0  0
 25 23  1  0  0  0  0
 26 22  2  0  0  0  0
 26 24  1  0  0  0  0
 27 26  1  6  0  0  0
 28 31  2  0  0  0  0
 29 30  1  6  0  0  0
 29 28  1  0  0  0  0
 29 21  1  0  0  0  0
 30 33  1  0  0  0  0
 32 28  1  0  0  0  0
 32 34  1  0  0  0  0
 33 32  2  0  0  0  0
 34 35  2  0  0  0  0
 36 34  2  0  0  0  0
 37 38  1  0  0  0  0
 37 33  1  0  0  0  0
M  END
>  <MODEL>
3

>  <REMARK>
 VINA RESULT:      -5.1      3.455      9.601
  Name = 
  4 active torsions:
  status: ('A' for Active; 'I' for Inactive)
    1  A    between atoms: N_1  and  C_32
    2  A    between atoms: C_2  and  C_22
    3  A    between atoms: C_12  and  C_34
    4  A    between atoms: C_29  and  C_38
                            x       y       z     vdW  Elec       q    Type
                         _______ _______ _______ _____ _____    ______ ____

>  <TORSDO>
F 4

$$$$
=
 OpenBabel11042410003D

 38 43  0  0  1  0  0  0  0  0999 V2000
  189.2000  177.1520  139.3610 C   0  0  0  0  0  2  0  0  0  0  0  0
  183.1470  178.8720  142.9350 O   0  0  0  0  0  1  0  0  0  0  0  0
  187.1390  178.5990  136.7790 C   0  0  0  0  0  2  0  0  0  0  0  0
  187.8850  176.0640  137.6490 N   0  0  2  0  0  0  0  0  0  0  0  0
  187.2180  178.6090  139.2980 N   0  0  0  0  0  0  0  0  0  0  0  0
  188.6700  178.5780  139.4590 C   0  0  0  0  0  2  0  0  0  0  0  0
  186.5150  178.6330  138.1410 C   0  0  0  0  0  0  0  0  0  0  0  0
  183.0580  177.2960  140.3760 C   0  0  0  0  0  1  0  0  0  0  0  0
  183.8120  178.5940  140.6120 C   0  0  2  0  0  3  0  0  0  0  0  0
  185.0440  178.6270  139.7590 C   0  0  0  0  0  0  0  0  0  0  0  0
  185.1430  178.6480  138.3770 C   0  0  0  0  0  3  0  0  0  0  0  0
  186.5550  178.5850  141.7220 C   0  0  0  0  0  3  0  0  0  0  0  0
  186.6910  177.4220  136.0340 N   0  0  0  0  0  0  0  0  0  0  0  0
  184.1510  178.7170  142.0430 N   0  0  0  0  0  0  0  0  0  0  0  0
  187.6040  176.2740  136.2270 C   0  0  2  0  0  3  0  0  0  0  0  0
  189.1860  176.6990  137.9150 C   0  0  2  0  0  3  0  0  0  0  0  0
  185.5040  178.6440  142.5460 C   0  0  0  0  0  3  0  0  0  0  0  0
  189.1060  175.2520  137.8050 C   0  0  0  0  0  2  0  0  0  0  0  0
  186.3060  178.6000  140.2810 C   0  0  0  0  0  0  0  0  0  0  0  0
  186.7680  177.7830  134.7310 O   0  0  0  0  0  1  0  0  0  0  0  0
  185.7220  174.4500  136.3400 C   0  0  2  0  0  3  0  0  0  0  0  0
  187.9730  172.7010  136.0150 C   0  0  0  0  0  3  0  0  0  0  0  0
  186.8070  172.2790  136.8620 C   0  0  0  0  0  2  0  0  0  0  0  0
  189.1330  174.1590  134.5940 O   0  0  0  0  0  1  0  0  0  0  0  0
  186.0860  173.4790  137.4620 C   0  0  0  0  0  2  0  0  0  0  0  0
  188.0460  173.8930  135.4160 C   0  0  0  0  0  0  0  0  0  0  0  0
  187.0010  174.9710  135.6370 C   0  0  2  0  0  3  0  0  0  0  0  0
  183.7490  175.8510  135.7350 C   0  0  0  0  0  0  0  0  0  0  0  0
  184.7620  175.5650  136.7910 C   0  0  1  0  0  3  0  0  0  0  0  0
  183.8860  175.1060  137.9710 C   0  0  0  0  0  2  0  0  0  0  0  0
  184.0200  176.3070  134.5940 O   0  0  0  0  0  0  0  0  0  0  0  0
  182.4090  175.5650  136.2080 C   0  0  0  0  0  0  0  0  0  0  0  0
  182.4770  175.1520  137.4670 C   0  0  0  0  0  0  0  0  0  0  0  0
  181.2130  175.7000  135.4200 N   0  0  0  0  0  0  0  0  0  0  0  0
  180.6740  174.6250  134.7530 O   0  0  0  0  0  0  0  0  0  0  0  0
  180.6710  176.8170  135.2920 O   0  0  0  0  0  0  0  0  0  0  0  0
  181.3200  174.7700  138.3280 C   0  0  0  0  0  2  0  0  0  0  0  0
  180.5420  175.8830  138.5910 F   0  0  0  0  0  0  0  0  0  0  0  0
  1  6  1  0  0  0  0
  3  7  1  0  0  0  0
  4 18  1  6  0  0  0
  4 16  1  0  0  0  0
  5  6  1  0  0  0  0
  5 19  1  0  0  0  0
  7 11  2  0  0  0  0
  7  5  1  0  0  0  0
  9  8  1  1  0  0  0
  9 14  1  0  0  0  0
 10 19  2  0  0  0  0
 10  9  1  0  0  0  0
 11 10  1  0  0  0  0
 12 17  2  0  0  0  0
 13  3  1  0  0  0  0
 14 17  1  0  0  0  0
 14  2  1  0  0  0  0
 15 13  1  1  0  0  0
 15  4  1  0  0  0  0
 16 18  1  1  0  0  0
 16  1  1  0  0  0  0
 19 12  1  0  0  0  0
 20 13  1  0  0  0  0
 21 29  1  0  0  0  0
 21 25  1  1  0  0  0
 22 23  1  0  0  0  0
 23 25  1  0  0  0  0
 24 26  1  0  0  0  0
 26 22  2  0  0  0  0
 27 26  1  1  0  0  0
 27 15  1  0  0  0  0
 27 21  1  0  0  0  0
 28 32  1  0  0  0  0
 28 29  1  0  0  0  0
 29 30  1  1  0  0  0
 31 28  2  0  0  0  0
 32 33  2  0  0  0  0
 33 30  1  0  0  0  0
 33 37  1  0  0  0  0
 34 32  1  0  0  0  0
 35 34  2  0  0  0  0
 36 34  2  0  0  0  0
 37 38  1  0  0  0  0
M  END
>  <MODEL>
4

>  <REMARK>
 VINA RESULT:      -5.1      5.120      8.394
  Name = 
  4 active torsions:
  status: ('A' for Active; 'I' for Inactive)
    1  A    between atoms: N_1  and  C_32
    2  A    between atoms: C_2  and  C_22
    3  A    between atoms: C_12  and  C_34
    4  A    between atoms: C_29  and  C_38
                            x       y       z     vdW  Elec       q    Type
                         _______ _______ _______ _____ _____    ______ ____

>  <TORSDO>
F 4

$$$$
=
 OpenBabel11042410003D

 38 43  0  0  1  0  0  0  0  0999 V2000
  188.8950  177.9110  140.5740 C   0  0  0  0  0  2  0  0  0  0  0  0
  181.9180  177.3260  138.7450 O   0  0  0  0  0  1  0  0  0  0  0  0
  188.9930  178.1750  136.9780 C   0  0  0  0  0  2  0  0  0  0  0  0
  189.4730  176.2430  138.9230 N   0  0  2  0  0  0  0  0  0  0  0  0
  187.2700  178.4290  138.8000 N   0  0  0  0  0  0  0  0  0  0  0  0
  188.1380  179.0030  139.8260 C   0  0  0  0  0  2  0  0  0  0  0  0
  187.6080  178.0690  137.5390 C   0  0  0  0  0  0  0  0  0  0  0  0
  184.0280  175.6390  137.4240 C   0  0  0  0  0  1  0  0  0  0  0  0
  184.0640  177.1460  137.6150 C   0  0  2  0  0  3  0  0  0  0  0  0
  185.4830  177.6040  137.7680 C   0  0  0  0  0  0  0  0  0  0  0  0
  186.5180  177.5460  136.8480 C   0  0  0  0  0  3  0  0  0  0  0  0
  185.1250  178.3430  140.1050 C   0  0  0  0  0  3  0  0  0  0  0  0
  189.4920  176.8600  136.5770 N   0  0  0  0  0  0  0  0  0  0  0  0
  183.2560  177.5160  138.7930 N   0  0  0  0  0  0  0  0  0  0  0  0
  190.2370  176.2020  137.6730 C   0  0  2  0  0  3  0  0  0  0  0  0
  190.0100  177.3710  139.7000 C   0  0  2  0  0  3  0  0  0  0  0  0
  183.8260  178.0410  140.0120 C   0  0  0  0  0  3  0  0  0  0  0  0
  190.3710  176.0130  140.0680 C   0  0  0  0  0  2  0  0  0  0  0  0
  185.9680  178.1340  138.9290 C   0  0  0  0  0  0  0  0  0  0  0  0
  190.3770  177.1090  135.5830 O   0  0  0  0  0  1  0  0  0  0  0  0
  191.9380  174.4660  136.6840 C   0  0  2  0  0  3  0  0  0  0  0  0
  189.5690  173.5150  135.3730 C   0  0  0  0  0  3  0  0  0  0  0  0
  190.8950  173.4520  134.6720 C   0  0  0  0  0  2  0  0  0  0  0  0
  188.1580  173.9820  137.1860 O   0  0  0  0  0  1  0  0  0  0  0  0
  191.8410  174.5410  135.1600 C   0  0  0  0  0  2  0  0  0  0  0  0
  189.4130  174.0380  136.5940 C   0  0  0  0  0  0  0  0  0  0  0  0
  190.5520  174.7210  137.3280 C   0  0  2  0  0  3  0  0  0  0  0  0
  194.3610  174.6080  137.2570 C   0  0  0  0  0  0  0  0  0  0  0  0
  193.0630  175.3420  137.2630 C   0  0  1  0  0  3  0  0  0  0  0  0
  193.3630  176.5440  136.3490 C   0  0  0  0  0  2  0  0  0  0  0  0
  194.5910  173.5650  137.9240 O   0  0  0  0  0  0  0  0  0  0  0  0
  195.3310  175.2700  136.4090 C   0  0  0  0  0  0  0  0  0  0  0  0
  194.7790  176.3650  135.9000 C   0  0  0  0  0  0  0  0  0  0  0  0
  196.6660  174.7960  136.1600 N   0  0  0  0  0  0  0  0  0  0  0  0
  197.7510  175.3550  136.7940 O   0  0  0  0  0  0  0  0  0  0  0  0
  196.8630  173.8950  135.3190 O   0  0  0  0  0  0  0  0  0  0  0  0
  195.4450  177.3380  134.9870 C   0  0  0  0  0  2  0  0  0  0  0  0
  195.5760  178.5620  135.6180 F   0  0  0  0  0  0  0  0  0  0  0  0
  2 14  1  0  0  0  0
  3  7  1  0  0  0  0
  4 16  1  0  0  0  0
  4 18  1  1  0  0  0
  5 19  1  0  0  0  0
  5  6  1  0  0  0  0
  6  1  1  0  0  0  0
  7  5  1  0  0  0  0
  9  8  1  1  0  0  0
  9 10  1  0  0  0  0
  9 14  1  0  0  0  0
 10 19  2  0  0  0  0
 11  7  2  0  0  0  0
 11 10  1  0  0  0  0
 13  3  1  0  0  0  0
 14 17  1  0  0  0  0
 15 13  1  6  0  0  0
 15  4  1  0  0  0  0
 16 18  1  1  0  0  0
 16  1  1  0  0  0  0
 17 12  2  0  0  0  0
 19 12  1  0  0  0  0
 20 13  1  0  0  0  0
 21 25  1  6  0  0  0
 21 29  1  0  0  0  0
 21 27  1  0  0  0  0
 22 26  2  0  0  0  0
 23 25  1  0  0  0  0
 23 22  1  0  0  0  0
 26 24  1  0  0  0  0
 27 26  1  6  0  0  0
 27 15  1  0  0  0  0
 28 29  1  0  0  0  0
 28 31  2  0  0  0  0
 29 30  1  6  0  0  0
 32 28  1  0  0  0  0
 33 30  1  0  0  0  0
 33 32  2  0  0  0  0
 34 32  1  0  0  0  0
 34 35  2  0  0  0  0
 36 34  2  0  0  0  0
 37 38  1  0  0  0  0
 37 33  1  0  0  0  0
M  END
>  <MODEL>
5

>  <REMARK>
 VINA RESULT:      -4.8      1.225      1.353
  Name = 
  4 active torsions:
  status: ('A' for Active; 'I' for Inactive)
    1  A    between atoms: N_1  and  C_32
    2  A    between atoms: C_2  and  C_22
    3  A    between atoms: C_12  and  C_34
    4  A    between atoms: C_29  and  C_38
                            x       y       z     vdW  Elec       q    Type
                         _______ _______ _______ _____ _____    ______ ____

>  <TORSDO>
F 4

$$$$
=
 OpenBabel11042410003D

 38 43  0  0  1  0  0  0  0  0999 V2000
  187.9030  178.3070  139.0510 C   0  0  0  0  0  2  0  0  0  0  0  0
  180.7920  177.0140  139.4030 O   0  0  0  0  0  1  0  0  0  0  0  0
  187.1580  177.0710  135.7460 C   0  0  0  0  0  2  0  0  0  0  0  0
  188.2620  176.1090  138.1120 N   0  0  2  0  0  0  0  0  0  0  0  0
  185.8750  178.0490  137.6820 N   0  0  0  0  0  0  0  0  0  0  0  0
  186.8890  178.9940  138.1440 C   0  0  0  0  0  2  0  0  0  0  0  0
  185.9540  177.2020  136.6280 C   0  0  0  0  0  0  0  0  0  0  0  0
  182.7110  174.9360  138.3830 C   0  0  0  0  0  1  0  0  0  0  0  0
  182.6340  176.3880  137.9430 C   0  0  2  0  0  3  0  0  0  0  0  0
  183.9960  176.8700  137.5430 C   0  0  0  0  0  0  0  0  0  0  0  0
  184.7960  176.4400  136.4970 C   0  0  0  0  0  3  0  0  0  0  0  0
  184.1010  178.5040  139.4030 C   0  0  0  0  0  3  0  0  0  0  0  0
  187.6860  175.7070  135.7910 N   0  0  0  0  0  0  0  0  0  0  0  0
  182.0800  177.2090  139.0370 N   0  0  0  0  0  0  0  0  0  0  0  0
  188.7230  175.5580  136.8360 C   0  0  2  0  0  3  0  0  0  0  0  0
  188.8410  177.4570  138.2170 C   0  0  2  0  0  3  0  0  0  0  0  0
  182.8530  178.1890  139.7640 C   0  0  0  0  0  3  0  0  0  0  0  0
  189.4150  176.3700  138.9920 C   0  0  0  0  0  2  0  0  0  0  0  0
  184.6740  177.8310  138.2380 C   0  0  0  0  0  0  0  0  0  0  0  0
  188.2930  175.5270  134.5940 O   0  0  0  0  0  1  0  0  0  0  0  0
  190.3750  173.5930  136.2940 C   0  0  2  0  0  3  0  0  0  0  0  0
  187.9090  172.1690  135.9390 C   0  0  0  0  0  3  0  0  0  0  0  0
  189.0960  171.8470  135.0770 C   0  0  0  0  0  2  0  0  0  0  0  0
  186.7950  173.3030  137.6600 O   0  0  0  0  0  1  0  0  0  0  0  0
  190.0130  173.0520  134.9110 C   0  0  0  0  0  2  0  0  0  0  0  0
  187.9200  173.1340  136.8640 C   0  0  0  0  0  0  0  0  0  0  0  0
  189.1030  174.0670  137.0410 C   0  0  2  0  0  3  0  0  0  0  0  0
  192.3190  174.5810  137.5050 C   0  0  0  0  0  0  0  0  0  0  0  0
  191.5020  174.6400  136.2590 C   0  0  1  0  0  3  0  0  0  0  0  0
  192.5400  174.3090  135.1710 C   0  0  0  0  0  2  0  0  0  0  0  0
  191.8800  174.8370  138.6560 O   0  0  0  0  0  0  0  0  0  0  0  0
  193.6920  174.2210  137.2120 C   0  0  0  0  0  0  0  0  0  0  0  0
  193.8260  174.0730  135.8990 C   0  0  0  0  0  0  0  0  0  0  0  0
  194.7250  174.0430  138.1980 N   0  0  0  0  0  0  0  0  0  0  0  0
  195.4570  175.1110  138.6620 O   0  0  0  0  0  0  0  0  0  0  0  0
  195.0050  172.9000  138.6110 O   0  0  0  0  0  0  0  0  0  0  0  0
  195.0850  173.7190  135.1820 C   0  0  0  0  0  2  0  0  0  0  0  0
  195.5520  172.4960  135.6280 F   0  0  0  0  0  0  0  0  0  0  0  0
  3 13  1  0  0  0  0
  3  7  1  0  0  0  0
  4 16  1  0  0  0  0
  4 18  1  1  0  0  0
  5  6  1  0  0  0  0
  5 19  1  0  0  0  0
  6  1  1  0  0  0  0
  7  5  1  0  0  0  0
  9  8  1  1  0  0  0
  9 14  1  0  0  0  0
 10  9  1  0  0  0  0
 10 19  2  0  0  0  0
 11  7  2  0  0  0  0
 11 10  1  0  0  0  0
 12 17  2  0  0  0  0
 14  2  1  0  0  0  0
 14 17  1  0  0  0  0
 15 13  1  6  0  0  0
 15 27  1  0  0  0  0
 15  4  1  0  0  0  0
 16 18  1  1  0  0  0
 16  1  1  0  0  0  0
 19 12  1  0  0  0  0
 20 13  1  0  0  0  0
 21 25  1  6  0  0  0
 21 27  1  0  0  0  0
 22 26  2  0  0  0  0
 23 22  1  0  0  0  0
 25 23  1  0  0  0  0
 26 24  1  0  0  0  0
 27 26  1  6  0  0  0
 28 31  2  0  0  0  0
 29 30  1  6  0  0  0
 29 21  1  0  0  0  0
 29 28  1  0  0  0  0
 30 33  1  0  0  0  0
 32 28  1  0  0  0  0
 32 34  1  0  0  0  0
 33 32  2  0  0  0  0
 34 36  2  0  0  0  0
 34 35  2  0  0  0  0
 37 38  1  0  0  0  0
 37 33  1  0  0  0  0
M  END
>  <MODEL>
6

>  <REMARK>
 VINA RESULT:      -4.6      2.007      2.557
  Name = 
  4 active torsions:
  status: ('A' for Active; 'I' for Inactive)
    1  A    between atoms: N_1  and  C_32
    2  A    between atoms: C_2  and  C_22
    3  A    between atoms: C_12  and  C_34
    4  A    between atoms: C_29  and  C_38
                            x       y       z     vdW  Elec       q    Type
                         _______ _______ _______ _____ _____    ______ ____

>  <TORSDO>
F 4

$$$$
=
 OpenBabel11042410003D

 38 43  0  0  1  0  0  0  0  0999 V2000
  185.8780  178.6330  139.1680 C   0  0  0  0  0  2  0  0  0  0  0  0
  179.1730  175.9460  139.5980 O   0  0  0  0  0  1  0  0  0  0  0  0
  185.3090  177.3860  135.8320 C   0  0  0  0  0  2  0  0  0  0  0  0
  186.6390  176.5820  138.1400 N   0  0  2  0  0  0  0  0  0  0  0  0
  183.9070  178.0240  137.8260 N   0  0  0  0  0  0  0  0  0  0  0  0
  184.7250  179.1360  138.3070 C   0  0  0  0  0  2  0  0  0  0  0  0
  184.1250  177.2460  136.7390 C   0  0  0  0  0  0  0  0  0  0  0  0
  181.4380  174.3250  138.4650 C   0  0  0  0  0  1  0  0  0  0  0  0
  181.0650  175.7470  138.0820 C   0  0  2  0  0  3  0  0  0  0  0  0
  182.2940  176.5020  137.6760 C   0  0  0  0  0  0  0  0  0  0  0  0
  183.1370  176.2750  136.6000 C   0  0  0  0  0  3  0  0  0  0  0  0
  182.1210  178.0610  139.5950 C   0  0  0  0  0  3  0  0  0  0  0  0
  186.0970  176.1530  135.8150 N   0  0  0  0  0  0  0  0  0  0  0  0
  180.3870  176.4040  139.2160 N   0  0  0  0  0  0  0  0  0  0  0  0
  187.1680  176.1770  136.8350 C   0  0  2  0  0  3  0  0  0  0  0  0
  186.9440  178.0140  138.2860 C   0  0  2  0  0  3  0  0  0  0  0  0
  180.9700  177.4920  139.9660 C   0  0  0  0  0  3  0  0  0  0  0  0
  187.7400  177.0360  139.0080 C   0  0  0  0  0  2  0  0  0  0  0  0
  182.7860  177.5550  138.3950 C   0  0  0  0  0  0  0  0  0  0  0  0
  186.6960  176.1370  134.6010 O   0  0  0  0  0  1  0  0  0  0  0  0
  189.2370  174.6480  136.3200 C   0  0  2  0  0  3  0  0  0  0  0  0
  187.1650  172.7800  135.6470 C   0  0  0  0  0  3  0  0  0  0  0  0
  188.4550  172.7830  134.8800 C   0  0  0  0  0  2  0  0  0  0  0  0
  185.7060  173.5120  137.3290 O   0  0  0  0  0  1  0  0  0  0  0  0
  189.1050  174.1610  134.8770 C   0  0  0  0  0  2  0  0  0  0  0  0
  186.9000  173.6460  136.6310 C   0  0  0  0  0  0  0  0  0  0  0  0
  187.8400  174.7850  136.9770 C   0  0  2  0  0  3  0  0  0  0  0  0
  191.0690  175.7610  137.5930 C   0  0  0  0  0  0  0  0  0  0  0  0
  190.1150  175.9040  136.4580 C   0  0  1  0  0  3  0  0  0  0  0  0
  191.0600  176.0610  135.2530 C   0  0  0  0  0  2  0  0  0  0  0  0
  190.7280  175.6550  138.8010 O   0  0  0  0  0  0  0  0  0  0  0  0
  192.4420  175.7930  137.1290 C   0  0  0  0  0  0  0  0  0  0  0  0
  192.4450  175.9690  135.8130 C   0  0  0  0  0  0  0  0  0  0  0  0
  193.5990  175.6430  137.9700 N   0  0  0  0  0  0  0  0  0  0  0  0
  194.3380  174.4840  137.9640 O   0  0  0  0  0  0  0  0  0  0  0  0
  193.9210  176.5550  138.7590 O   0  0  0  0  0  0  0  0  0  0  0  0
  193.6540  176.0720  134.9460 C   0  0  0  0  0  2  0  0  0  0  0  0
  194.5230  177.0170  135.4610 F   0  0  0  0  0  0  0  0  0  0  0  0
  3  7  1  0  0  0  0
  4 16  1  0  0  0  0
  4 18  1  1  0  0  0
  5  6  1  0  0  0  0
  5 19  1  0  0  0  0
  6  1  1  0  0  0  0
  7  5  1  0  0  0  0
  9  8  1  1  0  0  0
  9 14  1  0  0  0  0
 10  9  1  0  0  0  0
 10 19  2  0  0  0  0
 11  7  2  0  0  0  0
 11 10  1  0  0  0  0
 12 17  2  0  0  0  0
 13  3  1  0  0  0  0
 14  2  1  0  0  0  0
 14 17  1  0  0  0  0
 15 13  1  6  0  0  0
 15 27  1  0  0  0  0
 15  4  1  0  0  0  0
 16 18  1  1  0  0  0
 16  1  1  0  0  0  0
 19 12  1  0  0  0  0
 20 13  1  0  0  0  0
 21 25  1  6  0  0  0
 21 29  1  0  0  0  0
 21 27  1  0  0  0  0
 22 26  2  0  0  0  0
 23 22  1  0  0  0  0
 25 23  1  0  0  0  0
 26 24  1  0  0  0  0
 27 26  1  6  0  0  0
 28 31  2  0  0  0  0
 29 30  1  6  0  0  0
 29 28  1  0  0  0  0
 30 33  1  0  0  0  0
 32 28  1  0  0  0  0
 32 34  1  0  0  0  0
 33 32  2  0  0  0  0
 34 36  2  0  0  0  0
 35 34  2  0  0  0  0
 37 38  1  0  0  0  0
 37 33  1  0  0  0  0
M  END
>  <MODEL>
7

>  <REMARK>
 VINA RESULT:      -4.5      2.485      3.775
  Name = 
  4 active torsions:
  status: ('A' for Active; 'I' for Inactive)
    1  A    between atoms: N_1  and  C_32
    2  A    between atoms: C_2  and  C_22
    3  A    between atoms: C_12  and  C_34
    4  A    between atoms: C_29  and  C_38
                            x       y       z     vdW  Elec       q    Type
                         _______ _______ _______ _____ _____    ______ ____

>  <TORSDO>
F 4

$$$$
=
 OpenBabel11042410003D

 38 43  0  0  1  0  0  0  0  0999 V2000
  189.9660  177.3870  140.2620 C   0  0  0  0  0  2  0  0  0  0  0  0
  195.2650  176.1380  135.4950 O   0  0  0  0  0  1  0  0  0  0  0  0
  188.5090  174.9020  138.0920 C   0  0  0  0  0  2  0  0  0  0  0  0
  188.3920  177.6600  138.4480 N   0  0  2  0  0  0  0  0  0  0  0  0
  190.8210  175.7360  138.6510 N   0  0  0  0  0  0  0  0  0  0  0  0
  190.6020  176.0160  140.0680 C   0  0  0  0  0  2  0  0  0  0  0  0
  189.9320  175.2350  137.7600 C   0  0  0  0  0  0  0  0  0  0  0  0
  192.4630  176.7520  134.5940 C   0  0  0  0  0  1  0  0  0  0  0  0
  192.8730  175.7200  135.6310 C   0  0  2  0  0  3  0  0  0  0  0  0
  191.7900  175.5750  136.6570 C   0  0  0  0  0  0  0  0  0  0  0  0
  190.4940  175.1130  136.4920 C   0  0  0  0  0  3  0  0  0  0  0  0
  193.2190  176.4690  138.4730 C   0  0  0  0  0  3  0  0  0  0  0  0
  187.5890  175.6940  137.2750 N   0  0  0  0  0  0  0  0  0  0  0  0
  194.1470  176.1240  136.2560 N   0  0  0  0  0  0  0  0  0  0  0  0
  187.2080  176.9550  137.9500 C   0  0  2  0  0  3  0  0  0  0  0  0
  188.5010  177.3310  139.8780 C   0  0  2  0  0  3  0  0  0  0  0  0
  194.2570  176.5420  137.6340 C   0  0  0  0  0  3  0  0  0  0  0  0
  187.9980  178.6350  139.4810 C   0  0  0  0  0  2  0  0  0  0  0  0
  191.9530  175.9450  137.9620 C   0  0  0  0  0  0  0  0  0  0  0  0
  186.4710  174.9380  137.1750 O   0  0  0  0  0  1  0  0  0  0  0  0
  184.8960  177.9360  137.1900 C   0  0  2  0  0  3  0  0  0  0  0  0
  185.9710  177.3510  134.5940 C   0  0  0  0  0  3  0  0  0  0  0  0
  184.4990  177.2020  134.8520 C   0  0  0  0  0  2  0  0  0  0  0  0
  188.1730  177.8960  135.1820 O   0  0  0  0  0  1  0  0  0  0  0  0
  184.2140  176.8850  136.3140 C   0  0  0  0  0  2  0  0  0  0  0  0
  186.8430  177.7150  135.5400 C   0  0  0  0  0  0  0  0  0  0  0  0
  186.4330  177.8950  136.9890 C   0  0  2  0  0  3  0  0  0  0  0  0
  183.6970  179.0940  139.0450 C   0  0  0  0  0  0  0  0  0  0  0  0
  184.4610  177.8710  138.6650 C   0  0  1  0  0  3  0  0  0  0  0  0
  183.4260  176.7540  138.8940 C   0  0  0  0  0  2  0  0  0  0  0  0
  184.1780  180.2570  139.0570 O   0  0  0  0  0  0  0  0  0  0  0  0
  182.3400  178.7620  139.4300 C   0  0  0  0  0  0  0  0  0  0  0  0
  182.1820  177.4470  139.3540 C   0  0  0  0  0  0  0  0  0  0  0  0
  181.3370  179.7190  139.8160 N   0  0  0  0  0  0  0  0  0  0  0  0
  180.8390  180.6310  138.9150 O   0  0  0  0  0  0  0  0  0  0  0  0
  180.9390  179.7660  140.9970 O   0  0  0  0  0  0  0  0  0  0  0  0
  180.9360  176.6940  139.6800 C   0  0  0  0  0  2  0  0  0  0  0  0
  181.1910  175.3340  139.6680 F   0  0  0  0  0  0  0  0  0  0  0  0
  2 14  1  0  0  0  0
  4 18  1  1  0  0  0
  4 16  1  0  0  0  0
  5  6  1  0  0  0  0
  6  1  1  0  0  0  0
  7  3  1  0  0  0  0
  7  5  1  0  0  0  0
  9  8  1  6  0  0  0
  9 14  1  0  0  0  0
  9 10  1  0  0  0  0
 10 19  2  0  0  0  0
 11 10  1  0  0  0  0
 11  7  2  0  0  0  0
 13  3  1  0  0  0  0
 14 17  1  0  0  0  0
 15 13  1  6  0  0  0
 15  4  1  0  0  0  0
 16 18  1  1  0  0  0
 16  1  1  0  0  0  0
 17 12  2  0  0  0  0
 19 12  1  0  0  0  0
 19  5  1  0  0  0  0
 20 13  1  0  0  0  0
 21 25  1  6  0  0  0
 21 29  1  0  0  0  0
 22 23  1  0  0  0  0
 22 26  2  0  0  0  0
 23 25  1  0  0  0  0
 24 26  1  0  0  0  0
 27 26  1  6  0  0  0
 27 21  1  0  0  0  0
 27 15  1  0  0  0  0
 28 31  2  0  0  0  0
 28 32  1  0  0  0  0
 29 30  1  6  0  0  0
 29 28  1  0  0  0  0
 30 33  1  0  0  0  0
 32 34  1  0  0  0  0
 33 32  2  0  0  0  0
 33 37  1  0  0  0  0
 34 36  2  0  0  0  0
 35 34  2  0  0  0  0
 38 37  1  0  0  0  0
M  END
>  <MODEL>
8

>  <REMARK>
 VINA RESULT:      -4.2      3.583      9.783
  Name = 
  4 active torsions:
  status: ('A' for Active; 'I' for Inactive)
    1  A    between atoms: N_1  and  C_32
    2  A    between atoms: C_2  and  C_22
    3  A    between atoms: C_12  and  C_34
    4  A    between atoms: C_29  and  C_38
                            x       y       z     vdW  Elec       q    Type
                         _______ _______ _______ _____ _____    ______ ____

>  <TORSDO>
F 4

$$$$
=
 OpenBabel11042410003D

 38 43  0  0  1  0  0  0  0  0999 V2000
  180.0510  175.0370  139.7210 C   0  0  0  0  0  2  0  0  0  0  0  0
  181.6310  169.9470  134.8260 O   0  0  0  0  0  1  0  0  0  0  0  0
  179.4260  176.7230  136.5950 C   0  0  0  0  0  2  0  0  0  0  0  0
  181.4280  176.6230  138.5240 N   0  0  2  0  0  0  0  0  0  0  0  0
  179.6460  174.3440  137.3950 N   0  0  0  0  0  0  0  0  0  0  0  0
  179.0360  174.5120  138.7120 C   0  0  0  0  0  2  0  0  0  0  0  0
  179.8200  175.2870  136.4380 C   0  0  0  0  0  0  0  0  0  0  0  0
  182.7990  172.7120  134.6410 C   0  0  0  0  0  1  0  0  0  0  0  0
  181.3330  172.3620  134.8350 C   0  0  2  0  0  3  0  0  0  0  0  0
  180.6590  173.4310  135.6400 C   0  0  0  0  0  0  0  0  0  0  0  0
  180.4500  174.7620  135.3130 C   0  0  0  0  0  3  0  0  0  0  0  0
  180.2210  171.9020  137.5400 C   0  0  0  0  0  3  0  0  0  0  0  0
  180.5920  177.5970  136.4670 N   0  0  0  0  0  0  0  0  0  0  0  0
  181.2220  171.0480  135.4980 N   0  0  0  0  0  0  0  0  0  0  0  0
  181.2180  177.8670  137.7800 C   0  0  2  0  0  3  0  0  0  0  0  0
  180.3070  176.5100  139.4700 C   0  0  2  0  0  3  0  0  0  0  0  0
  180.7300  170.8780  136.8450 C   0  0  0  0  0  3  0  0  0  0  0  0
  181.6130  176.9200  139.9560 C   0  0  0  0  0  2  0  0  0  0  0  0
  180.1690  173.2140  136.8960 C   0  0  0  0  0  0  0  0  0  0  0  0
  180.1010  178.7720  136.0060 O   0  0  0  0  0  1  0  0  0  0  0  0
  183.8200  177.6590  137.5140 C   0  0  2  0  0  3  0  0  0  0  0  0
  183.7710  179.7490  139.4800 C   0  0  0  0  0  3  0  0  0  0  0  0
  184.8670  178.7230  139.4980 C   0  0  0  0  0  2  0  0  0  0  0  0
  181.8410  180.7630  138.6200 O   0  0  0  0  0  1  0  0  0  0  0  0
  184.4070  177.3990  138.9010 C   0  0  0  0  0  2  0  0  0  0  0  0
  182.7650  179.7260  138.6000 C   0  0  0  0  0  0  0  0  0  0  0  0
  182.5830  178.5880  137.6140 C   0  0  2  0  0  3  0  0  0  0  0  0
  184.6660  176.1330  135.7330 C   0  0  0  0  0  0  0  0  0  0  0  0
  183.5670  176.3710  136.7120 C   0  0  1  0  0  3  0  0  0  0  0  0
  183.6550  175.1250  137.6120 C   0  0  0  0  0  2  0  0  0  0  0  0
  184.9320  176.8910  134.7630 O   0  0  0  0  0  0  0  0  0  0  0  0
  185.3660  174.8980  136.0240 C   0  0  0  0  0  0  0  0  0  0  0  0
  184.7980  174.3210  137.0760 C   0  0  0  0  0  0  0  0  0  0  0  0
  186.4990  174.4010  135.2890 N   0  0  0  0  0  0  0  0  0  0  0  0
  187.6920  175.0840  135.2730 O   0  0  0  0  0  0  0  0  0  0  0  0
  186.3960  173.3590  134.6110 O   0  0  0  0  0  0  0  0  0  0  0  0
  185.2070  173.0260  137.6920 C   0  0  0  0  0  2  0  0  0  0  0  0
  184.1810  172.1060  137.5780 F   0  0  0  0  0  0  0  0  0  0  0  0
  2 14  1  0  0  0  0
  4 16  1  0  0  0  0
  4 18  1  1  0  0  0
  5  6  1  0  0  0  0
  6  1  1  0  0  0  0
  7  3  1  0  0  0  0
  7  5  1  0  0  0  0
  9  8  1  1  0  0  0
  9 14  1  0  0  0  0
  9 10  1  0  0  0  0
 10 19  2  0  0  0  0
 11 10  1  0  0  0  0
 11  7  2  0  0  0  0
 13  3  1  0  0  0  0
 14 17  1  0  0  0  0
 15 13  1  6  0  0  0
 15  4  1  0  0  0  0
 16  1  1  1  0  0  0
 16 18  1  0  0  0  0
 17 12  2  0  0  0  0
 19  5  1  0  0  0  0
 19 12  1  0  0  0  0
 20 13  1  0  0  0  0
 21 27  1  0  0  0  0
 21 25  1  1  0  0  0
 22 23  1  0  0  0  0
 25 23  1  0  0  0  0
 26 24  1  0  0  0  0
 26 22  2  0  0  0  0
 27 15  1  0  0  0  0
 27 26  1  1  0  0  0
 28 32  1  0  0  0  0
 28 29  1  0  0  0  0
 29 21  1  0  0  0  0
 29 30  1  1  0  0  0
 31 28  2  0  0  0  0
 32 33  2  0  0  0  0
 33 30  1  0  0  0  0
 33 37  1  0  0  0  0
 34 32  1  0  0  0  0
 35 34  2  0  0  0  0
 36 34  2  0  0  0  0
 38 37  1  0  0  0  0
M  END
>  <MODEL>
9

>  <REMARK>
 VINA RESULT:      -3.9      6.814      9.750
  Name = 
  4 active torsions:
  status: ('A' for Active; 'I' for Inactive)
    1  A    between atoms: N_1  and  C_32
    2  A    between atoms: C_2  and  C_22
    3  A    between atoms: C_12  and  C_34
    4  A    between atoms: C_29  and  C_38
                            x       y       z     vdW  Elec       q    Type
                         _______ _______ _______ _____ _____    ______ ____

>  <TORSDO>
F 4

$$$$
