=
 OpenBabel11032419293D

 31 35  0  0  1  0  0  0  0  0999 V2000
  187.3500  177.4080  144.6840 C   0  0  0  0  0  0  0  0  0  0  0  0
  188.5020  177.7660  143.9030 N   0  0  0  0  0  0  0  0  0  0  0  0
  187.4920  176.6230  145.6590 O   0  0  0  0  0  0  0  0  0  0  0  0
  189.8340  177.4800  147.1800 C   0  0  0  0  0  0  0  0  0  0  0  0
  191.7710  176.1020  146.2030 C   0  0  0  0  0  3  0  0  0  0  0  0
  191.6520  176.5800  144.8980 N   0  0  0  0  0  0  0  0  0  0  0  0
  190.9050  176.5230  147.3230 C   0  0  0  0  0  3  0  0  0  0  0  0
  188.9380  177.9240  148.2780 C   0  0  0  0  0  1  0  0  0  0  0  0
  190.6530  177.4550  144.8450 C   0  0  0  0  0  0  0  0  0  0  0  0
  189.6440  178.3960  144.5750 C   0  0  2  0  0  3  0  0  0  0  0  0
  189.7630  177.9140  145.8950 C   0  0  0  0  0  0  0  0  0  0  0  0
  186.0240  177.9970  144.3720 C   0  0  0  0  0  0  0  0  0  0  0  0
  183.5260  179.0770  143.6520 C   0  0  0  0  0  3  0  0  0  0  0  0
  185.2480  178.7060  145.3230 C   0  0  0  0  0  0  0  0  0  0  0  0
  184.0070  179.2370  144.9520 C   0  0  0  0  0  3  0  0  0  0  0  0
  185.6820  178.8940  146.7380 C   0  0  0  0  0  1  0  0  0  0  0  0
  185.5240  177.8500  143.0680 C   0  0  0  0  0  3  0  0  0  0  0  0
  184.2850  178.3840  142.7090 C   0  0  0  0  0  3  0  0  0  0  0  0
  188.2250  177.6880  141.4690 C   0  0  0  0  0  2  0  0  0  0  0  0
  189.7050  177.7180  141.7650 C   0  0  1  0  0  3  0  0  0  0  0  0
  188.7620  176.9770  142.6970 C   0  0  1  0  0  3  0  0  0  0  0  0
  190.4090  176.7140  140.8740 C   0  0  0  0  0  2  0  0  0  0  0  0
  191.0390  177.4060  139.6710 C   0  0  0  0  0  2  0  0  0  0  0  0
  187.8450  178.2910  137.8710 C   0  0  0  0  0  2  0  0  0  0  0  0
  189.7990  176.2960  136.2820 C   0  0  0  0  0  2  0  0  0  0  0  0
  190.7550  176.6860  138.4480 N   0  0  0  0  0  0  0  0  0  0  0  0
  188.3220  176.0300  136.0120 C   0  0  0  0  0  2  0  0  0  0  0  0
  187.6580  177.2950  135.4840 C   0  0  0  0  0  2  0  0  0  0  0  0
  190.0020  177.1410  137.5040 C   0  0  0  0  0  0  0  0  0  0  0  0
  189.3300  178.4850  137.6020 C   0  0  0  0  0  2  0  0  0  0  0  0
  187.0160  178.1410  136.5910 C   0  0  0  0  0  2  0  0  0  0  0  0
  1  3  2  0  0  0  0
  2  1  1  0  0  0  0
  4  7  1  0  0  0  0
  4  8  1  0  0  0  0
  5  7  2  0  0  0  0
  6  5  1  0  0  0  0
  9  6  2  0  0  0  0
  9 11  1  0  0  0  0
 10  2  1  6  0  0  0
 10  9  1  0  0  0  0
 10 11  1  0  0  0  0
 11  4  2  0  0  0  0
 12  1  1  0  0  0  0
 12 14  1  0  0  0  0
 13 15  1  0  0  0  0
 14 16  1  0  0  0  0
 15 14  2  0  0  0  0
 17 12  2  0  0  0  0
 18 17  1  0  0  0  0
 18 13  2  0  0  0  0
 19 20  1  0  0  0  0
 19 21  1  0  0  0  0
 20 22  1  6  0  0  0
 20 21  1  0  0  0  0
 21  2  1  1  0  0  0
 23 22  1  0  0  0  0
 25 29  1  0  0  0  0
 26 23  1  0  0  0  0
 27 25  1  0  0  0  0
 28 27  1  0  0  0  0
 28 31  1  0  0  0  0
 29 30  1  0  0  0  0
 29 26  2  0  0  0  0
 30 24  1  0  0  0  0
 31 24  1  0  0  0  0
M  END
>  <MODEL>
1

>  <REMARK>
 VINA RESULT:      -9.8      0.000      0.000
  Name = 
  6 active torsions:
  status: ('A' for Active; 'I' for Inactive)
    1  A    between atoms: C_3  and  C_13
    2  A    between atoms: C_10  and  N_15
    3  A    between atoms: C_10  and  C_28
    4  A    between atoms: C_14  and  C_28
    5  A    between atoms: N_16  and  C_18
    6  A    between atoms: N_16  and  C_21
                            x       y       z     vdW  Elec       q    Type
                         _______ _______ _______ _____ _____    ______ ____

>  <TORSDO>
F 6

$$$$
=
 OpenBabel11032419293D

 31 35  0  0  1  0  0  0  0  0999 V2000
  187.5170  177.1010  143.8420 C   0  0  0  0  0  0  0  0  0  0  0  0
  187.3220  177.9650  142.7100 N   0  0  0  0  0  0  0  0  0  0  0  0
  187.9630  175.9380  143.6540 O   0  0  0  0  0  0  0  0  0  0  0  0
  190.7530  178.5820  143.3780 C   0  0  0  0  0  0  0  0  0  0  0  0
  191.2850  176.2380  142.4690 C   0  0  0  0  0  3  0  0  0  0  0  0
  190.1240  176.1060  141.7060 N   0  0  0  0  0  0  0  0  0  0  0  0
  191.6110  177.4260  143.2840 C   0  0  0  0  0  3  0  0  0  0  0  0
  191.0410  179.7920  144.1900 C   0  0  0  0  0  1  0  0  0  0  0  0
  189.3900  177.2060  141.8390 C   0  0  0  0  0  0  0  0  0  0  0  0
  188.4690  178.2670  141.8460 C   0  0  2  0  0  3  0  0  0  0  0  0
  189.6420  178.4030  142.6170 C   0  0  0  0  0  0  0  0  0  0  0  0
  187.2400  177.5940  145.2130 C   0  0  0  0  0  0  0  0  0  0  0  0
  186.5970  178.5760  147.7730 C   0  0  0  0  0  3  0  0  0  0  0  0
  188.1850  177.5240  146.2680 C   0  0  0  0  0  0  0  0  0  0  0  0
  187.8520  178.0140  147.5350 C   0  0  0  0  0  3  0  0  0  0  0  0
  189.5360  176.9130  146.0990 C   0  0  0  0  0  1  0  0  0  0  0  0
  185.9830  178.1660  145.4720 C   0  0  0  0  0  3  0  0  0  0  0  0
  185.6610  178.6530  146.7400 C   0  0  0  0  0  3  0  0  0  0  0  0
  185.3230  179.3370  142.3550 C   0  0  0  0  0  2  0  0  0  0  0  0
  185.9160  179.0250  141.0010 C   0  0  1  0  0  3  0  0  0  0  0  0
  185.9850  177.9930  142.1140 C   0  0  1  0  0  3  0  0  0  0  0  0
  184.8000  178.6480  140.0460 C   0  0  0  0  0  2  0  0  0  0  0  0
  185.3520  178.3670  138.6540 C   0  0  0  0  0  2  0  0  0  0  0  0
  187.5980  175.6860  137.2440 C   0  0  0  0  0  2  0  0  0  0  0  0
  189.0200  178.5160  137.7780 C   0  0  0  0  0  2  0  0  0  0  0  0
  186.7650  178.6680  138.5820 N   0  0  0  0  0  0  0  0  0  0  0  0
  189.9500  177.3280  137.9960 C   0  0  0  0  0  2  0  0  0  0  0  0
  190.0120  176.4820  136.7320 C   0  0  0  0  0  2  0  0  0  0  0  0
  187.5790  178.1040  137.7540 C   0  0  0  0  0  0  0  0  0  0  0  0
  187.1190  177.0530  136.7790 C   0  0  0  0  0  2  0  0  0  0  0  0
  188.9980  175.3320  136.7310 C   0  0  0  0  0  2  0  0  0  0  0  0
  1 12  1  0  0  0  0
  2  1  1  0  0  0  0
  3  1  2  0  0  0  0
  4  8  1  0  0  0  0
  5  7  2  0  0  0  0
  6  9  2  0  0  0  0
  6  5  1  0  0  0  0
  7  4  1  0  0  0  0
  9 10  1  0  0  0  0
  9 11  1  0  0  0  0
 10 11  1  0  0  0  0
 10  2  1  1  0  0  0
 11  4  2  0  0  0  0
 12 17  2  0  0  0  0
 12 14  1  0  0  0  0
 14 15  2  0  0  0  0
 15 13  1  0  0  0  0
 16 14  1  0  0  0  0
 17 18  1  0  0  0  0
 18 13  2  0  0  0  0
 20 22  1  6  0  0  0
 20 21  1  0  0  0  0
 20 19  1  0  0  0  0
 21 19  1  0  0  0  0
 21  2  1  1  0  0  0
 23 22  1  0  0  0  0
 25 27  1  0  0  0  0
 26 23  1  0  0  0  0
 28 27  1  0  0  0  0
 29 25  1  0  0  0  0
 29 26  2  0  0  0  0
 30 24  1  0  0  0  0
 30 29  1  0  0  0  0
 31 28  1  0  0  0  0
 31 24  1  0  0  0  0
M  END
>  <MODEL>
2

>  <REMARK>
 VINA RESULT:      -9.7      1.723      3.664
  Name = 
  6 active torsions:
  status: ('A' for Active; 'I' for Inactive)
    1  A    between atoms: C_3  and  C_13
    2  A    between atoms: C_10  and  N_15
    3  A    between atoms: C_10  and  C_28
    4  A    between atoms: C_14  and  C_28
    5  A    between atoms: N_16  and  C_18
    6  A    between atoms: N_16  and  C_21
                            x       y       z     vdW  Elec       q    Type
                         _______ _______ _______ _____ _____    ______ ____

>  <TORSDO>
F 6

$$$$
=
 OpenBabel11032419293D

 31 35  0  0  1  0  0  0  0  0999 V2000
  187.3350  177.4200  144.6840 C   0  0  0  0  0  0  0  0  0  0  0  0
  188.4930  177.7820  143.9130 N   0  0  0  0  0  0  0  0  0  0  0  0
  187.4700  176.6320  145.6570 O   0  0  0  0  0  0  0  0  0  0  0  0
  189.8160  177.4660  147.1910 C   0  0  0  0  0  0  0  0  0  0  0  0
  191.7670  176.1150  146.2060 C   0  0  0  0  0  3  0  0  0  0  0  0
  191.6490  176.6080  144.9060 N   0  0  0  0  0  0  0  0  0  0  0  0
  190.8930  176.5160  147.3270 C   0  0  0  0  0  3  0  0  0  0  0  0
  188.9120  177.8900  148.2920 C   0  0  0  0  0  1  0  0  0  0  0  0
  190.6430  177.4760  144.8600 C   0  0  0  0  0  0  0  0  0  0  0  0
  189.6280  178.4120  144.5970 C   0  0  2  0  0  3  0  0  0  0  0  0
  189.7460  177.9150  145.9110 C   0  0  0  0  0  0  0  0  0  0  0  0
  186.0110  178.0060  144.3620 C   0  0  0  0  0  0  0  0  0  0  0  0
  183.5170  179.0820  143.6230 C   0  0  0  0  0  3  0  0  0  0  0  0
  185.2270  178.7160  145.3060 C   0  0  0  0  0  0  0  0  0  0  0  0
  183.9890  179.2450  144.9260 C   0  0  0  0  0  3  0  0  0  0  0  0
  185.6510  178.9060  146.7230 C   0  0  0  0  0  1  0  0  0  0  0  0
  185.5200  177.8560  143.0540 C   0  0  0  0  0  3  0  0  0  0  0  0
  184.2830  178.3890  142.6860 C   0  0  0  0  0  3  0  0  0  0  0  0
  188.2510  177.7160  141.4760 C   0  0  0  0  0  2  0  0  0  0  0  0
  189.7280  177.7340  141.7940 C   0  0  1  0  0  3  0  0  0  0  0  0
  188.7650  176.9960  142.7080 C   0  0  1  0  0  3  0  0  0  0  0  0
  190.4380  176.7290  140.9080 C   0  0  0  0  0  2  0  0  0  0  0  0
  190.8630  177.3710  139.5930 C   0  0  0  0  0  2  0  0  0  0  0  0
  190.6780  174.3680  137.3200 C   0  0  0  0  0  2  0  0  0  0  0  0
  193.6090  175.6350  137.6700 C   0  0  0  0  0  2  0  0  0  0  0  0
  192.1190  176.8240  139.1280 N   0  0  0  0  0  0  0  0  0  0  0  0
  193.6290  174.1220  137.4830 C   0  0  0  0  0  2  0  0  0  0  0  0
  192.9260  173.7540  136.1830 C   0  0  0  0  0  2  0  0  0  0  0  0
  192.2460  176.1360  138.0430 C   0  0  0  0  0  0  0  0  0  0  0  0
  191.0690  175.8290  137.1560 C   0  0  0  0  0  2  0  0  0  0  0  0
  191.4400  173.4310  136.3770 C   0  0  0  0  0  2  0  0  0  0  0  0
  1  3  2  0  0  0  0
  2  1  1  0  0  0  0
  4  7  1  0  0  0  0
  4  8  1  0  0  0  0
  5  7  2  0  0  0  0
  6  5  1  0  0  0  0
  9  6  2  0  0  0  0
  9 11  1  0  0  0  0
 10  2  1  6  0  0  0
 10  9  1  0  0  0  0
 10 11  1  0  0  0  0
 11  4  2  0  0  0  0
 12  1  1  0  0  0  0
 12 14  1  0  0  0  0
 13 15  1  0  0  0  0
 14 16  1  0  0  0  0
 15 14  2  0  0  0  0
 17 12  2  0  0  0  0
 18 17  1  0  0  0  0
 18 13  2  0  0  0  0
 19 20  1  0  0  0  0
 19 21  1  0  0  0  0
 20 22  1  6  0  0  0
 20 21  1  0  0  0  0
 21  2  1  1  0  0  0
 23 22  1  0  0  0  0
 25 29  1  0  0  0  0
 26 23  1  0  0  0  0
 27 25  1  0  0  0  0
 28 31  1  0  0  0  0
 28 27  1  0  0  0  0
 29 26  2  0  0  0  0
 30 24  1  0  0  0  0
 30 29  1  0  0  0  0
 31 24  1  0  0  0  0
M  END
>  <MODEL>
3

>  <REMARK>
 VINA RESULT:      -9.5      1.587      2.384
  Name = 
  6 active torsions:
  status: ('A' for Active; 'I' for Inactive)
    1  A    between atoms: C_3  and  C_13
    2  A    between atoms: C_10  and  N_15
    3  A    between atoms: C_10  and  C_28
    4  A    between atoms: C_14  and  C_28
    5  A    between atoms: N_16  and  C_18
    6  A    between atoms: N_16  and  C_21
                            x       y       z     vdW  Elec       q    Type
                         _______ _______ _______ _____ _____    ______ ____

>  <TORSDO>
F 6

$$$$
=
 OpenBabel11032419293D

 31 35  0  0  1  0  0  0  0  0999 V2000
  187.2830  177.2470  144.2380 C   0  0  0  0  0  0  0  0  0  0  0  0
  187.4630  178.2210  143.1960 N   0  0  0  0  0  0  0  0  0  0  0  0
  187.0900  176.0430  143.9230 O   0  0  0  0  0  0  0  0  0  0  0  0
  190.9980  178.2620  143.5030 C   0  0  0  0  0  0  0  0  0  0  0  0
  190.9840  175.7020  143.2790 C   0  0  0  0  0  3  0  0  0  0  0  0
  189.7470  175.6150  142.6390 N   0  0  0  0  0  0  0  0  0  0  0  0
  191.6090  176.9710  143.7050 C   0  0  0  0  0  3  0  0  0  0  0  0
  191.5910  179.5580  143.9220 C   0  0  0  0  0  1  0  0  0  0  0  0
  189.2500  176.8380  142.4850 C   0  0  0  0  0  0  0  0  0  0  0  0
  188.5510  178.0310  142.2310 C   0  0  2  0  0  3  0  0  0  0  0  0
  189.8010  178.1210  142.8770 C   0  0  0  0  0  0  0  0  0  0  0  0
  187.3740  177.6520  145.6620 C   0  0  0  0  0  0  0  0  0  0  0  0
  187.6710  178.3720  148.3680 C   0  0  0  0  0  3  0  0  0  0  0  0
  186.2850  178.2080  146.3800 C   0  0  0  0  0  0  0  0  0  0  0  0
  186.4470  178.5620  147.7240 C   0  0  0  0  0  3  0  0  0  0  0  0
  184.9560  178.4670  145.7550 C   0  0  0  0  0  1  0  0  0  0  0  0
  188.5960  177.4660  146.3280 C   0  0  0  0  0  3  0  0  0  0  0  0
  188.7460  177.8220  147.6690 C   0  0  0  0  0  3  0  0  0  0  0  0
  186.1390  178.8980  141.2480 C   0  0  0  0  0  2  0  0  0  0  0  0
  185.2710  178.0140  142.1120 C   0  0  1  0  0  3  0  0  0  0  0  0
  186.2740  178.9560  142.7580 C   0  0  1  0  0  3  0  0  0  0  0  0
  183.8870  178.6240  142.2110 C   0  0  0  0  0  2  0  0  0  0  0  0
  183.0220  178.1980  141.0310 C   0  0  0  0  0  2  0  0  0  0  0  0
  182.2110  180.9540  138.5880 C   0  0  0  0  0  2  0  0  0  0  0  0
  179.7320  179.9200  140.3510 C   0  0  0  0  0  2  0  0  0  0  0  0
  181.7010  178.7800  141.1160 N   0  0  0  0  0  0  0  0  0  0  0  0
  179.6540  181.4070  140.0210 C   0  0  0  0  0  2  0  0  0  0  0  0
  179.7010  181.6030  138.5120 C   0  0  0  0  0  2  0  0  0  0  0  0
  181.1090  179.3680  140.1310 C   0  0  0  0  0  0  0  0  0  0  0  0
  181.7640  179.5130  138.7830 C   0  0  0  0  0  2  0  0  0  0  0  0
  181.1200  181.8450  137.9840 C   0  0  0  0  0  2  0  0  0  0  0  0
  1 12  1  0  0  0  0
  2  1  1  0  0  0  0
  3  1  2  0  0  0  0
  4  7  1  0  0  0  0
  4  8  1  0  0  0  0
  5  7  2  0  0  0  0
  6  5  1  0  0  0  0
  9  6  2  0  0  0  0
  9 11  1  0  0  0  0
 10  9  1  0  0  0  0
 10 11  1  0  0  0  0
 10  2  1  1  0  0  0
 11  4  2  0  0  0  0
 12 17  2  0  0  0  0
 12 14  1  0  0  0  0
 14 15  2  0  0  0  0
 15 13  1  0  0  0  0
 16 14  1  0  0  0  0
 17 18  1  0  0  0  0
 18 13  2  0  0  0  0
 19 20  1  0  0  0  0
 19 21  1  0  0  0  0
 20 22  1  1  0  0  0
 20 21  1  0  0  0  0
 21  2  1  6  0  0  0
 23 26  1  0  0  0  0
 23 22  1  0  0  0  0
 24 30  1  0  0  0  0
 27 25  1  0  0  0  0
 28 27  1  0  0  0  0
 29 25  1  0  0  0  0
 29 26  2  0  0  0  0
 30 29  1  0  0  0  0
 31 28  1  0  0  0  0
 31 24  1  0  0  0  0
M  END
>  <MODEL>
4

>  <REMARK>
 VINA RESULT:      -9.4      3.251      5.847
  Name = 
  6 active torsions:
  status: ('A' for Active; 'I' for Inactive)
    1  A    between atoms: C_3  and  C_13
    2  A    between atoms: C_10  and  N_15
    3  A    between atoms: C_10  and  C_28
    4  A    between atoms: C_14  and  C_28
    5  A    between atoms: N_16  and  C_18
    6  A    between atoms: N_16  and  C_21
                            x       y       z     vdW  Elec       q    Type
                         _______ _______ _______ _____ _____    ______ ____

>  <TORSDO>
F 6

$$$$
=
 OpenBabel11032419293D

 31 35  0  0  1  0  0  0  0  0999 V2000
  187.4560  178.6250  137.4040 C   0  0  0  0  0  0  0  0  0  0  0  0
  188.6690  177.9410  137.7620 N   0  0  0  0  0  0  0  0  0  0  0  0
  187.5280  179.6710  136.7070 O   0  0  0  0  0  0  0  0  0  0  0  0
  191.7010  176.0960  137.7720 C   0  0  0  0  0  0  0  0  0  0  0  0
  190.3880  174.0560  136.9240 C   0  0  0  0  0  3  0  0  0  0  0  0
  189.3200  174.7760  136.3890 N   0  0  0  0  0  0  0  0  0  0  0  0
  191.5500  174.6710  137.5970 C   0  0  0  0  0  3  0  0  0  0  0  0
  192.8500  176.7530  138.4480 C   0  0  0  0  0  1  0  0  0  0  0  0
  189.5310  176.0740  136.5840 C   0  0  0  0  0  0  0  0  0  0  0  0
  189.5590  177.4750  136.6920 C   0  0  2  0  0  3  0  0  0  0  0  0
  190.6390  176.7480  137.2340 C   0  0  0  0  0  0  0  0  0  0  0  0
  186.1410  178.0750  137.8130 C   0  0  0  0  0  0  0  0  0  0  0  0
  183.6460  177.1140  138.6960 C   0  0  0  0  0  3  0  0  0  0  0  0
  185.5030  177.0060  137.1350 C   0  0  0  0  0  0  0  0  0  0  0  0
  184.2620  176.5390  137.5830 C   0  0  0  0  0  3  0  0  0  0  0  0
  186.0850  176.3600  135.9230 C   0  0  0  0  0  1  0  0  0  0  0  0
  185.5060  178.6380  138.9320 C   0  0  0  0  0  3  0  0  0  0  0  0
  184.2680  178.1640  139.3710 C   0  0  0  0  0  3  0  0  0  0  0  0
  188.1820  178.4680  140.1050 C   0  0  0  0  0  2  0  0  0  0  0  0
  188.9690  177.1790  140.0740 C   0  0  1  0  0  3  0  0  0  0  0  0
  189.2630  178.2700  139.0580 C   0  0  1  0  0  3  0  0  0  0  0  0
  190.0260  177.2190  141.1610 C   0  0  0  0  0  2  0  0  0  0  0  0
  189.6160  176.3520  142.3460 C   0  0  0  0  0  2  0  0  0  0  0  0
  189.3840  177.1290  146.0290 C   0  0  0  0  0  2  0  0  0  0  0  0
  186.7440  177.7980  144.3240 C   0  0  0  0  0  2  0  0  0  0  0  0
  188.3180  176.7430  142.8520 N   0  0  0  0  0  0  0  0  0  0  0  0
  186.4390  177.3480  145.7490 C   0  0  0  0  0  2  0  0  0  0  0  0
  187.1570  178.2520  146.7410 C   0  0  0  0  0  2  0  0  0  0  0  0
  188.1450  177.4550  143.9150 C   0  0  0  0  0  0  0  0  0  0  0  0
  189.3050  177.9390  144.7440 C   0  0  0  0  0  2  0  0  0  0  0  0
  188.5290  177.7110  147.1610 C   0  0  0  0  0  2  0  0  0  0  0  0
  1  2  1  0  0  0  0
  1 12  1  0  0  0  0
  3  1  2  0  0  0  0
  4  8  1  0  0  0  0
  5  7  2  0  0  0  0
  6  9  2  0  0  0  0
  6  5  1  0  0  0  0
  7  4  1  0  0  0  0
  9 10  1  0  0  0  0
  9 11  1  0  0  0  0
 10 11  1  0  0  0  0
 10  2  1  1  0  0  0
 11  4  2  0  0  0  0
 12 17  1  0  0  0  0
 13 18  1  0  0  0  0
 14 15  1  0  0  0  0
 14 12  2  0  0  0  0
 15 13  2  0  0  0  0
 16 14  1  0  0  0  0
 17 18  2  0  0  0  0
 20 19  1  0  0  0  0
 20 22  1  1  0  0  0
 21  2  1  6  0  0  0
 21 20  1  0  0  0  0
 21 19  1  0  0  0  0
 22 23  1  0  0  0  0
 23 26  1  0  0  0  0
 24 31  1  0  0  0  0
 25 27  1  0  0  0  0
 26 29  2  0  0  0  0
 27 28  1  0  0  0  0
 28 31  1  0  0  0  0
 29 25  1  0  0  0  0
 29 30  1  0  0  0  0
 30 24  1  0  0  0  0
M  END
>  <MODEL>
5

>  <REMARK>
 VINA RESULT:      -9.3      2.580      7.767
  Name = 
  6 active torsions:
  status: ('A' for Active; 'I' for Inactive)
    1  A    between atoms: C_3  and  C_13
    2  A    between atoms: C_10  and  N_15
    3  A    between atoms: C_10  and  C_28
    4  A    between atoms: C_14  and  C_28
    5  A    between atoms: N_16  and  C_18
    6  A    between atoms: N_16  and  C_21
                            x       y       z     vdW  Elec       q    Type
                         _______ _______ _______ _____ _____    ______ ____

>  <TORSDO>
F 6

$$$$
=
 OpenBabel11032419293D

 31 35  0  0  1  0  0  0  0  0999 V2000
  187.9600  177.0400  142.7470 C   0  0  0  0  0  0  0  0  0  0  0  0
  188.7560  177.8860  141.9000 N   0  0  0  0  0  0  0  0  0  0  0  0
  187.9830  175.7940  142.5620 O   0  0  0  0  0  0  0  0  0  0  0  0
  191.3990  178.5230  144.1820 C   0  0  0  0  0  0  0  0  0  0  0  0
  191.5040  176.0010  144.6660 C   0  0  0  0  0  3  0  0  0  0  0  0
  190.8980  175.5950  143.4760 N   0  0  0  0  0  0  0  0  0  0  0  0
  191.7570  177.4100  145.0280 C   0  0  0  0  0  3  0  0  0  0  0  0
  191.6310  179.9520  144.5130 C   0  0  0  0  0  1  0  0  0  0  0  0
  190.6020  176.6690  142.7510 C   0  0  0  0  0  0  0  0  0  0  0  0
  190.2050  177.6610  141.8390 C   0  0  2  0  0  3  0  0  0  0  0  0
  190.8170  178.0730  143.0400 C   0  0  0  0  0  0  0  0  0  0  0  0
  187.1650  177.6270  143.8530 C   0  0  0  0  0  0  0  0  0  0  0  0
  185.7540  178.7090  146.0360 C   0  0  0  0  0  3  0  0  0  0  0  0
  185.8490  178.1250  143.6810 C   0  0  0  0  0  0  0  0  0  0  0  0
  185.1590  178.6620  144.7740 C   0  0  0  0  0  3  0  0  0  0  0  0
  185.1580  178.1350  142.3590 C   0  0  0  0  0  1  0  0  0  0  0  0
  187.7440  177.6800  145.1310 C   0  0  0  0  0  3  0  0  0  0  0  0
  187.0470  178.2170  146.2150 C   0  0  0  0  0  3  0  0  0  0  0  0
  189.1000  178.6900  139.6110 C   0  0  0  0  0  2  0  0  0  0  0  0
  188.1650  177.5060  139.5500 C   0  0  1  0  0  3  0  0  0  0  0  0
  188.0980  178.4640  140.7270 C   0  0  1  0  0  3  0  0  0  0  0  0
  187.0320  177.8190  138.5920 C   0  0  0  0  0  2  0  0  0  0  0  0
  187.2740  177.1690  137.2350 C   0  0  0  0  0  2  0  0  0  0  0  0
  183.8860  175.5150  137.3200 C   0  0  0  0  0  2  0  0  0  0  0  0
  186.3810  173.5040  137.0900 C   0  0  0  0  0  2  0  0  0  0  0  0
  187.2520  175.7260  137.3380 N   0  0  0  0  0  0  0  0  0  0  0  0
  185.2180  172.9260  137.8880 C   0  0  0  0  0  2  0  0  0  0  0  0
  183.9540  172.9370  137.0380 C   0  0  0  0  0  2  0  0  0  0  0  0
  186.2710  174.9910  136.9350 C   0  0  0  0  0  0  0  0  0  0  0  0
  185.0320  175.5880  136.3210 C   0  0  0  0  0  2  0  0  0  0  0  0
  183.1050  174.1980  137.2450 C   0  0  0  0  0  2  0  0  0  0  0  0
  1 12  1  0  0  0  0
  2  1  1  0  0  0  0
  3  1  2  0  0  0  0
  4  8  1  0  0  0  0
  4  7  1  0  0  0  0
  5  7  2  0  0  0  0
  6  5  1  0  0  0  0
  9 11  1  0  0  0  0
  9  6  2  0  0  0  0
 10  2  1  1  0  0  0
 10  9  1  0  0  0  0
 10 11  1  0  0  0  0
 11  4  2  0  0  0  0
 12 17  1  0  0  0  0
 13 18  1  0  0  0  0
 14 12  2  0  0  0  0
 14 15  1  0  0  0  0
 15 13  2  0  0  0  0
 16 14  1  0  0  0  0
 17 18  2  0  0  0  0
 19 21  1  0  0  0  0
 20 22  1  6  0  0  0
 20 19  1  0  0  0  0
 20 21  1  0  0  0  0
 21  2  1  1  0  0  0
 23 26  1  0  0  0  0
 23 22  1  0  0  0  0
 25 27  1  0  0  0  0
 28 31  1  0  0  0  0
 28 27  1  0  0  0  0
 29 25  1  0  0  0  0
 29 26  2  0  0  0  0
 30 29  1  0  0  0  0
 30 24  1  0  0  0  0
 31 24  1  0  0  0  0
M  END
>  <MODEL>
6

>  <REMARK>
 VINA RESULT:      -9.0      2.528      3.641
  Name = 
  6 active torsions:
  status: ('A' for Active; 'I' for Inactive)
    1  A    between atoms: C_3  and  C_13
    2  A    between atoms: C_10  and  N_15
    3  A    between atoms: C_10  and  C_28
    4  A    between atoms: C_14  and  C_28
    5  A    between atoms: N_16  and  C_18
    6  A    between atoms: N_16  and  C_21
                            x       y       z     vdW  Elec       q    Type
                         _______ _______ _______ _____ _____    ______ ____

>  <TORSDO>
F 6

$$$$
=
 OpenBabel11032419293D

 31 35  0  0  1  0  0  0  0  0999 V2000
  187.7380  177.1160  143.9480 C   0  0  0  0  0  0  0  0  0  0  0  0
  187.3310  178.0420  142.9270 N   0  0  0  0  0  0  0  0  0  0  0  0
  188.2060  175.9970  143.6080 O   0  0  0  0  0  0  0  0  0  0  0  0
  190.8270  178.6310  143.0810 C   0  0  0  0  0  0  0  0  0  0  0  0
  191.1900  176.4290  141.8070 C   0  0  0  0  0  3  0  0  0  0  0  0
  189.9170  176.3730  141.2400 N   0  0  0  0  0  0  0  0  0  0  0  0
  191.6540  177.5110  142.6990 C   0  0  0  0  0  3  0  0  0  0  0  0
  191.2540  179.7350  143.9800 C   0  0  0  0  0  1  0  0  0  0  0  0
  189.2190  177.4340  141.6320 C   0  0  0  0  0  0  0  0  0  0  0  0
  188.3170  178.4700  141.9280 C   0  0  2  0  0  3  0  0  0  0  0  0
  189.6030  178.5290  142.5020 C   0  0  0  0  0  0  0  0  0  0  0  0
  187.6500  177.4970  145.3790 C   0  0  0  0  0  0  0  0  0  0  0  0
  187.3600  178.2650  148.0720 C   0  0  0  0  0  3  0  0  0  0  0  0
  188.7390  177.3810  146.2800 C   0  0  0  0  0  0  0  0  0  0  0  0
  188.5800  177.7650  147.6160 C   0  0  0  0  0  3  0  0  0  0  0  0
  190.0640  176.8300  145.8750 C   0  0  0  0  0  1  0  0  0  0  0  0
  186.4310  178.0050  145.8570 C   0  0  0  0  0  3  0  0  0  0  0  0
  186.2840  178.3860  147.1920 C   0  0  0  0  0  3  0  0  0  0  0  0
  185.2850  179.3850  142.8030 C   0  0  0  0  0  2  0  0  0  0  0  0
  185.6700  178.9970  141.3950 C   0  0  1  0  0  3  0  0  0  0  0  0
  185.9190  178.0310  142.5410 C   0  0  1  0  0  3  0  0  0  0  0  0
  184.4270  178.5620  140.6430 C   0  0  0  0  0  2  0  0  0  0  0  0
  184.4370  179.1060  139.2200 C   0  0  0  0  0  2  0  0  0  0  0  0
  181.5590  178.9190  136.7900 C   0  0  0  0  0  2  0  0  0  0  0  0
  181.6120  181.5430  138.6420 C   0  0  0  0  0  2  0  0  0  0  0  0
  183.6000  180.2800  139.1050 N   0  0  0  0  0  0  0  0  0  0  0  0
  181.0440  181.8030  137.2520 C   0  0  0  0  0  2  0  0  0  0  0  0
  179.8660  180.8730  136.9940 C   0  0  0  0  0  2  0  0  0  0  0  0
  182.3730  180.2530  138.7050 C   0  0  0  0  0  0  0  0  0  0  0  0
  181.6970  178.9680  138.3050 C   0  0  0  0  0  2  0  0  0  0  0  0
  180.2710  179.5770  136.2820 C   0  0  0  0  0  2  0  0  0  0  0  0
  1 12  1  0  0  0  0
  2  1  1  0  0  0  0
  3  1  2  0  0  0  0
  4  8  1  0  0  0  0
  5  7  2  0  0  0  0
  6  9  2  0  0  0  0
  6  5  1  0  0  0  0
  7  4  1  0  0  0  0
  9 10  1  0  0  0  0
  9 11  1  0  0  0  0
 10 11  1  0  0  0  0
 10  2  1  1  0  0  0
 11  4  2  0  0  0  0
 12 17  2  0  0  0  0
 12 14  1  0  0  0  0
 14 15  2  0  0  0  0
 15 13  1  0  0  0  0
 16 14  1  0  0  0  0
 17 18  1  0  0  0  0
 18 13  2  0  0  0  0
 20 22  1  6  0  0  0
 20 21  1  0  0  0  0
 20 19  1  0  0  0  0
 21 19  1  0  0  0  0
 21  2  1  1  0  0  0
 23 22  1  0  0  0  0
 24 30  1  0  0  0  0
 25 29  1  0  0  0  0
 26 23  1  0  0  0  0
 27 25  1  0  0  0  0
 28 27  1  0  0  0  0
 29 26  2  0  0  0  0
 30 29  1  0  0  0  0
 31 24  1  0  0  0  0
 31 28  1  0  0  0  0
M  END
>  <MODEL>
7

>  <REMARK>
 VINA RESULT:      -8.9      3.545      5.563
  Name = 
  6 active torsions:
  status: ('A' for Active; 'I' for Inactive)
    1  A    between atoms: C_3  and  C_13
    2  A    between atoms: C_10  and  N_15
    3  A    between atoms: C_10  and  C_28
    4  A    between atoms: C_14  and  C_28
    5  A    between atoms: N_16  and  C_18
    6  A    between atoms: N_16  and  C_21
                            x       y       z     vdW  Elec       q    Type
                         _______ _______ _______ _____ _____    ______ ____

>  <TORSDO>
F 6

$$$$
=
 OpenBabel11032419293D

 31 35  0  0  1  0  0  0  0  0999 V2000
  187.3330  177.2850  144.3250 C   0  0  0  0  0  0  0  0  0  0  0  0
  187.5490  178.2540  143.2850 N   0  0  0  0  0  0  0  0  0  0  0  0
  187.0550  176.0980  144.0070 O   0  0  0  0  0  0  0  0  0  0  0  0
  191.0910  178.1550  143.4880 C   0  0  0  0  0  0  0  0  0  0  0  0
  190.9660  175.5940  143.3140 C   0  0  0  0  0  3  0  0  0  0  0  0
  189.7080  175.5460  142.7130 N   0  0  0  0  0  0  0  0  0  0  0  0
  191.6550  176.8430  143.6970 C   0  0  0  0  0  3  0  0  0  0  0  0
  191.7480  179.4330  143.8640 C   0  0  0  0  0  1  0  0  0  0  0  0
  189.2570  176.7850  142.5490 C   0  0  0  0  0  0  0  0  0  0  0  0
  188.6000  178.0010  142.2920 C   0  0  2  0  0  3  0  0  0  0  0  0
  189.8710  178.0510  142.9000 C   0  0  0  0  0  0  0  0  0  0  0  0
  187.4830  177.6730  145.7490 C   0  0  0  0  0  0  0  0  0  0  0  0
  187.8960  178.3630  148.4470 C   0  0  0  0  0  3  0  0  0  0  0  0
  186.4180  178.1900  146.5280 C   0  0  0  0  0  0  0  0  0  0  0  0
  186.6370  178.5290  147.8680 C   0  0  0  0  0  3  0  0  0  0  0  0
  185.0530  178.4220  145.9730 C   0  0  0  0  0  1  0  0  0  0  0  0
  188.7420  177.5100  146.3510 C   0  0  0  0  0  3  0  0  0  0  0  0
  188.9490  177.8520  147.6880 C   0  0  0  0  0  3  0  0  0  0  0  0
  186.1620  178.9460  141.3870 C   0  0  0  0  0  2  0  0  0  0  0  0
  185.2820  178.1850  142.3500 C   0  0  1  0  0  3  0  0  0  0  0  0
  186.4000  179.0660  142.8810 C   0  0  1  0  0  3  0  0  0  0  0  0
  183.9620  178.9170  142.4990 C   0  0  0  0  0  2  0  0  0  0  0  0
  182.8680  178.2320  141.6890 C   0  0  0  0  0  2  0  0  0  0  0  0
  182.7240  175.5750  139.0170 C   0  0  0  0  0  2  0  0  0  0  0  0
  182.4550  178.5950  137.9550 C   0  0  0  0  0  2  0  0  0  0  0  0
  182.8770  178.6840  140.3150 N   0  0  0  0  0  0  0  0  0  0  0  0
  183.1710  177.6750  136.9720 C   0  0  0  0  0  2  0  0  0  0  0  0
  182.2790  176.4890  136.6310 C   0  0  0  0  0  2  0  0  0  0  0  0
  182.3920  178.0040  139.3310 C   0  0  0  0  0  0  0  0  0  0  0  0
  181.7740  176.6460  139.5330 C   0  0  0  0  0  2  0  0  0  0  0  0
  182.5360  175.2710  137.5270 C   0  0  0  0  0  2  0  0  0  0  0  0
  1 12  1  0  0  0  0
  2  1  1  0  0  0  0
  3  1  2  0  0  0  0
  4  7  1  0  0  0  0
  4  8  1  0  0  0  0
  5  7  2  0  0  0  0
  6  5  1  0  0  0  0
  9  6  2  0  0  0  0
  9 11  1  0  0  0  0
 10  9  1  0  0  0  0
 10 11  1  0  0  0  0
 10  2  1  1  0  0  0
 11  4  2  0  0  0  0
 12 17  2  0  0  0  0
 12 14  1  0  0  0  0
 14 15  2  0  0  0  0
 15 13  1  0  0  0  0
 16 14  1  0  0  0  0
 17 18  1  0  0  0  0
 18 13  2  0  0  0  0
 19 20  1  0  0  0  0
 19 21  1  0  0  0  0
 20 22  1  1  0  0  0
 20 21  1  0  0  0  0
 21  2  1  6  0  0  0
 23 22  1  0  0  0  0
 24 30  1  0  0  0  0
 25 29  1  0  0  0  0
 26 23  1  0  0  0  0
 27 25  1  0  0  0  0
 28 27  1  0  0  0  0
 28 31  1  0  0  0  0
 29 30  1  0  0  0  0
 29 26  2  0  0  0  0
 31 24  1  0  0  0  0
M  END
>  <MODEL>
8

>  <REMARK>
 VINA RESULT:      -8.9      2.872      5.018
  Name = 
  6 active torsions:
  status: ('A' for Active; 'I' for Inactive)
    1  A    between atoms: C_3  and  C_13
    2  A    between atoms: C_10  and  N_15
    3  A    between atoms: C_10  and  C_28
    4  A    between atoms: C_14  and  C_28
    5  A    between atoms: N_16  and  C_18
    6  A    between atoms: N_16  and  C_21
                            x       y       z     vdW  Elec       q    Type
                         _______ _______ _______ _____ _____    ______ ____

>  <TORSDO>
F 6

$$$$
=
 OpenBabel11032419293D

 31 35  0  0  1  0  0  0  0  0999 V2000
  188.0570  177.1860  143.5270 C   0  0  0  0  0  0  0  0  0  0  0  0
  187.4400  178.1310  142.6370 N   0  0  0  0  0  0  0  0  0  0  0  0
  188.6610  176.1920  143.0410 O   0  0  0  0  0  0  0  0  0  0  0  0
  190.5540  177.3160  141.1430 C   0  0  0  0  0  0  0  0  0  0  0  0
  189.2890  176.6940  138.9950 C   0  0  0  0  0  3  0  0  0  0  0  0
  188.1490  177.4520  139.2680 N   0  0  0  0  0  0  0  0  0  0  0  0
  190.4640  176.6140  139.8860 C   0  0  0  0  0  3  0  0  0  0  0  0
  191.7150  177.2570  142.0690 C   0  0  0  0  0  1  0  0  0  0  0  0
  188.3070  178.0700  140.4340 C   0  0  0  0  0  0  0  0  0  0  0  0
  188.2720  178.8030  141.6330 C   0  0  2  0  0  3  0  0  0  0  0  0
  189.4240  178.0380  141.3590 C   0  0  0  0  0  0  0  0  0  0  0  0
  188.0220  177.4080  144.9930 C   0  0  0  0  0  0  0  0  0  0  0  0
  187.8220  177.8390  147.7690 C   0  0  0  0  0  3  0  0  0  0  0  0
  189.1910  177.5460  145.7840 C   0  0  0  0  0  0  0  0  0  0  0  0
  189.0770  177.7590  147.1630 C   0  0  0  0  0  3  0  0  0  0  0  0
  190.5650  177.4450  145.2150 C   0  0  0  0  0  1  0  0  0  0  0  0
  186.7690  177.4950  145.6210 C   0  0  0  0  0  3  0  0  0  0  0  0
  186.6670  177.7080  146.9980 C   0  0  0  0  0  3  0  0  0  0  0  0
  185.1700  178.9100  143.1320 C   0  0  0  0  0  2  0  0  0  0  0  0
  185.4400  179.1710  141.6690 C   0  0  1  0  0  3  0  0  0  0  0  0
  186.0200  177.9360  142.3380 C   0  0  1  0  0  3  0  0  0  0  0  0
  184.2220  178.7680  140.8610 C   0  0  0  0  0  2  0  0  0  0  0  0
  184.2130  179.4700  139.5080 C   0  0  0  0  0  2  0  0  0  0  0  0
  183.1350  175.9900  138.5340 C   0  0  0  0  0  2  0  0  0  0  0  0
  185.5840  177.1860  136.8340 C   0  0  0  0  0  2  0  0  0  0  0  0
  185.0440  178.7710  138.5530 N   0  0  0  0  0  0  0  0  0  0  0  0
  185.6720  175.6770  137.0300 C   0  0  0  0  0  2  0  0  0  0  0  0
  184.4090  175.0130  136.4980 C   0  0  0  0  0  2  0  0  0  0  0  0
  184.6190  177.8210  137.7890 C   0  0  0  0  0  0  0  0  0  0  0  0
  183.1920  177.3420  137.8380 C   0  0  0  0  0  2  0  0  0  0  0  0
  183.3380  174.8110  137.5770 C   0  0  0  0  0  2  0  0  0  0  0  0
  1 12  1  0  0  0  0
  2  1  1  0  0  0  0
  3  1  2  0  0  0  0
  4 11  1  0  0  0  0
  4  8  1  0  0  0  0
  5  6  2  0  0  0  0
  5  7  1  0  0  0  0
  6  9  1  0  0  0  0
  7  4  2  0  0  0  0
  9 11  2  0  0  0  0
  9 10  1  0  0  0  0
 10  2  1  1  0  0  0
 11 10  1  0  0  0  0
 12 17  2  0  0  0  0
 12 14  1  0  0  0  0
 14 15  2  0  0  0  0
 15 13  1  0  0  0  0
 16 14  1  0  0  0  0
 17 18  1  0  0  0  0
 18 13  2  0  0  0  0
 20 22  1  6  0  0  0
 20 21  1  0  0  0  0
 20 19  1  0  0  0  0
 21  2  1  1  0  0  0
 21 19  1  0  0  0  0
 23 22  1  0  0  0  0
 25 27  1  0  0  0  0
 25 29  1  0  0  0  0
 26 23  1  0  0  0  0
 28 27  1  0  0  0  0
 28 31  1  0  0  0  0
 29 30  1  0  0  0  0
 29 26  2  0  0  0  0
 30 24  1  0  0  0  0
 31 24  1  0  0  0  0
M  END
>  <MODEL>
9

>  <REMARK>
 VINA RESULT:      -8.8      2.515      5.091
  Name = 
  6 active torsions:
  status: ('A' for Active; 'I' for Inactive)
    1  A    between atoms: C_3  and  C_13
    2  A    between atoms: C_10  and  N_15
    3  A    between atoms: C_10  and  C_28
    4  A    between atoms: C_14  and  C_28
    5  A    between atoms: N_16  and  C_18
    6  A    between atoms: N_16  and  C_21
                            x       y       z     vdW  Elec       q    Type
                         _______ _______ _______ _____ _____    ______ ____

>  <TORSDO>
F 6

$$$$
