=
 OpenBabel11042412013D

 28 30  0  0  1  0  0  0  0  0999 V2000
  188.7970  177.0840  145.2710 C   0  0  0  0  0  0  0  0  0  0  0  0
  188.2580  177.9120  147.4710 C   0  0  0  0  0  3  0  0  0  0  0  0
  187.0720  177.1030  143.4770 N   0  0  0  0  0  0  0  0  0  0  0  0
  183.9930  178.7320  144.5330 C   0  0  0  0  0  0  0  0  0  0  0  0
  187.9020  177.7650  146.1220 C   0  0  0  0  0  0  0  0  0  0  0  0
  185.6720  178.9620  146.2480 C   0  0  0  0  0  0  0  0  0  0  0  0
  184.3730  179.2120  145.6790 N   0  0  0  0  0  0  0  0  0  0  0  0
  184.8890  177.9370  143.7560 N   0  0  0  0  0  2  0  0  0  0  0  0
  185.9480  179.5830  147.5760 C   0  0  0  0  0  1  0  0  0  0  0  0
  189.4660  177.4110  147.9500 C   0  0  0  0  0  3  0  0  0  0  0  0
  188.4930  176.9110  143.7970 C   0  0  1  0  0  3  0  0  0  0  0  0
  191.5530  176.2200  147.5420 N   0  0  0  0  0  1  0  0  0  0  0  0
  186.2100  177.7050  144.2400 C   0  0  0  0  0  0  0  0  0  0  0  0
  190.3160  176.7430  147.0720 C   0  0  0  0  0  0  0  0  0  0  0  0
  189.9670  176.5950  145.7690 N   0  0  0  0  0  0  0  0  0  0  0  0
  182.6880  179.0130  144.0430 N   0  0  0  0  0  1  0  0  0  0  0  0
  186.5810  178.2010  145.5840 C   0  0  0  0  0  0  0  0  0  0  0  0
  190.4200  176.7680  142.2310 C   0  0  0  0  0  1  0  0  0  0  0  0
  189.4170  177.7280  142.8550 C   0  0  2  0  0  0  0  0  0  0  0  0
  192.0250  178.2690  143.5740 C   0  0  0  0  0  1  0  0  0  0  0  0
  190.3750  179.0100  143.7780 S   0  0  0  0  0  0  0  0  0  0  0  0
  188.5800  178.3440  141.7170 C   0  0  0  0  0  2  0  0  0  0  0  0
  188.7610  177.6600  140.3650 C   0  0  0  0  0  2  0  0  0  0  0  0
  188.8910  179.6440  137.2480 N   0  0  0  0  0  2  0  0  0  0  0  0
  189.1110  178.6320  138.0180 C   0  0  0  0  0  0  0  0  0  0  0  0
  188.4450  178.5830  139.2870 N   0  0  0  0  0  2  0  0  0  0  0  0
  189.7620  176.8190  136.4340 C   0  0  0  0  0  1  0  0  0  0  0  0
  189.9900  177.6350  137.5730 O   0  0  0  0  0  0  0  0  0  0  0  0
  1 15  2  0  0  0  0
  1  5  1  0  0  0  0
  2 10  1  0  0  0  0
  3 11  1  0  0  0  0
  3 13  2  0  0  0  0
  4  7  2  0  0  0  0
  5  2  2  0  0  0  0
  6  9  1  0  0  0  0
  7  6  1  0  0  0  0
  8 13  1  0  0  0  0
  8  4  1  0  0  0  0
 11 19  1  6  0  0  0
 11  1  1  0  0  0  0
 13 17  1  0  0  0  0
 14 12  1  0  0  0  0
 14 10  2  0  0  0  0
 15 14  1  0  0  0  0
 16  4  1  0  0  0  0
 17  5  1  0  0  0  0
 17  6  2  0  0  0  0
 19 18  1  6  0  0  0
 19 21  1  0  0  0  0
 20 21  1  0  0  0  0
 22 19  1  0  0  0  0
 23 22  1  0  0  0  0
 24 25  2  0  0  0  0
 25 26  1  0  0  0  0
 26 23  1  0  0  0  0
 27 28  1  0  0  0  0
 28 25  1  0  0  0  0
M  END
>  <MODEL>
1

>  <REMARK>
 VINA RESULT:      -8.8      0.000      0.000
  Name = 
  6 active torsions:
  status: ('A' for Active; 'I' for Inactive)
    1  A    between atoms: C_5  and  C_12
    2  A    between atoms: C_5  and  C_26
    3  A    between atoms: C_12  and  N_22
    4  A    between atoms: S_13  and  C_26
    5  A    between atoms: C_17  and  C_26
    6  A    between atoms: C_21  and  O_28
                            x       y       z     vdW  Elec       q    Type
                         _______ _______ _______ _____ _____    ______ ____

>  <TORSDO>
F 6

$$$$
=
 OpenBabel11042412013D

 28 30  0  0  1  0  0  0  0  0999 V2000
  188.8550  177.0970  145.2130 C   0  0  0  0  0  0  0  0  0  0  0  0
  188.2400  177.9090  147.3980 C   0  0  0  0  0  3  0  0  0  0  0  0
  187.1910  177.1260  143.3620 N   0  0  0  0  0  0  0  0  0  0  0  0
  184.0750  178.7430  144.3240 C   0  0  0  0  0  0  0  0  0  0  0  0
  187.9310  177.7710  146.0370 C   0  0  0  0  0  0  0  0  0  0  0  0
  185.6950  178.9640  146.0960 C   0  0  0  0  0  0  0  0  0  0  0  0
  184.4160  179.2160  145.4850 N   0  0  0  0  0  0  0  0  0  0  0  0
  184.9980  177.9550  143.5720 N   0  0  0  0  0  2  0  0  0  0  0  0
  185.9250  179.5760  147.4370 C   0  0  0  0  0  1  0  0  0  0  0  0
  189.4320  177.4070  147.9140 C   0  0  0  0  0  3  0  0  0  0  0  0
  188.6000  176.9340  143.7280 C   0  0  1  0  0  3  0  0  0  0  0  0
  191.5330  176.2220  147.5690 N   0  0  0  0  0  1  0  0  0  0  0  0
  186.3020  177.7210  144.0990 C   0  0  0  0  0  0  0  0  0  0  0  0
  190.3120  176.7470  147.0620 C   0  0  0  0  0  0  0  0  0  0  0  0
  190.0080  176.6060  145.7460 N   0  0  0  0  0  0  0  0  0  0  0  0
  182.7870  179.0250  143.7930 N   0  0  0  0  0  1  0  0  0  0  0  0
  186.6270  178.2090  145.4580 C   0  0  0  0  0  0  0  0  0  0  0  0
  190.6470  176.8270  142.3180 C   0  0  0  0  0  1  0  0  0  0  0  0
  189.5550  177.7590  142.8230 C   0  0  2  0  0  0  0  0  0  0  0  0
  192.0570  178.4260  143.7730 C   0  0  0  0  0  1  0  0  0  0  0  0
  190.3760  179.1230  143.7580 S   0  0  0  0  0  0  0  0  0  0  0  0
  188.7790  178.2850  141.6000 C   0  0  0  0  0  2  0  0  0  0  0  0
  188.8900  177.4010  140.3600 C   0  0  0  0  0  2  0  0  0  0  0  0
  186.6450  178.7920  137.7720 N   0  0  0  0  0  2  0  0  0  0  0  0
  186.9860  178.3750  138.9450 C   0  0  0  0  0  0  0  0  0  0  0  0
  188.3710  178.1010  139.1960 N   0  0  0  0  0  2  0  0  0  0  0  0
  184.8650  179.0720  140.0560 C   0  0  0  0  0  1  0  0  0  0  0  0
  185.9830  178.2110  139.9100 O   0  0  0  0  0  0  0  0  0  0  0  0
  1 15  2  0  0  0  0
  1  5  1  0  0  0  0
  2 10  1  0  0  0  0
  3 11  1  0  0  0  0
  3 13  2  0  0  0  0
  4  7  2  0  0  0  0
  5  2  2  0  0  0  0
  6  9  1  0  0  0  0
  7  6  1  0  0  0  0
  8 13  1  0  0  0  0
  8  4  1  0  0  0  0
 11 19  1  6  0  0  0
 11  1  1  0  0  0  0
 13 17  1  0  0  0  0
 14 12  1  0  0  0  0
 14 10  2  0  0  0  0
 15 14  1  0  0  0  0
 16  4  1  0  0  0  0
 17  5  1  0  0  0  0
 17  6  2  0  0  0  0
 19 18  1  6  0  0  0
 19 21  1  0  0  0  0
 21 20  1  0  0  0  0
 22 19  1  0  0  0  0
 23 22  1  0  0  0  0
 24 25  2  0  0  0  0
 25 26  1  0  0  0  0
 25 28  1  0  0  0  0
 26 23  1  0  0  0  0
 28 27  1  0  0  0  0
M  END
>  <MODEL>
2

>  <REMARK>
 VINA RESULT:      -8.2      1.348      1.652
  Name = 
  6 active torsions:
  status: ('A' for Active; 'I' for Inactive)
    1  A    between atoms: C_5  and  C_12
    2  A    between atoms: C_5  and  C_26
    3  A    between atoms: C_12  and  N_22
    4  A    between atoms: S_13  and  C_26
    5  A    between atoms: C_17  and  C_26
    6  A    between atoms: C_21  and  O_28
                            x       y       z     vdW  Elec       q    Type
                         _______ _______ _______ _____ _____    ______ ____

>  <TORSDO>
F 6

$$$$
=
 OpenBabel11042412013D

 28 30  0  0  1  0  0  0  0  0999 V2000
  189.1530  177.0510  145.0110 C   0  0  0  0  0  0  0  0  0  0  0  0
  188.7310  177.8540  147.2450 C   0  0  0  0  0  3  0  0  0  0  0  0
  187.3210  177.0420  143.3260 N   0  0  0  0  0  0  0  0  0  0  0  0
  184.2780  178.5950  144.5790 C   0  0  0  0  0  0  0  0  0  0  0  0
  188.2970  177.7070  145.9200 C   0  0  0  0  0  0  0  0  0  0  0  0
  186.0520  178.8530  146.1900 C   0  0  0  0  0  0  0  0  0  0  0  0
  184.7160  179.0780  145.7030 N   0  0  0  0  0  0  0  0  0  0  0  0
  185.1410  177.8250  143.7430 N   0  0  0  0  0  2  0  0  0  0  0  0
  186.3960  179.4720  147.5030 C   0  0  0  0  0  1  0  0  0  0  0  0
  189.9770  177.3780  147.6460 C   0  0  0  0  0  3  0  0  0  0  0  0
  188.7630  176.8800  143.5570 C   0  0  1  0  0  3  0  0  0  0  0  0
  192.0600  176.2360  147.1030 N   0  0  0  0  0  1  0  0  0  0  0  0
  186.4940  177.6200  144.1450 C   0  0  0  0  0  0  0  0  0  0  0  0
  190.7860  176.7350  146.7140 C   0  0  0  0  0  0  0  0  0  0  0  0
  190.3610  176.5850  145.4340 N   0  0  0  0  0  0  0  0  0  0  0  0
  182.9390  178.8500  144.1720 N   0  0  0  0  0  1  0  0  0  0  0  0
  186.9360  178.1170  145.4660 C   0  0  0  0  0  0  0  0  0  0  0  0
  190.4110  178.7350  143.3730 C   0  0  0  0  0  1  0  0  0  0  0  0
  189.6100  177.7230  142.5660 C   0  0  2  0  0  0  0  0  0  0  0  0
  188.6120  177.4880  140.0050 C   0  0  0  0  0  1  0  0  0  0  0  0
  188.5460  178.6690  141.3890 S   0  0  0  0  0  0  0  0  0  0  0  0
  190.6080  176.8060  141.8310 C   0  0  0  0  0  2  0  0  0  0  0  0
  191.8620  177.5190  141.3320 C   0  0  0  0  0  2  0  0  0  0  0  0
  193.4870  176.8700  138.0750 N   0  0  0  0  0  2  0  0  0  0  0  0
  193.3860  176.9130  139.3610 C   0  0  0  0  0  0  0  0  0  0  0  0
  192.1020  177.1930  139.9350 N   0  0  0  0  0  2  0  0  0  0  0  0
  195.3690  175.5400  139.9980 C   0  0  0  0  0  1  0  0  0  0  0  0
  194.5370  176.6820  140.1270 O   0  0  0  0  0  0  0  0  0  0  0  0
  1 15  2  0  0  0  0
  1  5  1  0  0  0  0
  2 10  1  0  0  0  0
  3 11  1  0  0  0  0
  3 13  2  0  0  0  0
  4  7  2  0  0  0  0
  5  2  2  0  0  0  0
  6  9  1  0  0  0  0
  7  6  1  0  0  0  0
  8 13  1  0  0  0  0
  8  4  1  0  0  0  0
 11 19  1  6  0  0  0
 11  1  1  0  0  0  0
 13 17  1  0  0  0  0
 14 12  1  0  0  0  0
 14 10  2  0  0  0  0
 15 14  1  0  0  0  0
 16  4  1  0  0  0  0
 17  5  1  0  0  0  0
 17  6  2  0  0  0  0
 19 18  1  1  0  0  0
 20 21  1  0  0  0  0
 21 19  1  0  0  0  0
 22 19  1  0  0  0  0
 23 22  1  0  0  0  0
 24 25  2  0  0  0  0
 25 26  1  0  0  0  0
 25 28  1  0  0  0  0
 26 23  1  0  0  0  0
 27 28  1  0  0  0  0
M  END
>  <MODEL>
3

>  <REMARK>
 VINA RESULT:      -8.1      2.237      2.686
  Name = 
  6 active torsions:
  status: ('A' for Active; 'I' for Inactive)
    1  A    between atoms: C_5  and  C_12
    2  A    between atoms: C_5  and  C_26
    3  A    between atoms: C_12  and  N_22
    4  A    between atoms: S_13  and  C_26
    5  A    between atoms: C_17  and  C_26
    6  A    between atoms: C_21  and  O_28
                            x       y       z     vdW  Elec       q    Type
                         _______ _______ _______ _____ _____    ______ ____

>  <TORSDO>
F 6

$$$$
=
 OpenBabel11042412013D

 28 30  0  0  1  0  0  0  0  0999 V2000
  190.4560  177.7160  140.4510 C   0  0  0  0  0  0  0  0  0  0  0  0
  190.8190  176.6120  138.3380 C   0  0  0  0  0  3  0  0  0  0  0  0
  188.2310  178.7030  140.9720 N   0  0  0  0  0  0  0  0  0  0  0  0
  185.7610  177.9900  138.3960 C   0  0  0  0  0  0  0  0  0  0  0  0
  189.9280  177.1880  139.2550 C   0  0  0  0  0  0  0  0  0  0  0  0
  187.8070  176.8090  137.9180 C   0  0  0  0  0  0  0  0  0  0  0  0
  186.4320  177.1500  137.6660 N   0  0  0  0  0  0  0  0  0  0  0  0
  186.3730  178.6030  139.5300 N   0  0  0  0  0  2  0  0  0  0  0  0
  188.4340  175.8320  136.9810 C   0  0  0  0  0  1  0  0  0  0  0  0
  192.1840  176.5510  138.6110 C   0  0  0  0  0  3  0  0  0  0  0  0
  189.5500  178.3280  141.5000 C   0  0  1  0  0  3  0  0  0  0  0  0
  194.0500  177.0400  140.1000 N   0  0  0  0  0  1  0  0  0  0  0  0
  187.7160  178.2590  139.8650 C   0  0  0  0  0  0  0  0  0  0  0  0
  192.6590  177.0880  139.8040 C   0  0  0  0  0  0  0  0  0  0  0  0
  191.7960  177.6530  140.6860 N   0  0  0  0  0  0  0  0  0  0  0  0
  184.4080  178.2860  138.0750 N   0  0  0  0  0  1  0  0  0  0  0  0
  188.4740  177.3600  138.9670 C   0  0  0  0  0  0  0  0  0  0  0  0
  190.1860  178.2520  143.9030 C   0  0  0  0  0  1  0  0  0  0  0  0
  189.4400  177.5020  142.8090 C   0  0  2  0  0  0  0  0  0  0  0  0
  191.5380  176.0660  143.8790 C   0  0  0  0  0  1  0  0  0  0  0  0
  190.2260  175.8400  142.6380 S   0  0  0  0  0  0  0  0  0  0  0  0
  187.9610  177.3980  143.2310 C   0  0  0  0  0  2  0  0  0  0  0  0
  187.7500  177.1660  144.7250 C   0  0  0  0  0  2  0  0  0  0  0  0
  185.5210  179.0780  146.9700 N   0  0  0  0  0  2  0  0  0  0  0  0
  186.5170  178.3210  146.6530 C   0  0  0  0  0  0  0  0  0  0  0  0
  186.8350  178.1580  145.2640 N   0  0  0  0  0  2  0  0  0  0  0  0
  188.4100  178.2290  148.2730 C   0  0  0  0  0  1  0  0  0  0  0  0
  187.2340  177.6980  147.6840 O   0  0  0  0  0  0  0  0  0  0  0  0
  1 15  1  0  0  0  0
  1 11  1  0  0  0  0
  2 10  2  0  0  0  0
  2  5  1  0  0  0  0
  3 11  1  0  0  0  0
  4  8  1  0  0  0  0
  5  1  2  0  0  0  0
  6 17  2  0  0  0  0
  7  6  1  0  0  0  0
  7  4  2  0  0  0  0
  8 13  1  0  0  0  0
  9  6  1  0  0  0  0
 10 14  1  0  0  0  0
 11 19  1  1  0  0  0
 13  3  2  0  0  0  0
 14 12  1  0  0  0  0
 14 15  2  0  0  0  0
 16  4  1  0  0  0  0
 17  5  1  0  0  0  0
 17 13  1  0  0  0  0
 19 22  1  0  0  0  0
 19 18  1  1  0  0  0
 21 19  1  0  0  0  0
 21 20  1  0  0  0  0
 22 23  1  0  0  0  0
 23 26  1  0  0  0  0
 25 24  2  0  0  0  0
 25 28  1  0  0  0  0
 26 25  1  0  0  0  0
 28 27  1  0  0  0  0
M  END
>  <MODEL>
4

>  <REMARK>
 VINA RESULT:      -7.4      3.153      7.108
  Name = 
  6 active torsions:
  status: ('A' for Active; 'I' for Inactive)
    1  A    between atoms: C_5  and  C_12
    2  A    between atoms: C_5  and  C_26
    3  A    between atoms: C_12  and  N_22
    4  A    between atoms: S_13  and  C_26
    5  A    between atoms: C_17  and  C_26
    6  A    between atoms: C_21  and  O_28
                            x       y       z     vdW  Elec       q    Type
                         _______ _______ _______ _____ _____    ______ ____

>  <TORSDO>
F 6

$$$$
=
 OpenBabel11042412013D

 28 30  0  0  1  0  0  0  0  0999 V2000
  189.2040  178.2530  142.3090 C   0  0  0  0  0  0  0  0  0  0  0  0
  191.0800  177.2150  141.2050 C   0  0  0  0  0  3  0  0  0  0  0  0
  187.1690  178.8480  141.0050 N   0  0  0  0  0  0  0  0  0  0  0  0
  187.3510  177.7080  137.5540 C   0  0  0  0  0  0  0  0  0  0  0  0
  189.7430  177.6360  141.1610 C   0  0  0  0  0  0  0  0  0  0  0  0
  189.2540  176.8920  138.7880 C   0  0  0  0  0  0  0  0  0  0  0  0
  188.4330  176.9910  137.6100 N   0  0  0  0  0  0  0  0  0  0  0  0
  186.9040  178.4230  138.7050 N   0  0  0  0  0  2  0  0  0  0  0  0
  190.4680  176.0310  138.6840 C   0  0  0  0  0  1  0  0  0  0  0  0
  191.8460  177.3900  142.3560 C   0  0  0  0  0  3  0  0  0  0  0  0
  187.7590  178.7080  142.3430 C   0  0  1  0  0  3  0  0  0  0  0  0
  192.0370  178.2000  144.6460 N   0  0  0  0  0  1  0  0  0  0  0  0
  187.6440  178.3160  139.9200 C   0  0  0  0  0  0  0  0  0  0  0  0
  191.2710  178.0070  143.4630 C   0  0  0  0  0  0  0  0  0  0  0  0
  189.9790  178.4210  143.4160 N   0  0  0  0  0  0  0  0  0  0  0  0
  186.5990  177.7660  136.3480 N   0  0  0  0  0  1  0  0  0  0  0  0
  188.9130  177.5540  139.9240 C   0  0  0  0  0  0  0  0  0  0  0  0
  187.3580  176.4470  143.3010 C   0  0  0  0  0  1  0  0  0  0  0  0
  186.8530  177.8820  143.2960 C   0  0  2  0  0  0  0  0  0  0  0  0
  184.5530  179.3890  143.5230 C   0  0  0  0  0  1  0  0  0  0  0  0
  185.0990  177.8520  142.7160 S   0  0  0  0  0  0  0  0  0  0  0  0
  186.9760  178.4330  144.7300 C   0  0  0  0  0  2  0  0  0  0  0  0
  186.7110  177.4000  145.8220 C   0  0  0  0  0  2  0  0  0  0  0  0
  188.5400  178.2090  148.9320 N   0  0  0  0  0  2  0  0  0  0  0  0
  188.3980  177.9120  147.6840 C   0  0  0  0  0  0  0  0  0  0  0  0
  187.0790  177.9370  147.1220 N   0  0  0  0  0  2  0  0  0  0  0  0
  190.5110  176.6300  147.3520 C   0  0  0  0  0  1  0  0  0  0  0  0
  189.5420  177.5820  146.9440 O   0  0  0  0  0  0  0  0  0  0  0  0
  1 11  1  0  0  0  0
  1 15  1  0  0  0  0
  2 10  2  0  0  0  0
  3 11  1  0  0  0  0
  4  7  2  0  0  0  0
  4  8  1  0  0  0  0
  5  2  1  0  0  0  0
  5  1  2  0  0  0  0
  6 17  2  0  0  0  0
  7  6  1  0  0  0  0
  8 13  1  0  0  0  0
  9  6  1  0  0  0  0
 10 14  1  0  0  0  0
 11 19  1  1  0  0  0
 13 17  1  0  0  0  0
 13  3  2  0  0  0  0
 14 12  1  0  0  0  0
 15 14  2  0  0  0  0
 16  4  1  0  0  0  0
 17  5  1  0  0  0  0
 19 18  1  1  0  0  0
 19 22  1  0  0  0  0
 21 19  1  0  0  0  0
 21 20  1  0  0  0  0
 22 23  1  0  0  0  0
 23 26  1  0  0  0  0
 25 24  2  0  0  0  0
 26 25  1  0  0  0  0
 28 27  1  0  0  0  0
 28 25  1  0  0  0  0
M  END
>  <MODEL>
5

>  <REMARK>
 VINA RESULT:      -7.2      2.996      6.885
  Name = 
  6 active torsions:
  status: ('A' for Active; 'I' for Inactive)
    1  A    between atoms: C_5  and  C_12
    2  A    between atoms: C_5  and  C_26
    3  A    between atoms: C_12  and  N_22
    4  A    between atoms: S_13  and  C_26
    5  A    between atoms: C_17  and  C_26
    6  A    between atoms: C_21  and  O_28
                            x       y       z     vdW  Elec       q    Type
                         _______ _______ _______ _____ _____    ______ ____

>  <TORSDO>
F 6

$$$$
=
 OpenBabel11042412013D

 28 30  0  0  1  0  0  0  0  0999 V2000
  190.4750  177.6720  140.7160 C   0  0  0  0  0  0  0  0  0  0  0  0
  190.7670  176.8990  138.4500 C   0  0  0  0  0  3  0  0  0  0  0  0
  188.2850  178.6060  141.4380 N   0  0  0  0  0  0  0  0  0  0  0  0
  185.7430  178.3410  138.8470 C   0  0  0  0  0  0  0  0  0  0  0  0
  189.9090  177.3430  139.4670 C   0  0  0  0  0  0  0  0  0  0  0  0
  187.7520  177.2120  138.1420 C   0  0  0  0  0  0  0  0  0  0  0  0
  186.3790  177.6120  137.9800 N   0  0  0  0  0  0  0  0  0  0  0  0
  186.3930  178.7620  140.0450 N   0  0  0  0  0  2  0  0  0  0  0  0
  188.3370  176.3790  137.0500 C   0  0  0  0  0  1  0  0  0  0  0  0
  192.1360  176.7730  138.6750 C   0  0  0  0  0  3  0  0  0  0  0  0
  189.6060  178.1320  141.8680 C   0  0  1  0  0  3  0  0  0  0  0  0
  194.0450  176.9950  140.1740 N   0  0  0  0  0  1  0  0  0  0  0  0
  187.7360  178.3470  140.2890 C   0  0  0  0  0  0  0  0  0  0  0  0
  192.6490  177.1110  139.9240 C   0  0  0  0  0  0  0  0  0  0  0  0
  191.8190  177.5490  140.9040 N   0  0  0  0  0  0  0  0  0  0  0  0
  184.3890  178.7070  138.6100 N   0  0  0  0  0  1  0  0  0  0  0  0
  188.4530  177.5830  139.2450 C   0  0  0  0  0  0  0  0  0  0  0  0
  190.3740  175.9140  142.6930 C   0  0  0  0  0  1  0  0  0  0  0  0
  189.5080  177.1160  143.0380 C   0  0  2  0  0  0  0  0  0  0  0  0
  187.3880  177.4660  144.7680 C   0  0  0  0  0  1  0  0  0  0  0  0
  187.7800  176.5070  143.2720 S   0  0  0  0  0  0  0  0  0  0  0  0
  190.0730  177.7530  144.3230 C   0  0  0  0  0  2  0  0  0  0  0  0
  191.5620  177.5030  144.5440 C   0  0  0  0  0  2  0  0  0  0  0  0
  191.9800  175.4280  147.5750 N   0  0  0  0  0  2  0  0  0  0  0  0
  191.5510  176.4180  146.8670 C   0  0  0  0  0  0  0  0  0  0  0  0
  191.7550  176.3810  145.4480 N   0  0  0  0  0  2  0  0  0  0  0  0
  189.5240  177.4990  147.8400 C   0  0  0  0  0  1  0  0  0  0  0  0
  190.9070  177.4770  147.5230 O   0  0  0  0  0  0  0  0  0  0  0  0
  1 15  1  0  0  0  0
  1 11  1  0  0  0  0
  2 10  2  0  0  0  0
  2  5  1  0  0  0  0
  3 11  1  0  0  0  0
  4  8  1  0  0  0  0
  5  1  2  0  0  0  0
  6 17  2  0  0  0  0
  7  6  1  0  0  0  0
  7  4  2  0  0  0  0
  8 13  1  0  0  0  0
  9  6  1  0  0  0  0
 10 14  1  0  0  0  0
 11 19  1  1  0  0  0
 13  3  2  0  0  0  0
 14 12  1  0  0  0  0
 14 15  2  0  0  0  0
 16  4  1  0  0  0  0
 17  5  1  0  0  0  0
 17 13  1  0  0  0  0
 19 18  1  6  0  0  0
 19 21  1  0  0  0  0
 19 22  1  0  0  0  0
 21 20  1  0  0  0  0
 22 23  1  0  0  0  0
 23 26  1  0  0  0  0
 25 28  1  0  0  0  0
 25 24  2  0  0  0  0
 26 25  1  0  0  0  0
 28 27  1  0  0  0  0
M  END
>  <MODEL>
6

>  <REMARK>
 VINA RESULT:      -7.1      3.166      7.091
  Name = 
  6 active torsions:
  status: ('A' for Active; 'I' for Inactive)
    1  A    between atoms: C_5  and  C_12
    2  A    between atoms: C_5  and  C_26
    3  A    between atoms: C_12  and  N_22
    4  A    between atoms: S_13  and  C_26
    5  A    between atoms: C_17  and  C_26
    6  A    between atoms: C_21  and  O_28
                            x       y       z     vdW  Elec       q    Type
                         _______ _______ _______ _____ _____    ______ ____

>  <TORSDO>
F 6

$$$$
=
 OpenBabel11042412013D

 28 30  0  0  1  0  0  0  0  0999 V2000
  187.6890  178.3200  142.5690 C   0  0  0  0  0  0  0  0  0  0  0  0
  185.3910  178.3620  143.2990 C   0  0  0  0  0  3  0  0  0  0  0  0
  189.5270  178.2860  144.2470 N   0  0  0  0  0  0  0  0  0  0  0  0
  188.2840  178.0080  147.6570 C   0  0  0  0  0  0  0  0  0  0  0  0
  186.7500  178.2080  143.6140 C   0  0  0  0  0  0  0  0  0  0  0  0
  186.4560  177.8060  146.1000 C   0  0  0  0  0  0  0  0  0  0  0  0
  187.0250  177.7920  147.4220 N   0  0  0  0  0  0  0  0  0  0  0  0
  189.1860  178.2450  146.5760 N   0  0  0  0  0  2  0  0  0  0  0  0
  184.9900  177.5460  146.0020 C   0  0  0  0  0  1  0  0  0  0  0  0
  184.9860  178.6050  141.9890 C   0  0  0  0  0  3  0  0  0  0  0  0
  189.1710  178.1380  142.8300 C   0  0  1  0  0  3  0  0  0  0  0  0
  185.5580  178.9620  139.6470 N   0  0  0  0  0  1  0  0  0  0  0  0
  188.6910  178.2120  145.2390 C   0  0  0  0  0  0  0  0  0  0  0  0
  185.9500  178.7100  140.9910 C   0  0  0  0  0  0  0  0  0  0  0  0
  187.2650  178.5690  141.2990 N   0  0  0  0  0  0  0  0  0  0  0  0
  188.7700  177.9920  148.9930 N   0  0  0  0  0  1  0  0  0  0  0  0
  187.2380  178.0410  145.0140 C   0  0  0  0  0  0  0  0  0  0  0  0
  189.1970  175.6540  142.9510 C   0  0  0  0  0  1  0  0  0  0  0  0
  189.7740  176.8500  142.2090 C   0  0  2  0  0  0  0  0  0  0  0  0
  191.6650  175.6630  143.8290 C   0  0  0  0  0  1  0  0  0  0  0  0
  191.6100  176.7920  142.4030 S   0  0  0  0  0  0  0  0  0  0  0  0
  189.3480  176.7410  140.7320 C   0  0  0  0  0  2  0  0  0  0  0  0
  190.3040  177.4170  139.7520 C   0  0  0  0  0  2  0  0  0  0  0  0
  188.6000  179.4520  137.1780 N   0  0  0  0  0  2  0  0  0  0  0  0
  188.9540  178.3740  137.7940 C   0  0  0  0  0  0  0  0  0  0  0  0
  189.6280  178.4980  139.0540 N   0  0  0  0  0  2  0  0  0  0  0  0
  187.4750  176.3980  137.4390 C   0  0  0  0  0  1  0  0  0  0  0  0
  188.6600  177.1400  137.1980 O   0  0  0  0  0  0  0  0  0  0  0  0
  1 11  1  0  0  0  0
  1  5  1  0  0  0  0
  2  5  2  0  0  0  0
  3 13  2  0  0  0  0
  4 16  1  0  0  0  0
  5 17  1  0  0  0  0
  6  7  1  0  0  0  0
  7  4  2  0  0  0  0
  8  4  1  0  0  0  0
  9  6  1  0  0  0  0
 10  2  1  0  0  0  0
 11 19  1  1  0  0  0
 11  3  1  0  0  0  0
 12 14  1  0  0  0  0
 13  8  1  0  0  0  0
 14 15  1  0  0  0  0
 14 10  2  0  0  0  0
 15  1  2  0  0  0  0
 17 13  1  0  0  0  0
 17  6  2  0  0  0  0
 19 21  1  0  0  0  0
 19 18  1  1  0  0  0
 21 20  1  0  0  0  0
 22 19  1  0  0  0  0
 23 22  1  0  0  0  0
 24 25  2  0  0  0  0
 25 26  1  0  0  0  0
 26 23  1  0  0  0  0
 28 27  1  0  0  0  0
 28 25  1  0  0  0  0
M  END
>  <MODEL>
7

>  <REMARK>
 VINA RESULT:      -7.0      2.131      4.197
  Name = 
  6 active torsions:
  status: ('A' for Active; 'I' for Inactive)
    1  A    between atoms: C_5  and  C_12
    2  A    between atoms: C_5  and  C_26
    3  A    between atoms: C_12  and  N_22
    4  A    between atoms: S_13  and  C_26
    5  A    between atoms: C_17  and  C_26
    6  A    between atoms: C_21  and  O_28
                            x       y       z     vdW  Elec       q    Type
                         _______ _______ _______ _____ _____    ______ ____

>  <TORSDO>
F 6

$$$$
=
 OpenBabel11042412013D

 28 30  0  0  1  0  0  0  0  0999 V2000
  185.6000  178.7290  143.3260 C   0  0  0  0  0  0  0  0  0  0  0  0
  187.1410  177.3670  144.5870 C   0  0  0  0  0  3  0  0  0  0  0  0
  186.1440  179.3790  140.9860 N   0  0  0  0  0  0  0  0  0  0  0  0
  189.2040  177.8160  139.7880 C   0  0  0  0  0  0  0  0  0  0  0  0
  186.7570  177.9220  143.3570 C   0  0  0  0  0  0  0  0  0  0  0  0
  188.6430  176.9540  141.9680 C   0  0  0  0  0  0  0  0  0  0  0  0
  189.4390  176.9980  140.7690 N   0  0  0  0  0  0  0  0  0  0  0  0
  188.0930  178.7100  139.8500 N   0  0  0  0  0  2  0  0  0  0  0  0
  189.0510  175.9600  143.0030 C   0  0  0  0  0  1  0  0  0  0  0  0
  186.3920  177.5960  145.7380 C   0  0  0  0  0  3  0  0  0  0  0  0
  185.1100  179.3390  142.0290 C   0  0  1  0  0  3  0  0  0  0  0  0
  184.4830  178.6520  146.8250 N   0  0  0  0  0  1  0  0  0  0  0  0
  187.2320  178.6710  140.9860 C   0  0  0  0  0  0  0  0  0  0  0  0
  185.2590  178.4010  145.6590 C   0  0  0  0  0  0  0  0  0  0  0  0
  184.8940  178.9450  144.4700 N   0  0  0  0  0  0  0  0  0  0  0  0
  190.0450  177.8100  138.6410 N   0  0  0  0  0  1  0  0  0  0  0  0
  187.5760  177.7820  142.1180 C   0  0  0  0  0  0  0  0  0  0  0  0
  183.9550  177.2310  141.3860 C   0  0  0  0  0  1  0  0  0  0  0  0
  183.7780  178.7380  141.5050 C   0  0  2  0  0  0  0  0  0  0  0  0
  183.6930  177.8600  138.8920 C   0  0  0  0  0  1  0  0  0  0  0  0
  183.3490  179.3820  139.8280 S   0  0  0  0  0  0  0  0  0  0  0  0
  182.6550  179.0040  142.5270 C   0  0  0  0  0  2  0  0  0  0  0  0
  181.2920  179.2860  141.9010 C   0  0  0  0  0  2  0  0  0  0  0  0
  178.9310  176.5090  141.2830 N   0  0  0  0  0  2  0  0  0  0  0  0
  179.8760  177.3430  141.0080 C   0  0  0  0  0  0  0  0  0  0  0  0
  180.4120  178.1410  142.0730 N   0  0  0  0  0  2  0  0  0  0  0  0
  180.2460  176.3660  138.7440 C   0  0  0  0  0  1  0  0  0  0  0  0
  180.3290  177.4250  139.6850 O   0  0  0  0  0  0  0  0  0  0  0  0
  1  5  2  0  0  0  0
  1 15  1  0  0  0  0
  2 10  2  0  0  0  0
  3 11  1  0  0  0  0
  4  8  1  0  0  0  0
  4  7  2  0  0  0  0
  5  2  1  0  0  0  0
  6 17  2  0  0  0  0
  6  9  1  0  0  0  0
  7  6  1  0  0  0  0
  8 13  1  0  0  0  0
 11 19  1  6  0  0  0
 11  1  1  0  0  0  0
 13  3  2  0  0  0  0
 13 17  1  0  0  0  0
 14 10  1  0  0  0  0
 14 12  1  0  0  0  0
 15 14  2  0  0  0  0
 16  4  1  0  0  0  0
 17  5  1  0  0  0  0
 19 18  1  6  0  0  0
 19 22  1  0  0  0  0
 20 21  1  0  0  0  0
 21 19  1  0  0  0  0
 23 26  1  0  0  0  0
 23 22  1  0  0  0  0
 25 24  2  0  0  0  0
 25 26  1  0  0  0  0
 27 28  1  0  0  0  0
 28 25  1  0  0  0  0
M  END
>  <MODEL>
8

>  <REMARK>
 VINA RESULT:      -6.8      3.773      6.912
  Name = 
  6 active torsions:
  status: ('A' for Active; 'I' for Inactive)
    1  A    between atoms: C_5  and  C_12
    2  A    between atoms: C_5  and  C_26
    3  A    between atoms: C_12  and  N_22
    4  A    between atoms: S_13  and  C_26
    5  A    between atoms: C_17  and  C_26
    6  A    between atoms: C_21  and  O_28
                            x       y       z     vdW  Elec       q    Type
                         _______ _______ _______ _____ _____    ______ ____

>  <TORSDO>
F 6

$$$$
=
 OpenBabel11042412013D

 28 30  0  0  1  0  0  0  0  0999 V2000
  183.2920  178.9310  141.3500 C   0  0  0  0  0  0  0  0  0  0  0  0
  183.7300  178.5580  143.6920 C   0  0  0  0  0  3  0  0  0  0  0  0
  185.1760  178.9670  139.7240 N   0  0  0  0  0  0  0  0  0  0  0  0
  188.3600  178.1240  141.2720 C   0  0  0  0  0  0  0  0  0  0  0  0
  184.1960  178.5650  142.3690 C   0  0  0  0  0  0  0  0  0  0  0  0
  186.5740  177.8420  142.8650 C   0  0  0  0  0  0  0  0  0  0  0  0
  187.9490  177.7580  142.4480 N   0  0  0  0  0  0  0  0  0  0  0  0
  187.4280  178.6110  140.3060 N   0  0  0  0  0  2  0  0  0  0  0  0
  186.2690  177.3870  144.2530 C   0  0  0  0  0  1  0  0  0  0  0  0
  182.4090  178.8890  143.9860 C   0  0  0  0  0  3  0  0  0  0  0  0
  183.7170  178.9340  139.8960 C   0  0  1  0  0  3  0  0  0  0  0  0
  180.2030  179.5910  143.2250 N   0  0  0  0  0  1  0  0  0  0  0  0
  186.0430  178.6600  140.6410 C   0  0  0  0  0  0  0  0  0  0  0  0
  181.5540  179.2450  142.9460 C   0  0  0  0  0  0  0  0  0  0  0  0
  182.0090  179.2600  141.6680 N   0  0  0  0  0  0  0  0  0  0  0  0
  189.7390  178.0240  140.9380 N   0  0  0  0  0  1  0  0  0  0  0  0
  185.6220  178.3100  142.0150 C   0  0  0  0  0  0  0  0  0  0  0  0
  184.0820  177.3350  138.0260 C   0  0  0  0  0  1  0  0  0  0  0  0
  183.0540  177.8260  139.0350 C   0  0  2  0  0  0  0  0  0  0  0  0
  182.0540  177.7750  136.4640 C   0  0  0  0  0  1  0  0  0  0  0  0
  181.6070  178.4720  138.0840 S   0  0  0  0  0  0  0  0  0  0  0  0
  182.6670  176.6360  139.9340 C   0  0  0  0  0  2  0  0  0  0  0  0
  181.1780  176.3010  139.9230 C   0  0  0  0  0  2  0  0  0  0  0  0
  180.0170  173.1010  138.4780 N   0  0  0  0  0  2  0  0  0  0  0  0
  179.9800  174.1350  139.2500 C   0  0  0  0  0  0  0  0  0  0  0  0
  180.9180  175.1950  139.0150 N   0  0  0  0  0  2  0  0  0  0  0  0
  179.2550  173.7060  141.5970 C   0  0  0  0  0  1  0  0  0  0  0  0
  179.0250  174.1680  140.2750 O   0  0  0  0  0  0  0  0  0  0  0  0
  1 15  2  0  0  0  0
  1  5  1  0  0  0  0
  2 10  1  0  0  0  0
  3 11  1  0  0  0  0
  3 13  2  0  0  0  0
  4  7  2  0  0  0  0
  5  2  2  0  0  0  0
  6  9  1  0  0  0  0
  7  6  1  0  0  0  0
  8 13  1  0  0  0  0
  8  4  1  0  0  0  0
 11 19  1  1  0  0  0
 11  1  1  0  0  0  0
 13 17  1  0  0  0  0
 14 12  1  0  0  0  0
 14 10  2  0  0  0  0
 15 14  1  0  0  0  0
 16  4  1  0  0  0  0
 17  5  1  0  0  0  0
 17  6  2  0  0  0  0
 19 18  1  6  0  0  0
 19 22  1  0  0  0  0
 20 21  1  0  0  0  0
 21 19  1  0  0  0  0
 23 22  1  0  0  0  0
 24 25  2  0  0  0  0
 25 28  1  0  0  0  0
 26 25  1  0  0  0  0
 26 23  1  0  0  0  0
 28 27  1  0  0  0  0
M  END
>  <MODEL>
9

>  <REMARK>
 VINA RESULT:      -6.6      5.208      8.102
  Name = 
  6 active torsions:
  status: ('A' for Active; 'I' for Inactive)
    1  A    between atoms: C_5  and  C_12
    2  A    between atoms: C_5  and  C_26
    3  A    between atoms: C_12  and  N_22
    4  A    between atoms: S_13  and  C_26
    5  A    between atoms: C_17  and  C_26
    6  A    between atoms: C_21  and  O_28
                            x       y       z     vdW  Elec       q    Type
                         _______ _______ _______ _____ _____    ______ ____

>  <TORSDO>
F 6

$$$$
