=
 OpenBabel11042411043D

 39 44  0  0  1  0  0  0  0  0999 V2000
  190.6050  176.6630  138.0070 C   0  0  2  0  0  3  0  0  0  0  0  0
  189.8480  176.5130  139.3250 C   0  0  1  0  0  3  0  0  0  0  0  0
  189.3730  178.4060  140.7540 C   0  0  1  0  0  3  0  0  0  0  0  0
  189.6760  177.2770  137.0600 N   0  0  0  0  0  2  0  0  0  0  0  0
  188.3750  176.9380  137.6170 C   0  0  1  0  0  3  0  0  0  0  0  0
  190.4490  177.4030  140.4050 C   0  0  0  0  0  2  0  0  0  0  0  0
  188.4250  178.3250  139.5860 C   0  0  0  0  0  2  0  0  0  0  0  0
  188.4820  176.9550  139.0790 N   0  0  2  0  0  0  0  0  0  0  0  0
  189.3790  177.7910  143.1790 C   0  0  0  0  0  3  0  0  0  0  0  0
  186.5700  177.9210  143.3150 C   0  0  0  0  0  0  0  0  0  0  0  0
  188.6310  178.0520  142.0150 C   0  0  0  0  0  0  0  0  0  0  0  0
  187.8190  177.3970  146.7470 C   0  0  0  0  0  2  0  0  0  0  0  0
  189.4840  177.3010  145.9570 S   0  0  0  0  0  0  0  0  0  0  0  0
  186.8290  177.5400  145.7300 O   0  0  0  0  0  0  0  0  0  0  0  0
  187.2210  178.1170  142.0910 C   0  0  0  0  0  3  0  0  0  0  0  0
  187.3390  177.6820  144.4580 C   0  0  0  0  0  0  0  0  0  0  0  0
  188.7070  177.5970  144.3860 C   0  0  0  0  0  0  0  0  0  0  0  0
  185.1840  177.9810  143.3880 O   0  0  0  0  0  1  0  0  0  0  0  0
  191.0190  175.2790  137.5090 C   0  0  0  0  0  2  0  0  0  0  0  0
  192.4840  175.0310  137.7920 C   0  0  0  0  0  2  0  0  0  0  0  0
  194.0210  176.5510  136.7000 N   0  0  0  0  0  1  0  0  0  0  0  0
  193.2120  176.3580  137.8940 C   0  0  0  0  0  2  0  0  0  0  0  0
  187.2220  177.7910  137.0600 C   0  0  2  0  0  3  0  0  0  0  0  0
  186.0110  176.9680  136.9550 N   0  0  0  0  0  2  0  0  0  0  0  0
  184.5590  178.4560  138.3190 N   0  0  0  0  0  2  0  0  0  0  0  0
  184.7130  177.3490  137.4230 C   0  0  0  0  0  0  0  0  0  0  0  0
  183.7090  176.7020  137.0300 O   0  0  0  0  0  0  0  0  0  0  0  0
  183.3310  178.8170  138.9050 N   0  0  0  0  0  0  0  0  0  0  0  0
  183.2030  180.2450  138.6970 C   0  0  0  0  0  1  0  0  0  0  0  0
  182.1570  178.9250  142.4460 O   0  0  0  0  0  1  0  0  0  0  0  0
  182.1170  178.5900  141.0880 C   0  0  1  0  0  0  0  0  0  0  0  0
  180.7120  177.3810  139.5000 C   0  0  2  0  0  3  0  0  0  0  0  0
  180.7670  178.6040  140.3910 C   0  0  0  0  0  2  0  0  0  0  0  0
  183.4560  178.6010  140.3510 C   0  0  1  0  0  3  0  0  0  0  0  0
  179.4620  176.5840  139.7990 C   0  0  0  0  0  1  0  0  0  0  0  0
  181.9430  176.5450  139.7910 C   0  0  0  0  0  2  0  0  0  0  0  0
  182.8080  177.2760  140.8220 C   0  0  2  0  0  3  0  0  0  0  0  0
  187.0520  177.9660  134.6060 C   0  0  0  0  0  2  0  0  0  0  0  0
  187.5780  178.4260  135.7450 C   0  0  0  0  0  3  0  0  0  0  0  0
  1 19  1  6  0  0  0
  1  2  1  0  0  0  0
  2  6  1  1  0  0  0
  3 11  1  1  0  0  0
  4  5  1  0  0  0  0
  4  1  1  0  0  0  0
  5 23  1  1  0  0  0
  5  8  1  0  0  0  0
  6  3  1  0  0  0  0
  7  3  1  0  0  0  0
  8  2  1  0  0  0  0
  8  7  1  6  0  0  0
  9 17  1  0  0  0  0
 10 18  1  0  0  0  0
 10 16  1  0  0  0  0
 11 15  1  0  0  0  0
 11  9  2  0  0  0  0
 13 12  1  0  0  0  0
 14 12  1  0  0  0  0
 15 10  2  0  0  0  0
 16 14  1  0  0  0  0
 17 16  2  0  0  0  0
 17 13  1  0  0  0  0
 19 20  1  0  0  0  0
 20 22  1  0  0  0  0
 21 22  1  0  0  0  0
 23 39  1  6  0  0  0
 24 23  1  0  0  0  0
 24 26  1  0  0  0  0
 25 28  1  0  0  0  0
 26 25  1  0  0  0  0
 27 26  2  0  0  0  0
 29 28  1  0  0  0  0
 31 30  1  1  0  0  0
 32 36  1  0  0  0  0
 32 35  1  1  0  0  0
 32 33  1  0  0  0  0
 33 31  1  0  0  0  0
 34 28  1  6  0  0  0
 34 37  1  0  0  0  0
 34 31  1  0  0  0  0
 37 36  1  6  0  0  0
 37 31  1  0  0  0  0
 38 39  2  0  0  0  0
M  END
>  <MODEL>
1

>  <REMARK>
 VINA RESULT:      -7.2      0.000      0.000
  Name = 
  9 active torsions:
  status: ('A' for Active; 'I' for Inactive)
    1  A    between atoms: C_5  and  C_28
    2  A    between atoms: N_6  and  N_16
    3  A    between atoms: N_6  and  C_23
    4  A    between atoms: N_7  and  C_30
    5  A    between atoms: C_10  and  C_14
    6  A    between atoms: C_13  and  C_24
    7  A    between atoms: C_13  and  C_28
    8  A    between atoms: C_22  and  C_30
    9  A    between atoms: C_26  and  C_30
                            x       y       z     vdW  Elec       q    Type
                         _______ _______ _______ _____ _____    ______ ____

>  <TORSDO>
F 9

$$$$
=
 OpenBabel11042411043D

 39 44  0  0  1  0  0  0  0  0999 V2000
  187.6600  177.9710  145.9350 C   0  0  2  0  0  3  0  0  0  0  0  0
  186.5110  177.6370  144.9860 C   0  0  1  0  0  3  0  0  0  0  0  0
  185.3470  179.3450  143.7290 C   0  0  1  0  0  3  0  0  0  0  0  0
  188.8150  178.2870  145.0950 N   0  0  0  0  0  2  0  0  0  0  0  0
  188.5020  177.6070  143.8470 C   0  0  1  0  0  3  0  0  0  0  0  0
  185.4020  178.6760  145.0830 C   0  0  0  0  0  2  0  0  0  0  0  0
  186.6710  178.9850  143.1060 C   0  0  0  0  0  2  0  0  0  0  0  0
  187.0530  177.6760  143.6350 N   0  0  2  0  0  0  0  0  0  0  0  0
  182.9090  178.9680  143.3110 C   0  0  0  0  0  3  0  0  0  0  0  0
  183.4110  177.9690  140.7280 C   0  0  0  0  0  0  0  0  0  0  0  0
  184.2360  178.8190  142.8610 C   0  0  0  0  0  0  0  0  0  0  0  0
  179.7520  178.2490  141.1130 C   0  0  0  0  0  2  0  0  0  0  0  0
  180.1330  178.7700  142.8410 S   0  0  0  0  0  0  0  0  0  0  0  0
  180.9680  177.9060  140.4510 O   0  0  0  0  0  0  0  0  0  0  0  0
  184.4800  178.3180  141.5620 C   0  0  0  0  0  3  0  0  0  0  0  0
  182.1050  178.1450  141.1940 C   0  0  0  0  0  0  0  0  0  0  0  0
  181.8620  178.6110  142.4610 C   0  0  0  0  0  0  0  0  0  0  0  0
  183.6520  177.4740  139.4520 O   0  0  0  0  0  1  0  0  0  0  0  0
  187.9630  176.7500  146.8010 C   0  0  0  0  0  2  0  0  0  0  0  0
  189.1300  177.0300  147.7210 C   0  0  0  0  0  2  0  0  0  0  0  0
  191.5510  176.9670  147.7200 N   0  0  0  0  0  1  0  0  0  0  0  0
  190.3610  176.3010  147.2140 C   0  0  0  0  0  2  0  0  0  0  0  0
  189.3380  178.0960  142.6510 C   0  0  2  0  0  3  0  0  0  0  0  0
  189.7280  176.9480  141.8240 N   0  0  0  0  0  2  0  0  0  0  0  0
  189.0060  177.9250  139.6540 N   0  0  0  0  0  2  0  0  0  0  0  0
  189.7090  176.9190  140.3920 C   0  0  0  0  0  0  0  0  0  0  0  0
  190.3250  176.0010  139.7930 O   0  0  0  0  0  0  0  0  0  0  0  0
  188.8520  177.8980  138.2560 N   0  0  0  0  0  0  0  0  0  0  0  0
  189.0550  179.2620  137.8130 C   0  0  0  0  0  1  0  0  0  0  0  0
  185.8340  177.5510  136.0890 O   0  0  0  0  0  1  0  0  0  0  0  0
  187.1580  177.3460  136.4900 C   0  0  1  0  0  0  0  0  0  0  0  0
  189.1690  176.1650  135.7700 C   0  0  2  0  0  3  0  0  0  0  0  0
  188.2280  177.2960  135.4130 C   0  0  0  0  0  2  0  0  0  0  0  0
  187.4530  177.5570  137.9760 C   0  0  1  0  0  3  0  0  0  0  0  0
  189.3130  175.2260  134.5940 C   0  0  0  0  0  1  0  0  0  0  0  0
  188.5730  175.4270  136.9540 C   0  0  0  0  0  2  0  0  0  0  0  0
  187.2840  176.1360  137.3830 C   0  0  2  0  0  3  0  0  0  0  0  0
  191.6440  178.2800  143.5050 C   0  0  0  0  0  2  0  0  0  0  0  0
  190.5330  178.8950  143.0900 C   0  0  0  0  0  3  0  0  0  0  0  0
  1 19  1  1  0  0  0
  2  6  1  6  0  0  0
  2  1  1  0  0  0  0
  3 11  1  6  0  0  0
  3  6  1  0  0  0  0
  4  1  1  0  0  0  0
  5 23  1  6  0  0  0
  5  4  1  0  0  0  0
  7  3  1  0  0  0  0
  8  7  1  1  0  0  0
  8  5  1  0  0  0  0
  8  2  1  0  0  0  0
 10 16  2  0  0  0  0
 10 15  1  0  0  0  0
 11  9  1  0  0  0  0
 12 13  1  0  0  0  0
 14 12  1  0  0  0  0
 14 16  1  0  0  0  0
 15 11  2  0  0  0  0
 16 17  1  0  0  0  0
 17 13  1  0  0  0  0
 17  9  2  0  0  0  0
 18 10  1  0  0  0  0
 19 20  1  0  0  0  0
 22 21  1  0  0  0  0
 22 20  1  0  0  0  0
 23 39  1  1  0  0  0
 24 23  1  0  0  0  0
 25 26  1  0  0  0  0
 26 24  1  0  0  0  0
 27 26  2  0  0  0  0
 28 25  1  0  0  0  0
 29 28  1  0  0  0  0
 31 30  1  6  0  0  0
 31 37  1  0  0  0  0
 31 34  1  0  0  0  0
 32 35  1  6  0  0  0
 32 36  1  0  0  0  0
 33 32  1  0  0  0  0
 33 31  1  0  0  0  0
 34 28  1  6  0  0  0
 37 36  1  6  0  0  0
 37 34  1  0  0  0  0
 39 38  2  0  0  0  0
M  END
>  <MODEL>
2

>  <REMARK>
 VINA RESULT:      -7.1      3.201      7.421
  Name = 
  9 active torsions:
  status: ('A' for Active; 'I' for Inactive)
    1  A    between atoms: C_5  and  C_28
    2  A    between atoms: N_6  and  N_16
    3  A    between atoms: N_6  and  C_23
    4  A    between atoms: N_7  and  C_30
    5  A    between atoms: C_10  and  C_14
    6  A    between atoms: C_13  and  C_24
    7  A    between atoms: C_13  and  C_28
    8  A    between atoms: C_22  and  C_30
    9  A    between atoms: C_26  and  C_30
                            x       y       z     vdW  Elec       q    Type
                         _______ _______ _______ _____ _____    ______ ____

>  <TORSDO>
F 9

$$$$
=
 OpenBabel11042411043D

 39 44  0  0  1  0  0  0  0  0999 V2000
  184.1760  176.9170  136.2150 C   0  0  2  0  0  3  0  0  0  0  0  0
  185.5760  176.5270  136.6850 C   0  0  1  0  0  3  0  0  0  0  0  0
  187.4940  177.9570  136.3310 C   0  0  1  0  0  3  0  0  0  0  0  0
  183.7030  177.9530  137.1310 N   0  0  0  0  0  2  0  0  0  0  0  0
  184.5010  177.7180  138.3250 C   0  0  1  0  0  3  0  0  0  0  0  0
  186.6280  176.9190  135.6560 C   0  0  0  0  0  2  0  0  0  0  0  0
  186.6520  178.4150  137.4940 C   0  0  0  0  0  2  0  0  0  0  0  0
  185.8350  177.2750  137.9070 N   0  0  2  0  0  0  0  0  0  0  0  0
  189.6280  176.7080  135.9530 C   0  0  0  0  0  3  0  0  0  0  0  0
  190.5080  177.2300  138.5750 C   0  0  0  0  0  0  0  0  0  0  0  0
  188.7870  177.3920  136.8520 C   0  0  0  0  0  0  0  0  0  0  0  0
  193.2880  175.5960  136.7820 C   0  0  0  0  0  2  0  0  0  0  0  0
  192.0960  175.4630  135.3800 S   0  0  0  0  0  0  0  0  0  0  0  0
  192.6210  176.1650  137.9070 O   0  0  0  0  0  0  0  0  0  0  0  0
  189.2360  177.6510  138.1670 C   0  0  0  0  0  3  0  0  0  0  0  0
  191.3280  176.5700  137.6560 C   0  0  0  0  0  0  0  0  0  0  0  0
  190.8900  176.2960  136.3840 C   0  0  0  0  0  0  0  0  0  0  0  0
  190.9470  177.4820  139.8690 O   0  0  0  0  0  1  0  0  0  0  0  0
  183.2650  175.6940  136.2940 C   0  0  0  0  0  2  0  0  0  0  0  0
  184.0740  174.4220  136.1730 C   0  0  0  0  0  2  0  0  0  0  0  0
  184.5740  172.3100  137.2460 N   0  0  0  0  0  1  0  0  0  0  0  0
  183.7150  173.4820  137.3080 C   0  0  0  0  0  2  0  0  0  0  0  0
  184.5100  178.9030  139.3060 C   0  0  2  0  0  3  0  0  0  0  0  0
  184.3430  178.4060  140.6770 N   0  0  0  0  0  2  0  0  0  0  0  0
  186.7510  178.4960  141.2900 N   0  0  0  0  0  2  0  0  0  0  0  0
  185.3770  178.3510  141.6660 C   0  0  0  0  0  0  0  0  0  0  0  0
  185.0590  178.1800  142.8710 O   0  0  0  0  0  0  0  0  0  0  0  0
  187.8230  178.3430  142.1880 N   0  0  0  0  0  0  0  0  0  0  0  0
  188.9020  179.1470  141.6510 C   0  0  0  0  0  1  0  0  0  0  0  0
  190.1920  175.5120  142.7390 O   0  0  0  0  0  1  0  0  0  0  0  0
  189.3850  176.6000  143.0900 C   0  0  1  0  0  0  0  0  0  0  0  0
  188.7210  177.8780  145.0610 C   0  0  2  0  0  3  0  0  0  0  0  0
  189.8950  177.5470  144.1640 C   0  0  0  0  0  2  0  0  0  0  0  0
  188.2550  176.9430  142.1190 C   0  0  1  0  0  3  0  0  0  0  0  0
  189.0830  177.5990  146.5030 C   0  0  0  0  0  1  0  0  0  0  0  0
  187.5580  177.0020  144.6380 C   0  0  0  0  0  2  0  0  0  0  0  0
  187.9820  176.1620  143.4290 C   0  0  2  0  0  3  0  0  0  0  0  0
  182.2260  179.8240  139.4360 C   0  0  0  0  0  2  0  0  0  0  0  0
  183.4690  179.9300  138.9560 C   0  0  0  0  0  3  0  0  0  0  0  0
  1 19  1  1  0  0  0
  1  2  1  0  0  0  0
  1  4  1  0  0  0  0
  2  6  1  6  0  0  0
  2  8  1  0  0  0  0
  3 11  1  1  0  0  0
  3  7  1  0  0  0  0
  4  5  1  0  0  0  0
  5 23  1  6  0  0  0
  6  3  1  0  0  0  0
  8  7  1  6  0  0  0
  8  5  1  0  0  0  0
  9 17  2  0  0  0  0
  9 11  1  0  0  0  0
 10 18  1  0  0  0  0
 11 15  2  0  0  0  0
 12 14  1  0  0  0  0
 13 17  1  0  0  0  0
 13 12  1  0  0  0  0
 15 10  1  0  0  0  0
 16 14  1  0  0  0  0
 16 10  2  0  0  0  0
 17 16  1  0  0  0  0
 20 19  1  0  0  0  0
 20 22  1  0  0  0  0
 21 22  1  0  0  0  0
 23 39  1  6  0  0  0
 23 24  1  0  0  0  0
 24 26  1  0  0  0  0
 25 26  1  0  0  0  0
 25 28  1  0  0  0  0
 26 27  2  0  0  0  0
 29 28  1  0  0  0  0
 31 30  1  6  0  0  0
 31 37  1  0  0  0  0
 31 33  1  0  0  0  0
 32 35  1  1  0  0  0
 33 32  1  0  0  0  0
 34 28  1  1  0  0  0
 34 31  1  0  0  0  0
 34 37  1  0  0  0  0
 36 32  1  0  0  0  0
 37 36  1  1  0  0  0
 39 38  2  0  0  0  0
M  END
>  <MODEL>
3

>  <REMARK>
 VINA RESULT:      -6.8      3.204      7.260
  Name = 
  9 active torsions:
  status: ('A' for Active; 'I' for Inactive)
    1  A    between atoms: C_5  and  C_28
    2  A    between atoms: N_6  and  N_16
    3  A    between atoms: N_6  and  C_23
    4  A    between atoms: N_7  and  C_30
    5  A    between atoms: C_10  and  C_14
    6  A    between atoms: C_13  and  C_24
    7  A    between atoms: C_13  and  C_28
    8  A    between atoms: C_22  and  C_30
    9  A    between atoms: C_26  and  C_30
                            x       y       z     vdW  Elec       q    Type
                         _______ _______ _______ _____ _____    ______ ____

>  <TORSDO>
F 9

$$$$
=
 OpenBabel11042411043D

 39 44  0  0  1  0  0  0  0  0999 V2000
  187.9880  173.7470  136.2930 C   0  0  2  0  0  3  0  0  0  0  0  0
  189.3640  173.4850  136.9030 C   0  0  1  0  0  3  0  0  0  0  0  0
  191.4080  174.1470  135.7900 C   0  0  1  0  0  3  0  0  0  0  0  0
  187.7310  175.1780  136.4450 N   0  0  0  0  0  2  0  0  0  0  0  0
  188.5950  175.5460  137.5570 C   0  0  1  0  0  3  0  0  0  0  0  0
  190.3620  173.0560  135.8360 C   0  0  0  0  0  2  0  0  0  0  0  0
  190.7350  175.3070  136.4770 C   0  0  0  0  0  2  0  0  0  0  0  0
  189.8210  174.7460  137.4710 N   0  0  2  0  0  0  0  0  0  0  0  0
  193.3030  172.5740  136.2310 C   0  0  0  0  0  3  0  0  0  0  0  0
  194.5150  174.3870  138.0110 C   0  0  0  0  0  0  0  0  0  0  0  0
  192.6600  173.7890  136.5420 C   0  0  0  0  0  0  0  0  0  0  0  0
  196.8470  171.5650  137.5500 C   0  0  0  0  0  2  0  0  0  0  0  0
  195.5070  170.8340  136.5120 S   0  0  0  0  0  0  0  0  0  0  0  0
  196.3840  172.7930  138.1100 O   0  0  0  0  0  0  0  0  0  0  0  0
  193.2760  174.6940  137.4360 C   0  0  0  0  0  3  0  0  0  0  0  0
  195.1380  173.1830  137.6700 C   0  0  0  0  0  0  0  0  0  0  0  0
  194.5360  172.2910  136.8190 C   0  0  0  0  0  0  0  0  0  0  0  0
  195.1180  175.2760  138.8920 O   0  0  0  0  0  1  0  0  0  0  0  0
  186.9420  172.9430  137.0620 C   0  0  0  0  0  2  0  0  0  0  0  0
  185.5810  173.0950  136.4200 C   0  0  0  0  0  2  0  0  0  0  0  0
  183.7240  171.7450  137.1890 N   0  0  0  0  0  1  0  0  0  0  0  0
  184.5020  172.9410  137.4750 C   0  0  0  0  0  2  0  0  0  0  0  0
  188.8380  177.0600  137.6770 C   0  0  2  0  0  3  0  0  0  0  0  0
  188.1660  177.5710  138.8770 N   0  0  0  0  0  2  0  0  0  0  0  0
  190.1100  177.3010  140.4050 N   0  0  0  0  0  2  0  0  0  0  0  0
  188.8040  177.8250  140.1340 C   0  0  0  0  0  0  0  0  0  0  0  0
  188.2040  178.5210  140.9930 O   0  0  0  0  0  0  0  0  0  0  0  0
  190.7490  177.4160  141.6530 N   0  0  0  0  0  0  0  0  0  0  0  0
  192.0740  177.9280  141.3690 C   0  0  0  0  0  1  0  0  0  0  0  0
  191.9560  174.8840  144.1140 O   0  0  0  0  0  1  0  0  0  0  0  0
  191.2770  176.0230  143.6720 C   0  0  1  0  0  0  0  0  0  0  0  0
  189.8760  177.8230  144.5430 C   0  0  2  0  0  3  0  0  0  0  0  0
  191.2750  177.2470  144.5730 C   0  0  0  0  0  2  0  0  0  0  0  0
  190.9160  176.0600  142.1860 C   0  0  1  0  0  3  0  0  0  0  0  0
  189.3560  177.9830  145.9540 C   0  0  0  0  0  1  0  0  0  0  0  0
  188.9970  176.8560  143.7720 C   0  0  0  0  0  2  0  0  0  0  0  0
  189.8620  175.6990  143.2610 C   0  0  2  0  0  3  0  0  0  0  0  0
  187.3880  178.6640  136.4910 C   0  0  0  0  0  2  0  0  0  0  0  0
  188.4040  177.7980  136.4400 C   0  0  0  0  0  3  0  0  0  0  0  0
  1  4  1  0  0  0  0
  1  2  1  0  0  0  0
  1 19  1  1  0  0  0
  2  6  1  6  0  0  0
  2  8  1  0  0  0  0
  3  6  1  0  0  0  0
  3  7  1  0  0  0  0
  3 11  1  1  0  0  0
  4  5  1  0  0  0  0
  5 23  1  6  0  0  0
  8  7  1  6  0  0  0
  8  5  1  0  0  0  0
  9 11  2  0  0  0  0
  9 17  1  0  0  0  0
 10 18  1  0  0  0  0
 11 15  1  0  0  0  0
 12 14  1  0  0  0  0
 13 17  1  0  0  0  0
 13 12  1  0  0  0  0
 15 10  2  0  0  0  0
 16 10  1  0  0  0  0
 16 14  1  0  0  0  0
 17 16  2  0  0  0  0
 20 19  1  0  0  0  0
 20 22  1  0  0  0  0
 21 22  1  0  0  0  0
 23 39  1  6  0  0  0
 23 24  1  0  0  0  0
 24 26  1  0  0  0  0
 25 28  1  0  0  0  0
 26 25  1  0  0  0  0
 26 27  2  0  0  0  0
 29 28  1  0  0  0  0
 31 30  1  1  0  0  0
 31 33  1  0  0  0  0
 32 33  1  0  0  0  0
 32 35  1  1  0  0  0
 34 28  1  1  0  0  0
 34 37  1  0  0  0  0
 34 31  1  0  0  0  0
 36 32  1  0  0  0  0
 37 31  1  0  0  0  0
 37 36  1  1  0  0  0
 39 38  2  0  0  0  0
M  END
>  <MODEL>
4

>  <REMARK>
 VINA RESULT:      -6.8      4.450      8.398
  Name = 
  9 active torsions:
  status: ('A' for Active; 'I' for Inactive)
    1  A    between atoms: C_5  and  C_28
    2  A    between atoms: N_6  and  N_16
    3  A    between atoms: N_6  and  C_23
    4  A    between atoms: N_7  and  C_30
    5  A    between atoms: C_10  and  C_14
    6  A    between atoms: C_13  and  C_24
    7  A    between atoms: C_13  and  C_28
    8  A    between atoms: C_22  and  C_30
    9  A    between atoms: C_26  and  C_30
                            x       y       z     vdW  Elec       q    Type
                         _______ _______ _______ _____ _____    ______ ____

>  <TORSDO>
F 9

$$$$
=
 OpenBabel11042411043D

 39 44  0  0  1  0  0  0  0  0999 V2000
  190.6570  177.1600  142.5990 C   0  0  2  0  0  3  0  0  0  0  0  0
  189.1850  177.0780  142.1980 C   0  0  1  0  0  3  0  0  0  0  0  0
  188.0400  178.9250  141.1370 C   0  0  1  0  0  3  0  0  0  0  0  0
  191.4310  177.0650  141.3630 N   0  0  0  0  0  2  0  0  0  0  0  0
  190.5120  176.3930  140.4570 C   0  0  1  0  0  3  0  0  0  0  0  0
  188.4660  178.3890  142.4850 C   0  0  0  0  0  2  0  0  0  0  0  0
  188.8980  178.1560  140.1660 C   0  0  0  0  0  2  0  0  0  0  0  0
  189.1510  176.8450  140.7610 N   0  0  2  0  0  0  0  0  0  0  0  0
  185.6660  178.7030  141.8940 C   0  0  0  0  0  3  0  0  0  0  0  0
  184.7530  178.3970  139.2480 C   0  0  0  0  0  0  0  0  0  0  0  0
  186.5910  178.6570  140.8330 C   0  0  0  0  0  0  0  0  0  0  0  0
  181.7810  178.6190  141.4240 C   0  0  0  0  0  2  0  0  0  0  0  0
  182.9970  178.6720  142.8110 S   0  0  0  0  0  0  0  0  0  0  0  0
  182.4840  178.4420  140.1960 O   0  0  0  0  0  0  0  0  0  0  0  0
  186.1250  178.5040  139.5070 C   0  0  0  0  0  3  0  0  0  0  0  0
  183.8570  178.4650  140.3190 C   0  0  0  0  0  0  0  0  0  0  0  0
  184.3040  178.5920  141.6100 C   0  0  0  0  0  0  0  0  0  0  0  0
  184.2960  178.2440  137.9460 O   0  0  0  0  0  1  0  0  0  0  0  0
  190.9900  175.9830  143.5150 C   0  0  0  0  0  2  0  0  0  0  0  0
  191.6200  176.4750  144.8000 C   0  0  0  0  0  2  0  0  0  0  0  0
  189.7060  177.1870  146.1010 N   0  0  0  0  0  1  0  0  0  0  0  0
  190.8390  177.6650  145.3240 C   0  0  0  0  0  2  0  0  0  0  0  0
  190.9020  176.5210  138.9740 C   0  0  2  0  0  3  0  0  0  0  0  0
  190.7640  175.2170  138.3160 N   0  0  0  0  0  2  0  0  0  0  0  0
  188.7340  175.7930  137.0010 N   0  0  0  0  0  2  0  0  0  0  0  0
  189.8310  174.9130  137.2730 C   0  0  0  0  0  0  0  0  0  0  0  0
  189.9920  173.8660  136.5960 O   0  0  0  0  0  0  0  0  0  0  0  0
  187.7190  175.5050  136.0700 N   0  0  0  0  0  0  0  0  0  0  0  0
  187.7260  176.6070  135.1300 C   0  0  0  0  0  1  0  0  0  0  0  0
  184.0030  175.3200  136.3560 O   0  0  0  0  0  1  0  0  0  0  0  0
  185.2910  174.8750  136.0440 C   0  0  1  0  0  0  0  0  0  0  0  0
  186.4220  172.9180  135.1210 C   0  0  2  0  0  3  0  0  0  0  0  0
  185.4720  174.0470  134.7820 C   0  0  0  0  0  2  0  0  0  0  0  0
  186.4400  175.5580  136.7860 C   0  0  1  0  0  3  0  0  0  0  0  0
  185.8010  171.5930  134.7360 C   0  0  0  0  0  1  0  0  0  0  0  0
  186.6720  172.9600  136.6160 C   0  0  0  0  0  2  0  0  0  0  0  0
  185.9270  174.1600  137.2100 C   0  0  2  0  0  3  0  0  0  0  0  0
  193.0600  176.6840  137.7930 C   0  0  0  0  0  2  0  0  0  0  0  0
  192.2850  177.0860  138.8030 C   0  0  0  0  0  3  0  0  0  0  0  0
  1 19  1  1  0  0  0
  2  6  1  6  0  0  0
  2  1  1  0  0  0  0
  3 11  1  6  0  0  0
  3  6  1  0  0  0  0
  4  1  1  0  0  0  0
  5 23  1  6  0  0  0
  5  8  1  0  0  0  0
  5  4  1  0  0  0  0
  7  3  1  0  0  0  0
  8  7  1  6  0  0  0
  8  2  1  0  0  0  0
 10 15  2  0  0  0  0
 10 16  1  0  0  0  0
 11  9  2  0  0  0  0
 12 13  1  0  0  0  0
 14 16  1  0  0  0  0
 14 12  1  0  0  0  0
 15 11  1  0  0  0  0
 16 17  2  0  0  0  0
 17  9  1  0  0  0  0
 17 13  1  0  0  0  0
 18 10  1  0  0  0  0
 19 20  1  0  0  0  0
 20 22  1  0  0  0  0
 22 21  1  0  0  0  0
 23 39  1  1  0  0  0
 24 23  1  0  0  0  0
 25 26  1  0  0  0  0
 26 24  1  0  0  0  0
 27 26  2  0  0  0  0
 28 25  1  0  0  0  0
 29 28  1  0  0  0  0
 31 30  1  1  0  0  0
 31 34  1  0  0  0  0
 31 37  1  0  0  0  0
 32 35  1  1  0  0  0
 32 36  1  0  0  0  0
 33 32  1  0  0  0  0
 33 31  1  0  0  0  0
 34 28  1  6  0  0  0
 34 37  1  0  0  0  0
 37 36  1  6  0  0  0
 38 39  2  0  0  0  0
M  END
>  <MODEL>
5

>  <REMARK>
 VINA RESULT:      -6.7      3.121      6.022
  Name = 
  9 active torsions:
  status: ('A' for Active; 'I' for Inactive)
    1  A    between atoms: C_5  and  C_28
    2  A    between atoms: N_6  and  N_16
    3  A    between atoms: N_6  and  C_23
    4  A    between atoms: N_7  and  C_30
    5  A    between atoms: C_10  and  C_14
    6  A    between atoms: C_13  and  C_24
    7  A    between atoms: C_13  and  C_28
    8  A    between atoms: C_22  and  C_30
    9  A    between atoms: C_26  and  C_30
                            x       y       z     vdW  Elec       q    Type
                         _______ _______ _______ _____ _____    ______ ____

>  <TORSDO>
F 9

$$$$
=
 OpenBabel11042411043D

 39 44  0  0  1  0  0  0  0  0999 V2000
  183.6320  176.4370  136.8540 C   0  0  2  0  0  3  0  0  0  0  0  0
  185.0270  176.0240  137.3210 C   0  0  1  0  0  3  0  0  0  0  0  0
  187.0290  177.0950  136.4870 C   0  0  1  0  0  3  0  0  0  0  0  0
  183.3400  177.7170  137.4970 N   0  0  0  0  0  2  0  0  0  0  0  0
  184.2170  177.7040  138.6580 C   0  0  1  0  0  3  0  0  0  0  0  0
  186.0140  176.0230  136.1620 C   0  0  0  0  0  2  0  0  0  0  0  0
  186.3400  177.9230  137.5410 C   0  0  0  0  0  2  0  0  0  0  0  0
  185.4610  177.0230  138.2870 N   0  0  2  0  0  0  0  0  0  0  0  0
  188.9250  175.4660  136.3840 C   0  0  0  0  0  3  0  0  0  0  0  0
  190.2200  176.6930  138.5620 C   0  0  0  0  0  0  0  0  0  0  0  0
  188.3060  176.5390  137.0560 C   0  0  0  0  0  0  0  0  0  0  0  0
  192.5070  174.1270  137.2180 C   0  0  0  0  0  2  0  0  0  0  0  0
  191.1220  173.7240  136.0680 S   0  0  0  0  0  0  0  0  0  0  0  0
  192.0770  175.1410  138.1250 O   0  0  0  0  0  0  0  0  0  0  0  0
  188.9630  177.1500  138.1470 C   0  0  0  0  0  3  0  0  0  0  0  0
  190.8190  175.6400  137.8650 C   0  0  0  0  0  0  0  0  0  0  0  0
  190.1770  175.0280  136.8170 C   0  0  0  0  0  0  0  0  0  0  0  0
  190.8630  177.2930  139.6370 O   0  0  0  0  0  1  0  0  0  0  0  0
  182.6230  175.3830  137.3060 C   0  0  0  0  0  2  0  0  0  0  0  0
  181.2100  175.8610  137.0520 C   0  0  0  0  0  2  0  0  0  0  0  0
  179.9970  174.5820  138.7120 N   0  0  0  0  0  1  0  0  0  0  0  0
  180.4510  175.9190  138.3650 C   0  0  0  0  0  2  0  0  0  0  0  0
  184.4220  179.0900  139.2940 C   0  0  2  0  0  3  0  0  0  0  0  0
  184.2880  178.9850  140.7510 N   0  0  0  0  0  2  0  0  0  0  0  0
  186.7090  178.6620  141.2200 N   0  0  0  0  0  2  0  0  0  0  0  0
  185.3780  178.9300  141.6780 C   0  0  0  0  0  0  0  0  0  0  0  0
  185.1520  179.1280  142.8990 O   0  0  0  0  0  0  0  0  0  0  0  0
  187.8070  178.4860  142.0810 N   0  0  0  0  0  0  0  0  0  0  0  0
  188.8670  179.3100  141.5390 C   0  0  0  0  0  1  0  0  0  0  0  0
  190.1590  175.6280  142.5610 O   0  0  0  0  0  1  0  0  0  0  0  0
  189.3430  176.6980  142.9410 C   0  0  1  0  0  0  0  0  0  0  0  0
  188.6210  177.8780  144.9530 C   0  0  2  0  0  3  0  0  0  0  0  0
  189.8200  177.5900  144.0750 C   0  0  0  0  0  2  0  0  0  0  0  0
  188.2410  177.0900  141.9560 C   0  0  1  0  0  3  0  0  0  0  0  0
  188.9410  177.5270  146.3890 C   0  0  0  0  0  1  0  0  0  0  0  0
  187.4710  177.0250  144.4530 C   0  0  0  0  0  2  0  0  0  0  0  0
  187.9300  176.2460  143.2170 C   0  0  2  0  0  3  0  0  0  0  0  0
  182.2480  180.2510  139.2140 C   0  0  0  0  0  2  0  0  0  0  0  0
  183.4820  180.1150  138.7220 C   0  0  0  0  0  3  0  0  0  0  0  0
  1 19  1  1  0  0  0
  1  2  1  0  0  0  0
  1  4  1  0  0  0  0
  2  6  1  6  0  0  0
  2  8  1  0  0  0  0
  3 11  1  1  0  0  0
  3  7  1  0  0  0  0
  4  5  1  0  0  0  0
  5 23  1  6  0  0  0
  6  3  1  0  0  0  0
  8  7  1  6  0  0  0
  8  5  1  0  0  0  0
  9 17  2  0  0  0  0
  9 11  1  0  0  0  0
 10 18  1  0  0  0  0
 11 15  2  0  0  0  0
 12 14  1  0  0  0  0
 13 17  1  0  0  0  0
 13 12  1  0  0  0  0
 15 10  1  0  0  0  0
 16 14  1  0  0  0  0
 16 10  2  0  0  0  0
 17 16  1  0  0  0  0
 20 19  1  0  0  0  0
 20 22  1  0  0  0  0
 22 21  1  0  0  0  0
 23 39  1  6  0  0  0
 23 24  1  0  0  0  0
 24 26  1  0  0  0  0
 25 26  1  0  0  0  0
 25 28  1  0  0  0  0
 26 27  2  0  0  0  0
 29 28  1  0  0  0  0
 31 30  1  6  0  0  0
 31 37  1  0  0  0  0
 31 33  1  0  0  0  0
 32 35  1  1  0  0  0
 33 32  1  0  0  0  0
 34 28  1  1  0  0  0
 34 31  1  0  0  0  0
 34 37  1  0  0  0  0
 36 32  1  0  0  0  0
 37 36  1  1  0  0  0
 39 38  2  0  0  0  0
M  END
>  <MODEL>
6

>  <REMARK>
 VINA RESULT:      -6.3      3.125      7.605
  Name = 
  9 active torsions:
  status: ('A' for Active; 'I' for Inactive)
    1  A    between atoms: C_5  and  C_28
    2  A    between atoms: N_6  and  N_16
    3  A    between atoms: N_6  and  C_23
    4  A    between atoms: N_7  and  C_30
    5  A    between atoms: C_10  and  C_14
    6  A    between atoms: C_13  and  C_24
    7  A    between atoms: C_13  and  C_28
    8  A    between atoms: C_22  and  C_30
    9  A    between atoms: C_26  and  C_30
                            x       y       z     vdW  Elec       q    Type
                         _______ _______ _______ _____ _____    ______ ____

>  <TORSDO>
F 9

$$$$
=
 OpenBabel11042411043D

 39 44  0  0  1  0  0  0  0  0999 V2000
  189.6820  177.1610  136.4120 C   0  0  2  0  0  3  0  0  0  0  0  0
  189.2990  176.9510  137.8760 C   0  0  1  0  0  3  0  0  0  0  0  0
  188.1230  178.6390  139.1490 C   0  0  1  0  0  3  0  0  0  0  0  0
  188.4490  177.0340  135.6370 N   0  0  0  0  0  2  0  0  0  0  0  0
  187.5980  176.2400  136.5100 C   0  0  1  0  0  3  0  0  0  0  0  0
  189.5010  178.2270  138.6820 C   0  0  0  0  0  2  0  0  0  0  0  0
  187.2000  177.8660  138.2430 C   0  0  0  0  0  2  0  0  0  0  0  0
  187.8810  176.6190  137.8980 N   0  0  2  0  0  0  0  0  0  0  0  0
  188.9300  177.8260  141.3720 C   0  0  0  0  0  3  0  0  0  0  0  0
  186.3950  178.2040  142.5350 C   0  0  0  0  0  0  0  0  0  0  0  0
  187.8490  178.2520  140.5760 C   0  0  0  0  0  0  0  0  0  0  0  0
  188.7260  177.2800  145.2430 C   0  0  0  0  0  2  0  0  0  0  0  0
  189.9700  177.0970  143.8930 S   0  0  0  0  0  0  0  0  0  0  0  0
  187.4600  177.6000  144.6680 O   0  0  0  0  0  0  0  0  0  0  0  0
  186.5790  178.4410  141.1680 C   0  0  0  0  0  3  0  0  0  0  0  0
  187.4900  177.8000  143.3050 C   0  0  0  0  0  0  0  0  0  0  0  0
  188.7200  177.5940  142.7320 C   0  0  0  0  0  0  0  0  0  0  0  0
  185.1460  178.3870  143.1150 O   0  0  0  0  0  1  0  0  0  0  0  0
  190.6740  176.0750  135.9970 C   0  0  0  0  0  2  0  0  0  0  0  0
  191.4890  175.6200  137.1860 C   0  0  0  0  0  2  0  0  0  0  0  0
  193.2340  176.7480  138.4300 N   0  0  0  0  0  1  0  0  0  0  0  0
  192.8740  176.2360  137.1170 C   0  0  0  0  0  2  0  0  0  0  0  0
  186.1070  176.2930  136.1350 C   0  0  2  0  0  3  0  0  0  0  0  0
  185.3200  175.5890  137.1540 N   0  0  0  0  0  2  0  0  0  0  0  0
  183.5220  177.2990  137.3320 N   0  0  0  0  0  2  0  0  0  0  0  0
  184.0240  175.9870  137.6160 C   0  0  0  0  0  0  0  0  0  0  0  0
  183.3310  175.1660  138.2690 O   0  0  0  0  0  0  0  0  0  0  0  0
  182.3110  177.7950  137.8460 N   0  0  0  0  0  0  0  0  0  0  0  0
  181.3600  177.7130  136.7560 C   0  0  0  0  0  1  0  0  0  0  0  0
  181.2100  181.2250  138.8220 O   0  0  0  0  0  1  0  0  0  0  0  0
  181.3790  179.8430  138.9560 C   0  0  1  0  0  0  0  0  0  0  0  0
  180.8780  178.0390  140.5230 C   0  0  2  0  0  3  0  0  0  0  0  0
  180.2480  179.0450  139.5820 C   0  0  0  0  0  2  0  0  0  0  0  0
  182.5100  179.2190  138.1370 C   0  0  1  0  0  3  0  0  0  0  0  0
  180.2540  178.1600  141.8950 C   0  0  0  0  0  1  0  0  0  0  0  0
  182.3610  178.3460  140.5970 C   0  0  0  0  0  2  0  0  0  0  0  0
  182.6760  179.5080  139.6500 C   0  0  2  0  0  3  0  0  0  0  0  0
  185.1020  174.6510  134.5940 C   0  0  0  0  0  2  0  0  0  0  0  0
  185.8540  175.7420  134.7590 C   0  0  0  0  0  3  0  0  0  0  0  0
  1 19  1  6  0  0  0
  1  2  1  0  0  0  0
  2  8  1  0  0  0  0
  2  6  1  1  0  0  0
  3 11  1  1  0  0  0
  4  1  1  0  0  0  0
  4  5  1  0  0  0  0
  5 23  1  6  0  0  0
  5  8  1  0  0  0  0
  6  3  1  0  0  0  0
  7  3  1  0  0  0  0
  8  7  1  6  0  0  0
  9 17  1  0  0  0  0
 10 18  1  0  0  0  0
 10 16  1  0  0  0  0
 11 15  1  0  0  0  0
 11  9  2  0  0  0  0
 13 12  1  0  0  0  0
 14 12  1  0  0  0  0
 15 10  2  0  0  0  0
 16 14  1  0  0  0  0
 17 16  2  0  0  0  0
 17 13  1  0  0  0  0
 19 20  1  0  0  0  0
 22 20  1  0  0  0  0
 22 21  1  0  0  0  0
 23 39  1  6  0  0  0
 23 24  1  0  0  0  0
 24 26  1  0  0  0  0
 25 26  1  0  0  0  0
 25 28  1  0  0  0  0
 26 27  2  0  0  0  0
 29 28  1  0  0  0  0
 31 30  1  6  0  0  0
 31 33  1  0  0  0  0
 31 37  1  0  0  0  0
 32 36  1  0  0  0  0
 32 35  1  1  0  0  0
 33 32  1  0  0  0  0
 34 28  1  1  0  0  0
 34 31  1  0  0  0  0
 34 37  1  0  0  0  0
 37 36  1  1  0  0  0
 38 39  2  0  0  0  0
M  END
>  <MODEL>
7

>  <REMARK>
 VINA RESULT:      -6.2      1.726      2.083
  Name = 
  9 active torsions:
  status: ('A' for Active; 'I' for Inactive)
    1  A    between atoms: C_5  and  C_28
    2  A    between atoms: N_6  and  N_16
    3  A    between atoms: N_6  and  C_23
    4  A    between atoms: N_7  and  C_30
    5  A    between atoms: C_10  and  C_14
    6  A    between atoms: C_13  and  C_24
    7  A    between atoms: C_13  and  C_28
    8  A    between atoms: C_22  and  C_30
    9  A    between atoms: C_26  and  C_30
                            x       y       z     vdW  Elec       q    Type
                         _______ _______ _______ _____ _____    ______ ____

>  <TORSDO>
F 9

$$$$
=
 OpenBabel11042411043D

 39 44  0  0  1  0  0  0  0  0999 V2000
  182.0630  178.7080  140.6720 C   0  0  2  0  0  3  0  0  0  0  0  0
  183.1030  177.9170  139.8810 C   0  0  1  0  0  3  0  0  0  0  0  0
  184.9160  179.0010  138.7030 C   0  0  1  0  0  3  0  0  0  0  0  0
  182.7270  179.1590  141.8950 N   0  0  0  0  0  2  0  0  0  0  0  0
  183.8170  178.2060  142.0420 C   0  0  1  0  0  3  0  0  0  0  0  0
  183.4570  178.6270  138.5810 C   0  0  0  0  0  2  0  0  0  0  0  0
  185.1830  178.8950  140.1820 C   0  0  0  0  0  2  0  0  0  0  0  0
  184.3020  177.8520  140.7040 N   0  0  2  0  0  0  0  0  0  0  0  0
  187.1950  178.0480  138.3030 C   0  0  0  0  0  3  0  0  0  0  0  0
  186.1790  176.1240  136.5160 C   0  0  0  0  0  0  0  0  0  0  0  0
  185.8260  178.0530  137.9700 C   0  0  0  0  0  0  0  0  0  0  0  0
  189.7530  175.3680  137.0400 C   0  0  0  0  0  2  0  0  0  0  0  0
  189.7620  176.8990  138.0700 S   0  0  0  0  0  0  0  0  0  0  0  0
  188.4590  175.2060  136.4600 O   0  0  0  0  0  0  0  0  0  0  0  0
  185.3230  177.0830  137.0730 C   0  0  0  0  0  3  0  0  0  0  0  0
  187.5290  176.1320  136.8800 C   0  0  0  0  0  0  0  0  0  0  0  0
  188.0270  177.0830  137.7340 C   0  0  0  0  0  0  0  0  0  0  0  0
  185.6850  175.1740  135.6320 O   0  0  0  0  0  1  0  0  0  0  0  0
  180.8950  177.7870  141.0210 C   0  0  0  0  0  2  0  0  0  0  0  0
  179.9180  178.4950  141.9320 C   0  0  0  0  0  2  0  0  0  0  0  0
  179.6590  180.8780  142.2770 N   0  0  0  0  0  1  0  0  0  0  0  0
  179.4980  179.8100  141.3020 C   0  0  0  0  0  2  0  0  0  0  0  0
  184.9190  178.6730  143.0090 C   0  0  2  0  0  3  0  0  0  0  0  0
  185.5880  177.5030  143.5890 N   0  0  0  0  0  2  0  0  0  0  0  0
  187.9100  178.3120  143.2180 N   0  0  0  0  0  2  0  0  0  0  0  0
  186.9960  177.3910  143.8250 C   0  0  0  0  0  0  0  0  0  0  0  0
  187.4180  176.4760  144.5780 O   0  0  0  0  0  0  0  0  0  0  0  0
  189.3090  178.1970  143.3150 N   0  0  0  0  0  0  0  0  0  0  0  0
  189.7920  179.5300  143.6090 C   0  0  0  0  0  1  0  0  0  0  0  0
  191.9650  177.5020  140.7870 O   0  0  0  0  0  1  0  0  0  0  0  0
  191.2600  177.3490  141.9860 C   0  0  1  0  0  0  0  0  0  0  0  0
  191.3020  176.0040  144.0230 C   0  0  2  0  0  3  0  0  0  0  0  0
  192.0560  177.0650  143.2490 C   0  0  0  0  0  2  0  0  0  0  0  0
  189.8120  177.8400  141.9840 C   0  0  1  0  0  3  0  0  0  0  0  0
  192.2250  174.8500  144.3440 C   0  0  0  0  0  1  0  0  0  0  0  0
  190.1560  175.5270  143.1510 C   0  0  0  0  0  2  0  0  0  0  0  0
  190.1510  176.3350  141.8500 C   0  0  2  0  0  3  0  0  0  0  0  0
  183.8960  179.0930  145.2130 C   0  0  0  0  0  2  0  0  0  0  0  0
  184.3820  179.5900  144.0720 C   0  0  0  0  0  3  0  0  0  0  0  0
  1 19  1  1  0  0  0
  1  4  1  0  0  0  0
  2  6  1  6  0  0  0
  2  1  1  0  0  0  0
  2  8  1  0  0  0  0
  3 11  1  6  0  0  0
  3  7  1  0  0  0  0
  4  5  1  0  0  0  0
  5 23  1  1  0  0  0
  6  3  1  0  0  0  0
  8  7  1  6  0  0  0
  8  5  1  0  0  0  0
 10 16  2  0  0  0  0
 10 15  1  0  0  0  0
 11  9  1  0  0  0  0
 12 13  1  0  0  0  0
 14 16  1  0  0  0  0
 14 12  1  0  0  0  0
 15 11  2  0  0  0  0
 16 17  1  0  0  0  0
 17 13  1  0  0  0  0
 17  9  2  0  0  0  0
 18 10  1  0  0  0  0
 19 20  1  0  0  0  0
 22 20  1  0  0  0  0
 22 21  1  0  0  0  0
 23 24  1  0  0  0  0
 23 39  1  1  0  0  0
 24 26  1  0  0  0  0
 25 28  1  0  0  0  0
 25 26  1  0  0  0  0
 26 27  2  0  0  0  0
 28 29  1  0  0  0  0
 31 30  1  6  0  0  0
 31 33  1  0  0  0  0
 32 35  1  6  0  0  0
 33 32  1  0  0  0  0
 34 31  1  0  0  0  0
 34 28  1  1  0  0  0
 36 32  1  0  0  0  0
 37 34  1  0  0  0  0
 37 31  1  0  0  0  0
 37 36  1  1  0  0  0
 39 38  2  0  0  0  0
M  END
>  <MODEL>
8

>  <REMARK>
 VINA RESULT:      -6.0      3.090      8.903
  Name = 
  9 active torsions:
  status: ('A' for Active; 'I' for Inactive)
    1  A    between atoms: C_5  and  C_28
    2  A    between atoms: N_6  and  N_16
    3  A    between atoms: N_6  and  C_23
    4  A    between atoms: N_7  and  C_30
    5  A    between atoms: C_10  and  C_14
    6  A    between atoms: C_13  and  C_24
    7  A    between atoms: C_13  and  C_28
    8  A    between atoms: C_22  and  C_30
    9  A    between atoms: C_26  and  C_30
                            x       y       z     vdW  Elec       q    Type
                         _______ _______ _______ _____ _____    ______ ____

>  <TORSDO>
F 9

$$$$
=
 OpenBabel11042411043D

 39 44  0  0  1  0  0  0  0  0999 V2000
  180.0510  178.3070  139.9000 C   0  0  2  0  0  3  0  0  0  0  0  0
  180.4190  176.8720  139.5250 C   0  0  1  0  0  3  0  0  0  0  0  0
  181.5870  176.3420  137.4740 C   0  0  1  0  0  3  0  0  0  0  0  0
  181.2920  178.9600  140.3150 N   0  0  0  0  0  2  0  0  0  0  0  0
  182.1320  177.8380  140.7080 C   0  0  1  0  0  3  0  0  0  0  0  0
  180.2130  176.6260  138.0360 C   0  0  0  0  0  2  0  0  0  0  0  0
  182.5170  176.8670  138.5370 C   0  0  0  0  0  2  0  0  0  0  0  0
  181.8350  176.7090  139.8210 N   0  0  2  0  0  0  0  0  0  0  0  0
  180.8160  174.0810  136.7320 C   0  0  0  0  0  3  0  0  0  0  0  0
  183.3670  172.9680  137.1590 C   0  0  0  0  0  0  0  0  0  0  0  0
  181.8450  174.8730  137.2770 C   0  0  0  0  0  0  0  0  0  0  0  0
  181.2850  170.3770  135.5550 C   0  0  0  0  0  2  0  0  0  0  0  0
  179.9240  171.6170  135.6840 S   0  0  0  0  0  0  0  0  0  0  0  0
  182.4570  170.9070  136.1740 O   0  0  0  0  0  0  0  0  0  0  0  0
  183.1230  174.3080  137.4870 C   0  0  0  0  0  3  0  0  0  0  0  0
  182.3320  172.2110  136.6030 C   0  0  0  0  0  0  0  0  0  0  0  0
  181.0830  172.7480  136.4150 C   0  0  0  0  0  0  0  0  0  0  0  0
  184.6220  172.4120  137.3700 O   0  0  0  0  0  1  0  0  0  0  0  0
  179.0610  178.2790  141.0630 C   0  0  0  0  0  2  0  0  0  0  0  0
  179.1180  179.5780  141.8370 C   0  0  0  0  0  2  0  0  0  0  0  0
  179.6780  177.9480  143.5390 N   0  0  0  0  0  1  0  0  0  0  0  0
  179.1340  179.2800  143.3250 C   0  0  0  0  0  2  0  0  0  0  0  0
  183.6270  178.1890  140.8020 C   0  0  2  0  0  3  0  0  0  0  0  0
  183.9930  178.3970  142.2080 N   0  0  0  0  0  2  0  0  0  0  0  0
  186.4500  178.2020  141.8760 N   0  0  0  0  0  2  0  0  0  0  0  0
  185.3300  178.5510  142.6980 C   0  0  0  0  0  0  0  0  0  0  0  0
  185.5060  179.0030  143.8580 O   0  0  0  0  0  0  0  0  0  0  0  0
  187.7820  178.2220  142.3270 N   0  0  0  0  0  0  0  0  0  0  0  0
  188.5150  179.0020  141.3520 C   0  0  0  0  0  1  0  0  0  0  0  0
  190.3550  175.5500  142.7370 O   0  0  0  0  0  1  0  0  0  0  0  0
  189.5150  176.5960  143.1320 C   0  0  1  0  0  0  0  0  0  0  0  0
  188.9350  177.8790  145.1260 C   0  0  2  0  0  3  0  0  0  0  0  0
  190.0500  177.5960  144.1430 C   0  0  0  0  0  2  0  0  0  0  0  0
  188.2910  176.8480  142.2510 C   0  0  1  0  0  3  0  0  0  0  0  0
  189.4270  177.6560  146.5390 C   0  0  0  0  0  1  0  0  0  0  0  0
  187.7960  176.9260  144.8160 C   0  0  0  0  0  2  0  0  0  0  0  0
  188.1720  176.0840  143.5930 C   0  0  2  0  0  3  0  0  0  0  0  0
  184.6640  179.2230  138.8180 C   0  0  0  0  0  2  0  0  0  0  0  0
  183.9790  179.3800  139.9550 C   0  0  0  0  0  3  0  0  0  0  0  0
  1  4  1  0  0  0  0
  1 19  1  1  0  0  0
  2  6  1  6  0  0  0
  2  8  1  0  0  0  0
  2  1  1  0  0  0  0
  3 11  1  1  0  0  0
  3  6  1  0  0  0  0
  3  7  1  0  0  0  0
  4  5  1  0  0  0  0
  5 23  1  6  0  0  0
  8  7  1  6  0  0  0
  8  5  1  0  0  0  0
  9 11  1  0  0  0  0
 10 18  1  0  0  0  0
 10 15  1  0  0  0  0
 11 15  2  0  0  0  0
 12 13  1  0  0  0  0
 12 14  1  0  0  0  0
 13 17  1  0  0  0  0
 14 16  1  0  0  0  0
 16 10  2  0  0  0  0
 17 16  1  0  0  0  0
 17  9  2  0  0  0  0
 19 20  1  0  0  0  0
 20 22  1  0  0  0  0
 22 21  1  0  0  0  0
 23 39  1  6  0  0  0
 23 24  1  0  0  0  0
 24 26  1  0  0  0  0
 25 28  1  0  0  0  0
 25 26  1  0  0  0  0
 26 27  2  0  0  0  0
 29 28  1  0  0  0  0
 31 30  1  6  0  0  0
 31 37  1  0  0  0  0
 31 33  1  0  0  0  0
 32 35  1  1  0  0  0
 33 32  1  0  0  0  0
 34 28  1  1  0  0  0
 34 31  1  0  0  0  0
 34 37  1  0  0  0  0
 36 32  1  0  0  0  0
 37 36  1  1  0  0  0
 38 39  2  0  0  0  0
M  END
>  <MODEL>
9

>  <REMARK>
 VINA RESULT:      -6.0      4.210      9.669
  Name = 
  9 active torsions:
  status: ('A' for Active; 'I' for Inactive)
    1  A    between atoms: C_5  and  C_28
    2  A    between atoms: N_6  and  N_16
    3  A    between atoms: N_6  and  C_23
    4  A    between atoms: N_7  and  C_30
    5  A    between atoms: C_10  and  C_14
    6  A    between atoms: C_13  and  C_24
    7  A    between atoms: C_13  and  C_28
    8  A    between atoms: C_22  and  C_30
    9  A    between atoms: C_26  and  C_30
                            x       y       z     vdW  Elec       q    Type
                         _______ _______ _______ _____ _____    ______ ____

>  <TORSDO>
F 9

$$$$
