=
 OpenBabel11032420353D

 69 76  0  0  1  0  0  0  0  0999 V2000
  180.6660  178.3910  138.6870 N   0  0  0  0  0  0  0  0  0  0  0  0
  184.7600  177.4560  138.6730 N   0  0  0  0  0  0  0  0  0  0  0  0
  183.2840  178.3080  140.2720 N   0  0  0  0  0  0  0  0  0  0  0  0
  182.4910  176.7680  138.4010 C   0  0  0  0  0  0  0  0  0  0  0  0
  180.1920  176.3130  137.5850 C   0  0  0  0  0  2  0  0  0  0  0  0
  185.1560  176.6370  137.5590 C   0  0  0  0  0  0  0  0  0  0  0  0
  178.9310  177.1670  137.6070 C   0  0  0  0  0  2  0  0  0  0  0  0
  186.9450  174.3670  136.5590 N   0  0  0  0  0  0  0  0  0  0  0  0
  185.8110  174.2700  135.7250 N   0  0  0  0  0  0  0  0  0  0  0  0
  179.3320  178.5370  138.1340 C   0  0  0  0  0  2  0  0  0  0  0  0
  182.9700  175.5090  137.7190 C   0  0  0  0  0  2  0  0  0  0  0  0
  183.5960  174.5630  134.9000 C   0  0  0  0  0  1  0  0  0  0  0  0
  181.1970  177.1210  138.3210 C   0  0  0  0  0  0  0  0  0  0  0  0
  182.2400  179.8020  141.7750 N   0  0  0  0  0  2  0  0  0  0  0  0
  187.3090  175.5900  137.2100 C   0  0  0  0  0  0  0  0  0  0  0  0
  183.5320  177.5730  139.0750 C   0  0  0  0  0  0  0  0  0  0  0  0
  181.2340  179.3910  139.5420 C   0  0  0  0  0  0  0  0  0  0  0  0
  183.0100  180.2660  143.9170 O   0  0  0  0  0  0  0  0  0  0  0  0
  186.5100  176.8210  136.9550 C   0  0  2  0  0  3  0  0  0  0  0  0
  184.3150  175.7050  137.0690 C   0  0  0  0  0  0  0  0  0  0  0  0
  180.7540  180.5580  139.5170 O   0  0  0  0  0  0  0  0  0  0  0  0
  182.9070  179.4240  142.9860 C   0  0  0  0  0  0  0  0  0  0  0  0
  184.6590  174.8510  135.8990 C   0  0  0  0  0  0  0  0  0  0  0  0
  188.2590  175.6050  138.0400 O   0  0  0  0  0  0  0  0  0  0  0  0
  182.2740  179.0780  140.5380 C   0  0  0  0  0  0  0  0  0  0  0  0
  187.1880  178.0880  137.3920 C   0  0  0  0  0  3  0  0  0  0  0  0
  188.5160  178.1700  137.4260 C   0  0  0  0  0  2  0  0  0  0  0  0
  187.9330  173.3000  136.5040 C   0  0  0  0  0  2  0  0  0  0  0  0
  188.8800  173.5100  135.3380 C   0  0  0  0  0  2  0  0  0  0  0  0
  190.2690  173.0840  135.7410 C   0  0  0  0  0  2  0  0  0  0  0  0
  190.9280  172.3260  134.5980 C   0  0  0  0  0  2  0  0  0  0  0  0
  191.4290  170.9840  135.0900 C   0  0  0  0  0  2  0  0  0  0  0  0
  192.9360  171.0180  135.2680 C   0  0  0  0  0  2  0  0  0  0  0  0
  193.2610  171.7180  136.4340 O   0  0  0  0  0  0  0  0  0  0  0  0
  194.6390  172.6370  136.0480 P   0  0  0  0  0  0  0  0  0  0  0  0
  194.9460  173.7350  137.2950 O   0  0  0  0  0  1  0  0  0  0  0  0
  194.3600  173.5090  134.6180 O   0  0  0  0  0  0  0  0  0  0  0  0
  195.8420  171.7350  135.8690 O   0  0  0  0  0  1  0  0  0  0  0  0
  183.3700  178.0240  143.2140 C   0  0  0  0  0  2  0  0  0  0  0  0
  184.4530  178.6590  145.3680 C   0  0  0  0  0  3  0  0  0  0  0  0
  185.6980  177.3140  143.7830 C   0  0  0  0  0  3  0  0  0  0  0  0
  186.8040  177.3350  144.6350 C   0  0  0  0  0  3  0  0  0  0  0  0
  184.5220  177.9770  144.1500 C   0  0  0  0  0  0  0  0  0  0  0  0
  185.5560  178.6740  146.2250 C   0  0  0  0  0  3  0  0  0  0  0  0
  186.7410  178.0100  145.8640 C   0  0  0  0  0  0  0  0  0  0  0  0
  187.9190  178.0620  146.6910 N   0  0  0  0  0  2  0  0  0  0  0  0
  189.2110  177.4390  146.4100 C   0  0  2  0  0  3  0  0  0  0  0  0
  191.2970  177.2430  147.9100 C   0  0  1  0  0  0  0  0  0  0  0  0
  190.3080  178.1600  147.1780 C   0  0  1  0  0  3  0  0  0  0  0  0
  191.6950  177.8860  146.5950 C   0  0  0  0  0  2  0  0  0  0  0  0
  191.9830  177.8090  148.9800 O   0  0  0  0  0  1  0  0  0  0  0  0
  192.4680  175.2310  148.3470 O   0  0  0  0  0  1  0  0  0  0  0  0
  191.3200  175.7620  147.8500 N   0  0  0  0  0  0  0  0  0  0  0  0
  191.1260  175.2830  146.4790 C   0  0  0  0  0  2  0  0  0  0  0  0
  192.2890  175.0360  144.3110 C   0  0  0  0  0  2  0  0  0  0  0  0
  192.4300  174.8610  145.8060 C   0  0  0  0  0  3  0  0  0  0  0  0
  192.1620  173.6600  144.9230 C   0  0  0  0  0  2  0  0  0  0  0  0
  189.9270  178.4560  144.2710 C   0  0  0  0  0  3  0  0  0  0  0  0
  189.4970  177.3850  144.9320 C   0  0  0  0  0  3  0  0  0  0  0  0
  188.9410  178.1140  142.0010 C   0  0  0  0  0  1  0  0  0  0  0  0
  190.2070  178.3520  142.8100 C   0  0  2  0  0  3  0  0  0  0  0  0
  191.2120  177.4120  142.5250 O   0  0  0  0  0  0  0  0  0  0  0  0
  191.6620  177.6830  141.3110 O   0  0  0  0  0  0  0  0  0  0  0  0
  191.0610  176.7200  140.4960 C   0  0  0  0  0  2  0  0  0  0  0  0
  191.1430  177.1590  139.0460 C   0  0  0  0  0  2  0  0  0  0  0  0
  192.4260  176.6280  138.4280 C   0  0  0  0  0  2  0  0  0  0  0  0
  192.0940  175.6550  137.3120 C   0  0  0  0  0  3  0  0  0  0  0  0
  191.3160  176.3800  136.2370 C   0  0  0  0  0  2  0  0  0  0  0  0
  192.7890  176.0870  136.0370 C   0  0  0  0  0  2  0  0  0  0  0  0
  1 17  1  0  0  0  0
  2 16  2  0  0  0  0
  3 25  2  0  0  0  0
  4 16  1  0  0  0  0
  5  7  1  0  0  0  0
  5 13  1  0  0  0  0
  6  2  1  0  0  0  0
  7 10  1  0  0  0  0
  8 15  1  0  0  0  0
  9 23  2  0  0  0  0
  9  8  1  0  0  0  0
 10  1  1  0  0  0  0
 11  4  1  0  0  0  0
 12 23  1  0  0  0  0
 13  4  2  0  0  0  0
 13  1  1  0  0  0  0
 14 22  1  0  0  0  0
 15 24  2  0  0  0  0
 16  3  1  0  0  0  0
 17 25  1  0  0  0  0
 19 15  1  0  0  0  0
 19 26  1  1  0  0  0
 19  6  1  0  0  0  0
 20  6  2  0  0  0  0
 20 11  1  0  0  0  0
 21 17  2  0  0  0  0
 22 39  1  0  0  0  0
 22 18  2  0  0  0  0
 23 20  1  0  0  0  0
 25 14  1  0  0  0  0
 26 27  2  0  0  0  0
 28  8  1  0  0  0  0
 29 30  1  0  0  0  0
 29 28  1  0  0  0  0
 31 32  1  0  0  0  0
 31 30  1  0  0  0  0
 32 33  1  0  0  0  0
 33 34  1  0  0  0  0
 35 34  1  0  0  0  0
 35 36  1  0  0  0  0
 37 35  2  0  0  0  0
 38 35  1  0  0  0  0
 39 43  1  0  0  0  0
 40 44  1  0  0  0  0
 41 43  1  0  0  0  0
 41 42  2  0  0  0  0
 42 45  1  0  0  0  0
 43 40  2  0  0  0  0
 45 44  2  0  0  0  0
 45 46  1  0  0  0  0
 47 59  1  6  0  0  0
 47 46  1  0  0  0  0
 48 51  1  1  0  0  0
 49 47  1  6  0  0  0
 49 48  1  0  0  0  0
 50 49  1  0  0  0  0
 50 48  1  0  0  0  0
 53 48  1  0  0  0  0
 53 52  1  0  0  0  0
 54 53  1  0  0  0  0
 55 57  1  0  0  0  0
 55 56  1  0  0  0  0
 56 54  1  0  0  0  0
 57 56  1  0  0  0  0
 58 59  2  0  0  0  0
 61 60  1  6  0  0  0
 61 58  1  0  0  0  0
 62 61  1  0  0  0  0
 63 62  1  0  0  0  0
 64 63  1  0  0  0  0
 65 64  1  0  0  0  0
 66 65  1  0  0  0  0
 67 66  1  0  0  0  0
 68 67  1  0  0  0  0
 69 68  1  0  0  0  0
 69 67  1  0  0  0  0
M  END
>  <MODEL>
1

>  <REMARK>
 VINA RESULT:      -3.4      0.000      0.000
  Name = 
  25 active torsions:
  status: ('A' for Active; 'I' for Inactive)
    1  A    between atoms: C_2  and  C_10
    2  A    between atoms: C_2  and  C_28
    3  A    between atoms: C_5  and  C_65
    4  A    between atoms: C_6  and  N_59
    5  A    between atoms: C_7  and  C_18
    6  A    between atoms: P_9  and  O_20
    7  A    between atoms: C_10  and  C_12
    8  A    between atoms: C_18  and  N_37
    9  A    between atoms: C_18  and  C_43
   10  A    between atoms: O_20  and  C_45
   11  A    between atoms: C_21  and  C_50
   12  A    between atoms: N_22  and  C_56
   13  A    between atoms: O_23  and  O_24
   14  A    between atoms: O_23  and  C_28
   15  A    between atoms: O_24  and  C_65
   16  A    between atoms: C_25  and  C_69
   17  A    between atoms: C_31  and  C_47
   18  A    between atoms: C_31  and  C_57
   19  A    between atoms: C_34  and  C_55
   20  A    between atoms: C_34  and  C_60
   21  A    between atoms: N_37  and  C_64
   22  A    between atoms: C_45  and  C_57
   23  A    between atoms: C_47  and  C_48
   24  A    between atoms: C_48  and  C_56
   25  A    between atoms: N_59  and  C_69
                            x       y       z     vdW  Elec       q    Type
                         _______ _______ _______ _____ _____    ______ ____

>  <TORSDO>
F 25

$$$$
=
 OpenBabel11032420353D

 69 76  0  0  1  0  0  0  0  0999 V2000
  183.1430  178.9610  139.9380 N   0  0  0  0  0  0  0  0  0  0  0  0
  182.3580  176.3520  136.7410 N   0  0  0  0  0  0  0  0  0  0  0  0
  184.1500  177.7370  137.3190 N   0  0  0  0  0  0  0  0  0  0  0  0
  182.6230  176.7130  139.0860 C   0  0  0  0  0  0  0  0  0  0  0  0
  182.3450  177.3040  141.4800 C   0  0  0  0  0  2  0  0  0  0  0  0
  181.2600  175.4570  136.9900 C   0  0  0  0  0  0  0  0  0  0  0  0
  182.5560  178.6180  142.2210 C   0  0  0  0  0  2  0  0  0  0  0  0
  180.1090  172.6500  136.6030 N   0  0  0  0  0  0  0  0  0  0  0  0
  179.5400  173.0620  137.8270 N   0  0  0  0  0  0  0  0  0  0  0  0
  182.8690  179.6740  141.1710 C   0  0  0  0  0  2  0  0  0  0  0  0
  181.9680  175.3790  139.3500 C   0  0  0  0  0  2  0  0  0  0  0  0
  179.1710  174.2910  139.8340 C   0  0  0  0  0  1  0  0  0  0  0  0
  182.7850  177.5900  140.0910 C   0  0  0  0  0  0  0  0  0  0  0  0
  185.7030  179.5160  137.2660 N   0  0  0  0  0  2  0  0  0  0  0  0
  180.5630  173.5890  135.6210 C   0  0  0  0  0  0  0  0  0  0  0  0
  182.9950  176.9820  137.6800 C   0  0  0  0  0  0  0  0  0  0  0  0
  183.7720  179.6070  138.8250 C   0  0  0  0  0  0  0  0  0  0  0  0
  187.5910  179.5760  135.9130 O   0  0  0  0  0  0  0  0  0  0  0  0
  180.3740  175.0470  135.8590 C   0  0  2  0  0  3  0  0  0  0  0  0
  181.0380  174.9850  138.2320 C   0  0  0  0  0  0  0  0  0  0  0  0
  183.7470  180.8670  138.7590 O   0  0  0  0  0  0  0  0  0  0  0  0
  186.7770  178.8720  136.5680 C   0  0  0  0  0  0  0  0  0  0  0  0
  179.8990  174.0810  138.5540 C   0  0  0  0  0  0  0  0  0  0  0  0
  181.1720  173.1820  134.5940 O   0  0  0  0  0  0  0  0  0  0  0  0
  184.5530  178.8640  137.8200 C   0  0  0  0  0  0  0  0  0  0  0  0
  180.5510  175.8920  134.6300 C   0  0  0  0  0  3  0  0  0  0  0  0
  180.1680  177.1660  134.6220 C   0  0  0  0  0  2  0  0  0  0  0  0
  179.9410  171.2620  136.1990 C   0  0  0  0  0  2  0  0  0  0  0  0
  181.2040  170.4690  136.4770 C   0  0  0  0  0  2  0  0  0  0  0  0
  182.2960  171.4080  136.9220 C   0  0  0  0  0  2  0  0  0  0  0  0
  183.6560  170.8120  136.5900 C   0  0  0  0  0  2  0  0  0  0  0  0
  184.5370  171.8630  135.9480 C   0  0  0  0  0  2  0  0  0  0  0  0
  185.7180  171.2070  135.2560 C   0  0  0  0  0  2  0  0  0  0  0  0
  186.6880  172.1680  134.9560 O   0  0  0  0  0  0  0  0  0  0  0  0
  188.1260  171.6050  135.6660 P   0  0  0  0  0  0  0  0  0  0  0  0
  187.9090  170.0120  136.1840 O   0  0  0  0  0  1  0  0  0  0  0  0
  188.5090  172.5630  137.0150 O   0  0  0  0  0  1  0  0  0  0  0  0
  189.2630  171.6540  134.6670 O   0  0  0  0  0  0  0  0  0  0  0  0
  187.0230  177.4070  136.7030 C   0  0  0  0  0  2  0  0  0  0  0  0
  187.7490  177.5650  139.0820 C   0  0  0  0  0  3  0  0  0  0  0  0
  189.1980  176.4580  137.4880 C   0  0  0  0  0  3  0  0  0  0  0  0
  190.1460  176.2510  138.4930 C   0  0  0  0  0  3  0  0  0  0  0  0
  188.0000  177.1150  137.7830 C   0  0  0  0  0  0  0  0  0  0  0  0
  188.6920  177.3520  140.0910 C   0  0  0  0  0  3  0  0  0  0  0  0
  189.8990  176.6920  139.8020 C   0  0  0  0  0  0  0  0  0  0  0  0
  190.9220  176.5160  140.8010 N   0  0  0  0  0  2  0  0  0  0  0  0
  190.7910  176.7620  142.2370 C   0  0  2  0  0  3  0  0  0  0  0  0
  191.6810  175.9690  144.5210 C   0  0  1  0  0  0  0  0  0  0  0  0
  191.5870  175.7210  143.0100 C   0  0  1  0  0  3  0  0  0  0  0  0
  190.7100  174.9350  143.9860 C   0  0  0  0  0  2  0  0  0  0  0  0
  192.7520  175.3690  145.1770 O   0  0  0  0  0  1  0  0  0  0  0  0
  191.8480  177.7500  146.0740 O   0  0  0  0  0  1  0  0  0  0  0  0
  191.0020  177.0540  145.2700 N   0  0  0  0  0  0  0  0  0  0  0  0
  189.8990  176.5290  146.0790 C   0  0  0  0  0  2  0  0  0  0  0  0
  188.8880  176.3100  148.3260 C   0  0  0  0  0  2  0  0  0  0  0  0
  189.8770  177.0980  147.4960 C   0  0  0  0  0  3  0  0  0  0  0  0
  188.5010  177.6640  147.7790 C   0  0  0  0  0  2  0  0  0  0  0  0
  188.7610  177.9520  143.0010 C   0  0  0  0  0  3  0  0  0  0  0  0
  189.3490  176.8060  142.6680 C   0  0  0  0  0  3  0  0  0  0  0  0
  186.4750  177.0750  142.5040 C   0  0  0  0  0  1  0  0  0  0  0  0
  187.3270  177.9470  143.4120 C   0  0  2  0  0  3  0  0  0  0  0  0
  186.8090  179.2460  143.5530 O   0  0  0  0  0  0  0  0  0  0  0  0
  185.5110  179.1720  143.3090 O   0  0  0  0  0  0  0  0  0  0  0  0
  184.9820  180.3250  143.8960 C   0  0  0  0  0  2  0  0  0  0  0  0
  183.9470  179.9380  144.9350 C   0  0  0  0  0  2  0  0  0  0  0  0
  184.0860  178.4600  145.2620 C   0  0  0  0  0  2  0  0  0  0  0  0
  184.6380  178.2950  146.6650 C   0  0  0  0  0  3  0  0  0  0  0  0
  186.0620  177.7930  146.5830 C   0  0  0  0  0  2  0  0  0  0  0  0
  185.7910  179.2540  146.8750 C   0  0  0  0  0  2  0  0  0  0  0  0
  1 13  1  0  0  0  0
  1 10  1  0  0  0  0
  2  6  1  0  0  0  0
  2 16  2  0  0  0  0
  3 16  1  0  0  0  0
  3 25  2  0  0  0  0
  4 11  1  0  0  0  0
  4 13  2  0  0  0  0
  5  7  1  0  0  0  0
  6 20  2  0  0  0  0
  8  9  1  0  0  0  0
  9 23  2  0  0  0  0
 10  7  1  0  0  0  0
 13  5  1  0  0  0  0
 14 25  1  0  0  0  0
 15 19  1  0  0  0  0
 15  8  1  0  0  0  0
 16  4  1  0  0  0  0
 17  1  1  0  0  0  0
 18 22  2  0  0  0  0
 19 26  1  6  0  0  0
 19  6  1  0  0  0  0
 20 23  1  0  0  0  0
 20 11  1  0  0  0  0
 21 17  2  0  0  0  0
 22 39  1  0  0  0  0
 22 14  1  0  0  0  0
 23 12  1  0  0  0  0
 24 15  2  0  0  0  0
 25 17  1  0  0  0  0
 27 26  2  0  0  0  0
 28 29  1  0  0  0  0
 28  8  1  0  0  0  0
 29 30  1  0  0  0  0
 31 30  1  0  0  0  0
 32 31  1  0  0  0  0
 33 32  1  0  0  0  0
 34 33  1  0  0  0  0
 34 35  1  0  0  0  0
 35 36  1  0  0  0  0
 35 37  1  0  0  0  0
 38 35  2  0  0  0  0
 39 43  1  0  0  0  0
 40 44  1  0  0  0  0
 41 43  1  0  0  0  0
 41 42  2  0  0  0  0
 42 45  1  0  0  0  0
 43 40  2  0  0  0  0
 45 44  2  0  0  0  0
 45 46  1  0  0  0  0
 46 47  1  0  0  0  0
 47 59  1  1  0  0  0
 48 51  1  1  0  0  0
 48 53  1  0  0  0  0
 49 47  1  6  0  0  0
 49 50  1  0  0  0  0
 49 48  1  0  0  0  0
 50 48  1  0  0  0  0
 53 52  1  0  0  0  0
 53 54  1  0  0  0  0
 54 56  1  0  0  0  0
 56 57  1  0  0  0  0
 56 55  1  0  0  0  0
 57 55  1  0  0  0  0
 58 61  1  0  0  0  0
 59 58  2  0  0  0  0
 61 60  1  6  0  0  0
 61 62  1  0  0  0  0
 63 62  1  0  0  0  0
 63 64  1  0  0  0  0
 64 65  1  0  0  0  0
 65 66  1  0  0  0  0
 66 67  1  0  0  0  0
 67 69  1  0  0  0  0
 68 67  1  0  0  0  0
 68 69  1  0  0  0  0
M  END
>  <MODEL>
2

>  <REMARK>
 VINA RESULT:      -2.2      3.044      6.445
  Name = 
  25 active torsions:
  status: ('A' for Active; 'I' for Inactive)
    1  A    between atoms: C_2  and  C_10
    2  A    between atoms: C_2  and  C_28
    3  A    between atoms: C_5  and  C_65
    4  A    between atoms: C_6  and  N_59
    5  A    between atoms: C_7  and  C_18
    6  A    between atoms: P_9  and  O_20
    7  A    between atoms: C_10  and  C_12
    8  A    between atoms: C_18  and  N_37
    9  A    between atoms: C_18  and  C_43
   10  A    between atoms: O_20  and  C_45
   11  A    between atoms: C_21  and  C_50
   12  A    between atoms: N_22  and  C_56
   13  A    between atoms: O_23  and  O_24
   14  A    between atoms: O_23  and  C_28
   15  A    between atoms: O_24  and  C_65
   16  A    between atoms: C_25  and  C_69
   17  A    between atoms: C_31  and  C_47
   18  A    between atoms: C_31  and  C_57
   19  A    between atoms: C_34  and  C_55
   20  A    between atoms: C_34  and  C_60
   21  A    between atoms: N_37  and  C_64
   22  A    between atoms: C_45  and  C_57
   23  A    between atoms: C_47  and  C_48
   24  A    between atoms: C_48  and  C_56
   25  A    between atoms: N_59  and  C_69
                            x       y       z     vdW  Elec       q    Type
                         _______ _______ _______ _____ _____    ______ ____

>  <TORSDO>
F 25

$$$$
=
 OpenBabel11032420353D

 69 76  0  0  1  0  0  0  0  0999 V2000
  189.7260  177.0190  144.6480 N   0  0  0  0  0  0  0  0  0  0  0  0
  188.2340  176.7250  140.7330 N   0  0  0  0  0  0  0  0  0  0  0  0
  187.3600  177.4870  142.7630 N   0  0  0  0  0  0  0  0  0  0  0  0
  189.8580  177.5830  142.2580 C   0  0  0  0  0  0  0  0  0  0  0  0
  191.7760  177.9270  143.7940 C   0  0  0  0  0  2  0  0  0  0  0  0
  189.2570  176.5060  139.7460 C   0  0  0  0  0  0  0  0  0  0  0  0
  191.9450  177.6170  145.2760 C   0  0  0  0  0  2  0  0  0  0  0  0
  190.2420  177.0870  136.9100 N   0  0  0  0  0  0  0  0  0  0  0  0
  191.4400  176.8850  137.6290 N   0  0  0  0  0  0  0  0  0  0  0  0
  190.6960  176.8700  145.7170 C   0  0  0  0  0  2  0  0  0  0  0  0
  190.7420  177.9430  141.0890 C   0  0  0  0  0  2  0  0  0  0  0  0
  192.9580  176.6610  139.4510 C   0  0  0  0  0  1  0  0  0  0  0  0
  190.3620  177.5800  143.5030 C   0  0  0  0  0  0  0  0  0  0  0  0
  186.0330  177.6200  144.7120 N   0  0  0  0  0  2  0  0  0  0  0  0
  188.9930  176.5340  137.3420 C   0  0  0  0  0  0  0  0  0  0  0  0
  188.4730  177.1880  141.9220 C   0  0  0  0  0  0  0  0  0  0  0  0
  188.3410  176.7110  144.8480 C   0  0  0  0  0  0  0  0  0  0  0  0
  183.8780  178.4850  144.7820 O   0  0  0  0  0  0  0  0  0  0  0  0
  188.9570  175.6630  138.5500 C   0  0  2  0  0  3  0  0  0  0  0  0
  190.4740  177.0640  139.8960 C   0  0  0  0  0  0  0  0  0  0  0  0
  188.0150  175.9610  145.8090 O   0  0  0  0  0  0  0  0  0  0  0  0
  185.0190  178.5200  144.2480 C   0  0  0  0  0  0  0  0  0  0  0  0
  191.5800  176.8470  138.9220 C   0  0  0  0  0  0  0  0  0  0  0  0
  187.9270  176.8350  136.7380 O   0  0  0  0  0  0  0  0  0  0  0  0
  187.2720  177.3370  144.0490 C   0  0  0  0  0  0  0  0  0  0  0  0
  187.6910  174.8670  138.6870 C   0  0  0  0  0  3  0  0  0  0  0  0
  187.1670  174.2370  137.6380 C   0  0  0  0  0  2  0  0  0  0  0  0
  190.3330  177.5930  135.5490 C   0  0  0  0  0  2  0  0  0  0  0  0
  190.7460  176.4890  134.5950 C   0  0  0  0  0  2  0  0  0  0  0  0
  192.1990  176.1540  134.8170 C   0  0  0  0  0  2  0  0  0  0  0  0
  192.3790  174.6450  134.8660 C   0  0  0  0  0  2  0  0  0  0  0  0
  193.6810  174.3020  135.5610 C   0  0  0  0  0  2  0  0  0  0  0  0
  193.7370  172.8170  135.8700 C   0  0  0  0  0  2  0  0  0  0  0  0
  195.0550  172.3610  135.7720 O   0  0  0  0  0  0  0  0  0  0  0  0
  195.7810  172.7330  137.2640 P   0  0  0  0  0  0  0  0  0  0  0  0
  194.5960  173.2600  138.3470 O   0  0  0  0  0  1  0  0  0  0  0  0
  196.9110  173.9820  137.0520 O   0  0  0  0  0  0  0  0  0  0  0  0
  196.4710  171.5120  137.8350 O   0  0  0  0  0  1  0  0  0  0  0  0
  185.3200  179.5740  143.2370 C   0  0  0  0  0  2  0  0  0  0  0  0
  183.1920  179.0030  142.0710 C   0  0  0  0  0  3  0  0  0  0  0  0
  185.1610  179.4810  140.7440 C   0  0  0  0  0  3  0  0  0  0  0  0
  184.4390  179.2190  139.5780 C   0  0  0  0  0  3  0  0  0  0  0  0
  184.5370  179.3730  141.9910 C   0  0  0  0  0  0  0  0  0  0  0  0
  182.4650  178.7490  140.9050 C   0  0  0  0  0  3  0  0  0  0  0  0
  183.0850  178.8560  139.6480 C   0  0  0  0  0  0  0  0  0  0  0  0
  182.3860  178.5340  138.4310 N   0  0  0  0  0  2  0  0  0  0  0  0
  181.2100  179.2170  137.8940 C   0  0  2  0  0  3  0  0  0  0  0  0
  179.9060  181.2200  138.8570 C   0  0  1  0  0  0  0  0  0  0  0  0
  180.3700  179.7680  139.0360 C   0  0  1  0  0  3  0  0  0  0  0  0
  178.9390  180.0820  138.5990 C   0  0  0  0  0  2  0  0  0  0  0  0
  179.5810  181.9090  140.0220 O   0  0  0  0  0  1  0  0  0  0  0  0
  181.4420  182.2950  137.4090 O   0  0  0  0  0  1  0  0  0  0  0  0
  180.1260  182.0640  137.6590 N   0  0  0  0  0  0  0  0  0  0  0  0
  179.4310  183.3480  137.7800 C   0  0  0  0  0  2  0  0  0  0  0  0
  179.5090  185.7970  137.4440 C   0  0  0  0  0  2  0  0  0  0  0  0
  180.3510  184.5470  137.5610 C   0  0  0  0  0  3  0  0  0  0  0  0
  180.0650  185.1450  136.1990 C   0  0  0  0  0  2  0  0  0  0  0  0
  180.9950  177.5980  136.0350 C   0  0  0  0  0  3  0  0  0  0  0  0
  180.4100  178.3230  136.9840 C   0  0  0  0  0  3  0  0  0  0  0  0
  178.9550  177.4530  134.6000 C   0  0  0  0  0  1  0  0  0  0  0  0
  180.1620  176.7200  135.1650 C   0  0  2  0  0  3  0  0  0  0  0  0
  179.8100  175.5170  135.8020 O   0  0  0  0  0  0  0  0  0  0  0  0
  180.2350  175.6040  137.0520 O   0  0  0  0  0  0  0  0  0  0  0  0
  179.4260  174.7090  137.7570 C   0  0  0  0  0  2  0  0  0  0  0  0
  180.1620  174.2180  138.9880 C   0  0  0  0  0  2  0  0  0  0  0  0
  179.5400  174.8350  140.2300 C   0  0  0  0  0  2  0  0  0  0  0  0
  179.6840  176.3450  140.1800 C   0  0  0  0  0  3  0  0  0  0  0  0
  178.9470  176.9520  141.3530 C   0  0  0  0  0  2  0  0  0  0  0  0
  180.4560  176.8220  141.3930 C   0  0  0  0  0  2  0  0  0  0  0  0
  1 17  1  0  0  0  0
  1 10  1  0  0  0  0
  2 16  2  0  0  0  0
  3 25  2  0  0  0  0
  4 13  2  0  0  0  0
  5  7  1  0  0  0  0
  6 20  2  0  0  0  0
  6  2  1  0  0  0  0
  7 10  1  0  0  0  0
  8 15  1  0  0  0  0
  8  9  1  0  0  0  0
  9 23  2  0  0  0  0
 11  4  1  0  0  0  0
 13  5  1  0  0  0  0
 13  1  1  0  0  0  0
 15 19  1  0  0  0  0
 16  4  1  0  0  0  0
 16  3  1  0  0  0  0
 17 21  2  0  0  0  0
 19 26  1  1  0  0  0
 19  6  1  0  0  0  0
 20 11  1  0  0  0  0
 22 14  1  0  0  0  0
 22 18  2  0  0  0  0
 23 12  1  0  0  0  0
 23 20  1  0  0  0  0
 24 15  2  0  0  0  0
 25 14  1  0  0  0  0
 25 17  1  0  0  0  0
 27 26  2  0  0  0  0
 28  8  1  0  0  0  0
 29 30  1  0  0  0  0
 29 28  1  0  0  0  0
 30 31  1  0  0  0  0
 31 32  1  0  0  0  0
 32 33  1  0  0  0  0
 34 33  1  0  0  0  0
 34 35  1  0  0  0  0
 35 38  1  0  0  0  0
 35 36  1  0  0  0  0
 37 35  2  0  0  0  0
 39 22  1  0  0  0  0
 41 43  2  0  0  0  0
 42 45  2  0  0  0  0
 42 41  1  0  0  0  0
 43 40  1  0  0  0  0
 43 39  1  0  0  0  0
 44 40  2  0  0  0  0
 45 44  1  0  0  0  0
 46 45  1  0  0  0  0
 47 59  1  1  0  0  0
 47 46  1  0  0  0  0
 48 49  1  0  0  0  0
 48 51  1  1  0  0  0
 49 47  1  6  0  0  0
 50 48  1  0  0  0  0
 50 49  1  0  0  0  0
 52 53  1  0  0  0  0
 53 54  1  0  0  0  0
 53 48  1  0  0  0  0
 55 56  1  0  0  0  0
 56 54  1  0  0  0  0
 57 55  1  0  0  0  0
 57 56  1  0  0  0  0
 58 59  2  0  0  0  0
 61 60  1  1  0  0  0
 61 62  1  0  0  0  0
 61 58  1  0  0  0  0
 62 63  1  0  0  0  0
 63 64  1  0  0  0  0
 64 65  1  0  0  0  0
 65 66  1  0  0  0  0
 67 66  1  0  0  0  0
 67 68  1  0  0  0  0
 67 69  1  0  0  0  0
 68 69  1  0  0  0  0
M  END
>  <MODEL>
3

>  <REMARK>
 VINA RESULT:      -2.2      2.815      9.928
  Name = 
  25 active torsions:
  status: ('A' for Active; 'I' for Inactive)
    1  A    between atoms: C_2  and  C_10
    2  A    between atoms: C_2  and  C_28
    3  A    between atoms: C_5  and  C_65
    4  A    between atoms: C_6  and  N_59
    5  A    between atoms: C_7  and  C_18
    6  A    between atoms: P_9  and  O_20
    7  A    between atoms: C_10  and  C_12
    8  A    between atoms: C_18  and  N_37
    9  A    between atoms: C_18  and  C_43
   10  A    between atoms: O_20  and  C_45
   11  A    between atoms: C_21  and  C_50
   12  A    between atoms: N_22  and  C_56
   13  A    between atoms: O_23  and  O_24
   14  A    between atoms: O_23  and  C_28
   15  A    between atoms: O_24  and  C_65
   16  A    between atoms: C_25  and  C_69
   17  A    between atoms: C_31  and  C_47
   18  A    between atoms: C_31  and  C_57
   19  A    between atoms: C_34  and  C_55
   20  A    between atoms: C_34  and  C_60
   21  A    between atoms: N_37  and  C_64
   22  A    between atoms: C_45  and  C_57
   23  A    between atoms: C_47  and  C_48
   24  A    between atoms: C_48  and  C_56
   25  A    between atoms: N_59  and  C_69
                            x       y       z     vdW  Elec       q    Type
                         _______ _______ _______ _____ _____    ______ ____

>  <TORSDO>
F 25

$$$$
=
 OpenBabel11032420353D

 69 76  0  0  1  0  0  0  0  0999 V2000
  189.7300  176.9610  144.6750 N   0  0  0  0  0  0  0  0  0  0  0  0
  188.1920  176.7830  140.7700 N   0  0  0  0  0  0  0  0  0  0  0  0
  187.3360  177.4700  142.8350 N   0  0  0  0  0  0  0  0  0  0  0  0
  189.8270  177.6050  142.3030 C   0  0  0  0  0  0  0  0  0  0  0  0
  191.7610  177.9160  143.8260 C   0  0  0  0  0  2  0  0  0  0  0  0
  189.2040  176.6060  139.7650 C   0  0  0  0  0  0  0  0  0  0  0  0
  191.9510  177.5590  145.2950 C   0  0  0  0  0  2  0  0  0  0  0  0
  190.1480  177.2900  136.9380 N   0  0  0  0  0  0  0  0  0  0  0  0
  191.3570  177.0750  137.6340 N   0  0  0  0  0  0  0  0  0  0  0  0
  190.7140  176.7860  145.7260 C   0  0  0  0  0  2  0  0  0  0  0  0
  190.6930  178.0120  141.1360 C   0  0  0  0  0  2  0  0  0  0  0  0
  192.8990  176.8050  139.4290 C   0  0  0  0  0  1  0  0  0  0  0  0
  190.3460  177.5660  143.5410 C   0  0  0  0  0  0  0  0  0  0  0  0
  186.0320  177.5260  144.8040 N   0  0  0  0  0  2  0  0  0  0  0  0
  188.9100  176.7110  137.3660 C   0  0  0  0  0  0  0  0  0  0  0  0
  188.4410  177.2090  141.9710 C   0  0  0  0  0  0  0  0  0  0  0  0
  188.3500  176.6350  144.8810 C   0  0  0  0  0  0  0  0  0  0  0  0
  183.8720  178.3690  144.9280 O   0  0  0  0  0  0  0  0  0  0  0  0
  188.8960  175.8010  138.5450 C   0  0  2  0  0  3  0  0  0  0  0  0
  190.4180  177.1700  139.9180 C   0  0  0  0  0  0  0  0  0  0  0  0
  188.0430  175.8500  145.8200 O   0  0  0  0  0  0  0  0  0  0  0  0
  185.0050  178.4310  144.3820 C   0  0  0  0  0  0  0  0  0  0  0  0
  191.5130  176.9950  138.9240 C   0  0  0  0  0  0  0  0  0  0  0  0
  187.8340  177.0230  136.7860 O   0  0  0  0  0  0  0  0  0  0  0  0
  187.2660  177.2770  144.1160 C   0  0  0  0  0  0  0  0  0  0  0  0
  187.6390  174.9890  138.6710 C   0  0  0  0  0  3  0  0  0  0  0  0
  187.2230  174.2210  137.6670 C   0  0  0  0  0  2  0  0  0  0  0  0
  190.2180  177.8410  135.5930 C   0  0  0  0  0  2  0  0  0  0  0  0
  190.6270  176.7730  134.5980 C   0  0  0  0  0  2  0  0  0  0  0  0
  192.0890  176.4520  134.7820 C   0  0  0  0  0  2  0  0  0  0  0  0
  192.2580  174.9720  135.0890 C   0  0  0  0  0  2  0  0  0  0  0  0
  193.5960  174.7320  135.7570 C   0  0  0  0  0  2  0  0  0  0  0  0
  194.5770  174.1300  134.7670 C   0  0  0  0  0  2  0  0  0  0  0  0
  195.7440  174.9000  134.7280 O   0  0  0  0  0  0  0  0  0  0  0  0
  196.8510  174.1070  135.7460 P   0  0  0  0  0  0  0  0  0  0  0  0
  196.2370  172.5910  136.1670 O   0  0  0  0  0  1  0  0  0  0  0  0
  197.0700  175.0130  137.1650 O   0  0  0  0  0  1  0  0  0  0  0  0
  198.1810  173.9290  135.0430 O   0  0  0  0  0  0  0  0  0  0  0  0
  185.2840  179.5220  143.4030 C   0  0  0  0  0  2  0  0  0  0  0  0
  183.1730  178.9420  142.2100 C   0  0  0  0  0  3  0  0  0  0  0  0
  185.1430  179.4830  140.9080 C   0  0  0  0  0  3  0  0  0  0  0  0
  184.4320  179.2360  139.7300 C   0  0  0  0  0  3  0  0  0  0  0  0
  184.5130  179.3360  142.1470 C   0  0  0  0  0  0  0  0  0  0  0  0
  182.4590  178.7020  141.0330 C   0  0  0  0  0  3  0  0  0  0  0  0
  183.0850  178.8490  139.7840 C   0  0  0  0  0  0  0  0  0  0  0  0
  182.3990  178.5440  138.5540 N   0  0  0  0  0  2  0  0  0  0  0  0
  181.2430  179.2500  138.0010 C   0  0  2  0  0  3  0  0  0  0  0  0
  179.8050  181.2030  138.8680 C   0  0  1  0  0  0  0  0  0  0  0  0
  180.3970  179.8130  139.1320 C   0  0  1  0  0  3  0  0  0  0  0  0
  178.9300  179.9730  138.7280 C   0  0  0  0  0  2  0  0  0  0  0  0
  179.4580  181.9490  139.9910 O   0  0  0  0  0  1  0  0  0  0  0  0
  181.1980  182.2620  137.2710 O   0  0  0  0  0  1  0  0  0  0  0  0
  179.9130  181.9710  137.6040 N   0  0  0  0  0  0  0  0  0  0  0  0
  179.1440  183.2170  137.6730 C   0  0  0  0  0  2  0  0  0  0  0  0
  179.0940  185.5390  136.8220 C   0  0  0  0  0  2  0  0  0  0  0  0
  179.9890  184.4550  137.3800 C   0  0  0  0  0  3  0  0  0  0  0  0
  179.9630  184.7270  135.8900 C   0  0  0  0  0  2  0  0  0  0  0  0
  181.0270  177.6470  136.1290 C   0  0  0  0  0  3  0  0  0  0  0  0
  180.4410  178.3730  137.0770 C   0  0  0  0  0  3  0  0  0  0  0  0
  179.0500  177.5600  134.6050 C   0  0  0  0  0  1  0  0  0  0  0  0
  180.1910  176.7860  135.2440 C   0  0  2  0  0  3  0  0  0  0  0  0
  179.7520  175.6200  135.8950 O   0  0  0  0  0  0  0  0  0  0  0  0
  180.7150  174.7210  135.7670 O   0  0  0  0  0  0  0  0  0  0  0  0
  181.2870  174.6430  137.0400 C   0  0  0  0  0  2  0  0  0  0  0  0
  181.9050  173.2730  137.2370 C   0  0  0  0  0  2  0  0  0  0  0  0
  182.6990  172.8930  135.9990 C   0  0  0  0  0  2  0  0  0  0  0  0
  183.7510  171.8600  136.3590 C   0  0  0  0  0  3  0  0  0  0  0  0
  183.2240  170.9840  137.4740 C   0  0  0  0  0  2  0  0  0  0  0  0
  183.2290  170.4730  136.0480 C   0  0  0  0  0  2  0  0  0  0  0  0
  1 17  1  0  0  0  0
  1 10  1  0  0  0  0
  2 16  2  0  0  0  0
  3 25  2  0  0  0  0
  4 13  2  0  0  0  0
  5  7  1  0  0  0  0
  6 20  2  0  0  0  0
  6  2  1  0  0  0  0
  7 10  1  0  0  0  0
  8 15  1  0  0  0  0
  8  9  1  0  0  0  0
  9 23  2  0  0  0  0
 11  4  1  0  0  0  0
 13  5  1  0  0  0  0
 13  1  1  0  0  0  0
 15 19  1  0  0  0  0
 16  4  1  0  0  0  0
 16  3  1  0  0  0  0
 17 21  2  0  0  0  0
 19 26  1  1  0  0  0
 19  6  1  0  0  0  0
 20 11  1  0  0  0  0
 22 14  1  0  0  0  0
 22 18  2  0  0  0  0
 23 12  1  0  0  0  0
 23 20  1  0  0  0  0
 24 15  2  0  0  0  0
 25 14  1  0  0  0  0
 25 17  1  0  0  0  0
 27 26  2  0  0  0  0
 28  8  1  0  0  0  0
 29 30  1  0  0  0  0
 29 28  1  0  0  0  0
 30 31  1  0  0  0  0
 31 32  1  0  0  0  0
 33 32  1  0  0  0  0
 34 33  1  0  0  0  0
 34 35  1  0  0  0  0
 35 36  1  0  0  0  0
 35 37  1  0  0  0  0
 38 35  2  0  0  0  0
 39 22  1  0  0  0  0
 41 43  2  0  0  0  0
 42 45  2  0  0  0  0
 42 41  1  0  0  0  0
 43 40  1  0  0  0  0
 43 39  1  0  0  0  0
 44 40  2  0  0  0  0
 45 44  1  0  0  0  0
 46 45  1  0  0  0  0
 47 59  1  1  0  0  0
 47 46  1  0  0  0  0
 48 49  1  0  0  0  0
 48 51  1  1  0  0  0
 49 47  1  6  0  0  0
 50 48  1  0  0  0  0
 50 49  1  0  0  0  0
 52 53  1  0  0  0  0
 53 54  1  0  0  0  0
 53 48  1  0  0  0  0
 55 56  1  0  0  0  0
 56 54  1  0  0  0  0
 57 55  1  0  0  0  0
 57 56  1  0  0  0  0
 58 59  2  0  0  0  0
 61 60  1  1  0  0  0
 61 62  1  0  0  0  0
 61 58  1  0  0  0  0
 63 62  1  0  0  0  0
 63 64  1  0  0  0  0
 64 65  1  0  0  0  0
 66 67  1  0  0  0  0
 66 65  1  0  0  0  0
 67 68  1  0  0  0  0
 69 67  1  0  0  0  0
 69 68  1  0  0  0  0
M  END
>  <MODEL>
4

>  <REMARK>
 VINA RESULT:      -2.0      2.936      9.742
  Name = 
  25 active torsions:
  status: ('A' for Active; 'I' for Inactive)
    1  A    between atoms: C_2  and  C_10
    2  A    between atoms: C_2  and  C_28
    3  A    between atoms: C_5  and  C_65
    4  A    between atoms: C_6  and  N_59
    5  A    between atoms: C_7  and  C_18
    6  A    between atoms: P_9  and  O_20
    7  A    between atoms: C_10  and  C_12
    8  A    between atoms: C_18  and  N_37
    9  A    between atoms: C_18  and  C_43
   10  A    between atoms: O_20  and  C_45
   11  A    between atoms: C_21  and  C_50
   12  A    between atoms: N_22  and  C_56
   13  A    between atoms: O_23  and  O_24
   14  A    between atoms: O_23  and  C_28
   15  A    between atoms: O_24  and  C_65
   16  A    between atoms: C_25  and  C_69
   17  A    between atoms: C_31  and  C_47
   18  A    between atoms: C_31  and  C_57
   19  A    between atoms: C_34  and  C_55
   20  A    between atoms: C_34  and  C_60
   21  A    between atoms: N_37  and  C_64
   22  A    between atoms: C_45  and  C_57
   23  A    between atoms: C_47  and  C_48
   24  A    between atoms: C_48  and  C_56
   25  A    between atoms: N_59  and  C_69
                            x       y       z     vdW  Elec       q    Type
                         _______ _______ _______ _____ _____    ______ ____

>  <TORSDO>
F 25

$$$$
=
 OpenBabel11032420353D

 69 76  0  0  1  0  0  0  0  0999 V2000
  189.8480  177.0000  144.7120 N   0  0  0  0  0  0  0  0  0  0  0  0
  188.0120  177.1110  140.9360 N   0  0  0  0  0  0  0  0  0  0  0  0
  187.3330  177.6740  143.1010 N   0  0  0  0  0  0  0  0  0  0  0  0
  189.7780  177.7990  142.3870 C   0  0  0  0  0  0  0  0  0  0  0  0
  191.8300  177.9730  143.7720 C   0  0  0  0  0  2  0  0  0  0  0  0
  188.9400  176.9840  139.8450 C   0  0  0  0  0  0  0  0  0  0  0  0
  192.1230  177.5150  145.1960 C   0  0  0  0  0  2  0  0  0  0  0  0
  189.6820  177.8380  137.0040 N   0  0  0  0  0  0  0  0  0  0  0  0
  190.9350  177.5560  137.5890 N   0  0  0  0  0  0  0  0  0  0  0  0
  190.9050  176.7370  145.6700 C   0  0  0  0  0  2  0  0  0  0  0  0
  190.5620  178.2680  141.1860 C   0  0  0  0  0  2  0  0  0  0  0  0
  192.6030  177.1380  139.2370 C   0  0  0  0  0  1  0  0  0  0  0  0
  190.3900  177.6680  143.5760 C   0  0  0  0  0  0  0  0  0  0  0  0
  186.1850  177.6210  145.1650 N   0  0  0  0  0  2  0  0  0  0  0  0
  188.4660  177.2550  137.4890 C   0  0  0  0  0  0  0  0  0  0  0  0
  188.3620  177.4510  142.1390 C   0  0  0  0  0  0  0  0  0  0  0  0
  188.4810  176.6850  145.0030 C   0  0  0  0  0  0  0  0  0  0  0  0
  184.0600  178.4930  145.5120 O   0  0  0  0  0  0  0  0  0  0  0  0
  188.5220  176.2680  138.6030 C   0  0  2  0  0  3  0  0  0  0  0  0
  190.1750  177.5150  139.9400 C   0  0  0  0  0  0  0  0  0  0  0  0
  188.2280  175.8450  145.9100 O   0  0  0  0  0  0  0  0  0  0  0  0
  185.1500  178.5710  144.8840 C   0  0  0  0  0  0  0  0  0  0  0  0
  191.1870  177.3870  138.8550 C   0  0  0  0  0  0  0  0  0  0  0  0
  187.3570  177.6230  137.0150 O   0  0  0  0  0  0  0  0  0  0  0  0
  187.3560  177.3970  144.3690 C   0  0  0  0  0  0  0  0  0  0  0  0
  187.2600  175.4720  138.7730 C   0  0  0  0  0  3  0  0  0  0  0  0
  186.7340  174.8060  137.7480 C   0  0  0  0  0  2  0  0  0  0  0  0
  189.6610  178.4770  135.6970 C   0  0  0  0  0  2  0  0  0  0  0  0
  189.7260  177.4390  134.5940 C   0  0  0  0  0  2  0  0  0  0  0  0
  190.9510  176.5810  134.7860 C   0  0  0  0  0  2  0  0  0  0  0  0
  190.5780  175.1120  134.6510 C   0  0  0  0  0  2  0  0  0  0  0  0
  191.4790  174.2680  135.5290 C   0  0  0  0  0  2  0  0  0  0  0  0
  190.7000  173.1070  136.1200 C   0  0  0  0  0  2  0  0  0  0  0  0
  190.1170  172.3560  135.0950 O   0  0  0  0  0  0  0  0  0  0  0  0
  188.5560  171.9660  135.6440 P   0  0  0  0  0  0  0  0  0  0  0  0
  188.3260  170.2950  135.5370 O   0  0  0  0  0  1  0  0  0  0  0  0
  187.3990  172.7320  134.6640 O   0  0  0  0  0  0  0  0  0  0  0  0
  188.3770  172.4040  137.0820 O   0  0  0  0  0  1  0  0  0  0  0  0
  185.3780  179.7190  143.9600 C   0  0  0  0  0  2  0  0  0  0  0  0
  183.4100  179.0910  142.5650 C   0  0  0  0  0  3  0  0  0  0  0  0
  185.5110  179.5870  141.4670 C   0  0  0  0  0  3  0  0  0  0  0  0
  184.9330  179.2950  140.2290 C   0  0  0  0  0  3  0  0  0  0  0  0
  184.7490  179.4850  142.6350 C   0  0  0  0  0  0  0  0  0  0  0  0
  182.8280  178.8060  141.3270 C   0  0  0  0  0  3  0  0  0  0  0  0
  183.5870  178.9060  140.1490 C   0  0  0  0  0  0  0  0  0  0  0  0
  183.0400  178.5540  138.8640 N   0  0  0  0  0  2  0  0  0  0  0  0
  181.9020  179.1870  138.1980 C   0  0  2  0  0  3  0  0  0  0  0  0
  180.0710  180.8960  138.8000 C   0  0  1  0  0  0  0  0  0  0  0  0
  180.9130  179.6900  139.2380 C   0  0  1  0  0  3  0  0  0  0  0  0
  179.4630  179.5070  138.7890 C   0  0  0  0  0  2  0  0  0  0  0  0
  179.5360  181.6760  139.8220 O   0  0  0  0  0  1  0  0  0  0  0  0
  181.1290  181.1230  136.6930 O   0  0  0  0  0  1  0  0  0  0  0  0
  180.0800  181.5250  137.4580 N   0  0  0  0  0  0  0  0  0  0  0  0
  180.0940  182.9870  137.5580 C   0  0  0  0  0  2  0  0  0  0  0  0
  180.4220  183.8060  135.2470 C   0  0  0  0  0  2  0  0  0  0  0  0
  179.4200  183.6710  136.3710 C   0  0  0  0  0  3  0  0  0  0  0  0
  180.1010  184.9990  136.1150 C   0  0  0  0  0  2  0  0  0  0  0  0
  181.9570  177.6830  136.2340 C   0  0  0  0  0  3  0  0  0  0  0  0
  181.2530  178.2640  137.2010 C   0  0  0  0  0  3  0  0  0  0  0  0
  180.0890  177.4370  134.5940 C   0  0  0  0  0  1  0  0  0  0  0  0
  181.2720  176.7680  135.2760 C   0  0  2  0  0  3  0  0  0  0  0  0
  180.9290  175.5390  135.8650 O   0  0  0  0  0  0  0  0  0  0  0  0
  182.0330  174.8110  135.9090 O   0  0  0  0  0  0  0  0  0  0  0  0
  181.6410  173.5590  135.4250 C   0  0  0  0  0  2  0  0  0  0  0  0
  181.1350  172.7060  136.5730 C   0  0  0  0  0  2  0  0  0  0  0  0
  179.8370  172.0300  136.1660 C   0  0  0  0  0  2  0  0  0  0  0  0
  180.1010  171.0420  135.0460 C   0  0  0  0  0  3  0  0  0  0  0  0
  181.4000  170.3170  135.3200 C   0  0  0  0  0  2  0  0  0  0  0  0
  180.0780  169.6300  135.5960 C   0  0  0  0  0  2  0  0  0  0  0  0
  1 17  1  0  0  0  0
  1 10  1  0  0  0  0
  2 16  2  0  0  0  0
  3 25  2  0  0  0  0
  4 13  2  0  0  0  0
  5  7  1  0  0  0  0
  6 20  2  0  0  0  0
  6  2  1  0  0  0  0
  7 10  1  0  0  0  0
  8 15  1  0  0  0  0
  8  9  1  0  0  0  0
  9 23  2  0  0  0  0
 11  4  1  0  0  0  0
 13  5  1  0  0  0  0
 13  1  1  0  0  0  0
 15 19  1  0  0  0  0
 16  4  1  0  0  0  0
 16  3  1  0  0  0  0
 17 21  2  0  0  0  0
 19 26  1  1  0  0  0
 19  6  1  0  0  0  0
 20 11  1  0  0  0  0
 22 14  1  0  0  0  0
 22 18  2  0  0  0  0
 23 12  1  0  0  0  0
 23 20  1  0  0  0  0
 24 15  2  0  0  0  0
 25 17  1  0  0  0  0
 25 14  1  0  0  0  0
 27 26  2  0  0  0  0
 28  8  1  0  0  0  0
 29 30  1  0  0  0  0
 29 28  1  0  0  0  0
 31 30  1  0  0  0  0
 31 32  1  0  0  0  0
 32 33  1  0  0  0  0
 34 35  1  0  0  0  0
 34 33  1  0  0  0  0
 35 38  1  0  0  0  0
 36 35  1  0  0  0  0
 37 35  2  0  0  0  0
 39 22  1  0  0  0  0
 40 43  1  0  0  0  0
 41 43  2  0  0  0  0
 42 41  1  0  0  0  0
 43 39  1  0  0  0  0
 44 40  2  0  0  0  0
 45 42  2  0  0  0  0
 45 44  1  0  0  0  0
 46 45  1  0  0  0  0
 47 59  1  6  0  0  0
 47 46  1  0  0  0  0
 48 49  1  0  0  0  0
 48 51  1  1  0  0  0
 49 47  1  6  0  0  0
 50 48  1  0  0  0  0
 50 49  1  0  0  0  0
 52 53  1  0  0  0  0
 53 54  1  0  0  0  0
 53 48  1  0  0  0  0
 55 57  1  0  0  0  0
 55 56  1  0  0  0  0
 56 54  1  0  0  0  0
 57 56  1  0  0  0  0
 58 59  2  0  0  0  0
 61 60  1  1  0  0  0
 61 62  1  0  0  0  0
 61 58  1  0  0  0  0
 62 63  1  0  0  0  0
 64 63  1  0  0  0  0
 64 65  1  0  0  0  0
 66 65  1  0  0  0  0
 67 68  1  0  0  0  0
 67 69  1  0  0  0  0
 67 66  1  0  0  0  0
 68 69  1  0  0  0  0
M  END
>  <MODEL>
5

>  <REMARK>
 VINA RESULT:      -1.4      3.201      9.892
  Name = 
  25 active torsions:
  status: ('A' for Active; 'I' for Inactive)
    1  A    between atoms: C_2  and  C_10
    2  A    between atoms: C_2  and  C_28
    3  A    between atoms: C_5  and  C_65
    4  A    between atoms: C_6  and  N_59
    5  A    between atoms: C_7  and  C_18
    6  A    between atoms: P_9  and  O_20
    7  A    between atoms: C_10  and  C_12
    8  A    between atoms: C_18  and  N_37
    9  A    between atoms: C_18  and  C_43
   10  A    between atoms: O_20  and  C_45
   11  A    between atoms: C_21  and  C_50
   12  A    between atoms: N_22  and  C_56
   13  A    between atoms: O_23  and  O_24
   14  A    between atoms: O_23  and  C_28
   15  A    between atoms: O_24  and  C_65
   16  A    between atoms: C_25  and  C_69
   17  A    between atoms: C_31  and  C_47
   18  A    between atoms: C_31  and  C_57
   19  A    between atoms: C_34  and  C_55
   20  A    between atoms: C_34  and  C_60
   21  A    between atoms: N_37  and  C_64
   22  A    between atoms: C_45  and  C_57
   23  A    between atoms: C_47  and  C_48
   24  A    between atoms: C_48  and  C_56
   25  A    between atoms: N_59  and  C_69
                            x       y       z     vdW  Elec       q    Type
                         _______ _______ _______ _____ _____    ______ ____

>  <TORSDO>
F 25

$$$$
