=
 OpenBabel11032420373D

 27 29  0  0  1  0  0  0  0  0999 V2000
  187.0890  175.5000  137.5650 O   0  0  0  0  0  0  0  0  0  0  0  0
  188.9590  177.2190  139.7420 C   0  0  1  0  0  3  0  0  0  0  0  0
  190.5930  175.9340  138.1820 C   0  0  0  0  0  0  0  0  0  0  0  0
  191.3010  176.8810  140.2240 O   0  0  0  0  0  0  0  0  0  0  0  0
  187.8690  176.9190  135.7100 O   0  0  0  0  0  0  0  0  0  0  0  0
  188.1440  176.4720  137.1190 S   0  0  0  0  0  0  0  0  0  0  0  0
  188.1710  178.1430  138.3750 S   0  0  0  0  0  0  0  0  0  0  0  0
  191.8390  175.1870  137.8230 C   0  0  1  0  0  3  0  0  0  0  0  0
  189.7300  175.7420  137.2040 C   0  0  0  0  0  0  0  0  0  0  0  0
  190.3500  176.7110  139.4150 C   0  0  0  0  0  0  0  0  0  0  0  0
  191.4710  174.6000  136.5360 N   0  0  0  0  0  0  0  0  0  0  0  0
  190.2890  174.9210  136.1980 N   0  0  0  0  0  0  0  0  0  0  0  0
  192.9590  176.1150  137.6330 C   0  0  0  0  0  0  0  0  0  0  0  0
  193.8430  176.8470  137.4850 N   0  0  0  0  0  0  0  0  0  0  0  0
  188.7900  177.9390  141.0960 C   0  0  1  0  0  3  0  0  0  0  0  0
  187.4840  178.7270  141.0470 C   0  0  0  0  0  1  0  0  0  0  0  0
  187.7770  176.9170  144.4250 C   0  0  1  0  0  3  0  0  0  0  0  0
  187.5280  177.0900  142.9410 C   0  0  0  0  0  2  0  0  0  0  0  0
  188.8190  177.0290  142.2570 N   0  0  0  0  0  0  0  0  0  0  0  0
  189.2570  177.1400  144.6150 C   0  0  0  0  0  2  0  0  0  0  0  0
  189.7710  177.5230  143.2460 C   0  0  0  0  0  2  0  0  0  0  0  0
  186.9820  177.9090  145.2100 C   0  0  0  0  0  0  0  0  0  0  0  0
  187.3780  178.2250  146.3640 O   0  0  0  0  0  0  0  0  0  0  0  0
  184.5570  178.5610  146.6790 N   0  0  0  0  0  1  0  0  0  0  0  0
  184.6950  178.7810  145.2770 C   0  0  0  0  0  0  0  0  0  0  0  0
  185.7900  178.4800  144.6440 N   0  0  0  0  0  0  0  0  0  0  0  0
  183.6070  179.3440  144.5550 N   0  0  0  0  0  1  0  0  0  0  0  0
  2 15  1  1  0  0  0
  3 10  1  0  0  0  0
  5  6  2  0  0  0  0
  6  9  1  0  0  0  0
  6  1  2  0  0  0  0
  6  7  1  0  0  0  0
  7  2  1  0  0  0  0
  8 13  1  6  0  0  0
  8  3  1  0  0  0  0
  9  3  2  0  0  0  0
 10  2  1  0  0  0  0
 10  4  2  0  0  0  0
 11  8  1  0  0  0  0
 12 11  2  0  0  0  0
 12  9  1  0  0  0  0
 14 13  3  0  0  0  0
 15 16  1  6  0  0  0
 15 19  1  0  0  0  0
 17 20  1  0  0  0  0
 17 22  1  1  0  0  0
 18 17  1  0  0  0  0
 19 18  1  0  0  0  0
 19 21  1  0  0  0  0
 21 20  1  0  0  0  0
 22 23  2  0  0  0  0
 25 24  1  0  0  0  0
 26 22  1  0  0  0  0
 26 25  2  0  0  0  0
 27 25  1  0  0  0  0
M  END
>  <MODEL>
1

>  <REMARK>
 VINA RESULT:      -7.5      0.000      0.000
  Name = 
  5 active torsions:
  status: ('A' for Active; 'I' for Inactive)
    1  A    between atoms: C_2  and  C_6
    2  A    between atoms: C_5  and  C_9
    3  A    between atoms: C_6  and  N_19
    4  A    between atoms: N_7  and  C_9
    5  A    between atoms: C_8  and  C_17
                            x       y       z     vdW  Elec       q    Type
                         _______ _______ _______ _____ _____    ______ ____

>  <TORSDO>
F 5

$$$$
=
 OpenBabel11032420373D

 27 29  0  0  1  0  0  0  0  0999 V2000
  191.3120  176.0790  144.4990 O   0  0  0  0  0  0  0  0  0  0  0  0
  188.7750  177.3910  142.7560 C   0  0  1  0  0  3  0  0  0  0  0  0
  188.0330  177.3220  145.2460 C   0  0  0  0  0  0  0  0  0  0  0  0
  186.4890  177.6440  143.4920 O   0  0  0  0  0  0  0  0  0  0  0  0
  191.7110  178.2340  145.6210 O   0  0  0  0  0  0  0  0  0  0  0  0
  190.7230  177.4210  144.8320 S   0  0  0  0  0  0  0  0  0  0  0  0
  190.2280  178.4530  143.0820 S   0  0  0  0  0  0  0  0  0  0  0  0
  187.0730  177.1760  146.3840 C   0  0  1  0  0  3  0  0  0  0  0  0
  189.2490  177.2360  145.7510 C   0  0  0  0  0  0  0  0  0  0  0  0
  187.6960  177.4910  143.8180 C   0  0  0  0  0  0  0  0  0  0  0  0
  187.9790  177.0050  147.5180 N   0  0  0  0  0  0  0  0  0  0  0  0
  189.1960  177.0450  147.1520 N   0  0  0  0  0  0  0  0  0  0  0  0
  186.2950  178.4070  146.5630 C   0  0  0  0  0  0  0  0  0  0  0  0
  185.6800  179.3780  146.7040 N   0  0  0  0  0  0  0  0  0  0  0  0
  188.3080  177.4900  141.2890 C   0  0  1  0  0  3  0  0  0  0  0  0
  187.2950  178.6280  141.1970 C   0  0  0  0  0  1  0  0  0  0  0  0
  189.6310  178.2150  137.9920 C   0  0  1  0  0  3  0  0  0  0  0  0
  188.9870  178.6280  139.3000 C   0  0  0  0  0  2  0  0  0  0  0  0
  189.4110  177.6810  140.3300 N   0  0  0  0  0  0  0  0  0  0  0  0
  190.1190  176.8040  138.2100 C   0  0  0  0  0  2  0  0  0  0  0  0
  189.6490  176.4400  139.5990 C   0  0  0  0  0  2  0  0  0  0  0  0
  188.6390  178.2710  136.8770 C   0  0  0  0  0  0  0  0  0  0  0  0
  189.0530  178.1590  135.6920 O   0  0  0  0  0  0  0  0  0  0  0  0
  186.6920  176.1360  137.2180 N   0  0  0  0  0  1  0  0  0  0  0  0
  186.3530  177.5170  137.3260 C   0  0  0  0  0  0  0  0  0  0  0  0
  187.2420  178.4520  137.1690 N   0  0  0  0  0  0  0  0  0  0  0  0
  185.0080  177.8780  137.6140 N   0  0  0  0  0  1  0  0  0  0  0  0
  1  6  2  0  0  0  0
  2 15  1  6  0  0  0
  2  7  1  0  0  0  0
  2 10  1  0  0  0  0
  3  9  2  0  0  0  0
  3  8  1  0  0  0  0
  4 10  2  0  0  0  0
  6  5  2  0  0  0  0
  6  9  1  0  0  0  0
  7  6  1  0  0  0  0
  8 13  1  1  0  0  0
  8 11  1  0  0  0  0
  9 12  1  0  0  0  0
 10  3  1  0  0  0  0
 12 11  2  0  0  0  0
 13 14  3  0  0  0  0
 15 16  1  1  0  0  0
 17 22  1  6  0  0  0
 17 20  1  0  0  0  0
 17 18  1  0  0  0  0
 18 19  1  0  0  0  0
 19 15  1  0  0  0  0
 20 21  1  0  0  0  0
 21 19  1  0  0  0  0
 22 26  1  0  0  0  0
 23 22  2  0  0  0  0
 24 25  1  0  0  0  0
 25 27  1  0  0  0  0
 26 25  2  0  0  0  0
M  END
>  <MODEL>
2

>  <REMARK>
 VINA RESULT:      -6.9      3.219      7.989
  Name = 
  5 active torsions:
  status: ('A' for Active; 'I' for Inactive)
    1  A    between atoms: C_2  and  C_6
    2  A    between atoms: C_5  and  C_9
    3  A    between atoms: C_6  and  N_19
    4  A    between atoms: N_7  and  C_9
    5  A    between atoms: C_8  and  C_17
                            x       y       z     vdW  Elec       q    Type
                         _______ _______ _______ _____ _____    ______ ____

>  <TORSDO>
F 5

$$$$
=
 OpenBabel11032420373D

 27 29  0  0  1  0  0  0  0  0999 V2000
  189.2120  173.8070  137.2320 O   0  0  0  0  0  0  0  0  0  0  0  0
  190.6860  176.3550  138.8210 C   0  0  1  0  0  3  0  0  0  0  0  0
  192.4070  175.4270  137.1090 C   0  0  0  0  0  0  0  0  0  0  0  0
  193.0470  176.8620  138.8690 O   0  0  0  0  0  0  0  0  0  0  0  0
  189.1740  175.0850  135.1280 O   0  0  0  0  0  0  0  0  0  0  0  0
  189.7920  174.9800  136.4940 S   0  0  0  0  0  0  0  0  0  0  0  0
  189.4350  176.7510  137.5470 S   0  0  0  0  0  0  0  0  0  0  0  0
  193.7650  175.0670  136.5910 C   0  0  1  0  0  3  0  0  0  0  0  0
  191.5250  174.8160  136.3420 C   0  0  0  0  0  0  0  0  0  0  0  0
  192.1010  176.2720  138.2810 C   0  0  0  0  0  0  0  0  0  0  0  0
  193.4310  174.1970  135.4660 N   0  0  0  0  0  0  0  0  0  0  0  0
  192.1740  174.0660  135.3330 N   0  0  0  0  0  0  0  0  0  0  0  0
  194.4590  176.2610  136.0950 C   0  0  0  0  0  0  0  0  0  0  0  0
  195.0070  177.2030  135.7050 N   0  0  0  0  0  0  0  0  0  0  0  0
  190.4860  177.1910  140.1020 C   0  0  1  0  0  3  0  0  0  0  0  0
  189.1420  177.9040  139.9900 C   0  0  0  0  0  1  0  0  0  0  0  0
  189.8690  176.6480  143.6340 C   0  0  1  0  0  3  0  0  0  0  0  0
  189.4190  176.7220  142.1900 C   0  0  0  0  0  2  0  0  0  0  0  0
  190.5650  176.3970  141.3430 N   0  0  0  0  0  0  0  0  0  0  0  0
  191.3770  176.6500  143.5880 C   0  0  0  0  0  2  0  0  0  0  0  0
  191.7210  176.8220  142.1260 C   0  0  0  0  0  2  0  0  0  0  0  0
  189.3560  177.8200  144.4050 C   0  0  0  0  0  0  0  0  0  0  0  0
  190.1470  178.7640  144.6700 O   0  0  0  0  0  0  0  0  0  0  0  0
  188.4040  177.2590  147.0980 N   0  0  0  0  0  1  0  0  0  0  0  0
  187.5310  177.6060  146.0240 C   0  0  0  0  0  0  0  0  0  0  0  0
  187.9820  177.8520  144.8300 N   0  0  0  0  0  0  0  0  0  0  0  0
  186.1330  177.6850  146.2700 N   0  0  0  0  0  1  0  0  0  0  0  0
  2 15  1  1  0  0  0
  3 10  1  0  0  0  0
  5  6  2  0  0  0  0
  6  1  2  0  0  0  0
  6  7  1  0  0  0  0
  7  2  1  0  0  0  0
  8 13  1  6  0  0  0
  8  3  1  0  0  0  0
  9  6  1  0  0  0  0
  9  3  2  0  0  0  0
 10  2  1  0  0  0  0
 10  4  2  0  0  0  0
 11  8  1  0  0  0  0
 12 11  2  0  0  0  0
 12  9  1  0  0  0  0
 14 13  3  0  0  0  0
 15 16  1  6  0  0  0
 15 19  1  0  0  0  0
 17 22  1  1  0  0  0
 18 17  1  0  0  0  0
 19 21  1  0  0  0  0
 19 18  1  0  0  0  0
 20 17  1  0  0  0  0
 21 20  1  0  0  0  0
 22 23  2  0  0  0  0
 22 26  1  0  0  0  0
 25 27  1  0  0  0  0
 25 24  1  0  0  0  0
 26 25  2  0  0  0  0
M  END
>  <MODEL>
3

>  <REMARK>
 VINA RESULT:      -6.8      1.955      2.477
  Name = 
  5 active torsions:
  status: ('A' for Active; 'I' for Inactive)
    1  A    between atoms: C_2  and  C_6
    2  A    between atoms: C_5  and  C_9
    3  A    between atoms: C_6  and  N_19
    4  A    between atoms: N_7  and  C_9
    5  A    between atoms: C_8  and  C_17
                            x       y       z     vdW  Elec       q    Type
                         _______ _______ _______ _____ _____    ______ ____

>  <TORSDO>
F 5

$$$$
=
 OpenBabel11032420373D

 27 29  0  0  1  0  0  0  0  0999 V2000
  191.9890  177.6940  139.6890 O   0  0  0  0  0  0  0  0  0  0  0  0
  189.0220  177.9790  141.2080 C   0  0  1  0  0  3  0  0  0  0  0  0
  188.5850  178.1180  138.6500 C   0  0  0  0  0  0  0  0  0  0  0  0
  186.9650  178.7840  140.2300 O   0  0  0  0  0  0  0  0  0  0  0  0
  191.3510  175.5040  138.7620 O   0  0  0  0  0  0  0  0  0  0  0  0
  190.8400  176.7770  139.3770 S   0  0  0  0  0  0  0  0  0  0  0  0
  189.7820  176.3180  141.1210 S   0  0  0  0  0  0  0  0  0  0  0  0
  187.9020  178.5820  137.4010 C   0  0  1  0  0  3  0  0  0  0  0  0
  189.7160  177.5470  138.2840 C   0  0  0  0  0  0  0  0  0  0  0  0
  188.1110  178.2960  140.0370 C   0  0  0  0  0  0  0  0  0  0  0  0
  188.8510  178.1630  136.3720 N   0  0  0  0  0  0  0  0  0  0  0  0
  189.8610  177.5810  136.8780 N   0  0  0  0  0  0  0  0  0  0  0  0
  186.6330  177.8700  137.2130 C   0  0  0  0  0  0  0  0  0  0  0  0
  185.6320  177.3090  137.0660 N   0  0  0  0  0  0  0  0  0  0  0  0
  188.4660  178.2860  142.6140 C   0  0  1  0  0  3  0  0  0  0  0  0
  186.9790  177.9420  142.6150 C   0  0  0  0  0  1  0  0  0  0  0  0
  188.7520  177.0170  145.9990 C   0  0  1  0  0  3  0  0  0  0  0  0
  188.1930  176.9710  144.5920 C   0  0  0  0  0  2  0  0  0  0  0  0
  189.1760  177.5780  143.6960 N   0  0  0  0  0  0  0  0  0  0  0  0
  189.8960  177.9990  145.9470 C   0  0  0  0  0  2  0  0  0  0  0  0
  189.8790  178.5420  144.5370 C   0  0  0  0  0  2  0  0  0  0  0  0
  187.7060  177.4650  146.9660 C   0  0  0  0  0  0  0  0  0  0  0  0
  188.0350  177.6660  148.1660 O   0  0  0  0  0  0  0  0  0  0  0  0
  186.0940  179.8440  147.4280 N   0  0  0  0  0  1  0  0  0  0  0  0
  185.6120  178.7090  146.7110 C   0  0  0  0  0  0  0  0  0  0  0  0
  186.3520  177.6580  146.5190 N   0  0  0  0  0  0  0  0  0  0  0  0
  184.2870  178.7300  146.1940 N   0  0  0  0  0  1  0  0  0  0  0  0
  2 15  1  1  0  0  0
  3 10  1  0  0  0  0
  5  6  2  0  0  0  0
  6  1  2  0  0  0  0
  6  7  1  0  0  0  0
  7  2  1  0  0  0  0
  8 13  1  6  0  0  0
  8  3  1  0  0  0  0
  9  3  2  0  0  0  0
  9  6  1  0  0  0  0
 10  4  2  0  0  0  0
 10  2  1  0  0  0  0
 11 12  2  0  0  0  0
 11  8  1  0  0  0  0
 12  9  1  0  0  0  0
 14 13  3  0  0  0  0
 15 16  1  6  0  0  0
 15 19  1  0  0  0  0
 17 22  1  1  0  0  0
 18 17  1  0  0  0  0
 19 21  1  0  0  0  0
 19 18  1  0  0  0  0
 20 17  1  0  0  0  0
 21 20  1  0  0  0  0
 22 23  2  0  0  0  0
 25 24  1  0  0  0  0
 26 25  2  0  0  0  0
 26 22  1  0  0  0  0
 27 25  1  0  0  0  0
M  END
>  <MODEL>
4

>  <REMARK>
 VINA RESULT:      -6.8      2.465      3.542
  Name = 
  5 active torsions:
  status: ('A' for Active; 'I' for Inactive)
    1  A    between atoms: C_2  and  C_6
    2  A    between atoms: C_5  and  C_9
    3  A    between atoms: C_6  and  N_19
    4  A    between atoms: N_7  and  C_9
    5  A    between atoms: C_8  and  C_17
                            x       y       z     vdW  Elec       q    Type
                         _______ _______ _______ _____ _____    ______ ____

>  <TORSDO>
F 5

$$$$
=
 OpenBabel11032420373D

 27 29  0  0  1  0  0  0  0  0999 V2000
  191.3330  176.0750  144.4860 O   0  0  0  0  0  0  0  0  0  0  0  0
  188.7410  177.4890  142.9110 C   0  0  1  0  0  3  0  0  0  0  0  0
  188.1130  177.3390  145.4280 C   0  0  0  0  0  0  0  0  0  0  0  0
  186.4960  177.7490  143.7610 O   0  0  0  0  0  0  0  0  0  0  0  0
  191.8190  178.1820  145.6640 O   0  0  0  0  0  0  0  0  0  0  0  0
  190.7830  177.4130  144.8930 S   0  0  0  0  0  0  0  0  0  0  0  0
  190.2260  178.5160  143.2060 S   0  0  0  0  0  0  0  0  0  0  0  0
  187.2040  177.1660  146.6040 C   0  0  1  0  0  3  0  0  0  0  0  0
  189.3490  177.2170  145.8730 C   0  0  0  0  0  0  0  0  0  0  0  0
  187.7140  177.5660  144.0240 C   0  0  0  0  0  0  0  0  0  0  0  0
  188.1580  176.9410  147.6870 N   0  0  0  0  0  0  0  0  0  0  0  0
  189.3570  176.9760  147.2660 N   0  0  0  0  0  0  0  0  0  0  0  0
  186.4560  178.4020  146.8620 C   0  0  0  0  0  0  0  0  0  0  0  0
  185.8660  179.3770  147.0650 N   0  0  0  0  0  0  0  0  0  0  0  0
  188.2090  177.6480  141.4710 C   0  0  1  0  0  3  0  0  0  0  0  0
  187.2390  178.8260  141.4590 C   0  0  0  0  0  1  0  0  0  0  0  0
  189.6580  177.1540  138.1850 C   0  0  1  0  0  3  0  0  0  0  0  0
  188.6730  177.8070  139.1310 C   0  0  0  0  0  2  0  0  0  0  0  0
  189.2720  177.8240  140.4650 N   0  0  0  0  0  0  0  0  0  0  0  0
  190.6660  176.4580  139.0670 C   0  0  0  0  0  2  0  0  0  0  0  0
  190.1570  176.6640  140.4750 C   0  0  0  0  0  2  0  0  0  0  0  0
  188.9640  176.1780  137.2930 C   0  0  0  0  0  0  0  0  0  0  0  0
  187.7660  175.8740  137.5430 O   0  0  0  0  0  0  0  0  0  0  0  0
  190.1350  173.5140  137.2150 N   0  0  0  0  0  1  0  0  0  0  0  0
  190.1950  174.4200  136.1140 C   0  0  0  0  0  0  0  0  0  0  0  0
  189.6640  175.6040  136.1750 N   0  0  0  0  0  0  0  0  0  0  0  0
  190.8530  174.0130  134.9210 N   0  0  0  0  0  1  0  0  0  0  0  0
  1  6  2  0  0  0  0
  2 15  1  6  0  0  0
  2  7  1  0  0  0  0
  2 10  1  0  0  0  0
  3  9  2  0  0  0  0
  3  8  1  0  0  0  0
  4 10  2  0  0  0  0
  6  5  2  0  0  0  0
  6  9  1  0  0  0  0
  7  6  1  0  0  0  0
  8 13  1  1  0  0  0
  8 11  1  0  0  0  0
  9 12  1  0  0  0  0
 10  3  1  0  0  0  0
 12 11  2  0  0  0  0
 13 14  3  0  0  0  0
 15 16  1  1  0  0  0
 17 22  1  6  0  0  0
 17 20  1  0  0  0  0
 17 18  1  0  0  0  0
 18 19  1  0  0  0  0
 19 21  1  0  0  0  0
 19 15  1  0  0  0  0
 20 21  1  0  0  0  0
 22 23  2  0  0  0  0
 25 26  2  0  0  0  0
 25 24  1  0  0  0  0
 26 22  1  0  0  0  0
 27 25  1  0  0  0  0
M  END
>  <MODEL>
5

>  <REMARK>
 VINA RESULT:      -6.6      2.696      8.529
  Name = 
  5 active torsions:
  status: ('A' for Active; 'I' for Inactive)
    1  A    between atoms: C_2  and  C_6
    2  A    between atoms: C_5  and  C_9
    3  A    between atoms: C_6  and  N_19
    4  A    between atoms: N_7  and  C_9
    5  A    between atoms: C_8  and  C_17
                            x       y       z     vdW  Elec       q    Type
                         _______ _______ _______ _____ _____    ______ ____

>  <TORSDO>
F 5

$$$$
=
 OpenBabel11032420373D

 27 29  0  0  1  0  0  0  0  0999 V2000
  189.0550  179.3160  138.7300 O   0  0  0  0  0  0  0  0  0  0  0  0
  187.9900  178.1160  141.6660 C   0  0  1  0  0  3  0  0  0  0  0  0
  185.8780  178.6280  140.2410 C   0  0  0  0  0  0  0  0  0  0  0  0
  185.7560  178.2680  142.5690 O   0  0  0  0  0  0  0  0  0  0  0  0
  188.2430  177.3050  137.5650 O   0  0  0  0  0  0  0  0  0  0  0  0
  188.1480  178.1220  138.8230 S   0  0  0  0  0  0  0  0  0  0  0  0
  188.6810  176.9300  140.4560 S   0  0  0  0  0  0  0  0  0  0  0  0
  184.4660  179.0550  139.9920 C   0  0  1  0  0  3  0  0  0  0  0  0
  186.4930  178.6230  139.0740 C   0  0  0  0  0  0  0  0  0  0  0  0
  186.4900  178.3070  141.5460 C   0  0  0  0  0  0  0  0  0  0  0  0
  184.4690  179.2620  138.5450 N   0  0  0  0  0  0  0  0  0  0  0  0
  185.6090  179.0130  138.0410 N   0  0  0  0  0  0  0  0  0  0  0  0
  183.5340  177.9720  140.3280 C   0  0  0  0  0  0  0  0  0  0  0  0
  182.7980  177.1180  140.5920 N   0  0  0  0  0  0  0  0  0  0  0  0
  188.5420  177.8760  143.0870 C   0  0  1  0  0  3  0  0  0  0  0  0
  187.9720  176.5540  143.5920 C   0  0  0  0  0  1  0  0  0  0  0  0
  191.7030  177.0790  144.6760 C   0  0  1  0  0  3  0  0  0  0  0  0
  190.4600  176.7010  143.8970 C   0  0  0  0  0  2  0  0  0  0  0  0
  190.0150  177.8800  143.1560 N   0  0  0  0  0  0  0  0  0  0  0  0
  191.7400  178.5880  144.6700 C   0  0  0  0  0  2  0  0  0  0  0  0
  190.4670  179.0050  143.9700 C   0  0  0  0  0  2  0  0  0  0  0  0
  191.6290  176.5520  146.0720 C   0  0  0  0  0  0  0  0  0  0  0  0
  192.0550  175.3890  146.3040 O   0  0  0  0  0  0  0  0  0  0  0  0
  188.8480  176.5570  146.9290 N   0  0  0  0  0  1  0  0  0  0  0  0
  189.8410  177.3920  147.5200 C   0  0  0  0  0  0  0  0  0  0  0  0
  191.0770  177.3710  147.1190 N   0  0  0  0  0  0  0  0  0  0  0  0
  189.4680  178.2680  148.5760 N   0  0  0  0  0  1  0  0  0  0  0  0
  1  6  2  0  0  0  0
  2 15  1  1  0  0  0
  3 10  1  0  0  0  0
  5  6  2  0  0  0  0
  6  9  1  0  0  0  0
  6  7  1  0  0  0  0
  7  2  1  0  0  0  0
  8  3  1  0  0  0  0
  8 13  1  6  0  0  0
  9  3  2  0  0  0  0
 10  2  1  0  0  0  0
 10  4  2  0  0  0  0
 11  8  1  0  0  0  0
 12 11  2  0  0  0  0
 12  9  1  0  0  0  0
 13 14  3  0  0  0  0
 15 19  1  0  0  0  0
 15 16  1  6  0  0  0
 17 22  1  1  0  0  0
 18 17  1  0  0  0  0
 19 18  1  0  0  0  0
 19 21  1  0  0  0  0
 20 17  1  0  0  0  0
 21 20  1  0  0  0  0
 22 23  2  0  0  0  0
 22 26  1  0  0  0  0
 24 25  1  0  0  0  0
 25 27  1  0  0  0  0
 26 25  2  0  0  0  0
M  END
>  <MODEL>
6

>  <REMARK>
 VINA RESULT:      -6.4      4.004      5.548
  Name = 
  5 active torsions:
  status: ('A' for Active; 'I' for Inactive)
    1  A    between atoms: C_2  and  C_6
    2  A    between atoms: C_5  and  C_9
    3  A    between atoms: C_6  and  N_19
    4  A    between atoms: N_7  and  C_9
    5  A    between atoms: C_8  and  C_17
                            x       y       z     vdW  Elec       q    Type
                         _______ _______ _______ _____ _____    ______ ____

>  <TORSDO>
F 5

$$$$
=
 OpenBabel11032420373D

 27 29  0  0  1  0  0  0  0  0999 V2000
  186.3960  177.7160  137.8940 O   0  0  0  0  0  0  0  0  0  0  0  0
  189.3210  176.8580  139.2720 C   0  0  1  0  0  3  0  0  0  0  0  0
  189.3950  176.0930  136.7900 C   0  0  0  0  0  0  0  0  0  0  0  0
  190.9370  175.2970  138.3880 O   0  0  0  0  0  0  0  0  0  0  0  0
  187.5090  179.3860  136.4680 O   0  0  0  0  0  0  0  0  0  0  0  0
  187.7110  178.1660  137.3220 S   0  0  0  0  0  0  0  0  0  0  0  0
  189.0540  178.6200  138.8590 S   0  0  0  0  0  0  0  0  0  0  0  0
  189.7660  175.2090  135.6400 C   0  0  1  0  0  3  0  0  0  0  0  0
  188.4350  176.8940  136.3690 C   0  0  0  0  0  0  0  0  0  0  0  0
  189.9610  176.0580  138.1530 C   0  0  0  0  0  0  0  0  0  0  0  0
  188.8590  175.6820  134.5970 N   0  0  0  0  0  0  0  0  0  0  0  0
  188.1210  176.6290  135.0150 N   0  0  0  0  0  0  0  0  0  0  0  0
  191.1530  175.4560  135.2290 C   0  0  0  0  0  0  0  0  0  0  0  0
  192.2470  175.6510  134.9060 N   0  0  0  0  0  0  0  0  0  0  0  0
  189.9300  176.6830  140.6790 C   0  0  1  0  0  3  0  0  0  0  0  0
  191.2390  177.4660  140.7220 C   0  0  0  0  0  1  0  0  0  0  0  0
  189.2440  178.1570  143.9200 C   0  0  1  0  0  3  0  0  0  0  0  0
  189.6040  178.2530  142.4520 C   0  0  0  0  0  2  0  0  0  0  0  0
  189.0270  177.0970  141.7690 N   0  0  0  0  0  0  0  0  0  0  0  0
  188.7800  176.7370  144.1300 C   0  0  0  0  0  2  0  0  0  0  0  0
  188.9860  176.0590  142.7950 C   0  0  0  0  0  2  0  0  0  0  0  0
  190.4300  178.4640  144.7740 C   0  0  0  0  0  0  0  0  0  0  0  0
  191.2120  179.3860  144.4180 O   0  0  0  0  0  0  0  0  0  0  0  0
  192.0550  176.0580  144.9750 N   0  0  0  0  0  1  0  0  0  0  0  0
  191.3820  176.6330  146.0930 C   0  0  0  0  0  0  0  0  0  0  0  0
  190.6620  177.7090  145.9770 N   0  0  0  0  0  0  0  0  0  0  0  0
  191.5040  176.0130  147.3670 N   0  0  0  0  0  1  0  0  0  0  0  0
  2 15  1  1  0  0  0
  3 10  1  0  0  0  0
  5  6  2  0  0  0  0
  6  1  2  0  0  0  0
  6  7  1  0  0  0  0
  7  2  1  0  0  0  0
  8 13  1  6  0  0  0
  8  3  1  0  0  0  0
  9  3  2  0  0  0  0
  9  6  1  0  0  0  0
 10  4  2  0  0  0  0
 10  2  1  0  0  0  0
 11 12  2  0  0  0  0
 11  8  1  0  0  0  0
 12  9  1  0  0  0  0
 14 13  3  0  0  0  0
 15 16  1  6  0  0  0
 15 19  1  0  0  0  0
 17 20  1  0  0  0  0
 17 22  1  1  0  0  0
 18 17  1  0  0  0  0
 19 18  1  0  0  0  0
 19 21  1  0  0  0  0
 21 20  1  0  0  0  0
 22 26  1  0  0  0  0
 23 22  2  0  0  0  0
 24 25  1  0  0  0  0
 25 27  1  0  0  0  0
 26 25  2  0  0  0  0
M  END
>  <MODEL>
7

>  <REMARK>
 VINA RESULT:      -6.3      2.878      3.702
  Name = 
  5 active torsions:
  status: ('A' for Active; 'I' for Inactive)
    1  A    between atoms: C_2  and  C_6
    2  A    between atoms: C_5  and  C_9
    3  A    between atoms: C_6  and  N_19
    4  A    between atoms: N_7  and  C_9
    5  A    between atoms: C_8  and  C_17
                            x       y       z     vdW  Elec       q    Type
                         _______ _______ _______ _____ _____    ______ ____

>  <TORSDO>
F 5

$$$$
=
 OpenBabel11032420373D

 27 29  0  0  1  0  0  0  0  0999 V2000
  190.1050  178.6310  143.6430 O   0  0  0  0  0  0  0  0  0  0  0  0
  187.3540  178.6220  141.7390 C   0  0  1  0  0  3  0  0  0  0  0  0
  189.3130  177.7790  140.2530 C   0  0  0  0  0  0  0  0  0  0  0  0
  187.2600  178.4870  139.3290 O   0  0  0  0  0  0  0  0  0  0  0  0
  190.2030  176.1710  143.5880 O   0  0  0  0  0  0  0  0  0  0  0  0
  189.6310  177.3960  142.9300 S   0  0  0  0  0  0  0  0  0  0  0  0
  187.5430  177.2860  142.9740 S   0  0  0  0  0  0  0  0  0  0  0  0
  190.0940  177.6040  138.9880 C   0  0  1  0  0  3  0  0  0  0  0  0
  190.1050  177.4350  141.2490 C   0  0  0  0  0  0  0  0  0  0  0  0
  187.9290  178.2800  140.3770 C   0  0  0  0  0  0  0  0  0  0  0  0
  191.3780  177.1280  139.4970 N   0  0  0  0  0  0  0  0  0  0  0  0
  191.3720  177.0340  140.7640 N   0  0  0  0  0  0  0  0  0  0  0  0
  189.4870  176.5650  138.1480 C   0  0  0  0  0  0  0  0  0  0  0  0
  189.0090  175.7450  137.4860 N   0  0  0  0  0  0  0  0  0  0  0  0
  185.9330  179.2240  141.7550 C   0  0  1  0  0  3  0  0  0  0  0  0
  185.3120  178.9910  140.3810 C   0  0  0  0  0  1  0  0  0  0  0  0
  182.7140  178.5130  143.2630 C   0  0  1  0  0  3  0  0  0  0  0  0
  183.8040  178.2530  142.2450 C   0  0  0  0  0  2  0  0  0  0  0  0
  185.0750  178.6830  142.8250 N   0  0  0  0  0  0  0  0  0  0  0  0
  183.3240  179.4460  144.2800 C   0  0  0  0  0  2  0  0  0  0  0  0
  184.7040  179.7530  143.7460 C   0  0  0  0  0  2  0  0  0  0  0  0
  181.5240  179.1370  142.6120 C   0  0  0  0  0  0  0  0  0  0  0  0
  180.9110  180.0550  143.2210 O   0  0  0  0  0  0  0  0  0  0  0  0
  179.3140  177.3160  142.0920 N   0  0  0  0  0  1  0  0  0  0  0  0
  180.1170  177.8750  141.0550 C   0  0  0  0  0  0  0  0  0  0  0  0
  181.0990  178.6870  141.3130 N   0  0  0  0  0  0  0  0  0  0  0  0
  179.8340  177.5360  139.7030 N   0  0  0  0  0  1  0  0  0  0  0  0
  2 15  1  6  0  0  0
  2  7  1  0  0  0  0
  3 10  1  0  0  0  0
  3  9  2  0  0  0  0
  4 10  2  0  0  0  0
  6  7  1  0  0  0  0
  6  5  2  0  0  0  0
  6  1  2  0  0  0  0
  8 13  1  6  0  0  0
  8 11  1  0  0  0  0
  8  3  1  0  0  0  0
  9  6  1  0  0  0  0
 10  2  1  0  0  0  0
 11 12  2  0  0  0  0
 12  9  1  0  0  0  0
 14 13  3  0  0  0  0
 15 16  1  6  0  0  0
 15 19  1  0  0  0  0
 17 22  1  6  0  0  0
 17 20  1  0  0  0  0
 18 19  1  0  0  0  0
 18 17  1  0  0  0  0
 19 21  1  0  0  0  0
 21 20  1  0  0  0  0
 22 23  2  0  0  0  0
 25 26  2  0  0  0  0
 25 24  1  0  0  0  0
 26 22  1  0  0  0  0
 27 25  1  0  0  0  0
M  END
>  <MODEL>
8

>  <REMARK>
 VINA RESULT:      -6.3      3.608      5.251
  Name = 
  5 active torsions:
  status: ('A' for Active; 'I' for Inactive)
    1  A    between atoms: C_2  and  C_6
    2  A    between atoms: C_5  and  C_9
    3  A    between atoms: C_6  and  N_19
    4  A    between atoms: N_7  and  C_9
    5  A    between atoms: C_8  and  C_17
                            x       y       z     vdW  Elec       q    Type
                         _______ _______ _______ _____ _____    ______ ____

>  <TORSDO>
F 5

$$$$
=
 OpenBabel11032420373D

 27 29  0  0  1  0  0  0  0  0999 V2000
  186.4060  176.0060  137.3500 O   0  0  0  0  0  0  0  0  0  0  0  0
  189.0470  177.0980  139.0900 C   0  0  1  0  0  3  0  0  0  0  0  0
  189.9690  175.6780  137.1180 C   0  0  0  0  0  0  0  0  0  0  0  0
  191.3090  176.2590  138.9710 O   0  0  0  0  0  0  0  0  0  0  0  0
  187.0320  177.4200  135.4330 O   0  0  0  0  0  0  0  0  0  0  0  0
  187.5170  176.7910  136.7090 S   0  0  0  0  0  0  0  0  0  0  0  0
  188.1870  178.2910  138.0020 S   0  0  0  0  0  0  0  0  0  0  0  0
  190.9090  174.7380  136.4310 C   0  0  1  0  0  3  0  0  0  0  0  0
  188.8850  175.7580  136.3710 C   0  0  0  0  0  0  0  0  0  0  0  0
  190.1850  176.3610  138.4100 C   0  0  0  0  0  0  0  0  0  0  0  0
  190.1420  174.3660  135.2440 N   0  0  0  0  0  0  0  0  0  0  0  0
  189.0110  174.9460  135.2200 N   0  0  0  0  0  0  0  0  0  0  0  0
  192.1300  175.4410  136.0210 C   0  0  0  0  0  0  0  0  0  0  0  0
  193.0940  175.9950  135.6970 N   0  0  0  0  0  0  0  0  0  0  0  0
  189.3500  177.7000  140.4780 C   0  0  1  0  0  3  0  0  0  0  0  0
  188.2300  178.6800  140.8170 C   0  0  0  0  0  1  0  0  0  0  0  0
  189.5020  176.6520  143.9460 C   0  0  1  0  0  3  0  0  0  0  0  0
  188.7470  177.1060  142.7150 C   0  0  0  0  0  2  0  0  0  0  0  0
  189.5080  176.6870  141.5390 N   0  0  0  0  0  0  0  0  0  0  0  0
  190.8900  176.3060  143.4650 C   0  0  0  0  0  2  0  0  0  0  0  0
  190.8930  176.6680  141.9980 C   0  0  0  0  0  2  0  0  0  0  0  0
  189.5470  177.7420  144.9670 C   0  0  0  0  0  0  0  0  0  0  0  0
  189.8500  178.9080  144.5960 O   0  0  0  0  0  0  0  0  0  0  0  0
  186.9120  177.8840  146.1950 N   0  0  0  0  0  1  0  0  0  0  0  0
  188.0830  177.5030  146.9150 C   0  0  0  0  0  0  0  0  0  0  0  0
  189.2480  177.4470  146.3430 N   0  0  0  0  0  0  0  0  0  0  0  0
  187.9680  177.1750  148.2940 N   0  0  0  0  0  1  0  0  0  0  0  0
  2 15  1  1  0  0  0
  3 10  1  0  0  0  0
  5  6  2  0  0  0  0
  6  1  2  0  0  0  0
  6  7  1  0  0  0  0
  7  2  1  0  0  0  0
  8 13  1  6  0  0  0
  8  3  1  0  0  0  0
  9  6  1  0  0  0  0
  9  3  2  0  0  0  0
 10  4  2  0  0  0  0
 10  2  1  0  0  0  0
 11  8  1  0  0  0  0
 12 11  2  0  0  0  0
 12  9  1  0  0  0  0
 14 13  3  0  0  0  0
 15 16  1  1  0  0  0
 15 19  1  0  0  0  0
 17 22  1  1  0  0  0
 18 17  1  0  0  0  0
 19 21  1  0  0  0  0
 19 18  1  0  0  0  0
 20 17  1  0  0  0  0
 21 20  1  0  0  0  0
 22 26  1  0  0  0  0
 23 22  2  0  0  0  0
 24 25  1  0  0  0  0
 25 27  1  0  0  0  0
 26 25  2  0  0  0  0
M  END
>  <MODEL>
9

>  <REMARK>
 VINA RESULT:      -6.3      1.801      2.228
  Name = 
  5 active torsions:
  status: ('A' for Active; 'I' for Inactive)
    1  A    between atoms: C_2  and  C_6
    2  A    between atoms: C_5  and  C_9
    3  A    between atoms: C_6  and  N_19
    4  A    between atoms: N_7  and  C_9
    5  A    between atoms: C_8  and  C_17
                            x       y       z     vdW  Elec       q    Type
                         _______ _______ _______ _____ _____    ______ ____

>  <TORSDO>
F 5

$$$$
