=
 OpenBabel11042411333D

 36 42  0  0  1  0  0  0  0  0999 V2000
  191.2180  176.9320  141.5840 C   0  0  2  0  0  3  0  0  0  0  0  0
  189.7260  177.3540  141.4410 C   0  0  2  0  0  3  0  0  0  0  0  0
  189.8200  177.6640  145.8470 N   0  0  0  0  0  2  0  0  0  0  0  0
  185.3450  177.8530  143.6670 C   0  0  2  0  0  3  0  0  0  0  0  0
  186.7130  177.9030  146.2060 C   0  0  0  0  0  0  0  0  0  0  0  0
  187.7330  177.4610  148.4960 O   0  0  0  0  0  0  0  0  0  0  0  0
  191.0150  177.5430  145.2730 N   0  0  0  0  0  0  0  0  0  0  0  0
  188.8430  176.6860  142.5200 C   0  0  2  0  0  3  0  0  0  0  0  0
  190.8250  177.0240  144.0440 C   0  0  0  0  0  0  0  0  0  0  0  0
  185.4800  179.8370  145.2790 C   0  0  0  0  0  2  0  0  0  0  0  0
  188.8880  177.2240  144.9720 C   0  0  0  0  0  0  0  0  0  0  0  0
  187.2360  177.6750  147.3820 C   0  0  0  0  0  0  0  0  0  0  0  0
  185.3850  178.6040  146.1680 C   0  0  1  0  0  3  0  0  0  0  0  0
  184.6740  178.6370  144.8140 C   0  0  2  0  0  3  0  0  0  0  0  0
  191.7190  177.1800  142.9430 N   0  0  0  0  0  2  0  0  0  0  0  0
  192.0880  177.6860  140.5960 C   0  0  0  0  0  1  0  0  0  0  0  0
  187.5340  177.2790  142.5770 O   0  0  0  0  0  0  0  0  0  0  0  0
  186.8230  177.5650  143.7710 C   0  0  0  0  0  0  0  0  0  0  0  0
  187.4470  177.5420  144.9710 C   0  0  0  0  0  0  0  0  0  0  0  0
  189.5050  176.8020  143.8430 C   0  0  0  0  0  0  0  0  0  0  0  0
  185.0590  179.6290  140.5660 N   0  0  0  0  0  0  0  0  0  0  0  0
  184.9870  178.4300  142.3340 C   0  0  0  0  0  0  0  0  0  0  0  0
  184.0900  178.6960  140.4790 C   0  0  0  0  0  0  0  0  0  0  0  0
  184.0430  177.9550  141.5580 O   0  0  0  0  0  0  0  0  0  0  0  0
  185.6310  179.4600  141.7480 N   0  0  0  0  0  0  0  0  0  0  0  0
  183.8610  178.0300  138.0640 N   0  0  0  0  0  0  0  0  0  0  0  0
  183.2010  178.4970  139.2810 C   0  0  1  0  0  3  0  0  0  0  0  0
  183.1720  177.1850  138.9210 O   0  0  0  0  0  0  0  0  0  0  0  0
  185.2790  177.7080  138.2190 C   0  0  0  0  0  2  0  0  0  0  0  0
  185.7870  177.0330  136.9630 C   0  0  0  0  0  1  0  0  0  0  0  0
  189.1950  177.0040  140.0570 C   0  0  0  0  0  2  0  0  0  0  0  0
  188.7570  178.2490  139.3480 C   0  0  0  0  0  3  0  0  0  0  0  0
  189.0390  178.4930  138.0640 C   0  0  0  0  0  3  0  0  0  0  0  0
  189.8320  177.5580  137.1980 C   0  0  0  0  0  2  0  0  0  0  0  0
  189.2840  177.5180  135.8080 C   0  0  0  0  0  3  0  0  0  0  0  0
  188.9300  176.4610  135.3090 O   0  0  0  0  0  0  0  0  0  0  0  0
  1 16  1  6  0  0  0
  1 15  1  0  0  0  0
  2 31  1  6  0  0  0
  2  1  1  0  0  0  0
  2  8  1  0  0  0  0
  4 22  1  6  0  0  0
  4 18  1  0  0  0  0
  4 14  1  0  0  0  0
  5 12  2  0  0  0  0
  7  3  1  0  0  0  0
  8 17  1  1  0  0  0
  8 20  1  0  0  0  0
  9  7  2  0  0  0  0
 11  3  1  0  0  0  0
 12  6  2  0  0  0  0
 13 10  1  6  0  0  0
 13  5  1  0  0  0  0
 14 10  1  6  0  0  0
 14 13  1  0  0  0  0
 15  9  1  0  0  0  0
 17 18  1  0  0  0  0
 18 19  2  0  0  0  0
 19 11  1  0  0  0  0
 19  5  1  0  0  0  0
 20  9  1  0  0  0  0
 20 11  2  0  0  0  0
 21 25  1  0  0  0  0
 23 21  2  0  0  0  0
 23 24  1  0  0  0  0
 24 22  1  0  0  0  0
 25 22  2  0  0  0  0
 26 29  1  0  0  0  0
 26 28  1  0  0  0  0
 26 27  1  0  0  0  0
 27 23  1  1  0  0  0
 28 27  1  0  0  0  0
 30 29  1  0  0  0  0
 32 31  1  0  0  0  0
 33 32  2  0  0  0  0
 34 33  1  0  0  0  0
 35 34  1  0  0  0  0
 36 35  2  0  0  0  0
M  END
>  <MODEL>
1

>  <REMARK>
 VINA RESULT:      -9.7      0.000      0.000
  Name = 
  7 active torsions:
  status: ('A' for Active; 'I' for Inactive)
    1  A    between atoms: C_3  and  C_6
    2  A    between atoms: C_4  and  C_29
    3  A    between atoms: C_11  and  C_23
    4  A    between atoms: C_12  and  C_22
    5  A    between atoms: N_16  and  C_28
    6  A    between atoms: C_23  and  C_36
    7  A    between atoms: C_29  and  C_33
                            x       y       z     vdW  Elec       q    Type
                         _______ _______ _______ _____ _____    ______ ____

>  <TORSDO>
F 7

$$$$
=
 OpenBabel11042411333D

 36 42  0  0  1  0  0  0  0  0999 V2000
  191.2210  176.9480  141.6540 C   0  0  2  0  0  3  0  0  0  0  0  0
  189.7260  177.3480  141.4870 C   0  0  2  0  0  3  0  0  0  0  0  0
  189.7720  177.7680  145.8840 N   0  0  0  0  0  2  0  0  0  0  0  0
  185.3170  177.8490  143.6570 C   0  0  2  0  0  3  0  0  0  0  0  0
  186.6590  177.9790  146.2070 C   0  0  0  0  0  0  0  0  0  0  0  0
  187.6610  177.6060  148.5170 O   0  0  0  0  0  0  0  0  0  0  0  0
  190.9740  177.6480  145.3240 N   0  0  0  0  0  0  0  0  0  0  0  0
  188.8400  176.6970  142.5740 C   0  0  2  0  0  3  0  0  0  0  0  0
  190.8020  177.0960  144.1080 C   0  0  0  0  0  0  0  0  0  0  0  0
  185.4130  179.8740  145.2210 C   0  0  0  0  0  2  0  0  0  0  0  0
  188.8540  177.2950  145.0120 C   0  0  0  0  0  0  0  0  0  0  0  0
  187.1730  177.7860  147.3940 C   0  0  0  0  0  0  0  0  0  0  0  0
  185.3230  178.6630  146.1390 C   0  0  1  0  0  3  0  0  0  0  0  0
  184.6250  178.6540  144.7780 C   0  0  2  0  0  3  0  0  0  0  0  0
  191.7050  177.2360  143.0110 N   0  0  0  0  0  2  0  0  0  0  0  0
  192.0920  177.6880  140.6560 C   0  0  0  0  0  1  0  0  0  0  0  0
  187.5230  177.2750  142.6030 O   0  0  0  0  0  0  0  0  0  0  0  0
  186.7980  177.5820  143.7830 C   0  0  0  0  0  0  0  0  0  0  0  0
  187.4090  177.5960  144.9880 C   0  0  0  0  0  0  0  0  0  0  0  0
  189.4870  176.8530  143.8990 C   0  0  0  0  0  0  0  0  0  0  0  0
  184.9920  179.5980  140.5450 N   0  0  0  0  0  0  0  0  0  0  0  0
  184.9660  178.3890  142.3070 C   0  0  0  0  0  0  0  0  0  0  0  0
  184.1430  178.5600  140.4070 C   0  0  0  0  0  0  0  0  0  0  0  0
  184.1240  177.8130  141.4830 O   0  0  0  0  0  0  0  0  0  0  0  0
  185.5160  179.4890  141.7550 N   0  0  0  0  0  0  0  0  0  0  0  0
  181.9070  178.5050  139.2550 N   0  0  0  0  0  0  0  0  0  0  0  0
  183.3460  178.2670  139.1640 C   0  0  1  0  0  3  0  0  0  0  0  0
  182.7870  179.4060  138.6750 O   0  0  0  0  0  0  0  0  0  0  0  0
  181.4620  179.1100  140.5090 C   0  0  0  0  0  2  0  0  0  0  0  0
  180.2540  178.3630  141.0350 C   0  0  0  0  0  1  0  0  0  0  0  0
  189.2130  176.9580  140.1060 C   0  0  0  0  0  2  0  0  0  0  0  0
  188.7310  178.1750  139.3770 C   0  0  0  0  0  3  0  0  0  0  0  0
  189.0040  178.4070  138.0890 C   0  0  0  0  0  3  0  0  0  0  0  0
  189.8270  177.4850  137.2380 C   0  0  0  0  0  2  0  0  0  0  0  0
  188.9790  176.7870  136.2250 C   0  0  0  0  0  3  0  0  0  0  0  0
  188.0640  176.0590  136.5740 O   0  0  0  0  0  0  0  0  0  0  0  0
  1 16  1  6  0  0  0
  1 15  1  0  0  0  0
  2 31  1  6  0  0  0
  2  1  1  0  0  0  0
  2  8  1  0  0  0  0
  4 22  1  6  0  0  0
  4 18  1  0  0  0  0
  4 14  1  0  0  0  0
  5 12  2  0  0  0  0
  7  3  1  0  0  0  0
  8 17  1  1  0  0  0
  8 20  1  0  0  0  0
  9  7  2  0  0  0  0
 11  3  1  0  0  0  0
 12  6  2  0  0  0  0
 13 10  1  6  0  0  0
 13  5  1  0  0  0  0
 14 10  1  6  0  0  0
 14 13  1  0  0  0  0
 15  9  1  0  0  0  0
 17 18  1  0  0  0  0
 18 19  2  0  0  0  0
 19 11  1  0  0  0  0
 19  5  1  0  0  0  0
 20  9  1  0  0  0  0
 20 11  2  0  0  0  0
 21 25  1  0  0  0  0
 23 21  2  0  0  0  0
 23 24  1  0  0  0  0
 24 22  1  0  0  0  0
 25 22  2  0  0  0  0
 26 29  1  0  0  0  0
 27 26  1  0  0  0  0
 27 23  1  1  0  0  0
 28 27  1  0  0  0  0
 28 26  1  0  0  0  0
 29 30  1  0  0  0  0
 32 31  1  0  0  0  0
 33 32  2  0  0  0  0
 34 33  1  0  0  0  0
 35 36  2  0  0  0  0
 35 34  1  0  0  0  0
M  END
>  <MODEL>
2

>  <REMARK>
 VINA RESULT:      -9.6      0.927      1.537
  Name = 
  7 active torsions:
  status: ('A' for Active; 'I' for Inactive)
    1  A    between atoms: C_3  and  C_6
    2  A    between atoms: C_4  and  C_29
    3  A    between atoms: C_11  and  C_23
    4  A    between atoms: C_12  and  C_22
    5  A    between atoms: N_16  and  C_28
    6  A    between atoms: C_23  and  C_36
    7  A    between atoms: C_29  and  C_33
                            x       y       z     vdW  Elec       q    Type
                         _______ _______ _______ _____ _____    ______ ____

>  <TORSDO>
F 7

$$$$
=
 OpenBabel11042411333D

 36 42  0  0  1  0  0  0  0  0999 V2000
  187.6230  177.8130  144.1430 C   0  0  2  0  0  3  0  0  0  0  0  0
  186.9570  177.9330  142.7410 C   0  0  2  0  0  3  0  0  0  0  0  0
  190.7570  176.2510  141.2440 N   0  0  0  0  0  2  0  0  0  0  0  0
  187.6290  178.1270  137.8510 C   0  0  2  0  0  3  0  0  0  0  0  0
  190.2000  176.8720  138.2210 C   0  0  0  0  0  0  0  0  0  0  0  0
  192.6560  176.2440  138.4500 O   0  0  0  0  0  0  0  0  0  0  0  0
  190.5960  176.1740  142.5640 N   0  0  0  0  0  0  0  0  0  0  0  0
  187.9520  178.4670  141.6850 C   0  0  2  0  0  3  0  0  0  0  0  0
  189.6650  177.0820  142.9130 C   0  0  0  0  0  0  0  0  0  0  0  0
  188.3120  175.7970  137.0380 C   0  0  0  0  0  2  0  0  0  0  0  0
  189.9210  177.2050  140.7750 C   0  0  0  0  0  0  0  0  0  0  0  0
  191.4620  176.5510  138.3380 C   0  0  0  0  0  0  0  0  0  0  0  0
  189.5570  176.6580  136.8790 C   0  0  1  0  0  3  0  0  0  0  0  0
  188.1670  177.2680  136.6880 C   0  0  2  0  0  3  0  0  0  0  0  0
  188.8540  177.0130  144.0850 N   0  0  0  0  0  2  0  0  0  0  0  0
  186.6710  177.1770  145.1400 C   0  0  0  0  0  1  0  0  0  0  0  0
  187.4400  178.3160  140.3490 O   0  0  0  0  0  0  0  0  0  0  0  0
  188.2060  177.9020  139.2290 C   0  0  0  0  0  0  0  0  0  0  0  0
  189.4330  177.3580  139.3910 C   0  0  0  0  0  0  0  0  0  0  0  0
  189.2430  177.7480  141.8130 C   0  0  0  0  0  0  0  0  0  0  0  0
  184.1210  178.6880  138.3310 N   0  0  0  0  0  0  0  0  0  0  0  0
  186.1330  178.1320  137.8740 C   0  0  0  0  0  0  0  0  0  0  0  0
  184.1550  177.7270  137.3860 C   0  0  0  0  0  0  0  0  0  0  0  0
  185.3860  177.3840  137.0980 O   0  0  0  0  0  0  0  0  0  0  0  0
  185.3820  178.9460  138.6420 N   0  0  0  0  0  0  0  0  0  0  0  0
  182.3270  175.9980  137.3750 N   0  0  0  0  0  0  0  0  0  0  0  0
  182.9400  177.1480  136.7120 C   0  0  1  0  0  3  0  0  0  0  0  0
  181.8410  177.2910  137.5020 O   0  0  0  0  0  0  0  0  0  0  0  0
  182.9160  175.6480  138.6660 C   0  0  0  0  0  2  0  0  0  0  0  0
  181.8920  175.8520  139.7630 C   0  0  0  0  0  1  0  0  0  0  0  0
  185.7350  178.8420  142.7990 C   0  0  0  0  0  2  0  0  0  0  0  0
  184.5750  178.1830  142.1190 C   0  0  0  0  0  3  0  0  0  0  0  0
  183.3030  178.4250  142.4510 C   0  0  0  0  0  3  0  0  0  0  0  0
  182.8980  179.3690  143.5450 C   0  0  0  0  0  2  0  0  0  0  0  0
  182.9860  178.7110  144.8840 C   0  0  0  0  0  3  0  0  0  0  0  0
  183.7580  179.1270  145.7330 O   0  0  0  0  0  0  0  0  0  0  0  0
  1 16  1  1  0  0  0
  2 31  1  1  0  0  0
  2  1  1  0  0  0  0
  3  7  1  0  0  0  0
  4 22  1  1  0  0  0
  4 18  1  0  0  0  0
  5 12  2  0  0  0  0
  5 19  1  0  0  0  0
  7  9  2  0  0  0  0
  8 17  1  6  0  0  0
  8 20  1  0  0  0  0
  8  2  1  0  0  0  0
  9 15  1  0  0  0  0
 11  3  1  0  0  0  0
 11 20  2  0  0  0  0
 12  6  2  0  0  0  0
 13 10  1  1  0  0  0
 13  5  1  0  0  0  0
 14 13  1  0  0  0  0
 14 10  1  1  0  0  0
 14  4  1  0  0  0  0
 15  1  1  0  0  0  0
 18 19  2  0  0  0  0
 18 17  1  0  0  0  0
 19 11  1  0  0  0  0
 20  9  1  0  0  0  0
 21 25  1  0  0  0  0
 22 25  2  0  0  0  0
 23 21  2  0  0  0  0
 24 23  1  0  0  0  0
 24 22  1  0  0  0  0
 26 28  1  0  0  0  0
 26 29  1  0  0  0  0
 27 26  1  0  0  0  0
 27 23  1  1  0  0  0
 27 28  1  0  0  0  0
 29 30  1  0  0  0  0
 32 33  2  0  0  0  0
 32 31  1  0  0  0  0
 33 34  1  0  0  0  0
 34 35  1  0  0  0  0
 35 36  2  0  0  0  0
M  END
>  <MODEL>
3

>  <REMARK>
 VINA RESULT:      -8.2      2.058      6.288
  Name = 
  7 active torsions:
  status: ('A' for Active; 'I' for Inactive)
    1  A    between atoms: C_3  and  C_6
    2  A    between atoms: C_4  and  C_29
    3  A    between atoms: C_11  and  C_23
    4  A    between atoms: C_12  and  C_22
    5  A    between atoms: N_16  and  C_28
    6  A    between atoms: C_23  and  C_36
    7  A    between atoms: C_29  and  C_33
                            x       y       z     vdW  Elec       q    Type
                         _______ _______ _______ _____ _____    ______ ____

>  <TORSDO>
F 7

$$$$
=
 OpenBabel11042411333D

 36 42  0  0  1  0  0  0  0  0999 V2000
  188.2200  177.8530  143.7020 C   0  0  2  0  0  3  0  0  0  0  0  0
  187.2160  177.9910  142.5210 C   0  0  2  0  0  3  0  0  0  0  0  0
  190.5080  176.3560  140.0710 N   0  0  0  0  0  2  0  0  0  0  0  0
  186.6100  178.2630  137.6260 C   0  0  2  0  0  3  0  0  0  0  0  0
  189.1920  177.0190  137.3030 C   0  0  0  0  0  0  0  0  0  0  0  0
  191.6260  176.4040  136.8840 O   0  0  0  0  0  0  0  0  0  0  0  0
  190.6920  176.2580  141.3860 N   0  0  0  0  0  0  0  0  0  0  0  0
  187.9050  178.5470  141.2540 C   0  0  2  0  0  3  0  0  0  0  0  0
  189.8800  177.1550  141.9780 C   0  0  0  0  0  0  0  0  0  0  0  0
  187.0660  175.9500  136.6260 C   0  0  0  0  0  2  0  0  0  0  0  0
  189.5780  177.3110  139.8480 C   0  0  0  0  0  0  0  0  0  0  0  0
  190.4420  176.7050  137.0860 C   0  0  0  0  0  0  0  0  0  0  0  0
  188.2270  176.8220  136.1680 C   0  0  1  0  0  3  0  0  0  0  0  0
  186.8330  177.4260  136.3500 C   0  0  2  0  0  3  0  0  0  0  0  0
  189.3970  177.0620  143.3170 N   0  0  0  0  0  2  0  0  0  0  0  0
  187.5580  177.1960  144.8990 C   0  0  0  0  0  1  0  0  0  0  0  0
  187.0670  178.4130  140.0910 O   0  0  0  0  0  0  0  0  0  0  0  0
  187.5220  178.0210  138.8050 C   0  0  0  0  0  0  0  0  0  0  0  0
  188.7500  177.4830  138.6380 C   0  0  0  0  0  0  0  0  0  0  0  0
  189.1870  177.8340  141.0340 C   0  0  0  0  0  0  0  0  0  0  0  0
  183.1900  177.5700  138.4490 N   0  0  0  0  0  0  0  0  0  0  0  0
  185.1700  178.2590  138.0320 C   0  0  0  0  0  0  0  0  0  0  0  0
  183.3470  178.8530  138.8310 C   0  0  0  0  0  0  0  0  0  0  0  0
  184.5590  179.2810  138.5820 O   0  0  0  0  0  0  0  0  0  0  0  0
  184.3510  177.1910  137.9390 N   0  0  0  0  0  0  0  0  0  0  0  0
  181.2800  180.2720  138.6140 N   0  0  0  0  0  0  0  0  0  0  0  0
  182.2830  179.6820  139.4990 C   0  0  1  0  0  3  0  0  0  0  0  0
  181.0590  179.1090  139.3380 O   0  0  0  0  0  0  0  0  0  0  0  0
  181.3880  179.8710  137.2120 C   0  0  0  0  0  2  0  0  0  0  0  0
  180.7270  180.9130  136.3340 C   0  0  0  0  0  1  0  0  0  0  0  0
  186.0480  178.8910  142.9060 C   0  0  0  0  0  2  0  0  0  0  0  0
  184.7590  178.2730  142.4590 C   0  0  0  0  0  3  0  0  0  0  0  0
  183.5860  178.5290  143.0480 C   0  0  0  0  0  3  0  0  0  0  0  0
  183.4340  179.4500  144.2230 C   0  0  0  0  0  2  0  0  0  0  0  0
  183.7860  178.7550  145.4990 C   0  0  0  0  0  3  0  0  0  0  0  0
  184.6900  179.1730  146.2060 O   0  0  0  0  0  0  0  0  0  0  0  0
  1 16  1  1  0  0  0
  2 31  1  1  0  0  0
  2  1  1  0  0  0  0
  3  7  1  0  0  0  0
  4 22  1  1  0  0  0
  4 18  1  0  0  0  0
  5 19  1  0  0  0  0
  6 12  2  0  0  0  0
  7  9  2  0  0  0  0
  8 17  1  6  0  0  0
  8  2  1  0  0  0  0
  9 15  1  0  0  0  0
 11  3  1  0  0  0  0
 11 20  2  0  0  0  0
 12  5  2  0  0  0  0
 13 14  1  0  0  0  0
 13 10  1  1  0  0  0
 13  5  1  0  0  0  0
 14 10  1  1  0  0  0
 14  4  1  0  0  0  0
 15  1  1  0  0  0  0
 18 17  1  0  0  0  0
 19 18  2  0  0  0  0
 19 11  1  0  0  0  0
 20  8  1  0  0  0  0
 20  9  1  0  0  0  0
 21 23  2  0  0  0  0
 22 24  1  0  0  0  0
 24 23  1  0  0  0  0
 25 22  2  0  0  0  0
 25 21  1  0  0  0  0
 26 28  1  0  0  0  0
 26 27  1  0  0  0  0
 27 23  1  6  0  0  0
 28 27  1  0  0  0  0
 29 26  1  0  0  0  0
 30 29  1  0  0  0  0
 32 31  1  0  0  0  0
 32 33  2  0  0  0  0
 33 34  1  0  0  0  0
 34 35  1  0  0  0  0
 35 36  2  0  0  0  0
M  END
>  <MODEL>
4

>  <REMARK>
 VINA RESULT:      -8.0      2.088      6.523
  Name = 
  7 active torsions:
  status: ('A' for Active; 'I' for Inactive)
    1  A    between atoms: C_3  and  C_6
    2  A    between atoms: C_4  and  C_29
    3  A    between atoms: C_11  and  C_23
    4  A    between atoms: C_12  and  C_22
    5  A    between atoms: N_16  and  C_28
    6  A    between atoms: C_23  and  C_36
    7  A    between atoms: C_29  and  C_33
                            x       y       z     vdW  Elec       q    Type
                         _______ _______ _______ _____ _____    ______ ____

>  <TORSDO>
F 7

$$$$
=
 OpenBabel11042411333D

 36 42  0  0  1  0  0  0  0  0999 V2000
  183.2640  179.0020  141.4350 C   0  0  2  0  0  3  0  0  0  0  0  0
  184.6440  178.6390  140.8120 C   0  0  2  0  0  3  0  0  0  0  0  0
  185.8160  177.7160  144.9710 N   0  0  0  0  0  2  0  0  0  0  0  0
  189.4710  177.9370  141.5920 C   0  0  2  0  0  3  0  0  0  0  0  0
  188.8900  177.5020  144.3840 C   0  0  0  0  0  0  0  0  0  0  0  0
  188.5800  177.5970  146.9090 O   0  0  0  0  0  0  0  0  0  0  0  0
  184.5090  177.8880  144.7860 N   0  0  0  0  0  0  0  0  0  0  0  0
  185.8110  179.1700  141.6750 C   0  0  2  0  0  3  0  0  0  0  0  0
  184.3470  178.5770  143.6410 C   0  0  0  0  0  0  0  0  0  0  0  0
  189.7700  175.7450  142.8810 C   0  0  0  0  0  2  0  0  0  0  0  0
  186.4650  178.2960  143.9350 C   0  0  0  0  0  0  0  0  0  0  0  0
  188.7320  177.5520  145.6810 C   0  0  0  0  0  0  0  0  0  0  0  0
  190.1380  176.8440  143.8680 C   0  0  1  0  0  3  0  0  0  0  0  0
  190.4290  177.0170  142.3760 C   0  0  2  0  0  3  0  0  0  0  0  0
  183.1710  178.5550  142.8320 N   0  0  0  0  0  2  0  0  0  0  0  0
  182.1330  178.3720  140.6430 C   0  0  0  0  0  1  0  0  0  0  0  0
  187.0710  178.6060  141.2690 O   0  0  0  0  0  0  0  0  0  0  0  0
  188.0900  178.1730  142.1560 C   0  0  0  0  0  0  0  0  0  0  0  0
  187.8390  178.0140  143.4750 C   0  0  0  0  0  0  0  0  0  0  0  0
  185.5560  178.8560  143.1020 C   0  0  0  0  0  0  0  0  0  0  0  0
  189.1940  177.7060  138.0250 N   0  0  0  0  0  0  0  0  0  0  0  0
  189.4190  177.5590  140.1450 C   0  0  0  0  0  0  0  0  0  0  0  0
  189.6440  176.4870  138.3810 C   0  0  0  0  0  0  0  0  0  0  0  0
  189.7880  176.3910  139.6790 O   0  0  0  0  0  0  0  0  0  0  0  0
  189.0500  178.3900  139.1500 N   0  0  0  0  0  0  0  0  0  0  0  0
  191.3720  175.3300  136.9630 N   0  0  0  0  0  0  0  0  0  0  0  0
  189.9820  175.3850  137.4130 C   0  0  1  0  0  3  0  0  0  0  0  0
  190.8700  174.5160  137.9680 O   0  0  0  0  0  0  0  0  0  0  0  0
  192.2650  176.2870  137.6150 C   0  0  0  0  0  2  0  0  0  0  0  0
  193.5780  175.6100  137.9490 C   0  0  0  0  0  1  0  0  0  0  0  0
  184.7600  179.1900  139.3970 C   0  0  0  0  0  2  0  0  0  0  0  0
  185.5140  178.2260  138.5330 C   0  0  0  0  0  3  0  0  0  0  0  0
  184.9250  177.4720  137.5990 C   0  0  0  0  0  3  0  0  0  0  0  0
  183.4510  177.4990  137.3210 C   0  0  0  0  0  2  0  0  0  0  0  0
  182.8050  176.2110  137.7190 C   0  0  0  0  0  3  0  0  0  0  0  0
  183.4310  175.3680  138.3430 O   0  0  0  0  0  0  0  0  0  0  0  0
  1 16  1  6  0  0  0
  1 15  1  0  0  0  0
  2 31  1  6  0  0  0
  2  1  1  0  0  0  0
  2  8  1  0  0  0  0
  4 22  1  6  0  0  0
  4 18  1  0  0  0  0
  4 14  1  0  0  0  0
  5 12  2  0  0  0  0
  7  3  1  0  0  0  0
  8 17  1  6  0  0  0
  8 20  1  0  0  0  0
  9  7  2  0  0  0  0
 11  3  1  0  0  0  0
 12  6  2  0  0  0  0
 13 10  1  6  0  0  0
 13  5  1  0  0  0  0
 14 10  1  6  0  0  0
 14 13  1  0  0  0  0
 15  9  1  0  0  0  0
 17 18  1  0  0  0  0
 18 19  2  0  0  0  0
 19 11  1  0  0  0  0
 19  5  1  0  0  0  0
 20  9  1  0  0  0  0
 20 11  2  0  0  0  0
 21 23  2  0  0  0  0
 21 25  1  0  0  0  0
 23 24  1  0  0  0  0
 24 22  1  0  0  0  0
 25 22  2  0  0  0  0
 26 27  1  0  0  0  0
 26 29  1  0  0  0  0
 26 28  1  0  0  0  0
 27 28  1  0  0  0  0
 27 23  1  1  0  0  0
 29 30  1  0  0  0  0
 32 31  1  0  0  0  0
 33 32  2  0  0  0  0
 34 33  1  0  0  0  0
 34 35  1  0  0  0  0
 35 36  2  0  0  0  0
M  END
>  <MODEL>
5

>  <REMARK>
 VINA RESULT:      -7.8      2.490      5.825
  Name = 
  7 active torsions:
  status: ('A' for Active; 'I' for Inactive)
    1  A    between atoms: C_3  and  C_6
    2  A    between atoms: C_4  and  C_29
    3  A    between atoms: C_11  and  C_23
    4  A    between atoms: C_12  and  C_22
    5  A    between atoms: N_16  and  C_28
    6  A    between atoms: C_23  and  C_36
    7  A    between atoms: C_29  and  C_33
                            x       y       z     vdW  Elec       q    Type
                         _______ _______ _______ _____ _____    ______ ____

>  <TORSDO>
F 7

$$$$
=
 OpenBabel11042411333D

 36 42  0  0  1  0  0  0  0  0999 V2000
  189.8550  177.2410  142.3160 C   0  0  2  0  0  3  0  0  0  0  0  0
  188.4820  177.5930  141.6730 C   0  0  2  0  0  3  0  0  0  0  0  0
  190.2370  175.8960  137.9910 N   0  0  0  0  0  2  0  0  0  0  0  0
  185.9640  178.4100  137.5030 C   0  0  2  0  0  3  0  0  0  0  0  0
  188.0000  176.9580  136.0660 C   0  0  0  0  0  0  0  0  0  0  0  0
  189.9450  176.1510  134.6360 O   0  0  0  0  0  0  0  0  0  0  0  0
  190.9290  175.6500  139.1020 N   0  0  0  0  0  0  0  0  0  0  0  0
  188.6570  178.2030  140.2630 C   0  0  2  0  0  3  0  0  0  0  0  0
  190.5550  176.5590  140.0230 C   0  0  0  0  0  0  0  0  0  0  0  0
  185.6640  176.1750  136.2900 C   0  0  0  0  0  2  0  0  0  0  0  0
  189.4300  176.9550  138.2260 C   0  0  0  0  0  0  0  0  0  0  0  0
  188.9990  176.5450  135.3300 C   0  0  0  0  0  0  0  0  0  0  0  0
  186.6380  176.9700  135.4310 C   0  0  1  0  0  3  0  0  0  0  0  0
  185.5330  177.6860  136.2100 C   0  0  2  0  0  3  0  0  0  0  0  0
  190.6560  176.3810  141.4350 N   0  0  0  0  0  2  0  0  0  0  0  0
  189.6620  176.5360  143.6470 C   0  0  0  0  0  1  0  0  0  0  0  0
  187.4070  178.2680  139.5540 O   0  0  0  0  0  0  0  0  0  0  0  0
  187.2390  177.9640  138.1780 C   0  0  0  0  0  0  0  0  0  0  0  0
  188.2090  177.3270  137.4850 C   0  0  0  0  0  0  0  0  0  0  0  0
  189.6320  177.3930  139.4920 C   0  0  0  0  0  0  0  0  0  0  0  0
  183.3840  179.3250  139.8180 N   0  0  0  0  0  0  0  0  0  0  0  0
  184.8300  178.5060  138.4740 C   0  0  0  0  0  0  0  0  0  0  0  0
  183.1580  178.0140  139.6040 C   0  0  0  0  0  0  0  0  0  0  0  0
  184.0380  177.5060  138.7770 O   0  0  0  0  0  0  0  0  0  0  0  0
  184.4500  179.6390  139.0980 N   0  0  0  0  0  0  0  0  0  0  0  0
  180.8240  177.1030  139.3640 N   0  0  0  0  0  0  0  0  0  0  0  0
  182.0160  177.2360  140.2000 C   0  0  1  0  0  3  0  0  0  0  0  0
  181.7800  176.1050  139.4800 O   0  0  0  0  0  0  0  0  0  0  0  0
  180.9590  177.6480  138.0140 C   0  0  0  0  0  2  0  0  0  0  0  0
  179.9500  178.7590  137.8110 C   0  0  0  0  0  1  0  0  0  0  0  0
  187.7030  178.5610  142.5560 C   0  0  0  0  0  2  0  0  0  0  0  0
  186.3190  178.0380  142.7880 C   0  0  0  0  0  3  0  0  0  0  0  0
  185.7950  177.8820  144.0090 C   0  0  0  0  0  3  0  0  0  0  0  0
  186.5360  178.1990  145.2740 C   0  0  0  0  0  2  0  0  0  0  0  0
  185.6860  178.9960  146.2110 C   0  0  0  0  0  3  0  0  0  0  0  0
  184.5580  178.6240  146.4960 O   0  0  0  0  0  0  0  0  0  0  0  0
  1 16  1  1  0  0  0
  2  1  1  0  0  0  0
  2 31  1  1  0  0  0
  3 11  1  0  0  0  0
  3  7  1  0  0  0  0
  4 18  1  0  0  0  0
  4 22  1  1  0  0  0
  5 19  1  0  0  0  0
  6 12  2  0  0  0  0
  7  9  2  0  0  0  0
  8 20  1  6  0  0  0
  8  2  1  0  0  0  0
  9 15  1  0  0  0  0
 11 20  2  0  0  0  0
 12  5  2  0  0  0  0
 13  5  1  0  0  0  0
 13 14  1  0  0  0  0
 13 10  1  1  0  0  0
 14 10  1  1  0  0  0
 14  4  1  0  0  0  0
 15  1  1  0  0  0  0
 17  8  1  0  0  0  0
 18 17  1  0  0  0  0
 19 18  2  0  0  0  0
 19 11  1  0  0  0  0
 20  9  1  0  0  0  0
 22 24  1  0  0  0  0
 22 25  2  0  0  0  0
 23 21  2  0  0  0  0
 24 23  1  0  0  0  0
 25 21  1  0  0  0  0
 26 28  1  0  0  0  0
 26 27  1  0  0  0  0
 27 23  1  6  0  0  0
 28 27  1  0  0  0  0
 29 26  1  0  0  0  0
 30 29  1  0  0  0  0
 31 32  1  0  0  0  0
 32 33  2  0  0  0  0
 33 34  1  0  0  0  0
 34 35  1  0  0  0  0
 35 36  2  0  0  0  0
M  END
>  <MODEL>
6

>  <REMARK>
 VINA RESULT:      -7.7      2.072      6.743
  Name = 
  7 active torsions:
  status: ('A' for Active; 'I' for Inactive)
    1  A    between atoms: C_3  and  C_6
    2  A    between atoms: C_4  and  C_29
    3  A    between atoms: C_11  and  C_23
    4  A    between atoms: C_12  and  C_22
    5  A    between atoms: N_16  and  C_28
    6  A    between atoms: C_23  and  C_36
    7  A    between atoms: C_29  and  C_33
                            x       y       z     vdW  Elec       q    Type
                         _______ _______ _______ _____ _____    ______ ____

>  <TORSDO>
F 7

$$$$
=
 OpenBabel11042411333D

 36 42  0  0  1  0  0  0  0  0999 V2000
  187.6270  177.8150  144.3750 C   0  0  2  0  0  3  0  0  0  0  0  0
  186.8120  177.9580  143.0570 C   0  0  2  0  0  3  0  0  0  0  0  0
  190.4540  176.3800  141.1170 N   0  0  0  0  0  2  0  0  0  0  0  0
  186.9520  178.2830  138.1300 C   0  0  2  0  0  3  0  0  0  0  0  0
  189.5660  177.0650  138.1880 C   0  0  0  0  0  0  0  0  0  0  0  0
  192.0410  176.4740  138.1370 O   0  0  0  0  0  0  0  0  0  0  0  0
  190.4370  176.2670  142.4440 N   0  0  0  0  0  0  0  0  0  0  0  0
  187.6790  178.5340  141.9150 C   0  0  2  0  0  3  0  0  0  0  0  0
  189.5360  177.1500  142.9150 C   0  0  0  0  0  0  0  0  0  0  0  0
  187.5770  175.9860  137.1870 C   0  0  0  0  0  2  0  0  0  0  0  0
  189.5590  177.3300  140.7660 C   0  0  0  0  0  0  0  0  0  0  0  0
  190.8370  176.7630  138.1610 C   0  0  0  0  0  0  0  0  0  0  0  0
  188.7860  176.8730  136.9190 C   0  0  1  0  0  3  0  0  0  0  0  0
  187.3750  177.4630  136.8940 C   0  0  2  0  0  3  0  0  0  0  0  0
  188.8570  177.0380  144.1650 N   0  0  0  0  0  2  0  0  0  0  0  0
  186.7980  177.1380  145.4510 C   0  0  0  0  0  1  0  0  0  0  0  0
  187.0290  178.4070  140.6370 O   0  0  0  0  0  0  0  0  0  0  0  0
  187.6770  178.0350  139.4310 C   0  0  0  0  0  0  0  0  0  0  0  0
  188.9220  177.5090  139.4460 C   0  0  0  0  0  0  0  0  0  0  0  0
  188.9870  177.8350  141.8850 C   0  0  0  0  0  0  0  0  0  0  0  0
  183.4690  177.5380  138.5360 N   0  0  0  0  0  0  0  0  0  0  0  0
  185.4670  178.2620  138.3120 C   0  0  0  0  0  0  0  0  0  0  0  0
  183.5240  178.8710  138.7260 C   0  0  0  0  0  0  0  0  0  0  0  0
  184.7470  179.3210  138.5930 O   0  0  0  0  0  0  0  0  0  0  0  0
  184.7060  177.1490  138.2730 N   0  0  0  0  0  0  0  0  0  0  0  0
  181.3400  179.9130  138.0390 N   0  0  0  0  0  0  0  0  0  0  0  0
  182.3440  179.7330  139.0860 C   0  0  1  0  0  3  0  0  0  0  0  0
  181.1970  179.0020  139.0750 O   0  0  0  0  0  0  0  0  0  0  0  0
  181.5690  179.1290  136.8270 C   0  0  0  0  0  2  0  0  0  0  0  0
  180.8170  179.7510  135.6690 C   0  0  0  0  0  1  0  0  0  0  0  0
  185.5910  178.8430  143.2690 C   0  0  0  0  0  2  0  0  0  0  0  0
  184.5550  178.5430  142.2290 C   0  0  0  0  0  3  0  0  0  0  0  0
  183.2410  178.6190  142.4670 C   0  0  0  0  0  3  0  0  0  0  0  0
  182.6620  179.0000  143.7980 C   0  0  0  0  0  2  0  0  0  0  0  0
  181.1680  178.9920  143.7560 C   0  0  0  0  0  3  0  0  0  0  0  0
  180.5660  179.5820  142.8720 O   0  0  0  0  0  0  0  0  0  0  0  0
  1 16  1  1  0  0  0
  2 31  1  1  0  0  0
  2  1  1  0  0  0  0
  3  7  1  0  0  0  0
  4 22  1  1  0  0  0
  4 18  1  0  0  0  0
  5 19  1  0  0  0  0
  6 12  2  0  0  0  0
  7  9  2  0  0  0  0
  8 17  1  6  0  0  0
  8  2  1  0  0  0  0
  9 15  1  0  0  0  0
 11  3  1  0  0  0  0
 11 20  2  0  0  0  0
 12  5  2  0  0  0  0
 13 10  1  1  0  0  0
 13  5  1  0  0  0  0
 14 13  1  0  0  0  0
 14 10  1  1  0  0  0
 14  4  1  0  0  0  0
 15  1  1  0  0  0  0
 18 19  2  0  0  0  0
 18 17  1  0  0  0  0
 19 11  1  0  0  0  0
 20  8  1  0  0  0  0
 20  9  1  0  0  0  0
 21 23  2  0  0  0  0
 22 24  1  0  0  0  0
 24 23  1  0  0  0  0
 25 22  2  0  0  0  0
 25 21  1  0  0  0  0
 26 28  1  0  0  0  0
 26 27  1  0  0  0  0
 27 23  1  6  0  0  0
 28 27  1  0  0  0  0
 29 26  1  0  0  0  0
 30 29  1  0  0  0  0
 32 33  2  0  0  0  0
 32 31  1  0  0  0  0
 33 34  1  0  0  0  0
 35 34  1  0  0  0  0
 36 35  2  0  0  0  0
M  END
>  <MODEL>
7

>  <REMARK>
 VINA RESULT:      -7.6      2.348      6.255
  Name = 
  7 active torsions:
  status: ('A' for Active; 'I' for Inactive)
    1  A    between atoms: C_3  and  C_6
    2  A    between atoms: C_4  and  C_29
    3  A    between atoms: C_11  and  C_23
    4  A    between atoms: C_12  and  C_22
    5  A    between atoms: N_16  and  C_28
    6  A    between atoms: C_23  and  C_36
    7  A    between atoms: C_29  and  C_33
                            x       y       z     vdW  Elec       q    Type
                         _______ _______ _______ _____ _____    ______ ____

>  <TORSDO>
F 7

$$$$
=
 OpenBabel11042411333D

 36 42  0  0  1  0  0  0  0  0999 V2000
  183.1960  179.0860  142.1310 C   0  0  2  0  0  3  0  0  0  0  0  0
  184.5140  178.7550  141.3710 C   0  0  2  0  0  3  0  0  0  0  0  0
  186.0560  177.6590  145.3630 N   0  0  0  0  0  2  0  0  0  0  0  0
  189.3910  178.0380  141.6820 C   0  0  2  0  0  3  0  0  0  0  0  0
  189.0640  177.4810  144.4930 C   0  0  0  0  0  0  0  0  0  0  0  0
  188.9830  177.4660  147.0370 O   0  0  0  0  0  0  0  0  0  0  0  0
  184.7370  177.8330  145.3050 N   0  0  0  0  0  0  0  0  0  0  0  0
  185.7540  179.2530  142.1470 C   0  0  2  0  0  3  0  0  0  0  0  0
  184.4730  178.5710  144.2090 C   0  0  0  0  0  0  0  0  0  0  0  0
  189.8040  175.7930  142.8430 C   0  0  0  0  0  2  0  0  0  0  0  0
  186.6090  178.2850  144.3000 C   0  0  0  0  0  0  0  0  0  0  0  0
  189.0240  177.4740  145.8000 C   0  0  0  0  0  0  0  0  0  0  0  0
  190.2610  176.8500  143.8390 C   0  0  1  0  0  3  0  0  0  0  0  0
  190.4160  177.0880  142.3360 C   0  0  2  0  0  3  0  0  0  0  0  0
  183.2290  178.5800  143.5100 N   0  0  0  0  0  2  0  0  0  0  0  0
  181.9970  178.4880  141.4170 C   0  0  0  0  0  1  0  0  0  0  0  0
  186.9720  178.7120  141.6050 O   0  0  0  0  0  0  0  0  0  0  0  0
  188.0670  178.2440  142.3780 C   0  0  0  0  0  0  0  0  0  0  0  0
  187.9350  178.0280  143.7060 C   0  0  0  0  0  0  0  0  0  0  0  0
  185.6290  178.8770  143.5760 C   0  0  0  0  0  0  0  0  0  0  0  0
  188.7680  177.9530  138.1530 N   0  0  0  0  0  0  0  0  0  0  0  0
  189.2090  177.7220  140.2310 C   0  0  0  0  0  0  0  0  0  0  0  0
  189.2960  176.7390  138.4030 C   0  0  0  0  0  0  0  0  0  0  0  0
  189.5710  176.5910  139.6750 O   0  0  0  0  0  0  0  0  0  0  0  0
  188.7130  178.5810  139.3170 N   0  0  0  0  0  0  0  0  0  0  0  0
  188.4040  175.0270  136.7890 N   0  0  0  0  0  0  0  0  0  0  0  0
  189.5740  175.6950  137.3550 C   0  0  1  0  0  3  0  0  0  0  0  0
  189.0570  176.0730  136.1550 O   0  0  0  0  0  0  0  0  0  0  0  0
  187.1180  175.5560  137.2400 C   0  0  0  0  0  2  0  0  0  0  0  0
  186.0190  174.5640  136.9170 C   0  0  0  0  0  1  0  0  0  0  0  0
  184.5020  179.3680  139.9760 C   0  0  0  0  0  2  0  0  0  0  0  0
  185.1170  178.4170  138.9960 C   0  0  0  0  0  3  0  0  0  0  0  0
  184.4070  177.7690  138.0660 C   0  0  0  0  0  3  0  0  0  0  0  0
  182.9210  177.9130  137.9100 C   0  0  0  0  0  2  0  0  0  0  0  0
  182.2200  176.6340  138.2350 C   0  0  0  0  0  3  0  0  0  0  0  0
  182.6810  175.8640  139.0630 O   0  0  0  0  0  0  0  0  0  0  0  0
  1 16  1  6  0  0  0
  1 15  1  0  0  0  0
  2 31  1  6  0  0  0
  2  1  1  0  0  0  0
  2  8  1  0  0  0  0
  4 22  1  6  0  0  0
  4 14  1  0  0  0  0
  4 18  1  0  0  0  0
  5 12  2  0  0  0  0
  7  3  1  0  0  0  0
  8 17  1  6  0  0  0
  8 20  1  0  0  0  0
  9  7  2  0  0  0  0
 11  3  1  0  0  0  0
 12  6  2  0  0  0  0
 13 10  1  6  0  0  0
 13  5  1  0  0  0  0
 14 10  1  6  0  0  0
 14 13  1  0  0  0  0
 15  9  1  0  0  0  0
 17 18  1  0  0  0  0
 18 19  2  0  0  0  0
 19 11  1  0  0  0  0
 19  5  1  0  0  0  0
 20  9  1  0  0  0  0
 20 11  2  0  0  0  0
 21 23  2  0  0  0  0
 21 25  1  0  0  0  0
 23 24  1  0  0  0  0
 24 22  1  0  0  0  0
 25 22  2  0  0  0  0
 26 29  1  0  0  0  0
 26 27  1  0  0  0  0
 27 23  1  1  0  0  0
 28 26  1  0  0  0  0
 28 27  1  0  0  0  0
 30 29  1  0  0  0  0
 32 31  1  0  0  0  0
 33 32  2  0  0  0  0
 34 33  1  0  0  0  0
 34 35  1  0  0  0  0
 35 36  2  0  0  0  0
M  END
>  <MODEL>
8

>  <REMARK>
 VINA RESULT:      -7.5      2.264      5.461
  Name = 
  7 active torsions:
  status: ('A' for Active; 'I' for Inactive)
    1  A    between atoms: C_3  and  C_6
    2  A    between atoms: C_4  and  C_29
    3  A    between atoms: C_11  and  C_23
    4  A    between atoms: C_12  and  C_22
    5  A    between atoms: N_16  and  C_28
    6  A    between atoms: C_23  and  C_36
    7  A    between atoms: C_29  and  C_33
                            x       y       z     vdW  Elec       q    Type
                         _______ _______ _______ _____ _____    ______ ____

>  <TORSDO>
F 7

$$$$
=
 OpenBabel11042411333D

 36 42  0  0  1  0  0  0  0  0999 V2000
  189.0090  175.4780  136.3930 C   0  0  2  0  0  3  0  0  0  0  0  0
  189.1280  175.8650  137.8960 C   0  0  2  0  0  3  0  0  0  0  0  0
  185.0630  177.5120  137.3700 N   0  0  0  0  0  2  0  0  0  0  0  0
  187.4550  178.7070  141.5730 C   0  0  2  0  0  3  0  0  0  0  0  0
  185.0110  179.0800  140.0860 C   0  0  0  0  0  0  0  0  0  0  0  0
  183.0480  179.8860  138.6810 O   0  0  0  0  0  0  0  0  0  0  0  0
  185.4840  176.7390  136.3700 N   0  0  0  0  0  0  0  0  0  0  0  0
  188.5700  177.2820  138.1610 C   0  0  2  0  0  3  0  0  0  0  0  0
  186.8280  176.6850  136.4370 C   0  0  0  0  0  0  0  0  0  0  0  0
  185.1280  177.8740  142.2430 C   0  0  0  0  0  2  0  0  0  0  0  0
  186.1470  177.9330  138.0600 C   0  0  0  0  0  0  0  0  0  0  0  0
  184.0040  179.4950  139.3650 C   0  0  0  0  0  0  0  0  0  0  0  0
  184.8950  179.2230  141.5770 C   0  0  1  0  0  3  0  0  0  0  0  0
  186.1690  178.9700  142.3850 C   0  0  2  0  0  3  0  0  0  0  0  0
  187.6310  175.6310  135.9070 N   0  0  0  0  0  2  0  0  0  0  0  0
  189.4500  174.0430  136.1700 C   0  0  0  0  0  1  0  0  0  0  0  0
  188.4150  177.5380  139.5690 O   0  0  0  0  0  0  0  0  0  0  0  0
  187.3120  178.2100  140.1540 C   0  0  0  0  0  0  0  0  0  0  0  0
  186.1810  178.4330  139.4480 C   0  0  0  0  0  0  0  0  0  0  0  0
  187.2630  177.4360  137.4760 C   0  0  0  0  0  0  0  0  0  0  0  0
  189.3530  176.1980  143.2920 N   0  0  0  0  0  0  0  0  0  0  0  0
  188.4280  177.8800  142.3530 C   0  0  0  0  0  0  0  0  0  0  0  0
  190.1480  177.2850  143.3540 C   0  0  0  0  0  0  0  0  0  0  0  0
  189.5880  178.3190  142.7770 O   0  0  0  0  0  0  0  0  0  0  0  0
  188.2560  176.5770  142.6540 N   0  0  0  0  0  0  0  0  0  0  0  0
  191.5720  177.4910  145.4180 N   0  0  0  0  0  0  0  0  0  0  0  0
  191.5220  177.3050  143.9690 C   0  0  1  0  0  3  0  0  0  0  0  0
  191.6840  176.2480  144.8110 O   0  0  0  0  0  0  0  0  0  0  0  0
  190.2690  177.5110  146.0800 C   0  0  0  0  0  2  0  0  0  0  0  0
  190.3370  176.7060  147.3610 C   0  0  0  0  0  1  0  0  0  0  0  0
  190.5780  175.7910  138.3600 C   0  0  0  0  0  2  0  0  0  0  0  0
  191.4240  176.7170  137.5410 C   0  0  0  0  0  3  0  0  0  0  0  0
  192.5920  176.3500  137.0030 C   0  0  0  0  0  3  0  0  0  0  0  0
  193.1880  174.9830  137.1700 C   0  0  0  0  0  2  0  0  0  0  0  0
  194.6310  175.0670  137.5490 C   0  0  0  0  0  3  0  0  0  0  0  0
  194.9600  175.2420  138.7120 O   0  0  0  0  0  0  0  0  0  0  0  0
  1 16  1  1  0  0  0
  1  2  1  0  0  0  0
  2  8  1  0  0  0  0
  2 31  1  6  0  0  0
  3 11  1  0  0  0  0
  4 22  1  1  0  0  0
  4 14  1  0  0  0  0
  5 13  1  0  0  0  0
  6 12  2  0  0  0  0
  7  9  2  0  0  0  0
  7  3  1  0  0  0  0
  8 20  1  6  0  0  0
  8 17  1  0  0  0  0
  9 20  1  0  0  0  0
 11 19  1  0  0  0  0
 12  5  2  0  0  0  0
 13 10  1  1  0  0  0
 13 14  1  0  0  0  0
 14 10  1  1  0  0  0
 15  1  1  0  0  0  0
 15  9  1  0  0  0  0
 17 18  1  0  0  0  0
 18  4  1  0  0  0  0
 19  5  1  0  0  0  0
 19 18  2  0  0  0  0
 20 11  2  0  0  0  0
 21 23  2  0  0  0  0
 22 25  2  0  0  0  0
 22 24  1  0  0  0  0
 24 23  1  0  0  0  0
 25 21  1  0  0  0  0
 26 29  1  0  0  0  0
 27 23  1  1  0  0  0
 27 28  1  0  0  0  0
 27 26  1  0  0  0  0
 28 26  1  0  0  0  0
 29 30  1  0  0  0  0
 32 31  1  0  0  0  0
 33 34  1  0  0  0  0
 33 32  2  0  0  0  0
 34 35  1  0  0  0  0
 35 36  2  0  0  0  0
M  END
>  <MODEL>
9

>  <REMARK>
 VINA RESULT:      -7.5      2.721      6.929
  Name = 
  7 active torsions:
  status: ('A' for Active; 'I' for Inactive)
    1  A    between atoms: C_3  and  C_6
    2  A    between atoms: C_4  and  C_29
    3  A    between atoms: C_11  and  C_23
    4  A    between atoms: C_12  and  C_22
    5  A    between atoms: N_16  and  C_28
    6  A    between atoms: C_23  and  C_36
    7  A    between atoms: C_29  and  C_33
                            x       y       z     vdW  Elec       q    Type
                         _______ _______ _______ _____ _____    ______ ____

>  <TORSDO>
F 7

$$$$
