=
 OpenBabel11042412323D

 68 73  0  0  1  0  0  0  0  0999 V2000
  182.8220  176.4020  134.8610 C   0  0  0  0  0  2  0  0  0  0  0  0
  182.6310  178.6190  139.3960 C   0  0  0  0  0  2  0  0  0  0  0  0
  185.0530  176.3760  136.9360 C   0  0  0  0  0  0  0  0  0  0  0  0
  184.9690  177.8790  138.8340 C   0  0  0  0  0  0  0  0  0  0  0  0
  183.1240  175.3140  135.8850 C   0  0  0  0  0  2  0  0  0  0  0  0
  182.1080  179.1260  138.0590 C   0  0  0  0  0  2  0  0  0  0  0  0
  180.3440  178.9160  136.3020 C   0  0  0  0  0  2  0  0  0  0  0  0
  184.5540  175.3410  136.3120 C   0  0  0  0  0  3  0  0  0  0  0  0
  185.5460  177.4190  137.5510 C   0  0  0  0  0  0  0  0  0  0  0  0
  180.9600  178.2690  137.5160 C   0  0  1  0  0  0  0  0  0  0  0  0
  181.0550  177.5770  136.1630 C   0  0  2  0  0  3  0  0  0  0  0  0
  183.5770  177.4390  139.2250 C   0  0  0  0  0  2  0  0  0  0  0  0
  182.4760  178.7240  134.5940 F   0  0  0  0  0  0  0  0  0  0  0  0
  185.7380  178.5810  139.6770 C   0  0  0  0  0  3  0  0  0  0  0  0
  182.4430  177.7110  135.5330 C   0  0  2  0  0  3  0  0  0  0  0  0
  186.8260  177.9860  137.0320 C   0  0  0  0  0  2  0  0  0  0  0  0
  187.2030  177.3760  135.6860 C   0  0  0  0  0  2  0  0  0  0  0  0
  188.2020  176.2270  135.8220 C   0  0  0  0  0  2  0  0  0  0  0  0
  188.0440  175.2100  134.7030 C   0  0  0  0  0  2  0  0  0  0  0  0
  189.8360  173.7090  137.1110 N   0  0  0  0  0  0  0  0  0  0  0  0
  188.7770  173.9340  135.0660 C   0  0  1  0  0  3  0  0  0  0  0  0
  189.9540  174.2260  135.9320 C   0  0  0  0  0  0  0  0  0  0  0  0
  187.9980  173.1500  136.0650 C   0  0  0  0  0  0  0  0  0  0  0  0
  188.6180  173.0280  137.1890 N   0  0  0  0  0  0  0  0  0  0  0  0
  186.7460  172.5220  135.8000 N   0  0  0  0  0  1  0  0  0  0  0  0
  191.0840  175.0020  135.5250 N   0  0  0  0  0  2  0  0  0  0  0  0
  192.2330  175.2330  136.3940 C   0  0  1  0  0  3  0  0  0  0  0  0
  193.3810  174.2670  136.1120 C   0  0  2  0  0  0  0  0  0  0  0  0
  193.2870  173.0830  137.0590 C   0  0  0  0  0  1  0  0  0  0  0  0
  194.5830  176.6110  134.5950 O   0  0  0  0  0  1  0  0  0  0  0  0
  194.6030  175.0360  136.3780 N   0  0  2  0  0  0  0  0  0  0  0  0
  194.3000  176.4130  135.9550 C   0  0  2  0  0  3  0  0  0  0  0  0
  192.8110  176.6180  136.1710 C   0  0  0  0  0  2  0  0  0  0  0  0
  193.3430  173.8150  134.7830 O   0  0  0  0  0  1  0  0  0  0  0  0
  196.4890  173.5020  136.6240 C   0  0  0  0  0  2  0  0  0  0  0  0
  197.0390  174.9000  136.4630 C   0  0  0  0  0  2  0  0  0  0  0  0
  195.7890  174.4900  135.7040 C   0  0  0  0  0  3  0  0  0  0  0  0
  179.9000  177.7100  138.4520 C   0  0  0  0  0  2  0  0  0  0  0  0
  179.7870  176.3030  138.2930 O   0  0  0  0  0  0  0  0  0  0  0  0
  180.3080  175.8590  140.5970 O   0  0  0  0  0  1  0  0  0  0  0  0
  180.2250  175.4230  139.2820 C   0  0  0  0  0  0  0  0  0  0  0  0
  180.5290  174.2300  139.0010 O   0  0  0  0  0  0  0  0  0  0  0  0
  185.2860  179.0420  141.0350 C   0  0  1  0  0  3  0  0  0  0  0  0
  184.1330  178.0870  143.0640 C   0  0  0  0  0  3  0  0  0  0  0  0
  184.5130  177.9900  141.7870 C   0  0  0  0  0  3  0  0  0  0  0  0
  184.3880  179.2270  143.9740 C   0  0  0  0  0  0  0  0  0  0  0  0
  185.2780  179.0810  145.0820 N   0  0  0  0  0  2  0  0  0  0  0  0
  183.8390  180.3440  143.7780 O   0  0  0  0  0  0  0  0  0  0  0  0
  186.0390  177.8650  145.3270 C   0  0  0  0  0  2  0  0  0  0  0  0
  187.1740  178.1520  146.2870 C   0  0  1  0  0  3  0  0  0  0  0  0
  187.1910  178.6600  148.6160 O   0  0  0  0  0  1  0  0  0  0  0  0
  186.6410  178.8480  147.5000 C   0  0  0  0  0  0  0  0  0  0  0  0
  185.5470  179.7010  147.4020 O   0  0  0  0  0  0  0  0  0  0  0  0
  187.8790  176.8320  146.6440 C   0  0  0  0  0  2  0  0  0  0  0  0
  192.5870  175.9660  147.5800 C   0  0  0  0  0  1  0  0  0  0  0  0
  191.4900  175.8320  146.5410 C   0  0  2  0  0  3  0  0  0  0  0  0
  191.2180  178.0190  145.2980 C   0  0  0  0  0  2  0  0  0  0  0  0
  189.6840  177.9210  145.4210 C   0  0  0  0  0  2  0  0  0  0  0  0
  189.2290  176.6800  146.0840 N   0  0  0  0  0  0  0  0  0  0  0  0
  191.8540  176.6320  145.2840 C   0  0  0  0  0  2  0  0  0  0  0  0
  190.1530  176.2710  147.1450 C   0  0  0  0  0  2  0  0  0  0  0  0
  186.3280  179.6250  141.7910 O   0  0  0  0  0  0  0  0  0  0  0  0
  187.5740  179.2450  141.2570 C   0  0  0  0  0  2  0  0  0  0  0  0
  188.1480  178.0740  142.0410 C   0  0  0  0  0  2  0  0  0  0  0  0
  189.6690  178.0430  141.9730 C   0  0  0  0  0  2  0  0  0  0  0  0
  190.1970  176.6130  141.9370 C   0  0  0  0  0  2  0  0  0  0  0  0
  191.2640  176.4450  140.8650 C   0  0  0  0  0  2  0  0  0  0  0  0
  190.6730  176.2680  139.6160 O   0  0  0  0  0  1  0  0  0  0  0  0
  1 15  1  0  0  0  0
  1  5  1  0  0  0  0
  3  9  2  0  0  0  0
  4 12  1  0  0  0  0
  4 14  2  0  0  0  0
  5  8  1  0  0  0  0
  6  2  1  0  0  0  0
  7 10  1  0  0  0  0
  8  3  2  0  0  0  0
  9  4  1  0  0  0  0
 10  6  1  0  0  0  0
 10 38  1  1  0  0  0
 11  7  1  6  0  0  0
 11 10  1  0  0  0  0
 12  2  1  0  0  0  0
 15 13  1  6  0  0  0
 15 11  1  0  0  0  0
 16  9  1  0  0  0  0
 17 18  1  0  0  0  0
 17 16  1  0  0  0  0
 19 18  1  0  0  0  0
 20 24  1  0  0  0  0
 21 19  1  1  0  0  0
 21 22  1  0  0  0  0
 21 23  1  0  0  0  0
 22 20  2  0  0  0  0
 23 24  2  0  0  0  0
 25 23  1  0  0  0  0
 26 22  1  0  0  0  0
 27 26  1  6  0  0  0
 28 31  1  0  0  0  0
 28 27  1  0  0  0  0
 28 29  1  1  0  0  0
 31 37  1  6  0  0  0
 32 30  1  6  0  0  0
 32 33  1  0  0  0  0
 32 31  1  0  0  0  0
 33 27  1  0  0  0  0
 34 28  1  0  0  0  0
 36 35  1  0  0  0  0
 37 36  1  0  0  0  0
 37 35  1  0  0  0  0
 39 38  1  0  0  0  0
 39 41  1  0  0  0  0
 41 40  1  0  0  0  0
 42 41  2  0  0  0  0
 43 14  1  6  0  0  0
 43 45  1  0  0  0  0
 43 62  1  0  0  0  0
 44 46  1  0  0  0  0
 45 44  2  0  0  0  0
 46 47  1  0  0  0  0
 47 49  1  0  0  0  0
 48 46  2  0  0  0  0
 50 49  1  6  0  0  0
 50 54  1  0  0  0  0
 50 52  1  0  0  0  0
 52 51  1  0  0  0  0
 53 52  2  0  0  0  0
 56 61  1  0  0  0  0
 56 55  1  1  0  0  0
 57 58  1  0  0  0  0
 58 59  1  0  0  0  0
 59 54  1  0  0  0  0
 59 61  1  0  0  0  0
 60 57  1  0  0  0  0
 60 56  1  0  0  0  0
 63 62  1  0  0  0  0
 63 64  1  0  0  0  0
 65 64  1  0  0  0  0
 66 65  1  0  0  0  0
 67 66  1  0  0  0  0
 68 67  1  0  0  0  0
M  END
>  <MODEL>
1

>  <REMARK>
 VINA RESULT:      -5.7      0.000      0.000
  Name = 
  24 active torsions:
  status: ('A' for Active; 'I' for Inactive)
    1  A    between atoms: C_1  and  C_38
    2  A    between atoms: C_1  and  O_52
    3  A    between atoms: C_2  and  C_4
    4  A    between atoms: C_3  and  N_61
    5  A    between atoms: C_5  and  C_35
    6  A    between atoms: C_5  and  N_42
    7  A    between atoms: C_10  and  C_31
    8  A    between atoms: C_10  and  C_58
    9  A    between atoms: C_16  and  C_18
   10  A    between atoms: C_16  and  C_25
   11  A    between atoms: C_18  and  C_27
   12  A    between atoms: C_22  and  C_33
   13  A    between atoms: C_27  and  C_33
   14  A    between atoms: C_29  and  O_52
   15  A    between atoms: C_31  and  C_34
   16  A    between atoms: C_32  and  C_58
   17  A    between atoms: C_34  and  O_56
   18  A    between atoms: C_35  and  C_37
   19  A    between atoms: C_35  and  C_47
   20  A    between atoms: N_36  and  C_67
   21  A    between atoms: C_37  and  N_60
   22  A    between atoms: C_55  and  C_57
   23  A    between atoms: O_56  and  C_57
   24  A    between atoms: C_57  and  C_64
                            x       y       z     vdW  Elec       q    Type
                         _______ _______ _______ _____ _____    ______ ____

>  <TORSDO>
F 24

$$$$
=
 OpenBabel11042412323D

 68 73  0  0  1  0  0  0  0  0999 V2000
  185.3310  178.5570  147.0380 C   0  0  0  0  0  2  0  0  0  0  0  0
  189.5090  177.2420  144.5230 C   0  0  0  0  0  2  0  0  0  0  0  0
  185.4660  177.8730  144.0730 C   0  0  0  0  0  0  0  0  0  0  0  0
  187.6090  177.7350  142.9510 C   0  0  0  0  0  0  0  0  0  0  0  0
  185.0330  177.2150  146.3810 C   0  0  0  0  0  2  0  0  0  0  0  0
  189.3350  178.3000  145.6040 C   0  0  0  0  0  2  0  0  0  0  0  0
  189.0050  178.7480  148.0400 C   0  0  0  0  0  2  0  0  0  0  0  0
  184.6360  177.3770  144.9520 C   0  0  0  0  0  3  0  0  0  0  0  0
  186.3000  178.3790  143.2020 C   0  0  0  0  0  0  0  0  0  0  0  0
  188.9710  177.6940  146.9640 C   0  0  1  0  0  0  0  0  0  0  0  0
  187.6860  178.0750  147.6860 C   0  0  2  0  0  3  0  0  0  0  0  0
  188.1720  176.7710  143.9690 C   0  0  0  0  0  2  0  0  0  0  0  0
  186.9210  180.3010  147.1760 F   0  0  0  0  0  0  0  0  0  0  0  0
  188.2130  177.9310  141.7700 C   0  0  0  0  0  3  0  0  0  0  0  0
  186.7800  178.9690  146.8360 C   0  0  2  0  0  3  0  0  0  0  0  0
  185.8010  179.4830  142.3290 C   0  0  0  0  0  2  0  0  0  0  0  0
  184.3030  179.3590  142.0720 C   0  0  0  0  0  2  0  0  0  0  0  0
  183.9700  178.2560  141.0690 C   0  0  0  0  0  2  0  0  0  0  0  0
  182.5760  178.4290  140.4850 C   0  0  0  0  0  2  0  0  0  0  0  0
  180.7570  178.5920  137.6690 N   0  0  0  0  0  0  0  0  0  0  0  0
  182.6660  178.5440  138.9760 C   0  0  1  0  0  3  0  0  0  0  0  0
  181.5500  177.8050  138.3200 C   0  0  0  0  0  0  0  0  0  0  0  0
  182.2730  179.9110  138.5320 C   0  0  0  0  0  0  0  0  0  0  0  0
  181.2160  179.9050  137.7940 N   0  0  0  0  0  0  0  0  0  0  0  0
  183.0180  181.0950  138.8080 N   0  0  0  0  0  1  0  0  0  0  0  0
  181.3580  176.3910  138.4060 N   0  0  0  0  0  2  0  0  0  0  0  0
  180.2710  175.7030  137.7160 C   0  0  1  0  0  3  0  0  0  0  0  0
  180.7630  174.8800  136.5280 C   0  0  2  0  0  0  0  0  0  0  0  0
  180.6390  175.7050  135.2590 C   0  0  0  0  0  1  0  0  0  0  0  0
  180.4920  172.5250  138.4310 O   0  0  0  0  0  1  0  0  0  0  0  0
  179.8680  173.7180  136.4700 N   0  0  2  0  0  0  0  0  0  0  0  0
  179.5480  173.3990  137.8710 C   0  0  2  0  0  3  0  0  0  0  0  0
  179.5900  174.7090  138.6380 C   0  0  0  0  0  2  0  0  0  0  0  0
  182.0990  174.4850  136.7090 O   0  0  0  0  0  1  0  0  0  0  0  0
  179.4510  172.0570  134.7270 C   0  0  0  0  0  2  0  0  0  0  0  0
  179.6310  171.3270  136.0380 C   0  0  0  0  0  2  0  0  0  0  0  0
  180.4480  172.5750  135.7520 C   0  0  0  0  0  3  0  0  0  0  0  0
  189.6110  176.3950  147.4300 C   0  0  0  0  0  2  0  0  0  0  0  0
  190.9560  176.3130  146.9790 O   0  0  0  0  0  0  0  0  0  0  0  0
  192.9940  175.3620  147.8260 O   0  0  0  0  0  0  0  0  0  0  0  0
  192.0250  176.3540  147.8740 C   0  0  0  0  0  0  0  0  0  0  0  0
  192.1330  177.2900  148.7140 O   0  0  0  0  0  1  0  0  0  0  0  0
  189.5070  177.2770  141.3750 C   0  0  1  0  0  3  0  0  0  0  0  0
  188.8130  176.8150  138.9950 C   0  0  0  0  0  3  0  0  0  0  0  0
  189.3820  176.4240  140.1390 C   0  0  0  0  0  3  0  0  0  0  0  0
  188.2070  178.1380  138.7200 C   0  0  0  0  0  0  0  0  0  0  0  0
  187.4040  178.3360  137.5550 N   0  0  0  0  0  2  0  0  0  0  0  0
  188.3770  179.1020  139.5130 O   0  0  0  0  0  0  0  0  0  0  0  0
  187.0650  177.2570  136.6390 C   0  0  0  0  0  2  0  0  0  0  0  0
  185.6620  176.7620  136.9220 C   0  0  1  0  0  3  0  0  0  0  0  0
  185.2000  176.5330  134.5950 O   0  0  0  0  0  0  0  0  0  0  0  0
  184.8060  176.9600  135.7110 C   0  0  0  0  0  0  0  0  0  0  0  0
  183.5800  177.6090  135.8100 O   0  0  0  0  0  1  0  0  0  0  0  0
  185.7240  175.2860  137.3480 C   0  0  0  0  0  2  0  0  0  0  0  0
  185.7100  171.1920  134.6960 C   0  0  0  0  0  1  0  0  0  0  0  0
  186.2900  172.5890  134.8070 C   0  0  2  0  0  3  0  0  0  0  0  0
  188.2230  172.5840  136.4400 C   0  0  0  0  0  2  0  0  0  0  0  0
  187.6950  173.8740  137.1000 C   0  0  0  0  0  2  0  0  0  0  0  0
  186.4840  174.4120  136.4440 N   0  0  0  0  0  0  0  0  0  0  0  0
  187.8140  172.5150  134.9720 C   0  0  0  0  0  2  0  0  0  0  0  0
  185.6140  173.3370  135.9610 C   0  0  0  0  0  2  0  0  0  0  0  0
  190.5880  178.1860  141.3260 O   0  0  0  0  0  0  0  0  0  0  0  0
  191.7960  177.4820  141.1590 C   0  0  0  0  0  2  0  0  0  0  0  0
  192.3480  177.7070  139.7590 C   0  0  0  0  0  2  0  0  0  0  0  0
  192.9490  176.4340  139.1800 C   0  0  0  0  0  2  0  0  0  0  0  0
  192.9020  176.4370  137.6560 C   0  0  0  0  0  2  0  0  0  0  0  0
  191.7640  175.5720  137.1360 C   0  0  0  0  0  2  0  0  0  0  0  0
  191.7810  174.3240  137.7560 O   0  0  0  0  0  1  0  0  0  0  0  0
  2  6  1  0  0  0  0
  3  8  2  0  0  0  0
  4  9  1  0  0  0  0
  4 12  1  0  0  0  0
  5  1  1  0  0  0  0
  6 10  1  0  0  0  0
  8  5  1  0  0  0  0
  9  3  2  0  0  0  0
 10 38  1  1  0  0  0
 10 11  1  0  0  0  0
 10  7  1  0  0  0  0
 11  7  1  1  0  0  0
 12  2  1  0  0  0  0
 14  4  2  0  0  0  0
 15  1  1  0  0  0  0
 15 13  1  1  0  0  0
 15 11  1  0  0  0  0
 16  9  1  0  0  0  0
 17 16  1  0  0  0  0
 18 17  1  0  0  0  0
 19 18  1  0  0  0  0
 20 24  1  0  0  0  0
 20 22  2  0  0  0  0
 21 19  1  1  0  0  0
 22 26  1  0  0  0  0
 22 21  1  0  0  0  0
 23 25  1  0  0  0  0
 23 21  1  0  0  0  0
 24 23  2  0  0  0  0
 27 26  1  1  0  0  0
 27 33  1  0  0  0  0
 28 29  1  6  0  0  0
 28 34  1  0  0  0  0
 28 27  1  0  0  0  0
 31 37  1  1  0  0  0
 31 28  1  0  0  0  0
 31 32  1  0  0  0  0
 32 30  1  1  0  0  0
 32 33  1  0  0  0  0
 35 37  1  0  0  0  0
 35 36  1  0  0  0  0
 37 36  1  0  0  0  0
 39 38  1  0  0  0  0
 39 41  1  0  0  0  0
 40 41  2  0  0  0  0
 41 42  1  0  0  0  0
 43 45  1  6  0  0  0
 43 14  1  0  0  0  0
 44 45  2  0  0  0  0
 46 44  1  0  0  0  0
 46 48  2  0  0  0  0
 47 46  1  0  0  0  0
 49 47  1  0  0  0  0
 50 49  1  6  0  0  0
 50 54  1  0  0  0  0
 51 52  2  0  0  0  0
 52 53  1  0  0  0  0
 52 50  1  0  0  0  0
 56 55  1  1  0  0  0
 56 60  1  0  0  0  0
 56 61  1  0  0  0  0
 57 58  1  0  0  0  0
 59 58  1  0  0  0  0
 59 54  1  0  0  0  0
 60 57  1  0  0  0  0
 61 59  1  0  0  0  0
 62 43  1  0  0  0  0
 63 62  1  0  0  0  0
 64 63  1  0  0  0  0
 65 64  1  0  0  0  0
 66 65  1  0  0  0  0
 67 66  1  0  0  0  0
 67 68  1  0  0  0  0
M  END
>  <MODEL>
2

>  <REMARK>
 VINA RESULT:      -5.6      3.627     10.813
  Name = 
  24 active torsions:
  status: ('A' for Active; 'I' for Inactive)
    1  A    between atoms: C_1  and  C_38
    2  A    between atoms: C_1  and  O_52
    3  A    between atoms: C_2  and  C_4
    4  A    between atoms: C_3  and  N_61
    5  A    between atoms: C_5  and  C_35
    6  A    between atoms: C_5  and  N_42
    7  A    between atoms: C_10  and  C_31
    8  A    between atoms: C_10  and  C_58
    9  A    between atoms: C_16  and  C_18
   10  A    between atoms: C_16  and  C_25
   11  A    between atoms: C_18  and  C_27
   12  A    between atoms: C_22  and  C_33
   13  A    between atoms: C_27  and  C_33
   14  A    between atoms: C_29  and  O_52
   15  A    between atoms: C_31  and  C_34
   16  A    between atoms: C_32  and  C_58
   17  A    between atoms: C_34  and  O_56
   18  A    between atoms: C_35  and  C_37
   19  A    between atoms: C_35  and  C_47
   20  A    between atoms: N_36  and  C_67
   21  A    between atoms: C_37  and  N_60
   22  A    between atoms: C_55  and  C_57
   23  A    between atoms: O_56  and  C_57
   24  A    between atoms: C_57  and  C_64
                            x       y       z     vdW  Elec       q    Type
                         _______ _______ _______ _____ _____    ______ ____

>  <TORSDO>
F 24

$$$$
=
 OpenBabel11042412323D

 68 73  0  0  1  0  0  0  0  0999 V2000
  191.6810  176.9810  141.9020 C   0  0  0  0  0  2  0  0  0  0  0  0
  189.5360  176.5100  137.3540 C   0  0  0  0  0  2  0  0  0  0  0  0
  188.6980  177.2070  141.3230 C   0  0  0  0  0  0  0  0  0  0  0  0
  187.9130  177.4290  139.0430 C   0  0  0  0  0  0  0  0  0  0  0  0
  190.6240  175.8910  142.0360 C   0  0  0  0  0  2  0  0  0  0  0  0
  190.8400  177.2000  137.7310 C   0  0  0  0  0  2  0  0  0  0  0  0
  193.2250  176.9030  138.4170 C   0  0  0  0  0  2  0  0  0  0  0  0
  189.2620  176.4650  142.2400 C   0  0  0  0  0  3  0  0  0  0  0  0
  188.1460  177.9560  140.4050 C   0  0  0  0  0  0  0  0  0  0  0  0
  191.8950  176.2140  138.2460 C   0  0  1  0  0  0  0  0  0  0  0  0
  192.4990  176.3520  139.6370 C   0  0  2  0  0  3  0  0  0  0  0  0
  188.6780  176.2120  138.5750 C   0  0  0  0  0  2  0  0  0  0  0  0
  192.5530  178.6210  140.4410 F   0  0  0  0  0  0  0  0  0  0  0  0
  186.9440  177.9710  138.2930 C   0  0  0  0  0  3  0  0  0  0  0  0
  191.8230  177.4490  140.4640 C   0  0  2  0  0  3  0  0  0  0  0  0
  187.5690  179.2640  140.8370 C   0  0  0  0  0  2  0  0  0  0  0  0
  186.1390  179.1060  141.3440 C   0  0  0  0  0  2  0  0  0  0  0  0
  186.0610  179.0420  142.8690 C   0  0  0  0  0  2  0  0  0  0  0  0
  185.5130  177.7070  143.3480 C   0  0  0  0  0  2  0  0  0  0  0  0
  186.5430  179.2910  146.1220 N   0  0  0  0  0  0  0  0  0  0  0  0
  185.4230  177.7060  144.8610 C   0  0  1  0  0  3  0  0  0  0  0  0
  186.6970  178.1860  145.4690 C   0  0  0  0  0  0  0  0  0  0  0  0
  184.5570  178.8230  145.3340 C   0  0  0  0  0  0  0  0  0  0  0  0
  185.2040  179.6820  146.0460 N   0  0  0  0  0  0  0  0  0  0  0  0
  183.1520  178.9050  145.1100 N   0  0  0  0  0  1  0  0  0  0  0  0
  187.9550  177.5190  145.3390 N   0  0  0  0  0  2  0  0  0  0  0  0
  189.1720  178.0040  145.9820 C   0  0  1  0  0  3  0  0  0  0  0  0
  189.5240  177.2100  147.2370 C   0  0  2  0  0  0  0  0  0  0  0  0
  188.9600  177.9190  148.4560 C   0  0  0  0  0  1  0  0  0  0  0  0
  191.5320  175.8180  145.4280 O   0  0  0  0  0  1  0  0  0  0  0  0
  190.9910  177.2020  147.2860 N   0  0  2  0  0  0  0  0  0  0  0  0
  191.4310  177.1420  145.8820 C   0  0  2  0  0  3  0  0  0  0  0  0
  190.3680  177.8520  145.0620 C   0  0  0  0  0  2  0  0  0  0  0  0
  189.0100  175.9050  147.1670 O   0  0  0  0  0  1  0  0  0  0  0  0
  192.8470  176.5420  148.7320 C   0  0  0  0  0  2  0  0  0  0  0  0
  192.8660  175.6550  147.5090 C   0  0  0  0  0  2  0  0  0  0  0  0
  191.5380  176.1030  148.0940 C   0  0  0  0  0  3  0  0  0  0  0  0
  192.0520  174.8420  137.6090 C   0  0  0  0  0  2  0  0  0  0  0  0
  193.3340  174.7150  137.0110 O   0  0  0  0  0  0  0  0  0  0  0  0
  194.3350  173.8660  134.9980 O   0  0  0  0  0  0  0  0  0  0  0  0
  193.6430  173.6390  136.1790 C   0  0  0  0  0  0  0  0  0  0  0  0
  193.3190  172.4610  136.4950 O   0  0  0  0  0  1  0  0  0  0  0  0
  186.5700  177.4770  136.9230 C   0  0  1  0  0  3  0  0  0  0  0  0
  184.1520  176.8140  136.6540 C   0  0  0  0  0  3  0  0  0  0  0  0
  185.1250  177.7280  136.5810 C   0  0  0  0  0  3  0  0  0  0  0  0
  184.2990  175.4050  137.0820 C   0  0  0  0  0  0  0  0  0  0  0  0
  183.2220  174.4810  136.9070 N   0  0  0  0  0  2  0  0  0  0  0  0
  185.3760  174.9940  137.5900 O   0  0  0  0  0  0  0  0  0  0  0  0
  181.9820  174.8360  136.2340 C   0  0  0  0  0  2  0  0  0  0  0  0
  180.7980  174.3410  137.0380 C   0  0  1  0  0  3  0  0  0  0  0  0
  180.9640  172.2210  135.9590 O   0  0  0  0  0  0  0  0  0  0  0  0
  180.7820  172.8440  137.0370 C   0  0  0  0  0  0  0  0  0  0  0  0
  180.5710  172.1390  138.2170 O   0  0  0  0  0  1  0  0  0  0  0  0
  180.8800  174.9140  138.4630 C   0  0  0  0  0  2  0  0  0  0  0  0
  182.4530  178.5330  141.3320 C   0  0  0  0  0  1  0  0  0  0  0  0
  182.4720  177.9800  139.9200 C   0  0  2  0  0  3  0  0  0  0  0  0
  180.3590  178.6620  138.7060 C   0  0  0  0  0  2  0  0  0  0  0  0
  180.1920  177.2320  138.1520 C   0  0  0  0  0  2  0  0  0  0  0  0
  181.2920  176.3240  138.5400 N   0  0  0  0  0  0  0  0  0  0  0  0
  181.8310  178.9830  138.9520 C   0  0  0  0  0  2  0  0  0  0  0  0
  181.7770  176.6150  139.8920 C   0  0  0  0  0  2  0  0  0  0  0  0
  187.4700  177.9050  135.9210 O   0  0  0  0  0  0  0  0  0  0  0  0
  187.2800  177.1420  134.7530 C   0  0  0  0  0  2  0  0  0  0  0  0
  187.1400  175.6680  135.1020 C   0  0  0  0  0  2  0  0  0  0  0  0
  188.4510  174.9180  134.9110 C   0  0  0  0  0  2  0  0  0  0  0  0
  188.4270  173.5640  135.6120 C   0  0  0  0  0  2  0  0  0  0  0  0
  189.8120  172.9330  135.6430 C   0  0  0  0  0  2  0  0  0  0  0  0
  189.9550  172.0270  134.5940 O   0  0  0  0  0  1  0  0  0  0  0  0
  1  5  1  0  0  0  0
  2  6  1  0  0  0  0
  2 12  1  0  0  0  0
  3  8  2  0  0  0  0
  4  9  1  0  0  0  0
  5  8  1  0  0  0  0
  6 10  1  0  0  0  0
  9 16  1  0  0  0  0
  9  3  2  0  0  0  0
 10 38  1  6  0  0  0
 10  7  1  0  0  0  0
 10 11  1  0  0  0  0
 11  7  1  6  0  0  0
 11 15  1  0  0  0  0
 12  4  1  0  0  0  0
 14  4  2  0  0  0  0
 15 13  1  1  0  0  0
 15  1  1  0  0  0  0
 16 17  1  0  0  0  0
 17 18  1  0  0  0  0
 18 19  1  0  0  0  0
 21 19  1  6  0  0  0
 21 23  1  0  0  0  0
 21 22  1  0  0  0  0
 22 20  2  0  0  0  0
 23 24  2  0  0  0  0
 24 20  1  0  0  0  0
 25 23  1  0  0  0  0
 26 22  1  0  0  0  0
 27 26  1  6  0  0  0
 27 28  1  0  0  0  0
 28 31  1  0  0  0  0
 28 29  1  1  0  0  0
 31 37  1  1  0  0  0
 32 30  1  6  0  0  0
 32 31  1  0  0  0  0
 33 32  1  0  0  0  0
 33 27  1  0  0  0  0
 34 28  1  0  0  0  0
 36 37  1  0  0  0  0
 36 35  1  0  0  0  0
 37 35  1  0  0  0  0
 39 38  1  0  0  0  0
 40 41  2  0  0  0  0
 41 42  1  0  0  0  0
 41 39  1  0  0  0  0
 43 45  1  6  0  0  0
 43 14  1  0  0  0  0
 44 46  1  0  0  0  0
 45 44  2  0  0  0  0
 46 48  2  0  0  0  0
 47 46  1  0  0  0  0
 49 47  1  0  0  0  0
 50 49  1  6  0  0  0
 50 54  1  0  0  0  0
 51 52  2  0  0  0  0
 52 50  1  0  0  0  0
 52 53  1  0  0  0  0
 54 59  1  0  0  0  0
 56 55  1  1  0  0  0
 57 60  1  0  0  0  0
 58 59  1  0  0  0  0
 58 57  1  0  0  0  0
 59 61  1  0  0  0  0
 60 56  1  0  0  0  0
 61 56  1  0  0  0  0
 62 43  1  0  0  0  0
 63 64  1  0  0  0  0
 63 62  1  0  0  0  0
 65 64  1  0  0  0  0
 65 66  1  0  0  0  0
 66 67  1  0  0  0  0
 68 67  1  0  0  0  0
M  END
>  <MODEL>
3

>  <REMARK>
 VINA RESULT:      -5.5      3.321     10.396
  Name = 
  24 active torsions:
  status: ('A' for Active; 'I' for Inactive)
    1  A    between atoms: C_1  and  C_38
    2  A    between atoms: C_1  and  O_52
    3  A    between atoms: C_2  and  C_4
    4  A    between atoms: C_3  and  N_61
    5  A    between atoms: C_5  and  C_35
    6  A    between atoms: C_5  and  N_42
    7  A    between atoms: C_10  and  C_31
    8  A    between atoms: C_10  and  C_58
    9  A    between atoms: C_16  and  C_18
   10  A    between atoms: C_16  and  C_25
   11  A    between atoms: C_18  and  C_27
   12  A    between atoms: C_22  and  C_33
   13  A    between atoms: C_27  and  C_33
   14  A    between atoms: C_29  and  O_52
   15  A    between atoms: C_31  and  C_34
   16  A    between atoms: C_32  and  C_58
   17  A    between atoms: C_34  and  O_56
   18  A    between atoms: C_35  and  C_37
   19  A    between atoms: C_35  and  C_47
   20  A    between atoms: N_36  and  C_67
   21  A    between atoms: C_37  and  N_60
   22  A    between atoms: C_55  and  C_57
   23  A    between atoms: O_56  and  C_57
   24  A    between atoms: C_57  and  C_64
                            x       y       z     vdW  Elec       q    Type
                         _______ _______ _______ _____ _____    ______ ____

>  <TORSDO>
F 24

$$$$
=
 OpenBabel11042412323D

 68 73  0  0  1  0  0  0  0  0999 V2000
  190.4080  175.2330  134.5940 C   0  0  0  0  0  2  0  0  0  0  0  0
  191.3050  176.6520  139.3570 C   0  0  0  0  0  2  0  0  0  0  0  0
  188.6210  177.0510  136.2620 C   0  0  0  0  0  0  0  0  0  0  0  0
  188.9610  177.2310  138.6540 C   0  0  0  0  0  0  0  0  0  0  0  0
  190.3830  176.7570  134.6010 C   0  0  0  0  0  2  0  0  0  0  0  0
  191.5260  175.2940  138.7040 C   0  0  0  0  0  2  0  0  0  0  0  0
  192.9340  173.9440  137.1420 C   0  0  0  0  0  2  0  0  0  0  0  0
  189.0630  177.2850  135.0540 C   0  0  0  0  0  3  0  0  0  0  0  0
  188.1830  176.8040  137.4690 C   0  0  0  0  0  0  0  0  0  0  0  0
  192.6080  175.3360  137.6190 C   0  0  1  0  0  0  0  0  0  0  0  0
  192.3050  174.9420  136.1800 C   0  0  2  0  0  3  0  0  0  0  0  0
  190.4290  177.5560  138.5040 C   0  0  0  0  0  2  0  0  0  0  0  0
  190.5340  173.3230  135.9790 F   0  0  0  0  0  0  0  0  0  0  0  0
  188.3190  177.4330  139.8130 C   0  0  0  0  0  3  0  0  0  0  0  0
  190.8160  174.6750  135.9470 C   0  0  2  0  0  3  0  0  0  0  0  0
  186.7910  176.2820  137.6050 C   0  0  0  0  0  2  0  0  0  0  0  0
  185.8360  176.9770  136.6400 C   0  0  0  0  0  2  0  0  0  0  0  0
  184.3890  176.5170  136.8150 C   0  0  0  0  0  2  0  0  0  0  0  0
  183.5780  177.5110  137.6300 C   0  0  0  0  0  2  0  0  0  0  0  0
  180.4810  177.4210  136.3370 N   0  0  0  0  0  0  0  0  0  0  0  0
  182.1780  176.9720  137.8460 C   0  0  1  0  0  3  0  0  0  0  0  0
  181.1560  177.9210  137.3200 C   0  0  0  0  0  0  0  0  0  0  0  0
  181.8970  175.8530  136.9030 C   0  0  0  0  0  0  0  0  0  0  0  0
  180.9390  176.1250  136.0850 N   0  0  0  0  0  0  0  0  0  0  0  0
  182.5440  174.5830  136.9420 N   0  0  0  0  0  1  0  0  0  0  0  0
  180.9460  179.2430  137.8250 N   0  0  0  0  0  2  0  0  0  0  0  0
  179.9080  180.1270  137.3040 C   0  0  1  0  0  3  0  0  0  0  0  0
  179.9260  181.5010  137.9670 C   0  0  2  0  0  0  0  0  0  0  0  0
  178.9370  181.5180  139.1190 C   0  0  0  0  0  1  0  0  0  0  0  0
  181.3590  182.3720  135.4320 O   0  0  0  0  0  1  0  0  0  0  0  0
  179.5040  182.4380  136.9190 N   0  0  2  0  0  0  0  0  0  0  0  0
  180.0590  181.9010  135.6650 C   0  0  2  0  0  3  0  0  0  0  0  0
  180.1150  180.3920  135.8250 C   0  0  0  0  0  2  0  0  0  0  0  0
  181.2110  181.8140  138.4410 O   0  0  0  0  0  1  0  0  0  0  0  0
  179.0160  184.7800  136.4210 C   0  0  0  0  0  2  0  0  0  0  0  0
  180.3870  184.4590  135.8730 C   0  0  0  0  0  2  0  0  0  0  0  0
  179.9270  183.8220  137.1720 C   0  0  0  0  0  3  0  0  0  0  0  0
  193.8630  176.1740  137.8070 C   0  0  0  0  0  2  0  0  0  0  0  0
  195.0130  175.3410  137.8630 O   0  0  0  0  0  0  0  0  0  0  0  0
  195.3500  175.5290  140.2360 O   0  0  0  0  0  1  0  0  0  0  0  0
  195.4500  174.7880  139.0660 C   0  0  0  0  0  0  0  0  0  0  0  0
  195.9180  173.6160  139.1090 O   0  0  0  0  0  0  0  0  0  0  0  0
  188.9890  177.9320  141.0640 C   0  0  1  0  0  3  0  0  0  0  0  0
  187.1630  179.6280  141.4490 C   0  0  0  0  0  3  0  0  0  0  0  0
  188.4430  179.2540  141.5360 C   0  0  0  0  0  3  0  0  0  0  0  0
  186.0500  178.8300  140.8860 C   0  0  0  0  0  0  0  0  0  0  0  0
  185.3410  177.8990  141.7070 N   0  0  0  0  0  2  0  0  0  0  0  0
  185.7010  178.9690  139.6840 O   0  0  0  0  0  0  0  0  0  0  0  0
  185.6010  177.7480  143.1310 C   0  0  0  0  0  2  0  0  0  0  0  0
  184.3960  178.2040  143.9260 C   0  0  1  0  0  3  0  0  0  0  0  0
  185.8470  177.7970  145.7740 O   0  0  0  0  0  0  0  0  0  0  0  0
  184.7500  178.2690  145.3790 C   0  0  0  0  0  0  0  0  0  0  0  0
  183.8780  178.8500  146.2930 O   0  0  0  0  0  1  0  0  0  0  0  0
  183.9200  179.5630  143.3880 C   0  0  0  0  0  2  0  0  0  0  0  0
  179.0860  179.0780  143.8270 C   0  0  0  0  0  1  0  0  0  0  0  0
  180.1940  179.7080  143.0050 C   0  0  2  0  0  3  0  0  0  0  0  0
  181.1130  178.0130  141.3670 C   0  0  0  0  0  2  0  0  0  0  0  0
  182.5560  178.4250  141.7190 C   0  0  0  0  0  2  0  0  0  0  0  0
  182.6250  179.5360  142.6930 N   0  0  0  0  0  0  0  0  0  0  0  0
  180.1480  179.1790  141.5660 C   0  0  0  0  0  2  0  0  0  0  0  0
  181.5450  179.4510  143.6790 C   0  0  0  0  0  2  0  0  0  0  0  0
  189.0520  176.9520  142.0800 O   0  0  0  0  0  0  0  0  0  0  0  0
  189.8490  177.4170  143.1420 C   0  0  0  0  0  2  0  0  0  0  0  0
  189.0120  177.5650  144.4040 C   0  0  0  0  0  2  0  0  0  0  0  0
  189.8120  177.2180  145.6530 C   0  0  0  0  0  2  0  0  0  0  0  0
  191.3050  177.1340  145.3540 C   0  0  0  0  0  2  0  0  0  0  0  0
  191.9520  175.9710  146.0930 C   0  0  0  0  0  2  0  0  0  0  0  0
  191.3080  175.7510  147.3100 O   0  0  0  0  0  1  0  0  0  0  0  0
  1  5  1  0  0  0  0
  1 15  1  0  0  0  0
  3  9  2  0  0  0  0
  4 14  2  0  0  0  0
  5  8  1  0  0  0  0
  6  2  1  0  0  0  0
  7 10  1  0  0  0  0
  8  3  2  0  0  0  0
  9 16  1  0  0  0  0
  9  4  1  0  0  0  0
 10 38  1  1  0  0  0
 10  6  1  0  0  0  0
 11  7  1  1  0  0  0
 11 10  1  0  0  0  0
 12  4  1  0  0  0  0
 12  2  1  0  0  0  0
 15 13  1  6  0  0  0
 15 11  1  0  0  0  0
 17 18  1  0  0  0  0
 17 16  1  0  0  0  0
 18 19  1  0  0  0  0
 20 22  2  0  0  0  0
 21 19  1  6  0  0  0
 22 26  1  0  0  0  0
 22 21  1  0  0  0  0
 23 25  1  0  0  0  0
 23 21  1  0  0  0  0
 24 20  1  0  0  0  0
 24 23  2  0  0  0  0
 27 26  1  1  0  0  0
 27 28  1  0  0  0  0
 28 34  1  0  0  0  0
 28 29  1  1  0  0  0
 31 37  1  1  0  0  0
 31 28  1  0  0  0  0
 32 30  1  1  0  0  0
 32 33  1  0  0  0  0
 32 31  1  0  0  0  0
 33 27  1  0  0  0  0
 35 37  1  0  0  0  0
 36 35  1  0  0  0  0
 36 37  1  0  0  0  0
 38 39  1  0  0  0  0
 39 41  1  0  0  0  0
 41 42  2  0  0  0  0
 41 40  1  0  0  0  0
 43 14  1  6  0  0  0
 43 45  1  0  0  0  0
 43 62  1  0  0  0  0
 44 45  2  0  0  0  0
 46 44  1  0  0  0  0
 46 47  1  0  0  0  0
 47 49  1  0  0  0  0
 48 46  2  0  0  0  0
 50 49  1  6  0  0  0
 50 52  1  0  0  0  0
 52 51  2  0  0  0  0
 52 53  1  0  0  0  0
 54 50  1  0  0  0  0
 56 61  1  0  0  0  0
 56 55  1  1  0  0  0
 57 60  1  0  0  0  0
 57 58  1  0  0  0  0
 58 59  1  0  0  0  0
 59 54  1  0  0  0  0
 59 61  1  0  0  0  0
 60 56  1  0  0  0  0
 62 63  1  0  0  0  0
 63 64  1  0  0  0  0
 64 65  1  0  0  0  0
 66 65  1  0  0  0  0
 66 67  1  0  0  0  0
 67 68  1  0  0  0  0
M  END
>  <MODEL>
4

>  <REMARK>
 VINA RESULT:      -5.5      3.691     10.071
  Name = 
  24 active torsions:
  status: ('A' for Active; 'I' for Inactive)
    1  A    between atoms: C_1  and  C_38
    2  A    between atoms: C_1  and  O_52
    3  A    between atoms: C_2  and  C_4
    4  A    between atoms: C_3  and  N_61
    5  A    between atoms: C_5  and  C_35
    6  A    between atoms: C_5  and  N_42
    7  A    between atoms: C_10  and  C_31
    8  A    between atoms: C_10  and  C_58
    9  A    between atoms: C_16  and  C_18
   10  A    between atoms: C_16  and  C_25
   11  A    between atoms: C_18  and  C_27
   12  A    between atoms: C_22  and  C_33
   13  A    between atoms: C_27  and  C_33
   14  A    between atoms: C_29  and  O_52
   15  A    between atoms: C_31  and  C_34
   16  A    between atoms: C_32  and  C_58
   17  A    between atoms: C_34  and  O_56
   18  A    between atoms: C_35  and  C_37
   19  A    between atoms: C_35  and  C_47
   20  A    between atoms: N_36  and  C_67
   21  A    between atoms: C_37  and  N_60
   22  A    between atoms: C_55  and  C_57
   23  A    between atoms: O_56  and  C_57
   24  A    between atoms: C_57  and  C_64
                            x       y       z     vdW  Elec       q    Type
                         _______ _______ _______ _____ _____    ______ ____

>  <TORSDO>
F 24

$$$$
=
 OpenBabel11042412323D

 68 73  0  0  1  0  0  0  0  0999 V2000
  191.4600  177.6860  145.0280 C   0  0  0  0  0  2  0  0  0  0  0  0
  186.9040  177.8390  142.8540 C   0  0  0  0  0  2  0  0  0  0  0  0
  190.9210  178.3190  142.0970 C   0  0  0  0  0  0  0  0  0  0  0  0
  188.7410  177.8800  141.1370 C   0  0  0  0  0  0  0  0  0  0  0  0
  191.3370  179.0620  144.3830 C   0  0  0  0  0  2  0  0  0  0  0  0
  187.4370  176.8630  143.8930 C   0  0  0  0  0  2  0  0  0  0  0  0
  188.0590  176.5110  146.2880 C   0  0  0  0  0  2  0  0  0  0  0  0
  191.6530  179.0180  142.9250 C   0  0  0  0  0  3  0  0  0  0  0  0
  190.1900  177.6110  141.2770 C   0  0  0  0  0  0  0  0  0  0  0  0
  187.7270  177.5400  145.2370 C   0  0  1  0  0  0  0  0  0  0  0  0
  189.1180  177.5150  145.8550 C   0  0  2  0  0  3  0  0  0  0  0  0
  188.0190  178.6530  142.2150 C   0  0  0  0  0  2  0  0  0  0  0  0
  190.4100  175.5790  145.2390 F   0  0  0  0  0  0  0  0  0  0  0  0
  188.1240  177.5330  139.9990 C   0  0  0  0  0  3  0  0  0  0  0  0
  190.1640  176.9010  144.9210 C   0  0  2  0  0  3  0  0  0  0  0  0
  190.8980  176.6840  140.3450 C   0  0  0  0  0  2  0  0  0  0  0  0
  192.1220  177.3470  139.7200 C   0  0  0  0  0  2  0  0  0  0  0  0
  192.8670  176.4180  138.7630 C   0  0  0  0  0  2  0  0  0  0  0  0
  191.9130  175.6990  137.8220 C   0  0  0  0  0  2  0  0  0  0  0  0
  193.5300  174.4470  135.1600 N   0  0  0  0  0  0  0  0  0  0  0  0
  192.3050  175.9820  136.3850 C   0  0  1  0  0  3  0  0  0  0  0  0
  193.6240  175.3670  136.0630 C   0  0  0  0  0  0  0  0  0  0  0  0
  191.4830  175.1640  135.4490 C   0  0  0  0  0  0  0  0  0  0  0  0
  192.1930  174.3290  134.7700 N   0  0  0  0  0  0  0  0  0  0  0  0
  190.0820  175.3310  135.2470 N   0  0  0  0  0  1  0  0  0  0  0  0
  194.8590  175.7320  136.6870 N   0  0  0  0  0  2  0  0  0  0  0  0
  196.1340  175.1290  136.3150 C   0  0  1  0  0  3  0  0  0  0  0  0
  196.5420  173.9990  137.2570 C   0  0  2  0  0  0  0  0  0  0  0  0
  197.4620  174.5490  138.3340 C   0  0  0  0  0  1  0  0  0  0  0  0
  195.5130  172.1870  135.0440 O   0  0  0  0  0  1  0  0  0  0  0  0
  197.2620  173.0380  136.4130 N   0  0  2  0  0  0  0  0  0  0  0  0
  196.5910  173.0840  135.1040 C   0  0  2  0  0  3  0  0  0  0  0  0
  196.0520  174.4940  134.9400 C   0  0  0  0  0  2  0  0  0  0  0  0
  195.4150  173.4090  137.8520 O   0  0  0  0  0  1  0  0  0  0  0  0
  198.7410  171.2630  137.2090 C   0  0  0  0  0  2  0  0  0  0  0  0
  197.9890  170.7430  136.0060 C   0  0  0  0  0  2  0  0  0  0  0  0
  197.2980  171.6830  136.9790 C   0  0  0  0  0  3  0  0  0  0  0  0
  186.8000  178.6170  145.7800 C   0  0  0  0  0  2  0  0  0  0  0  0
  185.4430  178.2130  145.6570 O   0  0  0  0  0  0  0  0  0  0  0  0
  183.2080  179.0930  145.7370 O   0  0  0  0  0  1  0  0  0  0  0  0
  184.4700  179.0800  145.1610 C   0  0  0  0  0  0  0  0  0  0  0  0
  184.7270  179.8660  144.2070 O   0  0  0  0  0  0  0  0  0  0  0  0
  186.6750  177.8160  139.7130 C   0  0  1  0  0  3  0  0  0  0  0  0
  184.9670  179.3980  140.6820 C   0  0  0  0  0  3  0  0  0  0  0  0
  186.2120  179.1360  140.2730 C   0  0  0  0  0  3  0  0  0  0  0  0
  183.8220  178.4600  140.6710 C   0  0  0  0  0  0  0  0  0  0  0  0
  182.7460  178.6460  139.7490 N   0  0  0  0  0  2  0  0  0  0  0  0
  183.7830  177.4790  141.4600 O   0  0  0  0  0  0  0  0  0  0  0  0
  182.7530  179.6840  138.7290 C   0  0  0  0  0  2  0  0  0  0  0  0
  181.4250  179.7010  138.0010 C   0  0  1  0  0  3  0  0  0  0  0  0
  181.3710  182.0800  138.1460 O   0  0  0  0  0  1  0  0  0  0  0  0
  181.1840  181.0630  137.4290 C   0  0  0  0  0  0  0  0  0  0  0  0
  180.7600  181.2130  136.1140 O   0  0  0  0  0  0  0  0  0  0  0  0
  181.4310  178.6140  136.9140 C   0  0  0  0  0  2  0  0  0  0  0  0
  181.6870  173.8480  135.9050 C   0  0  0  0  0  1  0  0  0  0  0  0
  181.7500  174.8800  137.0140 C   0  0  2  0  0  3  0  0  0  0  0  0
  179.4060  175.5140  137.7260 C   0  0  0  0  0  2  0  0  0  0  0  0
  179.7890  177.0070  137.7300 C   0  0  0  0  0  2  0  0  0  0  0  0
  181.2120  177.2460  137.4050 N   0  0  0  0  0  0  0  0  0  0  0  0
  180.6200  174.6380  138.0240 C   0  0  0  0  0  2  0  0  0  0  0  0
  181.7030  176.2870  136.4120 C   0  0  0  0  0  2  0  0  0  0  0  0
  186.3380  177.6300  138.3540 O   0  0  0  0  0  0  0  0  0  0  0  0
  186.6640  176.3190  137.9570 C   0  0  0  0  0  2  0  0  0  0  0  0
  187.5830  176.3480  136.7450 C   0  0  0  0  0  2  0  0  0  0  0  0
  187.2690  177.5240  135.8300 C   0  0  0  0  0  2  0  0  0  0  0  0
  188.4970  178.4010  135.6070 C   0  0  0  0  0  2  0  0  0  0  0  0
  189.3410  178.5030  136.8690 C   0  0  0  0  0  2  0  0  0  0  0  0
  189.0260  179.6650  137.5710 O   0  0  0  0  0  1  0  0  0  0  0  0
  2  6  1  0  0  0  0
  3  8  2  0  0  0  0
  4  9  1  0  0  0  0
  4 12  1  0  0  0  0
  5  1  1  0  0  0  0
  6 10  1  0  0  0  0
  8  5  1  0  0  0  0
  9  3  2  0  0  0  0
 10 38  1  1  0  0  0
 10 11  1  0  0  0  0
 10  7  1  0  0  0  0
 11  7  1  1  0  0  0
 12  2  1  0  0  0  0
 14  4  2  0  0  0  0
 15  1  1  0  0  0  0
 15 13  1  1  0  0  0
 15 11  1  0  0  0  0
 16  9  1  0  0  0  0
 17 16  1  0  0  0  0
 18 17  1  0  0  0  0
 19 18  1  0  0  0  0
 20 22  2  0  0  0  0
 21 19  1  1  0  0  0
 22 21  1  0  0  0  0
 22 26  1  0  0  0  0
 23 21  1  0  0  0  0
 24 20  1  0  0  0  0
 24 23  2  0  0  0  0
 25 23  1  0  0  0  0
 27 26  1  1  0  0  0
 27 28  1  0  0  0  0
 28 34  1  0  0  0  0
 28 29  1  1  0  0  0
 31 37  1  1  0  0  0
 31 28  1  0  0  0  0
 32 30  1  1  0  0  0
 32 31  1  0  0  0  0
 33 32  1  0  0  0  0
 33 27  1  0  0  0  0
 36 37  1  0  0  0  0
 36 35  1  0  0  0  0
 37 35  1  0  0  0  0
 39 38  1  0  0  0  0
 41 39  1  0  0  0  0
 41 40  1  0  0  0  0
 42 41  2  0  0  0  0
 43 14  1  6  0  0  0
 43 45  1  0  0  0  0
 45 44  2  0  0  0  0
 46 44  1  0  0  0  0
 46 48  2  0  0  0  0
 47 46  1  0  0  0  0
 49 47  1  0  0  0  0
 50 54  1  6  0  0  0
 50 49  1  0  0  0  0
 52 50  1  0  0  0  0
 52 51  1  0  0  0  0
 53 52  2  0  0  0  0
 54 59  1  0  0  0  0
 56 55  1  6  0  0  0
 56 60  1  0  0  0  0
 57 58  1  0  0  0  0
 57 60  1  0  0  0  0
 59 58  1  0  0  0  0
 61 56  1  0  0  0  0
 61 59  1  0  0  0  0
 62 43  1  0  0  0  0
 63 62  1  0  0  0  0
 64 63  1  0  0  0  0
 65 64  1  0  0  0  0
 66 65  1  0  0  0  0
 66 67  1  0  0  0  0
 67 68  1  0  0  0  0
M  END
>  <MODEL>
5

>  <REMARK>
 VINA RESULT:      -4.6      3.015      8.223
  Name = 
  24 active torsions:
  status: ('A' for Active; 'I' for Inactive)
    1  A    between atoms: C_1  and  C_38
    2  A    between atoms: C_1  and  O_52
    3  A    between atoms: C_2  and  C_4
    4  A    between atoms: C_3  and  N_61
    5  A    between atoms: C_5  and  C_35
    6  A    between atoms: C_5  and  N_42
    7  A    between atoms: C_10  and  C_31
    8  A    between atoms: C_10  and  C_58
    9  A    between atoms: C_16  and  C_18
   10  A    between atoms: C_16  and  C_25
   11  A    between atoms: C_18  and  C_27
   12  A    between atoms: C_22  and  C_33
   13  A    between atoms: C_27  and  C_33
   14  A    between atoms: C_29  and  O_52
   15  A    between atoms: C_31  and  C_34
   16  A    between atoms: C_32  and  C_58
   17  A    between atoms: C_34  and  O_56
   18  A    between atoms: C_35  and  C_37
   19  A    between atoms: C_35  and  C_47
   20  A    between atoms: N_36  and  C_67
   21  A    between atoms: C_37  and  N_60
   22  A    between atoms: C_55  and  C_57
   23  A    between atoms: O_56  and  C_57
   24  A    between atoms: C_57  and  C_64
                            x       y       z     vdW  Elec       q    Type
                         _______ _______ _______ _____ _____    ______ ____

>  <TORSDO>
F 24

$$$$
=
 OpenBabel11042412323D

 68 73  0  0  1  0  0  0  0  0999 V2000
  190.7860  177.4660  143.8810 C   0  0  0  0  0  2  0  0  0  0  0  0
  185.8960  178.5110  143.1730 C   0  0  0  0  0  2  0  0  0  0  0  0
  189.5580  178.5030  141.2930 C   0  0  0  0  0  0  0  0  0  0  0  0
  187.1540  178.4900  140.9950 C   0  0  0  0  0  0  0  0  0  0  0  0
  190.7200  178.9100  143.3980 C   0  0  0  0  0  2  0  0  0  0  0  0
  186.5280  177.3560  143.9370 C   0  0  0  0  0  2  0  0  0  0  0  0
  187.7310  176.6450  146.0090 C   0  0  0  0  0  2  0  0  0  0  0  0
  190.6000  178.9910  141.9130 C   0  0  0  0  0  3  0  0  0  0  0  0
  188.5160  178.0040  140.6800 C   0  0  0  0  0  0  0  0  0  0  0  0
  187.2950  177.8250  145.1780 C   0  0  1  0  0  0  0  0  0  0  0  0
  188.7790  177.5330  145.3520 C   0  0  2  0  0  3  0  0  0  0  0  0
  186.9070  179.2270  142.2900 C   0  0  0  0  0  2  0  0  0  0  0  0
  189.4990  175.5180  144.2470 F   0  0  0  0  0  0  0  0  0  0  0  0
  186.1910  178.3670  140.0700 C   0  0  0  0  0  3  0  0  0  0  0  0
  189.3990  176.8890  144.1090 C   0  0  2  0  0  3  0  0  0  0  0  0
  188.7660  177.1010  139.5170 C   0  0  0  0  0  2  0  0  0  0  0  0
  190.1670  176.5000  139.5660 C   0  0  0  0  0  2  0  0  0  0  0  0
  190.8820  176.5700  138.2180 C   0  0  0  0  0  2  0  0  0  0  0  0
  190.0180  177.2340  137.1570 C   0  0  0  0  0  2  0  0  0  0  0  0
  191.1790  174.4230  135.7360 N   0  0  0  0  0  0  0  0  0  0  0  0
  189.8330  176.2890  135.9860 C   0  0  1  0  0  3  0  0  0  0  0  0
  191.1370  175.7040  135.5650 C   0  0  0  0  0  0  0  0  0  0  0  0
  189.1940  175.0200  136.4350 C   0  0  0  0  0  0  0  0  0  0  0  0
  189.9600  173.9960  136.2700 N   0  0  0  0  0  0  0  0  0  0  0  0
  187.8550  174.9150  136.9120 N   0  0  0  0  0  1  0  0  0  0  0  0
  192.2330  176.4630  135.0440 N   0  0  0  0  0  2  0  0  0  0  0  0
  193.4800  175.8440  134.6090 C   0  0  1  0  0  3  0  0  0  0  0  0
  194.6480  176.1720  135.5350 C   0  0  2  0  0  0  0  0  0  0  0  0
  195.4050  177.3690  134.9860 C   0  0  0  0  0  1  0  0  0  0  0  0
  194.1450  173.3930  136.6600 O   0  0  0  0  0  1  0  0  0  0  0  0
  195.5010  174.9770  135.5140 N   0  0  2  0  0  0  0  0  0  0  0  0
  194.5760  173.8370  135.4000 C   0  0  2  0  0  3  0  0  0  0  0  0
  193.3680  174.3310  134.6250 C   0  0  0  0  0  2  0  0  0  0  0  0
  194.1960  176.4510  136.8350 O   0  0  0  0  0  1  0  0  0  0  0  0
  197.8280  175.0490  136.2560 C   0  0  0  0  0  2  0  0  0  0  0  0
  197.2890  173.6650  136.5340 C   0  0  0  0  0  2  0  0  0  0  0  0
  196.3800  174.8720  136.6860 C   0  0  0  0  0  3  0  0  0  0  0  0
  186.7540  178.9520  146.0440 C   0  0  0  0  0  2  0  0  0  0  0  0
  185.4890  179.3850  145.5640 O   0  0  0  0  0  0  0  0  0  0  0  0
  184.3200  178.2430  147.3260 O   0  0  0  0  0  1  0  0  0  0  0  0
  184.3010  178.8830  146.0950 C   0  0  0  0  0  0  0  0  0  0  0  0
  183.2070  179.0200  145.4810 O   0  0  0  0  0  0  0  0  0  0  0  0
  184.7900  178.8830  140.2480 C   0  0  1  0  0  3  0  0  0  0  0  0
  183.8750  179.0350  137.9030 C   0  0  0  0  0  3  0  0  0  0  0  0
  184.2750  179.6170  139.0370 C   0  0  0  0  0  3  0  0  0  0  0  0
  183.8550  177.5820  137.6190 C   0  0  0  0  0  0  0  0  0  0  0  0
  182.9130  177.0400  136.6910 N   0  0  0  0  0  2  0  0  0  0  0  0
  184.6740  176.8040  138.1780 O   0  0  0  0  0  0  0  0  0  0  0  0
  182.0030  177.8710  135.9180 C   0  0  0  0  0  2  0  0  0  0  0  0
  180.6460  177.9120  136.5890 C   0  0  1  0  0  3  0  0  0  0  0  0
  179.9050  179.9910  137.4920 O   0  0  0  0  0  1  0  0  0  0  0  0
  180.0650  179.2860  136.4620 C   0  0  0  0  0  0  0  0  0  0  0  0
  179.7060  179.7880  135.2170 O   0  0  0  0  0  0  0  0  0  0  0  0
  179.7380  176.8430  135.9600 C   0  0  0  0  0  2  0  0  0  0  0  0
  180.0910  174.8160  140.3830 C   0  0  0  0  0  1  0  0  0  0  0  0
  179.3550  174.7670  139.0580 C   0  0  2  0  0  3  0  0  0  0  0  0
  180.7180  173.4630  137.3720 C   0  0  0  0  0  2  0  0  0  0  0  0
  180.4500  174.5360  136.2960 C   0  0  0  0  0  2  0  0  0  0  0  0
  179.5660  175.6250  136.7650 N   0  0  0  0  0  0  0  0  0  0  0  0
  179.5760  173.4080  138.3830 C   0  0  0  0  0  2  0  0  0  0  0  0
  179.8030  175.9370  138.1760 C   0  0  0  0  0  2  0  0  0  0  0  0
  183.9000  177.8970  140.7310 O   0  0  0  0  0  0  0  0  0  0  0  0
  182.9360  178.4940  141.5650 C   0  0  0  0  0  2  0  0  0  0  0  0
  181.5350  178.1730  141.0650 C   0  0  0  0  0  2  0  0  0  0  0  0
  180.7180  179.4360  140.8310 C   0  0  0  0  0  2  0  0  0  0  0  0
  179.4920  179.4830  141.7360 C   0  0  0  0  0  2  0  0  0  0  0  0
  179.7220  178.6980  143.0190 C   0  0  0  0  0  2  0  0  0  0  0  0
  179.4880  177.3400  142.8060 O   0  0  0  0  0  1  0  0  0  0  0  0
  1 15  1  0  0  0  0
  2  6  1  0  0  0  0
  3  8  2  0  0  0  0
  4 12  1  0  0  0  0
  5  1  1  0  0  0  0
  6 10  1  0  0  0  0
  8  5  1  0  0  0  0
  9  4  1  0  0  0  0
  9  3  2  0  0  0  0
 10 11  1  0  0  0  0
 10  7  1  0  0  0  0
 10 38  1  1  0  0  0
 11  7  1  1  0  0  0
 12  2  1  0  0  0  0
 14 43  1  0  0  0  0
 14  4  2  0  0  0  0
 15 13  1  1  0  0  0
 15 11  1  0  0  0  0
 16 17  1  0  0  0  0
 16  9  1  0  0  0  0
 18 17  1  0  0  0  0
 19 18  1  0  0  0  0
 20 24  1  0  0  0  0
 21 23  1  0  0  0  0
 21 19  1  1  0  0  0
 22 20  2  0  0  0  0
 22 21  1  0  0  0  0
 23 25  1  0  0  0  0
 24 23  2  0  0  0  0
 26 22  1  0  0  0  0
 27 33  1  0  0  0  0
 27 26  1  1  0  0  0
 27 28  1  0  0  0  0
 28 29  1  6  0  0  0
 28 34  1  0  0  0  0
 31 28  1  0  0  0  0
 31 37  1  1  0  0  0
 32 31  1  0  0  0  0
 32 30  1  1  0  0  0
 33 32  1  0  0  0  0
 35 36  1  0  0  0  0
 35 37  1  0  0  0  0
 36 37  1  0  0  0  0
 39 38  1  0  0  0  0
 39 41  1  0  0  0  0
 41 40  1  0  0  0  0
 42 41  2  0  0  0  0
 43 45  1  6  0  0  0
 43 62  1  0  0  0  0
 44 45  2  0  0  0  0
 46 44  1  0  0  0  0
 46 48  2  0  0  0  0
 47 46  1  0  0  0  0
 49 47  1  0  0  0  0
 50 49  1  6  0  0  0
 52 50  1  0  0  0  0
 52 51  1  0  0  0  0
 53 52  2  0  0  0  0
 54 50  1  0  0  0  0
 54 59  1  0  0  0  0
 56 55  1  1  0  0  0
 57 60  1  0  0  0  0
 58 59  1  0  0  0  0
 58 57  1  0  0  0  0
 59 61  1  0  0  0  0
 60 56  1  0  0  0  0
 61 56  1  0  0  0  0
 62 63  1  0  0  0  0
 64 63  1  0  0  0  0
 65 64  1  0  0  0  0
 65 66  1  0  0  0  0
 66 67  1  0  0  0  0
 68 67  1  0  0  0  0
M  END
>  <MODEL>
6

>  <REMARK>
 VINA RESULT:      -4.4      2.985      8.481
  Name = 
  24 active torsions:
  status: ('A' for Active; 'I' for Inactive)
    1  A    between atoms: C_1  and  C_38
    2  A    between atoms: C_1  and  O_52
    3  A    between atoms: C_2  and  C_4
    4  A    between atoms: C_3  and  N_61
    5  A    between atoms: C_5  and  C_35
    6  A    between atoms: C_5  and  N_42
    7  A    between atoms: C_10  and  C_31
    8  A    between atoms: C_10  and  C_58
    9  A    between atoms: C_16  and  C_18
   10  A    between atoms: C_16  and  C_25
   11  A    between atoms: C_18  and  C_27
   12  A    between atoms: C_22  and  C_33
   13  A    between atoms: C_27  and  C_33
   14  A    between atoms: C_29  and  O_52
   15  A    between atoms: C_31  and  C_34
   16  A    between atoms: C_32  and  C_58
   17  A    between atoms: C_34  and  O_56
   18  A    between atoms: C_35  and  C_37
   19  A    between atoms: C_35  and  C_47
   20  A    between atoms: N_36  and  C_67
   21  A    between atoms: C_37  and  N_60
   22  A    between atoms: C_55  and  C_57
   23  A    between atoms: O_56  and  C_57
   24  A    between atoms: C_57  and  C_64
                            x       y       z     vdW  Elec       q    Type
                         _______ _______ _______ _____ _____    ______ ____

>  <TORSDO>
F 24

$$$$
=
 OpenBabel11042412323D

 68 73  0  0  1  0  0  0  0  0999 V2000
  180.8920  178.8610  143.1530 C   0  0  0  0  0  2  0  0  0  0  0  0
  185.6200  178.2810  141.4750 C   0  0  0  0  0  2  0  0  0  0  0  0
  181.6800  178.1950  140.2860 C   0  0  0  0  0  0  0  0  0  0  0  0
  183.9830  178.4280  139.5710 C   0  0  0  0  0  0  0  0  0  0  0  0
  180.9520  177.4840  142.5030 C   0  0  0  0  0  2  0  0  0  0  0  0
  185.0740  179.2990  142.4670 C   0  0  0  0  0  2  0  0  0  0  0  0
  184.2340  179.6960  144.7870 C   0  0  0  0  0  2  0  0  0  0  0  0
  180.8010  177.5660  141.0210 C   0  0  0  0  0  3  0  0  0  0  0  0
  182.5600  178.8340  139.5600 C   0  0  0  0  0  0  0  0  0  0  0  0
  184.5780  178.6450  143.7610 C   0  0  1  0  0  0  0  0  0  0  0  0
  183.1370  178.8010  144.2280 C   0  0  2  0  0  3  0  0  0  0  0  0
  184.5070  177.5820  140.7080 C   0  0  0  0  0  2  0  0  0  0  0  0
  182.1090  180.8560  143.5080 F   0  0  0  0  0  0  0  0  0  0  0  0
  184.7500  178.7200  138.5110 C   0  0  0  0  0  3  0  0  0  0  0  0
  182.2610  179.5180  143.1970 C   0  0  2  0  0  3  0  0  0  0  0  0
  182.0470  179.8300  138.5720 C   0  0  0  0  0  2  0  0  0  0  0  0
  181.2030  180.9050  139.2480 C   0  0  0  0  0  2  0  0  0  0  0  0
  179.7140  180.5620  139.2570 C   0  0  0  0  0  2  0  0  0  0  0  0
  179.0810  180.7720  137.8900 C   0  0  0  0  0  2  0  0  0  0  0  0
  179.3690  178.9090  135.1130 N   0  0  0  0  0  0  0  0  0  0  0  0
  180.0470  180.3320  136.8080 C   0  0  1  0  0  3  0  0  0  0  0  0
  179.7380  178.9470  136.3510 C   0  0  0  0  0  0  0  0  0  0  0  0
  179.7440  181.0240  135.5240 C   0  0  0  0  0  0  0  0  0  0  0  0
  179.3840  180.2060  134.5940 N   0  0  0  0  0  0  0  0  0  0  0  0
  179.9130  182.4220  135.3010 N   0  0  0  0  0  1  0  0  0  0  0  0
  179.8190  177.7850  137.1830 N   0  0  0  0  0  2  0  0  0  0  0  0
  179.5420  176.4420  136.6840 C   0  0  1  0  0  3  0  0  0  0  0  0
  180.8080  175.7090  136.2500 C   0  0  2  0  0  0  0  0  0  0  0  0
  181.0090  175.8930  134.7560 C   0  0  0  0  0  1  0  0  0  0  0  0
  180.5620  174.3140  138.9390 O   0  0  0  0  0  1  0  0  0  0  0  0
  180.5590  174.2960  136.5600 N   0  0  2  0  0  0  0  0  0  0  0  0
  179.7540  174.3020  137.7930 C   0  0  2  0  0  3  0  0  0  0  0  0
  178.9310  175.5780  137.7710 C   0  0  0  0  0  2  0  0  0  0  0  0
  181.9310  176.1920  136.9420 O   0  0  0  0  0  1  0  0  0  0  0  0
  181.7660  172.3480  135.7140 C   0  0  0  0  0  2  0  0  0  0  0  0
  181.4460  172.1050  137.1700 C   0  0  0  0  0  2  0  0  0  0  0  0
  181.7900  173.5070  136.6980 C   0  0  0  0  0  3  0  0  0  0  0  0
  185.3340  177.4810  144.3820 C   0  0  0  0  0  2  0  0  0  0  0  0
  186.4070  177.9550  145.1830 O   0  0  0  0  0  0  0  0  0  0  0  0
  185.3920  178.0420  147.3600 O   0  0  0  0  0  1  0  0  0  0  0  0
  186.4640  177.6910  146.5510 C   0  0  0  0  0  0  0  0  0  0  0  0
  187.4680  177.1200  147.0610 O   0  0  0  0  0  0  0  0  0  0  0  0
  186.1870  178.3000  138.3770 C   0  0  1  0  0  3  0  0  0  0  0  0
  186.8460  178.0820  135.9530 C   0  0  0  0  0  3  0  0  0  0  0  0
  186.8220  178.7740  137.0960 C   0  0  0  0  0  3  0  0  0  0  0  0
  186.2620  176.7410  135.7240 C   0  0  0  0  0  0  0  0  0  0  0  0
  187.0390  175.5650  135.9640 N   0  0  0  0  0  2  0  0  0  0  0  0
  185.0730  176.6140  135.3300 O   0  0  0  0  0  0  0  0  0  0  0  0
  188.3820  175.6080  136.5210 C   0  0  0  0  0  2  0  0  0  0  0  0
  188.9410  174.2050  136.6300 C   0  0  1  0  0  3  0  0  0  0  0  0
  187.5730  172.7390  135.3410 O   0  0  0  0  0  0  0  0  0  0  0  0
  187.8330  173.2110  136.4780 C   0  0  0  0  0  0  0  0  0  0  0  0
  187.0920  172.8030  137.5820 O   0  0  0  0  0  1  0  0  0  0  0  0
  190.0360  174.0130  135.5680 C   0  0  0  0  0  2  0  0  0  0  0  0
  194.8530  174.2010  134.8160 C   0  0  0  0  0  1  0  0  0  0  0  0
  193.6120  175.0300  135.0890 C   0  0  2  0  0  3  0  0  0  0  0  0
  193.0990  175.0100  137.5670 C   0  0  0  0  0  2  0  0  0  0  0  0
  191.6050  174.7640  137.2760 C   0  0  0  0  0  2  0  0  0  0  0  0
  191.2880  174.7370  135.8320 N   0  0  0  0  0  0  0  0  0  0  0  0
  193.7590  175.7750  136.4230 C   0  0  0  0  0  2  0  0  0  0  0  0
  192.3730  174.1300  135.0570 C   0  0  0  0  0  2  0  0  0  0  0  0
  186.9530  178.5920  139.5280 O   0  0  0  0  0  0  0  0  0  0  0  0
  188.3090  178.3050  139.2830 C   0  0  0  0  0  2  0  0  0  0  0  0
  189.1070  178.3840  140.5770 C   0  0  0  0  0  2  0  0  0  0  0  0
  190.1590  177.2870  140.6560 C   0  0  0  0  0  2  0  0  0  0  0  0
  190.6370  177.0750  142.0890 C   0  0  0  0  0  2  0  0  0  0  0  0
  190.7590  178.3980  142.8320 C   0  0  0  0  0  2  0  0  0  0  0  0
  189.8890  178.4250  143.9200 O   0  0  0  0  0  1  0  0  0  0  0  0
  1 15  1  0  0  0  0
  2  6  1  0  0  0  0
  3  8  2  0  0  0  0
  4 12  1  0  0  0  0
  5  1  1  0  0  0  0
  6 10  1  0  0  0  0
  8  5  1  0  0  0  0
  9  4  1  0  0  0  0
  9  3  2  0  0  0  0
 10 11  1  0  0  0  0
 10 38  1  1  0  0  0
 10  7  1  0  0  0  0
 11  7  1  1  0  0  0
 12  2  1  0  0  0  0
 14  4  2  0  0  0  0
 15 13  1  1  0  0  0
 15 11  1  0  0  0  0
 16 17  1  0  0  0  0
 16  9  1  0  0  0  0
 17 18  1  0  0  0  0
 19 18  1  0  0  0  0
 20 22  2  0  0  0  0
 21 19  1  1  0  0  0
 22 21  1  0  0  0  0
 22 26  1  0  0  0  0
 23 21  1  0  0  0  0
 24 20  1  0  0  0  0
 24 23  2  0  0  0  0
 25 23  1  0  0  0  0
 27 26  1  1  0  0  0
 27 33  1  0  0  0  0
 28 29  1  6  0  0  0
 28 31  1  0  0  0  0
 28 27  1  0  0  0  0
 28 34  1  0  0  0  0
 31 37  1  1  0  0  0
 31 32  1  0  0  0  0
 32 30  1  1  0  0  0
 33 32  1  0  0  0  0
 35 37  1  0  0  0  0
 35 36  1  0  0  0  0
 37 36  1  0  0  0  0
 38 39  1  0  0  0  0
 39 41  1  0  0  0  0
 41 42  2  0  0  0  0
 41 40  1  0  0  0  0
 43 45  1  6  0  0  0
 43 14  1  0  0  0  0
 43 62  1  0  0  0  0
 44 45  2  0  0  0  0
 46 44  1  0  0  0  0
 46 47  1  0  0  0  0
 47 49  1  0  0  0  0
 48 46  2  0  0  0  0
 49 50  1  0  0  0  0
 50 54  1  6  0  0  0
 51 52  2  0  0  0  0
 52 50  1  0  0  0  0
 52 53  1  0  0  0  0
 54 59  1  0  0  0  0
 56 55  1  1  0  0  0
 56 60  1  0  0  0  0
 58 57  1  0  0  0  0
 59 58  1  0  0  0  0
 60 57  1  0  0  0  0
 61 56  1  0  0  0  0
 61 59  1  0  0  0  0
 63 62  1  0  0  0  0
 63 64  1  0  0  0  0
 64 65  1  0  0  0  0
 65 66  1  0  0  0  0
 66 67  1  0  0  0  0
 67 68  1  0  0  0  0
M  END
>  <MODEL>
7

>  <REMARK>
 VINA RESULT:      -4.4      3.569      9.797
  Name = 
  24 active torsions:
  status: ('A' for Active; 'I' for Inactive)
    1  A    between atoms: C_1  and  C_38
    2  A    between atoms: C_1  and  O_52
    3  A    between atoms: C_2  and  C_4
    4  A    between atoms: C_3  and  N_61
    5  A    between atoms: C_5  and  C_35
    6  A    between atoms: C_5  and  N_42
    7  A    between atoms: C_10  and  C_31
    8  A    between atoms: C_10  and  C_58
    9  A    between atoms: C_16  and  C_18
   10  A    between atoms: C_16  and  C_25
   11  A    between atoms: C_18  and  C_27
   12  A    between atoms: C_22  and  C_33
   13  A    between atoms: C_27  and  C_33
   14  A    between atoms: C_29  and  O_52
   15  A    between atoms: C_31  and  C_34
   16  A    between atoms: C_32  and  C_58
   17  A    between atoms: C_34  and  O_56
   18  A    between atoms: C_35  and  C_37
   19  A    between atoms: C_35  and  C_47
   20  A    between atoms: N_36  and  C_67
   21  A    between atoms: C_37  and  N_60
   22  A    between atoms: C_55  and  C_57
   23  A    between atoms: O_56  and  C_57
   24  A    between atoms: C_57  and  C_64
                            x       y       z     vdW  Elec       q    Type
                         _______ _______ _______ _____ _____    ______ ____

>  <TORSDO>
F 24

$$$$
=
 OpenBabel11042412323D

 68 73  0  0  1  0  0  0  0  0999 V2000
  185.0450  178.6340  146.8890 C   0  0  0  0  0  2  0  0  0  0  0  0
  189.0790  177.1340  144.2450 C   0  0  0  0  0  2  0  0  0  0  0  0
  185.0380  177.8560  143.9430 C   0  0  0  0  0  0  0  0  0  0  0  0
  187.1260  177.6290  142.7380 C   0  0  0  0  0  0  0  0  0  0  0  0
  184.6860  177.2800  146.2880 C   0  0  0  0  0  2  0  0  0  0  0  0
  188.9770  178.2290  145.2980 C   0  0  0  0  0  2  0  0  0  0  0  0
  188.7610  178.7600  147.7310 C   0  0  0  0  0  2  0  0  0  0  0  0
  184.2330  177.4080  144.8710 C   0  0  0  0  0  3  0  0  0  0  0  0
  185.8460  178.3130  143.0230 C   0  0  0  0  0  0  0  0  0  0  0  0
  188.6560  177.6750  146.6900 C   0  0  1  0  0  0  0  0  0  0  0  0
  187.4130  178.1110  147.4530 C   0  0  2  0  0  3  0  0  0  0  0  0
  187.7090  176.6820  143.7620 C   0  0  0  0  0  2  0  0  0  0  0  0
  186.6820  180.3390  146.9050 F   0  0  0  0  0  0  0  0  0  0  0  0
  187.6850  177.7730  141.5280 C   0  0  0  0  0  3  0  0  0  0  0  0
  186.4930  179.0020  146.6130 C   0  0  2  0  0  3  0  0  0  0  0  0
  185.3370  179.4030  142.1380 C   0  0  0  0  0  2  0  0  0  0  0  0
  184.4600  178.8510  141.0190 C   0  0  0  0  0  2  0  0  0  0  0  0
  183.0430  178.5270  141.4910 C   0  0  0  0  0  2  0  0  0  0  0  0
  182.1460  179.7550  141.4600 C   0  0  0  0  0  2  0  0  0  0  0  0
  180.0090  177.2370  140.8620 N   0  0  0  0  0  0  0  0  0  0  0  0
  180.6960  179.3300  141.5720 C   0  0  1  0  0  3  0  0  0  0  0  0
  180.3200  178.4220  140.4500 C   0  0  0  0  0  0  0  0  0  0  0  0
  180.5230  178.3450  142.6760 C   0  0  0  0  0  0  0  0  0  0  0  0
  180.1260  177.1930  142.2530 N   0  0  0  0  0  0  0  0  0  0  0  0
  180.6880  178.6460  144.0600 N   0  0  0  0  0  1  0  0  0  0  0  0
  180.3160  178.8020  139.0710 N   0  0  0  0  0  2  0  0  0  0  0  0
  179.9050  177.8910  138.0080 C   0  0  1  0  0  3  0  0  0  0  0  0
  181.0490  177.5520  137.0560 C   0  0  2  0  0  0  0  0  0  0  0  0
  181.0020  178.4860  135.8590 C   0  0  0  0  0  1  0  0  0  0  0  0
  181.2050  174.9650  138.6450 O   0  0  0  0  0  1  0  0  0  0  0  0
  180.7990  176.1690  136.6330 N   0  0  2  0  0  0  0  0  0  0  0  0
  180.2140  175.4990  137.8070 C   0  0  2  0  0  3  0  0  0  0  0  0
  179.4520  176.5610  138.5790 C   0  0  0  0  0  2  0  0  0  0  0  0
  182.2910  177.6700  137.7010 O   0  0  0  0  0  1  0  0  0  0  0  0
  182.1590  175.7410  134.6490 C   0  0  0  0  0  2  0  0  0  0  0  0
  181.6070  174.4210  135.1330 C   0  0  0  0  0  2  0  0  0  0  0  0
  182.0030  175.4860  136.1400 C   0  0  0  0  0  3  0  0  0  0  0  0
  189.2830  176.3750  147.1700 C   0  0  0  0  0  2  0  0  0  0  0  0
  190.5760  176.6150  147.7070 O   0  0  0  0  0  0  0  0  0  0  0  0
  192.8040  175.7150  147.7550 O   0  0  0  0  0  1  0  0  0  0  0  0
  191.7290  176.2120  147.0330 C   0  0  0  0  0  0  0  0  0  0  0  0
  191.7990  176.2760  145.7740 O   0  0  0  0  0  0  0  0  0  0  0  0
  188.9450  177.0740  141.1000 C   0  0  1  0  0  3  0  0  0  0  0  0
  188.6680  177.1140  138.5930 C   0  0  0  0  0  3  0  0  0  0  0  0
  188.8330  176.4420  139.7370 C   0  0  0  0  0  3  0  0  0  0  0  0
  188.5690  178.5830  138.4430 C   0  0  0  0  0  0  0  0  0  0  0  0
  188.1710  179.1560  137.1960 N   0  0  0  0  0  2  0  0  0  0  0  0
  188.8180  179.3490  139.4120 O   0  0  0  0  0  0  0  0  0  0  0  0
  187.7610  178.3510  136.0540 C   0  0  0  0  0  2  0  0  0  0  0  0
  187.0690  177.0930  136.5330 C   0  0  1  0  0  3  0  0  0  0  0  0
  185.2110  177.1020  138.0280 O   0  0  0  0  0  1  0  0  0  0  0  0
  185.6490  177.4060  136.8880 C   0  0  0  0  0  0  0  0  0  0  0  0
  184.8130  178.0320  135.9700 O   0  0  0  0  0  0  0  0  0  0  0  0
  187.1640  176.0160  135.4390 C   0  0  0  0  0  2  0  0  0  0  0  0
  191.1180  173.3800  136.5420 C   0  0  0  0  0  1  0  0  0  0  0  0
  189.6420  173.5720  136.8330 C   0  0  2  0  0  3  0  0  0  0  0  0
  188.2630  172.4070  135.0600 C   0  0  0  0  0  2  0  0  0  0  0  0
  187.3370  173.6350  134.9450 C   0  0  0  0  0  2  0  0  0  0  0  0
  187.6810  174.7170  135.8930 N   0  0  0  0  0  0  0  0  0  0  0  0
  188.8620  172.3050  136.4600 C   0  0  0  0  0  2  0  0  0  0  0  0
  189.1290  174.8120  136.0940 C   0  0  0  0  0  2  0  0  0  0  0  0
  190.0970  177.8770  141.2560 O   0  0  0  0  0  0  0  0  0  0  0  0
  191.2520  177.0760  141.1650 C   0  0  0  0  0  2  0  0  0  0  0  0
  192.4140  177.8880  140.6130 C   0  0  0  0  0  2  0  0  0  0  0  0
  193.2650  177.0700  139.6520 C   0  0  0  0  0  2  0  0  0  0  0  0
  192.4410  176.5590  138.4740 C   0  0  0  0  0  2  0  0  0  0  0  0
  193.3360  176.0910  137.3350 C   0  0  0  0  0  2  0  0  0  0  0  0
  194.5540  175.6300  137.8330 O   0  0  0  0  0  1  0  0  0  0  0  0
  2  6  1  0  0  0  0
  3  8  2  0  0  0  0
  4  9  1  0  0  0  0
  4 12  1  0  0  0  0
  5  1  1  0  0  0  0
  6 10  1  0  0  0  0
  8  5  1  0  0  0  0
  9  3  2  0  0  0  0
 10 38  1  1  0  0  0
 10 11  1  0  0  0  0
 10  7  1  0  0  0  0
 11  7  1  1  0  0  0
 12  2  1  0  0  0  0
 14  4  2  0  0  0  0
 15  1  1  0  0  0  0
 15 13  1  1  0  0  0
 15 11  1  0  0  0  0
 16  9  1  0  0  0  0
 17 18  1  0  0  0  0
 17 16  1  0  0  0  0
 19 18  1  0  0  0  0
 20 24  1  0  0  0  0
 21 19  1  6  0  0  0
 21 23  1  0  0  0  0
 22 20  2  0  0  0  0
 22 21  1  0  0  0  0
 23 25  1  0  0  0  0
 24 23  2  0  0  0  0
 26 22  1  0  0  0  0
 27 33  1  0  0  0  0
 27 26  1  1  0  0  0
 28 29  1  6  0  0  0
 28 34  1  0  0  0  0
 28 27  1  0  0  0  0
 31 37  1  1  0  0  0
 31 28  1  0  0  0  0
 31 32  1  0  0  0  0
 32 33  1  0  0  0  0
 32 30  1  1  0  0  0
 35 36  1  0  0  0  0
 35 37  1  0  0  0  0
 36 37  1  0  0  0  0
 38 39  1  0  0  0  0
 41 39  1  0  0  0  0
 41 40  1  0  0  0  0
 42 41  2  0  0  0  0
 43 45  1  6  0  0  0
 43 62  1  0  0  0  0
 43 14  1  0  0  0  0
 44 45  2  0  0  0  0
 46 44  1  0  0  0  0
 46 48  2  0  0  0  0
 47 46  1  0  0  0  0
 49 50  1  0  0  0  0
 49 47  1  0  0  0  0
 50 54  1  6  0  0  0
 50 52  1  0  0  0  0
 52 51  1  0  0  0  0
 53 52  2  0  0  0  0
 54 59  1  0  0  0  0
 56 55  1  6  0  0  0
 57 60  1  0  0  0  0
 58 57  1  0  0  0  0
 58 59  1  0  0  0  0
 59 61  1  0  0  0  0
 60 56  1  0  0  0  0
 61 56  1  0  0  0  0
 63 62  1  0  0  0  0
 64 63  1  0  0  0  0
 65 64  1  0  0  0  0
 66 65  1  0  0  0  0
 67 68  1  0  0  0  0
 67 66  1  0  0  0  0
M  END
>  <MODEL>
8

>  <REMARK>
 VINA RESULT:      -4.2      3.313     10.553
  Name = 
  24 active torsions:
  status: ('A' for Active; 'I' for Inactive)
    1  A    between atoms: C_1  and  C_38
    2  A    between atoms: C_1  and  O_52
    3  A    between atoms: C_2  and  C_4
    4  A    between atoms: C_3  and  N_61
    5  A    between atoms: C_5  and  C_35
    6  A    between atoms: C_5  and  N_42
    7  A    between atoms: C_10  and  C_31
    8  A    between atoms: C_10  and  C_58
    9  A    between atoms: C_16  and  C_18
   10  A    between atoms: C_16  and  C_25
   11  A    between atoms: C_18  and  C_27
   12  A    between atoms: C_22  and  C_33
   13  A    between atoms: C_27  and  C_33
   14  A    between atoms: C_29  and  O_52
   15  A    between atoms: C_31  and  C_34
   16  A    between atoms: C_32  and  C_58
   17  A    between atoms: C_34  and  O_56
   18  A    between atoms: C_35  and  C_37
   19  A    between atoms: C_35  and  C_47
   20  A    between atoms: N_36  and  C_67
   21  A    between atoms: C_37  and  N_60
   22  A    between atoms: C_55  and  C_57
   23  A    between atoms: O_56  and  C_57
   24  A    between atoms: C_57  and  C_64
                            x       y       z     vdW  Elec       q    Type
                         _______ _______ _______ _____ _____    ______ ____

>  <TORSDO>
F 24

$$$$
=
 OpenBabel11042412323D

 68 73  0  0  1  0  0  0  0  0999 V2000
  187.7290  177.7830  146.7130 C   0  0  0  0  0  2  0  0  0  0  0  0
  189.2510  177.3680  141.9150 C   0  0  0  0  0  2  0  0  0  0  0  0
  185.8950  177.6050  144.2870 C   0  0  0  0  0  0  0  0  0  0  0  0
  186.7950  177.8930  142.0560 C   0  0  0  0  0  0  0  0  0  0  0  0
  187.0500  176.5390  146.1520 C   0  0  0  0  0  2  0  0  0  0  0  0
  189.8400  178.2120  143.0370 C   0  0  0  0  0  2  0  0  0  0  0  0
  191.1780  178.2210  145.1480 C   0  0  0  0  0  2  0  0  0  0  0  0
  185.8240  176.8840  145.3740 C   0  0  0  0  0  3  0  0  0  0  0  0
  185.9750  178.3360  143.2050 C   0  0  0  0  0  0  0  0  0  0  0  0
  190.4340  177.3570  144.1620 C   0  0  1  0  0  0  0  0  0  0  0  0
  189.9310  177.4700  145.5950 C   0  0  2  0  0  3  0  0  0  0  0  0
  187.8650  176.8470  142.2650 C   0  0  0  0  0  2  0  0  0  0  0  0
  189.0620  179.6480  146.1410 F   0  0  0  0  0  0  0  0  0  0  0  0
  186.4930  178.3430  140.8300 C   0  0  0  0  0  3  0  0  0  0  0  0
  188.7080  178.3820  145.7170 C   0  0  2  0  0  3  0  0  0  0  0  0
  185.0500  179.5030  143.0910 C   0  0  0  0  0  2  0  0  0  0  0  0
  183.9410  179.2420  142.0780 C   0  0  0  0  0  2  0  0  0  0  0  0
  182.5930  178.9630  142.7430 C   0  0  0  0  0  2  0  0  0  0  0  0
  181.6530  180.1520  142.6250 C   0  0  0  0  0  2  0  0  0  0  0  0
  179.8750  177.5630  141.4400 N   0  0  0  0  0  0  0  0  0  0  0  0
  180.2470  179.6630  142.3390 C   0  0  1  0  0  3  0  0  0  0  0  0
  180.2260  178.7710  141.1450 C   0  0  0  0  0  0  0  0  0  0  0  0
  179.8350  178.6410  143.3430 C   0  0  0  0  0  0  0  0  0  0  0  0
  179.6210  177.4850  142.8120 N   0  0  0  0  0  0  0  0  0  0  0  0
  179.6120  178.9100  144.7250 N   0  0  0  0  0  1  0  0  0  0  0  0
  180.5700  179.1880  139.8200 N   0  0  0  0  0  2  0  0  0  0  0  0
  180.5010  178.2910  138.6720 C   0  0  1  0  0  3  0  0  0  0  0  0
  181.4630  178.6950  137.5570 C   0  0  2  0  0  0  0  0  0  0  0  0
  180.7270  179.5550  136.5450 C   0  0  0  0  0  1  0  0  0  0  0  0
  183.2100  176.4680  138.6680 O   0  0  0  0  0  1  0  0  0  0  0  0
  181.8870  177.4320  136.9410 N   0  0  2  0  0  0  0  0  0  0  0  0
  181.9530  176.4590  138.0440 C   0  0  2  0  0  3  0  0  0  0  0  0
  180.9080  176.8820  139.0610 C   0  0  0  0  0  2  0  0  0  0  0  0
  182.5610  179.4030  138.0730 O   0  0  0  0  0  1  0  0  0  0  0  0
  182.9130  177.3410  134.7250 C   0  0  0  0  0  2  0  0  0  0  0  0
  183.4820  176.2120  135.5520 C   0  0  0  0  0  2  0  0  0  0  0  0
  183.1580  177.5410  136.2120 C   0  0  0  0  0  3  0  0  0  0  0  0
  191.1970  176.0810  143.8460 C   0  0  0  0  0  2  0  0  0  0  0  0
  192.2940  175.9240  144.7360 O   0  0  0  0  0  0  0  0  0  0  0  0
  192.5810  173.5570  145.0330 O   0  0  0  0  0  0  0  0  0  0  0  0
  192.3920  174.8180  145.5790 C   0  0  0  0  0  0  0  0  0  0  0  0
  192.3300  174.9510  146.8330 O   0  0  0  0  0  1  0  0  0  0  0  0
  187.2090  177.9120  139.5810 C   0  0  1  0  0  3  0  0  0  0  0  0
  186.4260  177.7260  137.1910 C   0  0  0  0  0  3  0  0  0  0  0  0
  186.2710  177.4600  138.4910 C   0  0  0  0  0  3  0  0  0  0  0  0
  187.5290  178.4970  136.5760 C   0  0  0  0  0  0  0  0  0  0  0  0
  188.4200  177.8700  135.6510 N   0  0  0  0  0  2  0  0  0  0  0  0
  187.6920  179.7170  136.8450 O   0  0  0  0  0  0  0  0  0  0  0  0
  188.2480  176.4980  135.1980 C   0  0  0  0  0  2  0  0  0  0  0  0
  189.1170  175.5700  136.0200 C   0  0  1  0  0  3  0  0  0  0  0  0
  187.1240  174.2620  136.0590 O   0  0  0  0  0  0  0  0  0  0  0  0
  188.3270  174.3620  136.4150 C   0  0  0  0  0  0  0  0  0  0  0  0
  188.9130  173.3490  137.1660 O   0  0  0  0  0  1  0  0  0  0  0  0
  190.3690  175.1990  135.2080 C   0  0  0  0  0  2  0  0  0  0  0  0
  195.0100  176.6420  135.6270 C   0  0  0  0  0  1  0  0  0  0  0  0
  193.7860  176.1830  136.3950 C   0  0  2  0  0  3  0  0  0  0  0  0
  193.6410  173.6570  136.3440 C   0  0  0  0  0  2  0  0  0  0  0  0
  192.1330  173.7300  136.0280 C   0  0  0  0  0  2  0  0  0  0  0  0
  191.6110  175.1130  135.9890 N   0  0  0  0  0  0  0  0  0  0  0  0
  194.0910  174.8780  137.1420 C   0  0  0  0  0  2  0  0  0  0  0  0
  192.5990  176.0440  135.4370 C   0  0  0  0  0  2  0  0  0  0  0  0
  188.1680  178.8540  139.1450 O   0  0  0  0  0  0  0  0  0  0  0  0
  189.4550  178.4400  139.5380 C   0  0  0  0  0  2  0  0  0  0  0  0
  190.0110  177.4310  138.5450 C   0  0  0  0  0  2  0  0  0  0  0  0
  191.1880  176.6600  139.1260 C   0  0  0  0  0  2  0  0  0  0  0  0
  192.0510  177.5480  140.0160 C   0  0  0  0  0  2  0  0  0  0  0  0
  193.1750  176.7530  140.6660 C   0  0  0  0  0  2  0  0  0  0  0  0
  194.4130  177.2030  140.2130 O   0  0  0  0  0  1  0  0  0  0  0  0
  2 12  1  0  0  0  0
  2  6  1  0  0  0  0
  3  8  2  0  0  0  0
  4 12  1  0  0  0  0
  4  9  1  0  0  0  0
  5  1  1  0  0  0  0
  6 10  1  0  0  0  0
  8  5  1  0  0  0  0
  9  3  2  0  0  0  0
 10 38  1  6  0  0  0
 10  7  1  0  0  0  0
 10 11  1  0  0  0  0
 11  7  1  1  0  0  0
 11 15  1  0  0  0  0
 14  4  2  0  0  0  0
 15 13  1  1  0  0  0
 15  1  1  0  0  0  0
 16  9  1  0  0  0  0
 17 18  1  0  0  0  0
 17 16  1  0  0  0  0
 19 18  1  0  0  0  0
 20 24  1  0  0  0  0
 21 19  1  1  0  0  0
 21 23  1  0  0  0  0
 22 20  2  0  0  0  0
 22 21  1  0  0  0  0
 23 25  1  0  0  0  0
 24 23  2  0  0  0  0
 26 22  1  0  0  0  0
 27 33  1  0  0  0  0
 27 26  1  1  0  0  0
 28 29  1  6  0  0  0
 28 34  1  0  0  0  0
 28 27  1  0  0  0  0
 31 37  1  1  0  0  0
 31 28  1  0  0  0  0
 31 32  1  0  0  0  0
 32 30  1  1  0  0  0
 32 33  1  0  0  0  0
 35 36  1  0  0  0  0
 35 37  1  0  0  0  0
 36 37  1  0  0  0  0
 38 39  1  0  0  0  0
 39 41  1  0  0  0  0
 40 41  2  0  0  0  0
 41 42  1  0  0  0  0
 43 45  1  6  0  0  0
 43 14  1  0  0  0  0
 44 45  2  0  0  0  0
 46 48  2  0  0  0  0
 46 44  1  0  0  0  0
 47 46  1  0  0  0  0
 49 47  1  0  0  0  0
 50 49  1  6  0  0  0
 50 52  1  0  0  0  0
 51 52  2  0  0  0  0
 52 53  1  0  0  0  0
 54 59  1  0  0  0  0
 54 50  1  0  0  0  0
 56 55  1  6  0  0  0
 56 60  1  0  0  0  0
 57 60  1  0  0  0  0
 58 57  1  0  0  0  0
 59 58  1  0  0  0  0
 61 59  1  0  0  0  0
 61 56  1  0  0  0  0
 62 63  1  0  0  0  0
 62 43  1  0  0  0  0
 64 65  1  0  0  0  0
 64 63  1  0  0  0  0
 65 66  1  0  0  0  0
 66 67  1  0  0  0  0
 68 67  1  0  0  0  0
M  END
>  <MODEL>
9

>  <REMARK>
 VINA RESULT:      -3.7      3.398     10.568
  Name = 
  24 active torsions:
  status: ('A' for Active; 'I' for Inactive)
    1  A    between atoms: C_1  and  C_38
    2  A    between atoms: C_1  and  O_52
    3  A    between atoms: C_2  and  C_4
    4  A    between atoms: C_3  and  N_61
    5  A    between atoms: C_5  and  C_35
    6  A    between atoms: C_5  and  N_42
    7  A    between atoms: C_10  and  C_31
    8  A    between atoms: C_10  and  C_58
    9  A    between atoms: C_16  and  C_18
   10  A    between atoms: C_16  and  C_25
   11  A    between atoms: C_18  and  C_27
   12  A    between atoms: C_22  and  C_33
   13  A    between atoms: C_27  and  C_33
   14  A    between atoms: C_29  and  O_52
   15  A    between atoms: C_31  and  C_34
   16  A    between atoms: C_32  and  C_58
   17  A    between atoms: C_34  and  O_56
   18  A    between atoms: C_35  and  C_37
   19  A    between atoms: C_35  and  C_47
   20  A    between atoms: N_36  and  C_67
   21  A    between atoms: C_37  and  N_60
   22  A    between atoms: C_55  and  C_57
   23  A    between atoms: O_56  and  C_57
   24  A    between atoms: C_57  and  C_64
                            x       y       z     vdW  Elec       q    Type
                         _______ _______ _______ _____ _____    ______ ____

>  <TORSDO>
F 24

$$$$
