=
 OpenBabel11042412233D

 44 49  0  0  1  0  0  0  0  0999 V2000
  193.9430  176.2450  137.5410 N   0  0  0  0  0  0  0  0  0  0  0  0
  189.2300  176.8100  138.6380 C   0  0  0  0  0  0  0  0  0  0  0  0
  191.2430  177.1350  141.0810 C   0  0  0  0  0  3  0  0  0  0  0  0
  192.6210  176.3600  137.6940 C   0  0  0  0  0  0  0  0  0  0  0  0
  188.9990  177.1090  139.9870 C   0  0  0  0  0  3  0  0  0  0  0  0
  191.7500  176.6180  138.7170 C   0  0  0  0  0  0  0  0  0  0  0  0
  194.0290  175.9930  136.2000 C   0  0  0  0  0  0  0  0  0  0  0  0
  190.6620  176.3530  136.7700 O   0  0  0  0  0  0  0  0  0  0  0  0
  192.7840  175.9700  135.5310 C   0  0  0  0  0  3  0  0  0  0  0  0
  190.4960  176.5980  138.0740 C   0  0  0  0  0  0  0  0  0  0  0  0
  191.9470  176.2150  136.5830 C   0  0  0  0  0  0  0  0  0  0  0  0
  192.1010  176.8480  140.0330 C   0  0  0  0  0  3  0  0  0  0  0  0
  189.8580  177.2600  141.0740 C   0  0  0  0  0  0  0  0  0  0  0  0
  182.8460  175.1610  137.2190 C   0  0  0  0  0  0  0  0  0  0  0  0
  185.2420  175.7630  136.9000 C   0  0  0  0  0  0  0  0  0  0  0  0
  187.3290  177.9740  137.3960 C   0  0  0  0  0  3  0  0  0  0  0  0
  186.5480  175.3410  136.3140 C   0  0  0  0  0  2  0  0  0  0  0  0
  181.9560  174.2750  137.3100 O   0  0  0  0  0  0  0  0  0  0  0  0
  188.0330  176.7230  137.7660 C   0  0  0  0  0  0  0  0  0  0  0  0
  184.2040  174.7810  136.9920 N   0  0  0  0  0  0  0  0  0  0  0  0
  186.0180  178.1130  137.1670 C   0  0  0  0  0  3  0  0  0  0  0  0
  184.9960  177.0480  137.2310 C   0  0  2  0  0  3  0  0  0  0  0  0
  187.6660  175.5290  137.2830 C   0  0  0  0  0  3  0  0  0  0  0  0
  182.4960  176.6230  137.2340 C   0  0  2  0  0  3  0  0  0  0  0  0
  183.6590  177.4440  137.7990 C   0  0  0  0  0  2  0  0  0  0  0  0
  180.2110  177.3110  137.4050 O   0  0  0  0  0  0  0  0  0  0  0  0
  181.2430  176.9020  138.0050 C   0  0  0  0  0  0  0  0  0  0  0  0
  181.2500  176.7150  139.3940 O   0  0  0  0  0  0  0  0  0  0  0  0
  181.4290  178.8740  140.2470 O   0  0  0  0  0  0  0  0  0  0  0  0
  180.9560  177.7090  140.3350 C   0  0  0  0  0  3  0  0  0  0  0  0
  189.2390  177.5680  142.3320 C   0  0  0  0  0  0  0  0  0  0  0  0
  188.7220  177.8300  143.3900 C   0  0  0  0  0  0  0  0  0  0  0  0
  186.8090  177.3540  144.8450 C   0  0  0  0  0  2  0  0  0  0  0  0
  189.2890  177.8660  148.3000 C   0  0  0  0  0  1  0  0  0  0  0  0
  188.4030  177.4880  147.1330 C   0  0  2  0  0  3  0  0  0  0  0  0
  189.0850  177.8810  145.8160 C   0  0  0  0  0  2  0  0  0  0  0  0
  187.0380  178.1550  147.2750 C   0  0  0  0  0  2  0  0  0  0  0  0
  188.0960  178.1540  144.6730 C   0  0  1  0  0  3  0  0  0  0  0  0
  186.0860  177.7410  146.1440 C   0  0  0  0  0  2  0  0  0  0  0  0
  195.3370  175.8110  135.5060 C   0  0  0  0  0  2  0  0  0  0  0  0
  196.6400  173.2850  136.0020 C   0  0  0  0  0  1  0  0  0  0  0  0
  198.0920  174.5190  137.7250 C   0  0  0  0  0  1  0  0  0  0  0  0
  197.0040  174.5560  136.7080 C   0  0  0  0  0  0  0  0  0  0  0  0
  196.3980  175.6700  136.4750 N   0  0  0  0  0  0  0  0  0  0  0  0
  1  4  1  0  0  0  0
  2  5  1  0  0  0  0
  4  6  2  0  0  0  0
  5 13  2  0  0  0  0
  6 12  1  0  0  0  0
  7  1  2  0  0  0  0
  8 10  1  0  0  0  0
  9  7  1  0  0  0  0
  9 11  2  0  0  0  0
 10  2  2  0  0  0  0
 10  6  1  0  0  0  0
 11  8  1  0  0  0  0
 11  4  1  0  0  0  0
 12  3  2  0  0  0  0
 13  3  1  0  0  0  0
 13 31  1  0  0  0  0
 14 24  1  0  0  0  0
 14 18  2  0  0  0  0
 15 20  2  0  0  0  0
 15 22  1  0  0  0  0
 16 19  1  0  0  0  0
 17 15  1  0  0  0  0
 17 23  1  0  0  0  0
 19  2  1  0  0  0  0
 20 14  1  0  0  0  0
 21 16  2  0  0  0  0
 22 21  1  1  0  0  0
 22 25  1  0  0  0  0
 23 19  2  0  0  0  0
 24 25  1  0  0  0  0
 24 27  1  1  0  0  0
 26 27  2  0  0  0  0
 27 28  1  0  0  0  0
 28 30  1  0  0  0  0
 29 30  2  0  0  0  0
 31 32  3  0  0  0  0
 33 39  1  0  0  0  0
 35 37  1  0  0  0  0
 35 34  1  1  0  0  0
 36 35  1  0  0  0  0
 38 32  1  6  0  0  0
 38 33  1  0  0  0  0
 38 36  1  0  0  0  0
 39 37  1  0  0  0  0
 40  7  1  0  0  0  0
 40 44  1  0  0  0  0
 41 43  1  0  0  0  0
 43 42  1  0  0  0  0
 44 43  2  0  0  0  0
M  END
>  <MODEL>
1

>  <REMARK>
 VINA RESULT:      -8.8      0.000      0.000
  Name = 
  8 active torsions:
  status: ('A' for Active; 'I' for Inactive)
    1  A    between atoms: C_3  and  C_22
    2  A    between atoms: O_4  and  C_30
    3  A    between atoms: O_4  and  C_39
    4  A    between atoms: C_10  and  C_41
    5  A    between atoms: C_11  and  C_24
    6  A    between atoms: C_11  and  N_43
    7  A    between atoms: C_30  and  C_38
    8  A    between atoms: C_34  and  C_42
                            x       y       z     vdW  Elec       q    Type
                         _______ _______ _______ _____ _____    ______ ____

>  <TORSDO>
F 8

$$$$
=
 OpenBabel11042412233D

 44 49  0  0  1  0  0  0  0  0999 V2000
  189.0140  178.0900  143.3320 N   0  0  0  0  0  0  0  0  0  0  0  0
  187.1640  177.8100  138.8340 C   0  0  0  0  0  0  0  0  0  0  0  0
  185.2910  179.2140  140.9890 C   0  0  0  0  0  3  0  0  0  0  0  0
  188.6340  177.9310  142.0610 C   0  0  0  0  0  0  0  0  0  0  0  0
  185.8930  178.3850  138.7120 C   0  0  0  0  0  3  0  0  0  0  0  0
  187.5410  178.2350  141.2980 C   0  0  0  0  0  0  0  0  0  0  0  0
  190.2600  177.5260  143.3030 C   0  0  0  0  0  0  0  0  0  0  0  0
  189.1330  177.2310  140.0730 O   0  0  0  0  0  0  0  0  0  0  0  0
  190.6520  177.0430  142.0340 C   0  0  0  0  0  3  0  0  0  0  0  0
  187.9060  177.7590  140.0220 C   0  0  0  0  0  0  0  0  0  0  0  0
  189.5330  177.3510  141.3100 C   0  0  0  0  0  0  0  0  0  0  0  0
  186.4000  178.8730  141.7450 C   0  0  0  0  0  3  0  0  0  0  0  0
  185.0540  179.0070  139.6340 C   0  0  0  0  0  0  0  0  0  0  0  0
  192.1830  175.4060  135.0230 C   0  0  0  0  0  0  0  0  0  0  0  0
  189.9830  176.3820  135.6650 C   0  0  0  0  0  0  0  0  0  0  0  0
  187.3920  175.8320  137.2360 C   0  0  0  0  0  3  0  0  0  0  0  0
  189.0590  177.5430  135.5030 C   0  0  0  0  0  2  0  0  0  0  0  0
  193.3710  175.5740  134.6420 O   0  0  0  0  0  0  0  0  0  0  0  0
  187.7450  177.2250  137.6000 C   0  0  0  0  0  0  0  0  0  0  0  0
  191.3340  176.5380  135.2170 N   0  0  0  0  0  0  0  0  0  0  0  0
  188.1710  174.9530  136.5960 C   0  0  0  0  0  3  0  0  0  0  0  0
  189.5470  175.1860  136.1120 C   0  0  2  0  0  3  0  0  0  0  0  0
  188.5130  177.9920  136.8170 C   0  0  0  0  0  3  0  0  0  0  0  0
  191.5980  174.0290  135.1740 C   0  0  2  0  0  3  0  0  0  0  0  0
  190.5020  174.0290  136.2420 C   0  0  0  0  0  2  0  0  0  0  0  0
  193.0780  172.2410  134.5940 O   0  0  0  0  0  0  0  0  0  0  0  0
  192.6380  173.0020  135.4990 C   0  0  0  0  0  0  0  0  0  0  0  0
  193.0910  172.8960  136.8210 O   0  0  0  0  0  0  0  0  0  0  0  0
  194.2300  174.5720  137.9660 O   0  0  0  0  0  0  0  0  0  0  0  0
  194.2570  173.4930  137.3160 C   0  0  0  0  0  3  0  0  0  0  0  0
  183.7960  179.4780  139.1290 C   0  0  0  0  0  0  0  0  0  0  0  0
  182.7380  179.8770  138.7070 C   0  0  0  0  0  0  0  0  0  0  0  0
  181.4500  181.8900  138.1630 C   0  0  0  0  0  2  0  0  0  0  0  0
  179.5870  179.8340  134.8980 C   0  0  0  0  0  1  0  0  0  0  0  0
  180.3370  180.6750  135.9090 C   0  0  2  0  0  3  0  0  0  0  0  0
  181.1860  179.7680  136.8090 C   0  0  0  0  0  2  0  0  0  0  0  0
  179.3550  181.5100  136.7260 C   0  0  0  0  0  2  0  0  0  0  0  0
  181.4540  180.3650  138.1990 C   0  0  1  0  0  3  0  0  0  0  0  0
  180.0830  182.4290  137.7180 C   0  0  0  0  0  2  0  0  0  0  0  0
  191.1410  177.4800  144.5070 C   0  0  0  0  0  2  0  0  0  0  0  0
  191.6770  176.0680  146.9650 C   0  0  0  0  0  1  0  0  0  0  0  0
  189.7250  177.3820  147.9950 C   0  0  0  0  0  1  0  0  0  0  0  0
  190.5860  177.0840  146.8160 C   0  0  0  0  0  0  0  0  0  0  0  0
  190.3600  177.6930  145.7020 N   0  0  0  0  0  0  0  0  0  0  0  0
  2 10  2  0  0  0  0
  3 12  2  0  0  0  0
  4  1  1  0  0  0  0
  5  2  1  0  0  0  0
  5 13  2  0  0  0  0
  6 12  1  0  0  0  0
  6  4  2  0  0  0  0
  7  1  2  0  0  0  0
  7 40  1  0  0  0  0
  8 11  1  0  0  0  0
  9  7  1  0  0  0  0
 10  8  1  0  0  0  0
 10  6  1  0  0  0  0
 11  9  2  0  0  0  0
 11  4  1  0  0  0  0
 13  3  1  0  0  0  0
 14 24  1  0  0  0  0
 14 20  1  0  0  0  0
 15 22  1  0  0  0  0
 16 19  1  0  0  0  0
 17 15  1  0  0  0  0
 17 23  1  0  0  0  0
 18 14  2  0  0  0  0
 19  2  1  0  0  0  0
 20 15  2  0  0  0  0
 21 16  2  0  0  0  0
 22 25  1  1  0  0  0
 22 21  1  0  0  0  0
 23 19  2  0  0  0  0
 24 27  1  1  0  0  0
 24 25  1  0  0  0  0
 26 27  2  0  0  0  0
 27 28  1  0  0  0  0
 28 30  1  0  0  0  0
 30 29  2  0  0  0  0
 31 13  1  0  0  0  0
 32 31  3  0  0  0  0
 33 38  1  0  0  0  0
 35 34  1  6  0  0  0
 35 37  1  0  0  0  0
 35 36  1  0  0  0  0
 36 38  1  0  0  0  0
 37 39  1  0  0  0  0
 38 32  1  6  0  0  0
 39 33  1  0  0  0  0
 40 44  1  0  0  0  0
 43 41  1  0  0  0  0
 43 42  1  0  0  0  0
 44 43  2  0  0  0  0
M  END
>  <MODEL>
2

>  <REMARK>
 VINA RESULT:      -8.0      3.714      9.289
  Name = 
  8 active torsions:
  status: ('A' for Active; 'I' for Inactive)
    1  A    between atoms: C_3  and  C_22
    2  A    between atoms: O_4  and  C_30
    3  A    between atoms: O_4  and  C_39
    4  A    between atoms: C_10  and  C_41
    5  A    between atoms: C_11  and  C_24
    6  A    between atoms: C_11  and  N_43
    7  A    between atoms: C_30  and  C_38
    8  A    between atoms: C_34  and  C_42
                            x       y       z     vdW  Elec       q    Type
                         _______ _______ _______ _____ _____    ______ ____

>  <TORSDO>
F 8

$$$$
=
 OpenBabel11042412233D

 44 49  0  0  1  0  0  0  0  0999 V2000
  186.7360  175.2040  135.4040 N   0  0  0  0  0  0  0  0  0  0  0  0
  190.1900  176.2410  138.6790 C   0  0  0  0  0  0  0  0  0  0  0  0
  191.0740  174.2590  136.3530 C   0  0  0  0  0  3  0  0  0  0  0  0
  187.5730  175.5680  136.3790 C   0  0  0  0  0  0  0  0  0  0  0  0
  191.4180  175.6210  138.4160 C   0  0  0  0  0  3  0  0  0  0  0  0
  188.8730  175.3220  136.7260 C   0  0  0  0  0  0  0  0  0  0  0  0
  185.6090  175.8940  135.7570 C   0  0  0  0  0  0  0  0  0  0  0  0
  187.9030  176.7480  138.1650 O   0  0  0  0  0  0  0  0  0  0  0  0
  185.7520  176.6850  136.9190 C   0  0  0  0  0  3  0  0  0  0  0  0
  189.0410  176.1000  137.8890 C   0  0  0  0  0  0  0  0  0  0  0  0
  187.0500  176.4010  137.2400 C   0  0  0  0  0  0  0  0  0  0  0  0
  189.7490  174.5060  136.0360 C   0  0  0  0  0  3  0  0  0  0  0  0
  191.8330  174.7540  137.4070 C   0  0  0  0  0  0  0  0  0  0  0  0
  188.7870  177.6050  145.1330 C   0  0  0  0  0  0  0  0  0  0  0  0
  189.2730  177.9450  142.7140 C   0  0  0  0  0  0  0  0  0  0  0  0
  191.4020  177.5140  140.5300 C   0  0  0  0  0  3  0  0  0  0  0  0
  188.7770  178.5200  141.4300 C   0  0  0  0  0  2  0  0  0  0  0  0
  187.9440  177.4880  146.0610 O   0  0  0  0  0  0  0  0  0  0  0  0
  190.1320  177.1090  139.8810 C   0  0  0  0  0  0  0  0  0  0  0  0
  188.3410  177.8230  143.7950 N   0  0  0  0  0  2  0  0  0  0  0  0
  191.5930  177.7450  141.8340 C   0  0  0  0  0  3  0  0  0  0  0  0
  190.5760  177.6490  142.9020 C   0  0  0  0  0  0  0  0  0  0  0  0
  188.9430  177.5580  140.3020 C   0  0  0  0  0  3  0  0  0  0  0  0
  190.2630  177.6320  145.4180 C   0  0  2  0  0  3  0  0  0  0  0  0
  191.0470  177.0920  144.2190 C   0  0  0  0  0  2  0  0  0  0  0  0
  189.9220  176.9980  147.7000 O   0  0  0  0  0  0  0  0  0  0  0  0
  190.6190  176.8670  146.6550 C   0  0  0  0  0  0  0  0  0  0  0  0
  191.7400  176.0270  146.6300 O   0  0  0  0  0  0  0  0  0  0  0  0
  193.1150  176.2220  148.4980 O   0  0  0  0  0  0  0  0  0  0  0  0
  192.3760  175.5110  147.7650 C   0  0  0  0  0  3  0  0  0  0  0  0
  193.1980  174.3130  137.4730 C   0  0  0  0  0  0  0  0  0  0  0  0
  194.3450  173.9440  137.5240 C   0  0  0  0  0  0  0  0  0  0  0  0
  196.3250  173.4260  136.1750 C   0  0  0  0  0  2  0  0  0  0  0  0
  198.8570  174.9200  139.2910 C   0  0  0  0  0  1  0  0  0  0  0  0
  198.0270  174.5530  138.0810 C   0  0  2  0  0  3  0  0  0  0  0  0
  196.5490  174.4470  138.4800 C   0  0  0  0  0  2  0  0  0  0  0  0
  198.5350  173.2490  137.4730 C   0  0  0  0  0  2  0  0  0  0  0  0
  195.7390  173.5000  137.5820 C   0  0  1  0  0  3  0  0  0  0  0  0
  197.7590  172.8780  136.2010 C   0  0  0  0  0  2  0  0  0  0  0  0
  184.3590  175.8470  134.9440 C   0  0  0  0  0  2  0  0  0  0  0  0
  182.0640  175.8440  136.6920 C   0  0  0  0  0  1  0  0  0  0  0  0
  181.8880  173.3210  136.2450 C   0  0  0  0  0  1  0  0  0  0  0  0
  182.5840  174.6160  136.0090 C   0  0  0  0  0  0  0  0  0  0  0  0
  183.6190  174.6430  135.2400 N   0  0  0  0  0  0  0  0  0  0  0  0
  1  7  2  0  0  0  0
  1  4  1  0  0  0  0
  2 19  1  0  0  0  0
  3 13  1  0  0  0  0
  4  6  2  0  0  0  0
  4 11  1  0  0  0  0
  5  2  1  0  0  0  0
  6 10  1  0  0  0  0
  7  9  1  0  0  0  0
  9 11  2  0  0  0  0
 10  8  1  0  0  0  0
 10  2  2  0  0  0  0
 11  8  1  0  0  0  0
 12  3  2  0  0  0  0
 12  6  1  0  0  0  0
 13 31  1  0  0  0  0
 13  5  2  0  0  0  0
 14 24  1  0  0  0  0
 14 18  2  0  0  0  0
 15 22  2  0  0  0  0
 15 20  1  0  0  0  0
 16 21  2  0  0  0  0
 17 15  1  0  0  0  0
 19 23  2  0  0  0  0
 19 16  1  0  0  0  0
 20 14  1  0  0  0  0
 21 22  1  0  0  0  0
 22 25  1  0  0  0  0
 23 17  1  0  0  0  0
 24 27  1  1  0  0  0
 25 24  1  0  0  0  0
 27 26  2  0  0  0  0
 28 27  1  0  0  0  0
 28 30  1  0  0  0  0
 30 29  2  0  0  0  0
 31 32  3  0  0  0  0
 33 39  1  0  0  0  0
 33 38  1  0  0  0  0
 35 36  1  0  0  0  0
 35 34  1  1  0  0  0
 37 35  1  0  0  0  0
 38 32  1  6  0  0  0
 38 36  1  0  0  0  0
 39 37  1  0  0  0  0
 40 44  1  0  0  0  0
 40  7  1  0  0  0  0
 43 42  1  0  0  0  0
 43 41  1  0  0  0  0
 44 43  2  0  0  0  0
M  END
>  <MODEL>
3

>  <REMARK>
 VINA RESULT:      -7.6      3.788     10.099
  Name = 
  8 active torsions:
  status: ('A' for Active; 'I' for Inactive)
    1  A    between atoms: C_3  and  C_22
    2  A    between atoms: O_4  and  C_30
    3  A    between atoms: O_4  and  C_39
    4  A    between atoms: C_10  and  C_41
    5  A    between atoms: C_11  and  C_24
    6  A    between atoms: C_11  and  N_43
    7  A    between atoms: C_30  and  C_38
    8  A    between atoms: C_34  and  C_42
                            x       y       z     vdW  Elec       q    Type
                         _______ _______ _______ _____ _____    ______ ____

>  <TORSDO>
F 8

$$$$
=
 OpenBabel11042412233D

 44 49  0  0  1  0  0  0  0  0999 V2000
  192.3740  173.6740  135.7940 N   0  0  0  0  0  0  0  0  0  0  0  0
  189.4590  176.4450  138.5430 C   0  0  0  0  0  0  0  0  0  0  0  0
  188.1080  175.2190  135.9360 C   0  0  0  0  0  3  0  0  0  0  0  0
  191.7010  174.4630  136.6350 C   0  0  0  0  0  0  0  0  0  0  0  0
  188.1530  176.5470  138.0500 C   0  0  0  0  0  3  0  0  0  0  0  0
  190.4340  174.9670  136.7370 C   0  0  0  0  0  0  0  0  0  0  0  0
  193.5990  173.6310  136.4010 C   0  0  0  0  0  0  0  0  0  0  0  0
  191.7080  175.6140  138.4700 O   0  0  0  0  0  0  0  0  0  0  0  0
  193.6770  174.3650  137.6060 C   0  0  0  0  0  3  0  0  0  0  0  0
  190.4860  175.7100  137.9340 C   0  0  0  0  0  0  0  0  0  0  0  0
  192.4050  174.8620  137.6620 C   0  0  0  0  0  0  0  0  0  0  0  0
  189.4040  174.7410  135.8440 C   0  0  0  0  0  3  0  0  0  0  0  0
  187.5350  176.0210  136.9170 C   0  0  0  0  0  0  0  0  0  0  0  0
  189.7480  177.1050  145.2490 C   0  0  0  0  0  0  0  0  0  0  0  0
  189.6540  177.7030  142.8330 C   0  0  0  0  0  0  0  0  0  0  0  0
  191.1600  177.4520  140.1580 C   0  0  0  0  0  3  0  0  0  0  0  0
  188.8990  178.4400  141.7770 C   0  0  0  0  0  2  0  0  0  0  0  0
  189.1480  176.9120  146.3390 O   0  0  0  0  0  0  0  0  0  0  0  0
  189.7480  177.1700  139.8050 C   0  0  0  0  0  0  0  0  0  0  0  0
  189.0050  177.4920  144.0920 N   0  0  0  0  0  2  0  0  0  0  0  0
  191.6750  177.5250  141.3910 C   0  0  0  0  0  3  0  0  0  0  0  0
  190.9430  177.3430  142.6610 C   0  0  0  0  0  0  0  0  0  0  0  0
  188.7270  177.6090  140.5500 C   0  0  0  0  0  3  0  0  0  0  0  0
  191.2470  177.0470  145.1610 C   0  0  2  0  0  3  0  0  0  0  0  0
  191.6820  176.6210  143.7560 C   0  0  0  0  0  2  0  0  0  0  0  0
  192.0930  174.9310  145.8920 O   0  0  0  0  0  0  0  0  0  0  0  0
  191.8430  176.1330  146.1860 C   0  0  0  0  0  0  0  0  0  0  0  0
  192.0970  176.6340  147.4700 O   0  0  0  0  0  0  0  0  0  0  0  0
  193.3080  176.5960  149.4580 O   0  0  0  0  0  0  0  0  0  0  0  0
  192.8820  175.9940  148.4360 C   0  0  0  0  0  3  0  0  0  0  0  0
  186.1500  176.3560  136.7380 C   0  0  0  0  0  0  0  0  0  0  0  0
  184.9870  176.6400  136.5900 C   0  0  0  0  0  0  0  0  0  0  0  0
  182.7320  175.7250  136.3040 C   0  0  0  0  0  2  0  0  0  0  0  0
  181.1030  178.9980  138.5370 C   0  0  0  0  0  1  0  0  0  0  0  0
  181.6210  177.7240  137.9060 C   0  0  2  0  0  3  0  0  0  0  0  0
  183.1120  177.8790  137.5760 C   0  0  0  0  0  2  0  0  0  0  0  0
  180.8070  177.3880  136.6600 C   0  0  0  0  0  2  0  0  0  0  0  0
  183.5770  176.9900  136.4130 C   0  0  1  0  0  3  0  0  0  0  0  0
  181.2600  176.0640  136.0280 C   0  0  0  0  0  2  0  0  0  0  0  0
  194.7320  172.8290  135.8530 C   0  0  0  0  0  2  0  0  0  0  0  0
  197.3350  172.9260  137.0930 C   0  0  0  0  0  1  0  0  0  0  0  0
  197.9620  174.6950  135.3390 C   0  0  0  0  0  1  0  0  0  0  0  0
  196.9520  173.7600  135.9090 C   0  0  0  0  0  0  0  0  0  0  0  0
  195.7770  173.7050  135.3800 N   0  0  0  0  0  0  0  0  0  0  0  0
  1  7  2  0  0  0  0
  1  4  1  0  0  0  0
  2 19  1  0  0  0  0
  3 13  1  0  0  0  0
  4  6  2  0  0  0  0
  4 11  1  0  0  0  0
  5  2  1  0  0  0  0
  6 10  1  0  0  0  0
  7  9  1  0  0  0  0
  9 11  2  0  0  0  0
 10  8  1  0  0  0  0
 10  2  2  0  0  0  0
 11  8  1  0  0  0  0
 12  3  2  0  0  0  0
 12  6  1  0  0  0  0
 13  5  2  0  0  0  0
 14 18  2  0  0  0  0
 15 20  1  0  0  0  0
 16 21  2  0  0  0  0
 17 15  1  0  0  0  0
 19 16  1  0  0  0  0
 19 23  2  0  0  0  0
 20 14  1  0  0  0  0
 21 22  1  0  0  0  0
 22 15  2  0  0  0  0
 22 25  1  0  0  0  0
 23 17  1  0  0  0  0
 24 14  1  0  0  0  0
 24 27  1  1  0  0  0
 25 24  1  0  0  0  0
 26 27  2  0  0  0  0
 27 28  1  0  0  0  0
 28 30  1  0  0  0  0
 30 29  2  0  0  0  0
 31 13  1  0  0  0  0
 32 31  3  0  0  0  0
 33 38  1  0  0  0  0
 35 34  1  6  0  0  0
 36 35  1  0  0  0  0
 37 35  1  0  0  0  0
 38 32  1  1  0  0  0
 38 36  1  0  0  0  0
 39 33  1  0  0  0  0
 39 37  1  0  0  0  0
 40  7  1  0  0  0  0
 42 43  1  0  0  0  0
 43 41  1  0  0  0  0
 44 40  1  0  0  0  0
 44 43  2  0  0  0  0
M  END
>  <MODEL>
4

>  <REMARK>
 VINA RESULT:      -7.5      3.874      8.258
  Name = 
  8 active torsions:
  status: ('A' for Active; 'I' for Inactive)
    1  A    between atoms: C_3  and  C_22
    2  A    between atoms: O_4  and  C_30
    3  A    between atoms: O_4  and  C_39
    4  A    between atoms: C_10  and  C_41
    5  A    between atoms: C_11  and  C_24
    6  A    between atoms: C_11  and  N_43
    7  A    between atoms: C_30  and  C_38
    8  A    between atoms: C_34  and  C_42
                            x       y       z     vdW  Elec       q    Type
                         _______ _______ _______ _____ _____    ______ ____

>  <TORSDO>
F 8

$$$$
=
 OpenBabel11042412233D

 44 49  0  0  1  0  0  0  0  0999 V2000
  191.2120  176.5820  137.2040 N   0  0  0  0  0  0  0  0  0  0  0  0
  188.3060  178.1030  140.8050 C   0  0  0  0  0  0  0  0  0  0  0  0
  186.9060  177.8050  137.9640 C   0  0  0  0  0  3  0  0  0  0  0  0
  190.5420  177.0010  138.2810 C   0  0  0  0  0  0  0  0  0  0  0  0
  186.9810  178.3170  140.4060 C   0  0  0  0  0  3  0  0  0  0  0  0
  189.2650  177.3860  138.5780 C   0  0  0  0  0  0  0  0  0  0  0  0
  192.4570  176.3800  137.7330 C   0  0  0  0  0  0  0  0  0  0  0  0
  190.5750  177.4430  140.4010 O   0  0  0  0  0  0  0  0  0  0  0  0
  192.5530  176.6530  139.1160 C   0  0  0  0  0  3  0  0  0  0  0  0
  189.3340  177.6680  139.9570 C   0  0  0  0  0  0  0  0  0  0  0  0
  191.2680  177.0470  139.3680 C   0  0  0  0  0  0  0  0  0  0  0  0
  188.2130  177.4420  137.6840 C   0  0  0  0  0  3  0  0  0  0  0  0
  186.3410  178.1920  139.1740 C   0  0  0  0  0  0  0  0  0  0  0  0
  189.7890  176.2710  147.1240 C   0  0  0  0  0  0  0  0  0  0  0  0
  189.0020  177.6450  145.2020 C   0  0  0  0  0  0  0  0  0  0  0  0
  189.9080  178.9910  142.5830 C   0  0  0  0  0  3  0  0  0  0  0  0
  187.8490  178.3840  144.6090 C   0  0  0  0  0  2  0  0  0  0  0  0
  189.5260  175.4760  148.0650 O   0  0  0  0  0  0  0  0  0  0  0  0
  188.6140  178.3560  142.2350 C   0  0  0  0  0  0  0  0  0  0  0  0
  188.7350  176.7540  146.2910 N   0  0  0  0  0  2  0  0  0  0  0  0
  190.6230  178.7840  143.6950 C   0  0  0  0  0  3  0  0  0  0  0  0
  190.2720  177.8830  144.8120 C   0  0  0  0  0  0  0  0  0  0  0  0
  187.6890  178.0710  143.1590 C   0  0  0  0  0  3  0  0  0  0  0  0
  191.1760  176.8120  146.9250 C   0  0  2  0  0  3  0  0  0  0  0  0
  191.4150  177.1370  145.4470 C   0  0  0  0  0  2  0  0  0  0  0  0
  192.7090  174.9940  146.6570 O   0  0  0  0  0  0  0  0  0  0  0  0
  192.2320  175.8750  147.4250 C   0  0  0  0  0  0  0  0  0  0  0  0
  192.6580  175.9880  148.7550 O   0  0  0  0  0  0  0  0  0  0  0  0
  194.2980  177.1210  149.9580 O   0  0  0  0  0  0  0  0  0  0  0  0
  193.2110  177.1430  149.3220 C   0  0  0  0  0  3  0  0  0  0  0  0
  184.9420  178.5110  139.1510 C   0  0  0  0  0  0  0  0  0  0  0  0
  183.7650  178.7760  139.1350 C   0  0  0  0  0  0  0  0  0  0  0  0
  181.7640  179.0050  140.5300 C   0  0  0  0  0  2  0  0  0  0  0  0
  180.3680  182.1940  138.0340 C   0  0  0  0  0  1  0  0  0  0  0  0
  180.8840  181.2100  139.0610 C   0  0  2  0  0  3  0  0  0  0  0  0
  182.1210  180.4880  138.5120 C   0  0  0  0  0  2  0  0  0  0  0  0
  179.7830  180.2220  139.4370 C   0  0  0  0  0  2  0  0  0  0  0  0
  182.3360  179.0940  139.1190 C   0  0  1  0  0  3  0  0  0  0  0  0
  180.2470  179.2480  140.5290 C   0  0  0  0  0  2  0  0  0  0  0  0
  193.5950  175.8660  136.9170 C   0  0  0  0  0  2  0  0  0  0  0  0
  195.0670  173.5130  136.1280 C   0  0  0  0  0  1  0  0  0  0  0  0
  196.2650  173.6600  138.3950 C   0  0  0  0  0  1  0  0  0  0  0  0
  195.2630  174.2100  137.4400 C   0  0  0  0  0  0  0  0  0  0  0  0
  194.5840  175.2550  137.7730 N   0  0  0  0  0  0  0  0  0  0  0  0
  1  7  2  0  0  0  0
  1  4  1  0  0  0  0
  2 19  1  0  0  0  0
  3 13  1  0  0  0  0
  4  6  2  0  0  0  0
  4 11  1  0  0  0  0
  5  2  1  0  0  0  0
  6 10  1  0  0  0  0
  7  9  1  0  0  0  0
  9 11  2  0  0  0  0
 10  8  1  0  0  0  0
 10  2  2  0  0  0  0
 11  8  1  0  0  0  0
 12  3  2  0  0  0  0
 12  6  1  0  0  0  0
 13  5  2  0  0  0  0
 14 18  2  0  0  0  0
 15 20  1  0  0  0  0
 16 21  2  0  0  0  0
 17 15  1  0  0  0  0
 19 16  1  0  0  0  0
 19 23  2  0  0  0  0
 20 14  1  0  0  0  0
 21 22  1  0  0  0  0
 22 15  2  0  0  0  0
 22 25  1  0  0  0  0
 23 17  1  0  0  0  0
 24 14  1  0  0  0  0
 24 27  1  6  0  0  0
 25 24  1  0  0  0  0
 26 27  2  0  0  0  0
 27 28  1  0  0  0  0
 28 30  1  0  0  0  0
 30 29  2  0  0  0  0
 31 13  1  0  0  0  0
 32 31  3  0  0  0  0
 35 34  1  6  0  0  0
 35 37  1  0  0  0  0
 36 35  1  0  0  0  0
 36 38  1  0  0  0  0
 37 39  1  0  0  0  0
 38 32  1  1  0  0  0
 38 33  1  0  0  0  0
 39 33  1  0  0  0  0
 40  7  1  0  0  0  0
 40 44  1  0  0  0  0
 41 43  1  0  0  0  0
 43 44  2  0  0  0  0
 43 42  1  0  0  0  0
M  END
>  <MODEL>
5

>  <REMARK>
 VINA RESULT:      -7.4      4.424      8.651
  Name = 
  8 active torsions:
  status: ('A' for Active; 'I' for Inactive)
    1  A    between atoms: C_3  and  C_22
    2  A    between atoms: O_4  and  C_30
    3  A    between atoms: O_4  and  C_39
    4  A    between atoms: C_10  and  C_41
    5  A    between atoms: C_11  and  C_24
    6  A    between atoms: C_11  and  N_43
    7  A    between atoms: C_30  and  C_38
    8  A    between atoms: C_34  and  C_42
                            x       y       z     vdW  Elec       q    Type
                         _______ _______ _______ _____ _____    ______ ____

>  <TORSDO>
F 8

$$$$
=
 OpenBabel11042412233D

 44 49  0  0  1  0  0  0  0  0999 V2000
  181.1930  179.7180  139.8860 N   0  0  0  0  0  0  0  0  0  0  0  0
  185.8710  178.3590  139.8370 C   0  0  0  0  0  0  0  0  0  0  0  0
  184.5350  178.5280  142.7190 C   0  0  0  0  0  3  0  0  0  0  0  0
  182.4720  179.3710  139.7190 C   0  0  0  0  0  0  0  0  0  0  0  0
  186.3910  178.0900  141.1080 C   0  0  0  0  0  3  0  0  0  0  0  0
  183.5230  179.0100  140.5150 C   0  0  0  0  0  0  0  0  0  0  0  0
  180.8040  179.9150  138.5890 C   0  0  0  0  0  0  0  0  0  0  0  0
  184.0980  178.9750  138.3440 O   0  0  0  0  0  0  0  0  0  0  0  0
  181.8190  179.6760  137.6350 C   0  0  0  0  0  3  0  0  0  0  0  0
  184.5540  178.7690  139.5840 C   0  0  0  0  0  0  0  0  0  0  0  0
  182.8500  179.3360  138.4670 C   0  0  0  0  0  0  0  0  0  0  0  0
  183.4930  178.9140  141.8930 C   0  0  0  0  0  3  0  0  0  0  0  0
  185.8310  178.1530  142.3830 C   0  0  0  0  0  0  0  0  0  0  0  0
  191.0350  175.4940  136.5800 C   0  0  0  0  0  0  0  0  0  0  0  0
  189.3050  177.1640  137.2280 C   0  0  0  0  0  0  0  0  0  0  0  0
  186.2670  177.6360  137.4210 C   0  0  0  0  0  3  0  0  0  0  0  0
  189.0570  178.5580  137.7000 C   0  0  0  0  0  2  0  0  0  0  0  0
  192.2170  175.0690  136.6750 O   0  0  0  0  0  0  0  0  0  0  0  0
  186.7990  178.1830  138.6920 C   0  0  0  0  0  0  0  0  0  0  0  0
  190.6440  176.6630  137.3010 N   0  0  0  0  0  2  0  0  0  0  0  0
  186.9300  176.8780  136.5400 C   0  0  0  0  0  3  0  0  0  0  0  0
  188.3340  176.4300  136.6460 C   0  0  0  0  0  0  0  0  0  0  0  0
  188.0690  178.5870  138.8170 C   0  0  0  0  0  3  0  0  0  0  0  0
  190.0520  174.8630  135.6360 C   0  0  2  0  0  3  0  0  0  0  0  0
  188.6230  175.0340  136.1600 C   0  0  0  0  0  2  0  0  0  0  0  0
  189.4940  172.5370  135.7140 O   0  0  0  0  0  0  0  0  0  0  0  0
  190.3430  173.4140  135.3930 C   0  0  0  0  0  0  0  0  0  0  0  0
  191.5730  173.0600  134.8230 O   0  0  0  0  0  0  0  0  0  0  0  0
  193.7360  172.3450  135.3030 O   0  0  0  0  0  0  0  0  0  0  0  0
  192.4920  172.1710  135.3950 C   0  0  0  0  0  3  0  0  0  0  0  0
  186.6950  177.8000  143.4730 C   0  0  0  0  0  0  0  0  0  0  0  0
  187.4220  177.5070  144.3910 C   0  0  0  0  0  0  0  0  0  0  0  0
  189.7480  177.4920  145.1610 C   0  0  0  0  0  2  0  0  0  0  0  0
  188.4450  178.2800  149.1650 C   0  0  0  0  0  1  0  0  0  0  0  0
  188.9870  178.1890  147.7550 C   0  0  2  0  0  3  0  0  0  0  0  0
  187.8430  177.8860  146.7790 C   0  0  0  0  0  2  0  0  0  0  0  0
  190.0790  177.1260  147.6820 C   0  0  0  0  0  2  0  0  0  0  0  0
  188.3010  177.1560  145.5070 C   0  0  1  0  0  3  0  0  0  0  0  0
  190.7020  177.0510  146.2810 C   0  0  0  0  0  2  0  0  0  0  0  0
  179.4090  180.2970  138.2250 C   0  0  0  0  0  2  0  0  0  0  0  0
  179.2030  183.1730  138.1490 C   0  0  0  0  0  1  0  0  0  0  0  0
  179.3340  182.9870  135.5900 C   0  0  0  0  0  1  0  0  0  0  0  0
  179.3240  182.3210  136.9230 C   0  0  0  0  0  0  0  0  0  0  0  0
  179.4040  181.0350  136.9840 N   0  0  0  0  0  0  0  0  0  0  0  0
  2  5  1  0  0  0  0
  4  1  1  0  0  0  0
  4  6  2  0  0  0  0
  5 13  2  0  0  0  0
  6 12  1  0  0  0  0
  7  1  2  0  0  0  0
  8 11  1  0  0  0  0
  8 10  1  0  0  0  0
  9 11  2  0  0  0  0
  9  7  1  0  0  0  0
 10  2  2  0  0  0  0
 10  6  1  0  0  0  0
 11  4  1  0  0  0  0
 12  3  2  0  0  0  0
 13  3  1  0  0  0  0
 13 31  1  0  0  0  0
 14 18  2  0  0  0  0
 14 20  1  0  0  0  0
 15 20  1  0  0  0  0
 15 17  1  0  0  0  0
 16 19  1  0  0  0  0
 17 23  1  0  0  0  0
 19 23  2  0  0  0  0
 19  2  1  0  0  0  0
 21 22  1  0  0  0  0
 21 16  2  0  0  0  0
 22 15  2  0  0  0  0
 24 27  1  1  0  0  0
 24 25  1  0  0  0  0
 24 14  1  0  0  0  0
 25 22  1  0  0  0  0
 27 26  2  0  0  0  0
 28 27  1  0  0  0  0
 28 30  1  0  0  0  0
 29 30  2  0  0  0  0
 31 32  3  0  0  0  0
 33 38  1  0  0  0  0
 33 39  1  0  0  0  0
 35 34  1  1  0  0  0
 36 35  1  0  0  0  0
 37 35  1  0  0  0  0
 38 32  1  6  0  0  0
 38 36  1  0  0  0  0
 39 37  1  0  0  0  0
 40  7  1  0  0  0  0
 42 43  1  0  0  0  0
 43 44  2  0  0  0  0
 43 41  1  0  0  0  0
 44 40  1  0  0  0  0
M  END
>  <MODEL>
6

>  <REMARK>
 VINA RESULT:      -7.3      3.273      9.633
  Name = 
  8 active torsions:
  status: ('A' for Active; 'I' for Inactive)
    1  A    between atoms: C_3  and  C_22
    2  A    between atoms: O_4  and  C_30
    3  A    between atoms: O_4  and  C_39
    4  A    between atoms: C_10  and  C_41
    5  A    between atoms: C_11  and  C_24
    6  A    between atoms: C_11  and  N_43
    7  A    between atoms: C_30  and  C_38
    8  A    between atoms: C_34  and  C_42
                            x       y       z     vdW  Elec       q    Type
                         _______ _______ _______ _____ _____    ______ ____

>  <TORSDO>
F 8

$$$$
=
 OpenBabel11042412233D

 44 49  0  0  1  0  0  0  0  0999 V2000
  186.8260  177.7670  145.3070 N   0  0  0  0  0  0  0  0  0  0  0  0
  186.6580  178.2750  140.4650 C   0  0  0  0  0  0  0  0  0  0  0  0
  183.9640  178.9860  142.0010 C   0  0  0  0  0  3  0  0  0  0  0  0
  186.9250  177.8480  143.9780 C   0  0  0  0  0  0  0  0  0  0  0  0
  185.4220  178.7320  139.9910 C   0  0  0  0  0  3  0  0  0  0  0  0
  186.1140  178.1970  142.9330 C   0  0  0  0  0  0  0  0  0  0  0  0
  188.0870  177.3520  145.6370 C   0  0  0  0  0  0  0  0  0  0  0  0
  188.1700  177.6450  142.2170 O   0  0  0  0  0  0  0  0  0  0  0  0
  188.9560  177.1950  144.5330 C   0  0  0  0  0  3  0  0  0  0  0  0
  186.9590  178.0460  141.8150 C   0  0  0  0  0  0  0  0  0  0  0  0
  188.1080  177.5360  143.5160 C   0  0  0  0  0  0  0  0  0  0  0  0
  184.7980  178.6050  143.0380 C   0  0  0  0  0  3  0  0  0  0  0  0
  184.2310  179.0530  140.6380 C   0  0  0  0  0  0  0  0  0  0  0  0
  191.2510  174.5340  137.2400 C   0  0  0  0  0  0  0  0  0  0  0  0
  190.0270  176.5280  138.0930 C   0  0  0  0  0  0  0  0  0  0  0  0
  187.3180  177.9930  138.0150 C   0  0  0  0  0  3  0  0  0  0  0  0
  190.1290  177.7840  138.8930 C   0  0  0  0  0  2  0  0  0  0  0  0
  192.1930  173.7080  137.3660 O   0  0  0  0  0  0  0  0  0  0  0  0
  187.7080  178.0300  139.4450 C   0  0  0  0  0  0  0  0  0  0  0  0
  191.0970  175.5820  138.1980 N   0  0  0  0  0  2  0  0  0  0  0  0
  187.8860  177.2570  137.0530 C   0  0  0  0  0  3  0  0  0  0  0  0
  189.0240  176.3280  137.2120 C   0  0  0  0  0  0  0  0  0  0  0  0
  188.9830  177.9220  139.8390 C   0  0  0  0  0  3  0  0  0  0  0  0
  190.3460  174.5100  136.0400 C   0  0  2  0  0  3  0  0  0  0  0  0
  188.9640  175.0600  136.4030 C   0  0  0  0  0  2  0  0  0  0  0  0
  191.1060  172.7070  134.6620 O   0  0  0  0  0  0  0  0  0  0  0  0
  190.2190  173.1400  135.4500 C   0  0  0  0  0  0  0  0  0  0  0  0
  189.0970  172.3670  135.7750 O   0  0  0  0  0  0  0  0  0  0  0  0
  187.4960  170.7530  135.2740 O   0  0  0  0  0  0  0  0  0  0  0  0
  188.4710  171.4630  134.9090 C   0  0  0  0  0  3  0  0  0  0  0  0
  183.1520  179.4920  139.7980 C   0  0  0  0  0  0  0  0  0  0  0  0
  182.2460  179.8640  139.0950 C   0  0  0  0  0  0  0  0  0  0  0  0
  181.1770  181.8410  138.1170 C   0  0  0  0  0  2  0  0  0  0  0  0
  180.1830  179.5880  134.6110 C   0  0  0  0  0  1  0  0  0  0  0  0
  180.6620  180.4900  135.7280 C   0  0  2  0  0  3  0  0  0  0  0  0
  181.2340  179.6400  136.8700 C   0  0  0  0  0  2  0  0  0  0  0  0
  179.5170  181.3760  136.2120 C   0  0  0  0  0  2  0  0  0  0  0  0
  181.1450  180.3210  138.2440 C   0  0  1  0  0  3  0  0  0  0  0  0
  179.9810  182.3530  137.3010 C   0  0  0  0  0  2  0  0  0  0  0  0
  188.5110  177.1370  147.0520 C   0  0  0  0  0  2  0  0  0  0  0  0
  190.8140  178.1400  148.4680 C   0  0  0  0  0  1  0  0  0  0  0  0
  192.0450  176.0160  147.7110 C   0  0  0  0  0  1  0  0  0  0  0  0
  190.8030  176.8390  147.7270 C   0  0  0  0  0  0  0  0  0  0  0  0
  189.7620  176.4180  147.0920 N   0  0  0  0  0  0  0  0  0  0  0  0
  1  7  2  0  0  0  0
  2 10  2  0  0  0  0
  3 12  2  0  0  0  0
  4  1  1  0  0  0  0
  5  2  1  0  0  0  0
  5 13  2  0  0  0  0
  6 12  1  0  0  0  0
  6  4  2  0  0  0  0
  7 40  1  0  0  0  0
  8 11  1  0  0  0  0
  9  7  1  0  0  0  0
 10  8  1  0  0  0  0
 10  6  1  0  0  0  0
 11  4  1  0  0  0  0
 11  9  2  0  0  0  0
 13  3  1  0  0  0  0
 14 18  2  0  0  0  0
 14 20  1  0  0  0  0
 15 20  1  0  0  0  0
 15 17  1  0  0  0  0
 16 19  1  0  0  0  0
 17 23  1  0  0  0  0
 19 23  2  0  0  0  0
 19  2  1  0  0  0  0
 21 22  1  0  0  0  0
 21 16  2  0  0  0  0
 22 15  2  0  0  0  0
 24 27  1  1  0  0  0
 24 25  1  0  0  0  0
 24 14  1  0  0  0  0
 25 22  1  0  0  0  0
 26 27  2  0  0  0  0
 27 28  1  0  0  0  0
 30 29  2  0  0  0  0
 30 28  1  0  0  0  0
 31 13  1  0  0  0  0
 32 31  3  0  0  0  0
 33 38  1  0  0  0  0
 35 34  1  6  0  0  0
 35 37  1  0  0  0  0
 35 36  1  0  0  0  0
 36 38  1  0  0  0  0
 37 39  1  0  0  0  0
 38 32  1  1  0  0  0
 39 33  1  0  0  0  0
 40 44  1  0  0  0  0
 42 43  1  0  0  0  0
 43 41  1  0  0  0  0
 44 43  2  0  0  0  0
M  END
>  <MODEL>
7

>  <REMARK>
 VINA RESULT:      -7.3      3.774      9.408
  Name = 
  8 active torsions:
  status: ('A' for Active; 'I' for Inactive)
    1  A    between atoms: C_3  and  C_22
    2  A    between atoms: O_4  and  C_30
    3  A    between atoms: O_4  and  C_39
    4  A    between atoms: C_10  and  C_41
    5  A    between atoms: C_11  and  C_24
    6  A    between atoms: C_11  and  N_43
    7  A    between atoms: C_30  and  C_38
    8  A    between atoms: C_34  and  C_42
                            x       y       z     vdW  Elec       q    Type
                         _______ _______ _______ _____ _____    ______ ____

>  <TORSDO>
F 8

$$$$
=
 OpenBabel11042412233D

 44 49  0  0  1  0  0  0  0  0999 V2000
  190.1340  176.5880  147.0180 N   0  0  0  0  0  0  0  0  0  0  0  0
  188.3600  177.5590  142.5870 C   0  0  0  0  0  0  0  0  0  0  0  0
  186.2630  177.7830  144.9690 C   0  0  0  0  0  3  0  0  0  0  0  0
  189.7880  176.8140  145.7480 C   0  0  0  0  0  0  0  0  0  0  0  0
  187.0040  177.9100  142.5890 C   0  0  0  0  0  3  0  0  0  0  0  0
  188.6560  177.1670  145.0670 C   0  0  0  0  0  0  0  0  0  0  0  0
  191.4630  176.2960  146.8780 C   0  0  0  0  0  0  0  0  0  0  0  0
  190.4050  176.9420  143.6760 O   0  0  0  0  0  0  0  0  0  0  0  0
  191.9350  176.3580  145.5470 C   0  0  0  0  0  3  0  0  0  0  0  0
  189.1000  177.2330  143.7310 C   0  0  0  0  0  0  0  0  0  0  0  0
  190.7780  176.6960  144.9020 C   0  0  0  0  0  0  0  0  0  0  0  0
  187.4170  177.4020  145.6320 C   0  0  0  0  0  3  0  0  0  0  0  0
  186.0660  178.0190  143.6130 C   0  0  0  0  0  0  0  0  0  0  0  0
  191.1280  174.5960  137.1970 C   0  0  0  0  0  0  0  0  0  0  0  0
  190.5830  176.3270  138.9030 C   0  0  0  0  0  0  0  0  0  0  0  0
  188.2860  178.0130  140.0760 C   0  0  0  0  0  3  0  0  0  0  0  0
  191.1330  177.2400  139.9470 C   0  0  0  0  0  2  0  0  0  0  0  0
  191.8910  173.6790  136.7920 O   0  0  0  0  0  0  0  0  0  0  0  0
  189.0370  177.5480  141.2660 C   0  0  0  0  0  0  0  0  0  0  0  0
  191.4370  175.2910  138.4060 N   0  0  0  0  0  2  0  0  0  0  0  0
  188.4280  177.5700  138.8210 C   0  0  0  0  0  3  0  0  0  0  0  0
  189.3650  176.5260  138.3570 C   0  0  0  0  0  0  0  0  0  0  0  0
  190.3240  177.1850  141.2000 C   0  0  0  0  0  3  0  0  0  0  0  0
  189.9540  175.0540  136.3790 C   0  0  2  0  0  3  0  0  0  0  0  0
  188.8490  175.5990  137.2890 C   0  0  0  0  0  2  0  0  0  0  0  0
  190.1980  173.1360  134.9680 O   0  0  0  0  0  0  0  0  0  0  0  0
  189.4120  173.9680  135.5020 C   0  0  0  0  0  0  0  0  0  0  0  0
  188.0300  173.9070  135.2780 O   0  0  0  0  0  0  0  0  0  0  0  0
  186.4620  172.7950  136.5910 O   0  0  0  0  0  0  0  0  0  0  0  0
  187.2190  172.8080  135.5830 C   0  0  0  0  0  3  0  0  0  0  0  0
  184.7410  178.4080  143.2200 C   0  0  0  0  0  0  0  0  0  0  0  0
  183.6270  178.7310  142.8900 C   0  0  0  0  0  0  0  0  0  0  0  0
  181.8010  178.2560  141.3240 C   0  0  0  0  0  2  0  0  0  0  0  0
  178.9310  179.2050  144.3590 C   0  0  0  0  0  1  0  0  0  0  0  0
  179.8770  178.6770  143.3030 C   0  0  2  0  0  3  0  0  0  0  0  0
  181.3240  179.0030  143.6940 C   0  0  0  0  0  2  0  0  0  0  0  0
  179.5210  179.2660  141.9410 C   0  0  0  0  0  2  0  0  0  0  0  0
  182.2720  179.1180  142.4910 C   0  0  1  0  0  3  0  0  0  0  0  0
  180.4170  178.7010  140.8290 C   0  0  0  0  0  2  0  0  0  0  0  0
  192.3390  175.9920  148.0470 C   0  0  0  0  0  2  0  0  0  0  0  0
  193.9260  175.9850  150.4560 C   0  0  0  0  0  1  0  0  0  0  0  0
  193.5530  178.5250  150.5550 C   0  0  0  0  0  1  0  0  0  0  0  0
  193.3270  177.2240  149.8640 C   0  0  0  0  0  0  0  0  0  0  0  0
  192.6120  177.1980  148.7910 N   0  0  0  0  0  0  0  0  0  0  0  0
  2  5  1  0  0  0  0
  2 10  2  0  0  0  0
  3 12  2  0  0  0  0
  4  1  1  0  0  0  0
  5 13  2  0  0  0  0
  6 12  1  0  0  0  0
  6  4  2  0  0  0  0
  7  1  2  0  0  0  0
  7 40  1  0  0  0  0
  8 10  1  0  0  0  0
  8 11  1  0  0  0  0
  9  7  1  0  0  0  0
 10  6  1  0  0  0  0
 11  9  2  0  0  0  0
 11  4  1  0  0  0  0
 13  3  1  0  0  0  0
 14 20  1  0  0  0  0
 15 17  1  0  0  0  0
 16 19  1  0  0  0  0
 17 23  1  0  0  0  0
 18 14  2  0  0  0  0
 19  2  1  0  0  0  0
 20 15  1  0  0  0  0
 21 16  2  0  0  0  0
 22 21  1  0  0  0  0
 22 15  2  0  0  0  0
 23 19  2  0  0  0  0
 24 27  1  1  0  0  0
 24 14  1  0  0  0  0
 24 25  1  0  0  0  0
 25 22  1  0  0  0  0
 26 27  2  0  0  0  0
 28 27  1  0  0  0  0
 28 30  1  0  0  0  0
 30 29  2  0  0  0  0
 31 13  1  0  0  0  0
 32 31  3  0  0  0  0
 33 38  1  0  0  0  0
 35 36  1  0  0  0  0
 35 34  1  1  0  0  0
 37 35  1  0  0  0  0
 38 32  1  1  0  0  0
 38 36  1  0  0  0  0
 39 33  1  0  0  0  0
 39 37  1  0  0  0  0
 40 44  1  0  0  0  0
 43 41  1  0  0  0  0
 43 42  1  0  0  0  0
 44 43  2  0  0  0  0
M  END
>  <MODEL>
8

>  <REMARK>
 VINA RESULT:      -7.2      3.782      8.461
  Name = 
  8 active torsions:
  status: ('A' for Active; 'I' for Inactive)
    1  A    between atoms: C_3  and  C_22
    2  A    between atoms: O_4  and  C_30
    3  A    between atoms: O_4  and  C_39
    4  A    between atoms: C_10  and  C_41
    5  A    between atoms: C_11  and  C_24
    6  A    between atoms: C_11  and  N_43
    7  A    between atoms: C_30  and  C_38
    8  A    between atoms: C_34  and  C_42
                            x       y       z     vdW  Elec       q    Type
                         _______ _______ _______ _____ _____    ______ ____

>  <TORSDO>
F 8

$$$$
=
 OpenBabel11042412233D

 44 49  0  0  1  0  0  0  0  0999 V2000
  189.4250  177.5760  143.7140 N   0  0  0  0  0  0  0  0  0  0  0  0
  189.1140  177.0500  138.8820 C   0  0  0  0  0  0  0  0  0  0  0  0
  192.0600  176.9200  140.0760 C   0  0  0  0  0  3  0  0  0  0  0  0
  189.1870  177.4600  142.4050 C   0  0  0  0  0  0  0  0  0  0  0  0
  190.3510  176.8470  138.2580 C   0  0  0  0  0  3  0  0  0  0  0  0
  189.9220  177.2690  141.2680 C   0  0  0  0  0  0  0  0  0  0  0  0
  188.1550  177.7310  144.1970 C   0  0  0  0  0  0  0  0  0  0  0  0
  187.7260  177.3820  140.8080 O   0  0  0  0  0  0  0  0  0  0  0  0
  187.1470  177.6930  143.2070 C   0  0  0  0  0  3  0  0  0  0  0  0
  188.9370  177.2310  140.2600 C   0  0  0  0  0  0  0  0  0  0  0  0
  187.9190  177.5180  142.0920 C   0  0  0  0  0  0  0  0  0  0  0  0
  191.2960  177.1380  141.2100 C   0  0  0  0  0  3  0  0  0  0  0  0
  191.6520  176.7830  138.7540 C   0  0  0  0  0  0  0  0  0  0  0  0
  182.8500  175.3030  137.0920 C   0  0  0  0  0  0  0  0  0  0  0  0
  185.1990  176.1150  136.9260 C   0  0  0  0  0  0  0  0  0  0  0  0
  187.1350  178.3130  137.8800 C   0  0  0  0  0  3  0  0  0  0  0  0
  186.5290  175.9070  136.2800 C   0  0  0  0  0  2  0  0  0  0  0  0
  182.0230  174.3600  136.9920 O   0  0  0  0  0  0  0  0  0  0  0  0
  187.9230  177.0620  137.9970 C   0  0  0  0  0  0  0  0  0  0  0  0
  184.2300  175.0680  136.8060 N   0  0  0  0  0  0  0  0  0  0  0  0
  185.8170  178.4080  137.6700 C   0  0  0  0  0  3  0  0  0  0  0  0
  184.8690  177.2860  137.5070 C   0  0  2  0  0  3  0  0  0  0  0  0
  187.6350  175.9700  137.2790 C   0  0  0  0  0  3  0  0  0  0  0  0
  182.4040  176.7050  137.3980 C   0  0  2  0  0  3  0  0  0  0  0  0
  183.5100  177.4700  138.1290 C   0  0  0  0  0  2  0  0  0  0  0  0
  180.0380  176.9820  137.6260 O   0  0  0  0  0  0  0  0  0  0  0  0
  181.1370  176.7390  138.1960 C   0  0  0  0  0  0  0  0  0  0  0  0
  181.2040  176.5120  139.5770 O   0  0  0  0  0  0  0  0  0  0  0  0
  180.4520  178.5620  140.3830 O   0  0  0  0  0  0  0  0  0  0  0  0
  181.1240  177.5100  140.5560 C   0  0  0  0  0  3  0  0  0  0  0  0
  192.6890  176.5610  137.7860 C   0  0  0  0  0  0  0  0  0  0  0  0
  193.5620  176.3710  136.9760 C   0  0  0  0  0  0  0  0  0  0  0  0
  195.3580  177.4380  135.6930 C   0  0  0  0  0  2  0  0  0  0  0  0
  197.7050  173.8650  135.9800 C   0  0  0  0  0  1  0  0  0  0  0  0
  197.0180  175.2130  136.0000 C   0  0  2  0  0  3  0  0  0  0  0  0
  195.5810  175.0540  136.5130 C   0  0  0  0  0  2  0  0  0  0  0  0
  197.0460  175.8350  134.6060 C   0  0  0  0  0  2  0  0  0  0  0  0
  194.6220  176.1350  135.9940 C   0  0  1  0  0  3  0  0  0  0  0  0
  196.4170  177.2350  134.5990 C   0  0  0  0  0  2  0  0  0  0  0  0
  187.8680  177.8740  145.6550 C   0  0  0  0  0  2  0  0  0  0  0  0
  187.9350  177.6630  148.5310 C   0  0  0  0  0  1  0  0  0  0  0  0
  190.4890  177.8800  148.3590 C   0  0  0  0  0  1  0  0  0  0  0  0
  189.1610  177.8210  147.6850 C   0  0  0  0  0  0  0  0  0  0  0  0
  189.1030  177.9240  146.4010 N   0  0  0  0  0  0  0  0  0  0  0  0
  1  7  2  0  0  0  0
  2 10  2  0  0  0  0
  3 12  2  0  0  0  0
  4  1  1  0  0  0  0
  5 13  2  0  0  0  0
  5  2  1  0  0  0  0
  6  4  2  0  0  0  0
  7 40  1  0  0  0  0
  8 11  1  0  0  0  0
  9  7  1  0  0  0  0
 10  8  1  0  0  0  0
 10  6  1  0  0  0  0
 11  4  1  0  0  0  0
 11  9  2  0  0  0  0
 12  6  1  0  0  0  0
 13  3  1  0  0  0  0
 14 24  1  0  0  0  0
 15 22  1  0  0  0  0
 16 19  1  0  0  0  0
 17 15  1  0  0  0  0
 17 23  1  0  0  0  0
 18 14  2  0  0  0  0
 19  2  1  0  0  0  0
 20 15  2  0  0  0  0
 20 14  1  0  0  0  0
 21 16  2  0  0  0  0
 22 21  1  1  0  0  0
 22 25  1  0  0  0  0
 23 19  2  0  0  0  0
 24 25  1  0  0  0  0
 24 27  1  1  0  0  0
 26 27  2  0  0  0  0
 27 28  1  0  0  0  0
 28 30  1  0  0  0  0
 29 30  2  0  0  0  0
 31 13  1  0  0  0  0
 32 31  3  0  0  0  0
 33 38  1  0  0  0  0
 35 34  1  6  0  0  0
 35 36  1  0  0  0  0
 37 35  1  0  0  0  0
 38 36  1  0  0  0  0
 38 32  1  1  0  0  0
 39 37  1  0  0  0  0
 39 33  1  0  0  0  0
 40 44  1  0  0  0  0
 43 42  1  0  0  0  0
 43 41  1  0  0  0  0
 44 43  2  0  0  0  0
M  END
>  <MODEL>
9

>  <REMARK>
 VINA RESULT:      -7.1      2.240      7.999
  Name = 
  8 active torsions:
  status: ('A' for Active; 'I' for Inactive)
    1  A    between atoms: C_3  and  C_22
    2  A    between atoms: O_4  and  C_30
    3  A    between atoms: O_4  and  C_39
    4  A    between atoms: C_10  and  C_41
    5  A    between atoms: C_11  and  C_24
    6  A    between atoms: C_11  and  N_43
    7  A    between atoms: C_30  and  C_38
    8  A    between atoms: C_34  and  C_42
                            x       y       z     vdW  Elec       q    Type
                         _______ _______ _______ _____ _____    ______ ____

>  <TORSDO>
F 8

$$$$
