=
 OpenBabel11032420293D

 33 37  0  0  1  0  0  0  0  0999 V2000
  191.3610  176.7670  146.9860 C   0  0  0  0  0  0  0  0  0  0  0  0
  192.0940  176.4500  147.9590 O   0  0  0  0  0  0  0  0  0  0  0  0
  191.9620  177.0960  145.8220 N   0  0  0  0  0  0  0  0  0  0  0  0
  190.1420  177.6440  144.2050 C   0  0  2  0  0  3  0  0  0  0  0  0
  189.9950  176.7530  147.1930 C   0  0  0  0  0  2  0  0  0  0  0  0
  188.9690  177.0500  146.3190 C   0  0  0  0  0  3  0  0  0  0  0  0
  191.4680  177.4730  144.6220 C   0  0  0  0  0  3  0  0  0  0  0  0
  187.8430  177.6680  144.3910 N   0  0  0  0  0  2  0  0  0  0  0  0
  188.9870  177.4500  144.9810 C   0  0  0  0  0  0  0  0  0  0  0  0
  186.4560  178.3130  146.2820 C   0  0  0  0  0  2  0  0  0  0  0  0
  186.5240  177.5130  144.9980 C   0  0  1  0  0  3  0  0  0  0  0  0
  185.0390  178.8300  146.3640 C   0  0  0  0  0  2  0  0  0  0  0  0
  185.4500  178.0780  144.0790 C   0  0  0  0  0  2  0  0  0  0  0  0
  184.6110  179.0220  144.9230 C   0  0  1  0  0  3  0  0  0  0  0  0
  183.1130  178.7950  144.7290 C   0  0  0  0  0  2  0  0  0  0  0  0
  182.5190  179.6920  143.6470 C   0  0  0  0  0  2  0  0  0  0  0  0
  180.4510  178.3990  143.4870 C   0  0  0  0  0  3  0  0  0  0  0  0
  182.8970  178.0210  141.1100 N   0  0  0  0  0  1  0  0  0  0  0  0
  179.4470  177.6920  142.7540 N   0  0  0  0  0  0  0  0  0  0  0  0
  181.4920  178.9530  142.8570 C   0  0  0  0  0  0  0  0  0  0  0  0
  180.5290  178.1320  140.6620 C   0  0  0  0  0  3  0  0  0  0  0  0
  181.6900  178.7870  141.3660 C   0  0  0  0  0  0  0  0  0  0  0  0
  179.4990  177.6110  141.3280 C   0  0  0  0  0  3  0  0  0  0  0  0
  189.9330  178.0490  142.8750 O   0  0  0  0  0  0  0  0  0  0  0  0
  189.8640  177.9240  140.5110 C   0  0  1  0  0  3  0  0  0  0  0  0
  189.9000  177.1530  141.7710 C   0  0  1  0  0  3  0  0  0  0  0  0
  191.0510  177.3430  140.9880 O   0  0  0  0  0  0  0  0  0  0  0  0
  189.3000  177.0580  139.4020 C   0  0  0  0  0  2  0  0  0  0  0  0
  188.0020  179.4660  137.1100 N   0  0  0  0  0  0  0  0  0  0  0  0
  188.5230  177.8970  138.4500 C   0  0  0  0  0  0  0  0  0  0  0  0
  189.0050  178.9810  137.8230 N   0  0  0  0  0  2  0  0  0  0  0  0
  186.9070  178.7370  137.2680 N   0  0  0  0  0  0  0  0  0  0  0  0
  187.1970  177.7320  138.1180 C   0  0  0  0  0  3  0  0  0  0  0  0
  1  5  1  0  0  0  0
  1  2  2  0  0  0  0
  3  1  1  0  0  0  0
  4 24  1  6  0  0  0
  4  7  1  0  0  0  0
  4  9  1  0  0  0  0
  6  5  1  0  0  0  0
  7  3  2  0  0  0  0
  8  9  1  0  0  0  0
  9  6  2  0  0  0  0
 10 12  1  0  0  0  0
 11  8  1  6  0  0  0
 11 10  1  0  0  0  0
 13 14  1  0  0  0  0
 13 11  1  0  0  0  0
 14 15  1  1  0  0  0
 14 12  1  0  0  0  0
 16 15  1  0  0  0  0
 18 22  1  0  0  0  0
 19 17  2  0  0  0  0
 20 17  1  0  0  0  0
 20 16  1  0  0  0  0
 21 23  2  0  0  0  0
 21 22  1  0  0  0  0
 22 20  2  0  0  0  0
 23 19  1  0  0  0  0
 25 28  1  6  0  0  0
 25 27  1  0  0  0  0
 25 26  1  0  0  0  0
 26 24  1  1  0  0  0
 27 26  1  0  0  0  0
 29 32  2  0  0  0  0
 29 31  1  0  0  0  0
 30 28  1  0  0  0  0
 31 30  1  0  0  0  0
 32 33  1  0  0  0  0
 33 30  2  0  0  0  0
M  END
>  <MODEL>
1

>  <REMARK>
 VINA RESULT:      -9.6      0.000      0.000
  Name = 
  8 active torsions:
  status: ('A' for Active; 'I' for Inactive)
    1  A    between atoms: C_6  and  C_25
    2  A    between atoms: C_9  and  C_29
    3  A    between atoms: C_11  and  O_22
    4  A    between atoms: C_13  and  O_22
    5  A    between atoms: C_14  and  C_25
    6  A    between atoms: C_15  and  C_29
    7  A    between atoms: C_15  and  C_32
    8  A    between atoms: C_17  and  N_31
                            x       y       z     vdW  Elec       q    Type
                         _______ _______ _______ _____ _____    ______ ____

>  <TORSDO>
F 8

$$$$
=
 OpenBabel11032420293D

 33 37  0  0  1  0  0  0  0  0999 V2000
  187.8580  178.3160  137.8090 C   0  0  0  0  0  0  0  0  0  0  0  0
  186.8850  178.8890  137.2530 O   0  0  0  0  0  0  0  0  0  0  0  0
  188.9080  177.9610  137.0390 N   0  0  0  0  0  0  0  0  0  0  0  0
  190.5700  176.8730  138.5490 C   0  0  2  0  0  3  0  0  0  0  0  0
  187.7660  178.0960  139.1700 C   0  0  0  0  0  2  0  0  0  0  0  0
  188.6690  177.4980  140.0270 C   0  0  0  0  0  3  0  0  0  0  0  0
  190.0770  177.3460  137.3260 C   0  0  0  0  0  3  0  0  0  0  0  0
  190.5710  176.4350  140.8130 N   0  0  0  0  0  2  0  0  0  0  0  0
  189.9280  176.9410  139.7960 C   0  0  0  0  0  0  0  0  0  0  0  0
  191.0670  175.6120  143.0480 C   0  0  0  0  0  2  0  0  0  0  0  0
  190.1020  176.4120  142.1960 C   0  0  1  0  0  3  0  0  0  0  0  0
  191.0810  176.2970  144.3950 C   0  0  0  0  0  2  0  0  0  0  0  0
  190.0830  177.8200  142.7720 C   0  0  0  0  0  2  0  0  0  0  0  0
  190.8330  177.7600  144.0910 C   0  0  1  0  0  3  0  0  0  0  0  0
  190.0820  178.4660  145.2170 C   0  0  0  0  0  2  0  0  0  0  0  0
  189.2700  177.5010  146.0760 C   0  0  0  0  0  2  0  0  0  0  0  0
  187.1780  178.0730  147.2030 C   0  0  0  0  0  3  0  0  0  0  0  0
  187.1080  176.6130  144.0990 N   0  0  0  0  0  1  0  0  0  0  0  0
  185.7940  178.4340  147.2090 N   0  0  0  0  0  0  0  0  0  0  0  0
  187.8240  177.8660  146.0510 C   0  0  0  0  0  0  0  0  0  0  0  0
  185.6830  178.4230  144.8160 C   0  0  0  0  0  3  0  0  0  0  0  0
  187.1030  177.9250  144.7220 C   0  0  0  0  0  0  0  0  0  0  0  0
  185.0830  178.6380  145.9860 C   0  0  0  0  0  3  0  0  0  0  0  0
  191.8390  176.2680  138.5380 O   0  0  0  0  0  0  0  0  0  0  0  0
  193.6390  174.9180  137.7960 C   0  0  1  0  0  3  0  0  0  0  0  0
  192.3900  175.6030  137.4070 C   0  0  1  0  0  3  0  0  0  0  0  0
  192.4270  174.2200  137.6580 O   0  0  0  0  0  0  0  0  0  0  0  0
  194.4910  174.6790  136.5660 C   0  0  0  0  0  2  0  0  0  0  0  0
  197.7160  175.2750  137.9750 N   0  0  0  0  0  0  0  0  0  0  0  0
  195.9200  174.9510  136.8790 C   0  0  0  0  0  0  0  0  0  0  0  0
  196.4430  174.9460  138.1160 N   0  0  0  0  0  2  0  0  0  0  0  0
  198.0150  175.4950  136.7030 N   0  0  0  0  0  0  0  0  0  0  0  0
  196.8970  175.3040  135.9750 C   0  0  0  0  0  3  0  0  0  0  0  0
  1  5  1  0  0  0  0
  2  1  2  0  0  0  0
  3  7  2  0  0  0  0
  3  1  1  0  0  0  0
  4 24  1  1  0  0  0
  4  9  1  0  0  0  0
  5  6  1  0  0  0  0
  7  4  1  0  0  0  0
  9  6  2  0  0  0  0
  9  8  1  0  0  0  0
 10 12  1  0  0  0  0
 11  8  1  6  0  0  0
 11 13  1  0  0  0  0
 11 10  1  0  0  0  0
 13 14  1  0  0  0  0
 14 12  1  0  0  0  0
 14 15  1  1  0  0  0
 15 16  1  0  0  0  0
 17 19  1  0  0  0  0
 18 22  1  0  0  0  0
 20 16  1  0  0  0  0
 20 17  2  0  0  0  0
 21 23  1  0  0  0  0
 22 21  2  0  0  0  0
 22 20  1  0  0  0  0
 23 19  2  0  0  0  0
 25 28  1  6  0  0  0
 26 27  1  0  0  0  0
 26 25  1  0  0  0  0
 26 24  1  1  0  0  0
 27 25  1  0  0  0  0
 28 30  1  0  0  0  0
 29 31  1  0  0  0  0
 30 31  1  0  0  0  0
 32 29  2  0  0  0  0
 33 32  1  0  0  0  0
 33 30  2  0  0  0  0
M  END
>  <MODEL>
2

>  <REMARK>
 VINA RESULT:      -9.0      4.229      7.457
  Name = 
  8 active torsions:
  status: ('A' for Active; 'I' for Inactive)
    1  A    between atoms: C_6  and  C_25
    2  A    between atoms: C_9  and  C_29
    3  A    between atoms: C_11  and  O_22
    4  A    between atoms: C_13  and  O_22
    5  A    between atoms: C_14  and  C_25
    6  A    between atoms: C_15  and  C_29
    7  A    between atoms: C_15  and  C_32
    8  A    between atoms: C_17  and  N_31
                            x       y       z     vdW  Elec       q    Type
                         _______ _______ _______ _____ _____    ______ ____

>  <TORSDO>
F 8

$$$$
=
 OpenBabel11032420293D

 33 37  0  0  1  0  0  0  0  0999 V2000
  191.0690  176.7900  146.9650 C   0  0  0  0  0  0  0  0  0  0  0  0
  191.6540  176.4950  148.0380 O   0  0  0  0  0  0  0  0  0  0  0  0
  191.8300  177.0630  145.8830 N   0  0  0  0  0  0  0  0  0  0  0  0
  190.2600  177.5870  144.0150 C   0  0  2  0  0  3  0  0  0  0  0  0
  189.6880  176.8100  146.9840 C   0  0  0  0  0  3  0  0  0  0  0  0
  188.7970  177.0950  145.9670 C   0  0  0  0  0  3  0  0  0  0  0  0
  191.5130  177.4050  144.6140 C   0  0  0  0  0  3  0  0  0  0  0  0
  187.9590  177.6630  143.8840 N   0  0  0  0  0  0  0  0  0  0  0  0
  189.0060  177.4440  144.6320 C   0  0  0  0  0  0  0  0  0  0  0  0
  186.2510  178.6590  145.3010 C   0  0  0  0  0  2  0  0  0  0  0  0
  186.5660  177.5570  144.3100 C   0  0  1  0  0  3  0  0  0  0  0  0
  184.8170  179.0500  145.0290 C   0  0  0  0  0  2  0  0  0  0  0  0
  185.6340  177.7620  143.1250 C   0  0  0  0  0  2  0  0  0  0  0  0
  184.6250  178.8160  143.5450 C   0  0  1  0  0  3  0  0  0  0  0  0
  183.1910  178.4140  143.2030 C   0  0  0  0  0  2  0  0  0  0  0  0
  182.6500  179.1520  141.9820 C   0  0  0  0  0  2  0  0  0  0  0  0
  182.6830  177.1160  140.6300 C   0  0  0  0  0  3  0  0  0  0  0  0
  185.0360  179.5580  140.1070 N   0  0  0  0  0  1  0  0  0  0  0  0
  182.9850  176.3860  139.4380 N   0  0  0  0  0  0  0  0  0  0  0  0
  182.9880  178.4140  140.7300 C   0  0  0  0  0  0  0  0  0  0  0  0
  183.9040  178.3240  138.3700 C   0  0  0  0  0  3  0  0  0  0  0  0
  183.7310  179.1360  139.6280 C   0  0  0  0  0  0  0  0  0  0  0  0
  183.5660  177.0370  138.3060 C   0  0  0  0  0  3  0  0  0  0  0  0
  190.2450  177.9470  142.6560 O   0  0  0  0  0  0  0  0  0  0  0  0
  190.2490  177.7220  140.2980 C   0  0  1  0  0  3  0  0  0  0  0  0
  190.3630  177.0130  141.5890 C   0  0  1  0  0  3  0  0  0  0  0  0
  191.4950  177.3330  140.8190 O   0  0  0  0  0  0  0  0  0  0  0  0
  189.8390  176.7440  139.2150 C   0  0  0  0  0  2  0  0  0  0  0  0
  187.1760  177.5670  136.9860 N   0  0  0  0  0  0  0  0  0  0  0  0
  188.8030  177.3600  138.3420 C   0  0  0  0  0  0  0  0  0  0  0  0
  187.8660  176.6710  137.6710 N   0  0  0  0  0  2  0  0  0  0  0  0
  187.6440  178.7890  137.1900 N   0  0  0  0  0  0  0  0  0  0  0  0
  188.6830  178.6980  138.0430 C   0  0  0  0  0  3  0  0  0  0  0  0
  1  5  1  0  0  0  0
  1  2  2  0  0  0  0
  3  1  1  0  0  0  0
  4 24  1  6  0  0  0
  4  7  1  0  0  0  0
  4  9  1  0  0  0  0
  6  5  2  0  0  0  0
  7  3  2  0  0  0  0
  8  9  2  0  0  0  0
  9  6  1  0  0  0  0
 11  8  1  6  0  0  0
 11 10  1  0  0  0  0
 12 10  1  0  0  0  0
 13 14  1  0  0  0  0
 13 11  1  0  0  0  0
 14 15  1  1  0  0  0
 14 12  1  0  0  0  0
 16 15  1  0  0  0  0
 17 20  1  0  0  0  0
 19 17  2  0  0  0  0
 20 16  1  0  0  0  0
 21 22  1  0  0  0  0
 22 18  1  0  0  0  0
 22 20  2  0  0  0  0
 23 21  2  0  0  0  0
 23 19  1  0  0  0  0
 25 28  1  6  0  0  0
 25 27  1  0  0  0  0
 25 26  1  0  0  0  0
 26 24  1  1  0  0  0
 27 26  1  0  0  0  0
 29 32  2  0  0  0  0
 29 31  1  0  0  0  0
 30 28  1  0  0  0  0
 31 30  1  0  0  0  0
 32 33  1  0  0  0  0
 33 30  2  0  0  0  0
M  END
>  <MODEL>
3

>  <REMARK>
 VINA RESULT:      -9.0      1.525      2.018
  Name = 
  8 active torsions:
  status: ('A' for Active; 'I' for Inactive)
    1  A    between atoms: C_6  and  C_25
    2  A    between atoms: C_9  and  C_29
    3  A    between atoms: C_11  and  O_22
    4  A    between atoms: C_13  and  O_22
    5  A    between atoms: C_14  and  C_25
    6  A    between atoms: C_15  and  C_29
    7  A    between atoms: C_15  and  C_32
    8  A    between atoms: C_17  and  N_31
                            x       y       z     vdW  Elec       q    Type
                         _______ _______ _______ _____ _____    ______ ____

>  <TORSDO>
F 8

$$$$
=
 OpenBabel11032420293D

 33 37  0  0  1  0  0  0  0  0999 V2000
  187.7400  178.0330  138.6300 C   0  0  0  0  0  0  0  0  0  0  0  0
  188.7340  177.6580  137.9560 O   0  0  0  0  0  0  0  0  0  0  0  0
  186.5720  178.2270  137.9820 N   0  0  0  0  0  0  0  0  0  0  0  0
  184.9120  178.9550  139.6980 C   0  0  2  0  0  3  0  0  0  0  0  0
  187.9310  178.2160  139.9860 C   0  0  0  0  0  2  0  0  0  0  0  0
  187.0330  178.6170  140.9550 C   0  0  0  0  0  3  0  0  0  0  0  0
  185.3520  178.6190  138.4110 C   0  0  0  0  0  3  0  0  0  0  0  0
  185.0680  179.3040  141.9710 N   0  0  0  0  0  2  0  0  0  0  0  0
  185.6810  178.9550  140.8740 C   0  0  0  0  0  0  0  0  0  0  0  0
  184.5900  179.6470  144.3320 C   0  0  0  0  0  2  0  0  0  0  0  0
  185.6640  179.3590  143.3040 C   0  0  1  0  0  3  0  0  0  0  0  0
  184.9920  178.8720  145.5660 C   0  0  0  0  0  2  0  0  0  0  0  0
  186.2640  178.0100  143.6710 C   0  0  0  0  0  2  0  0  0  0  0  0
  185.7120  177.6480  145.0390 C   0  0  1  0  0  3  0  0  0  0  0  0
  186.8020  177.1630  145.9930 C   0  0  0  0  0  2  0  0  0  0  0  0
  187.8790  178.2160  146.2370 C   0  0  0  0  0  2  0  0  0  0  0  0
  189.8190  177.2640  147.3780 C   0  0  0  0  0  3  0  0  0  0  0  0
  190.1880  178.7090  144.2880 N   0  0  0  0  0  1  0  0  0  0  0  0
  191.1140  176.6570  147.3940 N   0  0  0  0  0  0  0  0  0  0  0  0
  189.2350  177.5940  146.2230 C   0  0  0  0  0  0  0  0  0  0  0  0
  191.2510  176.6640  145.0020 C   0  0  0  0  0  3  0  0  0  0  0  0
  189.9470  177.4130  144.9000 C   0  0  0  0  0  0  0  0  0  0  0  0
  191.7890  176.3350  146.1760 C   0  0  0  0  0  3  0  0  0  0  0  0
  183.5650  179.3310  139.8380 O   0  0  0  0  0  0  0  0  0  0  0  0
  181.3190  179.0660  140.5420 C   0  0  1  0  0  3  0  0  0  0  0  0
  182.4910  178.4030  139.9360 C   0  0  1  0  0  3  0  0  0  0  0  0
  181.4140  178.8600  139.1560 O   0  0  0  0  0  0  0  0  0  0  0  0
  180.3940  178.0220  141.1350 C   0  0  0  0  0  2  0  0  0  0  0  0
  179.1240  178.5310  144.4320 N   0  0  0  0  0  0  0  0  0  0  0  0
  179.8420  178.5100  142.4280 C   0  0  0  0  0  0  0  0  0  0  0  0
  179.6740  177.7460  143.5200 N   0  0  0  0  0  0  0  0  0  0  0  0
  178.9310  179.7530  143.9580 N   0  0  0  0  0  2  0  0  0  0  0  0
  179.3710  179.7780  142.6840 C   0  0  0  0  0  3  0  0  0  0  0  0
  1  5  1  0  0  0  0
  2  1  2  0  0  0  0
  3  7  2  0  0  0  0
  3  1  1  0  0  0  0
  4 24  1  1  0  0  0
  4  9  1  0  0  0  0
  5  6  1  0  0  0  0
  7  4  1  0  0  0  0
  9  6  2  0  0  0  0
  9  8  1  0  0  0  0
 10 12  1  0  0  0  0
 11  8  1  6  0  0  0
 11 13  1  0  0  0  0
 11 10  1  0  0  0  0
 13 14  1  0  0  0  0
 14 12  1  0  0  0  0
 14 15  1  1  0  0  0
 15 16  1  0  0  0  0
 17 19  1  0  0  0  0
 18 22  1  0  0  0  0
 20 16  1  0  0  0  0
 20 17  2  0  0  0  0
 21 23  1  0  0  0  0
 22 21  2  0  0  0  0
 22 20  1  0  0  0  0
 23 19  2  0  0  0  0
 25 28  1  1  0  0  0
 26 24  1  6  0  0  0
 26 25  1  0  0  0  0
 27 26  1  0  0  0  0
 27 25  1  0  0  0  0
 28 30  1  0  0  0  0
 30 33  2  0  0  0  0
 30 31  1  0  0  0  0
 31 29  2  0  0  0  0
 32 29  1  0  0  0  0
 33 32  1  0  0  0  0
M  END
>  <MODEL>
4

>  <REMARK>
 VINA RESULT:      -8.9      2.690      8.412
  Name = 
  8 active torsions:
  status: ('A' for Active; 'I' for Inactive)
    1  A    between atoms: C_6  and  C_25
    2  A    between atoms: C_9  and  C_29
    3  A    between atoms: C_11  and  O_22
    4  A    between atoms: C_13  and  O_22
    5  A    between atoms: C_14  and  C_25
    6  A    between atoms: C_15  and  C_29
    7  A    between atoms: C_15  and  C_32
    8  A    between atoms: C_17  and  N_31
                            x       y       z     vdW  Elec       q    Type
                         _______ _______ _______ _____ _____    ______ ____

>  <TORSDO>
F 8

$$$$
=
 OpenBabel11032420293D

 33 37  0  0  1  0  0  0  0  0999 V2000
  191.3280  176.7110  147.2280 C   0  0  0  0  0  0  0  0  0  0  0  0
  192.2810  176.4990  148.0210 O   0  0  0  0  0  0  0  0  0  0  0  0
  190.0710  176.6470  147.7180 N   0  0  0  0  0  0  0  0  0  0  0  0
  188.5330  177.1300  145.8130 C   0  0  2  0  0  3  0  0  0  0  0  0
  191.6500  176.9930  145.9150 C   0  0  0  0  0  3  0  0  0  0  0  0
  190.8210  177.2630  144.8440 C   0  0  0  0  0  3  0  0  0  0  0  0
  188.8620  176.8210  147.1390 C   0  0  0  0  0  3  0  0  0  0  0  0
  188.9050  177.6140  143.5890 N   0  0  0  0  0  0  0  0  0  0  0  0
  189.4300  177.3360  144.7520 C   0  0  0  0  0  0  0  0  0  0  0  0
  190.1460  176.5760  141.7720 C   0  0  0  0  0  2  0  0  0  0  0  0
  189.6450  177.8800  142.3590 C   0  0  1  0  0  3  0  0  0  0  0  0
  190.0760  176.7520  140.2730 C   0  0  0  0  0  2  0  0  0  0  0  0
  188.7280  178.5000  141.3140 C   0  0  0  0  0  2  0  0  0  0  0  0
  188.9030  177.6830  140.0450 C   0  0  1  0  0  3  0  0  0  0  0  0
  189.0940  178.5640  138.8120 C   0  0  0  0  0  2  0  0  0  0  0  0
  189.2940  177.7500  137.5360 C   0  0  0  0  0  2  0  0  0  0  0  0
  188.1630  175.6160  137.1590 C   0  0  0  0  0  3  0  0  0  0  0  0
  186.9250  178.4860  135.7430 N   0  0  0  0  0  1  0  0  0  0  0  0
  187.0080  174.8220  136.8760 N   0  0  0  0  0  0  0  0  0  0  0  0
  188.0740  176.9480  137.2290 C   0  0  0  0  0  0  0  0  0  0  0  0
  185.5920  176.7510  136.7600 C   0  0  0  0  0  3  0  0  0  0  0  0
  186.7760  177.6680  136.9340 C   0  0  0  0  0  0  0  0  0  0  0  0
  185.7220  175.4260  136.7180 C   0  0  0  0  0  3  0  0  0  0  0  0
  187.1670  177.2500  145.5020 O   0  0  0  0  0  0  0  0  0  0  0  0
  185.1360  178.2540  144.8090 C   0  0  1  0  0  3  0  0  0  0  0  0
  186.5070  178.4950  145.3030 C   0  0  1  0  0  3  0  0  0  0  0  0
  185.3920  178.5670  146.1550 O   0  0  0  0  0  0  0  0  0  0  0  0
  184.6250  179.4930  144.1020 C   0  0  0  0  0  2  0  0  0  0  0  0
  185.2040  179.3780  140.5820 N   0  0  0  0  0  0  0  0  0  0  0  0
  184.6340  179.2750  142.6300 C   0  0  0  0  0  0  0  0  0  0  0  0
  185.5780  179.7430  141.7970 N   0  0  0  0  0  2  0  0  0  0  0  0
  184.0620  178.7080  140.6130 N   0  0  0  0  0  0  0  0  0  0  0  0
  183.6640  178.6270  141.8980 C   0  0  0  0  0  3  0  0  0  0  0  0
  1  3  1  0  0  0  0
  1  2  2  0  0  0  0
  4 24  1  1  0  0  0
  4  7  1  0  0  0  0
  5  1  1  0  0  0  0
  6  5  2  0  0  0  0
  7  3  2  0  0  0  0
  8  9  2  0  0  0  0
  9  6  1  0  0  0  0
  9  4  1  0  0  0  0
 10 11  1  0  0  0  0
 11  8  1  1  0  0  0
 12 10  1  0  0  0  0
 13 11  1  0  0  0  0
 14 15  1  6  0  0  0
 14 12  1  0  0  0  0
 14 13  1  0  0  0  0
 16 15  1  0  0  0  0
 17 20  1  0  0  0  0
 18 22  1  0  0  0  0
 19 17  2  0  0  0  0
 20 16  1  0  0  0  0
 21 22  1  0  0  0  0
 22 20  2  0  0  0  0
 23 21  2  0  0  0  0
 23 19  1  0  0  0  0
 25 28  1  6  0  0  0
 25 26  1  0  0  0  0
 25 27  1  0  0  0  0
 26 24  1  1  0  0  0
 26 27  1  0  0  0  0
 29 32  2  0  0  0  0
 29 31  1  0  0  0  0
 30 28  1  0  0  0  0
 31 30  1  0  0  0  0
 32 33  1  0  0  0  0
 33 30  2  0  0  0  0
M  END
>  <MODEL>
5

>  <REMARK>
 VINA RESULT:      -8.8      2.335      5.997
  Name = 
  8 active torsions:
  status: ('A' for Active; 'I' for Inactive)
    1  A    between atoms: C_6  and  C_25
    2  A    between atoms: C_9  and  C_29
    3  A    between atoms: C_11  and  O_22
    4  A    between atoms: C_13  and  O_22
    5  A    between atoms: C_14  and  C_25
    6  A    between atoms: C_15  and  C_29
    7  A    between atoms: C_15  and  C_32
    8  A    between atoms: C_17  and  N_31
                            x       y       z     vdW  Elec       q    Type
                         _______ _______ _______ _____ _____    ______ ____

>  <TORSDO>
F 8

$$$$
=
 OpenBabel11032420293D

 33 37  0  0  1  0  0  0  0  0999 V2000
  191.2140  176.9910  146.2670 C   0  0  0  0  0  0  0  0  0  0  0  0
  191.9940  176.7040  147.2110 O   0  0  0  0  0  0  0  0  0  0  0  0
  191.7560  177.3080  145.0720 N   0  0  0  0  0  0  0  0  0  0  0  0
  189.8560  177.7970  143.5290 C   0  0  2  0  0  3  0  0  0  0  0  0
  189.8590  176.9580  146.5360 C   0  0  0  0  0  3  0  0  0  0  0  0
  188.7900  177.2230  145.7030 C   0  0  0  0  0  3  0  0  0  0  0  0
  191.2020  177.6550  143.8880 C   0  0  0  0  0  3  0  0  0  0  0  0
  187.5680  177.7860  143.8170 N   0  0  0  0  0  0  0  0  0  0  0  0
  188.7400  177.5980  144.3590 C   0  0  0  0  0  0  0  0  0  0  0  0
  186.1990  178.5570  145.6750 C   0  0  0  0  0  2  0  0  0  0  0  0
  186.2800  177.6220  144.4860 C   0  0  1  0  0  3  0  0  0  0  0  0
  184.7530  178.9920  145.7500 C   0  0  0  0  0  2  0  0  0  0  0  0
  185.1450  178.0110  143.5500 C   0  0  0  0  0  2  0  0  0  0  0  0
  184.2710  178.9920  144.3130 C   0  0  1  0  0  3  0  0  0  0  0  0
  182.7870  178.6530  144.2010 C   0  0  0  0  0  2  0  0  0  0  0  0
  182.0530  179.5540  143.2120 C   0  0  0  0  0  2  0  0  0  0  0  0
  180.0810  178.1580  142.8450 C   0  0  0  0  0  3  0  0  0  0  0  0
  182.8080  177.8480  140.7860 N   0  0  0  0  0  1  0  0  0  0  0  0
  179.2040  177.3860  142.0190 N   0  0  0  0  0  0  0  0  0  0  0  0
  181.1630  178.7480  142.3270 C   0  0  0  0  0  0  0  0  0  0  0  0
  180.5070  177.8320  140.0580 C   0  0  0  0  0  3  0  0  0  0  0  0
  181.5440  178.5590  140.8750 C   0  0  0  0  0  0  0  0  0  0  0  0
  179.4310  177.2760  140.6110 C   0  0  0  0  0  3  0  0  0  0  0  0
  189.5810  178.1750  142.2030 O   0  0  0  0  0  0  0  0  0  0  0  0
  190.7080  177.2040  140.3590 C   0  0  1  0  0  3  0  0  0  0  0  0
  189.4480  177.2520  141.1290 C   0  0  1  0  0  3  0  0  0  0  0  0
  190.3770  176.2100  141.2970 O   0  0  0  0  0  0  0  0  0  0  0  0
  190.4320  176.6790  138.9640 C   0  0  0  0  0  2  0  0  0  0  0  0
  193.0380  174.8950  137.3020 N   0  0  0  0  0  0  0  0  0  0  0  0
  191.6870  176.1490  138.3660 C   0  0  0  0  0  0  0  0  0  0  0  0
  191.7570  175.0550  137.5910 N   0  0  0  0  0  0  0  0  0  0  0  0
  193.7780  175.8370  137.8680 N   0  0  0  0  0  2  0  0  0  0  0  0
  192.9550  176.6510  138.5580 C   0  0  0  0  0  3  0  0  0  0  0  0
  1  5  1  0  0  0  0
  1  2  2  0  0  0  0
  3  1  1  0  0  0  0
  4 24  1  6  0  0  0
  4  7  1  0  0  0  0
  4  9  1  0  0  0  0
  6  5  2  0  0  0  0
  7  3  2  0  0  0  0
  8  9  2  0  0  0  0
  9  6  1  0  0  0  0
 10 12  1  0  0  0  0
 11  8  1  6  0  0  0
 11 10  1  0  0  0  0
 13 14  1  0  0  0  0
 13 11  1  0  0  0  0
 14 15  1  1  0  0  0
 14 12  1  0  0  0  0
 16 15  1  0  0  0  0
 18 22  1  0  0  0  0
 19 17  2  0  0  0  0
 20 17  1  0  0  0  0
 20 16  1  0  0  0  0
 21 23  2  0  0  0  0
 21 22  1  0  0  0  0
 22 20  2  0  0  0  0
 23 19  1  0  0  0  0
 25 28  1  6  0  0  0
 25 26  1  0  0  0  0
 25 27  1  0  0  0  0
 26 27  1  0  0  0  0
 26 24  1  1  0  0  0
 29 31  2  0  0  0  0
 29 32  1  0  0  0  0
 30 33  2  0  0  0  0
 30 28  1  0  0  0  0
 31 30  1  0  0  0  0
 32 33  1  0  0  0  0
M  END
>  <MODEL>
6

>  <REMARK>
 VINA RESULT:      -8.7      1.969      2.400
  Name = 
  8 active torsions:
  status: ('A' for Active; 'I' for Inactive)
    1  A    between atoms: C_6  and  C_25
    2  A    between atoms: C_9  and  C_29
    3  A    between atoms: C_11  and  O_22
    4  A    between atoms: C_13  and  O_22
    5  A    between atoms: C_14  and  C_25
    6  A    between atoms: C_15  and  C_29
    7  A    between atoms: C_15  and  C_32
    8  A    between atoms: C_17  and  N_31
                            x       y       z     vdW  Elec       q    Type
                         _______ _______ _______ _____ _____    ______ ____

>  <TORSDO>
F 8

$$$$
=
 OpenBabel11032420293D

 33 37  0  0  1  0  0  0  0  0999 V2000
  185.5890  178.6950  146.0860 C   0  0  0  0  0  0  0  0  0  0  0  0
  185.3370  178.9610  147.2900 O   0  0  0  0  0  0  0  0  0  0  0  0
  186.7850  178.1400  145.7980 N   0  0  0  0  0  0  0  0  0  0  0  0
  186.8380  177.7940  143.3270 C   0  0  2  0  0  3  0  0  0  0  0  0
  184.6130  178.9960  145.1550 C   0  0  0  0  0  3  0  0  0  0  0  0
  184.6160  178.8150  143.7870 C   0  0  0  0  0  3  0  0  0  0  0  0
  187.3450  177.7450  144.6320 C   0  0  0  0  0  3  0  0  0  0  0  0
  185.3130  178.2350  141.6550 N   0  0  0  0  0  0  0  0  0  0  0  0
  185.5830  178.2840  142.9310 C   0  0  0  0  0  0  0  0  0  0  0  0
  184.3800  179.4330  139.7540 C   0  0  0  0  0  2  0  0  0  0  0  0
  184.0690  178.6720  141.0260 C   0  0  1  0  0  3  0  0  0  0  0  0
  183.2650  179.0890  138.7930 C   0  0  0  0  0  2  0  0  0  0  0  0
  183.2320  177.4690  140.6170 C   0  0  0  0  0  2  0  0  0  0  0  0
  182.8560  177.6770  139.1600 C   0  0  1  0  0  3  0  0  0  0  0  0
  181.3740  177.4190  138.9020 C   0  0  0  0  0  2  0  0  0  0  0  0
  180.4980  178.6130  139.2680 C   0  0  0  0  0  2  0  0  0  0  0  0
  179.6950  177.5680  141.3270 C   0  0  0  0  0  3  0  0  0  0  0  0
  179.6780  180.9850  141.0210 N   0  0  0  0  0  1  0  0  0  0  0  0
  179.4400  177.5610  142.7340 N   0  0  0  0  0  0  0  0  0  0  0  0
  180.2330  178.6400  140.7360 C   0  0  0  0  0  0  0  0  0  0  0  0
  180.3280  179.7700  143.0020 C   0  0  0  0  0  3  0  0  0  0  0  0
  180.5180  179.9070  141.5130 C   0  0  0  0  0  0  0  0  0  0  0  0
  179.8070  178.6750  143.5520 C   0  0  0  0  0  3  0  0  0  0  0  0
  187.6630  177.3020  142.3000 O   0  0  0  0  0  0  0  0  0  0  0  0
  189.8790  176.4750  142.4330 C   0  0  1  0  0  3  0  0  0  0  0  0
  189.0340  177.6530  142.1490 C   0  0  1  0  0  3  0  0  0  0  0  0
  189.5970  176.8820  141.1170 O   0  0  0  0  0  0  0  0  0  0  0  0
  191.2770  176.9300  142.8010 C   0  0  0  0  0  2  0  0  0  0  0  0
  191.8090  176.8570  146.3300 N   0  0  0  0  0  0  0  0  0  0  0  0
  191.5500  176.6190  144.2310 C   0  0  0  0  0  0  0  0  0  0  0  0
  191.4410  177.5030  145.2360 N   0  0  0  0  0  0  0  0  0  0  0  0
  192.1530  175.6070  146.0550 N   0  0  0  0  0  2  0  0  0  0  0  0
  192.0060  175.4190  144.7290 C   0  0  0  0  0  3  0  0  0  0  0  0
  1  2  2  0  0  0  0
  3  1  1  0  0  0  0
  4 24  1  1  0  0  0
  4  7  1  0  0  0  0
  5  1  1  0  0  0  0
  6  5  2  0  0  0  0
  7  3  2  0  0  0  0
  8  9  2  0  0  0  0
  9  4  1  0  0  0  0
  9  6  1  0  0  0  0
 10 11  1  0  0  0  0
 11  8  1  6  0  0  0
 12 14  1  0  0  0  0
 12 10  1  0  0  0  0
 13 11  1  0  0  0  0
 14 15  1  1  0  0  0
 14 13  1  0  0  0  0
 15 16  1  0  0  0  0
 16 20  1  0  0  0  0
 17 19  1  0  0  0  0
 18 22  1  0  0  0  0
 19 23  2  0  0  0  0
 20 17  2  0  0  0  0
 20 22  1  0  0  0  0
 21 23  1  0  0  0  0
 22 21  2  0  0  0  0
 25 28  1  1  0  0  0
 26 24  1  6  0  0  0
 26 25  1  0  0  0  0
 27 26  1  0  0  0  0
 27 25  1  0  0  0  0
 28 30  1  0  0  0  0
 30 33  2  0  0  0  0
 30 31  1  0  0  0  0
 31 29  2  0  0  0  0
 32 29  1  0  0  0  0
 33 32  1  0  0  0  0
M  END
>  <MODEL>
7

>  <REMARK>
 VINA RESULT:      -8.6      2.682      5.433
  Name = 
  8 active torsions:
  status: ('A' for Active; 'I' for Inactive)
    1  A    between atoms: C_6  and  C_25
    2  A    between atoms: C_9  and  C_29
    3  A    between atoms: C_11  and  O_22
    4  A    between atoms: C_13  and  O_22
    5  A    between atoms: C_14  and  C_25
    6  A    between atoms: C_15  and  C_29
    7  A    between atoms: C_15  and  C_32
    8  A    between atoms: C_17  and  N_31
                            x       y       z     vdW  Elec       q    Type
                         _______ _______ _______ _____ _____    ______ ____

>  <TORSDO>
F 8

$$$$
=
 OpenBabel11032420293D

 33 37  0  0  1  0  0  0  0  0999 V2000
  183.0650  178.8990  144.1920 C   0  0  0  0  0  0  0  0  0  0  0  0
  181.8440  179.1440  144.0130 O   0  0  0  0  0  0  0  0  0  0  0  0
  183.5630  179.0430  145.4390 N   0  0  0  0  0  0  0  0  0  0  0  0
  185.9860  178.4580  145.3150 C   0  0  0  0  0  0  0  0  0  0  0  0
  183.7970  178.5010  143.0900 C   0  0  0  0  0  3  0  0  0  0  0  0
  185.1350  178.1720  142.9940 C   0  0  0  0  0  3  0  0  0  0  0  0
  184.8030  178.8620  145.9470 C   0  0  0  0  0  3  0  0  0  0  0  0
  187.3430  177.7830  143.5770 N   0  0  0  0  0  2  0  0  0  0  0  0
  186.1450  178.1370  143.9570 C   0  0  0  0  0  0  0  0  0  0  0  0
  187.7280  178.6120  141.3220 C   0  0  0  0  0  2  0  0  0  0  0  0
  187.7310  177.3950  142.2240 C   0  0  1  0  0  3  0  0  0  0  0  0
  188.8650  178.3990  140.3500 C   0  0  0  0  0  2  0  0  0  0  0  0
  189.1540  176.8550  142.2170 C   0  0  0  0  0  2  0  0  0  0  0  0
  189.8960  177.6050  141.1250 C   0  0  1  0  0  3  0  0  0  0  0  0
  190.7030  176.6710  140.2260 C   0  0  0  0  0  2  0  0  0  0  0  0
  190.6350  177.0710  138.7540 C   0  0  0  0  0  2  0  0  0  0  0  0
  190.5220  174.7920  137.8770 C   0  0  0  0  0  3  0  0  0  0  0  0
  193.5310  176.4370  137.9910 N   0  0  0  0  0  1  0  0  0  0  0  0
  190.9880  173.7230  137.0490 N   0  0  0  0  0  0  0  0  0  0  0  0
  191.1510  175.9720  137.8870 C   0  0  0  0  0  0  0  0  0  0  0  0
  192.7670  175.0610  136.1620 C   0  0  0  0  0  3  0  0  0  0  0  0
  192.4170  176.1960  137.0900 C   0  0  0  0  0  0  0  0  0  0  0  0
  192.0990  173.9080  136.1690 C   0  0  0  0  0  3  0  0  0  0  0  0
  187.1380  178.3580  146.1150 O   0  0  0  0  0  0  0  0  0  0  0  0
  189.3860  177.7170  146.4970 C   0  0  1  0  0  3  0  0  0  0  0  0
  188.0510  177.2680  146.0540 C   0  0  1  0  0  3  0  0  0  0  0  0
  188.5310  176.9950  147.3470 O   0  0  0  0  0  0  0  0  0  0  0  0
  190.4450  176.7800  145.9500 C   0  0  0  0  0  2  0  0  0  0  0  0
  192.7280  176.7830  148.6940 N   0  0  0  0  0  0  0  0  0  0  0  0
  191.4820  176.5280  146.9870 C   0  0  0  0  0  0  0  0  0  0  0  0
  191.7090  177.3220  148.0450 N   0  0  0  0  0  0  0  0  0  0  0  0
  193.1580  175.6890  148.0840 N   0  0  0  0  0  2  0  0  0  0  0  0
  192.3940  175.4960  146.9900 C   0  0  0  0  0  3  0  0  0  0  0  0
  1  3  1  0  0  0  0
  2  1  2  0  0  0  0
  3  7  2  0  0  0  0
  4  7  1  0  0  0  0
  4 24  1  0  0  0  0
  5  1  1  0  0  0  0
  6  5  2  0  0  0  0
  6  9  1  0  0  0  0
  8  9  1  0  0  0  0
  9  4  2  0  0  0  0
 10 11  1  0  0  0  0
 11  8  1  1  0  0  0
 12 14  1  0  0  0  0
 12 10  1  0  0  0  0
 13 11  1  0  0  0  0
 14 15  1  6  0  0  0
 14 13  1  0  0  0  0
 16 15  1  0  0  0  0
 17 20  1  0  0  0  0
 19 17  2  0  0  0  0
 20 16  1  0  0  0  0
 21 23  2  0  0  0  0
 21 22  1  0  0  0  0
 22 20  2  0  0  0  0
 22 18  1  0  0  0  0
 23 19  1  0  0  0  0
 25 28  1  6  0  0  0
 25 27  1  0  0  0  0
 26 24  1  1  0  0  0
 26 25  1  0  0  0  0
 26 27  1  0  0  0  0
 28 30  1  0  0  0  0
 30 33  2  0  0  0  0
 30 31  1  0  0  0  0
 31 29  2  0  0  0  0
 32 29  1  0  0  0  0
 33 32  1  0  0  0  0
M  END
>  <MODEL>
8

>  <REMARK>
 VINA RESULT:      -8.5      3.145      9.010
  Name = 
  8 active torsions:
  status: ('A' for Active; 'I' for Inactive)
    1  A    between atoms: C_6  and  C_25
    2  A    between atoms: C_9  and  C_29
    3  A    between atoms: C_11  and  O_22
    4  A    between atoms: C_13  and  O_22
    5  A    between atoms: C_14  and  C_25
    6  A    between atoms: C_15  and  C_29
    7  A    between atoms: C_15  and  C_32
    8  A    between atoms: C_17  and  N_31
                            x       y       z     vdW  Elec       q    Type
                         _______ _______ _______ _____ _____    ______ ____

>  <TORSDO>
F 8

$$$$
=
 OpenBabel11032420293D

 33 37  0  0  1  0  0  0  0  0999 V2000
  191.3700  176.8210  138.6810 C   0  0  0  0  0  0  0  0  0  0  0  0
  192.5620  176.4270  138.6030 O   0  0  0  0  0  0  0  0  0  0  0  0
  190.6310  176.8330  137.5520 N   0  0  0  0  0  0  0  0  0  0  0  0
  188.3690  177.6780  138.1820 C   0  0  2  0  0  3  0  0  0  0  0  0
  190.9160  177.2130  139.9260 C   0  0  0  0  0  3  0  0  0  0  0  0
  189.6730  177.6830  140.3020 C   0  0  0  0  0  3  0  0  0  0  0  0
  189.3500  177.1920  137.3090 C   0  0  0  0  0  3  0  0  0  0  0  0
  187.4620  178.3640  140.1880 N   0  0  0  0  0  0  0  0  0  0  0  0
  188.5100  177.9050  139.5610 C   0  0  0  0  0  0  0  0  0  0  0  0
  185.9810  179.1300  141.9600 C   0  0  0  0  0  2  0  0  0  0  0  0
  187.3780  178.6560  141.6170 C   0  0  1  0  0  3  0  0  0  0  0  0
  185.6980  178.5880  143.3420 C   0  0  0  0  0  2  0  0  0  0  0  0
  187.6190  177.3920  142.4290 C   0  0  0  0  0  2  0  0  0  0  0  0
  186.4690  177.2860  143.4160 C   0  0  1  0  0  3  0  0  0  0  0  0
  186.9480  176.9760  144.8320 C   0  0  0  0  0  2  0  0  0  0  0  0
  187.8310  178.0790  145.4070 C   0  0  0  0  0  2  0  0  0  0  0  0
  189.4300  177.1910  147.0290 C   0  0  0  0  0  3  0  0  0  0  0  0
  190.5580  178.8070  144.2200 N   0  0  0  0  0  1  0  0  0  0  0  0
  190.7070  176.6640  147.3980 N   0  0  0  0  0  0  0  0  0  0  0  0
  189.1770  177.5420  145.7640 C   0  0  0  0  0  0  0  0  0  0  0  0
  191.5190  176.7980  145.1480 C   0  0  0  0  0  3  0  0  0  0  0  0
  190.2470  177.4710  144.6980 C   0  0  0  0  0  0  0  0  0  0  0  0
  191.7220  176.4440  146.4160 C   0  0  0  0  0  3  0  0  0  0  0  0
  187.1080  177.9690  137.6330 O   0  0  0  0  0  0  0  0  0  0  0  0
  184.8130  177.3810  137.5960 C   0  0  1  0  0  3  0  0  0  0  0  0
  186.1810  176.9770  137.2090 C   0  0  1  0  0  3  0  0  0  0  0  0
  185.2880  177.5450  136.2830 O   0  0  0  0  0  0  0  0  0  0  0  0
  183.9180  176.1590  137.6490 C   0  0  0  0  0  2  0  0  0  0  0  0
  181.1650  176.4160  139.9050 N   0  0  0  0  0  0  0  0  0  0  0  0
  182.6790  176.4720  138.4100 C   0  0  0  0  0  0  0  0  0  0  0  0
  182.3450  175.9130  139.5840 N   0  0  0  0  0  2  0  0  0  0  0  0
  180.7380  177.2620  138.9790 N   0  0  0  0  0  0  0  0  0  0  0  0
  181.6710  177.3210  138.0090 C   0  0  0  0  0  3  0  0  0  0  0  0
  1  5  1  0  0  0  0
  2  1  2  0  0  0  0
  3  1  1  0  0  0  0
  4 24  1  1  0  0  0
  4  9  1  0  0  0  0
  5  6  2  0  0  0  0
  7  3  2  0  0  0  0
  7  4  1  0  0  0  0
  9  8  2  0  0  0  0
  9  6  1  0  0  0  0
 10 12  1  0  0  0  0
 11  8  1  6  0  0  0
 11 10  1  0  0  0  0
 11 13  1  0  0  0  0
 12 14  1  0  0  0  0
 13 14  1  0  0  0  0
 14 15  1  1  0  0  0
 15 16  1  0  0  0  0
 16 20  1  0  0  0  0
 17 19  1  0  0  0  0
 18 22  1  0  0  0  0
 20 17  2  0  0  0  0
 21 23  1  0  0  0  0
 22 21  2  0  0  0  0
 22 20  1  0  0  0  0
 23 19  2  0  0  0  0
 25 28  1  6  0  0  0
 26 25  1  0  0  0  0
 26 24  1  1  0  0  0
 27 26  1  0  0  0  0
 27 25  1  0  0  0  0
 28 30  1  0  0  0  0
 30 31  1  0  0  0  0
 31 29  1  0  0  0  0
 32 29  2  0  0  0  0
 33 30  2  0  0  0  0
 33 32  1  0  0  0  0
M  END
>  <MODEL>
9

>  <REMARK>
 VINA RESULT:      -8.4      3.086      7.357
  Name = 
  8 active torsions:
  status: ('A' for Active; 'I' for Inactive)
    1  A    between atoms: C_6  and  C_25
    2  A    between atoms: C_9  and  C_29
    3  A    between atoms: C_11  and  O_22
    4  A    between atoms: C_13  and  O_22
    5  A    between atoms: C_14  and  C_25
    6  A    between atoms: C_15  and  C_29
    7  A    between atoms: C_15  and  C_32
    8  A    between atoms: C_17  and  N_31
                            x       y       z     vdW  Elec       q    Type
                         _______ _______ _______ _____ _____    ______ ____

>  <TORSDO>
F 8

$$$$
