=
 OpenBabel11042411043D

 39 45  0  0  1  0  0  0  0  0999 V2000
  182.3340  179.1940  138.2690 C   0  0  1  0  0  3  0  0  0  0  0  0
  182.4350  179.4450  139.7140 N   0  0  0  0  0  0  0  0  0  0  0  0
  183.0060  177.8670  138.0350 C   0  0  2  0  0  0  0  0  0  0  0  0
  184.0810  177.9080  136.9580 C   0  0  2  0  0  3  0  0  0  0  0  0
  182.8180  177.0730  136.7620 C   0  0  0  0  0  2  0  0  0  0  0  0
  181.0700  179.5950  140.2290 C   0  0  0  0  0  3  0  0  0  0  0  0
  183.0080  178.2540  140.3660 C   0  0  1  0  0  3  0  0  0  0  0  0
  180.9250  179.1400  137.9390 N   0  0  0  0  0  0  0  0  0  0  0  0
  180.0940  179.3630  139.0960 C   0  0  0  0  0  3  0  0  0  0  0  0
  183.3390  177.1930  139.3280 C   0  0  0  0  0  2  0  0  0  0  0  0
  180.5800  181.7720  135.6960 C   0  0  0  0  0  2  0  0  0  0  0  0
  180.3860  180.2710  135.8750 C   0  0  0  0  0  0  0  0  0  0  0  0
  180.0600  181.0310  134.5940 C   0  0  0  0  0  2  0  0  0  0  0  0
  180.4470  179.1530  136.5890 C   0  0  0  0  0  3  0  0  0  0  0  0
  185.1970  177.0220  137.2650 N   0  0  0  0  0  2  0  0  0  0  0  0
  187.5500  176.5990  137.8640 N   0  0  0  0  0  2  0  0  0  0  0  0
  186.4940  177.5210  137.5890 C   0  0  0  0  0  0  0  0  0  0  0  0
  186.7070  178.7650  137.6280 O   0  0  0  0  0  0  0  0  0  0  0  0
  188.9110  177.0260  138.1580 C   0  0  0  0  0  2  0  0  0  0  0  0
  189.8590  176.7480  140.3990 C   0  0  2  0  0  3  0  0  0  0  0  0
  190.3120  177.9600  139.8440 O   0  0  0  0  0  0  0  0  0  0  0  0
  188.9840  177.5950  139.5630 C   0  0  1  0  0  3  0  0  0  0  0  0
  190.2890  176.0000  142.6910 C   0  0  0  0  0  2  0  0  0  0  0  0
  189.5340  176.9640  141.8620 C   0  0  1  0  0  3  0  0  0  0  0  0
  190.7100  177.3330  142.5400 O   0  0  0  0  0  0  0  0  0  0  0  0
  184.2730  178.6300  141.1270 C   0  0  0  0  0  2  0  0  0  0  0  0
  184.3360  177.9190  142.4720 C   0  0  0  0  0  2  0  0  0  0  0  0
  182.9030  178.7890  144.3140 C   0  0  0  0  0  1  0  0  0  0  0  0
  184.2470  178.9100  143.6220 C   0  0  1  0  0  3  0  0  0  0  0  0
  185.3160  178.6340  144.5830 C   0  0  0  0  0  0  0  0  0  0  0  0
  186.2030  178.4130  145.3710 C   0  0  0  0  0  0  0  0  0  0  0  0
  187.0520  178.3300  147.6730 C   0  0  0  0  0  3  0  0  0  0  0  0
  188.0880  178.0750  148.5780 C   0  0  0  0  0  3  0  0  0  0  0  0
  187.2620  178.1510  146.3020 C   0  0  0  0  0  0  0  0  0  0  0  0
  189.5430  177.4640  146.7410 C   0  0  0  0  0  0  0  0  0  0  0  0
  188.5080  177.7190  145.8360 C   0  0  0  0  0  3  0  0  0  0  0  0
  189.3330  177.6420  148.1120 C   0  0  0  0  0  3  0  0  0  0  0  0
  191.8530  176.6650  145.8750 N   0  0  0  0  0  0  0  0  0  0  0  0
  190.8220  177.0210  146.2610 C   0  0  0  0  0  0  0  0  0  0  0  0
  1  8  1  1  0  0  0
  1  2  1  0  0  0  0
  2  6  1  0  0  0  0
  2  7  1  0  0  0  0
  3  5  1  6  0  0  0
  3  1  1  0  0  0  0
  3 10  1  0  0  0  0
  4 15  1  1  0  0  0
  4  3  1  0  0  0  0
  5  4  1  0  0  0  0
  7 26  1  6  0  0  0
  8  9  1  0  0  0  0
  9  6  2  0  0  0  0
 10  7  1  0  0  0  0
 11 12  1  0  0  0  0
 12 14  2  0  0  0  0
 13 11  1  0  0  0  0
 13 12  1  0  0  0  0
 14  8  1  0  0  0  0
 15 17  1  0  0  0  0
 16 19  1  0  0  0  0
 17 18  2  0  0  0  0
 17 16  1  0  0  0  0
 20 21  1  1  0  0  0
 20 24  1  0  0  0  0
 22 19  1  6  0  0  0
 22 21  1  0  0  0  0
 22 20  1  0  0  0  0
 24 25  1  0  0  0  0
 24 23  1  1  0  0  0
 25 23  1  0  0  0  0
 26 27  1  0  0  0  0
 27 29  1  0  0  0  0
 29 28  1  1  0  0  0
 29 30  1  0  0  0  0
 30 31  3  0  0  0  0
 31 34  1  0  0  0  0
 32 33  1  0  0  0  0
 34 32  2  0  0  0  0
 35 37  1  0  0  0  0
 36 34  1  0  0  0  0
 36 35  2  0  0  0  0
 37 33  2  0  0  0  0
 38 39  3  0  0  0  0
 39 35  1  0  0  0  0
M  END
>  <MODEL>
1

>  <REMARK>
 VINA RESULT:      -8.6      0.000      0.000
  Name = 
  11 active torsions:
  status: ('A' for Active; 'I' for Inactive)
    1  A    between atoms: C_1  and  C_23
    2  A    between atoms: C_9  and  C_18
    3  A    between atoms: C_11  and  N_12
    4  A    between atoms: C_13  and  C_14
    5  A    between atoms: C_13  and  C_23
    6  A    between atoms: C_14  and  C_30
    7  A    between atoms: N_15  and  C_32
    8  A    between atoms: C_16  and  C_31
    9  A    between atoms: C_19  and  C_28
   10  A    between atoms: C_32  and  C_35
   11  A    between atoms: N_33  and  C_38
                            x       y       z     vdW  Elec       q    Type
                         _______ _______ _______ _____ _____    ______ ____

>  <TORSDO>
F 11

$$$$
=
 OpenBabel11042411043D

 39 45  0  0  1  0  0  0  0  0999 V2000
  189.5030  176.0760  137.8390 C   0  0  1  0  0  3  0  0  0  0  0  0
  190.4400  176.2250  138.9620 N   0  0  0  0  0  0  0  0  0  0  0  0
  188.7630  177.3840  137.7460 C   0  0  2  0  0  0  0  0  0  0  0  0
  187.2480  177.2300  137.7500 C   0  0  2  0  0  3  0  0  0  0  0  0
  187.9680  177.7830  136.5230 C   0  0  0  0  0  2  0  0  0  0  0  0
  191.7920  176.0070  138.4370 C   0  0  0  0  0  3  0  0  0  0  0  0
  190.3900  177.6170  139.4430 C   0  0  1  0  0  3  0  0  0  0  0  0
  190.2920  175.8260  136.6510 N   0  0  0  0  0  0  0  0  0  0  0  0
  191.7030  175.7850  136.9420 C   0  0  0  0  0  3  0  0  0  0  0  0
  189.3630  178.4120  138.6510 C   0  0  0  0  0  2  0  0  0  0  0  0
  187.9970  173.2970  136.0070 C   0  0  0  0  0  2  0  0  0  0  0  0
  188.8370  174.3930  135.3620 C   0  0  0  0  0  0  0  0  0  0  0  0
  187.9060  173.4620  134.5940 C   0  0  0  0  0  2  0  0  0  0  0  0
  189.7110  175.3910  135.4160 C   0  0  0  0  0  3  0  0  0  0  0  0
  186.5900  178.3250  138.4510 N   0  0  0  0  0  2  0  0  0  0  0  0
  184.5860  179.5290  139.2320 N   0  0  0  0  0  2  0  0  0  0  0  0
  185.1690  178.4210  138.5450 C   0  0  0  0  0  0  0  0  0  0  0  0
  184.4360  177.5360  138.0220 O   0  0  0  0  0  0  0  0  0  0  0  0
  183.1470  179.7230  139.3340 C   0  0  0  0  0  2  0  0  0  0  0  0
  181.1310  178.9730  140.5050 C   0  0  2  0  0  3  0  0  0  0  0  0
  181.8950  177.8550  140.1230 O   0  0  0  0  0  0  0  0  0  0  0  0
  182.6080  178.9890  140.5470 C   0  0  1  0  0  3  0  0  0  0  0  0
  179.1050  178.8070  141.8710 C   0  0  0  0  0  2  0  0  0  0  0  0
  180.5820  178.7440  141.8980 C   0  0  1  0  0  3  0  0  0  0  0  0
  179.7920  177.5810  141.8910 O   0  0  0  0  0  0  0  0  0  0  0  0
  190.0240  177.6490  140.9210 C   0  0  0  0  0  2  0  0  0  0  0  0
  190.0930  176.2570  141.5330 C   0  0  0  0  0  2  0  0  0  0  0  0
  191.7860  177.2260  143.0830 C   0  0  0  0  0  1  0  0  0  0  0  0
  190.5810  176.3120  142.9730 C   0  0  1  0  0  3  0  0  0  0  0  0
  189.5070  176.8160  143.8300 C   0  0  0  0  0  0  0  0  0  0  0  0
  188.6160  177.2260  144.5330 C   0  0  0  0  0  0  0  0  0  0  0  0
  187.7480  177.8640  146.7390 C   0  0  0  0  0  3  0  0  0  0  0  0
  186.7070  178.3370  147.5450 C   0  0  0  0  0  3  0  0  0  0  0  0
  187.5520  177.7110  145.3630 C   0  0  0  0  0  0  0  0  0  0  0  0
  185.2740  178.5020  145.5990 C   0  0  0  0  0  0  0  0  0  0  0  0
  186.3150  178.0300  144.7930 C   0  0  0  0  0  3  0  0  0  0  0  0
  185.4700  178.6550  146.9760 C   0  0  0  0  0  3  0  0  0  0  0  0
  182.9820  179.0910  144.5400 N   0  0  0  0  0  0  0  0  0  0  0  0
  184.0050  178.8280  145.0130 C   0  0  0  0  0  0  0  0  0  0  0  0
  1  8  1  6  0  0  0
  1  2  1  0  0  0  0
  2  7  1  0  0  0  0
  3  5  1  6  0  0  0
  3  4  1  0  0  0  0
  3  1  1  0  0  0  0
  3 10  1  0  0  0  0
  4 15  1  1  0  0  0
  5  4  1  0  0  0  0
  6  2  1  0  0  0  0
  7 26  1  1  0  0  0
  8  9  1  0  0  0  0
  9  6  2  0  0  0  0
 10  7  1  0  0  0  0
 12 14  2  0  0  0  0
 12 11  1  0  0  0  0
 13 12  1  0  0  0  0
 13 11  1  0  0  0  0
 14  8  1  0  0  0  0
 15 17  1  0  0  0  0
 16 19  1  0  0  0  0
 17 16  1  0  0  0  0
 18 17  2  0  0  0  0
 20 21  1  6  0  0  0
 20 22  1  0  0  0  0
 20 24  1  0  0  0  0
 21 22  1  0  0  0  0
 22 19  1  6  0  0  0
 23 25  1  0  0  0  0
 24 23  1  6  0  0  0
 25 24  1  0  0  0  0
 26 27  1  0  0  0  0
 27 29  1  0  0  0  0
 29 28  1  6  0  0  0
 29 30  1  0  0  0  0
 30 31  3  0  0  0  0
 31 34  1  0  0  0  0
 32 33  1  0  0  0  0
 34 32  2  0  0  0  0
 35 37  1  0  0  0  0
 36 34  1  0  0  0  0
 36 35  2  0  0  0  0
 37 33  2  0  0  0  0
 38 39  3  0  0  0  0
 39 35  1  0  0  0  0
M  END
>  <MODEL>
2

>  <REMARK>
 VINA RESULT:      -8.5      2.993      7.451
  Name = 
  11 active torsions:
  status: ('A' for Active; 'I' for Inactive)
    1  A    between atoms: C_1  and  C_23
    2  A    between atoms: C_9  and  C_18
    3  A    between atoms: C_11  and  N_12
    4  A    between atoms: C_13  and  C_14
    5  A    between atoms: C_13  and  C_23
    6  A    between atoms: C_14  and  C_30
    7  A    between atoms: N_15  and  C_32
    8  A    between atoms: C_16  and  C_31
    9  A    between atoms: C_19  and  C_28
   10  A    between atoms: C_32  and  C_35
   11  A    between atoms: N_33  and  C_38
                            x       y       z     vdW  Elec       q    Type
                         _______ _______ _______ _____ _____    ______ ____

>  <TORSDO>
F 11

$$$$
=
 OpenBabel11042411043D

 39 45  0  0  1  0  0  0  0  0999 V2000
  189.4090  176.9970  145.5390 C   0  0  1  0  0  3  0  0  0  0  0  0
  187.9900  177.0440  145.1570 N   0  0  0  0  0  0  0  0  0  0  0  0
  190.1240  177.9000  144.5690 C   0  0  2  0  0  0  0  0  0  0  0  0
  191.3030  177.2350  143.8720 C   0  0  2  0  0  3  0  0  0  0  0  0
  191.5240  178.4130  144.8180 C   0  0  0  0  0  2  0  0  0  0  0  0
  187.2380  177.5210  146.3230 C   0  0  0  0  0  3  0  0  0  0  0  0
  187.8140  178.0510  144.0960 C   0  0  1  0  0  3  0  0  0  0  0  0
  189.5050  177.4930  146.8960 N   0  0  0  0  0  0  0  0  0  0  0  0
  188.2150  177.8460  147.4330 C   0  0  0  0  0  3  0  0  0  0  0  0
  189.1550  178.6650  143.7260 C   0  0  0  0  0  2  0  0  0  0  0  0
  192.0360  175.1140  146.7840 C   0  0  0  0  0  2  0  0  0  0  0  0
  191.5620  176.3770  147.4940 C   0  0  0  0  0  0  0  0  0  0  0  0
  192.8490  175.6350  147.8330 C   0  0  0  0  0  2  0  0  0  0  0  0
  190.6970  177.3670  147.6810 C   0  0  0  0  0  3  0  0  0  0  0  0
  191.4520  177.6920  142.4960 N   0  0  0  0  0  2  0  0  0  0  0  0
  191.0060  177.5250  140.0780 N   0  0  0  0  0  2  0  0  0  0  0  0
  190.8050  177.0370  141.4060 C   0  0  0  0  0  0  0  0  0  0  0  0
  190.0660  176.0350  141.6130 O   0  0  0  0  0  0  0  0  0  0  0  0
  190.4180  176.8880  138.9080 C   0  0  0  0  0  2  0  0  0  0  0  0
  188.1260  177.6580  138.5210 C   0  0  2  0  0  3  0  0  0  0  0  0
  188.8820  178.7000  139.0900 O   0  0  0  0  0  0  0  0  0  0  0  0
  189.5420  177.8770  138.1630 C   0  0  1  0  0  3  0  0  0  0  0  0
  185.9180  177.5480  137.4670 C   0  0  0  0  0  2  0  0  0  0  0  0
  187.2310  178.2280  137.4410 C   0  0  1  0  0  3  0  0  0  0  0  0
  186.1050  178.8150  138.0460 O   0  0  0  0  0  0  0  0  0  0  0  0
  187.1940  177.4090  142.8620 C   0  0  0  0  0  2  0  0  0  0  0  0
  186.3260  178.4040  142.1030 C   0  0  0  0  0  2  0  0  0  0  0  0
  184.4260  179.0810  143.5650 C   0  0  0  0  0  1  0  0  0  0  0  0
  184.8510  178.1940  142.4100 C   0  0  1  0  0  3  0  0  0  0  0  0
  184.0570  178.5230  141.2260 C   0  0  0  0  0  0  0  0  0  0  0  0
  183.4020  178.7850  140.2470 C   0  0  0  0  0  0  0  0  0  0  0  0
  182.3610  178.0970  138.1330 C   0  0  0  0  0  3  0  0  0  0  0  0
  181.6050  178.3990  136.9950 C   0  0  0  0  0  3  0  0  0  0  0  0
  182.6270  179.0910  139.0800 C   0  0  0  0  0  0  0  0  0  0  0  0
  181.3830  180.6900  137.7510 C   0  0  0  0  0  0  0  0  0  0  0  0
  182.1380  180.3870  138.8880 C   0  0  0  0  0  3  0  0  0  0  0  0
  181.1170  179.6950  136.8040 C   0  0  0  0  0  3  0  0  0  0  0  0
  180.4780  183.0930  137.3970 N   0  0  0  0  0  0  0  0  0  0  0  0
  180.8820  182.0210  137.5550 C   0  0  0  0  0  0  0  0  0  0  0  0
  1  2  1  6  0  0  0
  1  8  1  0  0  0  0
  2  6  1  0  0  0  0
  3 10  1  6  0  0  0
  3  5  1  0  0  0  0
  3  1  1  0  0  0  0
  4 15  1  6  0  0  0
  4  3  1  0  0  0  0
  4  5  1  0  0  0  0
  6  9  2  0  0  0  0
  7 26  1  6  0  0  0
  7  2  1  0  0  0  0
  8  9  1  0  0  0  0
  8 14  1  0  0  0  0
 10  7  1  0  0  0  0
 11 12  1  0  0  0  0
 11 13  1  0  0  0  0
 12 14  2  0  0  0  0
 12 13  1  0  0  0  0
 16 17  1  0  0  0  0
 17 18  2  0  0  0  0
 17 15  1  0  0  0  0
 19 16  1  0  0  0  0
 20 21  1  1  0  0  0
 22 20  1  0  0  0  0
 22 19  1  1  0  0  0
 22 21  1  0  0  0  0
 23 25  1  0  0  0  0
 24 23  1  6  0  0  0
 24 25  1  0  0  0  0
 24 20  1  0  0  0  0
 27 29  1  0  0  0  0
 27 26  1  0  0  0  0
 29 28  1  1  0  0  0
 30 29  1  0  0  0  0
 31 30  3  0  0  0  0
 32 34  1  0  0  0  0
 33 32  2  0  0  0  0
 34 31  1  0  0  0  0
 35 36  1  0  0  0  0
 36 34  2  0  0  0  0
 37 33  1  0  0  0  0
 37 35  2  0  0  0  0
 38 39  3  0  0  0  0
 39 35  1  0  0  0  0
M  END
>  <MODEL>
3

>  <REMARK>
 VINA RESULT:      -8.4      2.121      9.826
  Name = 
  11 active torsions:
  status: ('A' for Active; 'I' for Inactive)
    1  A    between atoms: C_1  and  C_23
    2  A    between atoms: C_9  and  C_18
    3  A    between atoms: C_11  and  N_12
    4  A    between atoms: C_13  and  C_14
    5  A    between atoms: C_13  and  C_23
    6  A    between atoms: C_14  and  C_30
    7  A    between atoms: N_15  and  C_32
    8  A    between atoms: C_16  and  C_31
    9  A    between atoms: C_19  and  C_28
   10  A    between atoms: C_32  and  C_35
   11  A    between atoms: N_33  and  C_38
                            x       y       z     vdW  Elec       q    Type
                         _______ _______ _______ _____ _____    ______ ____

>  <TORSDO>
F 11

$$$$
=
 OpenBabel11042411043D

 39 45  0  0  1  0  0  0  0  0999 V2000
  190.2420  176.6570  139.2940 C   0  0  1  0  0  3  0  0  0  0  0  0
  190.0110  176.9820  140.7080 N   0  0  0  0  0  0  0  0  0  0  0  0
  189.3260  177.5590  138.5110 C   0  0  2  0  0  0  0  0  0  0  0  0
  188.4390  176.8170  137.5190 C   0  0  2  0  0  3  0  0  0  0  0  0
  189.4970  177.8020  137.0280 C   0  0  0  0  0  2  0  0  0  0  0  0
  191.2940  177.4080  141.2770 C   0  0  0  0  0  3  0  0  0  0  0  0
  189.1040  178.1410  140.7900 C   0  0  1  0  0  3  0  0  0  0  0  0
  191.6340  176.9380  139.0100 N   0  0  0  0  0  0  0  0  0  0  0  0
  192.3340  177.4150  140.1770 C   0  0  0  0  0  3  0  0  0  0  0  0
  188.6830  178.5790  139.3950 C   0  0  0  0  0  2  0  0  0  0  0  0
  191.2870  174.0040  137.1820 C   0  0  0  0  0  2  0  0  0  0  0  0
  192.0150  175.3420  137.2390 C   0  0  0  0  0  0  0  0  0  0  0  0
  192.2200  174.3010  136.1440 C   0  0  0  0  0  2  0  0  0  0  0  0
  192.2760  176.5160  137.8020 C   0  0  0  0  0  3  0  0  0  0  0  0
  187.1230  177.4300  137.4000 N   0  0  0  0  0  2  0  0  0  0  0  0
  184.6770  177.3160  137.1140 N   0  0  0  0  0  2  0  0  0  0  0  0
  185.9360  176.6530  137.2430 C   0  0  0  0  0  0  0  0  0  0  0  0
  185.9990  175.3930  137.2170 O   0  0  0  0  0  0  0  0  0  0  0  0
  183.4270  176.5990  136.9080 C   0  0  0  0  0  2  0  0  0  0  0  0
  181.7410  175.5020  138.3040 C   0  0  2  0  0  3  0  0  0  0  0  0
  182.8990  175.7420  139.0680 O   0  0  0  0  0  0  0  0  0  0  0  0
  182.5440  176.7300  138.1340 C   0  0  1  0  0  3  0  0  0  0  0  0
  179.5560  174.6850  139.0510 C   0  0  0  0  0  2  0  0  0  0  0  0
  180.5200  175.8010  139.1490 C   0  0  1  0  0  3  0  0  0  0  0  0
  180.4130  174.8250  140.1560 O   0  0  0  0  0  0  0  0  0  0  0  0
  187.8670  177.7840  141.6030 C   0  0  0  0  0  2  0  0  0  0  0  0
  186.6630  178.6040  141.1600 C   0  0  0  0  0  2  0  0  0  0  0  0
  184.4840  177.8850  142.1290 C   0  0  0  0  0  1  0  0  0  0  0  0
  185.6800  178.8010  142.3030 C   0  0  1  0  0  3  0  0  0  0  0  0
  186.3450  178.4990  143.5720 C   0  0  0  0  0  0  0  0  0  0  0  0
  186.8990  178.2560  144.6160 C   0  0  0  0  0  0  0  0  0  0  0  0
  186.8970  178.1520  147.0690 C   0  0  0  0  0  3  0  0  0  0  0  0
  187.5500  177.8720  148.2740 C   0  0  0  0  0  3  0  0  0  0  0  0
  187.5650  177.9690  145.8530 C   0  0  0  0  0  0  0  0  0  0  0  0
  189.5370  177.2260  147.0470 C   0  0  0  0  0  0  0  0  0  0  0  0
  188.8840  177.5060  145.8430 C   0  0  0  0  0  3  0  0  0  0  0  0
  188.8700  177.4100  148.2630 C   0  0  0  0  0  3  0  0  0  0  0  0
  191.9840  176.3690  147.0270 N   0  0  0  0  0  0  0  0  0  0  0  0
  190.8920  176.7520  147.0360 C   0  0  0  0  0  0  0  0  0  0  0  0
  1  8  1  6  0  0  0
  1  2  1  0  0  0  0
  2  7  1  0  0  0  0
  2  6  1  0  0  0  0
  3  5  1  6  0  0  0
  3  1  1  0  0  0  0
  3 10  1  0  0  0  0
  4 15  1  1  0  0  0
  4  3  1  0  0  0  0
  5  4  1  0  0  0  0
  7 26  1  1  0  0  0
  8  9  1  0  0  0  0
  9  6  2  0  0  0  0
 10  7  1  0  0  0  0
 11 12  1  0  0  0  0
 12 14  2  0  0  0  0
 13 11  1  0  0  0  0
 13 12  1  0  0  0  0
 14  8  1  0  0  0  0
 16 17  1  0  0  0  0
 17 15  1  0  0  0  0
 18 17  2  0  0  0  0
 19 16  1  0  0  0  0
 20 21  1  1  0  0  0
 20 24  1  0  0  0  0
 22 19  1  6  0  0  0
 22 20  1  0  0  0  0
 22 21  1  0  0  0  0
 23 25  1  0  0  0  0
 24 23  1  6  0  0  0
 24 25  1  0  0  0  0
 27 26  1  0  0  0  0
 27 29  1  0  0  0  0
 29 28  1  6  0  0  0
 29 30  1  0  0  0  0
 30 31  3  0  0  0  0
 31 34  1  0  0  0  0
 32 33  1  0  0  0  0
 34 32  2  0  0  0  0
 35 37  1  0  0  0  0
 36 34  1  0  0  0  0
 36 35  2  0  0  0  0
 37 33  2  0  0  0  0
 38 39  3  0  0  0  0
 39 35  1  0  0  0  0
M  END
>  <MODEL>
4

>  <REMARK>
 VINA RESULT:      -8.2      2.859      7.143
  Name = 
  11 active torsions:
  status: ('A' for Active; 'I' for Inactive)
    1  A    between atoms: C_1  and  C_23
    2  A    between atoms: C_9  and  C_18
    3  A    between atoms: C_11  and  N_12
    4  A    between atoms: C_13  and  C_14
    5  A    between atoms: C_13  and  C_23
    6  A    between atoms: C_14  and  C_30
    7  A    between atoms: N_15  and  C_32
    8  A    between atoms: C_16  and  C_31
    9  A    between atoms: C_19  and  C_28
   10  A    between atoms: C_32  and  C_35
   11  A    between atoms: N_33  and  C_38
                            x       y       z     vdW  Elec       q    Type
                         _______ _______ _______ _____ _____    ______ ____

>  <TORSDO>
F 11

$$$$
=
 OpenBabel11042411043D

 39 45  0  0  1  0  0  0  0  0999 V2000
  181.6320  179.3650  140.7260 C   0  0  1  0  0  3  0  0  0  0  0  0
  181.4330  179.4130  142.1810 N   0  0  0  0  0  0  0  0  0  0  0  0
  182.8410  178.4960  140.5060 C   0  0  2  0  0  0  0  0  0  0  0  0
  183.9130  179.1480  139.6430 C   0  0  2  0  0  3  0  0  0  0  0  0
  183.1800  177.9010  139.1570 C   0  0  0  0  0  2  0  0  0  0  0  0
  180.0880  178.8950  142.4570 C   0  0  0  0  0  3  0  0  0  0  0  0
  182.3840  178.4880  142.8240 C   0  0  1  0  0  3  0  0  0  0  0  0
  180.4420  178.7760  140.1480 N   0  0  0  0  0  0  0  0  0  0  0  0
  179.4610  178.4510  141.1530 C   0  0  0  0  0  3  0  0  0  0  0  0
  183.2730  177.8360  141.7760 C   0  0  0  0  0  2  0  0  0  0  0  0
  181.0410  181.2390  137.7720 C   0  0  0  0  0  2  0  0  0  0  0  0
  180.4800  179.8370  137.9790 C   0  0  0  0  0  0  0  0  0  0  0  0
  180.5260  180.5520  136.6330 C   0  0  0  0  0  2  0  0  0  0  0  0
  180.1780  178.7920  138.7400 C   0  0  0  0  0  3  0  0  0  0  0  0
  185.2570  178.7770  140.0690 N   0  0  0  0  0  2  0  0  0  0  0  0
  187.6410  178.3300  139.6330 N   0  0  0  0  0  2  0  0  0  0  0  0
  186.3520  178.7170  139.1550 C   0  0  0  0  0  0  0  0  0  0  0  0
  186.1810  179.0000  137.9370 O   0  0  0  0  0  0  0  0  0  0  0  0
  188.7980  178.2010  138.7590 C   0  0  0  0  0  2  0  0  0  0  0  0
  190.6580  176.7210  138.1710 C   0  0  2  0  0  3  0  0  0  0  0  0
  190.4890  176.7300  139.5680 O   0  0  0  0  0  0  0  0  0  0  0  0
  189.3190  176.7770  138.7910 C   0  0  1  0  0  3  0  0  0  0  0  0
  191.9210  175.3310  136.5990 C   0  0  0  0  0  2  0  0  0  0  0  0
  190.9540  175.3070  137.7170 C   0  0  1  0  0  3  0  0  0  0  0  0
  192.3200  175.0410  137.9150 O   0  0  0  0  0  0  0  0  0  0  0  0
  183.2510  179.2400  143.8250 C   0  0  0  0  0  2  0  0  0  0  0  0
  184.7010  178.7820  143.7490 C   0  0  0  0  0  2  0  0  0  0  0  0
  184.5860  178.2680  146.1840 C   0  0  0  0  0  1  0  0  0  0  0  0
  185.3990  178.9370  145.0910 C   0  0  1  0  0  3  0  0  0  0  0  0
  186.7240  178.3190  145.0230 C   0  0  0  0  0  0  0  0  0  0  0  0
  187.8190  177.8170  144.9730 C   0  0  0  0  0  0  0  0  0  0  0  0
  189.6390  176.7780  143.6930 C   0  0  0  0  0  3  0  0  0  0  0  0
  190.9130  176.2010  143.6390 C   0  0  0  0  0  3  0  0  0  0  0  0
  189.1250  177.2260  144.9140 C   0  0  0  0  0  0  0  0  0  0  0  0
  191.1570  176.5200  146.0290 C   0  0  0  0  0  0  0  0  0  0  0  0
  189.8840  177.0960  146.0810 C   0  0  0  0  0  3  0  0  0  0  0  0
  191.6710  176.0720  144.8070 C   0  0  0  0  0  3  0  0  0  0  0  0
  192.5620  176.2790  148.1940 N   0  0  0  0  0  0  0  0  0  0  0  0
  191.9350  176.3870  147.2280 C   0  0  0  0  0  0  0  0  0  0  0  0
  1  8  1  6  0  0  0
  1  2  1  0  0  0  0
  2  6  1  0  0  0  0
  2  7  1  0  0  0  0
  3  5  1  6  0  0  0
  3  1  1  0  0  0  0
  3 10  1  0  0  0  0
  4 15  1  1  0  0  0
  4  3  1  0  0  0  0
  5  4  1  0  0  0  0
  7 26  1  1  0  0  0
  8  9  1  0  0  0  0
  9  6  2  0  0  0  0
 10  7  1  0  0  0  0
 11 12  1  0  0  0  0
 12 14  2  0  0  0  0
 13 11  1  0  0  0  0
 13 12  1  0  0  0  0
 14  8  1  0  0  0  0
 17 16  1  0  0  0  0
 17 15  1  0  0  0  0
 18 17  2  0  0  0  0
 19 16  1  0  0  0  0
 20 22  1  0  0  0  0
 20 21  1  1  0  0  0
 22 19  1  6  0  0  0
 22 21  1  0  0  0  0
 23 25  1  0  0  0  0
 24 23  1  6  0  0  0
 24 25  1  0  0  0  0
 24 20  1  0  0  0  0
 27 26  1  0  0  0  0
 27 29  1  0  0  0  0
 29 28  1  1  0  0  0
 30 29  1  0  0  0  0
 31 30  3  0  0  0  0
 32 34  1  0  0  0  0
 33 32  2  0  0  0  0
 33 37  1  0  0  0  0
 34 31  1  0  0  0  0
 34 36  2  0  0  0  0
 35 36  1  0  0  0  0
 35 39  1  0  0  0  0
 37 35  2  0  0  0  0
 39 38  3  0  0  0  0
M  END
>  <MODEL>
5

>  <REMARK>
 VINA RESULT:      -8.1      1.796      2.932
  Name = 
  11 active torsions:
  status: ('A' for Active; 'I' for Inactive)
    1  A    between atoms: C_1  and  C_23
    2  A    between atoms: C_9  and  C_18
    3  A    between atoms: C_11  and  N_12
    4  A    between atoms: C_13  and  C_14
    5  A    between atoms: C_13  and  C_23
    6  A    between atoms: C_14  and  C_30
    7  A    between atoms: N_15  and  C_32
    8  A    between atoms: C_16  and  C_31
    9  A    between atoms: C_19  and  C_28
   10  A    between atoms: C_32  and  C_35
   11  A    between atoms: N_33  and  C_38
                            x       y       z     vdW  Elec       q    Type
                         _______ _______ _______ _____ _____    ______ ____

>  <TORSDO>
F 11

$$$$
=
 OpenBabel11042411043D

 39 45  0  0  1  0  0  0  0  0999 V2000
  189.4400  177.0110  145.5570 C   0  0  1  0  0  3  0  0  0  0  0  0
  188.0260  177.0740  145.1570 N   0  0  0  0  0  0  0  0  0  0  0  0
  190.1780  177.9040  144.5960 C   0  0  2  0  0  0  0  0  0  0  0  0
  191.3580  177.2240  143.9150 C   0  0  2  0  0  3  0  0  0  0  0  0
  191.5810  178.4010  144.8620 C   0  0  0  0  0  2  0  0  0  0  0  0
  187.2650  177.5620  146.3120 C   0  0  0  0  0  3  0  0  0  0  0  0
  187.8760  178.0820  144.0920 C   0  0  1  0  0  3  0  0  0  0  0  0
  189.5240  177.5080  146.9150 N   0  0  0  0  0  0  0  0  0  0  0  0
  188.2310  177.8770  147.4340 C   0  0  0  0  0  3  0  0  0  0  0  0
  189.2300  178.6800  143.7390 C   0  0  0  0  0  2  0  0  0  0  0  0
  192.0500  175.1230  146.8080 C   0  0  0  0  0  2  0  0  0  0  0  0
  191.5690  176.3780  147.5280 C   0  0  0  0  0  0  0  0  0  0  0  0
  192.8500  175.6280  147.8760 C   0  0  0  0  0  2  0  0  0  0  0  0
  190.7040  177.3680  147.7150 C   0  0  0  0  0  3  0  0  0  0  0  0
  191.5310  177.6780  142.5410 N   0  0  0  0  0  2  0  0  0  0  0  0
  191.1360  177.4970  140.1140 N   0  0  0  0  0  2  0  0  0  0  0  0
  190.9130  177.0120  141.4390 C   0  0  0  0  0  0  0  0  0  0  0  0
  190.1800  176.0030  141.6350 O   0  0  0  0  0  0  0  0  0  0  0  0
  190.5790  176.8490  138.9350 C   0  0  0  0  0  2  0  0  0  0  0  0
  188.2750  177.6010  138.5870 C   0  0  2  0  0  3  0  0  0  0  0  0
  189.0400  178.6600  139.1090 O   0  0  0  0  0  0  0  0  0  0  0  0
  189.6800  177.8160  138.1870 C   0  0  1  0  0  3  0  0  0  0  0  0
  186.0810  177.3810  137.5200 C   0  0  0  0  0  2  0  0  0  0  0  0
  187.3500  178.1410  137.5160 C   0  0  1  0  0  3  0  0  0  0  0  0
  186.1880  178.6440  138.1280 O   0  0  0  0  0  0  0  0  0  0  0  0
  187.2650  177.4460  142.8510 C   0  0  0  0  0  2  0  0  0  0  0  0
  186.2560  178.3800  142.1960 C   0  0  0  0  0  2  0  0  0  0  0  0
  184.7740  179.6600  143.7370 C   0  0  0  0  0  1  0  0  0  0  0  0
  184.9330  178.3750  142.9470 C   0  0  1  0  0  3  0  0  0  0  0  0
  183.8330  178.2530  141.9900 C   0  0  0  0  0  0  0  0  0  0  0  0
  182.9240  178.1610  141.2020 C   0  0  0  0  0  0  0  0  0  0  0  0
  181.2140  179.2110  139.7870 C   0  0  0  0  0  3  0  0  0  0  0  0
  180.1550  179.1050  138.8780 C   0  0  0  0  0  3  0  0  0  0  0  0
  181.8390  178.0560  140.2690 C   0  0  0  0  0  0  0  0  0  0  0  0
  180.3460  176.6910  138.9360 C   0  0  0  0  0  0  0  0  0  0  0  0
  181.4040  176.7970  139.8440 C   0  0  0  0  0  3  0  0  0  0  0  0
  179.7210  177.8460  138.4540 C   0  0  0  0  0  3  0  0  0  0  0  0
  179.5400  174.3550  138.1520 N   0  0  0  0  0  0  0  0  0  0  0  0
  179.9010  175.3980  138.5020 C   0  0  0  0  0  0  0  0  0  0  0  0
  1  2  1  6  0  0  0
  1  8  1  0  0  0  0
  2  6  1  0  0  0  0
  3 10  1  6  0  0  0
  3  5  1  0  0  0  0
  3  1  1  0  0  0  0
  4 15  1  6  0  0  0
  4  3  1  0  0  0  0
  4  5  1  0  0  0  0
  6  9  2  0  0  0  0
  7 26  1  6  0  0  0
  7  2  1  0  0  0  0
  8  9  1  0  0  0  0
  8 14  1  0  0  0  0
 10  7  1  0  0  0  0
 11 12  1  0  0  0  0
 11 13  1  0  0  0  0
 12 14  2  0  0  0  0
 12 13  1  0  0  0  0
 16 17  1  0  0  0  0
 17 18  2  0  0  0  0
 17 15  1  0  0  0  0
 19 16  1  0  0  0  0
 20 21  1  1  0  0  0
 22 20  1  0  0  0  0
 22 19  1  1  0  0  0
 22 21  1  0  0  0  0
 23 25  1  0  0  0  0
 24 23  1  6  0  0  0
 24 25  1  0  0  0  0
 24 20  1  0  0  0  0
 27 26  1  0  0  0  0
 27 29  1  0  0  0  0
 29 28  1  6  0  0  0
 30 29  1  0  0  0  0
 31 30  3  0  0  0  0
 32 34  1  0  0  0  0
 33 32  2  0  0  0  0
 34 31  1  0  0  0  0
 35 36  1  0  0  0  0
 36 34  2  0  0  0  0
 37 33  1  0  0  0  0
 37 35  2  0  0  0  0
 38 39  3  0  0  0  0
 39 35  1  0  0  0  0
M  END
>  <MODEL>
6

>  <REMARK>
 VINA RESULT:      -8.0      2.540      9.668
  Name = 
  11 active torsions:
  status: ('A' for Active; 'I' for Inactive)
    1  A    between atoms: C_1  and  C_23
    2  A    between atoms: C_9  and  C_18
    3  A    between atoms: C_11  and  N_12
    4  A    between atoms: C_13  and  C_14
    5  A    between atoms: C_13  and  C_23
    6  A    between atoms: C_14  and  C_30
    7  A    between atoms: N_15  and  C_32
    8  A    between atoms: C_16  and  C_31
    9  A    between atoms: C_19  and  C_28
   10  A    between atoms: C_32  and  C_35
   11  A    between atoms: N_33  and  C_38
                            x       y       z     vdW  Elec       q    Type
                         _______ _______ _______ _____ _____    ______ ____

>  <TORSDO>
F 11

$$$$
=
 OpenBabel11042411043D

 39 45  0  0  1  0  0  0  0  0999 V2000
  189.4750  178.0890  139.2220 C   0  0  1  0  0  3  0  0  0  0  0  0
  189.5830  178.4790  140.6350 N   0  0  0  0  0  0  0  0  0  0  0  0
  190.1950  176.7720  139.1050 C   0  0  2  0  0  0  0  0  0  0  0  0
  191.2550  176.7500  138.0130 C   0  0  2  0  0  3  0  0  0  0  0  0
  190.0230  175.8540  137.9150 C   0  0  0  0  0  2  0  0  0  0  0  0
  188.2190  178.6280  141.1540 C   0  0  0  0  0  3  0  0  0  0  0  0
  190.2080  177.3780  141.3890 C   0  0  1  0  0  3  0  0  0  0  0  0
  188.0650  177.9530  138.9200 N   0  0  0  0  0  0  0  0  0  0  0  0
  187.2390  178.2540  140.0620 C   0  0  0  0  0  3  0  0  0  0  0  0
  190.5670  176.2360  140.4510 C   0  0  0  0  0  2  0  0  0  0  0  0
  184.8320  177.4550  137.7480 C   0  0  0  0  0  2  0  0  0  0  0  0
  186.2840  177.6320  137.3210 C   0  0  0  0  0  0  0  0  0  0  0  0
  185.1250  177.4260  136.3530 C   0  0  0  0  0  2  0  0  0  0  0  0
  187.5730  177.8200  137.5820 C   0  0  0  0  0  3  0  0  0  0  0  0
  192.4070  175.9390  138.3860 N   0  0  0  0  0  2  0  0  0  0  0  0
  194.6090  174.9290  137.9290 N   0  0  0  0  0  2  0  0  0  0  0  0
  193.5180  175.7510  137.5100 C   0  0  0  0  0  0  0  0  0  0  0  0
  193.5340  176.3020  136.3750 O   0  0  0  0  0  0  0  0  0  0  0  0
  195.7580  174.6520  137.0790 C   0  0  0  0  0  2  0  0  0  0  0  0
  197.3230  172.7800  137.2810 C   0  0  2  0  0  3  0  0  0  0  0  0
  196.2500  172.5930  138.1730 O   0  0  0  0  0  0  0  0  0  0  0  0
  195.9390  173.1540  136.9230 C   0  0  1  0  0  3  0  0  0  0  0  0
  199.1430  171.2810  136.6180 C   0  0  0  0  0  2  0  0  0  0  0  0
  197.6740  171.4510  136.6450 C   0  0  1  0  0  3  0  0  0  0  0  0
  198.3450  170.6560  137.5920 O   0  0  0  0  0  0  0  0  0  0  0  0
  191.4650  177.8700  142.0920 C   0  0  0  0  0  2  0  0  0  0  0  0
  191.1780  178.2310  143.5430 C   0  0  0  0  0  2  0  0  0  0  0  0
  191.3320  176.7750  145.5590 C   0  0  0  0  0  1  0  0  0  0  0  0
  190.5540  177.0610  144.2880 C   0  0  1  0  0  3  0  0  0  0  0  0
  189.1680  177.3860  144.6280 C   0  0  0  0  0  0  0  0  0  0  0  0
  188.0250  177.6580  144.9000 C   0  0  0  0  0  0  0  0  0  0  0  0
  186.2580  178.0660  146.5560 C   0  0  0  0  0  3  0  0  0  0  0  0
  184.9320  178.3860  146.8640 C   0  0  0  0  0  3  0  0  0  0  0  0
  186.6660  177.9880  145.2200 C   0  0  0  0  0  0  0  0  0  0  0  0
  184.4230  178.5520  144.5010 C   0  0  0  0  0  0  0  0  0  0  0  0
  185.7480  178.2310  144.1940 C   0  0  0  0  0  3  0  0  0  0  0  0
  184.0140  178.6290  145.8370 C   0  0  0  0  0  3  0  0  0  0  0  0
  182.7240  179.0010  142.5950 N   0  0  0  0  0  0  0  0  0  0  0  0
  183.4810  178.8010  143.4460 C   0  0  0  0  0  0  0  0  0  0  0  0
  1  8  1  1  0  0  0
  1  2  1  0  0  0  0
  2  6  1  0  0  0  0
  2  7  1  0  0  0  0
  3  5  1  6  0  0  0
  3  1  1  0  0  0  0
  3 10  1  0  0  0  0
  4 15  1  1  0  0  0
  4  3  1  0  0  0  0
  5  4  1  0  0  0  0
  7 26  1  6  0  0  0
  8  9  1  0  0  0  0
  9  6  2  0  0  0  0
 10  7  1  0  0  0  0
 12 14  2  0  0  0  0
 12 11  1  0  0  0  0
 13 12  1  0  0  0  0
 13 11  1  0  0  0  0
 14  8  1  0  0  0  0
 17 16  1  0  0  0  0
 17 15  1  0  0  0  0
 18 17  2  0  0  0  0
 19 16  1  0  0  0  0
 20 21  1  1  0  0  0
 22 19  1  1  0  0  0
 22 20  1  0  0  0  0
 22 21  1  0  0  0  0
 23 25  1  0  0  0  0
 24 23  1  6  0  0  0
 24 20  1  0  0  0  0
 24 25  1  0  0  0  0
 26 27  1  0  0  0  0
 27 29  1  0  0  0  0
 29 30  1  0  0  0  0
 29 28  1  1  0  0  0
 30 31  3  0  0  0  0
 31 34  1  0  0  0  0
 32 33  1  0  0  0  0
 34 32  2  0  0  0  0
 35 37  1  0  0  0  0
 36 35  2  0  0  0  0
 36 34  1  0  0  0  0
 37 33  2  0  0  0  0
 38 39  3  0  0  0  0
 39 35  1  0  0  0  0
M  END
>  <MODEL>
7

>  <REMARK>
 VINA RESULT:      -7.8      4.593      7.331
  Name = 
  11 active torsions:
  status: ('A' for Active; 'I' for Inactive)
    1  A    between atoms: C_1  and  C_23
    2  A    between atoms: C_9  and  C_18
    3  A    between atoms: C_11  and  N_12
    4  A    between atoms: C_13  and  C_14
    5  A    between atoms: C_13  and  C_23
    6  A    between atoms: C_14  and  C_30
    7  A    between atoms: N_15  and  C_32
    8  A    between atoms: C_16  and  C_31
    9  A    between atoms: C_19  and  C_28
   10  A    between atoms: C_32  and  C_35
   11  A    between atoms: N_33  and  C_38
                            x       y       z     vdW  Elec       q    Type
                         _______ _______ _______ _____ _____    ______ ____

>  <TORSDO>
F 11

$$$$
=
 OpenBabel11042411043D

 39 45  0  0  1  0  0  0  0  0999 V2000
  183.7410  178.1850  142.2440 C   0  0  1  0  0  3  0  0  0  0  0  0
  184.9590  178.0480  141.4320 N   0  0  0  0  0  0  0  0  0  0  0  0
  184.1030  179.1170  143.3690 C   0  0  2  0  0  0  0  0  0  0  0  0
  183.7810  178.5620  144.7500 C   0  0  2  0  0  3  0  0  0  0  0  0
  183.0600  179.8010  144.2250 C   0  0  0  0  0  2  0  0  0  0  0  0
  184.6300  178.4900  140.0720 C   0  0  0  0  0  3  0  0  0  0  0  0
  185.9820  178.9760  141.9450 C   0  0  1  0  0  3  0  0  0  0  0  0
  182.7170  178.7520  141.3920 N   0  0  0  0  0  0  0  0  0  0  0  0
  183.1980  178.9780  140.0520 C   0  0  0  0  0  3  0  0  0  0  0  0
  185.4530  179.7250  143.1580 C   0  0  0  0  0  2  0  0  0  0  0  0
  179.9910  176.9410  140.2260 C   0  0  0  0  0  2  0  0  0  0  0  0
  180.4230  178.0230  141.2090 C   0  0  0  0  0  0  0  0  0  0  0  0
  178.9890  177.5280  141.0530 C   0  0  0  0  0  2  0  0  0  0  0  0
  181.3370  178.8020  141.7730 C   0  0  0  0  0  3  0  0  0  0  0  0
  184.7650  178.9680  145.7450 N   0  0  0  0  0  2  0  0  0  0  0  0
  186.7000  178.5310  147.2090 N   0  0  0  0  0  2  0  0  0  0  0  0
  185.7740  178.0770  146.2200 C   0  0  0  0  0  0  0  0  0  0  0  0
  185.8450  176.8990  145.7730 O   0  0  0  0  0  0  0  0  0  0  0  0
  187.7290  177.6720  147.7770 C   0  0  0  0  0  2  0  0  0  0  0  0
  189.8490  176.6430  147.1100 C   0  0  2  0  0  3  0  0  0  0  0  0
  189.1100  176.9830  145.9610 O   0  0  0  0  0  0  0  0  0  0  0  0
  189.0410  177.8780  147.0420 C   0  0  1  0  0  3  0  0  0  0  0  0
  192.1580  175.8680  147.3690 C   0  0  0  0  0  2  0  0  0  0  0  0
  191.3090  176.9730  146.8760 C   0  0  1  0  0  3  0  0  0  0  0  0
  191.8570  176.0160  146.0030 O   0  0  0  0  0  0  0  0  0  0  0  0
  187.2390  178.2090  142.3320 C   0  0  0  0  0  2  0  0  0  0  0  0
  188.4200  178.6150  141.4600 C   0  0  0  0  0  2  0  0  0  0  0  0
  189.1860  176.4630  142.4550 C   0  0  0  0  0  1  0  0  0  0  0  0
  189.6140  177.7020  141.6900 C   0  0  1  0  0  3  0  0  0  0  0  0
  190.1780  177.3060  140.3990 C   0  0  0  0  0  0  0  0  0  0  0  0
  190.6410  176.9710  139.3360 C   0  0  0  0  0  0  0  0  0  0  0  0
  190.3730  176.4610  136.9500 C   0  0  0  0  0  3  0  0  0  0  0  0
  190.9160  176.0650  135.7230 C   0  0  0  0  0  3  0  0  0  0  0  0
  191.1950  176.5670  138.0760 C   0  0  0  0  0  0  0  0  0  0  0  0
  193.1020  175.8790  136.7500 C   0  0  0  0  0  0  0  0  0  0  0  0
  192.5590  176.2750  137.9760 C   0  0  0  0  0  3  0  0  0  0  0  0
  192.2800  175.7730  135.6230 C   0  0  0  0  0  3  0  0  0  0  0  0
  195.6310  175.3400  136.5680 N   0  0  0  0  0  0  0  0  0  0  0  0
  194.5030  175.5800  136.6490 C   0  0  0  0  0  0  0  0  0  0  0  0
  1  8  1  6  0  0  0
  1  3  1  0  0  0  0
  2  7  1  0  0  0  0
  2  1  1  0  0  0  0
  3 10  1  6  0  0  0
  3  5  1  0  0  0  0
  3  4  1  0  0  0  0
  4 15  1  1  0  0  0
  5  4  1  0  0  0  0
  6  2  1  0  0  0  0
  7 26  1  1  0  0  0
  7 10  1  0  0  0  0
  8 14  1  0  0  0  0
  9  6  2  0  0  0  0
  9  8  1  0  0  0  0
 11 13  1  0  0  0  0
 11 12  1  0  0  0  0
 12 14  2  0  0  0  0
 13 12  1  0  0  0  0
 15 17  1  0  0  0  0
 16 19  1  0  0  0  0
 17 16  1  0  0  0  0
 18 17  2  0  0  0  0
 20 21  1  6  0  0  0
 21 22  1  0  0  0  0
 22 20  1  0  0  0  0
 22 19  1  1  0  0  0
 24 20  1  0  0  0  0
 24 23  1  1  0  0  0
 25 24  1  0  0  0  0
 25 23  1  0  0  0  0
 27 29  1  0  0  0  0
 27 26  1  0  0  0  0
 29 28  1  6  0  0  0
 30 29  1  0  0  0  0
 31 30  3  0  0  0  0
 32 34  1  0  0  0  0
 33 32  2  0  0  0  0
 34 31  1  0  0  0  0
 35 36  1  0  0  0  0
 36 34  2  0  0  0  0
 37 33  1  0  0  0  0
 37 35  2  0  0  0  0
 38 39  3  0  0  0  0
 39 35  1  0  0  0  0
M  END
>  <MODEL>
8

>  <REMARK>
 VINA RESULT:      -7.8      3.281      7.544
  Name = 
  11 active torsions:
  status: ('A' for Active; 'I' for Inactive)
    1  A    between atoms: C_1  and  C_23
    2  A    between atoms: C_9  and  C_18
    3  A    between atoms: C_11  and  N_12
    4  A    between atoms: C_13  and  C_14
    5  A    between atoms: C_13  and  C_23
    6  A    between atoms: C_14  and  C_30
    7  A    between atoms: N_15  and  C_32
    8  A    between atoms: C_16  and  C_31
    9  A    between atoms: C_19  and  C_28
   10  A    between atoms: C_32  and  C_35
   11  A    between atoms: N_33  and  C_38
                            x       y       z     vdW  Elec       q    Type
                         _______ _______ _______ _____ _____    ______ ____

>  <TORSDO>
F 11

$$$$
=
 OpenBabel11042411043D

 39 45  0  0  1  0  0  0  0  0999 V2000
  189.3590  177.2350  136.4280 C   0  0  1  0  0  3  0  0  0  0  0  0
  187.9440  177.5760  136.2260 N   0  0  0  0  0  0  0  0  0  0  0  0
  189.4550  176.6930  137.8290 C   0  0  2  0  0  0  0  0  0  0  0  0
  190.5150  177.3810  138.6790 C   0  0  2  0  0  3  0  0  0  0  0  0
  190.6490  175.9040  138.3160 C   0  0  0  0  0  2  0  0  0  0  0  0
  187.4650  176.8010  135.0760 C   0  0  0  0  0  3  0  0  0  0  0  0
  187.1710  177.1220  137.3970 C   0  0  1  0  0  3  0  0  0  0  0  0
  189.7030  176.2290  135.4450 N   0  0  0  0  0  0  0  0  0  0  0  0
  188.5860  175.9050  134.5940 C   0  0  0  0  0  3  0  0  0  0  0  0
  188.0990  176.4980  138.4280 C   0  0  0  0  0  2  0  0  0  0  0  0
  191.2430  173.1260  135.7300 C   0  0  0  0  0  2  0  0  0  0  0  0
  191.4700  174.5850  135.3520 C   0  0  0  0  0  0  0  0  0  0  0  0
  192.5510  173.5100  135.3110 C   0  0  0  0  0  2  0  0  0  0  0  0
  191.0550  175.8350  135.1840 C   0  0  0  0  0  3  0  0  0  0  0  0
  190.1080  177.4950  140.0730 N   0  0  0  0  0  2  0  0  0  0  0  0
  190.5900  177.7690  142.4750 N   0  0  0  0  0  2  0  0  0  0  0  0
  191.0530  177.6810  141.1270 C   0  0  0  0  0  0  0  0  0  0  0  0
  192.2850  177.7640  140.8680 O   0  0  0  0  0  0  0  0  0  0  0  0
  191.4910  177.9140  143.6090 C   0  0  0  0  0  2  0  0  0  0  0  0
  191.4320  176.7640  145.7700 C   0  0  2  0  0  3  0  0  0  0  0  0
  190.4340  176.2360  144.9300 O   0  0  0  0  0  0  0  0  0  0  0  0
  191.6510  176.5840  144.3200 C   0  0  1  0  0  3  0  0  0  0  0  0
  192.3960  176.0660  147.9110 C   0  0  0  0  0  2  0  0  0  0  0  0
  192.0880  175.6310  146.5310 C   0  0  1  0  0  3  0  0  0  0  0  0
  191.2680  175.2790  147.6190 O   0  0  0  0  0  0  0  0  0  0  0  0
  186.4320  178.2950  138.0250 C   0  0  0  0  0  2  0  0  0  0  0  0
  184.9900  177.9260  138.3460 C   0  0  0  0  0  2  0  0  0  0  0  0
  182.7920  179.0840  138.5320 C   0  0  0  0  0  1  0  0  0  0  0  0
  184.2460  179.1000  138.9640 C   0  0  1  0  0  3  0  0  0  0  0  0
  184.3220  179.0090  140.4230 C   0  0  0  0  0  0  0  0  0  0  0  0
  184.3890  178.9270  141.6240 C   0  0  0  0  0  0  0  0  0  0  0  0
  183.3280  179.0130  143.8360 C   0  0  0  0  0  3  0  0  0  0  0  0
  183.4100  178.9100  145.2290 C   0  0  0  0  0  3  0  0  0  0  0  0
  184.4700  178.8210  143.0530 C   0  0  0  0  0  0  0  0  0  0  0  0
  185.7770  178.4240  145.0530 C   0  0  0  0  0  0  0  0  0  0  0  0
  185.6940  178.5270  143.6610 C   0  0  0  0  0  3  0  0  0  0  0  0
  184.6340  178.6160  145.8380 C   0  0  0  0  0  3  0  0  0  0  0  0
  188.0490  177.8810  146.1780 N   0  0  0  0  0  0  0  0  0  0  0  0
  187.0350  178.1230  145.6770 C   0  0  0  0  0  0  0  0  0  0  0  0
  1  8  1  6  0  0  0
  1  3  1  0  0  0  0
  2  1  1  0  0  0  0
  2  7  1  0  0  0  0
  3  5  1  6  0  0  0
  3 10  1  0  0  0  0
  3  4  1  0  0  0  0
  4 15  1  1  0  0  0
  5  4  1  0  0  0  0
  6  2  1  0  0  0  0
  7 26  1  1  0  0  0
  7 10  1  0  0  0  0
  9  6  2  0  0  0  0
  9  8  1  0  0  0  0
 12 11  1  0  0  0  0
 13 12  1  0  0  0  0
 13 11  1  0  0  0  0
 14 12  2  0  0  0  0
 14  8  1  0  0  0  0
 15 17  1  0  0  0  0
 16 19  1  0  0  0  0
 17 16  1  0  0  0  0
 18 17  2  0  0  0  0
 20 21  1  6  0  0  0
 20 24  1  0  0  0  0
 22 19  1  6  0  0  0
 22 21  1  0  0  0  0
 22 20  1  0  0  0  0
 24 25  1  0  0  0  0
 24 23  1  1  0  0  0
 25 23  1  0  0  0  0
 26 27  1  0  0  0  0
 27 29  1  0  0  0  0
 29 28  1  1  0  0  0
 29 30  1  0  0  0  0
 30 31  3  0  0  0  0
 31 34  1  0  0  0  0
 32 33  1  0  0  0  0
 33 37  2  0  0  0  0
 34 36  1  0  0  0  0
 34 32  2  0  0  0  0
 35 39  1  0  0  0  0
 35 37  1  0  0  0  0
 36 35  2  0  0  0  0
 39 38  3  0  0  0  0
M  END
>  <MODEL>
9

>  <REMARK>
 VINA RESULT:      -7.7      2.930      7.011
  Name = 
  11 active torsions:
  status: ('A' for Active; 'I' for Inactive)
    1  A    between atoms: C_1  and  C_23
    2  A    between atoms: C_9  and  C_18
    3  A    between atoms: C_11  and  N_12
    4  A    between atoms: C_13  and  C_14
    5  A    between atoms: C_13  and  C_23
    6  A    between atoms: C_14  and  C_30
    7  A    between atoms: N_15  and  C_32
    8  A    between atoms: C_16  and  C_31
    9  A    between atoms: C_19  and  C_28
   10  A    between atoms: C_32  and  C_35
   11  A    between atoms: N_33  and  C_38
                            x       y       z     vdW  Elec       q    Type
                         _______ _______ _______ _____ _____    ______ ____

>  <TORSDO>
F 11

$$$$
