=
 OpenBabel11032419223D

 51 56  0  0  1  0  0  0  0  0999 V2000
  179.6160  177.6690  137.1610 C   0  0  0  0  0  3  0  0  0  0  0  0
  179.7510  176.4990  139.3730 C   0  0  0  0  0  0  0  0  0  0  0  0
  179.6090  175.2470  140.1830 C   0  0  0  0  0  1  0  0  0  0  0  0
  179.4250  176.4960  138.0510 C   0  0  0  0  0  0  0  0  0  0  0  0
  181.6120  178.5120  138.3310 C   0  0  0  0  0  2  0  0  0  0  0  0
  179.7260  177.8490  141.4840 N   0  0  0  0  0  2  0  0  0  0  0  0
  180.5670  178.5910  137.2780 C   0  0  0  0  0  3  0  0  0  0  0  0
  180.9960  178.5920  139.6450 N   0  0  0  0  0  0  0  0  0  0  0  0
  180.1720  177.7100  140.1300 C   0  0  0  0  0  0  0  0  0  0  0  0
  179.9690  174.4840  136.5130 C   0  0  2  0  0  0  0  0  0  0  0  0
  178.9440  175.2240  137.3790 C   0  0  2  0  0  3  0  0  0  0  0  0
  178.9370  175.3650  135.8540 C   0  0  0  0  0  2  0  0  0  0  0  0
  179.7080  173.1130  136.3630 O   0  0  0  0  0  0  0  0  0  0  0  0
  180.0870  172.8000  135.1380 O   0  0  0  0  0  1  0  0  0  0  0  0
  181.4040  174.9730  136.3250 C   0  0  0  0  0  2  0  0  0  0  0  0
  182.3590  174.1150  137.1390 C   0  0  0  0  0  2  0  0  0  0  0  0
  186.3160  175.7640  136.9860 C   0  0  0  0  0  0  0  0  0  0  0  0
  183.7350  174.6800  137.0930 C   0  0  0  0  0  0  0  0  0  0  0  0
  183.9210  176.0640  137.1810 C   0  0  0  0  0  3  0  0  0  0  0  0
  186.1290  174.3740  136.9070 C   0  0  0  0  0  3  0  0  0  0  0  0
  185.2080  176.6050  137.1270 C   0  0  0  0  0  3  0  0  0  0  0  0
  184.8410  173.8340  136.9610 C   0  0  0  0  0  3  0  0  0  0  0  0
  187.6880  176.3750  136.9040 C   0  0  2  0  0  3  0  0  0  0  0  0
  189.8980  175.3640  137.5020 C   0  0  0  0  0  2  0  0  0  0  0  0
  190.9580  176.0610  136.9040 O   0  0  0  0  0  0  0  0  0  0  0  0
  189.4490  175.7330  135.2510 C   0  0  0  0  0  2  0  0  0  0  0  0
  188.7540  175.3400  136.5210 C   0  0  2  0  0  3  0  0  0  0  0  0
  190.8630  175.7940  135.5720 N   0  0  0  0  0  2  0  0  0  0  0  0
  188.0520  177.0690  138.2170 C   0  0  0  0  0  2  0  0  0  0  0  0
  189.0870  179.1550  138.7330 O   0  0  0  0  0  0  0  0  0  0  0  0
  188.2700  178.5310  138.0080 C   0  0  0  0  0  0  0  0  0  0  0  0
  187.5650  179.2160  136.9820 N   0  0  0  0  0  1  0  0  0  0  0  0
  180.0640  178.9980  142.3090 C   0  0  0  0  0  2  0  0  0  0  0  0
  180.4090  178.5410  143.7150 C   0  0  0  0  0  2  0  0  0  0  0  0
  181.8100  179.0080  144.0750 C   0  0  0  0  0  2  0  0  0  0  0  0
  182.7860  178.7340  142.9370 C   0  0  0  0  0  2  0  0  0  0  0  0
  184.2390  178.5250  143.3730 C   0  0  0  0  0  0  0  0  0  0  0  0
  184.6590  178.6590  144.8270 C   0  0  0  0  0  2  0  0  0  0  0  0
  184.8650  179.8150  143.8600 C   0  0  0  0  0  2  0  0  0  0  0  0
  185.1780  177.7950  142.4260 C   0  0  0  0  0  2  0  0  0  0  0  0
  186.3780  178.6600  142.0850 C   0  0  2  0  0  3  0  0  0  0  0  0
  186.1210  179.3630  140.9120 O   0  0  0  0  0  1  0  0  0  0  0  0
  187.6090  177.7890  141.8900 C   0  0  0  0  0  2  0  0  0  0  0  0
  188.5950  176.9080  143.8340 C   0  0  2  0  0  3  0  0  0  0  0  0
  190.0330  176.5110  144.0740 C   0  0  0  0  0  2  0  0  0  0  0  0
  189.8970  178.1280  142.3160 C   0  0  0  0  0  2  0  0  0  0  0  0
  188.5790  178.0640  142.9420 N   0  0  0  0  0  0  0  0  0  0  0  0
  190.7430  176.9820  142.8370 C   0  0  0  0  0  2  0  0  0  0  0  0
  187.8620  177.2060  145.1420 C   0  0  0  0  0  2  0  0  0  0  0  0
  188.4910  177.1360  147.5350 C   0  0  0  0  0  1  0  0  0  0  0  0
  188.7850  177.7870  146.1980 C   0  0  0  0  0  2  0  0  0  0  0  0
  1  7  2  0  0  0  0
  1  4  1  0  0  0  0
  2  9  1  0  0  0  0
  2  3  1  0  0  0  0
  4  2  2  0  0  0  0
  5  8  1  0  0  0  0
  6 33  1  0  0  0  0
  7  5  1  0  0  0  0
  8  9  2  0  0  0  0
  9  6  1  0  0  0  0
 10 15  1  1  0  0  0
 10 11  1  0  0  0  0
 11  4  1  1  0  0  0
 12 10  1  0  0  0  0
 12 11  1  0  0  0  0
 13 10  1  0  0  0  0
 14 13  1  0  0  0  0
 15 16  1  0  0  0  0
 17 21  1  0  0  0  0
 18 16  1  0  0  0  0
 18 19  1  0  0  0  0
 20 22  1  0  0  0  0
 20 17  2  0  0  0  0
 21 19  2  0  0  0  0
 22 18  2  0  0  0  0
 23 17  1  0  0  0  0
 23 29  1  1  0  0  0
 25 24  1  0  0  0  0
 26 28  1  0  0  0  0
 26 27  1  0  0  0  0
 27 23  1  1  0  0  0
 27 24  1  0  0  0  0
 28 25  1  0  0  0  0
 31 29  1  0  0  0  0
 31 30  2  0  0  0  0
 32 31  1  0  0  0  0
 33 34  1  0  0  0  0
 34 35  1  0  0  0  0
 36 37  1  0  0  0  0
 36 35  1  0  0  0  0
 37 39  1  0  0  0  0
 37 38  1  0  0  0  0
 39 38  1  0  0  0  0
 40 37  1  0  0  0  0
 41 42  1  6  0  0  0
 41 40  1  0  0  0  0
 43 41  1  0  0  0  0
 43 47  1  0  0  0  0
 44 45  1  0  0  0  0
 44 49  1  1  0  0  0
 46 48  1  0  0  0  0
 46 47  1  0  0  0  0
 47 44  1  0  0  0  0
 48 45  1  0  0  0  0
 49 51  1  0  0  0  0
 51 50  1  0  0  0  0
M  END
>  <MODEL>
1

>  <REMARK>
 VINA RESULT:      -6.6      0.000      0.000
  Name = 
  20 active torsions:
  status: ('A' for Active; 'I' for Inactive)
    1  A    between atoms: C_1  and  C_14
    2  A    between atoms: C_1  and  C_34
    3  A    between atoms: C_2  and  C_14
    4  A    between atoms: C_3  and  C_9
    5  A    between atoms: C_3  and  C_37
    6  A    between atoms: C_5  and  C_16
    7  A    between atoms: C_6  and  C_13
    8  A    between atoms: C_6  and  C_43
    9  A    between atoms: C_7  and  C_37
   10  A    between atoms: C_7  and  C_49
   11  A    between atoms: C_9  and  C_17
   12  A    between atoms: C_12  and  C_17
   13  A    between atoms: C_12  and  N_42
   14  A    between atoms: C_14  and  C_45
   15  A    between atoms: C_16  and  C_39
   16  A    between atoms: C_20  and  O_33
   17  A    between atoms: C_20  and  C_43
   18  A    between atoms: C_21  and  C_28
   19  A    between atoms: N_30  and  C_35
   20  A    between atoms: C_35  and  C_49
                            x       y       z     vdW  Elec       q    Type
                         _______ _______ _______ _____ _____    ______ ____

>  <TORSDO>
F 20

$$$$
=
 OpenBabel11032419223D

 51 56  0  0  1  0  0  0  0  0999 V2000
  187.3090  178.7370  146.7090 C   0  0  0  0  0  3  0  0  0  0  0  0
  187.1660  177.4320  144.5750 C   0  0  0  0  0  0  0  0  0  0  0  0
  187.6850  176.3380  143.6920 C   0  0  0  0  0  1  0  0  0  0  0  0
  187.8060  177.7290  145.7390 C   0  0  0  0  0  0  0  0  0  0  0  0
  184.9250  178.3480  146.2300 C   0  0  0  0  0  2  0  0  0  0  0  0
  185.9090  178.3860  142.6300 N   0  0  0  0  0  2  0  0  0  0  0  0
  186.0350  179.0460  146.9300 C   0  0  0  0  0  3  0  0  0  0  0  0
  185.0160  178.5870  144.8000 N   0  0  0  0  0  0  0  0  0  0  0  0
  185.9970  178.1860  144.0450 C   0  0  0  0  0  0  0  0  0  0  0  0
  190.3830  177.4700  145.6770 C   0  0  2  0  0  0  0  0  0  0  0  0
  189.0310  176.9420  146.1680 C   0  0  2  0  0  3  0  0  0  0  0  0
  189.7370  176.3080  144.9660 C   0  0  0  0  0  2  0  0  0  0  0  0
  191.4700  177.0960  146.4830 O   0  0  0  0  0  0  0  0  0  0  0  0
  191.9630  175.9960  145.9460 O   0  0  0  0  0  1  0  0  0  0  0  0
  190.5210  178.7210  144.8100 C   0  0  0  0  0  2  0  0  0  0  0  0
  191.6680  178.5510  143.8270 C   0  0  0  0  0  2  0  0  0  0  0  0
  190.1580  177.3810  139.9870 C   0  0  0  0  0  0  0  0  0  0  0  0
  191.1520  178.1500  142.4910 C   0  0  0  0  0  0  0  0  0  0  0  0
  189.8100  178.3760  142.1670 C   0  0  0  0  0  3  0  0  0  0  0  0
  191.5080  177.1630  140.3080 C   0  0  0  0  0  3  0  0  0  0  0  0
  189.3140  177.9910  140.9190 C   0  0  0  0  0  3  0  0  0  0  0  0
  192.0040  177.5480  141.5580 C   0  0  0  0  0  3  0  0  0  0  0  0
  189.5910  176.9530  138.6610 C   0  0  2  0  0  3  0  0  0  0  0  0
  191.0130  176.6260  136.6270 C   0  0  0  0  0  2  0  0  0  0  0  0
  190.2810  176.0520  135.5780 O   0  0  0  0  0  0  0  0  0  0  0  0
  189.7920  174.8050  137.4010 C   0  0  0  0  0  2  0  0  0  0  0  0
  190.5350  176.0020  137.9140 C   0  0  2  0  0  3  0  0  0  0  0  0
  190.0260  174.7730  135.9690 N   0  0  0  0  0  2  0  0  0  0  0  0
  189.2520  178.1690  137.7990 C   0  0  0  0  0  2  0  0  0  0  0  0
  187.0220  177.3350  137.9510 O   0  0  0  0  0  0  0  0  0  0  0  0
  187.7870  178.2350  137.5170 C   0  0  0  0  0  0  0  0  0  0  0  0
  187.2550  179.3200  136.7710 N   0  0  0  0  0  1  0  0  0  0  0  0
  184.8190  179.1220  142.0060 C   0  0  0  0  0  2  0  0  0  0  0  0
  183.5510  178.2890  142.0360 C   0  0  0  0  0  2  0  0  0  0  0  0
  183.4060  177.5310  140.7260 C   0  0  0  0  0  2  0  0  0  0  0  0
  183.9500  178.3490  139.5600 C   0  0  0  0  0  2  0  0  0  0  0  0
  182.9070  178.7460  138.5120 C   0  0  0  0  0  0  0  0  0  0  0  0
  182.1900  180.0840  138.5710 C   0  0  0  0  0  2  0  0  0  0  0  0
  181.5190  178.8300  139.1110 C   0  0  0  0  0  2  0  0  0  0  0  0
  182.8810  177.9830  137.1970 C   0  0  0  0  0  2  0  0  0  0  0  0
  183.5720  176.6390  137.3410 C   0  0  2  0  0  3  0  0  0  0  0  0
  184.2500  176.3410  136.1630 O   0  0  0  0  0  1  0  0  0  0  0  0
  182.5440  175.5530  137.6190 C   0  0  0  0  0  2  0  0  0  0  0  0
  182.8200  173.3010  137.0050 C   0  0  2  0  0  3  0  0  0  0  0  0
  181.7870  172.3220  136.4930 C   0  0  0  0  0  2  0  0  0  0  0  0
  181.1000  174.5710  136.0440 C   0  0  0  0  0  2  0  0  0  0  0  0
  182.4880  174.6280  136.4940 N   0  0  0  0  0  0  0  0  0  0  0  0
  180.5650  173.1720  136.2840 C   0  0  0  0  0  2  0  0  0  0  0  0
  184.2370  172.8910  136.6070 C   0  0  0  0  0  2  0  0  0  0  0  0
  186.6230  172.7760  137.2570 C   0  0  0  0  0  1  0  0  0  0  0  0
  185.2140  173.0030  137.7650 C   0  0  0  0  0  2  0  0  0  0  0  0
  1  7  2  0  0  0  0
  2  4  2  0  0  0  0
  3  2  1  0  0  0  0
  4  1  1  0  0  0  0
  5  7  1  0  0  0  0
  6  9  1  0  0  0  0
  8  5  1  0  0  0  0
  9  2  1  0  0  0  0
  9  8  2  0  0  0  0
 10 15  1  6  0  0  0
 10 11  1  0  0  0  0
 10 13  1  0  0  0  0
 11  4  1  6  0  0  0
 12 10  1  0  0  0  0
 12 11  1  0  0  0  0
 14 13  1  0  0  0  0
 16 15  1  0  0  0  0
 17 20  2  0  0  0  0
 17 21  1  0  0  0  0
 18 16  1  0  0  0  0
 19 18  1  0  0  0  0
 20 22  1  0  0  0  0
 21 19  2  0  0  0  0
 22 18  2  0  0  0  0
 23 29  1  6  0  0  0
 23 17  1  0  0  0  0
 24 27  1  0  0  0  0
 25 28  1  0  0  0  0
 25 24  1  0  0  0  0
 26 27  1  0  0  0  0
 27 23  1  6  0  0  0
 28 26  1  0  0  0  0
 31 29  1  0  0  0  0
 31 30  2  0  0  0  0
 32 31  1  0  0  0  0
 33 34  1  0  0  0  0
 33  6  1  0  0  0  0
 35 34  1  0  0  0  0
 36 35  1  0  0  0  0
 37 38  1  0  0  0  0
 37 39  1  0  0  0  0
 37 36  1  0  0  0  0
 38 39  1  0  0  0  0
 40 41  1  0  0  0  0
 40 37  1  0  0  0  0
 41 42  1  6  0  0  0
 41 43  1  0  0  0  0
 44 49  1  6  0  0  0
 45 44  1  0  0  0  0
 46 48  1  0  0  0  0
 46 47  1  0  0  0  0
 47 44  1  0  0  0  0
 47 43  1  0  0  0  0
 48 45  1  0  0  0  0
 49 51  1  0  0  0  0
 50 51  1  0  0  0  0
M  END
>  <MODEL>
2

>  <REMARK>
 VINA RESULT:      -6.3      2.555      8.715
  Name = 
  20 active torsions:
  status: ('A' for Active; 'I' for Inactive)
    1  A    between atoms: C_1  and  C_14
    2  A    between atoms: C_1  and  C_34
    3  A    between atoms: C_2  and  C_14
    4  A    between atoms: C_3  and  C_9
    5  A    between atoms: C_3  and  C_37
    6  A    between atoms: C_5  and  C_16
    7  A    between atoms: C_6  and  C_13
    8  A    between atoms: C_6  and  C_43
    9  A    between atoms: C_7  and  C_37
   10  A    between atoms: C_7  and  C_49
   11  A    between atoms: C_9  and  C_17
   12  A    between atoms: C_12  and  C_17
   13  A    between atoms: C_12  and  N_42
   14  A    between atoms: C_14  and  C_45
   15  A    between atoms: C_16  and  C_39
   16  A    between atoms: C_20  and  O_33
   17  A    between atoms: C_20  and  C_43
   18  A    between atoms: C_21  and  C_28
   19  A    between atoms: N_30  and  C_35
   20  A    between atoms: C_35  and  C_49
                            x       y       z     vdW  Elec       q    Type
                         _______ _______ _______ _____ _____    ______ ____

>  <TORSDO>
F 20

$$$$
=
 OpenBabel11032419223D

 51 56  0  0  1  0  0  0  0  0999 V2000
  191.2590  178.0110  145.0480 C   0  0  0  0  0  3  0  0  0  0  0  0
  189.3310  177.0570  143.7630 C   0  0  0  0  0  0  0  0  0  0  0  0
  188.0510  176.2790  143.7420 C   0  0  0  0  0  1  0  0  0  0  0  0
  190.0310  177.1880  144.9240 C   0  0  0  0  0  0  0  0  0  0  0  0
  190.5720  179.6870  143.3800 C   0  0  0  0  0  2  0  0  0  0  0  0
  189.5200  176.7860  141.2800 N   0  0  0  0  0  2  0  0  0  0  0  0
  191.5330  179.1140  144.3570 C   0  0  0  0  0  3  0  0  0  0  0  0
  190.3440  178.7430  142.3000 N   0  0  0  0  0  0  0  0  0  0  0  0
  189.7920  177.5740  142.4440 C   0  0  0  0  0  0  0  0  0  0  0  0
  188.3350  177.2910  146.8800 C   0  0  2  0  0  0  0  0  0  0  0  0
  189.5110  176.5720  146.2100 C   0  0  2  0  0  3  0  0  0  0  0  0
  189.7330  177.5030  147.4060 C   0  0  0  0  0  2  0  0  0  0  0  0
  187.5520  176.4640  147.7000 O   0  0  0  0  0  0  0  0  0  0  0  0
  187.6590  176.9520  148.9220 O   0  0  0  0  0  1  0  0  0  0  0  0
  187.6970  178.5540  146.3040 C   0  0  0  0  0  2  0  0  0  0  0  0
  186.2050  178.5650  146.5960 C   0  0  0  0  0  2  0  0  0  0  0  0
  183.9510  178.8750  142.9600 C   0  0  0  0  0  0  0  0  0  0  0  0
  185.4290  178.6800  145.3320 C   0  0  0  0  0  0  0  0  0  0  0  0
  184.0300  178.6640  145.3710 C   0  0  0  0  0  3  0  0  0  0  0  0
  185.3550  178.9010  142.9220 C   0  0  0  0  0  3  0  0  0  0  0  0
  183.2930  178.7600  144.1890 C   0  0  0  0  0  3  0  0  0  0  0  0
  186.0920  178.8050  144.1060 C   0  0  0  0  0  3  0  0  0  0  0  0
  183.1320  178.9500  141.7000 C   0  0  2  0  0  3  0  0  0  0  0  0
  181.1900  177.7090  140.7220 C   0  0  0  0  0  2  0  0  0  0  0  0
  180.3480  178.5660  139.9990 O   0  0  0  0  0  0  0  0  0  0  0  0
  180.7400  179.6270  141.9580 C   0  0  0  0  0  2  0  0  0  0  0  0
  181.6920  178.4680  141.9240 C   0  0  2  0  0  3  0  0  0  0  0  0
  179.7510  179.3610  140.9300 N   0  0  0  0  0  2  0  0  0  0  0  0
  183.7990  178.1610  140.5730 C   0  0  0  0  0  2  0  0  0  0  0  0
  183.7050  180.1550  139.2660 O   0  0  0  0  0  0  0  0  0  0  0  0
  184.3060  179.0750  139.5070 C   0  0  0  0  0  0  0  0  0  0  0  0
  185.4730  178.7330  138.7730 N   0  0  0  0  0  1  0  0  0  0  0  0
  189.9390  177.1870  139.9450 C   0  0  0  0  0  2  0  0  0  0  0  0
  191.1050  176.3270  139.4900 C   0  0  0  0  0  2  0  0  0  0  0  0
  190.7280  175.5880  138.2170 C   0  0  0  0  0  2  0  0  0  0  0  0
  190.5830  176.5550  137.0470 C   0  0  0  0  0  2  0  0  0  0  0  0
  189.2750  176.4200  136.2600 C   0  0  0  0  0  0  0  0  0  0  0  0
  188.4320  177.6340  135.9070 C   0  0  0  0  0  2  0  0  0  0  0  0
  188.0740  176.7750  137.1120 C   0  0  0  0  0  2  0  0  0  0  0  0
  189.0280  175.1340  135.4890 C   0  0  0  0  0  2  0  0  0  0  0  0
  187.9470  174.3050  136.1590 C   0  0  2  0  0  3  0  0  0  0  0  0
  188.5400  173.3050  136.9240 O   0  0  0  0  0  1  0  0  0  0  0  0
  187.0510  173.6690  135.1070 C   0  0  0  0  0  2  0  0  0  0  0  0
  185.6010  174.2060  136.8770 C   0  0  2  0  0  3  0  0  0  0  0  0
  184.7370  175.4330  137.0590 C   0  0  0  0  0  2  0  0  0  0  0  0
  185.2070  175.0800  134.7390 C   0  0  0  0  0  2  0  0  0  0  0  0
  185.6530  173.8870  135.4530 N   0  0  0  0  0  0  0  0  0  0  0  0
  184.8730  176.1600  135.7500 C   0  0  0  0  0  2  0  0  0  0  0  0
  185.0830  173.0210  137.6920 C   0  0  0  0  0  2  0  0  0  0  0  0
  182.8480  172.2000  137.0170 C   0  0  0  0  0  1  0  0  0  0  0  0
  184.3410  172.0130  136.8330 C   0  0  0  0  0  2  0  0  0  0  0  0
  2  4  2  0  0  0  0
  3  2  1  0  0  0  0
  4  1  1  0  0  0  0
  5  7  1  0  0  0  0
  6  9  1  0  0  0  0
  7  1  2  0  0  0  0
  8  9  2  0  0  0  0
  8  5  1  0  0  0  0
  9  2  1  0  0  0  0
 10 15  1  6  0  0  0
 10 12  1  0  0  0  0
 10 13  1  0  0  0  0
 11  4  1  6  0  0  0
 11 10  1  0  0  0  0
 11 12  1  0  0  0  0
 13 14  1  0  0  0  0
 15 16  1  0  0  0  0
 17 21  1  0  0  0  0
 18 19  1  0  0  0  0
 18 16  1  0  0  0  0
 20 17  2  0  0  0  0
 20 22  1  0  0  0  0
 21 19  2  0  0  0  0
 22 18  2  0  0  0  0
 23 29  1  6  0  0  0
 23 17  1  0  0  0  0
 24 27  1  0  0  0  0
 25 24  1  0  0  0  0
 25 28  1  0  0  0  0
 27 23  1  6  0  0  0
 27 26  1  0  0  0  0
 28 26  1  0  0  0  0
 30 31  2  0  0  0  0
 31 29  1  0  0  0  0
 32 31  1  0  0  0  0
 33  6  1  0  0  0  0
 34 33  1  0  0  0  0
 35 34  1  0  0  0  0
 36 35  1  0  0  0  0
 37 36  1  0  0  0  0
 37 39  1  0  0  0  0
 38 37  1  0  0  0  0
 38 39  1  0  0  0  0
 40 41  1  0  0  0  0
 40 37  1  0  0  0  0
 41 42  1  6  0  0  0
 43 47  1  0  0  0  0
 43 41  1  0  0  0  0
 44 45  1  0  0  0  0
 44 49  1  1  0  0  0
 46 47  1  0  0  0  0
 46 48  1  0  0  0  0
 47 44  1  0  0  0  0
 48 45  1  0  0  0  0
 51 50  1  0  0  0  0
 51 49  1  0  0  0  0
M  END
>  <MODEL>
3

>  <REMARK>
 VINA RESULT:      -6.3      2.750     10.277
  Name = 
  20 active torsions:
  status: ('A' for Active; 'I' for Inactive)
    1  A    between atoms: C_1  and  C_14
    2  A    between atoms: C_1  and  C_34
    3  A    between atoms: C_2  and  C_14
    4  A    between atoms: C_3  and  C_9
    5  A    between atoms: C_3  and  C_37
    6  A    between atoms: C_5  and  C_16
    7  A    between atoms: C_6  and  C_13
    8  A    between atoms: C_6  and  C_43
    9  A    between atoms: C_7  and  C_37
   10  A    between atoms: C_7  and  C_49
   11  A    between atoms: C_9  and  C_17
   12  A    between atoms: C_12  and  C_17
   13  A    between atoms: C_12  and  N_42
   14  A    between atoms: C_14  and  C_45
   15  A    between atoms: C_16  and  C_39
   16  A    between atoms: C_20  and  O_33
   17  A    between atoms: C_20  and  C_43
   18  A    between atoms: C_21  and  C_28
   19  A    between atoms: N_30  and  C_35
   20  A    between atoms: C_35  and  C_49
                            x       y       z     vdW  Elec       q    Type
                         _______ _______ _______ _____ _____    ______ ____

>  <TORSDO>
F 20

$$$$
=
 OpenBabel11032419223D

 51 56  0  0  1  0  0  0  0  0999 V2000
  186.4830  177.7330  143.0300 C   0  0  0  0  0  3  0  0  0  0  0  0
  184.7130  178.6580  144.5430 C   0  0  0  0  0  0  0  0  0  0  0  0
  184.3050  179.1800  145.8870 C   0  0  0  0  0  1  0  0  0  0  0  0
  185.9750  178.1870  144.3490 C   0  0  0  0  0  0  0  0  0  0  0  0
  185.1300  179.3170  141.7160 C   0  0  0  0  0  2  0  0  0  0  0  0
  182.2990  178.3490  143.9480 N   0  0  0  0  0  2  0  0  0  0  0  0
  186.1070  178.2040  141.8450 C   0  0  0  0  0  3  0  0  0  0  0  0
  183.8470  178.9130  142.2640 N   0  0  0  0  0  0  0  0  0  0  0  0
  183.6360  178.6210  143.5140 C   0  0  0  0  0  0  0  0  0  0  0  0
  188.3920  177.6980  145.1420 C   0  0  2  0  0  0  0  0  0  0  0  0
  186.9880  178.2100  145.4790 C   0  0  2  0  0  3  0  0  0  0  0  0
  187.4260  176.7940  145.8660 C   0  0  0  0  0  2  0  0  0  0  0  0
  189.4020  178.2110  145.9710 O   0  0  0  0  0  0  0  0  0  0  0  0
  189.8640  177.1870  146.6640 O   0  0  0  0  0  1  0  0  0  0  0  0
  188.7820  177.1950  143.7520 C   0  0  0  0  0  2  0  0  0  0  0  0
  190.0440  177.8970  143.2780 C   0  0  0  0  0  2  0  0  0  0  0  0
  190.8540  176.8710  139.1930 C   0  0  0  0  0  0  0  0  0  0  0  0
  190.3310  177.5490  141.8600 C   0  0  0  0  0  0  0  0  0  0  0  0
  189.2750  177.2860  140.9810 C   0  0  0  0  0  3  0  0  0  0  0  0
  191.9140  177.1450  140.0730 C   0  0  0  0  0  3  0  0  0  0  0  0
  189.5350  176.9470  139.6520 C   0  0  0  0  0  3  0  0  0  0  0  0
  191.6520  177.4840  141.4040 C   0  0  0  0  0  3  0  0  0  0  0  0
  191.1060  176.4770  137.7630 C   0  0  2  0  0  3  0  0  0  0  0  0
  189.6740  174.6610  136.8050 C   0  0  0  0  0  2  0  0  0  0  0  0
  190.0110  174.3950  135.4700 O   0  0  0  0  0  0  0  0  0  0  0  0
  189.8500  176.6470  135.6090 C   0  0  0  0  0  2  0  0  0  0  0  0
  189.8030  176.1470  137.0230 C   0  0  2  0  0  3  0  0  0  0  0  0
  189.6080  175.4890  134.7680 N   0  0  0  0  0  2  0  0  0  0  0  0
  192.0840  175.3060  137.6880 C   0  0  0  0  0  2  0  0  0  0  0  0
  193.3280  174.8580  135.7020 O   0  0  0  0  0  0  0  0  0  0  0  0
  193.1840  175.5870  136.7190 C   0  0  0  0  0  0  0  0  0  0  0  0
  194.0600  176.6840  136.9350 N   0  0  0  0  0  1  0  0  0  0  0  0
  181.1750  178.2730  143.0260 C   0  0  0  0  0  2  0  0  0  0  0  0
  180.7450  179.6710  142.6210 C   0  0  0  0  0  2  0  0  0  0  0  0
  180.6190  179.7480  141.1070 C   0  0  0  0  0  2  0  0  0  0  0  0
  180.7410  178.3630  140.4800 C   0  0  0  0  0  2  0  0  0  0  0  0
  181.9490  178.1800  139.5570 C   0  0  0  0  0  0  0  0  0  0  0  0
  182.6370  179.3670  138.9030 C   0  0  0  0  0  2  0  0  0  0  0  0
  181.6180  178.5480  138.1250 C   0  0  0  0  0  2  0  0  0  0  0  0
  182.7060  176.8630  139.6130 C   0  0  0  0  0  2  0  0  0  0  0  0
  182.2140  175.9140  138.5340 C   0  0  2  0  0  3  0  0  0  0  0  0
  181.1920  175.1210  139.0480 O   0  0  0  0  0  1  0  0  0  0  0  0
  183.3550  175.0230  138.0660 C   0  0  0  0  0  2  0  0  0  0  0  0
  185.1720  175.8530  136.8270 C   0  0  2  0  0  3  0  0  0  0  0  0
  185.9520  175.1820  135.7200 C   0  0  0  0  0  2  0  0  0  0  0  0
  183.7610  174.2330  135.8890 C   0  0  0  0  0  2  0  0  0  0  0  0
  183.7790  175.4260  136.7310 N   0  0  0  0  0  0  0  0  0  0  0  0
  185.1810  173.9200  135.4560 C   0  0  0  0  0  2  0  0  0  0  0  0
  185.2910  177.3750  136.7650 C   0  0  0  0  0  2  0  0  0  0  0  0
  187.3050  178.7830  137.0610 C   0  0  0  0  0  1  0  0  0  0  0  0
  186.2890  177.9150  137.7750 C   0  0  0  0  0  2  0  0  0  0  0  0
  1  4  1  0  0  0  0
  2  3  1  0  0  0  0
  4  2  2  0  0  0  0
  5  7  1  0  0  0  0
  5  8  1  0  0  0  0
  7  1  2  0  0  0  0
  8  9  2  0  0  0  0
  9  6  1  0  0  0  0
  9  2  1  0  0  0  0
 10 15  1  6  0  0  0
 10 11  1  0  0  0  0
 10 12  1  0  0  0  0
 10 13  1  0  0  0  0
 11  4  1  6  0  0  0
 11 12  1  0  0  0  0
 13 14  1  0  0  0  0
 16 15  1  0  0  0  0
 17 21  2  0  0  0  0
 17 20  1  0  0  0  0
 18 16  1  0  0  0  0
 19 18  2  0  0  0  0
 20 22  2  0  0  0  0
 21 19  1  0  0  0  0
 22 18  1  0  0  0  0
 23 29  1  1  0  0  0
 23 17  1  0  0  0  0
 24 27  1  0  0  0  0
 25 24  1  0  0  0  0
 26 27  1  0  0  0  0
 27 23  1  1  0  0  0
 28 25  1  0  0  0  0
 28 26  1  0  0  0  0
 30 31  2  0  0  0  0
 31 32  1  0  0  0  0
 31 29  1  0  0  0  0
 33  6  1  0  0  0  0
 34 33  1  0  0  0  0
 35 34  1  0  0  0  0
 36 35  1  0  0  0  0
 37 40  1  0  0  0  0
 37 36  1  0  0  0  0
 38 37  1  0  0  0  0
 39 38  1  0  0  0  0
 39 37  1  0  0  0  0
 41 42  1  1  0  0  0
 41 40  1  0  0  0  0
 43 41  1  0  0  0  0
 44 49  1  6  0  0  0
 45 44  1  0  0  0  0
 46 47  1  0  0  0  0
 47 44  1  0  0  0  0
 47 43  1  0  0  0  0
 48 45  1  0  0  0  0
 48 46  1  0  0  0  0
 49 51  1  0  0  0  0
 50 51  1  0  0  0  0
M  END
>  <MODEL>
4

>  <REMARK>
 VINA RESULT:      -5.9      2.498      7.664
  Name = 
  20 active torsions:
  status: ('A' for Active; 'I' for Inactive)
    1  A    between atoms: C_1  and  C_14
    2  A    between atoms: C_1  and  C_34
    3  A    between atoms: C_2  and  C_14
    4  A    between atoms: C_3  and  C_9
    5  A    between atoms: C_3  and  C_37
    6  A    between atoms: C_5  and  C_16
    7  A    between atoms: C_6  and  C_13
    8  A    between atoms: C_6  and  C_43
    9  A    between atoms: C_7  and  C_37
   10  A    between atoms: C_7  and  C_49
   11  A    between atoms: C_9  and  C_17
   12  A    between atoms: C_12  and  C_17
   13  A    between atoms: C_12  and  N_42
   14  A    between atoms: C_14  and  C_45
   15  A    between atoms: C_16  and  C_39
   16  A    between atoms: C_20  and  O_33
   17  A    between atoms: C_20  and  C_43
   18  A    between atoms: C_21  and  C_28
   19  A    between atoms: N_30  and  C_35
   20  A    between atoms: C_35  and  C_49
                            x       y       z     vdW  Elec       q    Type
                         _______ _______ _______ _____ _____    ______ ____

>  <TORSDO>
F 20

$$$$
=
 OpenBabel11032419223D

 51 56  0  0  1  0  0  0  0  0999 V2000
  189.6350  178.2300  137.9250 C   0  0  0  0  0  3  0  0  0  0  0  0
  187.3950  177.4110  137.1580 C   0  0  0  0  0  0  0  0  0  0  0  0
  186.5700  176.6260  136.1840 C   0  0  0  0  0  1  0  0  0  0  0  0
  188.7360  177.5430  136.9650 C   0  0  0  0  0  0  0  0  0  0  0  0
  188.3470  177.5960  139.9260 C   0  0  0  0  0  2  0  0  0  0  0  0
  185.3210  178.5610  137.9650 N   0  0  0  0  0  2  0  0  0  0  0  0
  189.4720  178.2870  139.2440 C   0  0  0  0  0  3  0  0  0  0  0  0
  187.0820  178.1500  139.4740 N   0  0  0  0  0  0  0  0  0  0  0  0
  186.6360  178.0750  138.2540 C   0  0  0  0  0  0  0  0  0  0  0  0
  189.7500  175.3910  135.9380 C   0  0  2  0  0  0  0  0  0  0  0  0
  189.4130  176.8770  135.7810 C   0  0  2  0  0  3  0  0  0  0  0  0
  190.8330  176.4230  136.1310 C   0  0  0  0  0  2  0  0  0  0  0  0
  189.8530  174.6960  134.7240 O   0  0  0  0  0  0  0  0  0  0  0  0
  190.9320  173.9410  134.8230 O   0  0  0  0  0  1  0  0  0  0  0  0
  189.4270  174.5960  137.2030 C   0  0  0  0  0  2  0  0  0  0  0  0
  189.0100  173.1800  136.8380 C   0  0  0  0  0  2  0  0  0  0  0  0
  184.8090  173.0440  135.9810 C   0  0  0  0  0  0  0  0  0  0  0  0
  187.5520  173.1260  136.5480 C   0  0  0  0  0  0  0  0  0  0  0  0
  187.1100  173.0190  135.2240 C   0  0  0  0  0  3  0  0  0  0  0  0
  185.2540  173.1420  137.3110 C   0  0  0  0  0  3  0  0  0  0  0  0
  185.7420  172.9800  134.9420 C   0  0  0  0  0  3  0  0  0  0  0  0
  186.6230  173.1820  137.5920 C   0  0  0  0  0  3  0  0  0  0  0  0
  183.3430  173.0270  135.6460 C   0  0  2  0  0  3  0  0  0  0  0  0
  183.1700  175.5230  135.5620 C   0  0  0  0  0  2  0  0  0  0  0  0
  181.9300  175.9650  136.0460 O   0  0  0  0  0  0  0  0  0  0  0  0
  181.4470  174.2840  134.6120 C   0  0  0  0  0  2  0  0  0  0  0  0
  182.9340  174.2420  134.8030 C   0  0  2  0  0  3  0  0  0  0  0  0
  181.0160  175.5750  135.1160 N   0  0  0  0  0  2  0  0  0  0  0  0
  182.4980  172.9390  136.9160 C   0  0  0  0  0  2  0  0  0  0  0  0
  181.6640  170.9070  135.9830 O   0  0  0  0  0  0  0  0  0  0  0  0
  181.4990  171.8330  136.8200 C   0  0  0  0  0  0  0  0  0  0  0  0
  180.3680  171.8190  137.6800 N   0  0  0  0  0  1  0  0  0  0  0  0
  184.4990  179.2400  138.9550 C   0  0  0  0  0  2  0  0  0  0  0  0
  183.8650  178.2210  139.8850 C   0  0  0  0  0  2  0  0  0  0  0  0
  183.3840  178.9150  141.1500 C   0  0  0  0  0  2  0  0  0  0  0  0
  183.9730  178.2530  142.3920 C   0  0  0  0  0  2  0  0  0  0  0  0
  183.4460  178.8010  143.7220 C   0  0  0  0  0  0  0  0  0  0  0  0
  182.1210  178.3370  144.3030 C   0  0  0  0  0  2  0  0  0  0  0  0
  182.2030  179.6420  143.5250 C   0  0  0  0  0  2  0  0  0  0  0  0
  184.4260  179.4970  144.6520 C   0  0  0  0  0  2  0  0  0  0  0  0
  185.1080  178.4930  145.5640 C   0  0  2  0  0  3  0  0  0  0  0  0
  184.5700  178.5920  146.8440 O   0  0  0  0  0  1  0  0  0  0  0  0
  186.6020  178.7750  145.6230 C   0  0  0  0  0  2  0  0  0  0  0  0
  188.6720  177.7030  145.3190 C   0  0  2  0  0  3  0  0  0  0  0  0
  189.6690  177.2500  146.3610 C   0  0  0  0  0  2  0  0  0  0  0  0
  187.4770  177.3910  147.3110 C   0  0  0  0  0  2  0  0  0  0  0  0
  187.3280  177.5350  145.8650 N   0  0  0  0  0  0  0  0  0  0  0  0
  188.9500  177.4730  147.6620 C   0  0  0  0  0  2  0  0  0  0  0  0
  188.8360  176.9400  144.0060 C   0  0  0  0  0  2  0  0  0  0  0  0
  190.8530  177.1290  142.5830 C   0  0  0  0  0  1  0  0  0  0  0  0
  190.2590  176.4500  143.8000 C   0  0  0  0  0  2  0  0  0  0  0  0
  1  7  2  0  0  0  0
  2  9  1  0  0  0  0
  3  2  1  0  0  0  0
  4  2  2  0  0  0  0
  4  1  1  0  0  0  0
  6  9  1  0  0  0  0
  6 33  1  0  0  0  0
  7  5  1  0  0  0  0
  8  5  1  0  0  0  0
  9  8  2  0  0  0  0
 10 12  1  0  0  0  0
 10 15  1  1  0  0  0
 11 10  1  0  0  0  0
 11 12  1  0  0  0  0
 11  4  1  1  0  0  0
 13 14  1  0  0  0  0
 13 10  1  0  0  0  0
 16 15  1  0  0  0  0
 17 20  1  0  0  0  0
 18 16  1  0  0  0  0
 18 22  1  0  0  0  0
 19 18  2  0  0  0  0
 20 22  2  0  0  0  0
 21 19  1  0  0  0  0
 21 17  2  0  0  0  0
 23 17  1  0  0  0  0
 23 29  1  1  0  0  0
 24 25  1  0  0  0  0
 26 27  1  0  0  0  0
 26 28  1  0  0  0  0
 27 24  1  0  0  0  0
 27 23  1  1  0  0  0
 28 25  1  0  0  0  0
 30 31  2  0  0  0  0
 31 29  1  0  0  0  0
 31 32  1  0  0  0  0
 33 34  1  0  0  0  0
 34 35  1  0  0  0  0
 35 36  1  0  0  0  0
 36 37  1  0  0  0  0
 37 38  1  0  0  0  0
 37 40  1  0  0  0  0
 39 37  1  0  0  0  0
 39 38  1  0  0  0  0
 40 41  1  0  0  0  0
 41 43  1  0  0  0  0
 41 42  1  1  0  0  0
 43 47  1  0  0  0  0
 44 49  1  6  0  0  0
 44 47  1  0  0  0  0
 44 45  1  0  0  0  0
 45 48  1  0  0  0  0
 46 48  1  0  0  0  0
 47 46  1  0  0  0  0
 50 51  1  0  0  0  0
 51 49  1  0  0  0  0
M  END
>  <MODEL>
5

>  <REMARK>
 VINA RESULT:      -5.9      2.889      6.821
  Name = 
  20 active torsions:
  status: ('A' for Active; 'I' for Inactive)
    1  A    between atoms: C_1  and  C_14
    2  A    between atoms: C_1  and  C_34
    3  A    between atoms: C_2  and  C_14
    4  A    between atoms: C_3  and  C_9
    5  A    between atoms: C_3  and  C_37
    6  A    between atoms: C_5  and  C_16
    7  A    between atoms: C_6  and  C_13
    8  A    between atoms: C_6  and  C_43
    9  A    between atoms: C_7  and  C_37
   10  A    between atoms: C_7  and  C_49
   11  A    between atoms: C_9  and  C_17
   12  A    between atoms: C_12  and  C_17
   13  A    between atoms: C_12  and  N_42
   14  A    between atoms: C_14  and  C_45
   15  A    between atoms: C_16  and  C_39
   16  A    between atoms: C_20  and  O_33
   17  A    between atoms: C_20  and  C_43
   18  A    between atoms: C_21  and  C_28
   19  A    between atoms: N_30  and  C_35
   20  A    between atoms: C_35  and  C_49
                            x       y       z     vdW  Elec       q    Type
                         _______ _______ _______ _____ _____    ______ ____

>  <TORSDO>
F 20

$$$$
=
 OpenBabel11032419223D

 51 56  0  0  1  0  0  0  0  0999 V2000
  182.8100  178.7410  139.8200 C   0  0  0  0  0  3  0  0  0  0  0  0
  181.8370  176.5220  139.1830 C   0  0  0  0  0  0  0  0  0  0  0  0
  180.7020  175.5440  139.2370 C   0  0  0  0  0  1  0  0  0  0  0  0
  181.7690  177.6850  139.8870 C   0  0  0  0  0  0  0  0  0  0  0  0
  183.4160  178.3060  137.4730 C   0  0  0  0  0  2  0  0  0  0  0  0
  183.3560  174.6900  138.3990 N   0  0  0  0  0  2  0  0  0  0  0  0
  183.5710  179.0210  138.7660 C   0  0  0  0  0  3  0  0  0  0  0  0
  183.7140  176.8950  137.6520 N   0  0  0  0  0  0  0  0  0  0  0  0
  183.0250  176.0830  138.4000 C   0  0  0  0  0  0  0  0  0  0  0  0
  180.7660  178.8670  141.9630 C   0  0  2  0  0  0  0  0  0  0  0  0
  180.5370  178.0170  140.7090 C   0  0  2  0  0  3  0  0  0  0  0  0
  180.6000  177.3740  142.0970 C   0  0  0  0  0  2  0  0  0  0  0  0
  179.6390  179.5920  142.3770 O   0  0  0  0  0  0  0  0  0  0  0  0
  180.0710  180.8020  142.6790 O   0  0  0  0  0  1  0  0  0  0  0  0
  182.1470  179.3720  142.3830 C   0  0  0  0  0  2  0  0  0  0  0  0
  182.4180  179.0060  143.8330 C   0  0  0  0  0  2  0  0  0  0  0  0
  186.5250  177.8740  144.3360 C   0  0  0  0  0  0  0  0  0  0  0  0
  183.8430  178.6200  144.0140 C   0  0  0  0  0  0  0  0  0  0  0  0
  184.6640  178.4450  142.8940 C   0  0  0  0  0  3  0  0  0  0  0  0
  185.7030  178.0600  145.4600 C   0  0  0  0  0  3  0  0  0  0  0  0
  186.0000  178.0710  143.0540 C   0  0  0  0  0  3  0  0  0  0  0  0
  184.3650  178.4330  145.2990 C   0  0  0  0  0  3  0  0  0  0  0  0
  187.9600  177.4470  144.4770 C   0  0  2  0  0  3  0  0  0  0  0  0
  190.0450  178.2570  145.6000 C   0  0  0  0  0  2  0  0  0  0  0  0
  190.7760  177.1940  146.1490 O   0  0  0  0  0  0  0  0  0  0  0  0
  188.6390  176.8530  146.8070 C   0  0  0  0  0  2  0  0  0  0  0  0
  188.5810  177.9510  145.7860 C   0  0  2  0  0  3  0  0  0  0  0  0
  190.0320  176.7440  147.1970 N   0  0  0  0  0  2  0  0  0  0  0  0
  188.7830  177.9070  143.2730 C   0  0  0  0  0  2  0  0  0  0  0  0
  189.2030  176.8040  141.2000 O   0  0  0  0  0  0  0  0  0  0  0  0
  189.2360  176.7420  142.4570 C   0  0  0  0  0  0  0  0  0  0  0  0
  189.7160  175.5680  143.0970 N   0  0  0  0  0  1  0  0  0  0  0  0
  184.5040  174.1550  137.6820 C   0  0  0  0  0  2  0  0  0  0  0  0
  184.1300  172.8450  137.0140 C   0  0  0  0  0  2  0  0  0  0  0  0
  185.3670  172.2190  136.3900 C   0  0  0  0  0  2  0  0  0  0  0  0
  185.9560  173.1270  135.3160 C   0  0  0  0  0  2  0  0  0  0  0  0
  187.4210  173.5160  135.5350 C   0  0  0  0  0  0  0  0  0  0  0  0
  188.5500  172.5260  135.3000 C   0  0  0  0  0  2  0  0  0  0  0  0
  188.0250  172.7720  136.7070 C   0  0  0  0  0  2  0  0  0  0  0  0
  187.7720  174.9940  135.5960 C   0  0  0  0  0  2  0  0  0  0  0  0
  188.6110  175.2960  136.8250 C   0  0  2  0  0  3  0  0  0  0  0  0
  187.8930  176.1280  137.6800 O   0  0  0  0  0  1  0  0  0  0  0  0
  189.9020  175.9890  136.4170 C   0  0  0  0  0  2  0  0  0  0  0  0
  192.2290  175.6730  136.3130 C   0  0  2  0  0  3  0  0  0  0  0  0
  193.2970  176.1630  137.2630 C   0  0  0  0  0  2  0  0  0  0  0  0
  191.1880  176.0170  138.3850 C   0  0  0  0  0  2  0  0  0  0  0  0
  191.0320  175.3610  137.0890 N   0  0  0  0  0  0  0  0  0  0  0  0
  192.5160  176.7500  138.4050 C   0  0  0  0  0  2  0  0  0  0  0  0
  192.6980  174.4630  135.5060 C   0  0  0  0  0  2  0  0  0  0  0  0
  192.7740  171.9980  135.7250 C   0  0  0  0  0  1  0  0  0  0  0  0
  193.1270  173.3100  136.3970 C   0  0  0  0  0  2  0  0  0  0  0  0
  1  4  1  0  0  0  0
  2  3  1  0  0  0  0
  2  4  2  0  0  0  0
  5  8  1  0  0  0  0
  5  7  1  0  0  0  0
  6  9  1  0  0  0  0
  7  1  2  0  0  0  0
  8  9  2  0  0  0  0
  9  2  1  0  0  0  0
 10 12  1  0  0  0  0
 10 13  1  0  0  0  0
 10 15  1  1  0  0  0
 11  4  1  6  0  0  0
 11 10  1  0  0  0  0
 11 12  1  0  0  0  0
 13 14  1  0  0  0  0
 15 16  1  0  0  0  0
 16 18  1  0  0  0  0
 17 23  1  0  0  0  0
 17 20  1  0  0  0  0
 18 22  1  0  0  0  0
 19 21  1  0  0  0  0
 19 18  2  0  0  0  0
 21 17  2  0  0  0  0
 22 20  2  0  0  0  0
 23 29  1  6  0  0  0
 24 27  1  0  0  0  0
 24 25  1  0  0  0  0
 25 28  1  0  0  0  0
 26 28  1  0  0  0  0
 27 23  1  6  0  0  0
 27 26  1  0  0  0  0
 30 31  2  0  0  0  0
 31 32  1  0  0  0  0
 31 29  1  0  0  0  0
 33  6  1  0  0  0  0
 34 33  1  0  0  0  0
 35 34  1  0  0  0  0
 36 37  1  0  0  0  0
 36 35  1  0  0  0  0
 37 40  1  0  0  0  0
 37 39  1  0  0  0  0
 38 37  1  0  0  0  0
 38 39  1  0  0  0  0
 40 41  1  0  0  0  0
 41 42  1  1  0  0  0
 43 41  1  0  0  0  0
 43 47  1  0  0  0  0
 44 49  1  1  0  0  0
 44 47  1  0  0  0  0
 44 45  1  0  0  0  0
 45 48  1  0  0  0  0
 46 48  1  0  0  0  0
 47 46  1  0  0  0  0
 49 51  1  0  0  0  0
 50 51  1  0  0  0  0
M  END
>  <MODEL>
6

>  <REMARK>
 VINA RESULT:      -5.8      2.832      7.904
  Name = 
  20 active torsions:
  status: ('A' for Active; 'I' for Inactive)
    1  A    between atoms: C_1  and  C_14
    2  A    between atoms: C_1  and  C_34
    3  A    between atoms: C_2  and  C_14
    4  A    between atoms: C_3  and  C_9
    5  A    between atoms: C_3  and  C_37
    6  A    between atoms: C_5  and  C_16
    7  A    between atoms: C_6  and  C_13
    8  A    between atoms: C_6  and  C_43
    9  A    between atoms: C_7  and  C_37
   10  A    between atoms: C_7  and  C_49
   11  A    between atoms: C_9  and  C_17
   12  A    between atoms: C_12  and  C_17
   13  A    between atoms: C_12  and  N_42
   14  A    between atoms: C_14  and  C_45
   15  A    between atoms: C_16  and  C_39
   16  A    between atoms: C_20  and  O_33
   17  A    between atoms: C_20  and  C_43
   18  A    between atoms: C_21  and  C_28
   19  A    between atoms: N_30  and  C_35
   20  A    between atoms: C_35  and  C_49
                            x       y       z     vdW  Elec       q    Type
                         _______ _______ _______ _____ _____    ______ ____

>  <TORSDO>
F 20

$$$$
=
 OpenBabel11032419223D

 51 56  0  0  1  0  0  0  0  0999 V2000
  181.6940  179.5090  139.3620 C   0  0  0  0  0  3  0  0  0  0  0  0
  180.6110  177.2840  138.9680 C   0  0  0  0  0  0  0  0  0  0  0  0
  179.5970  176.2530  139.3600 C   0  0  0  0  0  1  0  0  0  0  0  0
  180.7740  178.4030  139.7260 C   0  0  0  0  0  0  0  0  0  0  0  0
  181.4210  179.2310  136.9300 C   0  0  0  0  0  2  0  0  0  0  0  0
  181.7880  175.5720  137.5680 N   0  0  0  0  0  2  0  0  0  0  0  0
  182.0150  179.8820  138.1260 C   0  0  0  0  0  3  0  0  0  0  0  0
  181.7980  177.8290  136.8940 N   0  0  0  0  0  0  0  0  0  0  0  0
  181.4470  176.9460  137.7820 C   0  0  0  0  0  0  0  0  0  0  0  0
  180.6630  178.8890  142.2690 C   0  0  2  0  0  0  0  0  0  0  0  0
  179.9150  178.6310  140.9560 C   0  0  2  0  0  3  0  0  0  0  0  0
  180.1070  177.5160  141.9880 C   0  0  0  0  0  2  0  0  0  0  0  0
  179.9210  179.6070  143.2190 O   0  0  0  0  0  0  0  0  0  0  0  0
  179.2750  178.7070  143.9360 O   0  0  0  0  0  1  0  0  0  0  0  0
  182.1880  178.9270  142.3610 C   0  0  0  0  0  2  0  0  0  0  0  0
  182.6210  179.0200  143.8160 C   0  0  0  0  0  2  0  0  0  0  0  0
  186.7810  178.0610  144.2240 C   0  0  0  0  0  0  0  0  0  0  0  0
  184.0620  178.6790  143.9530 C   0  0  0  0  0  0  0  0  0  0  0  0
  184.7010  178.8430  145.1870 C   0  0  0  0  0  3  0  0  0  0  0  0
  186.1370  177.8870  142.9880 C   0  0  0  0  0  3  0  0  0  0  0  0
  186.0570  178.5360  145.3220 C   0  0  0  0  0  3  0  0  0  0  0  0
  184.7800  178.1950  142.8530 C   0  0  0  0  0  3  0  0  0  0  0  0
  188.2460  177.7640  144.3920 C   0  0  2  0  0  3  0  0  0  0  0  0
  189.5020  175.9740  143.1720 C   0  0  0  0  0  2  0  0  0  0  0  0
  190.8870  176.1230  143.3310 O   0  0  0  0  0  0  0  0  0  0  0  0
  190.1220  178.1830  142.7950 C   0  0  0  0  0  2  0  0  0  0  0  0
  188.9030  177.3530  143.0670 C   0  0  2  0  0  3  0  0  0  0  0  0
  191.2160  177.2430  142.6310 N   0  0  0  0  0  2  0  0  0  0  0  0
  188.4630  176.6920  145.4600 C   0  0  0  0  0  2  0  0  0  0  0  0
  188.5770  178.1500  147.3440 O   0  0  0  0  0  0  0  0  0  0  0  0
  189.1470  177.2610  146.6590 C   0  0  0  0  0  0  0  0  0  0  0  0
  190.4330  176.7900  147.0340 N   0  0  0  0  0  1  0  0  0  0  0  0
  182.6120  175.1320  136.4520 C   0  0  0  0  0  2  0  0  0  0  0  0
  181.9110  174.0120  135.7030 C   0  0  0  0  0  2  0  0  0  0  0  0
  182.8280  172.8020  135.6200 C   0  0  0  0  0  2  0  0  0  0  0  0
  184.2520  173.2200  135.2670 C   0  0  0  0  0  2  0  0  0  0  0  0
  185.3490  172.3710  135.9160 C   0  0  0  0  0  0  0  0  0  0  0  0
  185.7950  171.0500  135.3090 C   0  0  0  0  0  2  0  0  0  0  0  0
  184.7990  171.0690  136.4590 C   0  0  0  0  0  2  0  0  0  0  0  0
  186.2680  173.0330  136.9300 C   0  0  0  0  0  2  0  0  0  0  0  0
  186.9970  174.2090  136.3070 C   0  0  2  0  0  3  0  0  0  0  0  0
  187.9320  173.7390  135.3900 O   0  0  0  0  0  1  0  0  0  0  0  0
  187.7100  175.0100  137.3860 C   0  0  0  0  0  2  0  0  0  0  0  0
  188.0690  177.3210  137.6270 C   0  0  2  0  0  3  0  0  0  0  0  0
  187.6600  178.4460  136.7050 C   0  0  0  0  0  2  0  0  0  0  0  0
  186.2420  176.5460  136.3800 C   0  0  0  0  0  2  0  0  0  0  0  0
  187.0370  176.2880  137.5770 N   0  0  0  0  0  0  0  0  0  0  0  0
  186.8000  177.7690  135.6760 C   0  0  0  0  0  2  0  0  0  0  0  0
  188.2950  177.8110  139.0560 C   0  0  0  0  0  2  0  0  0  0  0  0
  190.5210  176.8410  138.5710 C   0  0  0  0  0  1  0  0  0  0  0  0
  189.7680  177.8390  139.4270 C   0  0  0  0  0  2  0  0  0  0  0  0
  1  4  1  0  0  0  0
  2  3  1  0  0  0  0
  2  4  2  0  0  0  0
  5  7  1  0  0  0  0
  6  9  1  0  0  0  0
  7  1  2  0  0  0  0
  8  5  1  0  0  0  0
  8  9  2  0  0  0  0
  9  2  1  0  0  0  0
 10 15  1  6  0  0  0
 10 13  1  0  0  0  0
 11  4  1  6  0  0  0
 11 12  1  0  0  0  0
 11 10  1  0  0  0  0
 12 10  1  0  0  0  0
 13 14  1  0  0  0  0
 15 16  1  0  0  0  0
 16 18  1  0  0  0  0
 17 23  1  0  0  0  0
 17 21  1  0  0  0  0
 18 19  1  0  0  0  0
 19 21  2  0  0  0  0
 20 17  2  0  0  0  0
 22 20  1  0  0  0  0
 22 18  2  0  0  0  0
 23 29  1  1  0  0  0
 24 25  1  0  0  0  0
 26 27  1  0  0  0  0
 27 24  1  0  0  0  0
 27 23  1  1  0  0  0
 28 26  1  0  0  0  0
 28 25  1  0  0  0  0
 29 31  1  0  0  0  0
 31 32  1  0  0  0  0
 31 30  2  0  0  0  0
 33  6  1  0  0  0  0
 34 33  1  0  0  0  0
 35 34  1  0  0  0  0
 36 35  1  0  0  0  0
 36 37  1  0  0  0  0
 37 39  1  0  0  0  0
 37 40  1  0  0  0  0
 38 37  1  0  0  0  0
 38 39  1  0  0  0  0
 41 42  1  6  0  0  0
 41 40  1  0  0  0  0
 41 43  1  0  0  0  0
 43 47  1  0  0  0  0
 44 49  1  1  0  0  0
 45 44  1  0  0  0  0
 46 47  1  0  0  0  0
 47 44  1  0  0  0  0
 48 46  1  0  0  0  0
 48 45  1  0  0  0  0
 49 51  1  0  0  0  0
 50 51  1  0  0  0  0
M  END
>  <MODEL>
7

>  <REMARK>
 VINA RESULT:      -5.7      2.707      7.472
  Name = 
  20 active torsions:
  status: ('A' for Active; 'I' for Inactive)
    1  A    between atoms: C_1  and  C_14
    2  A    between atoms: C_1  and  C_34
    3  A    between atoms: C_2  and  C_14
    4  A    between atoms: C_3  and  C_9
    5  A    between atoms: C_3  and  C_37
    6  A    between atoms: C_5  and  C_16
    7  A    between atoms: C_6  and  C_13
    8  A    between atoms: C_6  and  C_43
    9  A    between atoms: C_7  and  C_37
   10  A    between atoms: C_7  and  C_49
   11  A    between atoms: C_9  and  C_17
   12  A    between atoms: C_12  and  C_17
   13  A    between atoms: C_12  and  N_42
   14  A    between atoms: C_14  and  C_45
   15  A    between atoms: C_16  and  C_39
   16  A    between atoms: C_20  and  O_33
   17  A    between atoms: C_20  and  C_43
   18  A    between atoms: C_21  and  C_28
   19  A    between atoms: N_30  and  C_35
   20  A    between atoms: C_35  and  C_49
                            x       y       z     vdW  Elec       q    Type
                         _______ _______ _______ _____ _____    ______ ____

>  <TORSDO>
F 20

$$$$
=
 OpenBabel11032419223D

 51 56  0  0  1  0  0  0  0  0999 V2000
  183.3540  178.0390  142.2450 C   0  0  0  0  0  3  0  0  0  0  0  0
  183.6740  179.1110  140.0030 C   0  0  0  0  0  0  0  0  0  0  0  0
  183.1000  179.8310  138.8200 C   0  0  0  0  0  1  0  0  0  0  0  0
  182.8570  178.6830  141.0030 C   0  0  0  0  0  0  0  0  0  0  0  0
  185.4680  179.3020  142.3150 C   0  0  0  0  0  2  0  0  0  0  0  0
  185.7220  178.5760  138.6630 N   0  0  0  0  0  2  0  0  0  0  0  0
  184.5210  178.2810  142.8350 C   0  0  0  0  0  3  0  0  0  0  0  0
  185.9130  178.9280  140.9840 N   0  0  0  0  0  0  0  0  0  0  0  0
  185.1380  178.8420  139.9420 C   0  0  0  0  0  0  0  0  0  0  0  0
  180.4930  177.8250  140.3790 C   0  0  2  0  0  0  0  0  0  0  0  0
  181.3640  178.9510  140.9460 C   0  0  2  0  0  3  0  0  0  0  0  0
  180.8580  178.9960  139.5010 C   0  0  0  0  0  2  0  0  0  0  0  0
  179.1610  177.8550  140.8200 O   0  0  0  0  0  0  0  0  0  0  0  0
  179.1820  177.4490  142.0760 O   0  0  0  0  0  1  0  0  0  0  0  0
  181.0670  176.4930  139.8970 C   0  0  0  0  0  2  0  0  0  0  0  0
  180.7190  176.2730  138.4330 C   0  0  0  0  0  2  0  0  0  0  0  0
  183.9840  174.4120  136.3660 C   0  0  0  0  0  0  0  0  0  0  0  0
  181.8560  175.6360  137.7180 C   0  0  0  0  0  0  0  0  0  0  0  0
  181.6400  175.0110  136.4850 C   0  0  0  0  0  3  0  0  0  0  0  0
  184.2030  175.0480  137.6000 C   0  0  0  0  0  3  0  0  0  0  0  0
  182.7000  174.4000  135.8120 C   0  0  0  0  0  3  0  0  0  0  0  0
  183.1400  175.6590  138.2730 C   0  0  0  0  0  3  0  0  0  0  0  0
  185.1010  173.7230  135.6320 C   0  0  2  0  0  3  0  0  0  0  0  0
  184.8980  171.3660  134.8120 C   0  0  0  0  0  2  0  0  0  0  0  0
  183.5890  170.8860  134.9570 O   0  0  0  0  0  0  0  0  0  0  0  0
  184.0950  171.8470  136.9410 C   0  0  0  0  0  2  0  0  0  0  0  0
  185.2000  172.2380  136.0040 C   0  0  2  0  0  3  0  0  0  0  0  0
  183.3970  170.7490  136.2980 N   0  0  0  0  0  2  0  0  0  0  0  0
  186.4310  174.4350  135.8790 C   0  0  0  0  0  2  0  0  0  0  0  0
  188.3450  173.1430  135.2770 O   0  0  0  0  0  0  0  0  0  0  0  0
  187.5170  173.4530  136.1730 C   0  0  0  0  0  0  0  0  0  0  0  0
  187.6250  172.8790  137.4680 N   0  0  0  0  0  1  0  0  0  0  0  0
  187.1380  178.2850  138.4910 C   0  0  0  0  0  2  0  0  0  0  0  0
  187.3660  177.6100  137.1490 C   0  0  0  0  0  2  0  0  0  0  0  0
  188.8450  177.3020  136.9790 C   0  0  0  0  0  2  0  0  0  0  0  0
  189.6580  177.8690  138.1380 C   0  0  0  0  0  2  0  0  0  0  0  0
  190.6940  176.9070  138.7270 C   0  0  0  0  0  0  0  0  0  0  0  0
  192.0290  176.6610  138.0440 C   0  0  0  0  0  2  0  0  0  0  0  0
  190.8780  175.6840  137.8540 C   0  0  0  0  0  2  0  0  0  0  0  0
  190.5600  176.5100  140.1880 C   0  0  0  0  0  2  0  0  0  0  0  0
  191.1240  177.5910  141.0930 C   0  0  2  0  0  3  0  0  0  0  0  0
  192.2390  177.0960  141.7620 O   0  0  0  0  0  1  0  0  0  0  0  0
  190.0760  178.0190  142.1090 C   0  0  0  0  0  2  0  0  0  0  0  0
  189.9960  177.6190  144.4240 C   0  0  2  0  0  3  0  0  0  0  0  0
  188.8350  177.1390  145.2650 C   0  0  0  0  0  2  0  0  0  0  0  0
  188.5510  176.4600  142.9880 C   0  0  0  0  0  2  0  0  0  0  0  0
  189.9100  176.9780  143.1150 N   0  0  0  0  0  0  0  0  0  0  0  0
  187.7810  176.7920  144.2520 C   0  0  0  0  0  2  0  0  0  0  0  0
  191.3390  177.3360  145.0940 C   0  0  0  0  0  2  0  0  0  0  0  0
  192.1260  175.6970  146.7730 C   0  0  0  0  0  1  0  0  0  0  0  0
  191.1770  176.8520  146.5240 C   0  0  0  0  0  2  0  0  0  0  0  0
  1  7  2  0  0  0  0
  2  4  2  0  0  0  0
  3  2  1  0  0  0  0
  4  1  1  0  0  0  0
  5  7  1  0  0  0  0
  6  9  1  0  0  0  0
  8  5  1  0  0  0  0
  9  2  1  0  0  0  0
  9  8  2  0  0  0  0
 10 15  1  6  0  0  0
 10 13  1  0  0  0  0
 10 11  1  0  0  0  0
 11  4  1  6  0  0  0
 12 10  1  0  0  0  0
 12 11  1  0  0  0  0
 13 14  1  0  0  0  0
 16 15  1  0  0  0  0
 17 20  1  0  0  0  0
 18 22  1  0  0  0  0
 18 16  1  0  0  0  0
 19 18  2  0  0  0  0
 20 22  2  0  0  0  0
 21 17  2  0  0  0  0
 21 19  1  0  0  0  0
 23 29  1  1  0  0  0
 23 17  1  0  0  0  0
 24 25  1  0  0  0  0
 24 27  1  0  0  0  0
 25 28  1  0  0  0  0
 27 23  1  6  0  0  0
 27 26  1  0  0  0  0
 28 26  1  0  0  0  0
 29 31  1  0  0  0  0
 30 31  2  0  0  0  0
 31 32  1  0  0  0  0
 33  6  1  0  0  0  0
 34 33  1  0  0  0  0
 35 34  1  0  0  0  0
 35 36  1  0  0  0  0
 36 37  1  0  0  0  0
 37 40  1  0  0  0  0
 38 37  1  0  0  0  0
 39 38  1  0  0  0  0
 39 37  1  0  0  0  0
 40 41  1  0  0  0  0
 41 42  1  1  0  0  0
 41 43  1  0  0  0  0
 43 47  1  0  0  0  0
 44 49  1  1  0  0  0
 44 45  1  0  0  0  0
 46 47  1  0  0  0  0
 46 48  1  0  0  0  0
 47 44  1  0  0  0  0
 48 45  1  0  0  0  0
 49 51  1  0  0  0  0
 51 50  1  0  0  0  0
M  END
>  <MODEL>
8

>  <REMARK>
 VINA RESULT:      -5.6      2.795      5.877
  Name = 
  20 active torsions:
  status: ('A' for Active; 'I' for Inactive)
    1  A    between atoms: C_1  and  C_14
    2  A    between atoms: C_1  and  C_34
    3  A    between atoms: C_2  and  C_14
    4  A    between atoms: C_3  and  C_9
    5  A    between atoms: C_3  and  C_37
    6  A    between atoms: C_5  and  C_16
    7  A    between atoms: C_6  and  C_13
    8  A    between atoms: C_6  and  C_43
    9  A    between atoms: C_7  and  C_37
   10  A    between atoms: C_7  and  C_49
   11  A    between atoms: C_9  and  C_17
   12  A    between atoms: C_12  and  C_17
   13  A    between atoms: C_12  and  N_42
   14  A    between atoms: C_14  and  C_45
   15  A    between atoms: C_16  and  C_39
   16  A    between atoms: C_20  and  O_33
   17  A    between atoms: C_20  and  C_43
   18  A    between atoms: C_21  and  C_28
   19  A    between atoms: N_30  and  C_35
   20  A    between atoms: C_35  and  C_49
                            x       y       z     vdW  Elec       q    Type
                         _______ _______ _______ _____ _____    ______ ____

>  <TORSDO>
F 20

$$$$
=
 OpenBabel11032419223D

 51 56  0  0  1  0  0  0  0  0999 V2000
  191.3040  177.8000  145.1120 C   0  0  0  0  0  3  0  0  0  0  0  0
  189.2000  177.1920  143.8950 C   0  0  0  0  0  0  0  0  0  0  0  0
  187.8240  176.5960  143.9100 C   0  0  0  0  0  1  0  0  0  0  0  0
  189.9680  177.1600  145.0180 C   0  0  0  0  0  0  0  0  0  0  0  0
  190.7720  179.6460  143.5700 C   0  0  0  0  0  2  0  0  0  0  0  0
  189.2230  177.0380  141.3950 N   0  0  0  0  0  2  0  0  0  0  0  0
  191.6930  178.8930  144.4610 C   0  0  0  0  0  3  0  0  0  0  0  0
  190.3610  178.8040  142.4600 N   0  0  0  0  0  0  0  0  0  0  0  0
  189.6600  177.7140  142.5790 C   0  0  0  0  0  0  0  0  0  0  0  0
  188.3780  177.3650  147.0540 C   0  0  2  0  0  0  0  0  0  0  0  0
  189.4340  176.5480  146.3010 C   0  0  2  0  0  3  0  0  0  0  0  0
  189.8110  177.3920  147.5220 C   0  0  0  0  0  2  0  0  0  0  0  0
  187.5390  176.5960  147.8740 O   0  0  0  0  0  0  0  0  0  0  0  0
  187.6160  177.1280  149.0790 O   0  0  0  0  0  1  0  0  0  0  0  0
  187.8670  178.7180  146.5600 C   0  0  0  0  0  2  0  0  0  0  0  0
  186.4970  179.0060  147.1520 C   0  0  0  0  0  2  0  0  0  0  0  0
  183.4750  178.7680  144.1160 C   0  0  0  0  0  0  0  0  0  0  0  0
  185.4470  178.9140  146.1020 C   0  0  0  0  0  0  0  0  0  0  0  0
  185.7240  179.3510  144.8010 C   0  0  0  0  0  3  0  0  0  0  0  0
  183.2010  178.3210  145.4190 C   0  0  0  0  0  3  0  0  0  0  0  0
  184.7410  179.2800  143.8120 C   0  0  0  0  0  3  0  0  0  0  0  0
  184.1860  178.3930  146.4090 C   0  0  0  0  0  3  0  0  0  0  0  0
  182.4280  178.7280  143.0380 C   0  0  2  0  0  3  0  0  0  0  0  0
  181.9460  179.0270  140.5990 C   0  0  0  0  0  2  0  0  0  0  0  0
  181.9430  177.7970  139.9250 O   0  0  0  0  0  0  0  0  0  0  0  0
  183.8180  177.7800  141.1900 C   0  0  0  0  0  2  0  0  0  0  0  0
  183.0290  178.9710  141.6470 C   0  0  2  0  0  3  0  0  0  0  0  0
  183.2400  177.3810  139.9200 N   0  0  0  0  0  2  0  0  0  0  0  0
  181.3110  179.7310  143.3290 C   0  0  0  0  0  2  0  0  0  0  0  0
  178.9320  179.6650  143.4900 O   0  0  0  0  0  0  0  0  0  0  0  0
  180.0170  179.0320  143.5830 C   0  0  0  0  0  0  0  0  0  0  0  0
  180.0070  177.6510  143.9170 N   0  0  0  0  0  1  0  0  0  0  0  0
  189.6240  177.4530  140.0590 C   0  0  0  0  0  2  0  0  0  0  0  0
  190.5300  176.4020  139.4430 C   0  0  0  0  0  2  0  0  0  0  0  0
  189.9770  175.9800  138.0910 C   0  0  0  0  0  2  0  0  0  0  0  0
  188.5380  176.4540  137.9190 C   0  0  0  0  0  2  0  0  0  0  0  0
  188.2950  177.3350  136.6900 C   0  0  0  0  0  0  0  0  0  0  0  0
  189.0100  178.6640  136.5100 C   0  0  0  0  0  2  0  0  0  0  0  0
  187.5910  178.6240  137.0590 C   0  0  0  0  0  2  0  0  0  0  0  0
  187.6530  176.7020  135.4660 C   0  0  0  0  0  2  0  0  0  0  0  0
  186.7790  175.5260  135.8650 C   0  0  2  0  0  3  0  0  0  0  0  0
  186.7920  174.5770  134.8480 O   0  0  0  0  0  1  0  0  0  0  0  0
  185.3500  175.9950  136.0970 C   0  0  0  0  0  2  0  0  0  0  0  0
  183.9710  174.4910  137.2650 C   0  0  2  0  0  3  0  0  0  0  0  0
  182.4670  174.3580  137.2270 C   0  0  0  0  0  2  0  0  0  0  0  0
  183.2640  175.3710  135.2110 C   0  0  0  0  0  2  0  0  0  0  0  0
  184.4320  174.8750  135.9330 N   0  0  0  0  0  0  0  0  0  0  0  0
  182.0540  175.2890  136.1230 C   0  0  0  0  0  2  0  0  0  0  0  0
  184.6450  173.2030  137.7350 C   0  0  0  0  0  2  0  0  0  0  0  0
  183.7670  171.2520  136.4890 C   0  0  0  0  0  1  0  0  0  0  0  0
  184.9100  172.2420  136.5890 C   0  0  0  0  0  2  0  0  0  0  0  0
  2  3  1  0  0  0  0
  2  4  2  0  0  0  0
  4  1  1  0  0  0  0
  5  7  1  0  0  0  0
  6  9  1  0  0  0  0
  7  1  2  0  0  0  0
  8  9  2  0  0  0  0
  8  5  1  0  0  0  0
  9  2  1  0  0  0  0
 10 15  1  6  0  0  0
 10 12  1  0  0  0  0
 10 13  1  0  0  0  0
 11  4  1  6  0  0  0
 11 10  1  0  0  0  0
 11 12  1  0  0  0  0
 13 14  1  0  0  0  0
 15 16  1  0  0  0  0
 17 20  1  0  0  0  0
 18 22  1  0  0  0  0
 18 16  1  0  0  0  0
 19 18  2  0  0  0  0
 20 22  2  0  0  0  0
 21 17  2  0  0  0  0
 21 19  1  0  0  0  0
 23 29  1  1  0  0  0
 23 17  1  0  0  0  0
 24 27  1  0  0  0  0
 25 24  1  0  0  0  0
 26 27  1  0  0  0  0
 27 23  1  1  0  0  0
 28 25  1  0  0  0  0
 28 26  1  0  0  0  0
 29 31  1  0  0  0  0
 30 31  2  0  0  0  0
 31 32  1  0  0  0  0
 33  6  1  0  0  0  0
 34 33  1  0  0  0  0
 35 34  1  0  0  0  0
 36 35  1  0  0  0  0
 37 39  1  0  0  0  0
 37 36  1  0  0  0  0
 38 37  1  0  0  0  0
 38 39  1  0  0  0  0
 40 41  1  0  0  0  0
 40 37  1  0  0  0  0
 41 42  1  6  0  0  0
 41 43  1  0  0  0  0
 44 49  1  6  0  0  0
 45 44  1  0  0  0  0
 46 47  1  0  0  0  0
 46 48  1  0  0  0  0
 47 43  1  0  0  0  0
 47 44  1  0  0  0  0
 48 45  1  0  0  0  0
 50 51  1  0  0  0  0
 51 49  1  0  0  0  0
M  END
>  <MODEL>
9

>  <REMARK>
 VINA RESULT:      -5.5      2.834     10.496
  Name = 
  20 active torsions:
  status: ('A' for Active; 'I' for Inactive)
    1  A    between atoms: C_1  and  C_14
    2  A    between atoms: C_1  and  C_34
    3  A    between atoms: C_2  and  C_14
    4  A    between atoms: C_3  and  C_9
    5  A    between atoms: C_3  and  C_37
    6  A    between atoms: C_5  and  C_16
    7  A    between atoms: C_6  and  C_13
    8  A    between atoms: C_6  and  C_43
    9  A    between atoms: C_7  and  C_37
   10  A    between atoms: C_7  and  C_49
   11  A    between atoms: C_9  and  C_17
   12  A    between atoms: C_12  and  C_17
   13  A    between atoms: C_12  and  N_42
   14  A    between atoms: C_14  and  C_45
   15  A    between atoms: C_16  and  C_39
   16  A    between atoms: C_20  and  O_33
   17  A    between atoms: C_20  and  C_43
   18  A    between atoms: C_21  and  C_28
   19  A    between atoms: N_30  and  C_35
   20  A    between atoms: C_35  and  C_49
                            x       y       z     vdW  Elec       q    Type
                         _______ _______ _______ _____ _____    ______ ____

>  <TORSDO>
F 20

$$$$
