=
 OpenBabel11042411433D

 40 43  0  0  1  0  0  0  0  0999 V2000
  187.8530  177.3800  148.4060 N   0  0  0  0  0  2  0  0  0  0  0  0
  186.8570  177.9910  144.9850 C   0  0  0  0  0  0  0  0  0  0  0  0
  185.5770  178.6070  145.2830 C   0  0  0  0  0  0  0  0  0  0  0  0
  185.5850  178.0460  143.1120 C   0  0  0  0  0  0  0  0  0  0  0  0
  185.2160  179.0180  146.4930 C   0  0  0  0  0  3  0  0  0  0  0  0
  187.8950  177.7370  146.0230 C   0  0  0  0  0  2  0  0  0  0  0  0
  186.8840  177.6800  143.6990 C   0  0  0  0  0  0  0  0  0  0  0  0
  184.8190  178.5970  144.0540 C   0  0  0  0  0  0  0  0  0  0  0  0
  187.2830  177.9150  147.3940 C   0  0  0  0  0  0  0  0  0  0  0  0
  186.2160  178.9640  147.6250 C   0  0  0  0  0  2  0  0  0  0  0  0
  183.5400  179.0160  143.8880 F   0  0  0  0  0  0  0  0  0  0  0  0
  188.0010  176.9870  142.9810 C   0  0  0  0  0  2  0  0  0  0  0  0
  188.7850  177.9450  142.0760 C   0  0  2  0  0  3  0  0  0  0  0  0
  190.5710  175.9480  140.8800 O   0  0  0  0  0  0  0  0  0  0  0  0
  190.5430  177.0450  138.8030 C   0  0  0  0  0  3  0  0  0  0  0  0
  188.7240  177.4890  140.6040 C   0  0  1  0  0  3  0  0  0  0  0  0
  188.4100  178.6860  139.6890 C   0  0  0  0  0  2  0  0  0  0  0  0
  188.5020  178.2900  138.2190 C   0  0  0  0  0  2  0  0  0  0  0  0
  190.0000  176.7970  140.1490 C   0  0  0  0  0  0  0  0  0  0  0  0
  189.8680  177.7690  137.9100 C   0  0  0  0  0  3  0  0  0  0  0  0
  190.2230  178.0210  142.5710 C   0  0  0  0  0  2  0  0  0  0  0  0
  190.2740  177.6410  143.9790 N   0  0  0  0  0  2  0  0  0  0  0  0
  191.8100  175.8500  143.9350 O   0  0  0  0  0  1  0  0  0  0  0  0
  191.8440  177.3100  145.7030 O   0  0  0  0  0  1  0  0  0  0  0  0
  191.6180  177.1750  144.3290 C   0  0  0  0  0  3  0  0  0  0  0  0
  185.1900  177.8130  141.6920 C   0  0  0  0  0  2  0  0  0  0  0  0
  184.8390  179.1020  141.0200 C   0  0  0  0  0  3  0  0  0  0  0  0
  184.6620  179.2030  139.7040 C   0  0  0  0  0  0  0  0  0  0  0  0
  184.3110  180.4340  139.1610 O   0  0  0  0  0  1  0  0  0  0  0  0
  184.8270  178.0250  138.7950 C   0  0  0  0  0  2  0  0  0  0  0  0
  183.6300  177.9040  137.8700 C   0  0  0  0  0  2  0  0  0  0  0  0
  184.0710  177.2610  136.5780 C   0  0  0  0  0  2  0  0  0  0  0  0
  185.5740  177.4140  136.4320 C   0  0  0  0  0  2  0  0  0  0  0  0
  186.1640  176.1560  135.8270 C   0  0  0  0  0  2  0  0  0  0  0  0
  186.8210  175.2880  136.9000 C   0  0  0  0  0  2  0  0  0  0  0  0
  186.5640  173.8050  136.6600 C   0  0  0  0  0  2  0  0  0  0  0  0
  184.7030  172.4600  137.5260 C   0  0  2  0  0  3  0  0  0  0  0  0
  183.4050  171.8210  137.0900 C   0  0  0  0  0  1  0  0  0  0  0  0
  184.4710  173.8210  137.8030 O   0  0  0  0  0  0  0  0  0  0  0  0
  185.0770  173.5260  136.5700 C   0  0  1  0  0  3  0  0  0  0  0  0
  2  3  1  0  0  0  0
  2  6  1  0  0  0  0
  3  5  2  0  0  0  0
  4  7  1  0  0  0  0
  4  8  2  0  0  0  0
  5 10  1  0  0  0  0
  6  9  1  0  0  0  0
  7  2  2  0  0  0  0
  8  3  1  0  0  0  0
  9 10  1  0  0  0  0
  9  1  2  0  0  0  0
 11  8  1  0  0  0  0
 12  7  1  0  0  0  0
 13 21  1  1  0  0  0
 13 12  1  0  0  0  0
 15 19  1  0  0  0  0
 16 13  1  1  0  0  0
 17 16  1  0  0  0  0
 18 17  1  0  0  0  0
 19 16  1  0  0  0  0
 19 14  2  0  0  0  0
 20 18  1  0  0  0  0
 20 15  2  0  0  0  0
 21 22  1  0  0  0  0
 22 25  1  0  0  0  0
 23 25  1  0  0  0  0
 25 24  1  0  0  0  0
 26  4  1  0  0  0  0
 27 26  1  0  0  0  0
 28 27  2  0  0  0  0
 29 28  1  0  0  0  0
 30 28  1  0  0  0  0
 31 30  1  0  0  0  0
 32 31  1  0  0  0  0
 33 32  1  0  0  0  0
 34 33  1  0  0  0  0
 34 35  1  0  0  0  0
 36 35  1  0  0  0  0
 37 38  1  6  0  0  0
 37 39  1  0  0  0  0
 40 36  1  1  0  0  0
 40 37  1  0  0  0  0
 40 39  1  0  0  0  0
M  END
>  <MODEL>
1

>  <REMARK>
 VINA RESULT:      -7.7      0.000      0.000
  Name = 
  16 active torsions:
  status: ('A' for Active; 'I' for Inactive)
    1  A    between atoms: C_3  and  C_12
    2  A    between atoms: C_3  and  C_34
    3  A    between atoms: C_4  and  C_14
    4  A    between atoms: C_4  and  C_17
    5  A    between atoms: C_5  and  C_20
    6  A    between atoms: C_7  and  C_23
    7  A    between atoms: C_10  and  C_20
    8  A    between atoms: C_11  and  C_19
    9  A    between atoms: C_11  and  C_22
   10  A    between atoms: C_11  and  C_31
   11  A    between atoms: C_12  and  C_14
   12  A    between atoms: C_22  and  N_35
   13  A    between atoms: C_23  and  C_38
   14  A    between atoms: C_24  and  C_31
   15  A    between atoms: C_34  and  C_38
   16  A    between atoms: N_35  and  C_40
                            x       y       z     vdW  Elec       q    Type
                         _______ _______ _______ _____ _____    ______ ____

>  <TORSDO>
F 16

$$$$
=
 OpenBabel11042411433D

 40 43  0  0  1  0  0  0  0  0999 V2000
  187.9630  177.4800  148.4500 N   0  0  0  0  0  2  0  0  0  0  0  0
  186.7950  178.0390  145.0740 C   0  0  0  0  0  0  0  0  0  0  0  0
  185.5190  178.6320  145.4260 C   0  0  0  0  0  0  0  0  0  0  0  0
  185.4370  178.0510  143.2620 C   0  0  0  0  0  0  0  0  0  0  0  0
  185.2060  179.0470  146.6470 C   0  0  0  0  0  3  0  0  0  0  0  0
  187.8860  177.8150  146.0640 C   0  0  0  0  0  2  0  0  0  0  0  0
  186.7690  177.7170  143.7900 C   0  0  0  0  0  0  0  0  0  0  0  0
  184.7040  178.5950  144.2330 C   0  0  0  0  0  0  0  0  0  0  0  0
  187.3350  177.9940  147.4600 C   0  0  0  0  0  0  0  0  0  0  0  0
  186.2580  179.0250  147.7320 C   0  0  0  0  0  2  0  0  0  0  0  0
  183.4110  178.9870  144.1240 F   0  0  0  0  0  0  0  0  0  0  0  0
  187.8650  177.0390  143.0270 C   0  0  0  0  0  2  0  0  0  0  0  0
  188.6000  178.0080  142.0930 C   0  0  2  0  0  3  0  0  0  0  0  0
  190.5690  176.0480  141.1470 O   0  0  0  0  0  0  0  0  0  0  0  0
  190.6110  177.0020  139.0010 C   0  0  0  0  0  3  0  0  0  0  0  0
  188.6580  177.4530  140.6550 C   0  0  1  0  0  3  0  0  0  0  0  0
  188.3360  178.5650  139.6420 C   0  0  0  0  0  2  0  0  0  0  0  0
  188.5430  178.0800  138.2120 C   0  0  0  0  0  2  0  0  0  0  0  0
  189.9980  176.8110  140.3260 C   0  0  0  0  0  0  0  0  0  0  0  0
  189.9530  177.6230  138.0220 C   0  0  0  0  0  3  0  0  0  0  0  0
  189.9970  178.2580  142.6450 C   0  0  0  0  0  2  0  0  0  0  0  0
  190.2030  177.4400  143.8370 N   0  0  0  0  0  2  0  0  0  0  0  0
  191.5310  177.4890  145.7870 O   0  0  0  0  0  1  0  0  0  0  0  0
  191.9350  179.0100  144.1190 O   0  0  0  0  0  1  0  0  0  0  0  0
  191.5260  177.7040  144.4070 C   0  0  0  0  0  3  0  0  0  0  0  0
  184.9820  177.7970  141.8630 C   0  0  0  0  0  2  0  0  0  0  0  0
  184.9360  179.0690  141.0800 C   0  0  0  0  0  3  0  0  0  0  0  0
  184.5290  179.1210  139.8130 C   0  0  0  0  0  0  0  0  0  0  0  0
  184.4910  180.3500  139.1630 O   0  0  0  0  0  1  0  0  0  0  0  0
  184.1070  177.8900  139.0710 C   0  0  0  0  0  2  0  0  0  0  0  0
  184.8230  177.8100  137.7350 C   0  0  0  0  0  2  0  0  0  0  0  0
  183.8910  177.2040  136.7150 C   0  0  0  0  0  2  0  0  0  0  0  0
  184.6930  176.3510  135.7500 C   0  0  0  0  0  2  0  0  0  0  0  0
  186.1440  176.7880  135.7590 C   0  0  0  0  0  2  0  0  0  0  0  0
  187.0590  175.6630  135.2770 C   0  0  0  0  0  2  0  0  0  0  0  0
  187.3300  174.6460  136.3800 C   0  0  0  0  0  2  0  0  0  0  0  0
  189.6150  174.0470  137.0440 C   0  0  2  0  0  3  0  0  0  0  0  0
  190.9540  173.6610  136.4560 C   0  0  0  0  0  1  0  0  0  0  0  0
  188.7930  172.9050  137.0960 O   0  0  0  0  0  0  0  0  0  0  0  0
  188.5480  173.8070  136.0470 C   0  0  1  0  0  3  0  0  0  0  0  0
  2  3  1  0  0  0  0
  2  6  1  0  0  0  0
  3  5  2  0  0  0  0
  4  7  1  0  0  0  0
  4  8  2  0  0  0  0
  5 10  1  0  0  0  0
  6  9  1  0  0  0  0
  7  2  2  0  0  0  0
  8  3  1  0  0  0  0
  9 10  1  0  0  0  0
  9  1  2  0  0  0  0
 11  8  1  0  0  0  0
 12  7  1  0  0  0  0
 13 21  1  1  0  0  0
 13 12  1  0  0  0  0
 15 19  1  0  0  0  0
 16 13  1  1  0  0  0
 17 16  1  0  0  0  0
 18 17  1  0  0  0  0
 19 16  1  0  0  0  0
 19 14  2  0  0  0  0
 20 18  1  0  0  0  0
 20 15  2  0  0  0  0
 21 22  1  0  0  0  0
 22 25  1  0  0  0  0
 24 25  1  0  0  0  0
 25 23  1  0  0  0  0
 26  4  1  0  0  0  0
 27 26  1  0  0  0  0
 28 27  2  0  0  0  0
 29 28  1  0  0  0  0
 30 28  1  0  0  0  0
 31 30  1  0  0  0  0
 32 31  1  0  0  0  0
 33 34  1  0  0  0  0
 33 32  1  0  0  0  0
 35 34  1  0  0  0  0
 35 36  1  0  0  0  0
 37 38  1  6  0  0  0
 37 39  1  0  0  0  0
 40 36  1  1  0  0  0
 40 37  1  0  0  0  0
 40 39  1  0  0  0  0
M  END
>  <MODEL>
2

>  <REMARK>
 VINA RESULT:      -7.6      1.387      1.885
  Name = 
  16 active torsions:
  status: ('A' for Active; 'I' for Inactive)
    1  A    between atoms: C_3  and  C_12
    2  A    between atoms: C_3  and  C_34
    3  A    between atoms: C_4  and  C_14
    4  A    between atoms: C_4  and  C_17
    5  A    between atoms: C_5  and  C_20
    6  A    between atoms: C_7  and  C_23
    7  A    between atoms: C_10  and  C_20
    8  A    between atoms: C_11  and  C_19
    9  A    between atoms: C_11  and  C_22
   10  A    between atoms: C_11  and  C_31
   11  A    between atoms: C_12  and  C_14
   12  A    between atoms: C_22  and  N_35
   13  A    between atoms: C_23  and  C_38
   14  A    between atoms: C_24  and  C_31
   15  A    between atoms: C_34  and  C_38
   16  A    between atoms: N_35  and  C_40
                            x       y       z     vdW  Elec       q    Type
                         _______ _______ _______ _____ _____    ______ ____

>  <TORSDO>
F 16

$$$$
=
 OpenBabel11042411433D

 40 43  0  0  1  0  0  0  0  0999 V2000
  188.0310  177.2950  148.2830 N   0  0  0  0  0  2  0  0  0  0  0  0
  186.8910  177.8660  144.8990 C   0  0  0  0  0  0  0  0  0  0  0  0
  185.7310  178.6670  145.2380 C   0  0  0  0  0  0  0  0  0  0  0  0
  185.5120  178.0020  143.1090 C   0  0  0  0  0  0  0  0  0  0  0  0
  185.5140  179.1850  146.4410 C   0  0  0  0  0  3  0  0  0  0  0  0
  187.9550  177.5220  145.8840 C   0  0  0  0  0  2  0  0  0  0  0  0
  186.7870  177.4890  143.6340 C   0  0  0  0  0  0  0  0  0  0  0  0
  184.8950  178.7010  144.0610 C   0  0  0  0  0  0  0  0  0  0  0  0
  187.4700  177.8520  147.2770 C   0  0  0  0  0  0  0  0  0  0  0  0
  186.5730  179.0510  147.5110 C   0  0  0  0  0  2  0  0  0  0  0  0
  183.6760  179.2850  143.9500 F   0  0  0  0  0  0  0  0  0  0  0  0
  187.7470  176.6120  142.8920 C   0  0  0  0  0  2  0  0  0  0  0  0
  188.6890  177.4220  141.9930 C   0  0  2  0  0  3  0  0  0  0  0  0
  190.3160  175.1270  142.8290 O   0  0  0  0  0  0  0  0  0  0  0  0
  191.2450  176.3310  144.6190 C   0  0  0  0  0  3  0  0  0  0  0  0
  190.0940  177.5290  142.6210 C   0  0  1  0  0  3  0  0  0  0  0  0
  190.1570  178.7320  143.5790 C   0  0  0  0  0  2  0  0  0  0  0  0
  191.4840  178.7640  144.3310 C   0  0  0  0  0  2  0  0  0  0  0  0
  190.5150  176.2580  143.3420 C   0  0  0  0  0  0  0  0  0  0  0  0
  191.6690  177.4990  145.1030 C   0  0  0  0  0  3  0  0  0  0  0  0
  188.0820  178.7990  141.7600 C   0  0  0  0  0  2  0  0  0  0  0  0
  188.4160  179.2560  140.4150 N   0  0  0  0  0  2  0  0  0  0  0  0
  189.6650  177.8930  138.9480 O   0  0  0  0  0  1  0  0  0  0  0  0
  187.4750  178.3590  138.4510 O   0  0  0  0  0  1  0  0  0  0  0  0
  188.3950  178.1290  139.4790 C   0  0  0  0  0  3  0  0  0  0  0  0
  184.9920  177.7550  141.7320 C   0  0  0  0  0  2  0  0  0  0  0  0
  184.7730  179.0440  141.0070 C   0  0  0  0  0  3  0  0  0  0  0  0
  184.3830  179.0980  139.7350 C   0  0  0  0  0  0  0  0  0  0  0  0
  184.1760  180.3390  139.1420 O   0  0  0  0  0  1  0  0  0  0  0  0
  184.1550  177.8570  138.9280 C   0  0  0  0  0  2  0  0  0  0  0  0
  182.6980  177.4400  139.0050 C   0  0  0  0  0  2  0  0  0  0  0  0
  182.6160  175.9340  138.9760 C   0  0  0  0  0  2  0  0  0  0  0  0
  181.5770  175.5100  137.9540 C   0  0  0  0  0  2  0  0  0  0  0  0
  180.2210  176.0680  138.3360 C   0  0  0  0  0  2  0  0  0  0  0  0
  179.6960  175.4080  139.6110 C   0  0  0  0  0  2  0  0  0  0  0  0
  178.9750  176.4080  140.5070 C   0  0  0  0  0  2  0  0  0  0  0  0
  179.6550  178.6210  141.3210 C   0  0  2  0  0  3  0  0  0  0  0  0
  180.8850  179.4140  141.6980 C   0  0  0  0  0  1  0  0  0  0  0  0
  179.2820  177.8110  142.4110 O   0  0  0  0  0  0  0  0  0  0  0  0
  179.9660  177.1740  141.3610 C   0  0  1  0  0  3  0  0  0  0  0  0
  2  3  1  0  0  0  0
  2  6  1  0  0  0  0
  3  5  2  0  0  0  0
  4  7  1  0  0  0  0
  4  8  2  0  0  0  0
  5 10  1  0  0  0  0
  6  9  1  0  0  0  0
  7  2  2  0  0  0  0
  8  3  1  0  0  0  0
  9 10  1  0  0  0  0
  9  1  2  0  0  0  0
 11  8  1  0  0  0  0
 12  7  1  0  0  0  0
 13 21  1  1  0  0  0
 13 12  1  0  0  0  0
 14 19  2  0  0  0  0
 15 20  2  0  0  0  0
 16 13  1  1  0  0  0
 16 19  1  0  0  0  0
 16 17  1  0  0  0  0
 17 18  1  0  0  0  0
 18 20  1  0  0  0  0
 19 15  1  0  0  0  0
 22 21  1  0  0  0  0
 23 25  1  0  0  0  0
 24 25  1  0  0  0  0
 25 22  1  0  0  0  0
 26  4  1  0  0  0  0
 27 26  1  0  0  0  0
 28 27  2  0  0  0  0
 29 28  1  0  0  0  0
 30 31  1  0  0  0  0
 30 28  1  0  0  0  0
 32 31  1  0  0  0  0
 33 34  1  0  0  0  0
 33 32  1  0  0  0  0
 34 35  1  0  0  0  0
 35 36  1  0  0  0  0
 37 40  1  0  0  0  0
 37 38  1  1  0  0  0
 37 39  1  0  0  0  0
 40 36  1  6  0  0  0
 40 39  1  0  0  0  0
M  END
>  <MODEL>
3

>  <REMARK>
 VINA RESULT:      -7.6      2.549      4.598
  Name = 
  16 active torsions:
  status: ('A' for Active; 'I' for Inactive)
    1  A    between atoms: C_3  and  C_12
    2  A    between atoms: C_3  and  C_34
    3  A    between atoms: C_4  and  C_14
    4  A    between atoms: C_4  and  C_17
    5  A    between atoms: C_5  and  C_20
    6  A    between atoms: C_7  and  C_23
    7  A    between atoms: C_10  and  C_20
    8  A    between atoms: C_11  and  C_19
    9  A    between atoms: C_11  and  C_22
   10  A    between atoms: C_11  and  C_31
   11  A    between atoms: C_12  and  C_14
   12  A    between atoms: C_22  and  N_35
   13  A    between atoms: C_23  and  C_38
   14  A    between atoms: C_24  and  C_31
   15  A    between atoms: C_34  and  C_38
   16  A    between atoms: N_35  and  C_40
                            x       y       z     vdW  Elec       q    Type
                         _______ _______ _______ _____ _____    ______ ____

>  <TORSDO>
F 16

$$$$
=
 OpenBabel11042411433D

 40 43  0  0  1  0  0  0  0  0999 V2000
  187.9970  177.1890  148.1320 N   0  0  0  0  0  2  0  0  0  0  0  0
  186.7990  177.8900  144.7940 C   0  0  0  0  0  0  0  0  0  0  0  0
  185.5720  178.5580  145.1850 C   0  0  0  0  0  0  0  0  0  0  0  0
  185.4070  178.0270  143.0130 C   0  0  0  0  0  0  0  0  0  0  0  0
  185.3130  178.9690  146.4200 C   0  0  0  0  0  3  0  0  0  0  0  0
  187.8930  177.5750  145.7560 C   0  0  0  0  0  2  0  0  0  0  0  0
  186.7250  177.5950  143.5050 C   0  0  0  0  0  0  0  0  0  0  0  0
  184.7320  178.5980  144.0110 C   0  0  0  0  0  0  0  0  0  0  0  0
  187.3840  177.7620  147.1670 C   0  0  0  0  0  0  0  0  0  0  0  0
  186.3840  178.8560  147.4820 C   0  0  0  0  0  2  0  0  0  0  0  0
  183.4660  179.0760  143.9370 F   0  0  0  0  0  0  0  0  0  0  0  0
  187.7570  176.8620  142.7060 C   0  0  0  0  0  2  0  0  0  0  0  0
  188.5900  177.8100  141.8350 C   0  0  2  0  0  3  0  0  0  0  0  0
  190.5820  176.0580  140.5820 O   0  0  0  0  0  0  0  0  0  0  0  0
  190.3910  177.1730  138.5230 C   0  0  0  0  0  3  0  0  0  0  0  0
  188.5600  177.3710  140.3560 C   0  0  1  0  0  3  0  0  0  0  0  0
  188.0920  178.5350  139.4660 C   0  0  0  0  0  2  0  0  0  0  0  0
  188.2070  178.1740  137.9880 C   0  0  0  0  0  2  0  0  0  0  0  0
  189.9020  176.8430  139.8720 C   0  0  0  0  0  0  0  0  0  0  0  0
  189.6200  177.8240  137.6520 C   0  0  0  0  0  3  0  0  0  0  0  0
  190.0150  177.8460  142.3710 C   0  0  0  0  0  2  0  0  0  0  0  0
  190.1370  176.9180  143.4910 N   0  0  0  0  0  2  0  0  0  0  0  0
  191.8820  175.5740  144.3380 O   0  0  0  0  0  1  0  0  0  0  0  0
  191.7190  177.7570  145.0210 O   0  0  0  0  0  1  0  0  0  0  0  0
  191.5250  176.8690  143.9570 C   0  0  0  0  0  3  0  0  0  0  0  0
  184.9070  177.8300  141.6210 C   0  0  0  0  0  2  0  0  0  0  0  0
  184.7810  179.1410  140.9120 C   0  0  0  0  0  3  0  0  0  0  0  0
  184.5390  179.2330  139.6060 C   0  0  0  0  0  0  0  0  0  0  0  0
  184.4090  180.4910  139.0280 O   0  0  0  0  0  1  0  0  0  0  0  0
  184.3960  178.0160  138.7440 C   0  0  0  0  0  2  0  0  0  0  0  0
  182.9440  177.8220  138.3450 C   0  0  0  0  0  2  0  0  0  0  0  0
  182.3610  176.6890  139.1530 C   0  0  0  0  0  2  0  0  0  0  0  0
  180.8470  176.7300  139.0490 C   0  0  0  0  0  2  0  0  0  0  0  0
  180.3950  178.1180  138.6420 C   0  0  0  0  0  2  0  0  0  0  0  0
  179.4760  178.7270  139.7000 C   0  0  0  0  0  2  0  0  0  0  0  0
  180.2570  179.5410  140.7250 C   0  0  0  0  0  2  0  0  0  0  0  0
  180.2000  179.3640  143.1720 C   0  0  2  0  0  3  0  0  0  0  0  0
  179.2510  179.0820  144.3140 C   0  0  0  0  0  1  0  0  0  0  0  0
  180.0690  180.7140  142.7930 O   0  0  0  0  0  0  0  0  0  0  0  0
  179.4290  179.7670  141.9740 C   0  0  1  0  0  3  0  0  0  0  0  0
  2  3  1  0  0  0  0
  2  6  1  0  0  0  0
  3  5  2  0  0  0  0
  4  7  1  0  0  0  0
  4  8  2  0  0  0  0
  5 10  1  0  0  0  0
  6  9  1  0  0  0  0
  7  2  2  0  0  0  0
  8  3  1  0  0  0  0
  9 10  1  0  0  0  0
  9  1  2  0  0  0  0
 11  8  1  0  0  0  0
 12  7  1  0  0  0  0
 13 21  1  1  0  0  0
 13 12  1  0  0  0  0
 15 19  1  0  0  0  0
 16 13  1  1  0  0  0
 17 16  1  0  0  0  0
 18 17  1  0  0  0  0
 19 16  1  0  0  0  0
 19 14  2  0  0  0  0
 20 18  1  0  0  0  0
 20 15  2  0  0  0  0
 21 22  1  0  0  0  0
 22 25  1  0  0  0  0
 25 23  1  0  0  0  0
 25 24  1  0  0  0  0
 26  4  1  0  0  0  0
 27 26  1  0  0  0  0
 28 27  2  0  0  0  0
 29 28  1  0  0  0  0
 30 28  1  0  0  0  0
 31 30  1  0  0  0  0
 31 32  1  0  0  0  0
 33 32  1  0  0  0  0
 34 33  1  0  0  0  0
 34 35  1  0  0  0  0
 35 36  1  0  0  0  0
 37 38  1  1  0  0  0
 39 37  1  0  0  0  0
 40 36  1  6  0  0  0
 40 39  1  0  0  0  0
 40 37  1  0  0  0  0
M  END
>  <MODEL>
4

>  <REMARK>
 VINA RESULT:      -7.6      2.177      4.081
  Name = 
  16 active torsions:
  status: ('A' for Active; 'I' for Inactive)
    1  A    between atoms: C_3  and  C_12
    2  A    between atoms: C_3  and  C_34
    3  A    between atoms: C_4  and  C_14
    4  A    between atoms: C_4  and  C_17
    5  A    between atoms: C_5  and  C_20
    6  A    between atoms: C_7  and  C_23
    7  A    between atoms: C_10  and  C_20
    8  A    between atoms: C_11  and  C_19
    9  A    between atoms: C_11  and  C_22
   10  A    between atoms: C_11  and  C_31
   11  A    between atoms: C_12  and  C_14
   12  A    between atoms: C_22  and  N_35
   13  A    between atoms: C_23  and  C_38
   14  A    between atoms: C_24  and  C_31
   15  A    between atoms: C_34  and  C_38
   16  A    between atoms: N_35  and  C_40
                            x       y       z     vdW  Elec       q    Type
                         _______ _______ _______ _____ _____    ______ ____

>  <TORSDO>
F 16

$$$$
=
 OpenBabel11042411433D

 40 43  0  0  1  0  0  0  0  0999 V2000
  193.9300  177.4200  140.0510 N   0  0  0  0  0  2  0  0  0  0  0  0
  190.5320  177.5890  141.2750 C   0  0  0  0  0  0  0  0  0  0  0  0
  189.8760  177.3840  139.9980 C   0  0  0  0  0  0  0  0  0  0  0  0
  188.3520  178.1770  141.4380 C   0  0  0  0  0  0  0  0  0  0  0  0
  190.4980  176.9630  138.9030 C   0  0  0  0  0  2  0  0  0  0  0  0
  191.9910  177.3670  141.4810 C   0  0  0  0  0  2  0  0  0  0  0  0
  189.6350  178.0320  142.1420 C   0  0  2  0  0  3  0  0  0  0  0  0
  188.5000  177.7890  140.1710 C   0  0  0  0  0  0  0  0  0  0  0  0
  192.6680  177.2260  140.1380 C   0  0  0  0  0  0  0  0  0  0  0  0
  191.9510  176.5530  138.9860 C   0  0  0  0  0  2  0  0  0  0  0  0
  187.5400  177.8250  139.2150 F   0  0  0  0  0  0  0  0  0  0  0  0
  189.8970  178.4150  143.5660 C   0  0  0  0  0  2  0  0  0  0  0  0
  190.0980  177.1880  144.4630 C   0  0  2  0  0  3  0  0  0  0  0  0
  187.5010  175.9950  143.7960 O   0  0  0  0  0  0  0  0  0  0  0  0
  186.3670  177.4370  145.2630 C   0  0  0  0  0  3  0  0  0  0  0  0
  188.9270  177.0320  145.4560 C   0  0  1  0  0  3  0  0  0  0  0  0
  188.8400  178.2650  146.3720 C   0  0  0  0  0  2  0  0  0  0  0  0
  187.5960  178.2060  147.2530 C   0  0  0  0  0  2  0  0  0  0  0  0
  187.5940  176.7960  144.7610 C   0  0  0  0  0  0  0  0  0  0  0  0
  186.3680  178.1250  146.4050 C   0  0  0  0  0  3  0  0  0  0  0  0
  191.4260  177.3260  145.1950 C   0  0  0  0  0  2  0  0  0  0  0  0
  191.9060  176.0040  145.5860 N   0  0  0  0  0  2  0  0  0  0  0  0
  191.7030  177.1280  147.6520 O   0  0  0  0  0  1  0  0  0  0  0  0
  193.1850  175.3870  147.4640 O   0  0  0  0  0  1  0  0  0  0  0  0
  191.9490  175.8940  147.0460 C   0  0  0  0  0  3  0  0  0  0  0  0
  187.0940  178.6990  142.0490 C   0  0  0  0  0  2  0  0  0  0  0  0
  186.0820  179.0130  140.9940 C   0  0  0  0  0  3  0  0  0  0  0  0
  184.7750  178.8290  141.1720 C   0  0  0  0  0  0  0  0  0  0  0  0
  183.8970  179.1720  140.1500 O   0  0  0  0  0  1  0  0  0  0  0  0
  184.2250  178.2700  142.4490 C   0  0  0  0  0  2  0  0  0  0  0  0
  183.9500  179.3880  143.4370 C   0  0  0  0  0  2  0  0  0  0  0  0
  182.7710  179.0040  144.2970 C   0  0  0  0  0  2  0  0  0  0  0  0
  181.6140  178.5960  143.4040 C   0  0  0  0  0  2  0  0  0  0  0  0
  180.3010  178.9880  144.0500 C   0  0  0  0  0  2  0  0  0  0  0  0
  179.2340  179.2730  142.9940 C   0  0  0  0  0  2  0  0  0  0  0  0
  179.5780  180.5020  142.1610 C   0  0  0  0  0  2  0  0  0  0  0  0
  179.3820  181.3520  139.8680 C   0  0  2  0  0  3  0  0  0  0  0  0
  178.9310  180.9320  138.4870 C   0  0  0  0  0  1  0  0  0  0  0  0
  180.6890  180.8770  140.0850 O   0  0  0  0  0  0  0  0  0  0  0  0
  179.6490  180.1490  140.6890 C   0  0  1  0  0  3  0  0  0  0  0  0
  1  9  2  0  0  0  0
  2  6  1  0  0  0  0
  2  7  1  0  0  0  0
  3  8  1  0  0  0  0
  3  2  2  0  0  0  0
  4 26  1  0  0  0  0
  4  7  1  0  0  0  0
  5 10  1  0  0  0  0
  5  3  1  0  0  0  0
  7 12  1  6  0  0  0
  8  4  2  0  0  0  0
  9  6  1  0  0  0  0
 10  9  1  0  0  0  0
 11  8  1  0  0  0  0
 13 12  1  1  0  0  0
 13 21  1  0  0  0  0
 14 19  2  0  0  0  0
 15 20  2  0  0  0  0
 16 13  1  6  0  0  0
 16 17  1  0  0  0  0
 17 18  1  0  0  0  0
 19 15  1  0  0  0  0
 19 16  1  0  0  0  0
 20 18  1  0  0  0  0
 21 22  1  0  0  0  0
 22 25  1  0  0  0  0
 25 24  1  0  0  0  0
 25 23  1  0  0  0  0
 27 28  2  0  0  0  0
 27 26  1  0  0  0  0
 28 30  1  0  0  0  0
 29 28  1  0  0  0  0
 30 31  1  0  0  0  0
 31 32  1  0  0  0  0
 33 34  1  0  0  0  0
 33 32  1  0  0  0  0
 35 34  1  0  0  0  0
 36 35  1  0  0  0  0
 37 38  1  6  0  0  0
 37 39  1  0  0  0  0
 37 40  1  0  0  0  0
 39 40  1  0  0  0  0
 40 36  1  1  0  0  0
M  END
>  <MODEL>
5

>  <REMARK>
 VINA RESULT:      -7.5      3.474      6.907
  Name = 
  16 active torsions:
  status: ('A' for Active; 'I' for Inactive)
    1  A    between atoms: C_3  and  C_12
    2  A    between atoms: C_3  and  C_34
    3  A    between atoms: C_4  and  C_14
    4  A    between atoms: C_4  and  C_17
    5  A    between atoms: C_5  and  C_20
    6  A    between atoms: C_7  and  C_23
    7  A    between atoms: C_10  and  C_20
    8  A    between atoms: C_11  and  C_19
    9  A    between atoms: C_11  and  C_22
   10  A    between atoms: C_11  and  C_31
   11  A    between atoms: C_12  and  C_14
   12  A    between atoms: C_22  and  N_35
   13  A    between atoms: C_23  and  C_38
   14  A    between atoms: C_24  and  C_31
   15  A    between atoms: C_34  and  C_38
   16  A    between atoms: N_35  and  C_40
                            x       y       z     vdW  Elec       q    Type
                         _______ _______ _______ _____ _____    ______ ____

>  <TORSDO>
F 16

$$$$
=
 OpenBabel11042411433D

 40 43  0  0  1  0  0  0  0  0999 V2000
  188.1980  177.3750  148.3700 N   0  0  0  0  0  2  0  0  0  0  0  0
  186.8740  177.9630  145.0580 C   0  0  0  0  0  0  0  0  0  0  0  0
  185.6460  178.6150  145.4730 C   0  0  0  0  0  0  0  0  0  0  0  0
  185.4200  178.0240  143.3230 C   0  0  0  0  0  0  0  0  0  0  0  0
  185.4200  179.0520  146.7060 C   0  0  0  0  0  3  0  0  0  0  0  0
  188.0060  177.6970  145.9890 C   0  0  0  0  0  2  0  0  0  0  0  0
  186.7630  177.6330  143.7810 C   0  0  0  0  0  0  0  0  0  0  0  0
  184.7670  178.6070  144.3280 C   0  0  0  0  0  0  0  0  0  0  0  0
  187.5410  177.9090  147.4120 C   0  0  0  0  0  0  0  0  0  0  0  0
  186.5280  178.9890  147.7330 C   0  0  0  0  0  2  0  0  0  0  0  0
  183.4880  179.0560  144.2860 F   0  0  0  0  0  0  0  0  0  0  0  0
  187.7840  176.9010  142.9650 C   0  0  0  0  0  2  0  0  0  0  0  0
  188.6340  177.8550  142.1180 C   0  0  2  0  0  3  0  0  0  0  0  0
  190.5640  176.0030  140.9120 O   0  0  0  0  0  0  0  0  0  0  0  0
  190.5050  177.1450  138.8610 C   0  0  0  0  0  3  0  0  0  0  0  0
  188.6290  177.4310  140.6350 C   0  0  1  0  0  3  0  0  0  0  0  0
  188.2570  178.6280  139.7420 C   0  0  0  0  0  2  0  0  0  0  0  0
  188.4000  178.2740  138.2650 C   0  0  0  0  0  2  0  0  0  0  0  0
  189.9540  176.8310  140.1900 C   0  0  0  0  0  0  0  0  0  0  0  0
  189.8020  177.8460  137.9720 C   0  0  0  0  0  3  0  0  0  0  0  0
  190.0500  177.8810  142.6800 C   0  0  0  0  0  2  0  0  0  0  0  0
  190.1390  176.9700  143.8160 N   0  0  0  0  0  2  0  0  0  0  0  0
  191.9330  175.4450  143.9780 O   0  0  0  0  0  1  0  0  0  0  0  0
  191.7480  177.1230  145.5300 O   0  0  0  0  0  1  0  0  0  0  0  0
  191.5400  176.7680  144.1920 C   0  0  0  0  0  3  0  0  0  0  0  0
  184.8770  177.7800  141.9540 C   0  0  0  0  0  2  0  0  0  0  0  0
  184.9610  179.0200  141.1220 C   0  0  0  0  0  3  0  0  0  0  0  0
  184.4600  179.0950  139.8900 C   0  0  0  0  0  0  0  0  0  0  0  0
  184.5560  180.2940  139.1920 O   0  0  0  0  0  1  0  0  0  0  0  0
  183.7900  177.9240  139.2400 C   0  0  0  0  0  2  0  0  0  0  0  0
  182.2910  178.1520  139.1640 C   0  0  0  0  0  2  0  0  0  0  0  0
  181.6090  177.2690  140.1800 C   0  0  0  0  0  2  0  0  0  0  0  0
  180.1780  177.0180  139.7420 C   0  0  0  0  0  2  0  0  0  0  0  0
  180.1630  176.1400  138.5070 C   0  0  0  0  0  2  0  0  0  0  0  0
  181.0820  174.9310  138.6830 C   0  0  0  0  0  2  0  0  0  0  0  0
  181.9790  174.7240  137.4680 C   0  0  0  0  0  2  0  0  0  0  0  0
  184.1080  173.6290  136.9320 C   0  0  2  0  0  3  0  0  0  0  0  0
  185.3150  173.0030  137.5940 C   0  0  0  0  0  1  0  0  0  0  0  0
  184.2760  175.0260  136.9040 O   0  0  0  0  0  0  0  0  0  0  0  0
  183.4180  174.5170  137.8940 C   0  0  1  0  0  3  0  0  0  0  0  0
  2  3  1  0  0  0  0
  2  6  1  0  0  0  0
  3  5  2  0  0  0  0
  4  7  1  0  0  0  0
  4  8  2  0  0  0  0
  5 10  1  0  0  0  0
  6  9  1  0  0  0  0
  7  2  2  0  0  0  0
  8  3  1  0  0  0  0
  9 10  1  0  0  0  0
  9  1  2  0  0  0  0
 11  8  1  0  0  0  0
 12  7  1  0  0  0  0
 13 21  1  1  0  0  0
 13 12  1  0  0  0  0
 15 19  1  0  0  0  0
 16 13  1  1  0  0  0
 17 16  1  0  0  0  0
 18 17  1  0  0  0  0
 19 16  1  0  0  0  0
 19 14  2  0  0  0  0
 20 18  1  0  0  0  0
 20 15  2  0  0  0  0
 21 22  1  0  0  0  0
 22 25  1  0  0  0  0
 23 25  1  0  0  0  0
 25 24  1  0  0  0  0
 26  4  1  0  0  0  0
 27 26  1  0  0  0  0
 28 27  2  0  0  0  0
 29 28  1  0  0  0  0
 30 28  1  0  0  0  0
 31 30  1  0  0  0  0
 31 32  1  0  0  0  0
 33 32  1  0  0  0  0
 34 35  1  0  0  0  0
 34 33  1  0  0  0  0
 36 35  1  0  0  0  0
 37 38  1  1  0  0  0
 37 40  1  0  0  0  0
 39 37  1  0  0  0  0
 39 40  1  0  0  0  0
 40 36  1  6  0  0  0
M  END
>  <MODEL>
6

>  <REMARK>
 VINA RESULT:      -7.5      1.456      2.142
  Name = 
  16 active torsions:
  status: ('A' for Active; 'I' for Inactive)
    1  A    between atoms: C_3  and  C_12
    2  A    between atoms: C_3  and  C_34
    3  A    between atoms: C_4  and  C_14
    4  A    between atoms: C_4  and  C_17
    5  A    between atoms: C_5  and  C_20
    6  A    between atoms: C_7  and  C_23
    7  A    between atoms: C_10  and  C_20
    8  A    between atoms: C_11  and  C_19
    9  A    between atoms: C_11  and  C_22
   10  A    between atoms: C_11  and  C_31
   11  A    between atoms: C_12  and  C_14
   12  A    between atoms: C_22  and  N_35
   13  A    between atoms: C_23  and  C_38
   14  A    between atoms: C_24  and  C_31
   15  A    between atoms: C_34  and  C_38
   16  A    between atoms: N_35  and  C_40
                            x       y       z     vdW  Elec       q    Type
                         _______ _______ _______ _____ _____    ______ ____

>  <TORSDO>
F 16

$$$$
=
 OpenBabel11042411433D

 40 43  0  0  1  0  0  0  0  0999 V2000
  188.2540  177.3360  148.3140 N   0  0  0  0  0  2  0  0  0  0  0  0
  186.9010  177.9570  145.0200 C   0  0  0  0  0  0  0  0  0  0  0  0
  185.6510  178.5520  145.4530 C   0  0  0  0  0  0  0  0  0  0  0  0
  185.4420  178.0070  143.2890 C   0  0  0  0  0  0  0  0  0  0  0  0
  185.4110  178.9500  146.6970 C   0  0  0  0  0  3  0  0  0  0  0  0
  188.0440  177.7100  145.9420 C   0  0  0  0  0  2  0  0  0  0  0  0
  186.7990  177.6550  143.7350 C   0  0  0  0  0  0  0  0  0  0  0  0
  184.7700  178.5400  144.3090 C   0  0  0  0  0  0  0  0  0  0  0  0
  187.5750  177.8700  147.3710 C   0  0  0  0  0  0  0  0  0  0  0  0
  186.5240  178.9030  147.7200 C   0  0  0  0  0  2  0  0  0  0  0  0
  183.4750  178.9420  144.2800 F   0  0  0  0  0  0  0  0  0  0  0  0
  187.8450  176.9820  142.9000 C   0  0  0  0  0  2  0  0  0  0  0  0
  188.5820  177.9750  141.9930 C   0  0  2  0  0  3  0  0  0  0  0  0
  190.5380  176.0750  140.9080 O   0  0  0  0  0  0  0  0  0  0  0  0
  190.5050  177.1160  138.8020 C   0  0  0  0  0  3  0  0  0  0  0  0
  188.6010  177.4790  140.5320 C   0  0  1  0  0  3  0  0  0  0  0  0
  188.2380  178.6280  139.5760 C   0  0  0  0  0  2  0  0  0  0  0  0
  188.4050  178.2040  138.1210 C   0  0  0  0  0  2  0  0  0  0  0  0
  189.9350  176.8650  140.1360 C   0  0  0  0  0  0  0  0  0  0  0  0
  189.8120  177.7690  137.8700 C   0  0  0  0  0  3  0  0  0  0  0  0
  189.9940  178.1730  142.5270 C   0  0  0  0  0  2  0  0  0  0  0  0
  190.1900  177.3360  143.7070 N   0  0  0  0  0  2  0  0  0  0  0  0
  192.0490  178.7600  143.9980 O   0  0  0  0  0  1  0  0  0  0  0  0
  191.6820  177.0750  145.5100 O   0  0  0  0  0  1  0  0  0  0  0  0
  191.0770  178.0070  144.6600 C   0  0  0  0  0  3  0  0  0  0  0  0
  184.9050  177.7780  141.9150 C   0  0  0  0  0  2  0  0  0  0  0  0
  184.9880  179.0270  141.0980 C   0  0  0  0  0  3  0  0  0  0  0  0
  184.4550  179.1290  139.8820 C   0  0  0  0  0  0  0  0  0  0  0  0
  184.5530  180.3350  139.1980 O   0  0  0  0  0  1  0  0  0  0  0  0
  183.7470  177.9790  139.2340 C   0  0  0  0  0  2  0  0  0  0  0  0
  182.2520  178.0770  139.4780 C   0  0  0  0  0  2  0  0  0  0  0  0
  181.6150  178.8130  138.3250 C   0  0  0  0  0  2  0  0  0  0  0  0
  180.9980  180.1030  138.8360 C   0  0  0  0  0  2  0  0  0  0  0  0
  180.2130  180.7740  137.7270 C   0  0  0  0  0  2  0  0  0  0  0  0
  180.8160  180.4550  136.3590 C   0  0  0  0  0  2  0  0  0  0  0  0
  180.3570  181.4460  135.2960 C   0  0  0  0  0  2  0  0  0  0  0  0
  180.8710  183.8380  135.4850 C   0  0  2  0  0  3  0  0  0  0  0  0
  180.8280  184.9810  136.4730 C   0  0  0  0  0  1  0  0  0  0  0  0
  179.5910  183.6730  134.9220 O   0  0  0  0  0  0  0  0  0  0  0  0
  179.9550  182.7630  135.9300 C   0  0  1  0  0  3  0  0  0  0  0  0
  2  3  1  0  0  0  0
  2  6  1  0  0  0  0
  3  5  2  0  0  0  0
  4  7  1  0  0  0  0
  4  8  2  0  0  0  0
  5 10  1  0  0  0  0
  6  9  1  0  0  0  0
  7  2  2  0  0  0  0
  8  3  1  0  0  0  0
  9 10  1  0  0  0  0
  9  1  2  0  0  0  0
 11  8  1  0  0  0  0
 12  7  1  0  0  0  0
 13 21  1  1  0  0  0
 13 12  1  0  0  0  0
 15 19  1  0  0  0  0
 16 13  1  1  0  0  0
 17 16  1  0  0  0  0
 18 17  1  0  0  0  0
 19 16  1  0  0  0  0
 19 14  2  0  0  0  0
 20 18  1  0  0  0  0
 20 15  2  0  0  0  0
 21 22  1  0  0  0  0
 22 25  1  0  0  0  0
 23 25  1  0  0  0  0
 25 24  1  0  0  0  0
 26  4  1  0  0  0  0
 27 26  1  0  0  0  0
 28 27  2  0  0  0  0
 29 28  1  0  0  0  0
 30 31  1  0  0  0  0
 30 28  1  0  0  0  0
 32 33  1  0  0  0  0
 32 31  1  0  0  0  0
 34 33  1  0  0  0  0
 35 34  1  0  0  0  0
 36 35  1  0  0  0  0
 37 40  1  0  0  0  0
 37 38  1  1  0  0  0
 39 37  1  0  0  0  0
 39 40  1  0  0  0  0
 40 36  1  6  0  0  0
M  END
>  <MODEL>
7

>  <REMARK>
 VINA RESULT:      -7.3      2.723      4.622
  Name = 
  16 active torsions:
  status: ('A' for Active; 'I' for Inactive)
    1  A    between atoms: C_3  and  C_12
    2  A    between atoms: C_3  and  C_34
    3  A    between atoms: C_4  and  C_14
    4  A    between atoms: C_4  and  C_17
    5  A    between atoms: C_5  and  C_20
    6  A    between atoms: C_7  and  C_23
    7  A    between atoms: C_10  and  C_20
    8  A    between atoms: C_11  and  C_19
    9  A    between atoms: C_11  and  C_22
   10  A    between atoms: C_11  and  C_31
   11  A    between atoms: C_12  and  C_14
   12  A    between atoms: C_22  and  N_35
   13  A    between atoms: C_23  and  C_38
   14  A    between atoms: C_24  and  C_31
   15  A    between atoms: C_34  and  C_38
   16  A    between atoms: N_35  and  C_40
                            x       y       z     vdW  Elec       q    Type
                         _______ _______ _______ _____ _____    ______ ____

>  <TORSDO>
F 16

$$$$
=
 OpenBabel11042411433D

 40 43  0  0  1  0  0  0  0  0999 V2000
  186.2840  177.8780  146.6750 N   0  0  0  0  0  2  0  0  0  0  0  0
  185.6150  178.7890  143.2410 C   0  0  0  0  0  0  0  0  0  0  0  0
  184.1720  178.6590  143.3030 C   0  0  0  0  0  0  0  0  0  0  0  0
  184.7660  178.7190  141.1420 C   0  0  0  0  0  0  0  0  0  0  0  0
  183.4860  178.5490  144.4340 C   0  0  0  0  0  3  0  0  0  0  0  0
  186.4820  178.7890  144.4520 C   0  0  0  0  0  2  0  0  0  0  0  0
  185.9770  178.8530  141.9690 C   0  0  0  0  0  0  0  0  0  0  0  0
  183.7030  178.6080  141.9380 C   0  0  0  0  0  0  0  0  0  0  0  0
  185.6750  178.3250  145.6430 C   0  0  0  0  0  0  0  0  0  0  0  0
  184.2060  178.6790  145.7570 C   0  0  0  0  0  2  0  0  0  0  0  0
  182.4230  178.4250  141.5280 F   0  0  0  0  0  0  0  0  0  0  0  0
  187.3800  178.9450  141.4520 C   0  0  0  0  0  2  0  0  0  0  0  0
  188.0300  177.5650  141.3050 C   0  0  2  0  0  3  0  0  0  0  0  0
  188.3120  175.3600  143.2210 O   0  0  0  0  0  0  0  0  0  0  0  0
  189.3630  176.7520  144.7950 C   0  0  0  0  0  3  0  0  0  0  0  0
  189.2110  177.4040  142.2840 C   0  0  1  0  0  3  0  0  0  0  0  0
  189.6380  178.7770  142.8320 C   0  0  0  0  0  2  0  0  0  0  0  0
  190.6960  178.6270  143.9200 C   0  0  0  0  0  2  0  0  0  0  0  0
  188.9010  176.4520  143.4290 C   0  0  0  0  0  0  0  0  0  0  0  0
  190.1720  177.7840  145.0360 C   0  0  0  0  0  3  0  0  0  0  0  0
  188.4810  177.3860  139.8620 C   0  0  0  0  0  2  0  0  0  0  0  0
  188.2660  178.6280  139.1270 N   0  0  0  0  0  2  0  0  0  0  0  0
  189.9000  177.6820  137.7100 O   0  0  0  0  0  1  0  0  0  0  0  0
  189.0540  179.7560  137.2160 O   0  0  0  0  0  1  0  0  0  0  0  0
  188.7670  178.4980  137.7570 C   0  0  0  0  0  3  0  0  0  0  0  0
  184.7470  178.6890  139.6500 C   0  0  0  0  0  2  0  0  0  0  0  0
  183.8460  179.7530  139.1100 C   0  0  0  0  0  3  0  0  0  0  0  0
  182.7270  179.4780  138.4420 C   0  0  0  0  0  0  0  0  0  0  0  0
  181.9290  180.5260  137.9960 O   0  0  0  0  0  1  0  0  0  0  0  0
  182.3020  178.0690  138.1650 C   0  0  0  0  0  2  0  0  0  0  0  0
  180.8940  177.8330  138.6800 C   0  0  0  0  0  2  0  0  0  0  0  0
  180.7830  176.4130  139.1750 C   0  0  0  0  0  2  0  0  0  0  0  0
  182.0340  175.6480  138.7830 C   0  0  0  0  0  2  0  0  0  0  0  0
  181.6690  174.4950  137.8700 C   0  0  0  0  0  2  0  0  0  0  0  0
  182.8550  174.0930  136.9940 C   0  0  0  0  0  2  0  0  0  0  0  0
  184.1790  174.5540  137.5910 C   0  0  0  0  0  2  0  0  0  0  0  0
  185.5230  176.5030  136.9440 C   0  0  2  0  0  3  0  0  0  0  0  0
  185.9360  177.3030  135.7300 C   0  0  0  0  0  1  0  0  0  0  0  0
  186.3530  175.3700  137.0490 O   0  0  0  0  0  0  0  0  0  0  0  0
  185.0670  175.1590  136.5220 C   0  0  1  0  0  3  0  0  0  0  0  0
  2  3  1  0  0  0  0
  2  6  1  0  0  0  0
  3  5  2  0  0  0  0
  4  8  2  0  0  0  0
  4  7  1  0  0  0  0
  5 10  1  0  0  0  0
  6  9  1  0  0  0  0
  7  2  2  0  0  0  0
  8  3  1  0  0  0  0
  9 10  1  0  0  0  0
  9  1  2  0  0  0  0
 11  8  1  0  0  0  0
 12  7  1  0  0  0  0
 13 21  1  6  0  0  0
 13 12  1  0  0  0  0
 14 19  2  0  0  0  0
 15 20  2  0  0  0  0
 16 13  1  6  0  0  0
 16 17  1  0  0  0  0
 16 19  1  0  0  0  0
 17 18  1  0  0  0  0
 18 20  1  0  0  0  0
 19 15  1  0  0  0  0
 22 21  1  0  0  0  0
 23 25  1  0  0  0  0
 24 25  1  0  0  0  0
 25 22  1  0  0  0  0
 26  4  1  0  0  0  0
 27 26  1  0  0  0  0
 28 27  2  0  0  0  0
 29 28  1  0  0  0  0
 30 28  1  0  0  0  0
 30 31  1  0  0  0  0
 31 32  1  0  0  0  0
 33 32  1  0  0  0  0
 34 33  1  0  0  0  0
 35 36  1  0  0  0  0
 35 34  1  0  0  0  0
 37 38  1  6  0  0  0
 37 39  1  0  0  0  0
 40 37  1  0  0  0  0
 40 39  1  0  0  0  0
 40 36  1  1  0  0  0
M  END
>  <MODEL>
8

>  <REMARK>
 VINA RESULT:      -7.3      2.204      4.045
  Name = 
  16 active torsions:
  status: ('A' for Active; 'I' for Inactive)
    1  A    between atoms: C_3  and  C_12
    2  A    between atoms: C_3  and  C_34
    3  A    between atoms: C_4  and  C_14
    4  A    between atoms: C_4  and  C_17
    5  A    between atoms: C_5  and  C_20
    6  A    between atoms: C_7  and  C_23
    7  A    between atoms: C_10  and  C_20
    8  A    between atoms: C_11  and  C_19
    9  A    between atoms: C_11  and  C_22
   10  A    between atoms: C_11  and  C_31
   11  A    between atoms: C_12  and  C_14
   12  A    between atoms: C_22  and  N_35
   13  A    between atoms: C_23  and  C_38
   14  A    between atoms: C_24  and  C_31
   15  A    between atoms: C_34  and  C_38
   16  A    between atoms: N_35  and  C_40
                            x       y       z     vdW  Elec       q    Type
                         _______ _______ _______ _____ _____    ______ ____

>  <TORSDO>
F 16

$$$$
=
 OpenBabel11042411433D

 40 43  0  0  1  0  0  0  0  0999 V2000
  187.9620  177.2310  148.2450 N   0  0  0  0  0  2  0  0  0  0  0  0
  186.8980  177.8330  144.8430 C   0  0  0  0  0  0  0  0  0  0  0  0
  185.7410  178.6460  145.1620 C   0  0  0  0  0  0  0  0  0  0  0  0
  185.5580  177.9950  143.0250 C   0  0  0  0  0  0  0  0  0  0  0  0
  185.5050  179.1600  146.3640 C   0  0  0  0  0  3  0  0  0  0  0  0
  187.9380  177.4710  145.8470 C   0  0  0  0  0  2  0  0  0  0  0  0
  186.8160  177.4650  143.5740 C   0  0  0  0  0  0  0  0  0  0  0  0
  184.9290  178.6960  143.9690 C   0  0  0  0  0  0  0  0  0  0  0  0
  187.4280  177.8000  147.2320 C   0  0  0  0  0  0  0  0  0  0  0  0
  186.5400  179.0080  147.4540 C   0  0  0  0  0  2  0  0  0  0  0  0
  183.7200  179.2950  143.8360 F   0  0  0  0  0  0  0  0  0  0  0  0
  187.7800  176.5800  142.8460 C   0  0  0  0  0  2  0  0  0  0  0  0
  188.7510  177.3840  141.9720 C   0  0  2  0  0  3  0  0  0  0  0  0
  190.3200  175.0660  142.8540 O   0  0  0  0  0  0  0  0  0  0  0  0
  191.2300  176.2630  144.6590 C   0  0  0  0  0  3  0  0  0  0  0  0
  190.1430  177.4710  142.6310 C   0  0  1  0  0  3  0  0  0  0  0  0
  190.2060  178.6770  143.5840 C   0  0  0  0  0  2  0  0  0  0  0  0
  191.5160  178.6900  144.3640 C   0  0  0  0  0  2  0  0  0  0  0  0
  190.5270  176.1960  143.3660 C   0  0  0  0  0  0  0  0  0  0  0  0
  191.6630  177.4260  145.1460 C   0  0  0  0  0  3  0  0  0  0  0  0
  188.1660  178.7700  141.7350 C   0  0  0  0  0  2  0  0  0  0  0  0
  188.3270  179.1320  140.3300 N   0  0  0  0  0  2  0  0  0  0  0  0
  189.8080  178.2480  138.7190 O   0  0  0  0  0  1  0  0  0  0  0  0
  187.6460  177.4860  138.7910 O   0  0  0  0  0  1  0  0  0  0  0  0
  188.7230  177.9580  139.5490 C   0  0  0  0  0  3  0  0  0  0  0  0
  185.0630  177.7610  141.6360 C   0  0  0  0  0  2  0  0  0  0  0  0
  184.9010  179.0560  140.9060 C   0  0  0  0  0  3  0  0  0  0  0  0
  184.3480  179.1360  139.6970 C   0  0  0  0  0  0  0  0  0  0  0  0
  184.2090  180.3820  139.0960 O   0  0  0  0  0  1  0  0  0  0  0  0
  183.8650  177.9180  138.9700 C   0  0  0  0  0  2  0  0  0  0  0  0
  184.4780  177.8570  137.5830 C   0  0  0  0  0  2  0  0  0  0  0  0
  184.0810  176.5580  136.9280 C   0  0  0  0  0  2  0  0  0  0  0  0
  183.4620  175.6430  137.9680 C   0  0  0  0  0  2  0  0  0  0  0  0
  184.0480  174.2510  137.8450 C   0  0  0  0  0  2  0  0  0  0  0  0
  184.8430  174.1040  136.5480 C   0  0  0  0  0  2  0  0  0  0  0  0
  186.2980  173.7350  136.8170 C   0  0  0  0  0  2  0  0  0  0  0  0
  188.5020  174.8020  136.6640 C   0  0  2  0  0  3  0  0  0  0  0  0
  189.1910  176.0110  136.0750 C   0  0  0  0  0  1  0  0  0  0  0  0
  188.3860  173.8120  135.6690 O   0  0  0  0  0  0  0  0  0  0  0  0
  187.2290  174.5580  135.9500 C   0  0  1  0  0  3  0  0  0  0  0  0
  2  3  1  0  0  0  0
  2  6  1  0  0  0  0
  3  5  2  0  0  0  0
  4  7  1  0  0  0  0
  4  8  2  0  0  0  0
  5 10  1  0  0  0  0
  6  9  1  0  0  0  0
  7  2  2  0  0  0  0
  8  3  1  0  0  0  0
  9 10  1  0  0  0  0
  9  1  2  0  0  0  0
 11  8  1  0  0  0  0
 12  7  1  0  0  0  0
 13 21  1  1  0  0  0
 13 12  1  0  0  0  0
 14 19  2  0  0  0  0
 15 20  2  0  0  0  0
 16 13  1  1  0  0  0
 16 19  1  0  0  0  0
 16 17  1  0  0  0  0
 17 18  1  0  0  0  0
 18 20  1  0  0  0  0
 19 15  1  0  0  0  0
 22 21  1  0  0  0  0
 23 25  1  0  0  0  0
 24 25  1  0  0  0  0
 25 22  1  0  0  0  0
 26  4  1  0  0  0  0
 27 26  1  0  0  0  0
 28 27  2  0  0  0  0
 29 28  1  0  0  0  0
 30 28  1  0  0  0  0
 31 30  1  0  0  0  0
 32 31  1  0  0  0  0
 32 33  1  0  0  0  0
 34 33  1  0  0  0  0
 35 36  1  0  0  0  0
 35 34  1  0  0  0  0
 37 38  1  6  0  0  0
 39 40  1  0  0  0  0
 39 37  1  0  0  0  0
 40 37  1  0  0  0  0
 40 36  1  1  0  0  0
M  END
>  <MODEL>
9

>  <REMARK>
 VINA RESULT:      -7.2      1.611      3.419
  Name = 
  16 active torsions:
  status: ('A' for Active; 'I' for Inactive)
    1  A    between atoms: C_3  and  C_12
    2  A    between atoms: C_3  and  C_34
    3  A    between atoms: C_4  and  C_14
    4  A    between atoms: C_4  and  C_17
    5  A    between atoms: C_5  and  C_20
    6  A    between atoms: C_7  and  C_23
    7  A    between atoms: C_10  and  C_20
    8  A    between atoms: C_11  and  C_19
    9  A    between atoms: C_11  and  C_22
   10  A    between atoms: C_11  and  C_31
   11  A    between atoms: C_12  and  C_14
   12  A    between atoms: C_22  and  N_35
   13  A    between atoms: C_23  and  C_38
   14  A    between atoms: C_24  and  C_31
   15  A    between atoms: C_34  and  C_38
   16  A    between atoms: N_35  and  C_40
                            x       y       z     vdW  Elec       q    Type
                         _______ _______ _______ _____ _____    ______ ____

>  <TORSDO>
F 16

$$$$
