=
 OpenBabel11032421133D

 50 55  0  0  1  0  0  0  0  0999 V2000
  188.9160  176.9780  137.4050 C   0  0  1  0  0  3  0  0  0  0  0  0
  191.9650  177.1860  140.2110 F   0  0  0  0  0  0  0  0  0  0  0  0
  188.5040  178.0060  139.7590 C   0  0  0  0  0  0  0  0  0  0  0  0
  190.5250  175.9580  138.8930 N   0  0  0  0  0  0  0  0  0  0  0  0
  190.8560  177.2710  139.3940 C   0  0  1  0  0  3  0  0  0  0  0  0
  187.9360  177.5100  138.4470 C   0  0  0  0  0  2  0  0  0  0  0  0
  189.7430  177.8480  140.1450 N   0  0  0  0  0  0  0  0  0  0  0  0
  189.6500  175.8020  137.9640 C   0  0  0  0  0  3  0  0  0  0  0  0
  188.2060  176.5800  136.2350 O   0  0  0  0  0  0  0  0  0  0  0  0
  188.3890  174.1770  135.8040 C   0  0  0  0  0  3  0  0  0  0  0  0
  187.6100  175.3190  136.0910 C   0  0  0  0  0  0  0  0  0  0  0  0
  185.5940  173.9370  136.0920 C   0  0  0  0  0  3  0  0  0  0  0  0
  186.2090  175.1980  136.2430 C   0  0  0  0  0  0  0  0  0  0  0  0
  186.3980  172.8370  135.8060 C   0  0  0  0  0  0  0  0  0  0  0  0
  187.7450  172.9500  135.6700 C   0  0  0  0  0  0  0  0  0  0  0  0
  185.9840  171.5370  135.6270 O   0  0  0  0  0  0  0  0  0  0  0  0
  187.1050  170.6980  135.3540 C   0  0  0  0  0  3  0  0  0  0  0  0
  188.3400  171.6250  135.3720 C   0  0  0  0  0  3  0  0  0  0  0  0
  184.0110  176.4730  136.6030 C   0  0  0  0  0  0  0  0  0  0  0  0
  185.4390  176.3730  136.5410 N   0  0  0  0  0  2  0  0  0  0  0  0
  183.2820  175.4580  136.4320 O   0  0  0  0  0  0  0  0  0  0  0  0
  183.3990  177.7930  136.9680 C   0  0  1  0  0  3  0  0  0  0  0  0
  179.6550  178.2910  135.2710 C   0  0  0  0  0  1  0  0  0  0  0  0
  180.9740  178.1190  135.8710 C   0  0  0  0  0  0  0  0  0  0  0  0
  182.0640  177.9750  136.3670 C   0  0  0  0  0  0  0  0  0  0  0  0
  182.9620  179.4400  138.8780 C   0  0  0  0  0  2  0  0  0  0  0  0
  183.4750  178.0660  138.4870 C   0  0  0  0  0  0  0  0  0  0  0  0
  184.4390  179.1180  139.0210 C   0  0  0  0  0  2  0  0  0  0  0  0
  181.5130  176.6560  139.2230 C   0  0  1  0  0  3  0  0  0  0  0  0
  181.2520  175.3800  139.7170 O   0  0  0  0  0  1  0  0  0  0  0  0
  181.9030  177.5590  140.3700 C   0  0  0  0  0  2  0  0  0  0  0  0
  182.9780  176.9910  139.4610 C   0  0  2  0  0  3  0  0  0  0  0  0
  187.6010  178.6480  140.6060 O   0  0  0  0  0  0  0  0  0  0  0  0
  187.8190  178.7860  142.0050 C   0  0  0  0  0  2  0  0  0  0  0  0
  184.1010  178.3480  143.1180 C   0  0  0  0  0  2  0  0  0  0  0  0
  184.9040  178.6140  145.5400 C   0  0  0  0  0  0  0  0  0  0  0  0
  184.6990  178.7580  146.9070 O   0  0  0  0  0  1  0  0  0  0  0  0
  186.0620  178.2800  145.0680 C   0  0  0  0  0  0  0  0  0  0  0  0
  186.6740  178.1380  142.7630 C   0  0  1  0  0  3  0  0  0  0  0  0
  187.0160  178.0000  144.2380 C   0  0  0  0  0  0  0  0  0  0  0  0
  185.3730  178.9400  142.4740 C   0  0  0  0  0  2  0  0  0  0  0  0
  183.8130  178.8940  144.5420 C   0  0  0  0  0  2  0  0  0  0  0  0
  188.2250  177.2610  144.7290 C   0  0  1  0  0  3  0  0  0  0  0  0
  188.8030  176.3810  143.6640 C   0  0  0  0  0  0  0  0  0  0  0  0
  190.1190  176.5600  143.2640 O   0  0  0  0  0  1  0  0  0  0  0  0
  188.1190  175.4580  143.1540 O   0  0  0  0  0  0  0  0  0  0  0  0
  189.1890  178.1490  145.2130 O   0  0  0  0  0  0  0  0  0  0  0  0
  189.1320  178.0240  146.6030 C   0  0  0  0  0  2  0  0  0  0  0  0
  191.1400  176.6840  147.1170 C   0  0  0  0  0  1  0  0  0  0  0  0
  189.6320  176.6550  147.0020 C   0  0  0  0  0  2  0  0  0  0  0  0
  1  9  1  6  0  0  0
  1  8  1  0  0  0  0
  1  6  1  0  0  0  0
  3  7  2  0  0  0  0
  3 33  1  0  0  0  0
  4  5  1  0  0  0  0
  5  7  1  0  0  0  0
  5  2  1  1  0  0  0
  6  3  1  0  0  0  0
  8  4  2  0  0  0  0
 10 11  1  0  0  0  0
 11  9  1  0  0  0  0
 11 13  2  0  0  0  0
 12 13  1  0  0  0  0
 13 20  1  0  0  0  0
 14 12  2  0  0  0  0
 15 10  2  0  0  0  0
 15 14  1  0  0  0  0
 16 14  1  0  0  0  0
 17 18  2  0  0  0  0
 17 16  1  0  0  0  0
 18 15  1  0  0  0  0
 19 22  1  0  0  0  0
 20 19  1  0  0  0  0
 21 19  2  0  0  0  0
 22 25  1  1  0  0  0
 22 27  1  0  0  0  0
 23 24  1  0  0  0  0
 24 25  3  0  0  0  0
 26 28  1  0  0  0  0
 27 26  1  0  0  0  0
 27 28  1  0  0  0  0
 29 32  1  0  0  0  0
 29 30  1  1  0  0  0
 29 31  1  0  0  0  0
 32 27  1  6  0  0  0
 32 31  1  0  0  0  0
 33 34  1  0  0  0  0
 35 42  1  0  0  0  0
 36 37  1  0  0  0  0
 38 36  2  0  0  0  0
 39 34  1  6  0  0  0
 39 40  1  0  0  0  0
 40 43  1  0  0  0  0
 40 38  2  0  0  0  0
 41 39  1  0  0  0  0
 41 35  1  0  0  0  0
 42 36  1  0  0  0  0
 43 44  1  6  0  0  0
 43 47  1  0  0  0  0
 45 44  1  0  0  0  0
 46 44  2  0  0  0  0
 47 48  1  0  0  0  0
 48 50  1  0  0  0  0
 50 49  1  0  0  0  0
M  END
>  <MODEL>
1

>  <REMARK>
 VINA RESULT:      -8.1      0.000      0.000
  Name = 
  15 active torsions:
  status: ('A' for Active; 'I' for Inactive)
    1  A    between atoms: C_3  and  C_16
    2  A    between atoms: C_3  and  C_20
    3  A    between atoms: C_3  and  C_46
    4  A    between atoms: C_5  and  O_23
    5  A    between atoms: C_8  and  C_13
    6  A    between atoms: C_8  and  O_25
    7  A    between atoms: C_8  and  C_30
    8  A    between atoms: C_11  and  O_23
    9  A    between atoms: C_20  and  C_38
   10  A    between atoms: C_21  and  O_25
   11  A    between atoms: C_21  and  C_41
   12  A    between atoms: C_22  and  O_33
   13  A    between atoms: C_24  and  N_36
   14  A    between atoms: C_26  and  C_44
   15  A    between atoms: O_33  and  C_44
                            x       y       z     vdW  Elec       q    Type
                         _______ _______ _______ _____ _____    ______ ____

>  <TORSDO>
F 15

$$$$
=
 OpenBabel11032421133D

 50 55  0  0  1  0  0  0  0  0999 V2000
  187.0250  177.6880  138.9600 C   0  0  1  0  0  3  0  0  0  0  0  0
  188.6660  174.5500  136.7980 F   0  0  0  0  0  0  0  0  0  0  0  0
  186.1450  177.0910  136.5860 C   0  0  0  0  0  0  0  0  0  0  0  0
  188.8550  176.6210  137.7950 N   0  0  0  0  0  0  0  0  0  0  0  0
  187.9500  175.5730  137.3860 C   0  0  1  0  0  3  0  0  0  0  0  0
  186.1600  178.0510  137.7570 C   0  0  0  0  0  2  0  0  0  0  0  0
  186.9510  176.0720  136.4440 N   0  0  0  0  0  0  0  0  0  0  0  0
  188.4560  177.5920  138.5370 C   0  0  0  0  0  3  0  0  0  0  0  0
  186.8960  178.6900  139.9650 O   0  0  0  0  0  0  0  0  0  0  0  0
  184.5540  178.8720  140.6510 C   0  0  0  0  0  3  0  0  0  0  0  0
  185.9130  178.6540  140.9630 C   0  0  0  0  0  0  0  0  0  0  0  0
  185.3190  178.3590  143.3160 C   0  0  0  0  0  3  0  0  0  0  0  0
  186.2970  178.3900  142.3000 C   0  0  0  0  0  0  0  0  0  0  0  0
  183.9900  178.5820  142.9660 C   0  0  0  0  0  0  0  0  0  0  0  0
  183.6190  178.8260  141.6820 C   0  0  0  0  0  0  0  0  0  0  0  0
  182.9050  178.5910  143.8120 O   0  0  0  0  0  0  0  0  0  0  0  0
  181.7110  178.8510  143.0750 C   0  0  0  0  0  3  0  0  0  0  0  0
  182.1520  179.0220  141.6050 C   0  0  0  0  0  3  0  0  0  0  0  0
  188.2790  176.9520  143.0660 C   0  0  0  0  0  0  0  0  0  0  0  0
  187.6850  178.1660  142.5910 N   0  0  0  0  0  2  0  0  0  0  0  0
  187.5850  175.9120  143.2310 O   0  0  0  0  0  0  0  0  0  0  0  0
  189.7640  176.9130  143.2770 C   0  0  1  0  0  3  0  0  0  0  0  0
  191.8700  177.2850  139.7330 C   0  0  0  0  0  1  0  0  0  0  0  0
  191.1260  177.1510  140.9800 C   0  0  0  0  0  0  0  0  0  0  0  0
  190.5120  177.0410  142.0120 C   0  0  0  0  0  0  0  0  0  0  0  0
  190.8330  179.1580  143.8850 C   0  0  0  0  0  2  0  0  0  0  0  0
  190.2130  177.8720  144.4020 C   0  0  0  0  0  0  0  0  0  0  0  0
  191.6960  178.1460  144.6190 C   0  0  0  0  0  2  0  0  0  0  0  0
  189.7990  177.5970  146.8790 C   0  0  1  0  0  3  0  0  0  0  0  0
  189.2210  178.2910  147.9400 O   0  0  0  0  0  1  0  0  0  0  0  0
  188.7220  176.8450  146.1340 C   0  0  0  0  0  2  0  0  0  0  0  0
  189.2560  178.1490  145.5690 C   0  0  2  0  0  3  0  0  0  0  0  0
  185.2080  177.3660  135.5900 O   0  0  0  0  0  0  0  0  0  0  0  0
  184.4450  176.3520  134.9470 C   0  0  0  0  0  2  0  0  0  0  0  0
  181.2770  177.8220  136.6970 C   0  0  0  0  0  2  0  0  0  0  0  0
  181.6510  176.1150  138.5750 C   0  0  0  0  0  0  0  0  0  0  0  0
  181.3800  175.5610  139.8200 O   0  0  0  0  0  1  0  0  0  0  0  0
  182.3420  175.4710  137.6910 C   0  0  0  0  0  0  0  0  0  0  0  0
  183.0590  176.2940  135.5660 C   0  0  1  0  0  3  0  0  0  0  0  0
  182.9790  175.1830  136.6010 C   0  0  0  0  0  0  0  0  0  0  0  0
  182.6990  177.7070  136.1070 C   0  0  0  0  0  2  0  0  0  0  0  0
  181.2070  177.5070  138.2150 C   0  0  0  0  0  2  0  0  0  0  0  0
  183.2830  173.7490  136.2830 C   0  0  1  0  0  3  0  0  0  0  0  0
  184.6260  173.3410  136.8030 C   0  0  0  0  0  0  0  0  0  0  0  0
  185.6320  172.9970  135.9140 O   0  0  0  0  0  0  0  0  0  0  0  0
  184.8620  173.3430  138.0390 O   0  0  0  0  0  1  0  0  0  0  0  0
  182.2840  172.9070  136.7790 O   0  0  0  0  0  0  0  0  0  0  0  0
  181.4450  172.6580  135.6910 C   0  0  0  0  0  2  0  0  0  0  0  0
  179.6040  174.2650  135.3440 C   0  0  0  0  0  1  0  0  0  0  0  0
  180.0230  173.0040  136.0660 C   0  0  0  0  0  2  0  0  0  0  0  0
  1  9  1  1  0  0  0
  3  6  1  0  0  0  0
  4  8  2  0  0  0  0
  5  2  1  6  0  0  0
  5  4  1  0  0  0  0
  6  1  1  0  0  0  0
  7  3  2  0  0  0  0
  7  5  1  0  0  0  0
  8  1  1  0  0  0  0
  9 11  1  0  0  0  0
 10 11  2  0  0  0  0
 10 15  1  0  0  0  0
 11 13  1  0  0  0  0
 13 20  1  0  0  0  0
 13 12  2  0  0  0  0
 14 12  1  0  0  0  0
 14 16  1  0  0  0  0
 15 14  2  0  0  0  0
 17 16  1  0  0  0  0
 18 15  1  0  0  0  0
 18 17  2  0  0  0  0
 19 21  2  0  0  0  0
 19 22  1  0  0  0  0
 20 19  1  0  0  0  0
 22 25  1  6  0  0  0
 22 27  1  0  0  0  0
 23 24  1  0  0  0  0
 24 25  3  0  0  0  0
 26 27  1  0  0  0  0
 26 28  1  0  0  0  0
 27 28  1  0  0  0  0
 29 30  1  1  0  0  0
 31 29  1  0  0  0  0
 32 27  1  6  0  0  0
 32 31  1  0  0  0  0
 32 29  1  0  0  0  0
 33  3  1  0  0  0  0
 34 33  1  0  0  0  0
 35 42  1  0  0  0  0
 36 37  1  0  0  0  0
 38 36  2  0  0  0  0
 39 34  1  1  0  0  0
 39 41  1  0  0  0  0
 39 40  1  0  0  0  0
 40 38  2  0  0  0  0
 41 35  1  0  0  0  0
 42 36  1  0  0  0  0
 43 40  1  0  0  0  0
 43 47  1  1  0  0  0
 43 44  1  0  0  0  0
 44 46  1  0  0  0  0
 45 44  2  0  0  0  0
 48 50  1  0  0  0  0
 48 47  1  0  0  0  0
 49 50  1  0  0  0  0
M  END
>  <MODEL>
2

>  <REMARK>
 VINA RESULT:      -8.1      2.235      8.994
  Name = 
  15 active torsions:
  status: ('A' for Active; 'I' for Inactive)
    1  A    between atoms: C_3  and  C_16
    2  A    between atoms: C_3  and  C_20
    3  A    between atoms: C_3  and  C_46
    4  A    between atoms: C_5  and  O_23
    5  A    between atoms: C_8  and  C_13
    6  A    between atoms: C_8  and  O_25
    7  A    between atoms: C_8  and  C_30
    8  A    between atoms: C_11  and  O_23
    9  A    between atoms: C_20  and  C_38
   10  A    between atoms: C_21  and  O_25
   11  A    between atoms: C_21  and  C_41
   12  A    between atoms: C_22  and  O_33
   13  A    between atoms: C_24  and  N_36
   14  A    between atoms: C_26  and  C_44
   15  A    between atoms: O_33  and  C_44
                            x       y       z     vdW  Elec       q    Type
                         _______ _______ _______ _____ _____    ______ ____

>  <TORSDO>
F 15

$$$$
=
 OpenBabel11032421133D

 50 55  0  0  1  0  0  0  0  0999 V2000
  185.2860  178.7520  142.6030 C   0  0  1  0  0  3  0  0  0  0  0  0
  181.2770  179.7400  143.0060 F   0  0  0  0  0  0  0  0  0  0  0  0
  183.5190  177.9120  140.8880 C   0  0  0  0  0  0  0  0  0  0  0  0
  183.1720  178.6740  143.7730 N   0  0  0  0  0  0  0  0  0  0  0  0
  182.5620  179.3710  142.6660 C   0  0  1  0  0  3  0  0  0  0  0  0
  184.9340  177.8510  141.4230 C   0  0  0  0  0  2  0  0  0  0  0  0
  182.5270  178.5340  141.4680 N   0  0  0  0  0  0  0  0  0  0  0  0
  184.4270  178.3980  143.7750 C   0  0  0  0  0  3  0  0  0  0  0  0
  186.6560  178.5750  142.9510 O   0  0  0  0  0  0  0  0  0  0  0  0
  187.6160  178.5960  140.7000 C   0  0  0  0  0  3  0  0  0  0  0  0
  187.6310  178.1500  142.0390 C   0  0  0  0  0  0  0  0  0  0  0  0
  189.6290  176.8230  141.5670 C   0  0  0  0  0  3  0  0  0  0  0  0
  188.6460  177.2660  142.4770 C   0  0  0  0  0  0  0  0  0  0  0  0
  189.5760  177.2840  140.2550 C   0  0  0  0  0  0  0  0  0  0  0  0
  188.6080  178.1400  139.8360 C   0  0  0  0  0  0  0  0  0  0  0  0
  190.4410  176.9660  139.2330 O   0  0  0  0  0  0  0  0  0  0  0  0
  190.0570  177.6420  138.0370 C   0  0  0  0  0  3  0  0  0  0  0  0
  188.8000  178.4620  138.4010 C   0  0  0  0  0  3  0  0  0  0  0  0
  189.4310  177.3650  144.9180 C   0  0  0  0  0  0  0  0  0  0  0  0
  188.6440  176.8310  143.8450 N   0  0  0  0  0  2  0  0  0  0  0  0
  190.1980  178.3470  144.7320 O   0  0  0  0  0  0  0  0  0  0  0  0
  189.2540  176.7900  146.2920 C   0  0  1  0  0  3  0  0  0  0  0  0
  192.8710  175.8210  148.0590 C   0  0  0  0  0  1  0  0  0  0  0  0
  191.5960  176.1580  147.4350 C   0  0  0  0  0  0  0  0  0  0  0  0
  190.5420  176.4390  146.9210 C   0  0  0  0  0  0  0  0  0  0  0  0
  189.0530  178.5300  148.1580 C   0  0  0  0  0  2  0  0  0  0  0  0
  188.3140  177.6530  147.1630 C   0  0  0  0  0  0  0  0  0  0  0  0
  188.2000  177.3780  148.6580 C   0  0  0  0  0  2  0  0  0  0  0  0
  185.8820  178.3200  147.2880 C   0  0  1  0  0  3  0  0  0  0  0  0
  185.0620  179.4010  146.9680 O   0  0  0  0  0  1  0  0  0  0  0  0
  186.0740  177.4660  146.0570 C   0  0  0  0  0  2  0  0  0  0  0  0
  187.1720  178.4220  146.4880 C   0  0  2  0  0  3  0  0  0  0  0  0
  183.2890  177.2140  139.7030 O   0  0  0  0  0  0  0  0  0  0  0  0
  183.5960  177.7470  138.4200 C   0  0  0  0  0  2  0  0  0  0  0  0
  180.5010  176.4280  136.4360 C   0  0  0  0  0  2  0  0  0  0  0  0
  181.2490  174.0530  137.0530 C   0  0  0  0  0  0  0  0  0  0  0  0
  181.0810  172.6740  137.1110 O   0  0  0  0  0  1  0  0  0  0  0  0
  182.4080  174.5950  137.2440 C   0  0  0  0  0  0  0  0  0  0  0  0
  182.8880  176.9340  137.3510 C   0  0  1  0  0  3  0  0  0  0  0  0
  183.3400  175.4820  137.3930 C   0  0  0  0  0  0  0  0  0  0  0  0
  181.3540  177.1360  137.5110 C   0  0  0  0  0  2  0  0  0  0  0  0
  180.0880  174.9820  136.8230 C   0  0  0  0  0  2  0  0  0  0  0  0
  184.7760  175.0720  137.2530 C   0  0  1  0  0  3  0  0  0  0  0  0
  184.9220  173.5820  137.2100 C   0  0  0  0  0  0  0  0  0  0  0  0
  184.6940  172.9030  136.0230 O   0  0  0  0  0  0  0  0  0  0  0  0
  185.2850  172.9440  138.2310 O   0  0  0  0  0  1  0  0  0  0  0  0
  185.3530  175.6580  136.1230 O   0  0  0  0  0  0  0  0  0  0  0  0
  186.5430  176.2300  136.5790 C   0  0  0  0  0  2  0  0  0  0  0  0
  188.2150  176.8660  134.8790 C   0  0  0  0  0  1  0  0  0  0  0  0
  187.6920  175.7330  135.7330 C   0  0  0  0  0  2  0  0  0  0  0  0
  1  9  1  1  0  0  0
  1  8  1  0  0  0  0
  3  6  1  0  0  0  0
  3  7  2  0  0  0  0
  4  8  2  0  0  0  0
  5  2  1  1  0  0  0
  5  4  1  0  0  0  0
  6  1  1  0  0  0  0
  7  5  1  0  0  0  0
 10 11  1  0  0  0  0
 11 13  2  0  0  0  0
 11  9  1  0  0  0  0
 12 13  1  0  0  0  0
 13 20  1  0  0  0  0
 14 12  2  0  0  0  0
 15 14  1  0  0  0  0
 15 10  2  0  0  0  0
 16 14  1  0  0  0  0
 17 18  2  0  0  0  0
 17 16  1  0  0  0  0
 18 15  1  0  0  0  0
 19 22  1  0  0  0  0
 20 19  1  0  0  0  0
 21 19  2  0  0  0  0
 22 25  1  1  0  0  0
 22 27  1  0  0  0  0
 24 23  1  0  0  0  0
 25 24  3  0  0  0  0
 26 28  1  0  0  0  0
 27 26  1  0  0  0  0
 27 28  1  0  0  0  0
 29 30  1  6  0  0  0
 31 29  1  0  0  0  0
 32 31  1  6  0  0  0
 32 27  1  0  0  0  0
 32 29  1  0  0  0  0
 33  3  1  0  0  0  0
 34 33  1  0  0  0  0
 35 42  1  0  0  0  0
 35 41  1  0  0  0  0
 36 37  1  0  0  0  0
 36 38  2  0  0  0  0
 38 40  2  0  0  0  0
 39 40  1  0  0  0  0
 39 41  1  0  0  0  0
 39 34  1  1  0  0  0
 42 36  1  0  0  0  0
 43 47  1  6  0  0  0
 43 40  1  0  0  0  0
 44 43  1  0  0  0  0
 44 46  1  0  0  0  0
 45 44  2  0  0  0  0
 47 48  1  0  0  0  0
 49 50  1  0  0  0  0
 50 48  1  0  0  0  0
M  END
>  <MODEL>
3

>  <REMARK>
 VINA RESULT:      -8.0      2.820      9.289
  Name = 
  15 active torsions:
  status: ('A' for Active; 'I' for Inactive)
    1  A    between atoms: C_3  and  C_16
    2  A    between atoms: C_3  and  C_20
    3  A    between atoms: C_3  and  C_46
    4  A    between atoms: C_5  and  O_23
    5  A    between atoms: C_8  and  C_13
    6  A    between atoms: C_8  and  O_25
    7  A    between atoms: C_8  and  C_30
    8  A    between atoms: C_11  and  O_23
    9  A    between atoms: C_20  and  C_38
   10  A    between atoms: C_21  and  O_25
   11  A    between atoms: C_21  and  C_41
   12  A    between atoms: C_22  and  O_33
   13  A    between atoms: C_24  and  N_36
   14  A    between atoms: C_26  and  C_44
   15  A    between atoms: O_33  and  C_44
                            x       y       z     vdW  Elec       q    Type
                         _______ _______ _______ _____ _____    ______ ____

>  <TORSDO>
F 15

$$$$
=
 OpenBabel11032421133D

 50 55  0  0  1  0  0  0  0  0999 V2000
  188.1030  177.8390  139.4210 C   0  0  1  0  0  3  0  0  0  0  0  0
  190.7020  175.2710  137.4550 F   0  0  0  0  0  0  0  0  0  0  0  0
  187.3620  176.5630  137.2780 C   0  0  0  0  0  0  0  0  0  0  0  0
  190.1140  177.3870  138.1580 N   0  0  0  0  0  0  0  0  0  0  0  0
  189.6810  176.0190  138.0060 C   0  0  1  0  0  3  0  0  0  0  0  0
  187.0770  177.6330  138.3100 C   0  0  0  0  0  2  0  0  0  0  0  0
  188.4980  175.9280  137.1530 N   0  0  0  0  0  0  0  0  0  0  0  0
  189.4140  178.2370  138.8220 C   0  0  0  0  0  3  0  0  0  0  0  0
  187.6560  178.8640  140.3040 O   0  0  0  0  0  0  0  0  0  0  0  0
  185.2500  179.0160  140.7230 C   0  0  0  0  0  3  0  0  0  0  0  0
  186.5570  178.7150  141.1610 C   0  0  0  0  0  0  0  0  0  0  0  0
  185.6750  178.1010  143.3560 C   0  0  0  0  0  3  0  0  0  0  0  0
  186.7700  178.2480  142.4800 C   0  0  0  0  0  0  0  0  0  0  0  0
  184.4020  178.4120  142.8860 C   0  0  0  0  0  0  0  0  0  0  0  0
  184.1950  178.8510  141.6170 C   0  0  0  0  0  0  0  0  0  0  0  0
  183.2210  178.3310  143.5870 O   0  0  0  0  0  0  0  0  0  0  0  0
  182.1300  178.7310  142.7590 C   0  0  0  0  0  3  0  0  0  0  0  0
  182.7500  179.1000  141.3940 C   0  0  0  0  0  3  0  0  0  0  0  0
  188.6170  176.6590  143.2870 C   0  0  0  0  0  0  0  0  0  0  0  0
  188.1090  177.9420  142.8990 N   0  0  0  0  0  2  0  0  0  0  0  0
  187.8860  175.6330  143.2420 O   0  0  0  0  0  0  0  0  0  0  0  0
  190.0650  176.5430  143.6610 C   0  0  1  0  0  3  0  0  0  0  0  0
  192.5660  177.5830  140.5300 C   0  0  0  0  0  1  0  0  0  0  0  0
  191.6880  177.2140  141.6350 C   0  0  0  0  0  0  0  0  0  0  0  0
  190.9610  176.9110  142.5480 C   0  0  0  0  0  0  0  0  0  0  0  0
  191.5860  178.1490  144.9490 C   0  0  0  0  0  2  0  0  0  0  0  0
  190.3720  177.2390  145.0060 C   0  0  0  0  0  0  0  0  0  0  0  0
  191.6360  176.8770  145.7760 C   0  0  0  0  0  2  0  0  0  0  0  0
  189.3100  177.5890  147.2710 C   0  0  1  0  0  3  0  0  0  0  0  0
  188.6250  178.5740  147.9780 O   0  0  0  0  0  1  0  0  0  0  0  0
  188.3320  176.8330  146.4020 C   0  0  0  0  0  2  0  0  0  0  0  0
  189.2240  177.8950  145.7830 C   0  0  2  0  0  3  0  0  0  0  0  0
  186.3220  176.2830  136.3910 O   0  0  0  0  0  0  0  0  0  0  0  0
  184.9600  176.5670  136.6850 C   0  0  0  0  0  2  0  0  0  0  0  0
  184.7450  172.8320  137.8040 C   0  0  0  0  0  2  0  0  0  0  0  0
  182.5020  172.6980  136.5660 C   0  0  0  0  0  0  0  0  0  0  0  0
  181.4000  172.0160  136.0640 O   0  0  0  0  0  1  0  0  0  0  0  0
  182.4960  173.9870  136.6830 C   0  0  0  0  0  0  0  0  0  0  0  0
  184.3260  175.3650  137.3620 C   0  0  1  0  0  3  0  0  0  0  0  0
  182.8800  175.2010  136.9220 C   0  0  0  0  0  0  0  0  0  0  0  0
  185.2240  174.1220  137.1050 C   0  0  0  0  0  2  0  0  0  0  0  0
  183.7720  171.9830  136.9440 C   0  0  0  0  0  2  0  0  0  0  0  0
  181.8500  176.2800  137.0850 C   0  0  1  0  0  3  0  0  0  0  0  0
  181.2600  176.6810  135.7690 C   0  0  0  0  0  0  0  0  0  0  0  0
  179.9220  176.4270  135.5100 O   0  0  0  0  0  1  0  0  0  0  0  0
  181.9560  177.2810  134.9100 O   0  0  0  0  0  0  0  0  0  0  0  0
  180.8490  175.8810  137.9750 O   0  0  0  0  0  0  0  0  0  0  0  0
  180.7010  176.9530  138.8580 C   0  0  0  0  0  2  0  0  0  0  0  0
  179.7350  175.0360  140.0770 C   0  0  0  0  0  1  0  0  0  0  0  0
  180.3100  176.4280  140.2200 C   0  0  0  0  0  2  0  0  0  0  0  0
  1  9  1  1  0  0  0
  3  6  1  0  0  0  0
  4  8  2  0  0  0  0
  5  2  1  6  0  0  0
  5  4  1  0  0  0  0
  6  1  1  0  0  0  0
  7  3  2  0  0  0  0
  7  5  1  0  0  0  0
  8  1  1  0  0  0  0
  9 11  1  0  0  0  0
 10 11  2  0  0  0  0
 10 15  1  0  0  0  0
 11 13  1  0  0  0  0
 13 20  1  0  0  0  0
 13 12  2  0  0  0  0
 14 12  1  0  0  0  0
 14 16  1  0  0  0  0
 15 14  2  0  0  0  0
 17 16  1  0  0  0  0
 18 15  1  0  0  0  0
 18 17  2  0  0  0  0
 19 22  1  0  0  0  0
 20 19  1  0  0  0  0
 21 19  2  0  0  0  0
 22 25  1  6  0  0  0
 22 27  1  0  0  0  0
 23 24  1  0  0  0  0
 24 25  3  0  0  0  0
 26 27  1  0  0  0  0
 26 28  1  0  0  0  0
 27 28  1  0  0  0  0
 29 30  1  1  0  0  0
 31 29  1  0  0  0  0
 32 27  1  6  0  0  0
 32 31  1  0  0  0  0
 32 29  1  0  0  0  0
 33 34  1  0  0  0  0
 33  3  1  0  0  0  0
 36 38  2  0  0  0  0
 36 42  1  0  0  0  0
 37 36  1  0  0  0  0
 38 40  2  0  0  0  0
 39 34  1  6  0  0  0
 40 43  1  0  0  0  0
 40 39  1  0  0  0  0
 41 39  1  0  0  0  0
 41 35  1  0  0  0  0
 42 35  1  0  0  0  0
 43 44  1  6  0  0  0
 43 47  1  0  0  0  0
 45 44  1  0  0  0  0
 46 44  2  0  0  0  0
 47 48  1  0  0  0  0
 48 50  1  0  0  0  0
 49 50  1  0  0  0  0
M  END
>  <MODEL>
4

>  <REMARK>
 VINA RESULT:      -7.9      2.155      9.137
  Name = 
  15 active torsions:
  status: ('A' for Active; 'I' for Inactive)
    1  A    between atoms: C_3  and  C_16
    2  A    between atoms: C_3  and  C_20
    3  A    between atoms: C_3  and  C_46
    4  A    between atoms: C_5  and  O_23
    5  A    between atoms: C_8  and  C_13
    6  A    between atoms: C_8  and  O_25
    7  A    between atoms: C_8  and  C_30
    8  A    between atoms: C_11  and  O_23
    9  A    between atoms: C_20  and  C_38
   10  A    between atoms: C_21  and  O_25
   11  A    between atoms: C_21  and  C_41
   12  A    between atoms: C_22  and  O_33
   13  A    between atoms: C_24  and  N_36
   14  A    between atoms: C_26  and  C_44
   15  A    between atoms: O_33  and  C_44
                            x       y       z     vdW  Elec       q    Type
                         _______ _______ _______ _____ _____    ______ ____

>  <TORSDO>
F 15

$$$$
=
 OpenBabel11032421133D

 50 55  0  0  1  0  0  0  0  0999 V2000
  187.3830  178.6670  142.3560 C   0  0  1  0  0  3  0  0  0  0  0  0
  183.7390  178.5890  144.3370 F   0  0  0  0  0  0  0  0  0  0  0  0
  185.1720  179.2570  141.1180 C   0  0  0  0  0  0  0  0  0  0  0  0
  185.6100  177.5130  143.5260 N   0  0  0  0  0  0  0  0  0  0  0  0
  184.8510  178.7410  143.5340 C   0  0  1  0  0  3  0  0  0  0  0  0
  186.6530  178.9530  141.0460 C   0  0  0  0  0  2  0  0  0  0  0  0
  184.4300  179.1130  142.1850 N   0  0  0  0  0  0  0  0  0  0  0  0
  186.7860  177.4610  143.0070 C   0  0  0  0  0  3  0  0  0  0  0  0
  188.7630  178.4270  142.0940 O   0  0  0  0  0  0  0  0  0  0  0  0
  189.2750  177.7920  144.4020 C   0  0  0  0  0  3  0  0  0  0  0  0
  189.6410  177.8840  143.0420 C   0  0  0  0  0  0  0  0  0  0  0  0
  191.8070  176.8770  143.5640 C   0  0  0  0  0  3  0  0  0  0  0  0
  190.9090  177.4180  142.6190 C   0  0  0  0  0  0  0  0  0  0  0  0
  191.4070  176.8070  144.8950 C   0  0  0  0  0  0  0  0  0  0  0  0
  190.1870  177.2450  145.3010 C   0  0  0  0  0  0  0  0  0  0  0  0
  192.1390  176.3140  145.9510 O   0  0  0  0  0  0  0  0  0  0  0  0
  191.3840  176.4100  147.1580 C   0  0  0  0  0  3  0  0  0  0  0  0
  190.0340  177.0460  146.7620 C   0  0  0  0  0  3  0  0  0  0  0  0
  190.7710  176.6940  140.1610 C   0  0  0  0  0  0  0  0  0  0  0  0
  191.2560  177.5170  141.2300 N   0  0  0  0  0  2  0  0  0  0  0  0
  189.9160  175.7940  140.3740 O   0  0  0  0  0  0  0  0  0  0  0  0
  191.2340  176.9850  138.7640 C   0  0  1  0  0  3  0  0  0  0  0  0
  194.6920  174.9190  137.8090 C   0  0  0  0  0  1  0  0  0  0  0  0
  193.4730  175.6480  138.1410 C   0  0  0  0  0  0  0  0  0  0  0  0
  192.4650  176.2500  138.4180 C   0  0  0  0  0  0  0  0  0  0  0  0
  189.7670  175.4230  137.3650 C   0  0  0  0  0  2  0  0  0  0  0  0
  190.0860  176.8600  137.7380 C   0  0  0  0  0  0  0  0  0  0  0  0
  190.3780  176.3520  136.3310 C   0  0  0  0  0  2  0  0  0  0  0  0
  188.7780  178.9160  137.0750 C   0  0  1  0  0  3  0  0  0  0  0  0
  187.4560  179.3180  136.8940 O   0  0  0  0  0  1  0  0  0  0  0  0
  189.1350  179.0350  138.5380 C   0  0  0  0  0  2  0  0  0  0  0  0
  188.8040  177.6730  137.9520 C   0  0  2  0  0  3  0  0  0  0  0  0
  184.5830  179.6890  139.9300 O   0  0  0  0  0  0  0  0  0  0  0  0
  184.3690  178.8290  138.8170 C   0  0  0  0  0  2  0  0  0  0  0  0
  182.3760  175.4730  138.6910 C   0  0  0  0  0  2  0  0  0  0  0  0
  180.4590  176.7730  137.5880 C   0  0  0  0  0  0  0  0  0  0  0  0
  179.2280  176.8660  136.9490 O   0  0  0  0  0  1  0  0  0  0  0  0
  181.0220  177.8140  138.1120 C   0  0  0  0  0  0  0  0  0  0  0  0
  183.1930  177.9120  139.1050 C   0  0  1  0  0  3  0  0  0  0  0  0
  181.8840  178.5750  138.7070 C   0  0  0  0  0  0  0  0  0  0  0  0
  183.4560  176.5410  138.4190 C   0  0  0  0  0  2  0  0  0  0  0  0
  181.2220  175.4770  137.6540 C   0  0  0  0  0  2  0  0  0  0  0  0
  181.4410  179.8980  139.2580 C   0  0  1  0  0  3  0  0  0  0  0  0
  181.7120  181.0140  138.2970 C   0  0  0  0  0  0  0  0  0  0  0  0
  182.6070  182.0150  138.6410 O   0  0  0  0  0  1  0  0  0  0  0  0
  181.1640  181.0330  137.1650 O   0  0  0  0  0  0  0  0  0  0  0  0
  180.0880  179.8640  139.6060 O   0  0  0  0  0  0  0  0  0  0  0  0
  180.0500  180.2310  140.9530 C   0  0  0  0  0  2  0  0  0  0  0  0
  180.8220  178.8250  142.8290 C   0  0  0  0  0  1  0  0  0  0  0  0
  179.7360  179.0150  141.7930 C   0  0  0  0  0  2  0  0  0  0  0  0
  1  9  1  6  0  0  0
  1  8  1  0  0  0  0
  3  7  2  0  0  0  0
  4  5  1  0  0  0  0
  5  2  1  1  0  0  0
  6  3  1  0  0  0  0
  6  1  1  0  0  0  0
  7  5  1  0  0  0  0
  8  4  2  0  0  0  0
  9 11  1  0  0  0  0
 10 15  1  0  0  0  0
 11 10  2  0  0  0  0
 12 14  1  0  0  0  0
 13 11  1  0  0  0  0
 13 12  2  0  0  0  0
 14 15  2  0  0  0  0
 14 16  1  0  0  0  0
 15 18  1  0  0  0  0
 16 17  1  0  0  0  0
 18 17  2  0  0  0  0
 19 21  2  0  0  0  0
 19 20  1  0  0  0  0
 20 13  1  0  0  0  0
 22 25  1  6  0  0  0
 22 19  1  0  0  0  0
 23 24  1  0  0  0  0
 24 25  3  0  0  0  0
 26 27  1  0  0  0  0
 27 22  1  0  0  0  0
 28 26  1  0  0  0  0
 28 27  1  0  0  0  0
 29 30  1  1  0  0  0
 29 32  1  0  0  0  0
 29 31  1  0  0  0  0
 32 27  1  6  0  0  0
 32 31  1  0  0  0  0
 33  3  1  0  0  0  0
 34 33  1  0  0  0  0
 36 42  1  0  0  0  0
 36 38  2  0  0  0  0
 37 36  1  0  0  0  0
 38 40  2  0  0  0  0
 39 34  1  6  0  0  0
 40 39  1  0  0  0  0
 40 43  1  0  0  0  0
 41 35  1  0  0  0  0
 41 39  1  0  0  0  0
 42 35  1  0  0  0  0
 43 44  1  6  0  0  0
 43 47  1  0  0  0  0
 44 45  1  0  0  0  0
 46 44  2  0  0  0  0
 47 48  1  0  0  0  0
 48 50  1  0  0  0  0
 50 49  1  0  0  0  0
M  END
>  <MODEL>
5

>  <REMARK>
 VINA RESULT:      -7.9      3.159      8.957
  Name = 
  15 active torsions:
  status: ('A' for Active; 'I' for Inactive)
    1  A    between atoms: C_3  and  C_16
    2  A    between atoms: C_3  and  C_20
    3  A    between atoms: C_3  and  C_46
    4  A    between atoms: C_5  and  O_23
    5  A    between atoms: C_8  and  C_13
    6  A    between atoms: C_8  and  O_25
    7  A    between atoms: C_8  and  C_30
    8  A    between atoms: C_11  and  O_23
    9  A    between atoms: C_20  and  C_38
   10  A    between atoms: C_21  and  O_25
   11  A    between atoms: C_21  and  C_41
   12  A    between atoms: C_22  and  O_33
   13  A    between atoms: C_24  and  N_36
   14  A    between atoms: C_26  and  C_44
   15  A    between atoms: O_33  and  C_44
                            x       y       z     vdW  Elec       q    Type
                         _______ _______ _______ _____ _____    ______ ____

>  <TORSDO>
F 15

$$$$
=
 OpenBabel11032421133D

 50 55  0  0  1  0  0  0  0  0999 V2000
  186.7530  178.4510  143.0550 C   0  0  1  0  0  3  0  0  0  0  0  0
  183.5900  179.3470  145.5860 F   0  0  0  0  0  0  0  0  0  0  0  0
  184.3560  178.8360  142.1200 C   0  0  0  0  0  0  0  0  0  0  0  0
  185.2210  177.8960  144.8400 N   0  0  0  0  0  0  0  0  0  0  0  0
  184.5190  179.1330  144.5880 C   0  0  1  0  0  3  0  0  0  0  0  0
  185.7810  178.3830  141.8810 C   0  0  0  0  0  2  0  0  0  0  0  0
  183.8440  179.1040  143.2930 N   0  0  0  0  0  0  0  0  0  0  0  0
  186.2630  177.5720  144.1610 C   0  0  0  0  0  3  0  0  0  0  0  0
  188.0420  178.0100  142.6380 O   0  0  0  0  0  0  0  0  0  0  0  0
  188.8150  177.4630  144.8950 C   0  0  0  0  0  3  0  0  0  0  0  0
  189.0810  177.7180  143.5330 C   0  0  0  0  0  0  0  0  0  0  0  0
  191.4680  177.3900  143.9440 C   0  0  0  0  0  3  0  0  0  0  0  0
  190.4120  177.6740  143.0530 C   0  0  0  0  0  0  0  0  0  0  0  0
  191.1630  177.1480  145.2800 C   0  0  0  0  0  0  0  0  0  0  0  0
  189.8850  177.1810  145.7400 C   0  0  0  0  0  0  0  0  0  0  0  0
  192.0510  176.8560  146.2900 O   0  0  0  0  0  0  0  0  0  0  0  0
  191.3530  176.6700  147.5190 C   0  0  0  0  0  3  0  0  0  0  0  0
  189.8590  176.8840  147.1930 C   0  0  0  0  0  3  0  0  0  0  0  0
  190.5380  176.9960  140.5810 C   0  0  0  0  0  0  0  0  0  0  0  0
  190.6560  177.9310  141.6620 N   0  0  0  0  0  2  0  0  0  0  0  0
  190.1420  175.8170  140.7850 O   0  0  0  0  0  0  0  0  0  0  0  0
  190.8060  177.4750  139.1850 C   0  0  1  0  0  3  0  0  0  0  0  0
  193.9520  175.4570  137.4050 C   0  0  0  0  0  1  0  0  0  0  0  0
  192.8460  176.1700  138.0350 C   0  0  0  0  0  0  0  0  0  0  0  0
  191.9310  176.7590  138.5550 C   0  0  0  0  0  0  0  0  0  0  0  0
  189.0780  178.9590  138.0170 C   0  0  0  0  0  2  0  0  0  0  0  0
  189.5150  177.5410  138.3390 C   0  0  0  0  0  0  0  0  0  0  0  0
  188.2370  178.1040  138.9480 C   0  0  0  0  0  2  0  0  0  0  0  0
  188.1580  175.7300  137.2160 C   0  0  1  0  0  3  0  0  0  0  0  0
  187.7780  175.3320  135.9360 O   0  0  0  0  0  1  0  0  0  0  0  0
  189.5290  175.1730  137.5200 C   0  0  0  0  0  2  0  0  0  0  0  0
  189.3820  176.6290  137.1130 C   0  0  2  0  0  3  0  0  0  0  0  0
  183.5510  178.9300  140.9850 O   0  0  0  0  0  0  0  0  0  0  0  0
  184.0760  179.1610  139.6830 C   0  0  0  0  0  2  0  0  0  0  0  0
  184.5880  176.5810  136.7970 C   0  0  0  0  0  2  0  0  0  0  0  0
  182.4970  177.5660  135.6850 C   0  0  0  0  0  0  0  0  0  0  0  0
  181.5930  177.6970  134.6380 O   0  0  0  0  0  1  0  0  0  0  0  0
  182.2140  177.9960  136.8730 C   0  0  0  0  0  0  0  0  0  0  0  0
  183.6720  178.0210  138.7650 C   0  0  1  0  0  3  0  0  0  0  0  0
  182.3200  178.2990  138.1270 C   0  0  0  0  0  0  0  0  0  0  0  0
  184.8240  177.7710  137.7510 C   0  0  0  0  0  2  0  0  0  0  0  0
  183.8650  176.9730  135.4810 C   0  0  0  0  0  2  0  0  0  0  0  0
  181.0790  178.5610  138.9290 C   0  0  1  0  0  3  0  0  0  0  0  0
  180.4830  179.8950  138.6000 C   0  0  0  0  0  0  0  0  0  0  0  0
  181.1380  181.0540  138.9850 O   0  0  0  0  0  1  0  0  0  0  0  0
  179.4110  179.9740  137.9460 O   0  0  0  0  0  0  0  0  0  0  0  0
  180.1420  177.5410  138.7430 O   0  0  0  0  0  0  0  0  0  0  0  0
  180.1860  176.7900  139.9180 C   0  0  0  0  0  2  0  0  0  0  0  0
  180.3290  174.8190  138.4390 C   0  0  0  0  0  1  0  0  0  0  0  0
  180.9190  175.4940  139.6570 C   0  0  0  0  0  2  0  0  0  0  0  0
  1  9  1  6  0  0  0
  1  8  1  0  0  0  0
  3  7  2  0  0  0  0
  5  4  1  0  0  0  0
  5  2  1  1  0  0  0
  6  3  1  0  0  0  0
  6  1  1  0  0  0  0
  7  5  1  0  0  0  0
  8  4  2  0  0  0  0
  9 11  1  0  0  0  0
 10 15  1  0  0  0  0
 11 10  2  0  0  0  0
 12 14  1  0  0  0  0
 13 11  1  0  0  0  0
 13 12  2  0  0  0  0
 14 15  2  0  0  0  0
 14 16  1  0  0  0  0
 15 18  1  0  0  0  0
 16 17  1  0  0  0  0
 18 17  2  0  0  0  0
 19 21  2  0  0  0  0
 19 20  1  0  0  0  0
 20 13  1  0  0  0  0
 22 25  1  6  0  0  0
 22 19  1  0  0  0  0
 23 24  1  0  0  0  0
 24 25  3  0  0  0  0
 26 27  1  0  0  0  0
 26 28  1  0  0  0  0
 27 28  1  0  0  0  0
 27 22  1  0  0  0  0
 29 30  1  6  0  0  0
 29 31  1  0  0  0  0
 32 29  1  0  0  0  0
 32 31  1  1  0  0  0
 32 27  1  0  0  0  0
 33  3  1  0  0  0  0
 34 33  1  0  0  0  0
 35 41  1  0  0  0  0
 36 38  2  0  0  0  0
 37 36  1  0  0  0  0
 38 40  2  0  0  0  0
 39 34  1  6  0  0  0
 40 39  1  0  0  0  0
 40 43  1  0  0  0  0
 41 39  1  0  0  0  0
 42 36  1  0  0  0  0
 42 35  1  0  0  0  0
 43 44  1  6  0  0  0
 44 45  1  0  0  0  0
 46 44  2  0  0  0  0
 47 43  1  0  0  0  0
 47 48  1  0  0  0  0
 49 50  1  0  0  0  0
 50 48  1  0  0  0  0
M  END
>  <MODEL>
6

>  <REMARK>
 VINA RESULT:      -7.8      2.839      9.235
  Name = 
  15 active torsions:
  status: ('A' for Active; 'I' for Inactive)
    1  A    between atoms: C_3  and  C_16
    2  A    between atoms: C_3  and  C_20
    3  A    between atoms: C_3  and  C_46
    4  A    between atoms: C_5  and  O_23
    5  A    between atoms: C_8  and  C_13
    6  A    between atoms: C_8  and  O_25
    7  A    between atoms: C_8  and  C_30
    8  A    between atoms: C_11  and  O_23
    9  A    between atoms: C_20  and  C_38
   10  A    between atoms: C_21  and  O_25
   11  A    between atoms: C_21  and  C_41
   12  A    between atoms: C_22  and  O_33
   13  A    between atoms: C_24  and  N_36
   14  A    between atoms: C_26  and  C_44
   15  A    between atoms: O_33  and  C_44
                            x       y       z     vdW  Elec       q    Type
                         _______ _______ _______ _____ _____    ______ ____

>  <TORSDO>
F 15

$$$$
=
 OpenBabel11032421133D

 50 55  0  0  1  0  0  0  0  0999 V2000
  185.5950  178.9950  140.3840 C   0  0  1  0  0  3  0  0  0  0  0  0
  181.5540  178.7600  141.2920 F   0  0  0  0  0  0  0  0  0  0  0  0
  183.8990  177.9790  138.6940 C   0  0  0  0  0  0  0  0  0  0  0  0
  183.7430  178.1540  141.6900 N   0  0  0  0  0  0  0  0  0  0  0  0
  182.8360  178.8190  140.7850 C   0  0  1  0  0  3  0  0  0  0  0  0
  185.3380  178.2290  139.0900 C   0  0  0  0  0  2  0  0  0  0  0  0
  182.8630  178.2030  139.4600 N   0  0  0  0  0  0  0  0  0  0  0  0
  185.0170  178.2380  141.5370 C   0  0  0  0  0  3  0  0  0  0  0  0
  186.9980  179.1520  140.5790 O   0  0  0  0  0  0  0  0  0  0  0  0
  187.9570  177.8940  138.7110 C   0  0  0  0  0  3  0  0  0  0  0  0
  187.9490  178.2540  140.0760 C   0  0  0  0  0  0  0  0  0  0  0  0
  189.8720  176.7960  140.4650 C   0  0  0  0  0  3  0  0  0  0  0  0
  188.9150  177.7080  140.9560 C   0  0  0  0  0  0  0  0  0  0  0  0
  189.8430  176.4650  139.1130 C   0  0  0  0  0  0  0  0  0  0  0  0
  188.9230  176.9960  138.2660 C   0  0  0  0  0  0  0  0  0  0  0  0
  190.6890  175.6020  138.4560 O   0  0  0  0  0  0  0  0  0  0  0  0
  190.3420  175.5300  137.0750 C   0  0  0  0  0  3  0  0  0  0  0  0
  189.1310  176.4710  136.8950 C   0  0  0  0  0  3  0  0  0  0  0  0
  188.3710  177.3310  143.4350 C   0  0  0  0  0  0  0  0  0  0  0  0
  188.8900  178.0940  142.3380 N   0  0  0  0  0  2  0  0  0  0  0  0
  187.9090  176.1720  143.2570 O   0  0  0  0  0  0  0  0  0  0  0  0
  188.4720  177.9020  144.8190 C   0  0  1  0  0  3  0  0  0  0  0  0
  184.7710  178.2540  146.6400 C   0  0  0  0  0  1  0  0  0  0  0  0
  186.0760  178.1270  146.0010 C   0  0  0  0  0  0  0  0  0  0  0  0
  187.1550  178.0230  145.4710 C   0  0  0  0  0  0  0  0  0  0  0  0
  190.9440  177.7790  145.4720 C   0  0  0  0  0  2  0  0  0  0  0  0
  189.5570  177.1910  145.6590 C   0  0  0  0  0  0  0  0  0  0  0  0
  190.6430  176.3800  144.9650 C   0  0  0  0  0  2  0  0  0  0  0  0
  189.0390  178.1720  147.9280 C   0  0  1  0  0  3  0  0  0  0  0  0
  188.2970  177.8710  149.0680 O   0  0  0  0  0  1  0  0  0  0  0  0
  190.3760  177.4730  148.0100 C   0  0  0  0  0  2  0  0  0  0  0  0
  189.2760  176.8940  147.1370 C   0  0  2  0  0  3  0  0  0  0  0  0
  183.7040  177.4390  137.4230 O   0  0  0  0  0  0  0  0  0  0  0  0
  182.6490  176.5340  137.1210 C   0  0  0  0  0  2  0  0  0  0  0  0
  184.9690  173.4280  137.5940 C   0  0  0  0  0  2  0  0  0  0  0  0
  183.1240  172.0160  136.5060 C   0  0  0  0  0  0  0  0  0  0  0  0
  182.6150  170.8390  135.9700 O   0  0  0  0  0  1  0  0  0  0  0  0
  182.3430  172.9910  136.8430 C   0  0  0  0  0  0  0  0  0  0  0  0
  183.0120  175.1480  137.6230 C   0  0  1  0  0  3  0  0  0  0  0  0
  181.9290  174.1450  137.2600 C   0  0  0  0  0  0  0  0  0  0  0  0
  184.4290  174.7860  137.0960 C   0  0  0  0  0  2  0  0  0  0  0  0
  184.6040  172.2370  136.6680 C   0  0  0  0  0  2  0  0  0  0  0  0
  180.4960  174.3060  137.6750 C   0  0  1  0  0  3  0  0  0  0  0  0
  179.5930  173.3940  136.9040 C   0  0  0  0  0  0  0  0  0  0  0  0
  179.1510  173.7690  135.6450 O   0  0  0  0  0  0  0  0  0  0  0  0
  179.2610  172.2750  137.3720 O   0  0  0  0  0  1  0  0  0  0  0  0
  180.3510  174.0990  139.0500 O   0  0  0  0  0  0  0  0  0  0  0  0
  179.3170  174.9530  139.4380 C   0  0  0  0  0  2  0  0  0  0  0  0
  179.3130  177.4180  139.3180 C   0  0  0  0  0  1  0  0  0  0  0  0
  179.9050  176.2170  140.0210 C   0  0  0  0  0  2  0  0  0  0  0  0
  1  9  1  1  0  0  0
  1  8  1  0  0  0  0
  3  6  1  0  0  0  0
  3  7  2  0  0  0  0
  5  2  1  1  0  0  0
  5  4  1  0  0  0  0
  6  1  1  0  0  0  0
  7  5  1  0  0  0  0
  8  4  2  0  0  0  0
 10 11  1  0  0  0  0
 11  9  1  0  0  0  0
 11 13  2  0  0  0  0
 12 13  1  0  0  0  0
 13 20  1  0  0  0  0
 14 12  2  0  0  0  0
 15 10  2  0  0  0  0
 15 14  1  0  0  0  0
 16 14  1  0  0  0  0
 17 16  1  0  0  0  0
 18 17  2  0  0  0  0
 18 15  1  0  0  0  0
 19 22  1  0  0  0  0
 20 19  1  0  0  0  0
 21 19  2  0  0  0  0
 22 25  1  1  0  0  0
 22 27  1  0  0  0  0
 24 23  1  0  0  0  0
 25 24  3  0  0  0  0
 26 27  1  0  0  0  0
 28 26  1  0  0  0  0
 28 27  1  0  0  0  0
 29 31  1  0  0  0  0
 29 30  1  1  0  0  0
 32 27  1  6  0  0  0
 32 29  1  0  0  0  0
 32 31  1  0  0  0  0
 33  3  1  0  0  0  0
 34 33  1  0  0  0  0
 36 42  1  0  0  0  0
 36 38  2  0  0  0  0
 37 36  1  0  0  0  0
 38 40  2  0  0  0  0
 39 34  1  6  0  0  0
 40 39  1  0  0  0  0
 40 43  1  0  0  0  0
 41 35  1  0  0  0  0
 41 39  1  0  0  0  0
 42 35  1  0  0  0  0
 43 44  1  6  0  0  0
 43 47  1  0  0  0  0
 44 46  1  0  0  0  0
 45 44  2  0  0  0  0
 47 48  1  0  0  0  0
 48 50  1  0  0  0  0
 49 50  1  0  0  0  0
M  END
>  <MODEL>
7

>  <REMARK>
 VINA RESULT:      -7.7      2.790      9.179
  Name = 
  15 active torsions:
  status: ('A' for Active; 'I' for Inactive)
    1  A    between atoms: C_3  and  C_16
    2  A    between atoms: C_3  and  C_20
    3  A    between atoms: C_3  and  C_46
    4  A    between atoms: C_5  and  O_23
    5  A    between atoms: C_8  and  C_13
    6  A    between atoms: C_8  and  O_25
    7  A    between atoms: C_8  and  C_30
    8  A    between atoms: C_11  and  O_23
    9  A    between atoms: C_20  and  C_38
   10  A    between atoms: C_21  and  O_25
   11  A    between atoms: C_21  and  C_41
   12  A    between atoms: C_22  and  O_33
   13  A    between atoms: C_24  and  N_36
   14  A    between atoms: C_26  and  C_44
   15  A    between atoms: O_33  and  C_44
                            x       y       z     vdW  Elec       q    Type
                         _______ _______ _______ _____ _____    ______ ____

>  <TORSDO>
F 15

$$$$
=
 OpenBabel11032421133D

 50 55  0  0  1  0  0  0  0  0999 V2000
  183.9960  177.0320  138.1230 C   0  0  1  0  0  3  0  0  0  0  0  0
  180.5640  178.6550  139.7950 F   0  0  0  0  0  0  0  0  0  0  0  0
  184.1390  178.8080  140.0190 C   0  0  0  0  0  0  0  0  0  0  0  0
  181.9690  178.3420  137.9940 N   0  0  0  0  0  0  0  0  0  0  0  0
  181.8040  178.1820  139.4190 C   0  0  1  0  0  3  0  0  0  0  0  0
  184.8420  177.9900  138.9570 C   0  0  0  0  0  2  0  0  0  0  0  0
  182.8420  178.8980  140.1570 N   0  0  0  0  0  0  0  0  0  0  0  0
  182.9590  177.8050  137.3740 C   0  0  0  0  0  3  0  0  0  0  0  0
  184.8280  176.3370  137.1980 O   0  0  0  0  0  0  0  0  0  0  0  0
  183.4610  174.3070  137.1820 C   0  0  0  0  0  3  0  0  0  0  0  0
  184.6670  174.9790  136.8910 C   0  0  0  0  0  0  0  0  0  0  0  0
  185.5890  172.9120  135.9680 C   0  0  0  0  0  3  0  0  0  0  0  0
  185.7330  174.2810  136.2750 C   0  0  0  0  0  0  0  0  0  0  0  0
  184.3840  172.2860  136.2750 C   0  0  0  0  0  0  0  0  0  0  0  0
  183.3560  172.9570  136.8580 C   0  0  0  0  0  0  0  0  0  0  0  0
  184.0590  170.9670  136.0520 O   0  0  0  0  0  0  0  0  0  0  0  0
  182.7300  170.7080  136.5000 C   0  0  0  0  0  3  0  0  0  0  0  0
  182.2050  172.0460  137.0640 C   0  0  0  0  0  3  0  0  0  0  0  0
  188.2590  174.6870  136.4770 C   0  0  0  0  0  0  0  0  0  0  0  0
  186.9480  174.9880  135.9830 N   0  0  0  0  0  2  0  0  0  0  0  0
  188.4580  173.6860  137.2180 O   0  0  0  0  0  0  0  0  0  0  0  0
  189.4110  175.5330  136.0210 C   0  0  1  0  0  3  0  0  0  0  0  0
  189.0560  179.4640  137.2690 C   0  0  0  0  0  1  0  0  0  0  0  0
  189.1840  178.0780  136.8320 C   0  0  0  0  0  0  0  0  0  0  0  0
  189.2880  176.9330  136.4700 C   0  0  0  0  0  0  0  0  0  0  0  0
  191.7940  175.0610  135.2150 C   0  0  0  0  0  2  0  0  0  0  0  0
  190.7720  174.8660  136.3210 C   0  0  0  0  0  0  0  0  0  0  0  0
  191.2330  173.6760  135.4880 C   0  0  0  0  0  2  0  0  0  0  0  0
  192.2140  176.3500  137.7690 C   0  0  1  0  0  3  0  0  0  0  0  0
  192.3190  176.7530  139.0990 O   0  0  0  0  0  1  0  0  0  0  0  0
  192.9220  175.0260  137.5970 C   0  0  0  0  0  2  0  0  0  0  0  0
  191.4080  175.0610  137.7030 C   0  0  2  0  0  3  0  0  0  0  0  0
  184.9690  179.5320  140.8750 O   0  0  0  0  0  0  0  0  0  0  0  0
  186.1620  178.9940  141.4310 C   0  0  0  0  0  2  0  0  0  0  0  0
  184.4340  178.4080  144.8840 C   0  0  0  0  0  2  0  0  0  0  0  0
  186.7730  178.0600  145.8780 C   0  0  0  0  0  0  0  0  0  0  0  0
  187.6590  177.8760  146.9340 O   0  0  0  0  0  1  0  0  0  0  0  0
  187.1260  177.8160  144.6570 C   0  0  0  0  0  0  0  0  0  0  0  0
  185.8280  178.2160  142.6910 C   0  0  1  0  0  3  0  0  0  0  0  0
  187.0960  177.7170  143.3660 C   0  0  0  0  0  0  0  0  0  0  0  0
  184.9230  179.1010  143.5940 C   0  0  0  0  0  2  0  0  0  0  0  0
  185.3870  178.6040  146.0940 C   0  0  0  0  0  2  0  0  0  0  0  0
  188.1010  176.8460  142.6720 C   0  0  1  0  0  3  0  0  0  0  0  0
  188.9390  177.6310  141.7100 C   0  0  0  0  0  0  0  0  0  0  0  0
  188.9630  177.2750  140.3710 O   0  0  0  0  0  0  0  0  0  0  0  0
  189.5920  178.6320  142.0990 O   0  0  0  0  0  1  0  0  0  0  0  0
  188.9060  176.1790  143.5990 O   0  0  0  0  0  0  0  0  0  0  0  0
  189.9640  175.6560  142.8510 C   0  0  0  0  0  2  0  0  0  0  0  0
  191.1860  176.8070  144.6610 C   0  0  0  0  0  1  0  0  0  0  0  0
  191.2150  175.6400  143.6990 C   0  0  0  0  0  2  0  0  0  0  0  0
  1  9  1  6  0  0  0
  1  6  1  0  0  0  0
  3  7  2  0  0  0  0
  3 33  1  0  0  0  0
  4  5  1  0  0  0  0
  5  2  1  1  0  0  0
  5  7  1  0  0  0  0
  6  3  1  0  0  0  0
  8  4  2  0  0  0  0
  8  1  1  0  0  0  0
 11 10  1  0  0  0  0
 11  9  1  0  0  0  0
 12 14  2  0  0  0  0
 12 13  1  0  0  0  0
 13 11  2  0  0  0  0
 14 15  1  0  0  0  0
 15 18  1  0  0  0  0
 15 10  2  0  0  0  0
 16 14  1  0  0  0  0
 16 17  1  0  0  0  0
 17 18  2  0  0  0  0
 19 21  2  0  0  0  0
 20 13  1  0  0  0  0
 20 19  1  0  0  0  0
 22 27  1  0  0  0  0
 22 25  1  1  0  0  0
 22 19  1  0  0  0  0
 24 23  1  0  0  0  0
 25 24  3  0  0  0  0
 26 28  1  0  0  0  0
 26 27  1  0  0  0  0
 28 27  1  0  0  0  0
 29 30  1  1  0  0  0
 31 32  1  0  0  0  0
 31 29  1  0  0  0  0
 32 27  1  6  0  0  0
 32 29  1  0  0  0  0
 33 34  1  0  0  0  0
 35 42  1  0  0  0  0
 36 42  1  0  0  0  0
 36 37  1  0  0  0  0
 38 36  2  0  0  0  0
 39 34  1  6  0  0  0
 39 40  1  0  0  0  0
 39 41  1  0  0  0  0
 40 38  2  0  0  0  0
 41 35  1  0  0  0  0
 43 44  1  6  0  0  0
 43 40  1  0  0  0  0
 43 47  1  0  0  0  0
 44 46  1  0  0  0  0
 45 44  2  0  0  0  0
 48 47  1  0  0  0  0
 48 50  1  0  0  0  0
 50 49  1  0  0  0  0
M  END
>  <MODEL>
8

>  <REMARK>
 VINA RESULT:      -7.6      2.794      5.902
  Name = 
  15 active torsions:
  status: ('A' for Active; 'I' for Inactive)
    1  A    between atoms: C_3  and  C_16
    2  A    between atoms: C_3  and  C_20
    3  A    between atoms: C_3  and  C_46
    4  A    between atoms: C_5  and  O_23
    5  A    between atoms: C_8  and  C_13
    6  A    between atoms: C_8  and  O_25
    7  A    between atoms: C_8  and  C_30
    8  A    between atoms: C_11  and  O_23
    9  A    between atoms: C_20  and  C_38
   10  A    between atoms: C_21  and  O_25
   11  A    between atoms: C_21  and  C_41
   12  A    between atoms: C_22  and  O_33
   13  A    between atoms: C_24  and  N_36
   14  A    between atoms: C_26  and  C_44
   15  A    between atoms: O_33  and  C_44
                            x       y       z     vdW  Elec       q    Type
                         _______ _______ _______ _____ _____    ______ ____

>  <TORSDO>
F 15

$$$$
=
 OpenBabel11032421133D

 50 55  0  0  1  0  0  0  0  0999 V2000
  187.7000  178.5840  142.9830 C   0  0  1  0  0  3  0  0  0  0  0  0
  184.2240  178.7080  145.2450 F   0  0  0  0  0  0  0  0  0  0  0  0
  185.3940  179.0500  141.8730 C   0  0  0  0  0  0  0  0  0  0  0  0
  186.0330  177.5540  144.3990 N   0  0  0  0  0  0  0  0  0  0  0  0
  185.2680  178.7780  144.3460 C   0  0  1  0  0  3  0  0  0  0  0  0
  186.8670  178.7390  141.7140 C   0  0  0  0  0  2  0  0  0  0  0  0
  184.7390  179.0140  143.0040 N   0  0  0  0  0  0  0  0  0  0  0  0
  187.1640  177.4500  143.7970 C   0  0  0  0  0  3  0  0  0  0  0  0
  189.0570  178.3180  142.6380 O   0  0  0  0  0  0  0  0  0  0  0  0
  190.0940  177.7360  144.7770 C   0  0  0  0  0  3  0  0  0  0  0  0
  189.8950  177.4940  143.4010 C   0  0  0  0  0  0  0  0  0  0  0  0
  191.3970  175.5690  143.5290 C   0  0  0  0  0  3  0  0  0  0  0  0
  190.5430  176.4020  142.7750 C   0  0  0  0  0  0  0  0  0  0  0  0
  191.5680  175.8450  144.8830 C   0  0  0  0  0  0  0  0  0  0  0  0
  190.9390  176.8860  145.4860 C   0  0  0  0  0  0  0  0  0  0  0  0
  192.3540  175.1490  145.7730 O   0  0  0  0  0  0  0  0  0  0  0  0
  192.2630  175.7370  147.0690 C   0  0  0  0  0  3  0  0  0  0  0  0
  191.3030  176.9360  146.9230 C   0  0  0  0  0  3  0  0  0  0  0  0
  190.9730  176.8290  140.2820 C   0  0  0  0  0  0  0  0  0  0  0  0
  190.3200  176.1730  141.3760 N   0  0  0  0  0  2  0  0  0  0  0  0
  191.8820  177.6790  140.4850 O   0  0  0  0  0  0  0  0  0  0  0  0
  190.6200  176.4180  138.8830 C   0  0  1  0  0  3  0  0  0  0  0  0
  188.5710  179.3750  136.8360 C   0  0  0  0  0  1  0  0  0  0  0  0
  189.2960  178.3360  137.5580 C   0  0  0  0  0  0  0  0  0  0  0  0
  189.8940  177.4760  138.1560 C   0  0  0  0  0  0  0  0  0  0  0  0
  193.1540  176.0540  138.8430 C   0  0  0  0  0  2  0  0  0  0  0  0
  191.8320  175.8220  138.1330 C   0  0  0  0  0  0  0  0  0  0  0  0
  192.8760  176.7480  137.5210 C   0  0  0  0  0  2  0  0  0  0  0  0
  191.3030  174.3730  136.1320 C   0  0  1  0  0  3  0  0  0  0  0  0
  191.7270  173.1830  135.5440 O   0  0  0  0  0  1  0  0  0  0  0  0
  190.3050  174.0570  137.2220 C   0  0  0  0  0  2  0  0  0  0  0  0
  191.7400  174.3900  137.5900 C   0  0  2  0  0  3  0  0  0  0  0  0
  184.7100  179.3620  140.6980 O   0  0  0  0  0  0  0  0  0  0  0  0
  183.5270  178.6860  140.2900 C   0  0  0  0  0  2  0  0  0  0  0  0
  181.5590  180.8840  137.7310 C   0  0  0  0  0  2  0  0  0  0  0  0
  180.6700  178.7080  136.7030 C   0  0  0  0  0  0  0  0  0  0  0  0
  179.8550  177.9850  135.8410 O   0  0  0  0  0  1  0  0  0  0  0  0
  181.6940  178.1600  137.2750 C   0  0  0  0  0  0  0  0  0  0  0  0
  183.1230  179.1630  138.9060 C   0  0  1  0  0  3  0  0  0  0  0  0
  182.7360  177.9870  138.0240 C   0  0  0  0  0  0  0  0  0  0  0  0
  182.0160  180.2450  139.0600 C   0  0  0  0  0  2  0  0  0  0  0  0
  180.3740  180.1400  137.0590 C   0  0  0  0  0  2  0  0  0  0  0  0
  183.6610  176.8390  137.7440 C   0  0  1  0  0  3  0  0  0  0  0  0
  182.9900  175.5210  137.9740 C   0  0  0  0  0  0  0  0  0  0  0  0
  182.4010  175.2540  139.2000 O   0  0  0  0  0  1  0  0  0  0  0  0
  182.9220  174.6670  137.0530 O   0  0  0  0  0  0  0  0  0  0  0  0
  184.1690  176.9160  136.4440 O   0  0  0  0  0  0  0  0  0  0  0  0
  185.4460  177.4630  136.5840 C   0  0  0  0  0  2  0  0  0  0  0  0
  186.7900  175.4320  136.9820 C   0  0  0  0  0  1  0  0  0  0  0  0
  186.4620  176.5200  135.9840 C   0  0  0  0  0  2  0  0  0  0  0  0
  1  9  1  6  0  0  0
  1  8  1  0  0  0  0
  3  7  2  0  0  0  0
  5  4  1  0  0  0  0
  5  2  1  1  0  0  0
  6  3  1  0  0  0  0
  6  1  1  0  0  0  0
  7  5  1  0  0  0  0
  8  4  2  0  0  0  0
  9 11  1  0  0  0  0
 10 15  1  0  0  0  0
 11 10  2  0  0  0  0
 12 14  1  0  0  0  0
 13 11  1  0  0  0  0
 13 12  2  0  0  0  0
 14 15  2  0  0  0  0
 14 16  1  0  0  0  0
 15 18  1  0  0  0  0
 16 17  1  0  0  0  0
 18 17  2  0  0  0  0
 19 21  2  0  0  0  0
 19 20  1  0  0  0  0
 20 13  1  0  0  0  0
 22 25  1  6  0  0  0
 22 19  1  0  0  0  0
 23 24  1  0  0  0  0
 24 25  3  0  0  0  0
 27 26  1  0  0  0  0
 27 22  1  0  0  0  0
 28 27  1  0  0  0  0
 28 26  1  0  0  0  0
 29 30  1  6  0  0  0
 29 31  1  0  0  0  0
 29 32  1  0  0  0  0
 32 31  1  1  0  0  0
 32 27  1  0  0  0  0
 33  3  1  0  0  0  0
 34 33  1  0  0  0  0
 35 41  1  0  0  0  0
 36 42  1  0  0  0  0
 36 38  2  0  0  0  0
 37 36  1  0  0  0  0
 38 40  2  0  0  0  0
 39 41  1  0  0  0  0
 39 34  1  1  0  0  0
 40 39  1  0  0  0  0
 42 35  1  0  0  0  0
 43 47  1  6  0  0  0
 43 44  1  0  0  0  0
 43 40  1  0  0  0  0
 44 45  1  0  0  0  0
 46 44  2  0  0  0  0
 47 48  1  0  0  0  0
 50 48  1  0  0  0  0
 50 49  1  0  0  0  0
M  END
>  <MODEL>
9

>  <REMARK>
 VINA RESULT:      -7.6      2.747      8.894
  Name = 
  15 active torsions:
  status: ('A' for Active; 'I' for Inactive)
    1  A    between atoms: C_3  and  C_16
    2  A    between atoms: C_3  and  C_20
    3  A    between atoms: C_3  and  C_46
    4  A    between atoms: C_5  and  O_23
    5  A    between atoms: C_8  and  C_13
    6  A    between atoms: C_8  and  O_25
    7  A    between atoms: C_8  and  C_30
    8  A    between atoms: C_11  and  O_23
    9  A    between atoms: C_20  and  C_38
   10  A    between atoms: C_21  and  O_25
   11  A    between atoms: C_21  and  C_41
   12  A    between atoms: C_22  and  O_33
   13  A    between atoms: C_24  and  N_36
   14  A    between atoms: C_26  and  C_44
   15  A    between atoms: O_33  and  C_44
                            x       y       z     vdW  Elec       q    Type
                         _______ _______ _______ _____ _____    ______ ____

>  <TORSDO>
F 15

$$$$
