=
 OpenBabel11032419133D

 30 34  0  0  1  0  0  0  0  0999 V2000
  189.4800  177.0540  146.0780 C   0  0  0  0  0  0  0  0  0  0  0  0
  190.3450  178.1300  143.9840 C   0  0  0  0  0  2  0  0  0  0  0  0
  183.8670  178.9070  145.9700 N   0  0  0  0  0  0  0  0  0  0  0  0
  186.1220  178.2230  146.2000 C   0  0  0  0  0  0  0  0  0  0  0  0
  182.8620  178.7900  142.4390 C   0  0  0  0  0  0  0  0  0  0  0  0
  184.9370  178.6650  146.7820 C   0  0  0  0  0  2  0  0  0  0  0  0
  190.4460  177.1020  145.0160 N   0  0  0  0  0  0  0  0  0  0  0  0
  187.2640  177.9060  146.8410 N   0  0  0  0  0  0  0  0  0  0  0  0
  181.7440  179.0460  141.6580 O   0  0  0  0  0  1  0  0  0  0  0  0
  187.4940  177.5870  144.6040 C   0  0  0  0  0  0  0  0  0  0  0  0
  188.1020  177.5170  145.8500 C   0  0  0  0  0  0  0  0  0  0  0  0
  186.2150  178.0350  144.8450 C   0  0  0  0  0  0  0  0  0  0  0  0
  189.8080  176.6230  147.2160 O   0  0  0  0  0  0  0  0  0  0  0  0
  183.9250  178.7240  144.6150 C   0  0  0  0  0  0  0  0  0  0  0  0
  182.8020  178.9810  143.8240 C   0  0  0  0  0  3  0  0  0  0  0  0
  185.1230  178.2700  144.0050 C   0  0  0  0  0  0  0  0  0  0  0  0
  185.1750  178.0840  142.6190 C   0  0  0  0  0  3  0  0  0  0  0  0
  188.0600  177.0540  143.3260 C   0  0  0  0  0  2  0  0  0  0  0  0
  189.3360  177.7790  142.8790 C   0  0  2  0  0  3  0  0  0  0  0  0
  191.7060  176.3850  145.1450 C   0  0  0  0  0  1  0  0  0  0  0  0
  184.0440  178.3430  141.8400 C   0  0  0  0  0  3  0  0  0  0  0  0
  191.3870  177.3890  141.6620 O   0  0  0  0  0  1  0  0  0  0  0  0
  190.0210  177.0920  141.6930 C   0  0  2  0  0  3  0  0  0  0  0  0
  189.3470  177.3640  140.3390 C   0  0  2  0  0  3  0  0  0  0  0  0
  190.6570  176.0690  138.7370 C   0  0  2  0  0  3  0  0  0  0  0  0
  190.3950  177.4150  139.2370 C   0  0  1  0  0  3  0  0  0  0  0  0
  191.9740  176.0300  138.1280 N   0  0  0  0  0  1  0  0  0  0  0  0
  189.7950  176.9770  137.9670 N   0  0  0  0  0  2  0  0  0  0  0  0
  188.5280  178.6500  140.3540 C   0  0  0  0  0  2  0  0  0  0  0  0
  187.2900  178.4380  139.7460 O   0  0  0  0  0  1  0  0  0  0  0  0
  1 13  2  0  0  0  0
  2  7  1  0  0  0  0
  3  6  1  0  0  0  0
  4  6  1  0  0  0  0
  4  8  2  0  0  0  0
  5 15  2  0  0  0  0
  7 20  1  0  0  0  0
  7  1  1  0  0  0  0
  9  5  1  0  0  0  0
 10 12  1  0  0  0  0
 10 11  2  0  0  0  0
 11  1  1  0  0  0  0
 11  8  1  0  0  0  0
 12  4  1  0  0  0  0
 14  3  2  0  0  0  0
 15 14  1  0  0  0  0
 16 14  1  0  0  0  0
 16 12  2  0  0  0  0
 17 16  1  0  0  0  0
 18 10  1  0  0  0  0
 19 23  1  6  0  0  0
 19 18  1  0  0  0  0
 19  2  1  0  0  0  0
 21  5  1  0  0  0  0
 21 17  2  0  0  0  0
 23 22  1  6  0  0  0
 24 29  1  1  0  0  0
 24 23  1  0  0  0  0
 25 27  1  6  0  0  0
 25 26  1  0  0  0  0
 26 24  1  1  0  0  0
 28 25  1  0  0  0  0
 28 26  1  0  0  0  0
 30 29  1  0  0  0  0
M  END
>  <MODEL>
1

>  <REMARK>
 VINA RESULT:     -10.8      0.000      0.000
  Name = 
  4 active torsions:
  status: ('A' for Active; 'I' for Inactive)
    1  A    between atoms: C_11  and  C_20
    2  A    between atoms: C_17  and  C_20
    3  A    between atoms: C_20  and  C_22
    4  A    between atoms: C_22  and  C_28
                            x       y       z     vdW  Elec       q    Type
                         _______ _______ _______ _____ _____    ______ ____

>  <TORSDO>
F 4

$$$$
=
 OpenBabel11032419133D

 30 34  0  0  1  0  0  0  0  0999 V2000
  189.4070  177.0840  145.7440 C   0  0  0  0  0  0  0  0  0  0  0  0
  190.1520  178.0480  143.5520 C   0  0  0  0  0  2  0  0  0  0  0  0
  183.8320  179.0440  145.9130 N   0  0  0  0  0  0  0  0  0  0  0  0
  186.0850  178.3250  146.0290 C   0  0  0  0  0  0  0  0  0  0  0  0
  182.5970  178.7900  142.4630 C   0  0  0  0  0  0  0  0  0  0  0  0
  184.9490  178.8160  146.6640 C   0  0  0  0  0  2  0  0  0  0  0  0
  190.3030  177.0640  144.6210 N   0  0  0  0  0  0  0  0  0  0  0  0
  187.2610  178.0140  146.6090 N   0  0  0  0  0  0  0  0  0  0  0  0
  181.4350  179.0330  141.7440 O   0  0  0  0  0  1  0  0  0  0  0  0
  187.3390  177.5900  144.3780 C   0  0  0  0  0  0  0  0  0  0  0  0
  188.0260  177.5640  145.5840 C   0  0  0  0  0  0  0  0  0  0  0  0
  186.0860  178.0750  144.6800 C   0  0  0  0  0  0  0  0  0  0  0  0
  189.8010  176.6970  146.8770 O   0  0  0  0  0  0  0  0  0  0  0  0
  183.7980  178.7990  144.5660 C   0  0  0  0  0  0  0  0  0  0  0  0
  182.6310  179.0430  143.8380 C   0  0  0  0  0  3  0  0  0  0  0  0
  184.9460  178.2940  143.9020 C   0  0  0  0  0  0  0  0  0  0  0  0
  184.9050  178.0450  142.5250 C   0  0  0  0  0  3  0  0  0  0  0  0
  187.8110  176.9900  143.0920 C   0  0  0  0  0  2  0  0  0  0  0  0
  189.0680  177.6680  142.5310 C   0  0  2  0  0  3  0  0  0  0  0  0
  191.5550  176.3290  144.7010 C   0  0  0  0  0  1  0  0  0  0  0  0
  183.7300  178.2930  141.8090 C   0  0  0  0  0  3  0  0  0  0  0  0
  190.4520  175.8430  141.7620 O   0  0  0  0  0  1  0  0  0  0  0  0
  189.6620  176.9150  141.3360 C   0  0  2  0  0  3  0  0  0  0  0  0
  190.4110  177.8150  140.3400 C   0  0  2  0  0  3  0  0  0  0  0  0
  188.2930  177.8200  139.1260 C   0  0  2  0  0  3  0  0  0  0  0  0
  189.7430  177.7480  138.9740 C   0  0  1  0  0  3  0  0  0  0  0  0
  187.6580  177.2230  137.9650 N   0  0  0  0  0  1  0  0  0  0  0  0
  189.0420  179.0130  138.7070 N   0  0  0  0  0  2  0  0  0  0  0  0
  191.8860  177.4440  140.2300 C   0  0  0  0  0  2  0  0  0  0  0  0
  192.1220  176.7640  139.0340 O   0  0  0  0  0  1  0  0  0  0  0  0
  1 13  2  0  0  0  0
  2  7  1  0  0  0  0
  3  6  1  0  0  0  0
  4  8  2  0  0  0  0
  4  6  1  0  0  0  0
  5 15  2  0  0  0  0
  7 20  1  0  0  0  0
  7  1  1  0  0  0  0
  9  5  1  0  0  0  0
 10 12  1  0  0  0  0
 10 11  2  0  0  0  0
 11  1  1  0  0  0  0
 11  8  1  0  0  0  0
 12  4  1  0  0  0  0
 14  3  2  0  0  0  0
 15 14  1  0  0  0  0
 16 14  1  0  0  0  0
 16 12  2  0  0  0  0
 17 16  1  0  0  0  0
 18 10  1  0  0  0  0
 19 23  1  6  0  0  0
 19 18  1  0  0  0  0
 19  2  1  0  0  0  0
 21  5  1  0  0  0  0
 21 17  2  0  0  0  0
 23 22  1  1  0  0  0
 24 29  1  6  0  0  0
 24 23  1  0  0  0  0
 25 27  1  6  0  0  0
 26 25  1  0  0  0  0
 26 24  1  1  0  0  0
 28 26  1  0  0  0  0
 28 25  1  0  0  0  0
 30 29  1  0  0  0  0
M  END
>  <MODEL>
2

>  <REMARK>
 VINA RESULT:     -10.6      1.375      1.644
  Name = 
  4 active torsions:
  status: ('A' for Active; 'I' for Inactive)
    1  A    between atoms: C_11  and  C_20
    2  A    between atoms: C_17  and  C_20
    3  A    between atoms: C_20  and  C_22
    4  A    between atoms: C_22  and  C_28
                            x       y       z     vdW  Elec       q    Type
                         _______ _______ _______ _____ _____    ______ ____

>  <TORSDO>
F 4

$$$$
=
 OpenBabel11032419133D

 30 34  0  0  1  0  0  0  0  0999 V2000
  189.7540  176.8290  140.5340 C   0  0  0  0  0  0  0  0  0  0  0  0
  188.1390  178.7480  140.4470 C   0  0  0  0  0  2  0  0  0  0  0  0
  191.2050  176.9350  146.2640 N   0  0  0  0  0  0  0  0  0  0  0  0
  190.8150  176.8840  143.9290 C   0  0  0  0  0  0  0  0  0  0  0  0
  188.0970  177.7360  148.0490 C   0  0  0  0  0  0  0  0  0  0  0  0
  191.6910  176.7480  145.0010 C   0  0  0  0  0  3  0  0  0  0  0  0
  188.6640  177.5050  139.8860 N   0  0  0  0  0  0  0  0  0  0  0  0
  191.1060  176.7080  142.6250 N   0  0  0  0  0  0  0  0  0  0  0  0
  187.6510  177.9120  149.3520 O   0  0  0  0  0  1  0  0  0  0  0  0
  188.9140  177.2410  142.8840 C   0  0  0  0  0  0  0  0  0  0  0  0
  189.9300  176.9300  141.9900 C   0  0  0  0  0  0  0  0  0  0  0  0
  189.4950  177.1990  144.1310 C   0  0  0  0  0  0  0  0  0  0  0  0
  190.5720  176.1510  139.8560 O   0  0  0  0  0  0  0  0  0  0  0  0
  189.8930  177.2450  146.5000 C   0  0  0  0  0  0  0  0  0  0  0  0
  189.4390  177.4230  147.8090 C   0  0  0  0  0  3  0  0  0  0  0  0
  188.9840  177.3830  145.4180 C   0  0  0  0  0  0  0  0  0  0  0  0
  187.6430  177.6990  145.6660 C   0  0  0  0  0  2  0  0  0  0  0  0
  187.4600  177.3550  142.5480 C   0  0  0  0  0  2  0  0  0  0  0  0
  187.1470  178.5190  141.5980 C   0  0  2  0  0  3  0  0  0  0  0  0
  188.3160  177.1760  138.5120 C   0  0  0  0  0  1  0  0  0  0  0  0
  187.2030  177.8730  146.9810 C   0  0  0  0  0  3  0  0  0  0  0  0
  185.5170  179.4160  140.0560 O   0  0  0  0  0  1  0  0  0  0  0  0
  185.7010  178.4970  141.0940 C   0  0  2  0  0  3  0  0  0  0  0  0
  184.6500  178.6710  142.2020 C   0  0  2  0  0  3  0  0  0  0  0  0
  182.6590  178.0430  140.9360 C   0  0  2  0  0  3  0  0  0  0  0  0
  183.3360  179.1510  141.6030 C   0  0  1  0  0  3  0  0  0  0  0  0
  181.7470  178.5680  139.9370 N   0  0  0  0  0  1  0  0  0  0  0  0
  182.2140  178.4710  142.2700 N   0  0  0  0  0  2  0  0  0  0  0  0
  185.1190  179.6290  143.2920 C   0  0  0  0  0  2  0  0  0  0  0  0
  184.6740  179.1930  144.5400 O   0  0  0  0  0  1  0  0  0  0  0  0
  1 11  1  0  0  0  0
  2 19  1  0  0  0  0
  3 14  1  0  0  0  0
  4 12  1  0  0  0  0
  4  6  1  0  0  0  0
  5  9  1  0  0  0  0
  6  3  2  0  0  0  0
  7  2  1  0  0  0  0
  7  1  1  0  0  0  0
  8  4  2  0  0  0  0
 10 12  1  0  0  0  0
 11  8  1  0  0  0  0
 11 10  2  0  0  0  0
 12 16  2  0  0  0  0
 13  1  2  0  0  0  0
 14 15  2  0  0  0  0
 15  5  1  0  0  0  0
 16 17  1  0  0  0  0
 16 14  1  0  0  0  0
 17 21  1  0  0  0  0
 18 10  1  0  0  0  0
 19 23  1  6  0  0  0
 19 18  1  0  0  0  0
 20  7  1  0  0  0  0
 21  5  2  0  0  0  0
 23 22  1  6  0  0  0
 23 24  1  0  0  0  0
 24 29  1  1  0  0  0
 25 27  1  6  0  0  0
 25 26  1  0  0  0  0
 25 28  1  0  0  0  0
 26 24  1  1  0  0  0
 26 28  1  0  0  0  0
 29 30  1  0  0  0  0
M  END
>  <MODEL>
3

>  <REMARK>
 VINA RESULT:      -9.4      2.187      6.324
  Name = 
  4 active torsions:
  status: ('A' for Active; 'I' for Inactive)
    1  A    between atoms: C_11  and  C_20
    2  A    between atoms: C_17  and  C_20
    3  A    between atoms: C_20  and  C_22
    4  A    between atoms: C_22  and  C_28
                            x       y       z     vdW  Elec       q    Type
                         _______ _______ _______ _____ _____    ______ ____

>  <TORSDO>
F 4

$$$$
=
 OpenBabel11032419133D

 30 34  0  0  1  0  0  0  0  0999 V2000
  187.2980  178.0570  140.0050 C   0  0  0  0  0  0  0  0  0  0  0  0
  185.3560  179.4460  140.7750 C   0  0  0  0  0  2  0  0  0  0  0  0
  190.5340  177.9420  144.9510 N   0  0  0  0  0  0  0  0  0  0  0  0
  189.4010  178.0370  142.8740 C   0  0  0  0  0  0  0  0  0  0  0  0
  188.1160  177.6460  147.7000 C   0  0  0  0  0  0  0  0  0  0  0  0
  190.5940  178.0360  143.5910 C   0  0  0  0  0  3  0  0  0  0  0  0
  185.9290  178.4680  139.8540 N   0  0  0  0  0  0  0  0  0  0  0  0
  189.2670  178.0920  141.5350 N   0  0  0  0  0  0  0  0  0  0  0  0
  188.1080  177.5480  149.0850 O   0  0  0  0  0  1  0  0  0  0  0  0
  187.2300  177.9610  142.5320 C   0  0  0  0  0  0  0  0  0  0  0  0
  187.9270  178.0450  141.3340 C   0  0  0  0  0  0  0  0  0  0  0  0
  188.1920  177.9480  143.5170 C   0  0  0  0  0  0  0  0  0  0  0  0
  187.9710  177.7120  138.9970 O   0  0  0  0  0  0  0  0  0  0  0  0
  189.3450  177.8460  145.6220 C   0  0  0  0  0  0  0  0  0  0  0  0
  189.3320  177.7470  147.0160 C   0  0  0  0  0  3  0  0  0  0  0  0
  188.1190  177.8410  144.9080 C   0  0  0  0  0  0  0  0  0  0  0  0
  186.9060  177.7420  145.6000 C   0  0  0  0  0  2  0  0  0  0  0  0
  185.7640  177.7000  142.6720 C   0  0  0  0  0  2  0  0  0  0  0  0
  184.8910  178.8260  142.1020 C   0  0  2  0  0  3  0  0  0  0  0  0
  185.2230  178.2060  138.6100 C   0  0  0  0  0  1  0  0  0  0  0  0
  186.9080  177.6430  146.9940 C   0  0  0  0  0  3  0  0  0  0  0  0
  182.7700  179.0630  140.9690 O   0  0  0  0  0  1  0  0  0  0  0  0
  183.4050  178.4560  142.0570 C   0  0  2  0  0  3  0  0  0  0  0  0
  182.6550  178.7180  143.3730 C   0  0  2  0  0  3  0  0  0  0  0  0
  180.3640  178.1900  142.7150 C   0  0  2  0  0  3  0  0  0  0  0  0
  181.2700  179.2750  143.0810 C   0  0  1  0  0  3  0  0  0  0  0  0
  179.2650  178.7240  141.9320 N   0  0  0  0  0  1  0  0  0  0  0  0
  180.3130  178.7560  144.0710 N   0  0  0  0  0  2  0  0  0  0  0  0
  183.4240  179.6610  144.2930 C   0  0  0  0  0  2  0  0  0  0  0  0
  183.5820  179.0810  145.5520 O   0  0  0  0  0  1  0  0  0  0  0  0
  1 11  1  0  0  0  0
  2 19  1  0  0  0  0
  3 14  1  0  0  0  0
  4 12  1  0  0  0  0
  4  6  1  0  0  0  0
  5  9  1  0  0  0  0
  6  3  2  0  0  0  0
  7  1  1  0  0  0  0
  7  2  1  0  0  0  0
  8  4  2  0  0  0  0
 10 18  1  0  0  0  0
 10 12  1  0  0  0  0
 11  8  1  0  0  0  0
 11 10  2  0  0  0  0
 12 16  2  0  0  0  0
 13  1  2  0  0  0  0
 14 15  2  0  0  0  0
 15  5  1  0  0  0  0
 16 17  1  0  0  0  0
 16 14  1  0  0  0  0
 17 21  1  0  0  0  0
 19 23  1  6  0  0  0
 19 18  1  0  0  0  0
 20  7  1  0  0  0  0
 21  5  2  0  0  0  0
 23 22  1  6  0  0  0
 23 24  1  0  0  0  0
 24 29  1  1  0  0  0
 25 27  1  6  0  0  0
 25 26  1  0  0  0  0
 25 28  1  0  0  0  0
 26 24  1  1  0  0  0
 26 28  1  0  0  0  0
 29 30  1  0  0  0  0
M  END
>  <MODEL>
4

>  <REMARK>
 VINA RESULT:      -8.7      2.331      7.299
  Name = 
  4 active torsions:
  status: ('A' for Active; 'I' for Inactive)
    1  A    between atoms: C_11  and  C_20
    2  A    between atoms: C_17  and  C_20
    3  A    between atoms: C_20  and  C_22
    4  A    between atoms: C_22  and  C_28
                            x       y       z     vdW  Elec       q    Type
                         _______ _______ _______ _____ _____    ______ ____

>  <TORSDO>
F 4

$$$$
=
 OpenBabel11032419133D

 30 34  0  0  1  0  0  0  0  0999 V2000
  181.6960  179.3940  142.6350 C   0  0  0  0  0  0  0  0  0  0  0  0
  182.1230  177.7440  140.7940 C   0  0  0  0  0  2  0  0  0  0  0  0
  186.1280  178.0430  146.3070 N   0  0  0  0  0  0  0  0  0  0  0  0
  184.2330  178.5760  144.9910 C   0  0  0  0  0  0  0  0  0  0  0  0
  189.0090  177.3220  144.1450 C   0  0  0  0  0  0  0  0  0  0  0  0
  184.8110  178.3990  146.2440 C   0  0  0  0  0  2  0  0  0  0  0  0
  181.5300  178.9930  141.2650 N   0  0  0  0  0  0  0  0  0  0  0  0
  182.9650  178.9540  144.7360 N   0  0  0  0  0  0  0  0  0  0  0  0
  190.3450  176.9640  144.2620 O   0  0  0  0  0  1  0  0  0  0  0  0
  184.1120  178.6620  142.7970 C   0  0  0  0  0  0  0  0  0  0  0  0
  182.9000  179.0030  143.3830 C   0  0  0  0  0  0  0  0  0  0  0  0
  184.9650  178.3980  143.8440 C   0  0  0  0  0  0  0  0  0  0  0  0
  180.8060  180.0780  143.2080 O   0  0  0  0  0  0  0  0  0  0  0  0
  186.8870  177.8630  145.1820 C   0  0  0  0  0  0  0  0  0  0  0  0
  188.2330  177.5030  145.2950 C   0  0  0  0  0  3  0  0  0  0  0  0
  186.3160  178.0440  143.8960 C   0  0  0  0  0  0  0  0  0  0  0  0
  187.0980  177.8580  142.7500 C   0  0  0  0  0  3  0  0  0  0  0  0
  184.4480  178.7960  141.3450 C   0  0  0  0  0  2  0  0  0  0  0  0
  183.6130  177.8780  140.4420 C   0  0  2  0  0  3  0  0  0  0  0  0
  180.5010  179.6130  140.4440 C   0  0  0  0  0  1  0  0  0  0  0  0
  188.4430  177.4990  142.8780 C   0  0  0  0  0  3  0  0  0  0  0  0
  182.6330  178.6560  138.3750 O   0  0  0  0  0  1  0  0  0  0  0  0
  183.8120  178.1750  138.9530 C   0  0  2  0  0  3  0  0  0  0  0  0
  184.4000  177.0000  138.1540 C   0  0  2  0  0  3  0  0  0  0  0  0
  186.5890  178.0650  137.9750 C   0  0  2  0  0  3  0  0  0  0  0  0
  185.4820  177.5030  137.2090 C   0  0  1  0  0  3  0  0  0  0  0  0
  187.3220  179.0030  137.1440 N   0  0  0  0  0  1  0  0  0  0  0  0
  186.7090  176.7160  137.4040 N   0  0  0  0  0  2  0  0  0  0  0  0
  183.3280  176.2410  137.3790 C   0  0  0  0  0  2  0  0  0  0  0  0
  182.7920  175.2240  138.1720 O   0  0  0  0  0  1  0  0  0  0  0  0
  1 13  2  0  0  0  0
  1 11  1  0  0  0  0
  2  7  1  0  0  0  0
  4  6  1  0  0  0  0
  5  9  1  0  0  0  0
  5 15  2  0  0  0  0
  6  3  1  0  0  0  0
  7  1  1  0  0  0  0
  8  4  2  0  0  0  0
 10 11  2  0  0  0  0
 10 12  1  0  0  0  0
 11  8  1  0  0  0  0
 12 16  2  0  0  0  0
 12  4  1  0  0  0  0
 14 15  1  0  0  0  0
 14  3  2  0  0  0  0
 16 14  1  0  0  0  0
 17 21  2  0  0  0  0
 17 16  1  0  0  0  0
 18 10  1  0  0  0  0
 19 23  1  6  0  0  0
 19  2  1  0  0  0  0
 19 18  1  0  0  0  0
 20  7  1  0  0  0  0
 21  5  1  0  0  0  0
 23 22  1  6  0  0  0
 24 29  1  6  0  0  0
 24 23  1  0  0  0  0
 25 27  1  6  0  0  0
 26 28  1  0  0  0  0
 26 25  1  0  0  0  0
 26 24  1  1  0  0  0
 28 25  1  0  0  0  0
 29 30  1  0  0  0  0
M  END
>  <MODEL>
5

>  <REMARK>
 VINA RESULT:      -8.4      2.649      6.318
  Name = 
  4 active torsions:
  status: ('A' for Active; 'I' for Inactive)
    1  A    between atoms: C_11  and  C_20
    2  A    between atoms: C_17  and  C_20
    3  A    between atoms: C_20  and  C_22
    4  A    between atoms: C_22  and  C_28
                            x       y       z     vdW  Elec       q    Type
                         _______ _______ _______ _____ _____    ______ ____

>  <TORSDO>
F 4

$$$$
=
 OpenBabel11032419133D

 30 34  0  0  1  0  0  0  0  0999 V2000
  189.5140  178.1020  139.5530 C   0  0  0  0  0  0  0  0  0  0  0  0
  190.1810  176.3760  141.2470 C   0  0  0  0  0  2  0  0  0  0  0  0
  183.8850  178.9950  141.1240 N   0  0  0  0  0  0  0  0  0  0  0  0
  186.0760  178.6190  140.3110 C   0  0  0  0  0  0  0  0  0  0  0  0
  183.8600  178.8800  144.7960 C   0  0  0  0  0  0  0  0  0  0  0  0
  184.7320  178.8770  140.0610 C   0  0  0  0  0  3  0  0  0  0  0  0
  190.5410  177.4230  140.2940 N   0  0  0  0  0  0  0  0  0  0  0  0
  187.0570  178.5020  139.3940 N   0  0  0  0  0  0  0  0  0  0  0  0
  182.9600  179.0130  145.8440 O   0  0  0  0  0  1  0  0  0  0  0  0
  187.8950  178.2530  141.4910 C   0  0  0  0  0  0  0  0  0  0  0  0
  188.1730  178.2760  140.1310 C   0  0  0  0  0  0  0  0  0  0  0  0
  186.5420  178.4840  141.5940 C   0  0  0  0  0  0  0  0  0  0  0  0
  189.7530  178.5460  138.3980 O   0  0  0  0  0  0  0  0  0  0  0  0
  184.3180  178.8710  142.4170 C   0  0  2  0  0  3  0  0  0  0  0  0
  183.4150  179.0030  143.4750 C   0  0  0  0  0  3  0  0  0  0  0  0
  185.6860  178.6120  142.6910 C   0  0  0  0  0  0  0  0  0  0  0  0
  186.1230  178.4880  144.0150 C   0  0  0  0  0  3  0  0  0  0  0  0
  188.9110  178.2200  142.5880 C   0  0  0  0  0  2  0  0  0  0  0  0
  189.7380  176.9280  142.6110 C   0  0  2  0  0  3  0  0  0  0  0  0
  191.9270  177.5050  139.8600 C   0  0  0  0  0  1  0  0  0  0  0  0
  185.2100  178.6230  145.0640 C   0  0  0  0  0  3  0  0  0  0  0  0
  192.0550  176.4030  143.0530 O   0  0  0  0  0  1  0  0  0  0  0  0
  190.9100  176.9930  143.5960 C   0  0  2  0  0  3  0  0  0  0  0  0
  190.5860  176.4340  144.9900 C   0  0  2  0  0  3  0  0  0  0  0  0
  189.2730  177.1560  146.9170 C   0  0  2  0  0  3  0  0  0  0  0  0
  189.2460  176.9730  145.4690 C   0  0  1  0  0  3  0  0  0  0  0  0
  187.9150  177.1280  147.4310 N   0  0  0  0  0  1  0  0  0  0  0  0
  189.4310  178.3200  146.0330 N   0  0  0  0  0  2  0  0  0  0  0  0
  191.6810  176.7530  146.0040 C   0  0  0  0  0  2  0  0  0  0  0  0
  192.2330  175.5720  146.5010 O   0  0  0  0  0  1  0  0  0  0  0  0
  1 11  1  0  0  0  0
  1  7  1  0  0  0  0
  2 19  1  0  0  0  0
  3 14  1  0  0  0  0
  4 12  1  0  0  0  0
  5 21  1  0  0  0  0
  5  9  1  0  0  0  0
  6  4  1  0  0  0  0
  6  3  2  0  0  0  0
  7  2  1  0  0  0  0
  8 11  1  0  0  0  0
  8  4  2  0  0  0  0
 10 12  1  0  0  0  0
 10 18  1  0  0  0  0
 11 10  2  0  0  0  0
 12 16  2  0  0  0  0
 13  1  2  0  0  0  0
 14 16  1  0  0  0  0
 14 15  1  1  0  0  0
 15  5  2  0  0  0  0
 16 17  1  0  0  0  0
 17 21  2  0  0  0  0
 18 19  1  0  0  0  0
 19 23  1  1  0  0  0
 20  7  1  0  0  0  0
 23 22  1  6  0  0  0
 23 24  1  0  0  0  0
 24 29  1  1  0  0  0
 25 27  1  1  0  0  0
 26 24  1  6  0  0  0
 26 28  1  0  0  0  0
 26 25  1  0  0  0  0
 28 25  1  0  0  0  0
 29 30  1  0  0  0  0
M  END
>  <MODEL>
6

>  <REMARK>
 VINA RESULT:      -8.3      1.954      5.447
  Name = 
  4 active torsions:
  status: ('A' for Active; 'I' for Inactive)
    1  A    between atoms: C_11  and  C_20
    2  A    between atoms: C_17  and  C_20
    3  A    between atoms: C_20  and  C_22
    4  A    between atoms: C_22  and  C_28
                            x       y       z     vdW  Elec       q    Type
                         _______ _______ _______ _____ _____    ______ ____

>  <TORSDO>
F 4

$$$$
=
 OpenBabel11032419133D

 30 34  0  0  1  0  0  0  0  0999 V2000
  185.5470  178.7540  140.6130 C   0  0  0  0  0  0  0  0  0  0  0  0
  187.1210  177.3240  139.2810 C   0  0  0  0  0  2  0  0  0  0  0  0
  187.2860  177.4030  146.1000 N   0  0  0  0  0  0  0  0  0  0  0  0
  186.4060  177.9130  143.9610 C   0  0  0  0  0  0  0  0  0  0  0  0
  190.9440  177.1150  145.9270 C   0  0  0  0  0  0  0  0  0  0  0  0
  186.2000  177.6620  145.3140 C   0  0  0  0  0  3  0  0  0  0  0  0
  186.2250  178.4740  139.3770 N   0  0  0  0  0  0  0  0  0  0  0  0
  185.4640  178.2140  143.0460 N   0  0  0  0  0  0  0  0  0  0  0  0
  192.0160  176.8510  146.7680 O   0  0  0  0  0  1  0  0  0  0  0  0
  187.5240  178.1970  142.0890 C   0  0  0  0  0  0  0  0  0  0  0  0
  186.1620  178.3870  141.8970 C   0  0  0  0  0  0  0  0  0  0  0  0
  187.6690  177.9010  143.4260 C   0  0  0  0  0  0  0  0  0  0  0  0
  184.4160  179.3090  140.6040 O   0  0  0  0  0  0  0  0  0  0  0  0
  188.5600  177.3900  145.5980 C   0  0  0  0  0  0  0  0  0  0  0  0
  189.6420  177.1250  146.4400 C   0  0  0  0  0  3  0  0  0  0  0  0
  188.7900  177.6480  144.2220 C   0  0  0  0  0  0  0  0  0  0  0  0
  190.0940  177.6330  143.7150 C   0  0  0  0  0  2  0  0  0  0  0  0
  188.5970  178.4950  141.0900 C   0  0  0  0  0  2  0  0  0  0  0  0
  188.5250  177.6050  139.8410 C   0  0  2  0  0  3  0  0  0  0  0  0
  185.7680  179.0880  138.1400 C   0  0  0  0  0  1  0  0  0  0  0  0
  191.1680  177.3680  144.5700 C   0  0  0  0  0  3  0  0  0  0  0  0
  189.1520  179.3320  138.2710 O   0  0  0  0  0  1  0  0  0  0  0  0
  189.4870  178.0570  138.7380 C   0  0  2  0  0  3  0  0  0  0  0  0
  189.6360  177.0500  137.5870 C   0  0  2  0  0  3  0  0  0  0  0  0
  191.7090  176.6010  138.7970 C   0  0  2  0  0  3  0  0  0  0  0  0
  191.0850  176.5950  137.4780 C   0  0  1  0  0  3  0  0  0  0  0  0
  193.1480  176.7130  138.6480 N   0  0  0  0  0  1  0  0  0  0  0  0
  191.2590  175.3310  138.2100 N   0  0  0  0  0  2  0  0  0  0  0  0
  189.1580  177.6240  136.2570 C   0  0  0  0  0  2  0  0  0  0  0  0
  187.9330  177.0580  135.9030 O   0  0  0  0  0  1  0  0  0  0  0  0
  1 11  1  0  0  0  0
  2  7  1  0  0  0  0
  2 19  1  0  0  0  0
  4  6  1  0  0  0  0
  5 15  1  0  0  0  0
  5  9  1  0  0  0  0
  6  3  2  0  0  0  0
  7  1  1  0  0  0  0
  8  4  2  0  0  0  0
 10 12  1  0  0  0  0
 11 10  2  0  0  0  0
 11  8  1  0  0  0  0
 12  4  1  0  0  0  0
 12 16  2  0  0  0  0
 13  1  2  0  0  0  0
 14  3  1  0  0  0  0
 14 15  2  0  0  0  0
 16 14  1  0  0  0  0
 17 16  1  0  0  0  0
 17 21  1  0  0  0  0
 18 10  1  0  0  0  0
 19 23  1  6  0  0  0
 19 18  1  0  0  0  0
 20  7  1  0  0  0  0
 21  5  2  0  0  0  0
 23 22  1  6  0  0  0
 24 29  1  6  0  0  0
 24 23  1  0  0  0  0
 25 27  1  6  0  0  0
 26 24  1  1  0  0  0
 26 28  1  0  0  0  0
 26 25  1  0  0  0  0
 28 25  1  0  0  0  0
 30 29  1  0  0  0  0
M  END
>  <MODEL>
7

>  <REMARK>
 VINA RESULT:      -8.2      2.079      5.407
  Name = 
  4 active torsions:
  status: ('A' for Active; 'I' for Inactive)
    1  A    between atoms: C_11  and  C_20
    2  A    between atoms: C_17  and  C_20
    3  A    between atoms: C_20  and  C_22
    4  A    between atoms: C_22  and  C_28
                            x       y       z     vdW  Elec       q    Type
                         _______ _______ _______ _____ _____    ______ ____

>  <TORSDO>
F 4

$$$$
=
 OpenBabel11032419133D

 30 34  0  0  1  0  0  0  0  0999 V2000
  189.6290  178.0020  139.6990 C   0  0  0  0  0  0  0  0  0  0  0  0
  190.0260  176.4490  141.6290 C   0  0  0  0  0  2  0  0  0  0  0  0
  183.7780  178.7350  140.1240 N   0  0  0  0  0  0  0  0  0  0  0  0
  186.0950  178.4050  139.7630 C   0  0  0  0  0  0  0  0  0  0  0  0
  183.0690  178.9070  143.7240 C   0  0  0  0  0  0  0  0  0  0  0  0
  184.8140  178.5760  139.2490 C   0  0  0  0  0  3  0  0  0  0  0  0
  190.5220  177.4350  140.6720 N   0  0  0  0  0  0  0  0  0  0  0  0
  187.2340  178.2660  139.0570 N   0  0  0  0  0  0  0  0  0  0  0  0
  181.9840  179.0760  144.5730 O   0  0  0  0  0  1  0  0  0  0  0  0
  187.6720  178.2230  141.2850 C   0  0  0  0  0  0  0  0  0  0  0  0
  188.1980  178.1540  140.0030 C   0  0  0  0  0  0  0  0  0  0  0  0
  186.3160  178.3950  141.1170 C   0  0  0  0  0  0  0  0  0  0  0  0
  190.0650  178.3660  138.5730 O   0  0  0  0  0  0  0  0  0  0  0  0
  183.9650  178.7340  141.4800 C   0  0  2  0  0  3  0  0  0  0  0  0
  182.8760  178.9040  142.3390 C   0  0  0  0  0  3  0  0  0  0  0  0
  185.2660  178.5660  142.0230 C   0  0  0  0  0  0  0  0  0  0  0  0
  185.4510  178.5670  143.4110 C   0  0  0  0  0  3  0  0  0  0  0  0
  188.4640  178.3280  142.5500 C   0  0  0  0  0  2  0  0  0  0  0  0
  189.3160  177.0830  142.8360 C   0  0  2  0  0  3  0  0  0  0  0  0
  191.9610  177.5510  140.4950 C   0  0  0  0  0  1  0  0  0  0  0  0
  184.3520  178.7390  144.2570 C   0  0  0  0  0  3  0  0  0  0  0  0
  191.2690  176.2970  144.0210 O   0  0  0  0  0  1  0  0  0  0  0  0
  190.2790  177.2840  144.0100 C   0  0  2  0  0  3  0  0  0  0  0  0
  189.5830  177.4100  145.3740 C   0  0  2  0  0  3  0  0  0  0  0  0
  191.4810  177.0530  146.8680 C   0  0  2  0  0  3  0  0  0  0  0  0
  190.2350  176.4710  146.3790 C   0  0  1  0  0  3  0  0  0  0  0  0
  192.3470  175.9960  147.3590 N   0  0  0  0  0  1  0  0  0  0  0  0
  190.2720  177.1140  147.7020 N   0  0  0  0  0  2  0  0  0  0  0  0
  188.0870  177.1330  145.2820 C   0  0  0  0  0  2  0  0  0  0  0  0
  187.4050  177.8460  146.2700 O   0  0  0  0  0  1  0  0  0  0  0  0
  1 11  1  0  0  0  0
  1  7  1  0  0  0  0
  2 19  1  0  0  0  0
  3 14  1  0  0  0  0
  4 12  1  0  0  0  0
  5 21  1  0  0  0  0
  5  9  1  0  0  0  0
  6  4  1  0  0  0  0
  6  3  2  0  0  0  0
  7  2  1  0  0  0  0
  8  4  2  0  0  0  0
  8 11  1  0  0  0  0
 10 18  1  0  0  0  0
 11 10  2  0  0  0  0
 12 10  1  0  0  0  0
 12 16  2  0  0  0  0
 13  1  2  0  0  0  0
 14 16  1  0  0  0  0
 14 15  1  6  0  0  0
 15  5  2  0  0  0  0
 16 17  1  0  0  0  0
 17 21  2  0  0  0  0
 18 19  1  0  0  0  0
 19 23  1  1  0  0  0
 20  7  1  0  0  0  0
 23 22  1  1  0  0  0
 23 24  1  0  0  0  0
 24 29  1  6  0  0  0
 25 27  1  1  0  0  0
 25 28  1  0  0  0  0
 26 24  1  6  0  0  0
 26 25  1  0  0  0  0
 26 28  1  0  0  0  0
 29 30  1  0  0  0  0
M  END
>  <MODEL>
8

>  <REMARK>
 VINA RESULT:      -8.2      2.143      5.376
  Name = 
  4 active torsions:
  status: ('A' for Active; 'I' for Inactive)
    1  A    between atoms: C_11  and  C_20
    2  A    between atoms: C_17  and  C_20
    3  A    between atoms: C_20  and  C_22
    4  A    between atoms: C_22  and  C_28
                            x       y       z     vdW  Elec       q    Type
                         _______ _______ _______ _____ _____    ______ ____

>  <TORSDO>
F 4

$$$$
=
 OpenBabel11032419133D

 30 34  0  0  1  0  0  0  0  0999 V2000
  182.5790  178.7360  141.7610 C   0  0  0  0  0  0  0  0  0  0  0  0
  183.6600  179.7800  143.7700 C   0  0  0  0  0  2  0  0  0  0  0  0
  187.1840  178.5670  138.0570 N   0  0  0  0  0  0  0  0  0  0  0  0
  185.2360  178.7140  139.3950 C   0  0  0  0  0  0  0  0  0  0  0  0
  190.0840  177.6940  140.1360 C   0  0  0  0  0  0  0  0  0  0  0  0
  185.8410  178.7990  138.1450 C   0  0  0  0  0  3  0  0  0  0  0  0
  182.5920  178.9770  143.1770 N   0  0  0  0  0  0  0  0  0  0  0  0
  183.9260  178.8790  139.6670 N   0  0  0  0  0  0  0  0  0  0  0  0
  191.4450  177.4640  139.9930 O   0  0  0  0  0  1  0  0  0  0  0  0
  185.0760  178.3890  141.5640 C   0  0  0  0  0  0  0  0  0  0  0  0
  183.8390  178.6780  141.0050 C   0  0  0  0  0  0  0  0  0  0  0  0
  185.9670  178.4060  140.5140 C   0  0  0  0  0  0  0  0  0  0  0  0
  181.4850  178.5810  141.1540 O   0  0  0  0  0  0  0  0  0  0  0  0
  187.9410  178.2530  139.1530 C   0  0  2  0  0  3  0  0  0  0  0  0
  189.3120  178.0190  139.0150 C   0  0  0  0  0  3  0  0  0  0  0  0
  187.3400  178.1570  140.4350 C   0  0  0  0  0  0  0  0  0  0  0  0
  188.1190  177.8340  141.5520 C   0  0  0  0  0  3  0  0  0  0  0  0
  185.3140  177.9270  142.9670 C   0  0  0  0  0  2  0  0  0  0  0  0
  184.9480  178.9790  144.0220 C   0  0  2  0  0  3  0  0  0  0  0  0
  181.3930  178.7470  143.9670 C   0  0  0  0  0  1  0  0  0  0  0  0
  189.4890  177.6020  141.3990 C   0  0  0  0  0  3  0  0  0  0  0  0
  183.8830  178.8500  146.1870 O   0  0  0  0  0  1  0  0  0  0  0  0
  184.9920  178.4250  145.4490 C   0  0  2  0  0  3  0  0  0  0  0  0
  186.3100  178.7060  146.1880 C   0  0  2  0  0  3  0  0  0  0  0  0
  188.4100  177.8630  145.2710 C   0  0  2  0  0  3  0  0  0  0  0  0
  187.2390  177.5070  146.0680 C   0  0  1  0  0  3  0  0  0  0  0  0
  188.9890  176.6590  144.7030 N   0  0  0  0  0  1  0  0  0  0  0  0
  188.5160  177.8060  146.7360 N   0  0  0  0  0  2  0  0  0  0  0  0
  186.0810  179.0570  147.6540 C   0  0  0  0  0  2  0  0  0  0  0  0
  186.0710  180.4420  147.8210 O   0  0  0  0  0  1  0  0  0  0  0  0
  1  7  1  0  0  0  0
  2 19  1  0  0  0  0
  3  6  2  0  0  0  0
  3 14  1  0  0  0  0
  4  8  2  0  0  0  0
  4 12  1  0  0  0  0
  5 21  1  0  0  0  0
  6  4  1  0  0  0  0
  7  2  1  0  0  0  0
  7 20  1  0  0  0  0
  8 11  1  0  0  0  0
  9  5  1  0  0  0  0
 10 18  1  0  0  0  0
 11 10  2  0  0  0  0
 11  1  1  0  0  0  0
 12 10  1  0  0  0  0
 13  1  2  0  0  0  0
 14 15  1  6  0  0  0
 14 16  1  0  0  0  0
 15  5  2  0  0  0  0
 16 12  2  0  0  0  0
 16 17  1  0  0  0  0
 18 19  1  0  0  0  0
 19 23  1  1  0  0  0
 21 17  2  0  0  0  0
 23 22  1  1  0  0  0
 23 24  1  0  0  0  0
 24 29  1  1  0  0  0
 25 27  1  6  0  0  0
 25 26  1  0  0  0  0
 25 28  1  0  0  0  0
 26 24  1  1  0  0  0
 26 28  1  0  0  0  0
 29 30  1  0  0  0  0
M  END
>  <MODEL>
9

>  <REMARK>
 VINA RESULT:      -8.1      2.351      7.394
  Name = 
  4 active torsions:
  status: ('A' for Active; 'I' for Inactive)
    1  A    between atoms: C_11  and  C_20
    2  A    between atoms: C_17  and  C_20
    3  A    between atoms: C_20  and  C_22
    4  A    between atoms: C_22  and  C_28
                            x       y       z     vdW  Elec       q    Type
                         _______ _______ _______ _____ _____    ______ ____

>  <TORSDO>
F 4

$$$$
