=
 OpenBabel11042410253D

 29 30  0  0  1  0  0  0  0  0999 V2000
  186.5230  178.1680  145.4640 C   0  0  1  0  0  3  0  0  0  0  0  0
  186.2530  178.7440  141.0100 C   0  0  0  0  0  3  0  0  0  0  0  0
  184.4310  179.5940  145.1940 N   0  0  0  0  0  0  0  0  0  0  0  0
  188.0200  177.3690  142.0780 C   0  0  0  0  0  0  0  0  0  0  0  0
  186.3210  176.9340  146.0830 O   0  0  0  0  0  1  0  0  0  0  0  0
  187.5380  177.2440  143.3300 C   0  0  0  0  0  3  0  0  0  0  0  0
  185.1700  178.1360  141.8320 C   0  0  0  0  0  2  0  0  0  0  0  0
  185.6530  179.5970  147.1720 O   0  0  0  0  0  0  0  0  0  0  0  0
  187.5380  178.3800  141.1050 C   0  0  0  0  0  0  0  0  0  0  0  0
  184.3340  179.2670  143.9420 C   0  0  0  0  0  3  0  0  0  0  0  0
  185.3680  178.4540  143.2760 C   0  0  0  0  0  0  0  0  0  0  0  0
  186.4380  178.0050  143.9640 C   0  0  0  0  0  0  0  0  0  0  0  0
  185.5320  179.1630  145.9970 C   0  0  0  0  0  0  0  0  0  0  0  0
  188.8160  178.5790  138.9020 C   0  0  0  0  0  0  0  0  0  0  0  0
  188.5140  178.9850  140.2450 N   0  0  0  0  0  2  0  0  0  0  0  0
  189.0440  179.4600  138.0350 O   0  0  0  0  0  0  0  0  0  0  0  0
  190.1510  176.5830  138.3220 C   0  0  0  0  0  1  0  0  0  0  0  0
  188.9080  177.2320  138.5400 O   0  0  0  0  0  0  0  0  0  0  0  0
  189.0690  176.5420  141.6550 O   0  0  0  0  0  0  0  0  0  0  0  0
  190.2400  176.3050  142.4270 C   0  0  0  0  0  2  0  0  0  0  0  0
  191.1450  177.5240  142.3570 C   0  0  0  0  0  2  0  0  0  0  0  0
  190.6540  179.1740  144.0270 O   0  0  0  0  0  1  0  0  0  0  0  0
  191.4740  178.0790  143.7400 C   0  0  1  0  0  3  0  0  0  0  0  0
  191.3380  177.0150  144.8220 C   0  0  0  0  0  2  0  0  0  0  0  0
  190.1890  176.8360  146.9420 N   0  0  0  0  0  0  0  0  0  0  0  0
  190.2270  177.3560  145.7560 C   0  0  0  0  0  3  0  0  0  0  0  0
  189.1470  177.1420  147.8720 C   0  0  0  0  0  0  0  0  0  0  0  0
  188.9850  178.5380  148.3560 C   0  0  0  0  0  1  0  0  0  0  0  0
  188.3590  176.2450  148.2820 O   0  0  0  0  0  0  0  0  0  0  0  0
  1 13  1  0  0  0  0
  1  5  1  1  0  0  0
  2  9  2  0  0  0  0
  2  7  1  0  0  0  0
  3 13  1  0  0  0  0
  4  6  2  0  0  0  0
  6 12  1  0  0  0  0
  7 11  1  0  0  0  0
  9  4  1  0  0  0  0
 10  3  2  0  0  0  0
 11 10  1  0  0  0  0
 11 12  2  0  0  0  0
 12  1  1  0  0  0  0
 13  8  2  0  0  0  0
 14 15  1  0  0  0  0
 15  9  1  0  0  0  0
 16 14  2  0  0  0  0
 17 18  1  0  0  0  0
 18 14  1  0  0  0  0
 19  4  1  0  0  0  0
 19 20  1  0  0  0  0
 21 20  1  0  0  0  0
 21 23  1  0  0  0  0
 23 22  1  1  0  0  0
 23 24  1  0  0  0  0
 24 26  1  0  0  0  0
 25 27  1  0  0  0  0
 26 25  2  0  0  0  0
 27 29  2  0  0  0  0
 27 28  1  0  0  0  0
M  END
>  <MODEL>
1

>  <REMARK>
 VINA RESULT:      -7.8      0.000      0.000
  Name = 
  9 active torsions:
  status: ('A' for Active; 'I' for Inactive)
    1  A    between atoms: N_3  and  C_4
    2  A    between atoms: C_6  and  O_16
    3  A    between atoms: C_7  and  O_21
    4  A    between atoms: N_11  and  C_15
    5  A    between atoms: O_16  and  C_26
    6  A    between atoms: C_18  and  C_19
    7  A    between atoms: C_18  and  C_22
    8  A    between atoms: C_19  and  C_29
    9  A    between atoms: C_26  and  C_29
                            x       y       z     vdW  Elec       q    Type
                         _______ _______ _______ _____ _____    ______ ____

>  <TORSDO>
F 9

$$$$
=
 OpenBabel11042410253D

 29 30  0  0  1  0  0  0  0  0999 V2000
  188.3130  178.6840  140.4540 C   0  0  1  0  0  3  0  0  0  0  0  0
  190.5580  176.3440  143.5730 C   0  0  0  0  0  3  0  0  0  0  0  0
  190.1150  177.5000  139.1000 N   0  0  0  0  0  0  0  0  0  0  0  0
  188.5670  177.7220  144.1090 C   0  0  0  0  0  0  0  0  0  0  0  0
  187.0020  178.3860  140.0810 O   0  0  0  0  0  1  0  0  0  0  0  0
  188.0780  177.9710  142.8780 C   0  0  0  0  0  3  0  0  0  0  0  0
  189.9100  175.7260  142.3830 C   0  0  0  0  0  2  0  0  0  0  0  0
  189.1370  179.4740  138.3530 O   0  0  0  0  0  0  0  0  0  0  0  0
  189.9430  177.2290  144.3670 C   0  0  0  0  0  0  0  0  0  0  0  0
  190.3060  176.6390  140.0510 C   0  0  0  0  0  3  0  0  0  0  0  0
  189.6180  176.7600  141.3490 C   0  0  0  0  0  0  0  0  0  0  0  0
  188.7440  177.7640  141.5730 C   0  0  0  0  0  0  0  0  0  0  0  0
  189.2080  178.5950  139.2510 C   0  0  0  0  0  0  0  0  0  0  0  0
  190.6480  177.1390  146.8200 C   0  0  0  0  0  0  0  0  0  0  0  0
  190.6230  177.7450  145.5190 N   0  0  0  0  0  2  0  0  0  0  0  0
  191.7170  177.1600  147.4820 O   0  0  0  0  0  0  0  0  0  0  0  0
  188.6480  177.2820  148.2630 C   0  0  0  0  0  1  0  0  0  0  0  0
  189.5090  176.5660  147.3900 O   0  0  0  0  0  0  0  0  0  0  0  0
  187.7720  177.9790  145.2340 O   0  0  0  0  0  0  0  0  0  0  0  0
  186.4560  177.4650  145.3980 C   0  0  0  0  0  2  0  0  0  0  0  0
  185.4990  178.6110  145.6790 C   0  0  0  0  0  2  0  0  0  0  0  0
  183.2130  179.2460  145.3230 O   0  0  0  0  0  1  0  0  0  0  0  0
  184.3090  178.6190  144.7240 C   0  0  1  0  0  3  0  0  0  0  0  0
  184.6510  179.2950  143.4020 C   0  0  0  0  0  2  0  0  0  0  0  0
  182.8630  178.8040  141.8500 N   0  0  0  0  0  0  0  0  0  0  0  0
  184.0640  178.5400  142.2590 C   0  0  0  0  0  3  0  0  0  0  0  0
  182.2640  178.1100  140.7520 C   0  0  0  0  0  0  0  0  0  0  0  0
  183.0790  177.1480  139.9640 C   0  0  0  0  0  1  0  0  0  0  0  0
  181.0530  178.2970  140.4490 O   0  0  0  0  0  0  0  0  0  0  0  0
  1  5  1  6  0  0  0
  1 12  1  0  0  0  0
  2  9  2  0  0  0  0
  3 13  1  0  0  0  0
  3 10  2  0  0  0  0
  4  9  1  0  0  0  0
  4 19  1  0  0  0  0
  6  4  2  0  0  0  0
  7  2  1  0  0  0  0
  8 13  2  0  0  0  0
  9 15  1  0  0  0  0
 10 11  1  0  0  0  0
 11 12  2  0  0  0  0
 11  7  1  0  0  0  0
 12  6  1  0  0  0  0
 13  1  1  0  0  0  0
 14 18  1  0  0  0  0
 14 16  2  0  0  0  0
 15 14  1  0  0  0  0
 18 17  1  0  0  0  0
 19 20  1  0  0  0  0
 20 21  1  0  0  0  0
 23 22  1  1  0  0  0
 23 21  1  0  0  0  0
 24 23  1  0  0  0  0
 25 26  2  0  0  0  0
 26 24  1  0  0  0  0
 27 25  1  0  0  0  0
 28 27  1  0  0  0  0
 29 27  2  0  0  0  0
M  END
>  <MODEL>
2

>  <REMARK>
 VINA RESULT:      -7.1      2.339      7.329
  Name = 
  9 active torsions:
  status: ('A' for Active; 'I' for Inactive)
    1  A    between atoms: N_3  and  C_4
    2  A    between atoms: C_6  and  O_16
    3  A    between atoms: C_7  and  O_21
    4  A    between atoms: N_11  and  C_15
    5  A    between atoms: O_16  and  C_26
    6  A    between atoms: C_18  and  C_19
    7  A    between atoms: C_18  and  C_22
    8  A    between atoms: C_19  and  C_29
    9  A    between atoms: C_26  and  C_29
                            x       y       z     vdW  Elec       q    Type
                         _______ _______ _______ _____ _____    ______ ____

>  <TORSDO>
F 9

$$$$
=
 OpenBabel11042410253D

 29 30  0  0  1  0  0  0  0  0999 V2000
  188.3840  177.2850  145.9520 C   0  0  1  0  0  3  0  0  0  0  0  0
  191.2890  177.2890  142.5170 C   0  0  0  0  0  3  0  0  0  0  0  0
  190.6260  176.8900  147.0930 N   0  0  0  0  0  0  0  0  0  0  0  0
  188.8610  177.7000  142.2180 C   0  0  0  0  0  0  0  0  0  0  0  0
  187.7020  178.4290  146.3700 O   0  0  0  0  0  1  0  0  0  0  0  0
  188.4670  177.8980  143.4910 C   0  0  0  0  0  3  0  0  0  0  0  0
  191.3840  178.2140  143.6810 C   0  0  0  0  0  2  0  0  0  0  0  0
  188.6310  176.1960  148.0660 O   0  0  0  0  0  0  0  0  0  0  0  0
  190.1530  177.0750  141.8410 C   0  0  0  0  0  0  0  0  0  0  0  0
  191.2650  177.3430  146.0590 C   0  0  0  0  0  3  0  0  0  0  0  0
  190.5610  177.7100  144.8170 C   0  0  0  0  0  0  0  0  0  0  0  0
  189.2180  177.6070  144.7330 C   0  0  0  0  0  0  0  0  0  0  0  0
  189.2040  176.7480  147.0900 C   0  0  0  0  0  0  0  0  0  0  0  0
  190.5970  176.5470  139.3810 C   0  0  0  0  0  0  0  0  0  0  0  0
  190.1570  176.2020  140.7030 N   0  0  0  0  0  2  0  0  0  0  0  0
  191.2430  175.7010  138.7130 O   0  0  0  0  0  0  0  0  0  0  0  0
  189.2920  177.9240  137.7980 C   0  0  0  0  0  1  0  0  0  0  0  0
  190.2890  177.7790  138.7980 O   0  0  0  0  0  0  0  0  0  0  0  0
  188.0040  178.0500  141.1660 O   0  0  0  0  0  0  0  0  0  0  0  0
  186.7420  178.6780  141.3590 C   0  0  0  0  0  2  0  0  0  0  0  0
  185.9570  178.6400  140.0580 C   0  0  0  0  0  2  0  0  0  0  0  0
  184.3760  180.1900  139.1350 O   0  0  0  0  0  1  0  0  0  0  0  0
  184.5870  179.2980  140.1900 C   0  0  1  0  0  3  0  0  0  0  0  0
  183.4670  178.2650  140.2450 C   0  0  0  0  0  2  0  0  0  0  0  0
  183.3490  178.9400  142.5630 N   0  0  0  0  0  0  0  0  0  0  0  0
  182.9350  178.1410  141.6320 C   0  0  0  0  0  3  0  0  0  0  0  0
  182.8600  178.8620  143.9050 C   0  0  0  0  0  0  0  0  0  0  0  0
  183.8120  179.0020  145.0390 C   0  0  0  0  0  1  0  0  0  0  0  0
  181.6330  178.6830  144.1390 O   0  0  0  0  0  0  0  0  0  0  0  0
  1  5  1  1  0  0  0
  1 13  1  0  0  0  0
  2  7  1  0  0  0  0
  4  6  2  0  0  0  0
  6 12  1  0  0  0  0
  7 11  1  0  0  0  0
  9  4  1  0  0  0  0
  9  2  2  0  0  0  0
 10  3  2  0  0  0  0
 11 10  1  0  0  0  0
 12 11  2  0  0  0  0
 12  1  1  0  0  0  0
 13  3  1  0  0  0  0
 13  8  2  0  0  0  0
 14 15  1  0  0  0  0
 15  9  1  0  0  0  0
 16 14  2  0  0  0  0
 17 18  1  0  0  0  0
 18 14  1  0  0  0  0
 19 20  1  0  0  0  0
 19  4  1  0  0  0  0
 21 23  1  0  0  0  0
 21 20  1  0  0  0  0
 23 22  1  6  0  0  0
 23 24  1  0  0  0  0
 24 26  1  0  0  0  0
 25 27  1  0  0  0  0
 26 25  2  0  0  0  0
 27 29  2  0  0  0  0
 27 28  1  0  0  0  0
M  END
>  <MODEL>
3

>  <REMARK>
 VINA RESULT:      -7.0      2.049      5.547
  Name = 
  9 active torsions:
  status: ('A' for Active; 'I' for Inactive)
    1  A    between atoms: N_3  and  C_4
    2  A    between atoms: C_6  and  O_16
    3  A    between atoms: C_7  and  O_21
    4  A    between atoms: N_11  and  C_15
    5  A    between atoms: O_16  and  C_26
    6  A    between atoms: C_18  and  C_19
    7  A    between atoms: C_18  and  C_22
    8  A    between atoms: C_19  and  C_29
    9  A    between atoms: C_26  and  C_29
                            x       y       z     vdW  Elec       q    Type
                         _______ _______ _______ _____ _____    ______ ____

>  <TORSDO>
F 9

$$$$
=
 OpenBabel11042410253D

 29 30  0  0  1  0  0  0  0  0999 V2000
  183.9080  178.0660  141.4450 C   0  0  1  0  0  3  0  0  0  0  0  0
  185.5810  178.8000  145.5570 C   0  0  0  0  0  3  0  0  0  0  0  0
  181.9420  179.0960  142.6910 N   0  0  0  0  0  0  0  0  0  0  0  0
  186.9420  177.8670  143.7040 C   0  0  0  0  0  0  0  0  0  0  0  0
  184.3300  178.7730  140.3180 O   0  0  0  0  0  1  0  0  0  0  0  0
  186.1440  178.1040  142.6440 C   0  0  0  0  0  3  0  0  0  0  0  0
  184.9990  179.8690  144.6980 C   0  0  0  0  0  2  0  0  0  0  0  0
  181.6210  177.7200  140.8440 O   0  0  0  0  0  0  0  0  0  0  0  0
  186.4770  177.9090  145.1130 C   0  0  0  0  0  0  0  0  0  0  0  0
  182.7320  179.5790  143.6000 C   0  0  0  0  0  3  0  0  0  0  0  0
  184.1740  179.2730  143.6080 C   0  0  0  0  0  0  0  0  0  0  0  0
  184.7170  178.4970  142.6460 C   0  0  0  0  0  0  0  0  0  0  0  0
  182.4320  178.2640  141.6370 C   0  0  0  0  0  0  0  0  0  0  0  0
  188.1430  177.1400  146.8900 C   0  0  0  0  0  0  0  0  0  0  0  0
  187.0220  176.9380  146.0170 N   0  0  0  0  0  2  0  0  0  0  0  0
  188.1090  176.6530  148.0490 O   0  0  0  0  0  0  0  0  0  0  0  0
  190.5550  177.1910  146.3580 C   0  0  0  0  0  1  0  0  0  0  0  0
  189.2890  177.8230  146.4750 O   0  0  0  0  0  0  0  0  0  0  0  0
  188.2810  177.5110  143.4970 O   0  0  0  0  0  0  0  0  0  0  0  0
  188.6920  176.2170  143.0720 C   0  0  0  0  0  2  0  0  0  0  0  0
  190.1890  176.2230  142.8130 C   0  0  0  0  0  2  0  0  0  0  0  0
  191.4660  178.2390  143.0670 O   0  0  0  0  0  1  0  0  0  0  0  0
  190.6600  177.5270  142.1740 C   0  0  1  0  0  3  0  0  0  0  0  0
  191.4050  177.2780  140.8680 C   0  0  0  0  0  2  0  0  0  0  0  0
  189.4300  178.1720  139.7960 N   0  0  0  0  0  0  0  0  0  0  0  0
  190.4850  177.4270  139.7040 C   0  0  0  0  0  3  0  0  0  0  0  0
  188.5260  178.3490  138.7030 C   0  0  0  0  0  0  0  0  0  0  0  0
  189.0580  178.3970  137.3150 C   0  0  0  0  0  1  0  0  0  0  0  0
  187.2840  178.4580  138.8980 O   0  0  0  0  0  0  0  0  0  0  0  0
  1  5  1  6  0  0  0
  1 13  1  0  0  0  0
  1 12  1  0  0  0  0
  3 10  2  0  0  0  0
  4  9  1  0  0  0  0
  6 12  1  0  0  0  0
  6  4  2  0  0  0  0
  7  2  1  0  0  0  0
  8 13  2  0  0  0  0
  9  2  2  0  0  0  0
  9 15  1  0  0  0  0
 10 11  1  0  0  0  0
 11  7  1  0  0  0  0
 12 11  2  0  0  0  0
 13  3  1  0  0  0  0
 14 16  2  0  0  0  0
 15 14  1  0  0  0  0
 17 18  1  0  0  0  0
 18 14  1  0  0  0  0
 19  4  1  0  0  0  0
 20 19  1  0  0  0  0
 21 20  1  0  0  0  0
 23 21  1  0  0  0  0
 23 22  1  1  0  0  0
 24 23  1  0  0  0  0
 26 25  2  0  0  0  0
 26 24  1  0  0  0  0
 27 29  2  0  0  0  0
 27 25  1  0  0  0  0
 28 27  1  0  0  0  0
M  END
>  <MODEL>
4

>  <REMARK>
 VINA RESULT:      -6.8      2.275      5.873
  Name = 
  9 active torsions:
  status: ('A' for Active; 'I' for Inactive)
    1  A    between atoms: N_3  and  C_4
    2  A    between atoms: C_6  and  O_16
    3  A    between atoms: C_7  and  O_21
    4  A    between atoms: N_11  and  C_15
    5  A    between atoms: O_16  and  C_26
    6  A    between atoms: C_18  and  C_19
    7  A    between atoms: C_18  and  C_22
    8  A    between atoms: C_19  and  C_29
    9  A    between atoms: C_26  and  C_29
                            x       y       z     vdW  Elec       q    Type
                         _______ _______ _______ _____ _____    ______ ____

>  <TORSDO>
F 9

$$$$
=
 OpenBabel11042410253D

 29 30  0  0  1  0  0  0  0  0999 V2000
  180.9270  179.5900  142.7860 C   0  0  1  0  0  3  0  0  0  0  0  0
  184.2870  178.2280  140.1230 C   0  0  0  0  0  3  0  0  0  0  0  0
  179.8460  179.5280  140.4820 N   0  0  0  0  0  0  0  0  0  0  0  0
  184.5370  178.4630  142.5800 C   0  0  0  0  0  0  0  0  0  0  0  0
  180.3330  178.7630  143.7400 O   0  0  0  0  0  1  0  0  0  0  0  0
  183.2520  178.5900  142.9660 C   0  0  0  0  0  3  0  0  0  0  0  0
  182.9860  177.5140  140.2430 C   0  0  0  0  0  2  0  0  0  0  0  0
  179.0200  180.8950  142.1730 O   0  0  0  0  0  0  0  0  0  0  0  0
  185.0000  178.6360  141.1810 C   0  0  0  0  0  0  0  0  0  0  0  0
  180.7850  178.7560  140.0300 C   0  0  0  0  0  3  0  0  0  0  0  0
  181.9560  178.4030  140.8540 C   0  0  0  0  0  0  0  0  0  0  0  0
  182.0680  178.8580  142.1190 C   0  0  0  0  0  0  0  0  0  0  0  0
  179.8860  180.0560  141.8100 C   0  0  0  0  0  0  0  0  0  0  0  0
  187.5430  178.6250  140.9430 C   0  0  0  0  0  0  0  0  0  0  0  0
  186.2660  179.2790  140.9800 N   0  0  0  0  0  2  0  0  0  0  0  0
  188.4020  179.0080  140.1090 O   0  0  0  0  0  0  0  0  0  0  0  0
  189.1250  176.9310  141.7980 C   0  0  0  0  0  1  0  0  0  0  0  0
  187.8760  177.6040  141.8380 O   0  0  0  0  0  0  0  0  0  0  0  0
  185.5240  178.1980  143.5390 O   0  0  0  0  0  0  0  0  0  0  0  0
  185.4030  178.5590  144.9090 C   0  0  0  0  0  2  0  0  0  0  0  0
  186.6420  178.1010  145.6620 C   0  0  0  0  0  2  0  0  0  0  0  0
  185.3670  178.6730  147.6120 O   0  0  0  0  0  1  0  0  0  0  0  0
  186.6660  178.6110  147.1000 C   0  0  1  0  0  3  0  0  0  0  0  0
  187.5480  177.7450  147.9910 C   0  0  0  0  0  2  0  0  0  0  0  0
  189.6350  176.7320  147.3080 N   0  0  0  0  0  0  0  0  0  0  0  0
  188.9700  177.8170  147.5500 C   0  0  0  0  0  3  0  0  0  0  0  0
  190.9970  176.7550  146.8760 C   0  0  0  0  0  0  0  0  0  0  0  0
  191.3020  176.7540  145.4200 C   0  0  0  0  0  1  0  0  0  0  0  0
  191.9430  176.7830  147.7100 O   0  0  0  0  0  0  0  0  0  0  0  0
  1  5  1  1  0  0  0
  2  7  1  0  0  0  0
  2  9  2  0  0  0  0
  3 13  1  0  0  0  0
  4  6  2  0  0  0  0
  4 19  1  0  0  0  0
  7 11  1  0  0  0  0
  9  4  1  0  0  0  0
 10  3  2  0  0  0  0
 10 11  1  0  0  0  0
 11 12  2  0  0  0  0
 12  1  1  0  0  0  0
 12  6  1  0  0  0  0
 13  8  2  0  0  0  0
 13  1  1  0  0  0  0
 14 15  1  0  0  0  0
 14 18  1  0  0  0  0
 15  9  1  0  0  0  0
 16 14  2  0  0  0  0
 17 18  1  0  0  0  0
 19 20  1  0  0  0  0
 20 21  1  0  0  0  0
 21 23  1  0  0  0  0
 23 22  1  1  0  0  0
 23 24  1  0  0  0  0
 25 26  2  0  0  0  0
 26 24  1  0  0  0  0
 27 25  1  0  0  0  0
 27 29  2  0  0  0  0
 28 27  1  0  0  0  0
M  END
>  <MODEL>
5

>  <REMARK>
 VINA RESULT:      -6.7      3.218      4.695
  Name = 
  9 active torsions:
  status: ('A' for Active; 'I' for Inactive)
    1  A    between atoms: N_3  and  C_4
    2  A    between atoms: C_6  and  O_16
    3  A    between atoms: C_7  and  O_21
    4  A    between atoms: N_11  and  C_15
    5  A    between atoms: O_16  and  C_26
    6  A    between atoms: C_18  and  C_19
    7  A    between atoms: C_18  and  C_22
    8  A    between atoms: C_19  and  C_29
    9  A    between atoms: C_26  and  C_29
                            x       y       z     vdW  Elec       q    Type
                         _______ _______ _______ _____ _____    ______ ____

>  <TORSDO>
F 9

$$$$
=
 OpenBabel11042410253D

 29 30  0  0  1  0  0  0  0  0999 V2000
  183.4240  178.2000  140.8540 C   0  0  1  0  0  3  0  0  0  0  0  0
  185.3970  178.6730  144.8690 C   0  0  0  0  0  3  0  0  0  0  0  0
  181.4620  178.6690  142.4070 N   0  0  0  0  0  0  0  0  0  0  0  0
  186.6810  178.2680  142.7860 C   0  0  0  0  0  0  0  0  0  0  0  0
  183.5880  179.1180  139.8150 O   0  0  0  0  0  1  0  0  0  0  0  0
  185.7400  178.4920  141.8470 C   0  0  0  0  0  3  0  0  0  0  0  0
  184.5470  179.7210  144.2370 C   0  0  0  0  0  2  0  0  0  0  0  0
  181.1770  177.5180  140.4070 O   0  0  0  0  0  0  0  0  0  0  0  0
  186.3770  178.0330  144.2190 C   0  0  0  0  0  0  0  0  0  0  0  0
  182.2550  179.1640  143.3070 C   0  0  0  0  0  3  0  0  0  0  0  0
  183.7190  179.1330  143.1440 C   0  0  0  0  0  0  0  0  0  0  0  0
  184.2770  178.6090  142.0320 C   0  0  0  0  0  0  0  0  0  0  0  0
  181.9670  178.0920  141.2010 C   0  0  0  0  0  0  0  0  0  0  0  0
  188.3480  177.3550  145.6960 C   0  0  0  0  0  0  0  0  0  0  0  0
  187.1790  177.0680  144.9140 N   0  0  0  0  0  2  0  0  0  0  0  0
  188.5340  176.7260  146.7680 O   0  0  0  0  0  0  0  0  0  0  0  0
  190.6170  177.8970  144.8810 C   0  0  0  0  0  1  0  0  0  0  0  0
  189.3080  178.2800  145.2770 O   0  0  0  0  0  0  0  0  0  0  0  0
  188.0290  178.1990  142.4110 O   0  0  0  0  0  0  0  0  0  0  0  0
  188.6370  177.0280  141.8790 C   0  0  0  0  0  2  0  0  0  0  0  0
  189.5440  177.4120  140.7230 C   0  0  0  0  0  2  0  0  0  0  0  0
  188.8550  178.9610  139.0250 O   0  0  0  0  0  1  0  0  0  0  0  0
  188.7690  177.6250  139.4250 C   0  0  1  0  0  3  0  0  0  0  0  0
  189.2630  176.7050  138.3150 C   0  0  0  0  0  2  0  0  0  0  0  0
  191.6370  176.7410  137.8570 N   0  0  0  0  0  0  0  0  0  0  0  0
  190.6660  176.2750  138.5770 C   0  0  0  0  0  3  0  0  0  0  0  0
  192.9980  176.3630  138.0780 C   0  0  0  0  0  0  0  0  0  0  0  0
  193.6360  175.3710  137.1720 C   0  0  0  0  0  1  0  0  0  0  0  0
  193.6650  176.8620  139.0250 O   0  0  0  0  0  0  0  0  0  0  0  0
  1  5  1  6  0  0  0
  1 13  1  0  0  0  0
  1 12  1  0  0  0  0
  3 10  2  0  0  0  0
  4  9  1  0  0  0  0
  6 12  1  0  0  0  0
  6  4  2  0  0  0  0
  7  2  1  0  0  0  0
  8 13  2  0  0  0  0
  9  2  2  0  0  0  0
  9 15  1  0  0  0  0
 11 10  1  0  0  0  0
 11  7  1  0  0  0  0
 12 11  2  0  0  0  0
 13  3  1  0  0  0  0
 14 16  2  0  0  0  0
 15 14  1  0  0  0  0
 17 18  1  0  0  0  0
 18 14  1  0  0  0  0
 19  4  1  0  0  0  0
 20 19  1  0  0  0  0
 21 20  1  0  0  0  0
 23 22  1  6  0  0  0
 23 21  1  0  0  0  0
 24 26  1  0  0  0  0
 24 23  1  0  0  0  0
 25 27  1  0  0  0  0
 25 26  2  0  0  0  0
 27 29  2  0  0  0  0
 28 27  1  0  0  0  0
M  END
>  <MODEL>
6

>  <REMARK>
 VINA RESULT:      -6.6      2.871      6.308
  Name = 
  9 active torsions:
  status: ('A' for Active; 'I' for Inactive)
    1  A    between atoms: N_3  and  C_4
    2  A    between atoms: C_6  and  O_16
    3  A    between atoms: C_7  and  O_21
    4  A    between atoms: N_11  and  C_15
    5  A    between atoms: O_16  and  C_26
    6  A    between atoms: C_18  and  C_19
    7  A    between atoms: C_18  and  C_22
    8  A    between atoms: C_19  and  C_29
    9  A    between atoms: C_26  and  C_29
                            x       y       z     vdW  Elec       q    Type
                         _______ _______ _______ _____ _____    ______ ____

>  <TORSDO>
F 9

$$$$
=
 OpenBabel11042410253D

 29 30  0  0  1  0  0  0  0  0999 V2000
  187.9190  177.3400  146.3010 C   0  0  1  0  0  3  0  0  0  0  0  0
  190.4890  177.6830  142.6240 C   0  0  0  0  0  3  0  0  0  0  0  0
  190.2800  177.0980  147.2230 N   0  0  0  0  0  0  0  0  0  0  0  0
  188.0190  177.9010  142.5560 C   0  0  0  0  0  0  0  0  0  0  0  0
  187.1890  178.4110  146.8180 O   0  0  0  0  0  1  0  0  0  0  0  0
  187.7280  178.0280  143.8660 C   0  0  0  0  0  3  0  0  0  0  0  0
  190.6160  178.5780  143.8070 C   0  0  0  0  0  2  0  0  0  0  0  0
  188.4430  176.2150  148.3430 O   0  0  0  0  0  0  0  0  0  0  0  0
  189.3170  177.3960  142.0440 C   0  0  0  0  0  0  0  0  0  0  0  0
  190.7840  177.6320  146.1540 C   0  0  0  0  0  3  0  0  0  0  0  0
  189.9430  177.9750  144.9940 C   0  0  0  0  0  0  0  0  0  0  0  0
  188.6100  177.7650  145.0250 C   0  0  0  0  0  0  0  0  0  0  0  0
  188.8790  176.8390  147.3420 C   0  0  0  0  0  0  0  0  0  0  0  0
  190.0170  176.7840  139.6650 C   0  0  0  0  0  0  0  0  0  0  0  0
  189.2860  176.5590  140.8800 N   0  0  0  0  0  2  0  0  0  0  0  0
  190.5260  175.8010  139.0680 O   0  0  0  0  0  0  0  0  0  0  0  0
  189.0730  178.7040  138.4300 C   0  0  0  0  0  1  0  0  0  0  0  0
  190.1420  178.0560  139.1020 O   0  0  0  0  0  0  0  0  0  0  0  0
  187.0440  178.2100  141.5980 O   0  0  0  0  0  0  0  0  0  0  0  0
  185.9520  179.0870  141.8450 C   0  0  0  0  0  2  0  0  0  0  0  0
  184.7160  178.2690  142.1820 C   0  0  0  0  0  2  0  0  0  0  0  0
  184.6610  179.8760  143.9620 O   0  0  0  0  0  1  0  0  0  0  0  0
  184.1020  178.6740  143.5190 C   0  0  1  0  0  3  0  0  0  0  0  0
  182.5850  178.7940  143.4310 C   0  0  0  0  0  2  0  0  0  0  0  0
  180.9420  179.2990  141.7310 N   0  0  0  0  0  0  0  0  0  0  0  0
  182.1530  178.9340  142.0110 C   0  0  0  0  0  3  0  0  0  0  0  0
  180.4870  179.4550  140.3840 C   0  0  0  0  0  0  0  0  0  0  0  0
  180.1040  180.8050  139.8930 C   0  0  0  0  0  1  0  0  0  0  0  0
  180.4120  178.4640  139.6060 O   0  0  0  0  0  0  0  0  0  0  0  0
  1  5  1  1  0  0  0
  1 13  1  0  0  0  0
  2  7  1  0  0  0  0
  3 13  1  0  0  0  0
  4  6  2  0  0  0  0
  6 12  1  0  0  0  0
  7 11  1  0  0  0  0
  9  4  1  0  0  0  0
  9  2  2  0  0  0  0
 10  3  2  0  0  0  0
 11 12  2  0  0  0  0
 11 10  1  0  0  0  0
 12  1  1  0  0  0  0
 13  8  2  0  0  0  0
 14 15  1  0  0  0  0
 15  9  1  0  0  0  0
 16 14  2  0  0  0  0
 17 18  1  0  0  0  0
 18 14  1  0  0  0  0
 19 20  1  0  0  0  0
 19  4  1  0  0  0  0
 20 21  1  0  0  0  0
 21 23  1  0  0  0  0
 23 22  1  6  0  0  0
 24 23  1  0  0  0  0
 25 26  2  0  0  0  0
 26 24  1  0  0  0  0
 27 25  1  0  0  0  0
 28 27  1  0  0  0  0
 29 27  2  0  0  0  0
M  END
>  <MODEL>
7

>  <REMARK>
 VINA RESULT:      -6.3      2.799      6.304
  Name = 
  9 active torsions:
  status: ('A' for Active; 'I' for Inactive)
    1  A    between atoms: N_3  and  C_4
    2  A    between atoms: C_6  and  O_16
    3  A    between atoms: C_7  and  O_21
    4  A    between atoms: N_11  and  C_15
    5  A    between atoms: O_16  and  C_26
    6  A    between atoms: C_18  and  C_19
    7  A    between atoms: C_18  and  C_22
    8  A    between atoms: C_19  and  C_29
    9  A    between atoms: C_26  and  C_29
                            x       y       z     vdW  Elec       q    Type
                         _______ _______ _______ _____ _____    ______ ____

>  <TORSDO>
F 9

$$$$
=
 OpenBabel11042410253D

 29 30  0  0  1  0  0  0  0  0999 V2000
  190.7450  178.5100  142.8230 C   0  0  1  0  0  3  0  0  0  0  0  0
  186.4540  177.3770  143.5580 C   0  0  0  0  0  3  0  0  0  0  0  0
  190.8140  177.4690  145.1450 N   0  0  0  0  0  0  0  0  0  0  0  0
  187.2240  178.3960  141.4320 C   0  0  0  0  0  0  0  0  0  0  0  0
  191.5430  177.8790  141.8680 O   0  0  0  0  0  1  0  0  0  0  0  0
  188.5610  178.2800  141.5510 C   0  0  0  0  0  3  0  0  0  0  0  0
  187.5830  176.4060  143.5950 C   0  0  0  0  0  2  0  0  0  0  0  0
  192.4210  179.0010  144.4550 O   0  0  0  0  0  0  0  0  0  0  0  0
  186.2780  178.2600  142.5680 C   0  0  0  0  0  0  0  0  0  0  0  0
  189.6740  176.8810  144.9480 C   0  0  0  0  0  3  0  0  0  0  0  0
  188.8840  177.1230  143.7270 C   0  0  0  0  0  0  0  0  0  0  0  0
  189.3430  177.9490  142.7640 C   0  0  0  0  0  0  0  0  0  0  0  0
  191.3730  178.3600  144.1790 C   0  0  0  0  0  0  0  0  0  0  0  0
  183.7790  178.7400  142.3450 C   0  0  0  0  0  0  0  0  0  0  0  0
  185.1390  179.1310  142.5850 N   0  0  0  0  0  2  0  0  0  0  0  0
  182.8650  179.2530  143.0380 O   0  0  0  0  0  0  0  0  0  0  0  0
  182.9110  178.2560  140.0820 C   0  0  0  0  0  1  0  0  0  0  0  0
  183.4380  177.8380  141.3330 O   0  0  0  0  0  0  0  0  0  0  0  0
  186.6650  178.7100  140.1850 O   0  0  0  0  0  0  0  0  0  0  0  0
  186.4880  177.7580  139.1430 C   0  0  0  0  0  2  0  0  0  0  0  0
  186.8880  178.3830  137.8170 C   0  0  0  0  0  2  0  0  0  0  0  0
  189.0540  179.3780  138.0830 O   0  0  0  0  0  1  0  0  0  0  0  0
  188.3870  178.2710  137.5540 C   0  0  1  0  0  3  0  0  0  0  0  0
  188.9650  176.9800  138.1230 C   0  0  0  0  0  2  0  0  0  0  0  0
  191.2960  176.6610  138.6800 N   0  0  0  0  0  0  0  0  0  0  0  0
  190.4040  176.8460  137.7590 C   0  0  0  0  0  3  0  0  0  0  0  0
  192.6860  176.5190  138.3760 C   0  0  0  0  0  0  0  0  0  0  0  0
  193.0950  175.7360  137.1800 C   0  0  0  0  0  1  0  0  0  0  0  0
  193.5680  177.0530  139.1030 O   0  0  0  0  0  0  0  0  0  0  0  0
  1  5  1  6  0  0  0
  1 13  1  0  0  0  0
  2  7  1  0  0  0  0
  4  6  2  0  0  0  0
  4  9  1  0  0  0  0
  6 12  1  0  0  0  0
  7 11  1  0  0  0  0
  9 15  1  0  0  0  0
  9  2  2  0  0  0  0
 10  3  2  0  0  0  0
 11 10  1  0  0  0  0
 12  1  1  0  0  0  0
 12 11  2  0  0  0  0
 13  8  2  0  0  0  0
 13  3  1  0  0  0  0
 14 15  1  0  0  0  0
 14 16  2  0  0  0  0
 17 18  1  0  0  0  0
 18 14  1  0  0  0  0
 19  4  1  0  0  0  0
 20 19  1  0  0  0  0
 21 20  1  0  0  0  0
 23 21  1  0  0  0  0
 23 22  1  1  0  0  0
 23 24  1  0  0  0  0
 26 24  1  0  0  0  0
 26 25  2  0  0  0  0
 27 25  1  0  0  0  0
 27 29  2  0  0  0  0
 28 27  1  0  0  0  0
M  END
>  <MODEL>
8

>  <REMARK>
 VINA RESULT:      -6.3      2.582      6.503
  Name = 
  9 active torsions:
  status: ('A' for Active; 'I' for Inactive)
    1  A    between atoms: N_3  and  C_4
    2  A    between atoms: C_6  and  O_16
    3  A    between atoms: C_7  and  O_21
    4  A    between atoms: N_11  and  C_15
    5  A    between atoms: O_16  and  C_26
    6  A    between atoms: C_18  and  C_19
    7  A    between atoms: C_18  and  C_22
    8  A    between atoms: C_19  and  C_29
    9  A    between atoms: C_26  and  C_29
                            x       y       z     vdW  Elec       q    Type
                         _______ _______ _______ _____ _____    ______ ____

>  <TORSDO>
F 9

$$$$
=
 OpenBabel11042410253D

 29 30  0  0  1  0  0  0  0  0999 V2000
  188.3320  177.5630  141.9600 C   0  0  1  0  0  3  0  0  0  0  0  0
  184.6270  178.2480  139.5020 C   0  0  0  0  0  3  0  0  0  0  0  0
  189.1600  177.2520  139.5730 N   0  0  0  0  0  0  0  0  0  0  0  0
  184.6520  178.4580  141.9730 C   0  0  0  0  0  0  0  0  0  0  0  0
  188.9650  178.5790  142.6770 O   0  0  0  0  0  1  0  0  0  0  0  0
  185.9750  178.4660  142.2250 C   0  0  0  0  0  3  0  0  0  0  0  0
  185.8820  179.0340  139.3420 C   0  0  0  0  0  2  0  0  0  0  0  0
  190.2490  176.2610  141.3730 O   0  0  0  0  0  0  0  0  0  0  0  0
  184.0580  178.0080  140.6900 C   0  0  0  0  0  0  0  0  0  0  0  0
  188.1280  177.8820  139.1020 C   0  0  0  0  0  3  0  0  0  0  0  0
  187.0290  178.3230  139.9780 C   0  0  0  0  0  0  0  0  0  0  0  0
  187.0800  178.1040  141.3090 C   0  0  0  0  0  0  0  0  0  0  0  0
  189.2950  176.9760  140.9680 C   0  0  0  0  0  0  0  0  0  0  0  0
  181.5460  177.7530  140.3080 C   0  0  0  0  0  0  0  0  0  0  0  0
  182.8250  177.2790  140.7530 N   0  0  0  0  0  2  0  0  0  0  0  0
  180.7690  176.9560  139.7220 O   0  0  0  0  0  0  0  0  0  0  0  0
  180.5500  179.4690  141.7810 C   0  0  0  0  0  1  0  0  0  0  0  0
  181.1190  179.0630  140.5450 O   0  0  0  0  0  0  0  0  0  0  0  0
  183.7540  178.8460  142.9770 O   0  0  0  0  0  0  0  0  0  0  0  0
  184.1070  179.7020  144.0570 C   0  0  0  0  0  2  0  0  0  0  0  0
  184.2860  178.8740  145.3180 C   0  0  0  0  0  2  0  0  0  0  0  0
  185.6710  179.3600  147.2150 O   0  0  0  0  0  1  0  0  0  0  0  0
  185.7040  178.9660  145.8750 C   0  0  1  0  0  3  0  0  0  0  0  0
  186.4560  177.6490  145.7260 C   0  0  0  0  0  2  0  0  0  0  0  0
  188.7810  176.9890  145.7560 N   0  0  0  0  0  0  0  0  0  0  0  0
  187.8650  177.7940  146.1900 C   0  0  0  0  0  3  0  0  0  0  0  0
  190.1460  177.0980  146.1680 C   0  0  0  0  0  0  0  0  0  0  0  0
  191.1910  177.4160  145.1590 C   0  0  0  0  0  1  0  0  0  0  0  0
  190.4750  176.9340  147.3750 O   0  0  0  0  0  0  0  0  0  0  0  0
  1  5  1  6  0  0  0
  2  9  2  0  0  0  0
  3 13  1  0  0  0  0
  4  6  2  0  0  0  0
  4 19  1  0  0  0  0
  7  2  1  0  0  0  0
  7 11  1  0  0  0  0
  9 15  1  0  0  0  0
  9  4  1  0  0  0  0
 10  3  2  0  0  0  0
 10 11  1  0  0  0  0
 11 12  2  0  0  0  0
 12  1  1  0  0  0  0
 12  6  1  0  0  0  0
 13  8  2  0  0  0  0
 13  1  1  0  0  0  0
 14 18  1  0  0  0  0
 14 15  1  0  0  0  0
 16 14  2  0  0  0  0
 18 17  1  0  0  0  0
 19 20  1  0  0  0  0
 20 21  1  0  0  0  0
 21 23  1  0  0  0  0
 23 22  1  1  0  0  0
 24 23  1  0  0  0  0
 24 26  1  0  0  0  0
 25 27  1  0  0  0  0
 25 26  2  0  0  0  0
 27 29  2  0  0  0  0
 28 27  1  0  0  0  0
M  END
>  <MODEL>
9

>  <REMARK>
 VINA RESULT:      -6.3      2.969      5.689
  Name = 
  9 active torsions:
  status: ('A' for Active; 'I' for Inactive)
    1  A    between atoms: N_3  and  C_4
    2  A    between atoms: C_6  and  O_16
    3  A    between atoms: C_7  and  O_21
    4  A    between atoms: N_11  and  C_15
    5  A    between atoms: O_16  and  C_26
    6  A    between atoms: C_18  and  C_19
    7  A    between atoms: C_18  and  C_22
    8  A    between atoms: C_19  and  C_29
    9  A    between atoms: C_26  and  C_29
                            x       y       z     vdW  Elec       q    Type
                         _______ _______ _______ _____ _____    ______ ____

>  <TORSDO>
F 9

$$$$
