=
 OpenBabel11042410433D

 38 42  0  0  0  0  0  0  0  0999 V2000
  188.0450  177.8890  137.7100 C   0  0  0  0  0  0  0  0  0  0  0  0
  188.7080  177.4910  138.8700 C   0  0  0  0  0  0  0  0  0  0  0  0
  189.6090  176.4820  136.4510 C   0  0  0  0  0  3  0  0  0  0  0  0
  189.7700  176.6390  138.8390 C   0  0  0  0  0  0  0  0  0  0  0  0
  190.2540  176.1060  137.6430 C   0  0  0  0  0  0  0  0  0  0  0  0
  190.2290  176.4300  140.0820 N   0  0  0  0  0  0  0  0  0  0  0  0
  188.4500  177.8560  140.1340 N   0  0  0  0  0  2  0  0  0  0  0  0
  188.5100  177.3700  136.4820 C   0  0  0  0  0  3  0  0  0  0  0  0
  189.3970  177.1860  140.8430 C   0  0  0  0  0  0  0  0  0  0  0  0
  187.2470  177.5350  146.5350 C   0  0  0  0  0  3  0  0  0  0  0  0
  189.6280  177.5190  145.0670 C   0  0  0  0  0  0  0  0  0  0  0  0
  190.7520  177.4000  142.9840 C   0  0  0  0  0  0  0  0  0  0  0  0
  187.2020  177.4350  145.1410 C   0  0  0  0  0  3  0  0  0  0  0  0
  188.3900  177.4280  144.4050 C   0  0  0  0  0  0  0  0  0  0  0  0
  189.5120  177.3070  142.3130 C   0  0  0  0  0  0  0  0  0  0  0  0
  188.4790  177.6280  147.1930 C   0  0  0  0  0  3  0  0  0  0  0  0
  191.9900  177.3550  142.2760 N   0  0  0  0  0  1  0  0  0  0  0  0
  188.3670  177.3240  143.0530 N   0  0  0  0  0  0  0  0  0  0  0  0
  189.6710  177.6180  146.4600 C   0  0  0  0  0  3  0  0  0  0  0  0
  190.7740  177.5000  144.3400 N   0  0  0  0  0  0  0  0  0  0  0  0
  191.6620  175.0020  137.6140 S   0  0  0  0  0  0  0  0  0  0  0  0
  192.8360  176.3650  137.3780 C   0  0  0  0  0  2  0  0  0  0  0  0
  193.6760  176.0900  136.1440 C   0  0  0  0  0  2  0  0  0  0  0  0
  195.0920  176.1260  136.4790 N   0  0  0  0  0  0  0  0  0  0  0  0
  196.8560  174.5070  136.2880 C   0  0  0  0  0  2  0  0  0  0  0  0
  197.1250  175.6340  135.3230 C   0  0  0  0  0  2  0  0  0  0  0  0
  195.4710  174.7680  136.8430 C   0  0  0  0  0  2  0  0  0  0  0  0
  195.8270  176.4040  135.2530 C   0  0  0  0  0  2  0  0  0  0  0  0
  186.9340  178.7880  137.7780 N   0  0  0  0  0  2  0  0  0  0  0  0
  185.6230  178.3800  138.2580 C   0  0  0  0  0  2  0  0  0  0  0  0
  185.1380  179.3350  139.1500 O   0  0  0  0  0  0  0  0  0  0  0  0
  184.7180  178.5990  140.2580 C   0  0  0  0  0  2  0  0  0  0  0  0
  185.3460  179.1700  141.5140 C   0  0  0  0  0  2  0  0  0  0  0  0
  184.7880  178.5070  142.6790 N   0  0  0  0  0  2  0  0  0  0  0  0
  184.5760  179.5360  143.6810 C   0  0  0  0  0  2  0  0  0  0  0  0
  183.5750  179.0650  144.6780 C   0  0  0  0  0  0  0  0  0  0  0  0
  182.4180  178.7420  144.3020 O   0  0  0  0  0  0  0  0  0  0  0  0
  183.9280  178.9560  146.0180 O   0  0  0  0  0  1  0  0  0  0  0  0
  1 29  1  0  0  0  0
  1  2  1  0  0  0  0
  2  7  1  0  0  0  0
  3  8  1  0  0  0  0
  3  5  2  0  0  0  0
  4  2  2  0  0  0  0
  4  6  1  0  0  0  0
  5  4  1  0  0  0  0
  6  9  2  0  0  0  0
  7  9  1  0  0  0  0
  8  1  2  0  0  0  0
  9 15  1  0  0  0  0
 10 16  1  0  0  0  0
 11 19  1  0  0  0  0
 12 20  1  0  0  0  0
 13 10  2  0  0  0  0
 14 11  1  0  0  0  0
 14 13  1  0  0  0  0
 15 12  2  0  0  0  0
 15 18  1  0  0  0  0
 17 12  1  0  0  0  0
 18 14  2  0  0  0  0
 19 16  2  0  0  0  0
 20 11  2  0  0  0  0
 21  5  1  0  0  0  0
 22 21  1  0  0  0  0
 23 24  1  0  0  0  0
 23 22  1  0  0  0  0
 24 27  1  0  0  0  0
 25 27  1  0  0  0  0
 26 25  1  0  0  0  0
 28 26  1  0  0  0  0
 28 24  1  0  0  0  0
 29 30  1  0  0  0  0
 30 31  1  0  0  0  0
 31 32  1  0  0  0  0
 32 33  1  0  0  0  0
 33 34  1  0  0  0  0
 34 35  1  0  0  0  0
 35 36  1  0  0  0  0
 36 38  1  0  0  0  0
 37 36  2  0  0  0  0
M  END
>  <MODEL>
1

>  <REMARK>
 VINA RESULT:      -8.2      0.000      0.000
  Name = 
  13 active torsions:
  status: ('A' for Active; 'I' for Inactive)
    1  A    between atoms: C_2  and  C_3
    2  A    between atoms: C_3  and  N_27
    3  A    between atoms: C_5  and  N_28
    4  A    between atoms: N_6  and  C_14
    5  A    between atoms: C_13  and  S_15
    6  A    between atoms: C_14  and  C_18
    7  A    between atoms: S_15  and  C_18
    8  A    between atoms: C_20  and  C_36
    9  A    between atoms: C_22  and  O_23
   10  A    between atoms: C_22  and  N_28
   11  A    between atoms: O_23  and  C_29
   12  A    between atoms: C_26  and  N_27
   13  A    between atoms: C_26  and  C_29
                            x       y       z     vdW  Elec       q    Type
                         _______ _______ _______ _____ _____    ______ ____

>  <TORSDO>
F 13

$$$$
=
 OpenBabel11042410433D

 38 42  0  0  0  0  0  0  0  0999 V2000
  184.9070  178.6480  139.7240 C   0  0  0  0  0  0  0  0  0  0  0  0
  184.7820  178.5850  141.1120 C   0  0  0  0  0  0  0  0  0  0  0  0
  182.4620  178.7830  139.6100 C   0  0  0  0  0  3  0  0  0  0  0  0
  183.5700  178.6130  141.7300 C   0  0  0  0  0  0  0  0  0  0  0  0
  182.3770  178.7140  141.0130 C   0  0  0  0  0  0  0  0  0  0  0  0
  183.7290  178.5250  143.0590 N   0  0  0  0  0  0  0  0  0  0  0  0
  185.7600  178.4800  142.0230 N   0  0  0  0  0  2  0  0  0  0  0  0
  183.7200  178.7500  138.9670 C   0  0  0  0  0  3  0  0  0  0  0  0
  185.0780  178.4490  143.1990 C   0  0  0  0  0  0  0  0  0  0  0  0
  189.7950  177.2090  146.8520 C   0  0  0  0  0  3  0  0  0  0  0  0
  187.1250  178.0460  146.8930 C   0  0  0  0  0  0  0  0  0  0  0  0
  185.1330  178.6010  145.7370 C   0  0  0  0  0  0  0  0  0  0  0  0
  189.0910  177.3430  145.6520 C   0  0  0  0  0  3  0  0  0  0  0  0
  187.7570  177.7600  145.6690 C   0  0  0  0  0  0  0  0  0  0  0  0
  185.7620  178.3150  144.5040 C   0  0  0  0  0  0  0  0  0  0  0  0
  189.1650  177.4920  148.0700 C   0  0  0  0  0  3  0  0  0  0  0  0
  183.7870  179.0690  145.7980 N   0  0  0  0  0  1  0  0  0  0  0  0
  187.0610  177.9020  144.5130 N   0  0  0  0  0  0  0  0  0  0  0  0
  187.8310  177.9130  148.0920 C   0  0  0  0  0  3  0  0  0  0  0  0
  185.8340  178.4610  146.8940 N   0  0  0  0  0  0  0  0  0  0  0  0
  180.7890  178.7310  141.8370 S   0  0  0  0  0  0  0  0  0  0  0  0
  179.9060  179.1700  140.3140 C   0  0  0  0  0  2  0  0  0  0  0  0
  179.5730  180.6510  140.3420 C   0  0  0  0  0  2  0  0  0  0  0  0
  179.3530  181.1430  138.9900 N   0  0  0  0  0  0  0  0  0  0  0  0
  180.8260  181.5280  137.1310 C   0  0  0  0  0  2  0  0  0  0  0  0
  179.9050  180.3830  136.7920 C   0  0  0  0  0  2  0  0  0  0  0  0
  180.5700  181.8370  138.5930 C   0  0  0  0  0  2  0  0  0  0  0  0
  179.2750  179.9880  138.1070 C   0  0  0  0  0  2  0  0  0  0  0  0
  186.1970  178.6140  139.1070 N   0  0  0  0  0  2  0  0  0  0  0  0
  186.4020  178.1540  137.7420 C   0  0  0  0  0  2  0  0  0  0  0  0
  187.5110  177.3110  137.6970 O   0  0  0  0  0  0  0  0  0  0  0  0
  188.5210  178.0260  138.3410 C   0  0  0  0  0  2  0  0  0  0  0  0
  189.2270  177.1250  139.3340 C   0  0  0  0  0  2  0  0  0  0  0  0
  189.6120  177.8990  140.5010 N   0  0  0  0  0  2  0  0  0  0  0  0
  189.1960  177.1340  141.6630 C   0  0  0  0  0  2  0  0  0  0  0  0
  190.3880  176.5200  142.3110 C   0  0  0  0  0  0  0  0  0  0  0  0
  191.4580  177.1760  142.4080 O   0  0  0  0  0  0  0  0  0  0  0  0
  190.3080  175.2340  142.8340 O   0  0  0  0  0  1  0  0  0  0  0  0
  1  2  1  0  0  0  0
  2  4  2  0  0  0  0
  2  7  1  0  0  0  0
  3  5  2  0  0  0  0
  4  6  1  0  0  0  0
  5  4  1  0  0  0  0
  5 21  1  0  0  0  0
  6  9  2  0  0  0  0
  7  9  1  0  0  0  0
  8  3  1  0  0  0  0
  8  1  2  0  0  0  0
  9 15  1  0  0  0  0
 10 16  1  0  0  0  0
 11 20  1  0  0  0  0
 11 19  1  0  0  0  0
 12 17  1  0  0  0  0
 12 20  2  0  0  0  0
 13 14  1  0  0  0  0
 13 10  2  0  0  0  0
 14 11  2  0  0  0  0
 15 18  2  0  0  0  0
 15 12  1  0  0  0  0
 16 19  2  0  0  0  0
 18 14  1  0  0  0  0
 22 23  1  0  0  0  0
 22 21  1  0  0  0  0
 24 23  1  0  0  0  0
 25 27  1  0  0  0  0
 26 25  1  0  0  0  0
 26 28  1  0  0  0  0
 27 24  1  0  0  0  0
 28 24  1  0  0  0  0
 29  1  1  0  0  0  0
 30 29  1  0  0  0  0
 31 30  1  0  0  0  0
 31 32  1  0  0  0  0
 32 33  1  0  0  0  0
 33 34  1  0  0  0  0
 34 35  1  0  0  0  0
 35 36  1  0  0  0  0
 36 37  2  0  0  0  0
 36 38  1  0  0  0  0
M  END
>  <MODEL>
2

>  <REMARK>
 VINA RESULT:      -8.0      4.386      8.800
  Name = 
  13 active torsions:
  status: ('A' for Active; 'I' for Inactive)
    1  A    between atoms: C_2  and  C_3
    2  A    between atoms: C_3  and  N_27
    3  A    between atoms: C_5  and  N_28
    4  A    between atoms: N_6  and  C_14
    5  A    between atoms: C_13  and  S_15
    6  A    between atoms: C_14  and  C_18
    7  A    between atoms: S_15  and  C_18
    8  A    between atoms: C_20  and  C_36
    9  A    between atoms: C_22  and  O_23
   10  A    between atoms: C_22  and  N_28
   11  A    between atoms: O_23  and  C_29
   12  A    between atoms: C_26  and  N_27
   13  A    between atoms: C_26  and  C_29
                            x       y       z     vdW  Elec       q    Type
                         _______ _______ _______ _____ _____    ______ ____

>  <TORSDO>
F 13

$$$$
=
 OpenBabel11042410433D

 38 42  0  0  0  0  0  0  0  0999 V2000
  184.5410  178.8570  139.6240 C   0  0  0  0  0  0  0  0  0  0  0  0
  184.4850  178.7030  141.0090 C   0  0  0  0  0  0  0  0  0  0  0  0
  182.0890  178.8270  139.6240 C   0  0  0  0  0  3  0  0  0  0  0  0
  183.3040  178.6100  141.6800 C   0  0  0  0  0  0  0  0  0  0  0  0
  182.0750  178.6700  141.0220 C   0  0  0  0  0  0  0  0  0  0  0  0
  183.5310  178.4560  142.9930 N   0  0  0  0  0  0  0  0  0  0  0  0
  185.5100  178.6140  141.8700 N   0  0  0  0  0  2  0  0  0  0  0  0
  183.3140  178.9190  138.9270 C   0  0  0  0  0  3  0  0  0  0  0  0
  184.8870  178.4660  143.0700 C   0  0  0  0  0  0  0  0  0  0  0  0
  189.7660  177.0760  146.4450 C   0  0  0  0  0  3  0  0  0  0  0  0
  187.1270  177.9810  146.6410 C   0  0  0  0  0  0  0  0  0  0  0  0
  185.0880  178.5960  145.6010 C   0  0  0  0  0  0  0  0  0  0  0  0
  189.0010  177.2370  145.2860 C   0  0  0  0  0  3  0  0  0  0  0  0
  187.6810  177.6890  145.3810 C   0  0  0  0  0  0  0  0  0  0  0  0
  185.6400  178.3040  144.3330 C   0  0  0  0  0  0  0  0  0  0  0  0
  189.2130  177.3650  147.6980 C   0  0  0  0  0  3  0  0  0  0  0  0
  183.7600  179.0980  145.7410 N   0  0  0  0  0  1  0  0  0  0  0  0
  186.9260  177.8580  144.2670 N   0  0  0  0  0  0  0  0  0  0  0  0
  187.8940  177.8200  147.7980 C   0  0  0  0  0  3  0  0  0  0  0  0
  185.8480  178.4290  146.7160 N   0  0  0  0  0  0  0  0  0  0  0  0
  180.5290  178.5260  141.9130 S   0  0  0  0  0  0  0  0  0  0  0  0
  179.6320  177.9660  140.4390 C   0  0  0  0  0  2  0  0  0  0  0  0
  179.1540  176.5420  140.6580 C   0  0  0  0  0  2  0  0  0  0  0  0
  179.5140  175.7080  139.5210 N   0  0  0  0  0  0  0  0  0  0  0  0
  180.6170  176.1740  137.4380 C   0  0  0  0  0  2  0  0  0  0  0  0
  181.5140  175.3000  138.2780 C   0  0  0  0  0  2  0  0  0  0  0  0
  179.4650  176.5620  138.3430 C   0  0  0  0  0  2  0  0  0  0  0  0
  180.9180  175.3500  139.6650 C   0  0  0  0  0  2  0  0  0  0  0  0
  185.7990  178.9490  138.9520 N   0  0  0  0  0  2  0  0  0  0  0  0
  186.4780  177.7900  138.3930 C   0  0  0  0  0  2  0  0  0  0  0  0
  187.8500  178.0310  138.3520 O   0  0  0  0  0  0  0  0  0  0  0  0
  188.4030  176.8350  137.8920 C   0  0  0  0  0  2  0  0  0  0  0  0
  189.9120  176.8990  138.0040 C   0  0  0  0  0  2  0  0  0  0  0  0
  190.3490  176.0760  139.1180 N   0  0  0  0  0  2  0  0  0  0  0  0
  190.7920  176.9860  140.1590 C   0  0  0  0  0  2  0  0  0  0  0  0
  189.9690  176.7840  141.3840 C   0  0  0  0  0  0  0  0  0  0  0  0
  188.9480  177.4920  141.5800 O   0  0  0  0  0  0  0  0  0  0  0  0
  190.3140  175.7910  142.2950 O   0  0  0  0  0  1  0  0  0  0  0  0
  1  2  1  0  0  0  0
  2  4  2  0  0  0  0
  2  7  1  0  0  0  0
  3  5  2  0  0  0  0
  4  6  1  0  0  0  0
  5  4  1  0  0  0  0
  5 21  1  0  0  0  0
  6  9  2  0  0  0  0
  7  9  1  0  0  0  0
  8  1  2  0  0  0  0
  8  3  1  0  0  0  0
  9 15  1  0  0  0  0
 10 16  1  0  0  0  0
 11 20  1  0  0  0  0
 11 19  1  0  0  0  0
 12 17  1  0  0  0  0
 12 20  2  0  0  0  0
 13 14  1  0  0  0  0
 13 10  2  0  0  0  0
 14 11  2  0  0  0  0
 15 12  1  0  0  0  0
 16 19  2  0  0  0  0
 18 15  2  0  0  0  0
 18 14  1  0  0  0  0
 22 23  1  0  0  0  0
 22 21  1  0  0  0  0
 24 28  1  0  0  0  0
 24 23  1  0  0  0  0
 25 26  1  0  0  0  0
 25 27  1  0  0  0  0
 26 28  1  0  0  0  0
 27 24  1  0  0  0  0
 29  1  1  0  0  0  0
 30 29  1  0  0  0  0
 31 30  1  0  0  0  0
 32 33  1  0  0  0  0
 32 31  1  0  0  0  0
 33 34  1  0  0  0  0
 34 35  1  0  0  0  0
 35 36  1  0  0  0  0
 36 37  2  0  0  0  0
 36 38  1  0  0  0  0
M  END
>  <MODEL>
3

>  <REMARK>
 VINA RESULT:      -7.9      3.938      8.571
  Name = 
  13 active torsions:
  status: ('A' for Active; 'I' for Inactive)
    1  A    between atoms: C_2  and  C_3
    2  A    between atoms: C_3  and  N_27
    3  A    between atoms: C_5  and  N_28
    4  A    between atoms: N_6  and  C_14
    5  A    between atoms: C_13  and  S_15
    6  A    between atoms: C_14  and  C_18
    7  A    between atoms: S_15  and  C_18
    8  A    between atoms: C_20  and  C_36
    9  A    between atoms: C_22  and  O_23
   10  A    between atoms: C_22  and  N_28
   11  A    between atoms: O_23  and  C_29
   12  A    between atoms: C_26  and  N_27
   13  A    between atoms: C_26  and  C_29
                            x       y       z     vdW  Elec       q    Type
                         _______ _______ _______ _____ _____    ______ ____

>  <TORSDO>
F 13

$$$$
=
 OpenBabel11042410433D

 38 42  0  0  0  0  0  0  0  0999 V2000
  190.8370  176.9120  138.5890 C   0  0  0  0  0  0  0  0  0  0  0  0
  190.1010  177.1360  139.7530 C   0  0  0  0  0  0  0  0  0  0  0  0
  188.8180  177.4900  137.3220 C   0  0  0  0  0  3  0  0  0  0  0  0
  188.7930  177.5120  139.7210 C   0  0  0  0  0  0  0  0  0  0  0  0
  188.1100  177.7040  138.5190 C   0  0  0  0  0  0  0  0  0  0  0  0
  188.3220  177.6480  140.9690 N   0  0  0  0  0  0  0  0  0  0  0  0
  190.5140  177.0190  141.0240 N   0  0  0  0  0  2  0  0  0  0  0  0
  190.1740  177.0960  137.3560 C   0  0  0  0  0  3  0  0  0  0  0  0
  189.4010  177.3420  141.7350 C   0  0  0  0  0  0  0  0  0  0  0  0
  186.8650  178.0920  147.2260 C   0  0  0  0  0  3  0  0  0  0  0  0
  189.2460  177.3200  145.9760 C   0  0  0  0  0  0  0  0  0  0  0  0
  190.4910  176.9330  143.9970 C   0  0  0  0  0  0  0  0  0  0  0  0
  186.9490  178.0970  145.8300 C   0  0  0  0  0  3  0  0  0  0  0  0
  188.1380  177.7130  145.2030 C   0  0  0  0  0  0  0  0  0  0  0  0
  189.3810  177.3270  143.2150 C   0  0  0  0  0  0  0  0  0  0  0  0
  187.9690  177.7030  147.9940 C   0  0  0  0  0  3  0  0  0  0  0  0
  191.7090  176.4950  143.3980 N   0  0  0  0  0  1  0  0  0  0  0  0
  188.2350  177.7050  143.8500 N   0  0  0  0  0  0  0  0  0  0  0  0
  189.1600  177.3150  147.3710 C   0  0  0  0  0  3  0  0  0  0  0  0
  190.3890  176.9390  145.3530 N   0  0  0  0  0  0  0  0  0  0  0  0
  186.3850  178.1800  138.4900 S   0  0  0  0  0  0  0  0  0  0  0  0
  186.0450  177.1840  137.0130 C   0  0  0  0  0  2  0  0  0  0  0  0
  184.7450  176.4250  137.2130 C   0  0  0  0  0  2  0  0  0  0  0  0
  184.8790  175.0590  136.7290 N   0  0  0  0  0  0  0  0  0  0  0  0
  186.3530  173.2550  137.3160 C   0  0  0  0  0  2  0  0  0  0  0  0
  184.9520  172.8960  137.7430 C   0  0  0  0  0  2  0  0  0  0  0  0
  186.2840  174.7010  136.8670 C   0  0  0  0  0  2  0  0  0  0  0  0
  184.1770  174.1900  137.6630 C   0  0  0  0  0  2  0  0  0  0  0  0
  192.2090  176.5150  138.6600 N   0  0  0  0  0  2  0  0  0  0  0  0
  192.9140  175.9250  137.5330 C   0  0  0  0  0  2  0  0  0  0  0  0
  193.9390  176.7790  137.1290 O   0  0  0  0  0  0  0  0  0  0  0  0
  194.3970  176.2360  135.9280 C   0  0  0  0  0  2  0  0  0  0  0  0
  195.1760  174.9670  136.2110 C   0  0  0  0  0  2  0  0  0  0  0  0
  196.4130  175.3020  136.8940 N   0  0  0  0  0  2  0  0  0  0  0  0
  196.7730  174.1440  137.6930 C   0  0  0  0  0  2  0  0  0  0  0  0
  195.8750  174.0550  138.8780 C   0  0  0  0  0  0  0  0  0  0  0  0
  195.2770  172.9770  139.1330 O   0  0  0  0  0  0  0  0  0  0  0  0
  195.7230  175.1520  139.7170 O   0  0  0  0  0  1  0  0  0  0  0  0
  1 29  1  0  0  0  0
  1  2  1  0  0  0  0
  2  7  1  0  0  0  0
  3  8  1  0  0  0  0
  3  5  2  0  0  0  0
  4  2  2  0  0  0  0
  4  6  1  0  0  0  0
  5  4  1  0  0  0  0
  6  9  2  0  0  0  0
  7  9  1  0  0  0  0
  8  1  2  0  0  0  0
  9 15  1  0  0  0  0
 10 16  1  0  0  0  0
 11 19  1  0  0  0  0
 12 20  2  0  0  0  0
 13 10  2  0  0  0  0
 14 13  1  0  0  0  0
 14 11  2  0  0  0  0
 15 18  2  0  0  0  0
 15 12  1  0  0  0  0
 17 12  1  0  0  0  0
 18 14  1  0  0  0  0
 19 16  2  0  0  0  0
 20 11  1  0  0  0  0
 21  5  1  0  0  0  0
 22 23  1  0  0  0  0
 22 21  1  0  0  0  0
 24 27  1  0  0  0  0
 24 23  1  0  0  0  0
 24 28  1  0  0  0  0
 25 26  1  0  0  0  0
 27 25  1  0  0  0  0
 28 26  1  0  0  0  0
 30 29  1  0  0  0  0
 31 30  1  0  0  0  0
 32 33  1  0  0  0  0
 32 31  1  0  0  0  0
 33 34  1  0  0  0  0
 34 35  1  0  0  0  0
 35 36  1  0  0  0  0
 36 37  2  0  0  0  0
 36 38  1  0  0  0  0
M  END
>  <MODEL>
4

>  <REMARK>
 VINA RESULT:      -7.9      4.040      7.770
  Name = 
  13 active torsions:
  status: ('A' for Active; 'I' for Inactive)
    1  A    between atoms: C_2  and  C_3
    2  A    between atoms: C_3  and  N_27
    3  A    between atoms: C_5  and  N_28
    4  A    between atoms: N_6  and  C_14
    5  A    between atoms: C_13  and  S_15
    6  A    between atoms: C_14  and  C_18
    7  A    between atoms: S_15  and  C_18
    8  A    between atoms: C_20  and  C_36
    9  A    between atoms: C_22  and  O_23
   10  A    between atoms: C_22  and  N_28
   11  A    between atoms: O_23  and  C_29
   12  A    between atoms: C_26  and  N_27
   13  A    between atoms: C_26  and  C_29
                            x       y       z     vdW  Elec       q    Type
                         _______ _______ _______ _____ _____    ______ ____

>  <TORSDO>
F 13

$$$$
=
 OpenBabel11042410433D

 38 42  0  0  0  0  0  0  0  0999 V2000
  190.7730  177.2310  139.7260 C   0  0  0  0  0  0  0  0  0  0  0  0
  189.7300  177.6050  140.5720 C   0  0  0  0  0  0  0  0  0  0  0  0
  192.3000  177.5950  141.6100 C   0  0  0  0  0  3  0  0  0  0  0  0
  189.9440  177.9630  141.8680 C   0  0  0  0  0  0  0  0  0  0  0  0
  191.2200  177.9700  142.4310 C   0  0  0  0  0  0  0  0  0  0  0  0
  188.7820  178.2890  142.4540 N   0  0  0  0  0  0  0  0  0  0  0  0
  188.4230  177.6880  140.2830 N   0  0  0  0  0  2  0  0  0  0  0  0
  192.0780  177.2280  140.2640 C   0  0  0  0  0  3  0  0  0  0  0  0
  187.8780  178.1060  141.4570 C   0  0  0  0  0  0  0  0  0  0  0  0
  182.6870  178.7850  144.5760 C   0  0  0  0  0  3  0  0  0  0  0  0
  183.7310  178.8330  141.9800 C   0  0  0  0  0  0  0  0  0  0  0  0
  185.5770  178.6310  140.5090 C   0  0  0  0  0  0  0  0  0  0  0  0
  184.0480  178.5410  144.3710 C   0  0  0  0  0  3  0  0  0  0  0  0
  184.5720  178.5630  143.0750 C   0  0  0  0  0  0  0  0  0  0  0  0
  186.4280  178.3600  141.6050 C   0  0  0  0  0  0  0  0  0  0  0  0
  181.8500  179.0520  143.4860 C   0  0  0  0  0  3  0  0  0  0  0  0
  186.0770  178.7050  139.1750 N   0  0  0  0  0  1  0  0  0  0  0  0
  185.8920  178.3350  142.8580 N   0  0  0  0  0  0  0  0  0  0  0  0
  182.3700  179.0790  142.1870 C   0  0  0  0  0  3  0  0  0  0  0  0
  184.2560  178.8630  140.7300 N   0  0  0  0  0  0  0  0  0  0  0  0
  191.4900  178.4610  144.1310 S   0  0  0  0  0  0  0  0  0  0  0  0
  190.6990  176.9630  144.7810 C   0  0  0  0  0  2  0  0  0  0  0  0
  190.6520  177.0430  146.2960 C   0  0  0  0  0  2  0  0  0  0  0  0
  189.3020  176.7820  146.7740 N   0  0  0  0  0  0  0  0  0  0  0  0
  187.6780  178.1440  147.9050 C   0  0  0  0  0  2  0  0  0  0  0  0
  187.1740  177.8390  146.5160 C   0  0  0  0  0  2  0  0  0  0  0  0
  189.1010  177.6250  147.9440 C   0  0  0  0  0  2  0  0  0  0  0  0
  188.3750  177.2980  145.7770 C   0  0  0  0  0  2  0  0  0  0  0  0
  190.5130  176.8630  138.3690 N   0  0  0  0  0  2  0  0  0  0  0  0
  190.0670  175.5310  137.9880 C   0  0  0  0  0  2  0  0  0  0  0  0
  191.1630  174.6730  137.9330 O   0  0  0  0  0  0  0  0  0  0  0  0
  191.7300  174.9070  136.6800 C   0  0  0  0  0  2  0  0  0  0  0  0
  193.2220  175.1260  136.8320 C   0  0  0  0  0  2  0  0  0  0  0  0
  193.7860  174.0670  137.6500 N   0  0  0  0  0  2  0  0  0  0  0  0
  195.1440  173.8570  137.1810 C   0  0  0  0  0  2  0  0  0  0  0  0
  196.1080  174.2510  138.2460 C   0  0  0  0  0  0  0  0  0  0  0  0
  195.9370  173.8500  139.4270 O   0  0  0  0  0  1  0  0  0  0  0  0
  197.2110  175.0350  137.9290 O   0  0  0  0  0  0  0  0  0  0  0  0
  1  8  2  0  0  0  0
  1  2  1  0  0  0  0
  2  4  2  0  0  0  0
  3  5  2  0  0  0  0
  4  5  1  0  0  0  0
  4  6  1  0  0  0  0
  5 21  1  0  0  0  0
  7  2  1  0  0  0  0
  7  9  1  0  0  0  0
  8  3  1  0  0  0  0
  9 15  1  0  0  0  0
  9  6  2  0  0  0  0
 11 19  2  0  0  0  0
 11 14  1  0  0  0  0
 12 20  2  0  0  0  0
 12 15  1  0  0  0  0
 13 10  1  0  0  0  0
 14 13  2  0  0  0  0
 15 18  2  0  0  0  0
 16 10  2  0  0  0  0
 17 12  1  0  0  0  0
 18 14  1  0  0  0  0
 19 16  1  0  0  0  0
 20 11  1  0  0  0  0
 21 22  1  0  0  0  0
 22 23  1  0  0  0  0
 23 24  1  0  0  0  0
 24 27  1  0  0  0  0
 25 27  1  0  0  0  0
 26 25  1  0  0  0  0
 28 26  1  0  0  0  0
 28 24  1  0  0  0  0
 29  1  1  0  0  0  0
 30 29  1  0  0  0  0
 31 30  1  0  0  0  0
 32 33  1  0  0  0  0
 32 31  1  0  0  0  0
 33 34  1  0  0  0  0
 35 34  1  0  0  0  0
 35 36  1  0  0  0  0
 36 37  1  0  0  0  0
 38 36  2  0  0  0  0
M  END
>  <MODEL>
5

>  <REMARK>
 VINA RESULT:      -7.7      3.670      8.874
  Name = 
  13 active torsions:
  status: ('A' for Active; 'I' for Inactive)
    1  A    between atoms: C_2  and  C_3
    2  A    between atoms: C_3  and  N_27
    3  A    between atoms: C_5  and  N_28
    4  A    between atoms: N_6  and  C_14
    5  A    between atoms: C_13  and  S_15
    6  A    between atoms: C_14  and  C_18
    7  A    between atoms: S_15  and  C_18
    8  A    between atoms: C_20  and  C_36
    9  A    between atoms: C_22  and  O_23
   10  A    between atoms: C_22  and  N_28
   11  A    between atoms: O_23  and  C_29
   12  A    between atoms: C_26  and  N_27
   13  A    between atoms: C_26  and  C_29
                            x       y       z     vdW  Elec       q    Type
                         _______ _______ _______ _____ _____    ______ ____

>  <TORSDO>
F 13

$$$$
=
 OpenBabel11042410433D

 38 42  0  0  0  0  0  0  0  0999 V2000
  189.0490  178.4600  138.8460 C   0  0  0  0  0  0  0  0  0  0  0  0
  188.2790  178.2260  139.9850 C   0  0  0  0  0  0  0  0  0  0  0  0
  190.8500  177.1920  139.9250 C   0  0  0  0  0  3  0  0  0  0  0  0
  188.7560  177.5200  141.0470 C   0  0  0  0  0  0  0  0  0  0  0  0
  190.0430  176.9800  141.0580 C   0  0  0  0  0  0  0  0  0  0  0  0
  187.8250  177.4520  142.0110 N   0  0  0  0  0  0  0  0  0  0  0  0
  187.0250  178.6330  140.2310 N   0  0  0  0  0  2  0  0  0  0  0  0
  190.3570  177.9290  138.8240 C   0  0  0  0  0  3  0  0  0  0  0  0
  186.7840  178.1400  141.4740 C   0  0  0  0  0  0  0  0  0  0  0  0
  180.7690  179.0560  141.8170 C   0  0  0  0  0  3  0  0  0  0  0  0
  183.0580  178.7860  143.4010 C   0  0  0  0  0  0  0  0  0  0  0  0
  185.3950  178.4380  143.5840 C   0  0  0  0  0  0  0  0  0  0  0  0
  182.0110  178.8510  141.2100 C   0  0  0  0  0  3  0  0  0  0  0  0
  183.1570  178.7160  141.9990 C   0  0  0  0  0  0  0  0  0  0  0  0
  185.5010  178.3680  142.1760 C   0  0  0  0  0  0  0  0  0  0  0  0
  180.6710  179.1270  143.2120 C   0  0  0  0  0  3  0  0  0  0  0  0
  186.5320  178.2650  144.4290 N   0  0  0  0  0  1  0  0  0  0  0  0
  184.3700  178.5100  141.4280 N   0  0  0  0  0  0  0  0  0  0  0  0
  181.8150  178.9900  144.0050 C   0  0  0  0  0  3  0  0  0  0  0  0
  184.1780  178.6420  144.1540 N   0  0  0  0  0  0  0  0  0  0  0  0
  190.6640  176.0710  142.4680 S   0  0  0  0  0  0  0  0  0  0  0  0
  191.7060  177.4540  143.0110 C   0  0  0  0  0  2  0  0  0  0  0  0
  191.0660  178.1140  144.2190 C   0  0  0  0  0  2  0  0  0  0  0  0
  190.5450  177.1030  145.1290 N   0  0  0  0  0  0  0  0  0  0  0  0
  191.1280  176.4690  147.3710 C   0  0  0  0  0  2  0  0  0  0  0  0
  189.7550  177.0910  147.3840 C   0  0  0  0  0  2  0  0  0  0  0  0
  191.6580  176.6810  145.9680 C   0  0  0  0  0  2  0  0  0  0  0  0
  189.6200  177.7640  146.0380 C   0  0  0  0  0  2  0  0  0  0  0  0
  188.5170  179.2080  137.7490 N   0  0  0  0  0  2  0  0  0  0  0  0
  187.5720  178.6420  136.7990 C   0  0  0  0  0  2  0  0  0  0  0  0
  187.8440  177.2860  136.6250 O   0  0  0  0  0  0  0  0  0  0  0  0
  186.6100  176.7190  136.3040 C   0  0  0  0  0  2  0  0  0  0  0  0
  185.6260  176.9780  137.4260 C   0  0  0  0  0  2  0  0  0  0  0  0
  184.4240  176.1930  137.2060 N   0  0  0  0  0  2  0  0  0  0  0  0
  183.3980  176.7530  138.0680 C   0  0  0  0  0  2  0  0  0  0  0  0
  182.5360  175.6590  138.5950 C   0  0  0  0  0  0  0  0  0  0  0  0
  182.1730  175.6710  139.8000 O   0  0  0  0  0  1  0  0  0  0  0  0
  182.1090  174.6430  137.7480 O   0  0  0  0  0  0  0  0  0  0  0  0
  1  2  1  0  0  0  0
  2  7  1  0  0  0  0
  2  4  2  0  0  0  0
  3  5  2  0  0  0  0
  4  5  1  0  0  0  0
  4  6  1  0  0  0  0
  5 21  1  0  0  0  0
  7  9  1  0  0  0  0
  8  1  2  0  0  0  0
  8  3  1  0  0  0  0
  9  6  2  0  0  0  0
  9 15  1  0  0  0  0
 10 16  1  0  0  0  0
 11 19  1  0  0  0  0
 11 20  1  0  0  0  0
 12 20  2  0  0  0  0
 12 17  1  0  0  0  0
 13 10  2  0  0  0  0
 13 14  1  0  0  0  0
 14 11  2  0  0  0  0
 15 12  1  0  0  0  0
 16 19  2  0  0  0  0
 18 14  1  0  0  0  0
 18 15  2  0  0  0  0
 21 22  1  0  0  0  0
 22 23  1  0  0  0  0
 23 24  1  0  0  0  0
 24 27  1  0  0  0  0
 24 28  1  0  0  0  0
 25 26  1  0  0  0  0
 27 25  1  0  0  0  0
 28 26  1  0  0  0  0
 29  1  1  0  0  0  0
 30 29  1  0  0  0  0
 31 30  1  0  0  0  0
 32 31  1  0  0  0  0
 32 33  1  0  0  0  0
 34 33  1  0  0  0  0
 34 35  1  0  0  0  0
 35 36  1  0  0  0  0
 36 37  1  0  0  0  0
 38 36  2  0  0  0  0
M  END
>  <MODEL>
6

>  <REMARK>
 VINA RESULT:      -7.4      3.626      6.741
  Name = 
  13 active torsions:
  status: ('A' for Active; 'I' for Inactive)
    1  A    between atoms: C_2  and  C_3
    2  A    between atoms: C_3  and  N_27
    3  A    between atoms: C_5  and  N_28
    4  A    between atoms: N_6  and  C_14
    5  A    between atoms: C_13  and  S_15
    6  A    between atoms: C_14  and  C_18
    7  A    between atoms: S_15  and  C_18
    8  A    between atoms: C_20  and  C_36
    9  A    between atoms: C_22  and  O_23
   10  A    between atoms: C_22  and  N_28
   11  A    between atoms: O_23  and  C_29
   12  A    between atoms: C_26  and  N_27
   13  A    between atoms: C_26  and  C_29
                            x       y       z     vdW  Elec       q    Type
                         _______ _______ _______ _____ _____    ______ ____

>  <TORSDO>
F 13

$$$$
=
 OpenBabel11042410433D

 38 42  0  0  0  0  0  0  0  0999 V2000
  185.4570  178.3310  143.8090 C   0  0  0  0  0  0  0  0  0  0  0  0
  186.3070  178.2400  142.7070 C   0  0  0  0  0  0  0  0  0  0  0  0
  183.6980  179.0620  142.2650 C   0  0  0  0  0  3  0  0  0  0  0  0
  185.8920  178.5450  141.4470 C   0  0  0  0  0  0  0  0  0  0  0  0
  184.5870  178.9610  141.1790 C   0  0  0  0  0  0  0  0  0  0  0  0
  186.9030  178.3880  140.5780 N   0  0  0  0  0  0  0  0  0  0  0  0
  187.5970  177.8750  142.6900 N   0  0  0  0  0  2  0  0  0  0  0  0
  184.1290  178.7500  143.5740 C   0  0  0  0  0  3  0  0  0  0  0  0
  187.9240  177.9750  141.3740 C   0  0  0  0  0  0  0  0  0  0  0  0
  192.0370  176.3770  137.1710 C   0  0  0  0  0  3  0  0  0  0  0  0
  191.7940  177.1270  139.8550 C   0  0  0  0  0  0  0  0  0  0  0  0
  190.4400  177.7800  141.6860 C   0  0  0  0  0  0  0  0  0  0  0  0
  190.7740  176.6540  137.7020 C   0  0  0  0  0  3  0  0  0  0  0  0
  190.6490  177.0280  139.0430 C   0  0  0  0  0  0  0  0  0  0  0  0
  189.2860  177.6830  140.8760 C   0  0  0  0  0  0  0  0  0  0  0  0
  193.1760  176.4740  137.9800 C   0  0  0  0  0  3  0  0  0  0  0  0
  190.3640  178.1980  143.0480 N   0  0  0  0  0  1  0  0  0  0  0  0
  189.4330  177.3080  139.5730 N   0  0  0  0  0  0  0  0  0  0  0  0
  193.0560  176.8510  139.3220 C   0  0  0  0  0  3  0  0  0  0  0  0
  191.6590  177.5030  141.1520 N   0  0  0  0  0  0  0  0  0  0  0  0
  184.0600  179.3780  139.5210 S   0  0  0  0  0  0  0  0  0  0  0  0
  183.9620  177.6360  139.0210 C   0  0  0  0  0  2  0  0  0  0  0  0
  182.5790  177.1020  139.3460 C   0  0  0  0  0  2  0  0  0  0  0  0
  182.5270  175.6650  139.1200 N   0  0  0  0  0  0  0  0  0  0  0  0
  181.2760  174.2950  137.5940 C   0  0  0  0  0  2  0  0  0  0  0  0
  182.7340  174.2350  137.2170 C   0  0  0  0  0  2  0  0  0  0  0  0
  181.1770  175.3600  138.6680 C   0  0  0  0  0  2  0  0  0  0  0  0
  183.3810  175.3680  137.9790 C   0  0  0  0  0  2  0  0  0  0  0  0
  185.9270  178.0050  145.1200 N   0  0  0  0  0  2  0  0  0  0  0  0
  185.3870  178.6210  146.3220 C   0  0  0  0  0  2  0  0  0  0  0  0
  186.4220  178.8650  147.2230 O   0  0  0  0  0  0  0  0  0  0  0  0
  187.1490  177.6740  147.2530 C   0  0  0  0  0  2  0  0  0  0  0  0
  188.0550  177.6630  148.4680 C   0  0  0  0  0  2  0  0  0  0  0  0
  189.4270  177.8960  148.0510 N   0  0  0  0  0  2  0  0  0  0  0  0
  189.7660  176.8320  147.1240 C   0  0  0  0  0  2  0  0  0  0  0  0
  191.2450  176.7520  146.9730 C   0  0  0  0  0  0  0  0  0  0  0  0
  191.7540  176.6270  145.8290 O   0  0  0  0  0  0  0  0  0  0  0  0
  192.0630  176.8460  148.0930 O   0  0  0  0  0  1  0  0  0  0  0  0
  1 29  1  0  0  0  0
  2  1  2  0  0  0  0
  3  8  2  0  0  0  0
  4  2  1  0  0  0  0
  5  4  2  0  0  0  0
  5  3  1  0  0  0  0
  6  9  2  0  0  0  0
  6  4  1  0  0  0  0
  7  2  1  0  0  0  0
  8  1  1  0  0  0  0
  9  7  1  0  0  0  0
 10 13  2  0  0  0  0
 10 16  1  0  0  0  0
 11 20  1  0  0  0  0
 12 17  1  0  0  0  0
 13 14  1  0  0  0  0
 14 18  1  0  0  0  0
 14 11  2  0  0  0  0
 15  9  1  0  0  0  0
 15 12  1  0  0  0  0
 16 19  2  0  0  0  0
 18 15  2  0  0  0  0
 19 11  1  0  0  0  0
 20 12  2  0  0  0  0
 21  5  1  0  0  0  0
 22 23  1  0  0  0  0
 22 21  1  0  0  0  0
 24 23  1  0  0  0  0
 25 27  1  0  0  0  0
 26 25  1  0  0  0  0
 26 28  1  0  0  0  0
 27 24  1  0  0  0  0
 28 24  1  0  0  0  0
 29 30  1  0  0  0  0
 30 31  1  0  0  0  0
 31 32  1  0  0  0  0
 32 33  1  0  0  0  0
 34 33  1  0  0  0  0
 35 34  1  0  0  0  0
 36 35  1  0  0  0  0
 36 38  1  0  0  0  0
 37 36  2  0  0  0  0
M  END
>  <MODEL>
7

>  <REMARK>
 VINA RESULT:      -7.2      3.405      8.420
  Name = 
  13 active torsions:
  status: ('A' for Active; 'I' for Inactive)
    1  A    between atoms: C_2  and  C_3
    2  A    between atoms: C_3  and  N_27
    3  A    between atoms: C_5  and  N_28
    4  A    between atoms: N_6  and  C_14
    5  A    between atoms: C_13  and  S_15
    6  A    between atoms: C_14  and  C_18
    7  A    between atoms: S_15  and  C_18
    8  A    between atoms: C_20  and  C_36
    9  A    between atoms: C_22  and  O_23
   10  A    between atoms: C_22  and  N_28
   11  A    between atoms: O_23  and  C_29
   12  A    between atoms: C_26  and  N_27
   13  A    between atoms: C_26  and  C_29
                            x       y       z     vdW  Elec       q    Type
                         _______ _______ _______ _____ _____    ______ ____

>  <TORSDO>
F 13

$$$$
=
 OpenBabel11042410433D

 38 42  0  0  0  0  0  0  0  0999 V2000
  190.0990  177.4600  141.2070 C   0  0  0  0  0  0  0  0  0  0  0  0
  188.7550  177.8200  141.1080 C   0  0  0  0  0  0  0  0  0  0  0  0
  190.2760  177.8380  138.7910 C   0  0  0  0  0  3  0  0  0  0  0  0
  188.1860  178.1670  139.9200 C   0  0  0  0  0  0  0  0  0  0  0  0
  188.9160  178.1920  138.7310 C   0  0  0  0  0  0  0  0  0  0  0  0
  186.8880  178.4550  140.0990 N   0  0  0  0  0  0  0  0  0  0  0  0
  187.8410  177.8730  142.0870 N   0  0  0  0  0  2  0  0  0  0  0  0
  190.8660  177.4730  140.0220 C   0  0  0  0  0  3  0  0  0  0  0  0
  186.7160  178.2670  141.4330 C   0  0  0  0  0  0  0  0  0  0  0  0
  180.6650  178.9190  141.7410 C   0  0  0  0  0  3  0  0  0  0  0  0
  182.9570  178.7580  143.3380 C   0  0  0  0  0  0  0  0  0  0  0  0
  185.3060  178.5150  143.5340 C   0  0  0  0  0  0  0  0  0  0  0  0
  181.9190  178.7650  141.1420 C   0  0  0  0  0  3  0  0  0  0  0  0
  183.0660  178.6850  141.9370 C   0  0  0  0  0  0  0  0  0  0  0  0
  185.4220  178.4420  142.1270 C   0  0  0  0  0  0  0  0  0  0  0  0
  180.5580  178.9920  143.1360 C   0  0  0  0  0  3  0  0  0  0  0  0
  186.4450  178.3970  144.3850 N   0  0  0  0  0  1  0  0  0  0  0  0
  184.2900  178.5290  141.3730 N   0  0  0  0  0  0  0  0  0  0  0  0
  181.7030  178.9100  143.9350 C   0  0  0  0  0  3  0  0  0  0  0  0
  184.0780  178.6680  144.0970 N   0  0  0  0  0  0  0  0  0  0  0  0
  188.1510  178.6330  137.1740 S   0  0  0  0  0  0  0  0  0  0  0  0
  187.6290  176.9260  136.8480 C   0  0  0  0  0  2  0  0  0  0  0  0
  186.1640  176.9220  136.4510 C   0  0  0  0  0  2  0  0  0  0  0  0
  185.3340  176.5470  137.5860 N   0  0  0  0  0  0  0  0  0  0  0  0
  183.0310  176.9550  138.1320 C   0  0  0  0  0  2  0  0  0  0  0  0
  183.2130  175.4820  137.8630 C   0  0  0  0  0  2  0  0  0  0  0  0
  184.3460  177.6030  137.7520 C   0  0  0  0  0  2  0  0  0  0  0  0
  184.5650  175.3720  137.2010 C   0  0  0  0  0  2  0  0  0  0  0  0
  190.6630  177.0970  142.4700 N   0  0  0  0  0  2  0  0  0  0  0  0
  190.5710  175.7510  143.0130 C   0  0  0  0  0  2  0  0  0  0  0  0
  191.5200  175.5920  144.0230 O   0  0  0  0  0  0  0  0  0  0  0  0
  191.5070  176.8060  144.7110 C   0  0  0  0  0  2  0  0  0  0  0  0
  191.6780  176.5500  146.1940 C   0  0  0  0  0  2  0  0  0  0  0  0
  190.3730  176.3800  146.8090 N   0  0  0  0  0  2  0  0  0  0  0  0
  189.6100  177.5770  146.5040 C   0  0  0  0  0  2  0  0  0  0  0  0
  188.6180  177.8280  147.5860 C   0  0  0  0  0  0  0  0  0  0  0  0
  188.9800  178.3890  148.6520 O   0  0  0  0  0  1  0  0  0  0  0  0
  187.2870  177.4690  147.4030 O   0  0  0  0  0  0  0  0  0  0  0  0
  1 29  1  0  0  0  0
  2  1  1  0  0  0  0
  2  7  1  0  0  0  0
  3  8  1  0  0  0  0
  4  6  1  0  0  0  0
  4  2  2  0  0  0  0
  5  3  2  0  0  0  0
  5  4  1  0  0  0  0
  6  9  2  0  0  0  0
  8  1  2  0  0  0  0
  9  7  1  0  0  0  0
  9 15  1  0  0  0  0
 10 16  1  0  0  0  0
 11 19  1  0  0  0  0
 11 20  1  0  0  0  0
 12 20  2  0  0  0  0
 12 17  1  0  0  0  0
 13 10  2  0  0  0  0
 13 14  1  0  0  0  0
 14 11  2  0  0  0  0
 15 12  1  0  0  0  0
 16 19  2  0  0  0  0
 18 14  1  0  0  0  0
 18 15  2  0  0  0  0
 21  5  1  0  0  0  0
 22 21  1  0  0  0  0
 23 22  1  0  0  0  0
 23 24  1  0  0  0  0
 24 27  1  0  0  0  0
 26 25  1  0  0  0  0
 27 25  1  0  0  0  0
 28 24  1  0  0  0  0
 28 26  1  0  0  0  0
 29 30  1  0  0  0  0
 30 31  1  0  0  0  0
 31 32  1  0  0  0  0
 32 33  1  0  0  0  0
 33 34  1  0  0  0  0
 35 34  1  0  0  0  0
 35 36  1  0  0  0  0
 36 37  1  0  0  0  0
 38 36  2  0  0  0  0
M  END
>  <MODEL>
8

>  <REMARK>
 VINA RESULT:      -7.2      3.699      7.214
  Name = 
  13 active torsions:
  status: ('A' for Active; 'I' for Inactive)
    1  A    between atoms: C_2  and  C_3
    2  A    between atoms: C_3  and  N_27
    3  A    between atoms: C_5  and  N_28
    4  A    between atoms: N_6  and  C_14
    5  A    between atoms: C_13  and  S_15
    6  A    between atoms: C_14  and  C_18
    7  A    between atoms: S_15  and  C_18
    8  A    between atoms: C_20  and  C_36
    9  A    between atoms: C_22  and  O_23
   10  A    between atoms: C_22  and  N_28
   11  A    between atoms: O_23  and  C_29
   12  A    between atoms: C_26  and  N_27
   13  A    between atoms: C_26  and  C_29
                            x       y       z     vdW  Elec       q    Type
                         _______ _______ _______ _____ _____    ______ ____

>  <TORSDO>
F 13

$$$$
=
 OpenBabel11042410433D

 38 42  0  0  0  0  0  0  0  0999 V2000
  189.7730  177.5050  141.6080 C   0  0  0  0  0  0  0  0  0  0  0  0
  188.4440  177.8680  141.3920 C   0  0  0  0  0  0  0  0  0  0  0  0
  190.1540  177.8540  139.2110 C   0  0  0  0  0  3  0  0  0  0  0  0
  187.9780  178.2030  140.1580 C   0  0  0  0  0  0  0  0  0  0  0  0
  188.8040  178.2110  139.0330 C   0  0  0  0  0  0  0  0  0  0  0  0
  186.6700  178.4960  140.2230 N   0  0  0  0  0  0  0  0  0  0  0  0
  187.4510  177.9360  142.2920 N   0  0  0  0  0  2  0  0  0  0  0  0
  190.6370  177.5020  140.4910 C   0  0  0  0  0  3  0  0  0  0  0  0
  186.3870  178.3250  141.5410 C   0  0  0  0  0  0  0  0  0  0  0  0
  180.3190  178.8590  141.3450 C   0  0  0  0  0  3  0  0  0  0  0  0
  182.4830  178.8450  143.1190 C   0  0  0  0  0  0  0  0  0  0  0  0
  184.8130  178.6660  143.5090 C   0  0  0  0  0  0  0  0  0  0  0  0
  181.6180  178.6980  140.8540 C   0  0  0  0  0  3  0  0  0  0  0  0
  182.7010  178.6910  141.7380 C   0  0  0  0  0  0  0  0  0  0  0  0
  185.0390  178.5120  142.1220 C   0  0  0  0  0  0  0  0  0  0  0  0
  180.1030  179.0130  142.7200 C   0  0  0  0  0  3  0  0  0  0  0  0
  185.8850  178.6250  144.4500 N   0  0  0  0  0  1  0  0  0  0  0  0
  183.9680  178.5290  141.2800 N   0  0  0  0  0  0  0  0  0  0  0  0
  181.1840  179.0050  143.6090 C   0  0  0  0  0  3  0  0  0  0  0  0
  183.5430  178.8250  143.9660 N   0  0  0  0  0  0  0  0  0  0  0  0
  188.1740  178.6350  137.4130 S   0  0  0  0  0  0  0  0  0  0  0  0
  187.3440  177.0330  137.2210 C   0  0  0  0  0  2  0  0  0  0  0  0
  188.3780  175.9740  136.8830 C   0  0  0  0  0  2  0  0  0  0  0  0
  187.7290  174.7940  136.3310 N   0  0  0  0  0  0  0  0  0  0  0  0
  187.7970  172.4660  136.9180 C   0  0  0  0  0  2  0  0  0  0  0  0
  186.4190  173.0020  137.2170 C   0  0  0  0  0  2  0  0  0  0  0  0
  188.6330  173.6750  136.5520 C   0  0  0  0  0  2  0  0  0  0  0  0
  186.5650  174.5040  137.1560 C   0  0  0  0  0  2  0  0  0  0  0  0
  190.2290  177.1570  142.9180 N   0  0  0  0  0  2  0  0  0  0  0  0
  190.6160  175.8020  143.2800 C   0  0  0  0  0  2  0  0  0  0  0  0
  191.6810  175.8480  144.1780 O   0  0  0  0  0  0  0  0  0  0  0  0
  191.3230  176.8340  145.0970 C   0  0  0  0  0  2  0  0  0  0  0  0
  191.6810  176.3770  146.4970 C   0  0  0  0  0  2  0  0  0  0  0  0
  190.5050  176.4490  147.3450 N   0  0  0  0  0  2  0  0  0  0  0  0
  189.5090  177.2090  146.6120 C   0  0  0  0  0  2  0  0  0  0  0  0
  188.5840  177.8770  147.5700 C   0  0  0  0  0  0  0  0  0  0  0  0
  189.0450  178.6270  148.4690 O   0  0  0  0  0  1  0  0  0  0  0  0
  187.2110  177.6940  147.4500 O   0  0  0  0  0  0  0  0  0  0  0  0
  1 29  1  0  0  0  0
  2  1  1  0  0  0  0
  2  7  1  0  0  0  0
  3  8  1  0  0  0  0
  4  6  1  0  0  0  0
  4  2  2  0  0  0  0
  5  3  2  0  0  0  0
  5  4  1  0  0  0  0
  6  9  2  0  0  0  0
  8  1  2  0  0  0  0
  9 15  1  0  0  0  0
  9  7  1  0  0  0  0
 10 16  1  0  0  0  0
 11 19  1  0  0  0  0
 11 20  1  0  0  0  0
 12 20  2  0  0  0  0
 12 17  1  0  0  0  0
 13 10  2  0  0  0  0
 13 14  1  0  0  0  0
 14 11  2  0  0  0  0
 15 12  1  0  0  0  0
 16 19  2  0  0  0  0
 18 14  1  0  0  0  0
 18 15  2  0  0  0  0
 21  5  1  0  0  0  0
 22 21  1  0  0  0  0
 23 22  1  0  0  0  0
 24 27  1  0  0  0  0
 24 23  1  0  0  0  0
 24 28  1  0  0  0  0
 25 26  1  0  0  0  0
 27 25  1  0  0  0  0
 28 26  1  0  0  0  0
 29 30  1  0  0  0  0
 30 31  1  0  0  0  0
 31 32  1  0  0  0  0
 32 33  1  0  0  0  0
 33 34  1  0  0  0  0
 35 34  1  0  0  0  0
 35 36  1  0  0  0  0
 36 37  1  0  0  0  0
 38 36  2  0  0  0  0
M  END
>  <MODEL>
9

>  <REMARK>
 VINA RESULT:      -7.1      3.800      6.700
  Name = 
  13 active torsions:
  status: ('A' for Active; 'I' for Inactive)
    1  A    between atoms: C_2  and  C_3
    2  A    between atoms: C_3  and  N_27
    3  A    between atoms: C_5  and  N_28
    4  A    between atoms: N_6  and  C_14
    5  A    between atoms: C_13  and  S_15
    6  A    between atoms: C_14  and  C_18
    7  A    between atoms: S_15  and  C_18
    8  A    between atoms: C_20  and  C_36
    9  A    between atoms: C_22  and  O_23
   10  A    between atoms: C_22  and  N_28
   11  A    between atoms: O_23  and  C_29
   12  A    between atoms: C_26  and  N_27
   13  A    between atoms: C_26  and  C_29
                            x       y       z     vdW  Elec       q    Type
                         _______ _______ _______ _____ _____    ______ ____

>  <TORSDO>
F 13

$$$$
