=
 OpenBabel11032421163D

 52 56  0  0  1  0  0  0  0  0999 V2000
  183.8660  179.7510  144.3880 O   0  0  0  0  0  0  0  0  0  0  0  0
  182.5100  179.6290  144.0150 C   0  0  0  0  0  2  0  0  0  0  0  0
  182.4710  179.1020  142.6310 C   0  0  0  0  0  0  0  0  0  0  0  0
  184.6320  179.2090  143.3310 C   0  0  2  0  0  3  0  0  0  0  0  0
  183.6970  178.8630  142.2350 C   0  0  0  0  0  0  0  0  0  0  0  0
  183.7330  177.2170  140.5020 O   0  0  0  0  0  0  0  0  0  0  0  0
  185.0270  179.1280  140.1310 N   0  0  0  0  0  2  0  0  0  0  0  0
  184.1270  178.3450  140.9190 C   0  0  0  0  0  0  0  0  0  0  0  0
  185.5320  178.6750  138.8450 C   0  0  0  0  0  2  0  0  0  0  0  0
  187.4600  179.1720  136.8140 O   0  0  0  0  0  0  0  0  0  0  0  0
  186.9540  178.3890  138.9590 N   0  0  0  0  0  2  0  0  0  0  0  0
  187.8650  178.6430  137.8870 C   0  0  0  0  0  0  0  0  0  0  0  0
  189.7190  177.2140  137.1200 C   0  0  0  0  0  2  0  0  0  0  0  0
  189.3160  178.3240  138.0640 C   0  0  2  0  0  3  0  0  0  0  0  0
  189.6090  177.8710  139.4920 C   0  0  0  0  0  2  0  0  0  0  0  0
  190.8970  176.5830  139.4720 S   0  0  0  0  0  0  0  0  0  0  0  0
  191.0110  176.6440  137.6590 C   0  0  1  0  0  3  0  0  0  0  0  0
  192.8900  173.6080  136.2970 C   0  0  0  0  0  3  0  0  0  0  0  0
  190.2600  174.4660  136.6570 C   0  0  0  0  0  3  0  0  0  0  0  0
  191.3170  175.2930  137.0730 C   0  0  0  0  0  0  0  0  0  0  0  0
  190.5130  173.2250  136.0710 C   0  0  0  0  0  3  0  0  0  0  0  0
  191.8290  172.7990  135.8860 C   0  0  0  0  0  3  0  0  0  0  0  0
  192.6530  174.8520  136.9090 C   0  0  0  0  0  0  0  0  0  0  0  0
  193.8900  175.7880  138.7260 F   0  0  0  0  0  0  0  0  0  0  0  0
  193.8260  175.7200  137.3380 C   0  0  0  0  0  0  0  0  0  0  0  0
  193.5970  177.0000  136.8670 F   0  0  0  0  0  0  0  0  0  0  0  0
  195.8330  174.7030  137.8110 C   0  0  0  0  0  1  0  0  0  0  0  0
  195.0550  175.2780  136.7910 O   0  0  0  0  0  0  0  0  0  0  0  0
  181.2250  178.8660  141.8290 C   0  0  0  0  0  2  0  0  0  0  0  0
  180.8430  180.0610  141.0950 N   0  0  0  0  0  2  0  0  0  0  0  0
  179.9430  179.6340  140.0340 C   0  0  0  0  0  2  0  0  0  0  0  0
  180.3520  180.2440  138.6900 C   0  0  2  0  0  3  0  0  0  0  0  0
  181.6150  179.5870  138.1490 C   0  0  0  0  0  2  0  0  0  0  0  0
  182.7330  180.2600  138.6150 F   0  0  0  0  0  0  0  0  0  0  0  0
  180.5400  181.7560  138.7840 C   0  0  0  0  0  2  0  0  0  0  0  0
  180.7650  182.3770  137.4120 C   0  0  0  0  0  2  0  0  0  0  0  0
  182.1060  184.4770  137.3360 O   0  0  0  0  0  0  0  0  0  0  0  0
  180.8770  183.8580  137.5150 C   0  0  0  0  0  0  0  0  0  0  0  0
  179.8500  184.5510  137.7450 O   0  0  0  0  0  1  0  0  0  0  0  0
  185.3200  178.0090  143.7900 N   0  0  0  0  0  2  0  0  0  0  0  0
  186.3050  177.9280  144.8360 C   0  0  0  0  0  0  0  0  0  0  0  0
  188.6150  177.6220  145.5200 C   0  0  0  0  0  0  0  0  0  0  0  0
  189.4410  177.0690  142.8840 O   0  0  0  0  0  0  0  0  0  0  0  0
  185.9870  178.1110  146.1990 C   0  0  0  0  0  0  0  0  0  0  0  0
  190.0700  177.4380  145.1990 C   0  0  0  0  0  2  0  0  0  0  0  0
  188.1330  177.5030  143.1010 C   0  0  0  0  0  0  0  0  0  0  0  0
  188.2390  177.8070  146.8080 N   0  0  0  0  0  0  0  0  0  0  0  0
  187.6540  177.6920  144.4980 C   0  0  0  0  0  0  0  0  0  0  0  0
  184.6520  178.3480  146.6340 N   0  0  0  0  0  1  0  0  0  0  0  0
  187.3990  177.7550  142.1120 O   0  0  0  0  0  0  0  0  0  0  0  0
  190.2350  176.5660  143.9570 C   0  0  0  0  0  2  0  0  0  0  0  0
  186.9700  178.0390  147.1340 N   0  0  0  0  0  0  0  0  0  0  0  0
  2  1  1  0  0  0  0
  3  2  1  0  0  0  0
  4 40  1  1  0  0  0
  4  1  1  0  0  0  0
  5  3  2  0  0  0  0
  5  4  1  0  0  0  0
  6  8  2  0  0  0  0
  7  8  1  0  0  0  0
  8  5  1  0  0  0  0
  9 11  1  0  0  0  0
  9  7  1  0  0  0  0
 10 12  2  0  0  0  0
 12 11  1  0  0  0  0
 13 17  1  0  0  0  0
 13 14  1  0  0  0  0
 14 12  1  1  0  0  0
 14 15  1  0  0  0  0
 16 15  1  0  0  0  0
 17 20  1  6  0  0  0
 17 16  1  0  0  0  0
 18 23  1  0  0  0  0
 19 20  1  0  0  0  0
 21 19  2  0  0  0  0
 22 21  1  0  0  0  0
 22 18  2  0  0  0  0
 23 20  2  0  0  0  0
 23 25  1  0  0  0  0
 25 24  1  0  0  0  0
 26 25  1  0  0  0  0
 28 25  1  0  0  0  0
 28 27  1  0  0  0  0
 29  3  1  0  0  0  0
 30 29  1  0  0  0  0
 31 30  1  0  0  0  0
 32 33  1  1  0  0  0
 32 35  1  0  0  0  0
 32 31  1  0  0  0  0
 33 34  1  0  0  0  0
 36 38  1  0  0  0  0
 36 35  1  0  0  0  0
 37 38  2  0  0  0  0
 38 39  1  0  0  0  0
 40 41  1  0  0  0  0
 41 44  1  0  0  0  0
 42 47  2  0  0  0  0
 43 46  1  0  0  0  0
 43 51  1  0  0  0  0
 44 49  1  0  0  0  0
 44 52  2  0  0  0  0
 45 42  1  0  0  0  0
 46 48  1  0  0  0  0
 47 52  1  0  0  0  0
 48 41  2  0  0  0  0
 48 42  1  0  0  0  0
 50 46  2  0  0  0  0
 51 45  1  0  0  0  0
M  END
>  <MODEL>
1

>  <REMARK>
 VINA RESULT:      -8.2      0.000      0.000
  Name = 
  17 active torsions:
  status: ('A' for Active; 'I' for Inactive)
    1  A    between atoms: C_2  and  N_42
    2  A    between atoms: C_4  and  O_28
    3  A    between atoms: C_4  and  C_48
    4  A    between atoms: C_8  and  C_32
    5  A    between atoms: C_9  and  C_32
    6  A    between atoms: C_9  and  N_39
    7  A    between atoms: C_10  and  N_39
    8  A    between atoms: C_10  and  C_44
    9  A    between atoms: N_12  and  C_33
   10  A    between atoms: C_16  and  C_25
   11  A    between atoms: C_20  and  C_52
   12  A    between atoms: C_23  and  C_31
   13  A    between atoms: C_23  and  C_34
   14  A    between atoms: C_32  and  C_34
   15  A    between atoms: C_33  and  N_37
   16  A    between atoms: N_42  and  C_45
   17  A    between atoms: C_43  and  C_47
                            x       y       z     vdW  Elec       q    Type
                         _______ _______ _______ _____ _____    ______ ____

>  <TORSDO>
F 17

$$$$
=
 OpenBabel11032421163D

 52 56  0  0  1  0  0  0  0  0999 V2000
  186.1890  177.1160  144.3850 O   0  0  0  0  0  0  0  0  0  0  0  0
  187.4660  177.2740  144.9660 C   0  0  0  0  0  2  0  0  0  0  0  0
  188.4030  177.6680  143.8890 C   0  0  0  0  0  0  0  0  0  0  0  0
  186.3030  177.5120  143.0340 C   0  0  2  0  0  3  0  0  0  0  0  0
  187.7320  177.8020  142.7720 C   0  0  0  0  0  0  0  0  0  0  0  0
  188.0780  179.3210  140.9590 O   0  0  0  0  0  0  0  0  0  0  0  0
  188.9830  177.1820  140.6940 N   0  0  0  0  0  2  0  0  0  0  0  0
  188.2680  178.1680  141.4440 C   0  0  0  0  0  0  0  0  0  0  0  0
  189.5070  177.4450  139.3650 C   0  0  0  0  0  2  0  0  0  0  0  0
  189.2770  175.7090  137.1220 O   0  0  0  0  0  0  0  0  0  0  0  0
  190.4660  176.4090  139.0110 N   0  0  0  0  0  2  0  0  0  0  0  0
  190.2750  175.5540  137.8810 C   0  0  0  0  0  0  0  0  0  0  0  0
  192.6720  175.1310  137.5080 C   0  0  0  0  0  2  0  0  0  0  0  0
  191.2960  174.5070  137.5710 C   0  0  2  0  0  3  0  0  0  0  0  0
  191.0090  173.8380  136.2300 C   0  0  0  0  0  2  0  0  0  0  0  0
  192.5790  173.4440  135.3940 S   0  0  0  0  0  0  0  0  0  0  0  0
  193.5490  174.1540  136.7580 C   0  0  1  0  0  3  0  0  0  0  0  0
  197.2360  175.0420  136.2840 C   0  0  0  0  0  3  0  0  0  0  0  0
  194.7370  175.8680  135.3560 C   0  0  0  0  0  3  0  0  0  0  0  0
  194.8160  174.7990  136.2650 C   0  0  0  0  0  0  0  0  0  0  0  0
  195.8920  176.5130  134.9140 C   0  0  0  0  0  3  0  0  0  0  0  0
  197.1410  176.1030  135.3820 C   0  0  0  0  0  3  0  0  0  0  0  0
  196.0840  174.3650  136.7240 C   0  0  0  0  0  0  0  0  0  0  0  0
  197.5530  172.9120  137.9230 F   0  0  0  0  0  0  0  0  0  0  0  0
  196.2120  173.2180  137.7140 C   0  0  0  0  0  0  0  0  0  0  0  0
  195.6130  172.1060  137.1510 F   0  0  0  0  0  0  0  0  0  0  0  0
  196.2330  174.5120  139.6160 C   0  0  0  0  0  1  0  0  0  0  0  0
  195.5530  173.4840  138.9390 O   0  0  0  0  0  0  0  0  0  0  0  0
  189.8770  177.8930  144.0620 C   0  0  0  0  0  2  0  0  0  0  0  0
  190.5070  176.7530  144.7080 N   0  0  0  0  0  2  0  0  0  0  0  0
  191.6210  177.2730  145.4870 C   0  0  0  0  0  2  0  0  0  0  0  0
  191.5170  176.8350  146.9510 C   0  0  2  0  0  3  0  0  0  0  0  0
  192.2630  175.5280  147.1880 C   0  0  0  0  0  2  0  0  0  0  0  0
  192.4640  174.8750  145.9830 F   0  0  0  0  0  0  0  0  0  0  0  0
  190.0660  176.7050  147.4050 C   0  0  0  0  0  2  0  0  0  0  0  0
  189.5130  178.0370  147.8930 C   0  0  0  0  0  2  0  0  0  0  0  0
  187.2050  178.9530  148.1270 O   0  0  0  0  0  0  0  0  0  0  0  0
  188.0890  177.8980  148.3080 C   0  0  0  0  0  0  0  0  0  0  0  0
  187.6830  176.8140  148.8050 O   0  0  0  0  0  1  0  0  0  0  0  0
  185.5070  178.7120  142.8070 N   0  0  0  0  0  2  0  0  0  0  0  0
  184.0740  178.8220  142.8800 C   0  0  0  0  0  0  0  0  0  0  0  0
  181.9160  178.8640  141.7670 C   0  0  0  0  0  0  0  0  0  0  0  0
  183.1040  178.7780  139.2140 O   0  0  0  0  0  0  0  0  0  0  0  0
  183.3800  178.9480  144.1030 C   0  0  0  0  0  0  0  0  0  0  0  0
  181.0670  178.7440  140.5350 C   0  0  0  0  0  2  0  0  0  0  0  0
  183.9130  178.6130  140.3380 C   0  0  0  0  0  0  0  0  0  0  0  0
  181.3160  178.9830  142.9750 N   0  0  0  0  0  0  0  0  0  0  0  0
  183.3150  178.7660  141.6920 C   0  0  0  0  0  0  0  0  0  0  0  0
  184.0620  179.0180  145.3510 N   0  0  0  0  0  1  0  0  0  0  0  0
  185.1240  178.3060  140.1820 O   0  0  0  0  0  0  0  0  0  0  0  0
  181.7940  179.3320  139.3280 C   0  0  0  0  0  2  0  0  0  0  0  0
  182.0230  179.0280  144.1010 N   0  0  0  0  0  0  0  0  0  0  0  0
  1  2  1  0  0  0  0
  3 29  1  0  0  0  0
  3  2  1  0  0  0  0
  4 40  1  1  0  0  0
  4  1  1  0  0  0  0
  5  4  1  0  0  0  0
  5  3  2  0  0  0  0
  6  8  2  0  0  0  0
  7  8  1  0  0  0  0
  8  5  1  0  0  0  0
  9  7  1  0  0  0  0
 10 12  2  0  0  0  0
 11  9  1  0  0  0  0
 12 11  1  0  0  0  0
 13 14  1  0  0  0  0
 14 12  1  6  0  0  0
 15 14  1  0  0  0  0
 16 15  1  0  0  0  0
 16 17  1  0  0  0  0
 17 20  1  6  0  0  0
 17 13  1  0  0  0  0
 18 23  1  0  0  0  0
 19 20  1  0  0  0  0
 20 23  2  0  0  0  0
 21 19  2  0  0  0  0
 21 22  1  0  0  0  0
 22 18  2  0  0  0  0
 23 25  1  0  0  0  0
 25 24  1  0  0  0  0
 25 28  1  0  0  0  0
 26 25  1  0  0  0  0
 28 27  1  0  0  0  0
 29 30  1  0  0  0  0
 30 31  1  0  0  0  0
 32 31  1  6  0  0  0
 32 33  1  0  0  0  0
 32 35  1  0  0  0  0
 34 33  1  0  0  0  0
 35 36  1  0  0  0  0
 36 38  1  0  0  0  0
 37 38  2  0  0  0  0
 38 39  1  0  0  0  0
 40 41  1  0  0  0  0
 41 44  1  0  0  0  0
 42 47  2  0  0  0  0
 43 51  1  0  0  0  0
 43 46  1  0  0  0  0
 44 49  1  0  0  0  0
 45 42  1  0  0  0  0
 46 48  1  0  0  0  0
 47 52  1  0  0  0  0
 48 42  1  0  0  0  0
 48 41  2  0  0  0  0
 50 46  2  0  0  0  0
 51 45  1  0  0  0  0
 52 44  2  0  0  0  0
M  END
>  <MODEL>
2

>  <REMARK>
 VINA RESULT:      -8.1      3.216      7.657
  Name = 
  17 active torsions:
  status: ('A' for Active; 'I' for Inactive)
    1  A    between atoms: C_2  and  N_42
    2  A    between atoms: C_4  and  O_28
    3  A    between atoms: C_4  and  C_48
    4  A    between atoms: C_8  and  C_32
    5  A    between atoms: C_9  and  C_32
    6  A    between atoms: C_9  and  N_39
    7  A    between atoms: C_10  and  N_39
    8  A    between atoms: C_10  and  C_44
    9  A    between atoms: N_12  and  C_33
   10  A    between atoms: C_16  and  C_25
   11  A    between atoms: C_20  and  C_52
   12  A    between atoms: C_23  and  C_31
   13  A    between atoms: C_23  and  C_34
   14  A    between atoms: C_32  and  C_34
   15  A    between atoms: C_33  and  N_37
   16  A    between atoms: N_42  and  C_45
   17  A    between atoms: C_43  and  C_47
                            x       y       z     vdW  Elec       q    Type
                         _______ _______ _______ _____ _____    ______ ____

>  <TORSDO>
F 17

$$$$
=
 OpenBabel11032421163D

 52 56  0  0  1  0  0  0  0  0999 V2000
  186.0740  177.1710  144.1760 O   0  0  0  0  0  0  0  0  0  0  0  0
  187.3000  177.3310  144.8560 C   0  0  0  0  0  2  0  0  0  0  0  0
  188.3170  177.7350  143.8570 C   0  0  0  0  0  0  0  0  0  0  0  0
  186.2900  177.5750  142.8390 C   0  0  2  0  0  3  0  0  0  0  0  0
  187.7340  177.8720  142.6920 C   0  0  0  0  0  0  0  0  0  0  0  0
  188.3460  179.4430  140.9970 O   0  0  0  0  0  0  0  0  0  0  0  0
  188.9920  177.2270  140.6260 N   0  0  0  0  0  2  0  0  0  0  0  0
  188.3710  178.2480  141.4120 C   0  0  0  0  0  0  0  0  0  0  0  0
  189.6040  177.5030  139.3370 C   0  0  0  0  0  2  0  0  0  0  0  0
  189.3780  175.6520  137.1870 O   0  0  0  0  0  0  0  0  0  0  0  0
  190.5710  176.4600  139.0300 N   0  0  0  0  0  2  0  0  0  0  0  0
  190.3830  175.5470  137.9460 C   0  0  0  0  0  0  0  0  0  0  0  0
  192.7810  175.1290  137.5790 C   0  0  0  0  0  2  0  0  0  0  0  0
  191.4120  174.4950  137.6830 C   0  0  2  0  0  3  0  0  0  0  0  0
  191.1240  173.7550  136.3800 C   0  0  0  0  0  2  0  0  0  0  0  0
  192.6930  173.3350  135.5550 S   0  0  0  0  0  0  0  0  0  0  0  0
  193.6630  174.1240  136.8740 C   0  0  1  0  0  3  0  0  0  0  0  0
  197.3440  174.8980  136.1980 C   0  0  0  0  0  3  0  0  0  0  0  0
  194.8270  175.8960  135.5260 C   0  0  0  0  0  3  0  0  0  0  0  0
  194.9200  174.7550  136.3400 C   0  0  0  0  0  0  0  0  0  0  0  0
  195.9760  176.5290  135.0510 C   0  0  0  0  0  3  0  0  0  0  0  0
  197.2350  176.0330  135.3920 C   0  0  0  0  0  3  0  0  0  0  0  0
  196.1970  174.2340  136.6680 C   0  0  0  0  0  0  0  0  0  0  0  0
  195.7080  173.2190  138.7740 F   0  0  0  0  0  0  0  0  0  0  0  0
  196.3420  173.0070  137.5540 C   0  0  0  0  0  0  0  0  0  0  0  0
  197.6890  172.8280  137.8090 F   0  0  0  0  0  0  0  0  0  0  0  0
  195.4180  170.9320  137.9150 C   0  0  0  0  0  1  0  0  0  0  0  0
  195.8650  171.8290  136.9290 O   0  0  0  0  0  0  0  0  0  0  0  0
  189.7710  177.9660  144.1460 C   0  0  0  0  0  2  0  0  0  0  0  0
  190.3920  176.7680  144.6870 N   0  0  0  0  0  2  0  0  0  0  0  0
  191.5700  177.2010  145.4240 C   0  0  0  0  0  2  0  0  0  0  0  0
  191.4170  176.9100  146.9200 C   0  0  2  0  0  3  0  0  0  0  0  0
  192.1790  175.6510  147.3160 C   0  0  0  0  0  2  0  0  0  0  0  0
  192.4460  174.8890  146.1900 F   0  0  0  0  0  0  0  0  0  0  0  0
  189.9520  176.7930  147.3310 C   0  0  0  0  0  2  0  0  0  0  0  0
  189.4800  178.0360  148.0730 C   0  0  0  0  0  2  0  0  0  0  0  0
  187.5140  176.8640  149.0630 O   0  0  0  0  0  1  0  0  0  0  0  0
  188.0230  177.9530  148.3690 C   0  0  0  0  0  0  0  0  0  0  0  0
  187.2550  178.8830  148.0040 O   0  0  0  0  0  0  0  0  0  0  0  0
  185.5080  178.7720  142.5580 N   0  0  0  0  0  2  0  0  0  0  0  0
  184.2990  178.8490  141.7810 C   0  0  0  0  0  0  0  0  0  0  0  0
  181.8780  179.0040  141.6810 C   0  0  0  0  0  0  0  0  0  0  0  0
  181.6350  178.7670  144.4780 O   0  0  0  0  0  0  0  0  0  0  0  0
  184.3010  178.8940  140.3700 C   0  0  0  0  0  0  0  0  0  0  0  0
  180.5390  179.1470  142.3460 C   0  0  0  0  0  2  0  0  0  0  0  0
  182.9070  178.9040  143.9230 C   0  0  0  0  0  0  0  0  0  0  0  0
  181.9540  179.0430  140.3300 N   0  0  0  0  0  0  0  0  0  0  0  0
  183.0560  178.9190  142.4430 C   0  0  0  0  0  0  0  0  0  0  0  0
  185.5090  178.8230  139.6170 N   0  0  0  0  0  1  0  0  0  0  0  0
  183.8980  179.0440  144.6870 O   0  0  0  0  0  0  0  0  0  0  0  0
  180.5190  178.3910  143.6720 C   0  0  0  0  0  2  0  0  0  0  0  0
  183.1240  178.9860  139.6980 N   0  0  0  0  0  0  0  0  0  0  0  0
  1  2  1  0  0  0  0
  3 29  1  0  0  0  0
  3  2  1  0  0  0  0
  4 40  1  1  0  0  0
  4  1  1  0  0  0  0
  5  4  1  0  0  0  0
  5  3  2  0  0  0  0
  6  8  2  0  0  0  0
  7  8  1  0  0  0  0
  8  5  1  0  0  0  0
  9  7  1  0  0  0  0
 10 12  2  0  0  0  0
 11  9  1  0  0  0  0
 12 11  1  0  0  0  0
 13 14  1  0  0  0  0
 14 12  1  6  0  0  0
 15 14  1  0  0  0  0
 16 15  1  0  0  0  0
 16 17  1  0  0  0  0
 17 20  1  6  0  0  0
 17 13  1  0  0  0  0
 18 23  1  0  0  0  0
 19 20  1  0  0  0  0
 20 23  2  0  0  0  0
 21 22  1  0  0  0  0
 21 19  2  0  0  0  0
 22 18  2  0  0  0  0
 23 25  1  0  0  0  0
 25 26  1  0  0  0  0
 25 24  1  0  0  0  0
 28 25  1  0  0  0  0
 28 27  1  0  0  0  0
 29 30  1  0  0  0  0
 30 31  1  0  0  0  0
 32 31  1  6  0  0  0
 32 33  1  0  0  0  0
 32 35  1  0  0  0  0
 34 33  1  0  0  0  0
 35 36  1  0  0  0  0
 36 38  1  0  0  0  0
 38 37  1  0  0  0  0
 39 38  2  0  0  0  0
 41 48  1  0  0  0  0
 41 40  1  0  0  0  0
 42 45  1  0  0  0  0
 42 48  2  0  0  0  0
 44 41  2  0  0  0  0
 45 51  1  0  0  0  0
 46 43  1  0  0  0  0
 46 50  2  0  0  0  0
 47 42  1  0  0  0  0
 48 46  1  0  0  0  0
 49 44  1  0  0  0  0
 51 43  1  0  0  0  0
 52 47  2  0  0  0  0
 52 44  1  0  0  0  0
M  END
>  <MODEL>
3

>  <REMARK>
 VINA RESULT:      -8.1      3.638      7.862
  Name = 
  17 active torsions:
  status: ('A' for Active; 'I' for Inactive)
    1  A    between atoms: C_2  and  N_42
    2  A    between atoms: C_4  and  O_28
    3  A    between atoms: C_4  and  C_48
    4  A    between atoms: C_8  and  C_32
    5  A    between atoms: C_9  and  C_32
    6  A    between atoms: C_9  and  N_39
    7  A    between atoms: C_10  and  N_39
    8  A    between atoms: C_10  and  C_44
    9  A    between atoms: N_12  and  C_33
   10  A    between atoms: C_16  and  C_25
   11  A    between atoms: C_20  and  C_52
   12  A    between atoms: C_23  and  C_31
   13  A    between atoms: C_23  and  C_34
   14  A    between atoms: C_32  and  C_34
   15  A    between atoms: C_33  and  N_37
   16  A    between atoms: N_42  and  C_45
   17  A    between atoms: C_43  and  C_47
                            x       y       z     vdW  Elec       q    Type
                         _______ _______ _______ _____ _____    ______ ____

>  <TORSDO>
F 17

$$$$
=
 OpenBabel11032421163D

 52 56  0  0  1  0  0  0  0  0999 V2000
  183.9910  179.6330  144.6490 O   0  0  0  0  0  0  0  0  0  0  0  0
  182.6280  179.5030  144.3050 C   0  0  0  0  0  2  0  0  0  0  0  0
  182.5620  178.9910  142.9170 C   0  0  0  0  0  0  0  0  0  0  0  0
  184.7370  179.1110  143.5680 C   0  0  2  0  0  3  0  0  0  0  0  0
  183.7810  178.7680  142.4900 C   0  0  0  0  0  0  0  0  0  0  0  0
  183.8040  177.1360  140.7430 O   0  0  0  0  0  0  0  0  0  0  0  0
  185.0460  179.0770  140.3520 N   0  0  0  0  0  2  0  0  0  0  0  0
  184.1850  178.2690  141.1590 C   0  0  0  0  0  0  0  0  0  0  0  0
  185.5240  178.6450  139.0500 C   0  0  0  0  0  2  0  0  0  0  0  0
  187.3430  179.0050  136.8920 O   0  0  0  0  0  0  0  0  0  0  0  0
  186.9570  178.4010  139.1190 N   0  0  0  0  0  2  0  0  0  0  0  0
  187.8120  178.5800  137.9860 C   0  0  0  0  0  0  0  0  0  0  0  0
  189.6850  177.2040  137.1740 C   0  0  0  0  0  2  0  0  0  0  0  0
  189.2760  178.3110  138.1200 C   0  0  2  0  0  3  0  0  0  0  0  0
  189.6300  177.8830  139.5420 C   0  0  0  0  0  2  0  0  0  0  0  0
  190.9580  176.6370  139.4930 S   0  0  0  0  0  0  0  0  0  0  0  0
  191.0110  176.6820  137.6770 C   0  0  1  0  0  3  0  0  0  0  0  0
  192.9470  173.6790  136.3210 C   0  0  0  0  0  3  0  0  0  0  0  0
  190.3010  174.4850  136.6850 C   0  0  0  0  0  3  0  0  0  0  0  0
  191.3430  175.3350  137.0960 C   0  0  0  0  0  0  0  0  0  0  0  0
  190.5770  173.2480  136.1030 C   0  0  0  0  0  3  0  0  0  0  0  0
  191.9010  172.8470  135.9160 C   0  0  0  0  0  3  0  0  0  0  0  0
  192.6870  174.9200  136.9290 C   0  0  0  0  0  0  0  0  0  0  0  0
  194.1190  175.6320  138.7030 F   0  0  0  0  0  0  0  0  0  0  0  0
  193.8430  175.8120  137.3510 C   0  0  0  0  0  0  0  0  0  0  0  0
  193.4470  177.1260  137.1770 F   0  0  0  0  0  0  0  0  0  0  0  0
  194.9550  176.4570  135.4440 C   0  0  0  0  0  1  0  0  0  0  0  0
  195.0020  175.6080  136.5630 O   0  0  0  0  0  0  0  0  0  0  0  0
  181.3000  178.7530  142.1400 C   0  0  0  0  0  2  0  0  0  0  0  0
  180.6950  180.0090  141.7290 N   0  0  0  0  0  2  0  0  0  0  0  0
  179.9960  179.7500  140.4790 C   0  0  0  0  0  2  0  0  0  0  0  0
  180.8000  180.2700  139.2840 C   0  0  2  0  0  3  0  0  0  0  0  0
  180.2700  181.6170  138.8090 C   0  0  0  0  0  2  0  0  0  0  0  0
  181.3100  182.5260  138.7130 F   0  0  0  0  0  0  0  0  0  0  0  0
  180.8170  179.2710  138.1300 C   0  0  0  0  0  2  0  0  0  0  0  0
  182.0760  178.4170  138.1500 C   0  0  0  0  0  2  0  0  0  0  0  0
  181.1450  177.3080  136.1200 O   0  0  0  0  0  0  0  0  0  0  0  0
  182.2540  177.7080  136.8520 C   0  0  0  0  0  0  0  0  0  0  0  0
  183.4140  177.4890  136.4100 O   0  0  0  0  0  1  0  0  0  0  0  0
  185.4460  177.9120  143.9980 N   0  0  0  0  0  2  0  0  0  0  0  0
  186.4740  177.8320  145.0010 C   0  0  0  0  0  0  0  0  0  0  0  0
  188.8090  177.5180  145.5890 C   0  0  0  0  0  0  0  0  0  0  0  0
  189.5200  176.9430  142.9250 O   0  0  0  0  0  0  0  0  0  0  0  0
  186.2150  178.0270  146.3760 C   0  0  0  0  0  0  0  0  0  0  0  0
  190.2490  177.3250  145.2090 C   0  0  0  0  0  2  0  0  0  0  0  0
  188.2250  177.3860  143.1940 C   0  0  0  0  0  0  0  0  0  0  0  0
  188.4890  177.7150  146.8900 N   0  0  0  0  0  0  0  0  0  0  0  0
  187.8060  177.5870  144.6080 C   0  0  0  0  0  0  0  0  0  0  0  0
  184.9010  178.2740  146.8650 N   0  0  0  0  0  1  0  0  0  0  0  0
  187.4510  177.6350  142.2350 O   0  0  0  0  0  0  0  0  0  0  0  0
  190.3570  176.4430  143.9670 C   0  0  0  0  0  2  0  0  0  0  0  0
  187.2370  177.9560  147.2690 N   0  0  0  0  0  0  0  0  0  0  0  0
  2  1  1  0  0  0  0
  3  2  1  0  0  0  0
  4 40  1  1  0  0  0
  4  1  1  0  0  0  0
  5  3  2  0  0  0  0
  5  4  1  0  0  0  0
  6  8  2  0  0  0  0
  7  8  1  0  0  0  0
  8  5  1  0  0  0  0
  9 11  1  0  0  0  0
  9  7  1  0  0  0  0
 10 12  2  0  0  0  0
 12 11  1  0  0  0  0
 13 17  1  0  0  0  0
 13 14  1  0  0  0  0
 14 12  1  1  0  0  0
 14 15  1  0  0  0  0
 16 15  1  0  0  0  0
 17 20  1  6  0  0  0
 17 16  1  0  0  0  0
 18 23  1  0  0  0  0
 19 20  1  0  0  0  0
 21 19  2  0  0  0  0
 22 21  1  0  0  0  0
 22 18  2  0  0  0  0
 23 20  2  0  0  0  0
 23 25  1  0  0  0  0
 25 24  1  0  0  0  0
 26 25  1  0  0  0  0
 27 28  1  0  0  0  0
 28 25  1  0  0  0  0
 29  3  1  0  0  0  0
 30 29  1  0  0  0  0
 31 30  1  0  0  0  0
 32 35  1  6  0  0  0
 32 31  1  0  0  0  0
 33 32  1  0  0  0  0
 34 33  1  0  0  0  0
 35 36  1  0  0  0  0
 37 38  2  0  0  0  0
 38 36  1  0  0  0  0
 39 38  1  0  0  0  0
 40 41  1  0  0  0  0
 41 44  1  0  0  0  0
 42 47  2  0  0  0  0
 43 46  1  0  0  0  0
 43 51  1  0  0  0  0
 44 49  1  0  0  0  0
 44 52  2  0  0  0  0
 45 42  1  0  0  0  0
 46 48  1  0  0  0  0
 47 52  1  0  0  0  0
 48 41  2  0  0  0  0
 48 42  1  0  0  0  0
 50 46  2  0  0  0  0
 51 45  1  0  0  0  0
M  END
>  <MODEL>
4

>  <REMARK>
 VINA RESULT:      -7.9      1.610      2.006
  Name = 
  17 active torsions:
  status: ('A' for Active; 'I' for Inactive)
    1  A    between atoms: C_2  and  N_42
    2  A    between atoms: C_4  and  O_28
    3  A    between atoms: C_4  and  C_48
    4  A    between atoms: C_8  and  C_32
    5  A    between atoms: C_9  and  C_32
    6  A    between atoms: C_9  and  N_39
    7  A    between atoms: C_10  and  N_39
    8  A    between atoms: C_10  and  C_44
    9  A    between atoms: N_12  and  C_33
   10  A    between atoms: C_16  and  C_25
   11  A    between atoms: C_20  and  C_52
   12  A    between atoms: C_23  and  C_31
   13  A    between atoms: C_23  and  C_34
   14  A    between atoms: C_32  and  C_34
   15  A    between atoms: C_33  and  N_37
   16  A    between atoms: N_42  and  C_45
   17  A    between atoms: C_43  and  C_47
                            x       y       z     vdW  Elec       q    Type
                         _______ _______ _______ _____ _____    ______ ____

>  <TORSDO>
F 17

$$$$
=
 OpenBabel11032421163D

 52 56  0  0  1  0  0  0  0  0999 V2000
  190.2270  177.8980  140.3920 O   0  0  0  0  0  0  0  0  0  0  0  0
  190.1860  177.6030  141.7720 C   0  0  0  0  0  2  0  0  0  0  0  0
  188.8030  177.8470  142.2420 C   0  0  0  0  0  0  0  0  0  0  0  0
  188.9030  178.1950  139.9970 C   0  0  2  0  0  3  0  0  0  0  0  0
  188.0630  178.1930  141.2170 C   0  0  0  0  0  0  0  0  0  0  0  0
  186.1550  179.3900  140.4150 O   0  0  0  0  0  0  0  0  0  0  0  0
  185.7760  177.9310  142.2020 N   0  0  0  0  0  2  0  0  0  0  0  0
  186.6270  178.5430  141.2290 C   0  0  0  0  0  0  0  0  0  0  0  0
  184.3620  178.2500  142.3090 C   0  0  0  0  0  2  0  0  0  0  0  0
  181.7690  179.0250  141.4310 O   0  0  0  0  0  0  0  0  0  0  0  0
  183.6460  177.6480  141.1950 N   0  0  0  0  0  2  0  0  0  0  0  0
  182.3320  178.0720  140.8220 C   0  0  0  0  0  0  0  0  0  0  0  0
  182.1850  176.0110  139.4820 C   0  0  0  0  0  2  0  0  0  0  0  0
  181.6470  177.4120  139.6680 C   0  0  2  0  0  3  0  0  0  0  0  0
  181.8740  178.1890  138.3750 C   0  0  0  0  0  2  0  0  0  0  0  0
  182.0220  177.0270  136.9800 S   0  0  0  0  0  0  0  0  0  0  0  0
  181.8120  175.5940  138.0780 C   0  0  1  0  0  3  0  0  0  0  0  0
  182.7770  172.1060  136.8490 C   0  0  0  0  0  3  0  0  0  0  0  0
  184.0180  174.4920  137.5930 C   0  0  0  0  0  3  0  0  0  0  0  0
  182.6150  174.4100  137.6110 C   0  0  0  0  0  0  0  0  0  0  0  0
  184.7910  173.3970  137.2050 C   0  0  0  0  0  3  0  0  0  0  0  0
  184.1700  172.2020  136.8380 C   0  0  0  0  0  3  0  0  0  0  0  0
  181.9810  173.2060  137.2150 C   0  0  0  0  0  0  0  0  0  0  0  0
  179.8790  174.2360  136.7390 F   0  0  0  0  0  0  0  0  0  0  0  0
  180.4660  173.0730  137.2290 C   0  0  0  0  0  0  0  0  0  0  0  0
  180.0680  172.9270  138.5460 F   0  0  0  0  0  0  0  0  0  0  0  0
  179.7410  172.3010  135.1880 C   0  0  0  0  0  1  0  0  0  0  0  0
  180.0160  171.9360  136.5170 O   0  0  0  0  0  0  0  0  0  0  0  0
  188.3310  177.7020  143.6590 C   0  0  0  0  0  2  0  0  0  0  0  0
  189.3400  178.1680  144.5950 N   0  0  0  0  0  2  0  0  0  0  0  0
  189.7360  177.0180  145.3950 C   0  0  0  0  0  2  0  0  0  0  0  0
  189.8460  177.3930  146.8760 C   0  0  2  0  0  3  0  0  0  0  0  0
  191.0730  176.7530  147.5140 C   0  0  0  0  0  2  0  0  0  0  0  0
  191.9370  176.3060  146.5300 F   0  0  0  0  0  0  0  0  0  0  0  0
  188.5880  177.0170  147.6540 C   0  0  0  0  0  2  0  0  0  0  0  0
  187.7770  178.2500  148.0320 C   0  0  0  0  0  2  0  0  0  0  0  0
  186.2750  177.3820  146.2410 O   0  0  0  0  0  0  0  0  0  0  0  0
  186.5610  178.3630  147.1810 C   0  0  0  0  0  0  0  0  0  0  0  0
  185.7790  179.3400  147.3290 O   0  0  0  0  0  1  0  0  0  0  0  0
  188.4300  177.1750  139.0700 N   0  0  0  0  0  2  0  0  0  0  0  0
  188.4110  177.2580  137.6340 C   0  0  0  0  0  0  0  0  0  0  0  0
  189.3900  176.6810  135.4880 C   0  0  0  0  0  0  0  0  0  0  0  0
  191.5860  175.4040  136.7060 O   0  0  0  0  0  0  0  0  0  0  0  0
  187.3990  177.9400  136.9220 C   0  0  0  0  0  0  0  0  0  0  0  0
  190.4030  175.9480  134.6570 C   0  0  0  0  0  2  0  0  0  0  0  0
  190.5290  175.8340  137.5080 C   0  0  0  0  0  0  0  0  0  0  0  0
  188.3890  177.3530  134.8710 N   0  0  0  0  0  0  0  0  0  0  0  0
  189.4160  176.6060  136.8900 C   0  0  0  0  0  0  0  0  0  0  0  0
  186.3470  178.6310  137.5890 N   0  0  0  0  0  1  0  0  0  0  0  0
  190.5240  175.5310  138.7290 O   0  0  0  0  0  0  0  0  0  0  0  0
  191.7480  175.9000  135.3770 C   0  0  0  0  0  2  0  0  0  0  0  0
  187.4310  177.9630  135.5640 N   0  0  0  0  0  0  0  0  0  0  0  0
  1  2  1  0  0  0  0
  2  3  1  0  0  0  0
  3 29  1  0  0  0  0
  4 40  1  6  0  0  0
  4  1  1  0  0  0  0
  4  5  1  0  0  0  0
  5  8  1  0  0  0  0
  5  3  2  0  0  0  0
  6  8  2  0  0  0  0
  7  9  1  0  0  0  0
  8  7  1  0  0  0  0
 11  9  1  0  0  0  0
 12 11  1  0  0  0  0
 12 10  2  0  0  0  0
 13 14  1  0  0  0  0
 14 12  1  1  0  0  0
 15 14  1  0  0  0  0
 16 17  1  0  0  0  0
 16 15  1  0  0  0  0
 17 20  1  6  0  0  0
 17 13  1  0  0  0  0
 18 23  1  0  0  0  0
 19 20  1  0  0  0  0
 21 19  2  0  0  0  0
 22 18  2  0  0  0  0
 22 21  1  0  0  0  0
 23 25  1  0  0  0  0
 23 20  2  0  0  0  0
 24 25  1  0  0  0  0
 25 26  1  0  0  0  0
 27 28  1  0  0  0  0
 28 25  1  0  0  0  0
 29 30  1  0  0  0  0
 30 31  1  0  0  0  0
 32 31  1  6  0  0  0
 32 33  1  0  0  0  0
 32 35  1  0  0  0  0
 34 33  1  0  0  0  0
 35 36  1  0  0  0  0
 37 38  2  0  0  0  0
 38 39  1  0  0  0  0
 38 36  1  0  0  0  0
 41 40  1  0  0  0  0
 42 48  1  0  0  0  0
 43 46  1  0  0  0  0
 44 49  1  0  0  0  0
 44 41  1  0  0  0  0
 45 51  1  0  0  0  0
 45 42  1  0  0  0  0
 46 50  2  0  0  0  0
 47 42  2  0  0  0  0
 47 52  1  0  0  0  0
 48 46  1  0  0  0  0
 48 41  2  0  0  0  0
 51 43  1  0  0  0  0
 52 44  2  0  0  0  0
M  END
>  <MODEL>
5

>  <REMARK>
 VINA RESULT:      -7.9      4.112      9.660
  Name = 
  17 active torsions:
  status: ('A' for Active; 'I' for Inactive)
    1  A    between atoms: C_2  and  N_42
    2  A    between atoms: C_4  and  O_28
    3  A    between atoms: C_4  and  C_48
    4  A    between atoms: C_8  and  C_32
    5  A    between atoms: C_9  and  C_32
    6  A    between atoms: C_9  and  N_39
    7  A    between atoms: C_10  and  N_39
    8  A    between atoms: C_10  and  C_44
    9  A    between atoms: N_12  and  C_33
   10  A    between atoms: C_16  and  C_25
   11  A    between atoms: C_20  and  C_52
   12  A    between atoms: C_23  and  C_31
   13  A    between atoms: C_23  and  C_34
   14  A    between atoms: C_32  and  C_34
   15  A    between atoms: C_33  and  N_37
   16  A    between atoms: N_42  and  C_45
   17  A    between atoms: C_43  and  C_47
                            x       y       z     vdW  Elec       q    Type
                         _______ _______ _______ _____ _____    ______ ____

>  <TORSDO>
F 17

$$$$
=
 OpenBabel11032421163D

 52 56  0  0  1  0  0  0  0  0999 V2000
  189.9050  176.4910  142.0010 O   0  0  0  0  0  0  0  0  0  0  0  0
  190.0710  176.9300  140.6690 C   0  0  0  0  0  2  0  0  0  0  0  0
  188.8840  177.7420  140.3130 C   0  0  0  0  0  0  0  0  0  0  0  0
  188.7290  177.1040  142.4900 C   0  0  2  0  0  3  0  0  0  0  0  0
  188.1080  177.8390  141.3640 C   0  0  0  0  0  0  0  0  0  0  0  0
  186.7080  179.7630  141.1290 O   0  0  0  0  0  0  0  0  0  0  0  0
  185.6750  177.8350  141.9560 N   0  0  0  0  0  2  0  0  0  0  0  0
  186.8120  178.5440  141.4560 C   0  0  0  0  0  0  0  0  0  0  0  0
  184.3750  178.4640  142.1180 C   0  0  0  0  0  2  0  0  0  0  0  0
  183.9110  179.2060  139.4110 O   0  0  0  0  0  0  0  0  0  0  0  0
  183.4160  177.8240  141.2310 N   0  0  0  0  0  2  0  0  0  0  0  0
  183.2160  178.2640  139.8860 C   0  0  0  0  0  0  0  0  0  0  0  0
  182.4720  176.0770  139.0350 C   0  0  0  0  0  2  0  0  0  0  0  0
  182.2120  177.5670  139.0250 C   0  0  2  0  0  3  0  0  0  0  0  0
  182.2870  178.0580  137.5820 C   0  0  0  0  0  2  0  0  0  0  0  0
  181.9590  176.6730  136.4460 S   0  0  0  0  0  0  0  0  0  0  0  0
  181.7560  175.5120  137.8290 C   0  0  1  0  0  3  0  0  0  0  0  0
  181.8590  171.7700  137.0590 C   0  0  0  0  0  3  0  0  0  0  0  0
  183.6270  173.9110  137.3280 C   0  0  0  0  0  3  0  0  0  0  0  0
  182.2480  174.1340  137.4780 C   0  0  0  0  0  0  0  0  0  0  0  0
  184.1170  172.6360  137.0440 C   0  0  0  0  0  3  0  0  0  0  0  0
  183.2320  171.5640  136.9150 C   0  0  0  0  0  3  0  0  0  0  0  0
  181.3460  173.0520  137.3230 C   0  0  0  0  0  0  0  0  0  0  0  0
  179.5560  173.6670  138.7820 F   0  0  0  0  0  0  0  0  0  0  0  0
  179.8470  173.2490  137.4870 C   0  0  0  0  0  0  0  0  0  0  0  0
  179.2370  172.0220  137.2980 F   0  0  0  0  0  0  0  0  0  0  0  0
  179.3310  173.5330  135.2630 C   0  0  0  0  0  1  0  0  0  0  0  0
  179.3110  174.1440  136.5290 O   0  0  0  0  0  0  0  0  0  0  0  0
  188.6310  178.3630  138.9710 C   0  0  0  0  0  2  0  0  0  0  0  0
  189.7580  178.1530  138.0780 N   0  0  0  0  0  2  0  0  0  0  0  0
  189.2070  177.7430  136.7940 C   0  0  0  0  0  2  0  0  0  0  0  0
  189.7880  176.3960  136.3540 C   0  0  2  0  0  3  0  0  0  0  0  0
  188.7230  175.3070  136.3680 C   0  0  0  0  0  2  0  0  0  0  0  0
  187.9380  175.4300  137.5030 F   0  0  0  0  0  0  0  0  0  0  0  0
  190.9790  175.9820  137.2130 C   0  0  0  0  0  2  0  0  0  0  0  0
  192.2380  175.8080  136.3750 C   0  0  0  0  0  2  0  0  0  0  0  0
  193.4190  176.5570  138.4390 O   0  0  0  0  0  1  0  0  0  0  0  0
  193.4160  176.4110  137.0590 C   0  0  0  0  0  0  0  0  0  0  0  0
  194.4180  176.7700  136.3850 O   0  0  0  0  0  0  0  0  0  0  0  0
  189.0700  178.0340  143.5580 N   0  0  0  0  0  2  0  0  0  0  0  0
  189.6710  177.7090  144.8250 C   0  0  0  0  0  0  0  0  0  0  0  0
  189.4540  177.3440  147.2160 C   0  0  0  0  0  0  0  0  0  0  0  0
  186.7420  178.1090  147.2010 O   0  0  0  0  0  0  0  0  0  0  0  0
  191.0390  177.3860  144.9600 C   0  0  0  0  0  0  0  0  0  0  0  0
  188.6220  177.2290  148.4600 C   0  0  0  0  0  2  0  0  0  0  0  0
  187.4080  177.9660  145.9830 C   0  0  0  0  0  0  0  0  0  0  0  0
  190.7730  177.0450  147.2720 N   0  0  0  0  0  0  0  0  0  0  0  0
  188.8660  177.6710  145.9820 C   0  0  0  0  0  0  0  0  0  0  0  0
  191.9280  177.4030  143.8470 N   0  0  0  0  0  1  0  0  0  0  0  0
  186.7530  178.0600  144.9120 O   0  0  0  0  0  0  0  0  0  0  0  0
  187.4680  178.2280  148.4240 C   0  0  0  0  0  2  0  0  0  0  0  0
  191.5380  177.0700  146.1830 N   0  0  0  0  0  0  0  0  0  0  0  0
  1  4  1  0  0  0  0
  2  1  1  0  0  0  0
  3  2  1  0  0  0  0
  3  5  2  0  0  0  0
  4 40  1  1  0  0  0
  5  8  1  0  0  0  0
  5  4  1  0  0  0  0
  6  8  2  0  0  0  0
  7  9  1  0  0  0  0
  8  7  1  0  0  0  0
 10 12  2  0  0  0  0
 11  9  1  0  0  0  0
 12 11  1  0  0  0  0
 14 13  1  0  0  0  0
 14 12  1  1  0  0  0
 15 14  1  0  0  0  0
 16 15  1  0  0  0  0
 16 17  1  0  0  0  0
 17 20  1  6  0  0  0
 17 13  1  0  0  0  0
 18 23  1  0  0  0  0
 19 20  1  0  0  0  0
 21 19  2  0  0  0  0
 22 21  1  0  0  0  0
 22 18  2  0  0  0  0
 23 20  2  0  0  0  0
 23 25  1  0  0  0  0
 25 24  1  0  0  0  0
 26 25  1  0  0  0  0
 27 28  1  0  0  0  0
 28 25  1  0  0  0  0
 29  3  1  0  0  0  0
 30 29  1  0  0  0  0
 31 30  1  0  0  0  0
 32 33  1  1  0  0  0
 32 31  1  0  0  0  0
 32 35  1  0  0  0  0
 33 34  1  0  0  0  0
 36 38  1  0  0  0  0
 36 35  1  0  0  0  0
 38 37  1  0  0  0  0
 39 38  2  0  0  0  0
 40 41  1  0  0  0  0
 41 44  2  0  0  0  0
 41 48  1  0  0  0  0
 42 47  1  0  0  0  0
 42 45  1  0  0  0  0
 43 51  1  0  0  0  0
 44 52  1  0  0  0  0
 46 43  1  0  0  0  0
 48 46  1  0  0  0  0
 48 42  2  0  0  0  0
 49 44  1  0  0  0  0
 50 46  2  0  0  0  0
 51 45  1  0  0  0  0
 52 47  2  0  0  0  0
M  END
>  <MODEL>
6

>  <REMARK>
 VINA RESULT:      -7.9      4.078      8.848
  Name = 
  17 active torsions:
  status: ('A' for Active; 'I' for Inactive)
    1  A    between atoms: C_2  and  N_42
    2  A    between atoms: C_4  and  O_28
    3  A    between atoms: C_4  and  C_48
    4  A    between atoms: C_8  and  C_32
    5  A    between atoms: C_9  and  C_32
    6  A    between atoms: C_9  and  N_39
    7  A    between atoms: C_10  and  N_39
    8  A    between atoms: C_10  and  C_44
    9  A    between atoms: N_12  and  C_33
   10  A    between atoms: C_16  and  C_25
   11  A    between atoms: C_20  and  C_52
   12  A    between atoms: C_23  and  C_31
   13  A    between atoms: C_23  and  C_34
   14  A    between atoms: C_32  and  C_34
   15  A    between atoms: C_33  and  N_37
   16  A    between atoms: N_42  and  C_45
   17  A    between atoms: C_43  and  C_47
                            x       y       z     vdW  Elec       q    Type
                         _______ _______ _______ _____ _____    ______ ____

>  <TORSDO>
F 17

$$$$
=
 OpenBabel11032421163D

 52 56  0  0  1  0  0  0  0  0999 V2000
  186.4910  179.1630  142.1880 O   0  0  0  0  0  0  0  0  0  0  0  0
  185.2520  179.0660  141.5200 C   0  0  0  0  0  2  0  0  0  0  0  0
  185.5260  178.6700  140.1200 C   0  0  0  0  0  0  0  0  0  0  0  0
  187.4810  178.7280  141.2780 C   0  0  2  0  0  3  0  0  0  0  0  0
  186.8150  178.4780  139.9800 C   0  0  0  0  0  0  0  0  0  0  0  0
  188.2940  178.9050  138.1510 O   0  0  0  0  0  0  0  0  0  0  0  0
  187.3260  176.7790  138.2140 N   0  0  0  0  0  2  0  0  0  0  0  0
  187.5320  178.0890  138.7470 C   0  0  0  0  0  0  0  0  0  0  0  0
  187.9580  176.3300  136.9850 C   0  0  0  0  0  2  0  0  0  0  0  0
  190.7040  177.0690  136.8690 O   0  0  0  0  0  0  0  0  0  0  0  0
  189.0720  175.4510  137.3090 N   0  0  0  0  0  2  0  0  0  0  0  0
  190.4320  175.8820  137.2050 C   0  0  0  0  0  0  0  0  0  0  0  0
  192.8740  175.5720  137.2730 C   0  0  0  0  0  2  0  0  0  0  0  0
  191.5330  174.9310  137.5500 C   0  0  2  0  0  3  0  0  0  0  0  0
  191.4320  173.6500  136.7250 C   0  0  0  0  0  2  0  0  0  0  0  0
  193.1040  173.0480  136.3230 S   0  0  0  0  0  0  0  0  0  0  0  0
  193.8770  174.4440  137.1940 C   0  0  1  0  0  3  0  0  0  0  0  0
  197.5860  174.9820  136.4430 C   0  0  0  0  0  3  0  0  0  0  0  0
  195.1010  175.6860  135.3850 C   0  0  0  0  0  3  0  0  0  0  0  0
  195.1570  174.8750  136.5320 C   0  0  0  0  0  0  0  0  0  0  0  0
  196.2710  176.1360  134.7720 C   0  0  0  0  0  3  0  0  0  0  0  0
  197.5140  175.7890  135.3050 C   0  0  0  0  0  3  0  0  0  0  0  0
  196.4170  174.5010  137.0600 C   0  0  0  0  0  0  0  0  0  0  0  0
  197.8550  173.3420  138.5760 F   0  0  0  0  0  0  0  0  0  0  0  0
  196.5220  173.6330  138.3040 C   0  0  0  0  0  0  0  0  0  0  0  0
  195.8790  172.4370  138.0390 F   0  0  0  0  0  0  0  0  0  0  0  0
  196.8370  174.9480  140.1640 C   0  0  0  0  0  1  0  0  0  0  0  0
  195.8880  174.2170  139.4270 O   0  0  0  0  0  0  0  0  0  0  0  0
  184.4890  178.5000  139.0480 C   0  0  0  0  0  2  0  0  0  0  0  0
  183.1900  178.9660  139.5010 N   0  0  0  0  0  2  0  0  0  0  0  0
  182.1980  178.0610  138.9380 C   0  0  0  0  0  2  0  0  0  0  0  0
  181.5530  177.2060  140.0330 C   0  0  2  0  0  3  0  0  0  0  0  0
  181.4240  175.7540  139.5920 C   0  0  0  0  0  2  0  0  0  0  0  0
  180.5410  175.0850  140.4240 F   0  0  0  0  0  0  0  0  0  0  0  0
  180.1930  177.7530  140.4570 C   0  0  0  0  0  2  0  0  0  0  0  0
  180.2480  178.3710  141.8470 C   0  0  0  0  0  2  0  0  0  0  0  0
  180.0910  180.4840  140.5320 O   0  0  0  0  0  0  0  0  0  0  0  0
  180.1810  179.8570  141.7670 C   0  0  0  0  0  0  0  0  0  0  0  0
  180.1860  180.5430  142.8240 O   0  0  0  0  0  1  0  0  0  0  0  0
  188.0870  177.4960  141.7670 N   0  0  0  0  0  2  0  0  0  0  0  0
  189.3510  177.3660  142.4430 C   0  0  0  0  0  0  0  0  0  0  0  0
  190.6070  177.0830  144.5020 C   0  0  0  0  0  0  0  0  0  0  0  0
  188.2800  177.2640  146.0790 O   0  0  0  0  0  0  0  0  0  0  0  0
  190.5850  177.3430  141.7560 C   0  0  0  0  0  0  0  0  0  0  0  0
  190.6720  176.8580  145.9850 C   0  0  0  0  0  2  0  0  0  0  0  0
  188.1490  177.2040  144.6920 C   0  0  0  0  0  0  0  0  0  0  0  0
  191.7530  177.0680  143.7800 N   0  0  0  0  0  0  0  0  0  0  0  0
  189.3720  177.2190  143.8450 C   0  0  0  0  0  0  0  0  0  0  0  0
  190.6600  177.4900  140.3420 N   0  0  0  0  0  1  0  0  0  0  0  0
  187.0000  177.1060  144.1890 O   0  0  0  0  0  0  0  0  0  0  0  0
  189.5300  177.5920  146.6850 C   0  0  0  0  0  2  0  0  0  0  0  0
  191.7400  177.1980  142.4560 N   0  0  0  0  0  0  0  0  0  0  0  0
  2  1  1  0  0  0  0
  3  2  1  0  0  0  0
  4 40  1  1  0  0  0
  4  1  1  0  0  0  0
  5  3  2  0  0  0  0
  5  4  1  0  0  0  0
  6  8  2  0  0  0  0
  7  8  1  0  0  0  0
  8  5  1  0  0  0  0
  9 11  1  0  0  0  0
  9  7  1  0  0  0  0
 10 12  2  0  0  0  0
 12 11  1  0  0  0  0
 13 14  1  0  0  0  0
 14 12  1  6  0  0  0
 15 14  1  0  0  0  0
 16 15  1  0  0  0  0
 16 17  1  0  0  0  0
 17 20  1  6  0  0  0
 17 13  1  0  0  0  0
 18 23  1  0  0  0  0
 19 20  1  0  0  0  0
 20 23  2  0  0  0  0
 21 22  1  0  0  0  0
 21 19  2  0  0  0  0
 22 18  2  0  0  0  0
 23 25  1  0  0  0  0
 25 24  1  0  0  0  0
 25 28  1  0  0  0  0
 26 25  1  0  0  0  0
 28 27  1  0  0  0  0
 29 30  1  0  0  0  0
 29  3  1  0  0  0  0
 31 30  1  0  0  0  0
 32 31  1  6  0  0  0
 32 35  1  0  0  0  0
 33 32  1  0  0  0  0
 33 34  1  0  0  0  0
 35 36  1  0  0  0  0
 37 38  2  0  0  0  0
 38 36  1  0  0  0  0
 38 39  1  0  0  0  0
 40 41  1  0  0  0  0
 41 48  1  0  0  0  0
 42 45  1  0  0  0  0
 43 51  1  0  0  0  0
 44 41  2  0  0  0  0
 44 52  1  0  0  0  0
 45 51  1  0  0  0  0
 46 43  1  0  0  0  0
 47 42  1  0  0  0  0
 48 42  2  0  0  0  0
 48 46  1  0  0  0  0
 49 44  1  0  0  0  0
 50 46  2  0  0  0  0
 52 47  2  0  0  0  0
M  END
>  <MODEL>
7

>  <REMARK>
 VINA RESULT:      -7.8      3.032      4.480
  Name = 
  17 active torsions:
  status: ('A' for Active; 'I' for Inactive)
    1  A    between atoms: C_2  and  N_42
    2  A    between atoms: C_4  and  O_28
    3  A    between atoms: C_4  and  C_48
    4  A    between atoms: C_8  and  C_32
    5  A    between atoms: C_9  and  C_32
    6  A    between atoms: C_9  and  N_39
    7  A    between atoms: C_10  and  N_39
    8  A    between atoms: C_10  and  C_44
    9  A    between atoms: N_12  and  C_33
   10  A    between atoms: C_16  and  C_25
   11  A    between atoms: C_20  and  C_52
   12  A    between atoms: C_23  and  C_31
   13  A    between atoms: C_23  and  C_34
   14  A    between atoms: C_32  and  C_34
   15  A    between atoms: C_33  and  N_37
   16  A    between atoms: N_42  and  C_45
   17  A    between atoms: C_43  and  C_47
                            x       y       z     vdW  Elec       q    Type
                         _______ _______ _______ _____ _____    ______ ____

>  <TORSDO>
F 17

$$$$
=
 OpenBabel11032421163D

 52 56  0  0  1  0  0  0  0  0999 V2000
  189.7940  176.6120  142.2430 O   0  0  0  0  0  0  0  0  0  0  0  0
  190.0200  177.0900  140.9340 C   0  0  0  0  0  2  0  0  0  0  0  0
  188.8280  177.8710  140.5290 C   0  0  0  0  0  0  0  0  0  0  0  0
  188.5710  177.1720  142.6760 C   0  0  2  0  0  3  0  0  0  0  0  0
  187.9900  177.9140  141.5350 C   0  0  0  0  0  0  0  0  0  0  0  0
  186.5180  179.7590  141.1530 O   0  0  0  0  0  0  0  0  0  0  0  0
  185.5540  177.8560  142.1100 N   0  0  0  0  0  2  0  0  0  0  0  0
  186.6670  178.5730  141.5680 C   0  0  0  0  0  0  0  0  0  0  0  0
  184.2290  178.4430  142.2180 C   0  0  0  0  0  2  0  0  0  0  0  0
  183.7010  179.1720  139.5180 O   0  0  0  0  0  0  0  0  0  0  0  0
  183.3160  177.7410  141.3290 N   0  0  0  0  0  2  0  0  0  0  0  0
  183.0790  178.1770  139.9880 C   0  0  0  0  0  0  0  0  0  0  0  0
  182.5330  175.9580  139.0690 C   0  0  0  0  0  2  0  0  0  0  0  0
  182.1260  177.4140  139.1240 C   0  0  2  0  0  3  0  0  0  0  0  0
  182.1120  177.9630  137.7010 C   0  0  0  0  0  2  0  0  0  0  0  0
  181.8920  176.5940  136.5190 S   0  0  0  0  0  0  0  0  0  0  0  0
  181.8440  175.3680  137.8600 C   0  0  1  0  0  3  0  0  0  0  0  0
  182.2910  171.6950  136.9060 C   0  0  0  0  0  3  0  0  0  0  0  0
  183.8550  173.9740  137.2900 C   0  0  0  0  0  3  0  0  0  0  0  0
  182.4610  174.0610  137.4430 C   0  0  0  0  0  0  0  0  0  0  0  0
  184.4600  172.7650  136.9450 C   0  0  0  0  0  3  0  0  0  0  0  0
  183.6780  171.6240  136.7590 C   0  0  0  0  0  3  0  0  0  0  0  0
  181.6620  172.9100  137.2310 C   0  0  0  0  0  0  0  0  0  0  0  0
  179.8230  173.4250  138.6650 F   0  0  0  0  0  0  0  0  0  0  0  0
  180.1510  172.9600  137.3950 C   0  0  0  0  0  0  0  0  0  0  0  0
  179.6720  171.6670  137.2870 F   0  0  0  0  0  0  0  0  0  0  0  0
  179.0170  172.8780  135.3970 C   0  0  0  0  0  1  0  0  0  0  0  0
  179.5220  173.7340  136.3910 O   0  0  0  0  0  0  0  0  0  0  0  0
  188.6310  178.5180  139.1890 C   0  0  0  0  0  2  0  0  0  0  0  0
  188.4970  177.5190  138.1420 N   0  0  0  0  0  2  0  0  0  0  0  0
  189.6570  177.6620  137.2740 C   0  0  0  0  0  2  0  0  0  0  0  0
  189.9510  176.3540  136.5330 C   0  0  2  0  0  3  0  0  0  0  0  0
  189.2190  175.1820  137.1750 C   0  0  0  0  0  2  0  0  0  0  0  0
  187.9290  175.1030  136.6760 F   0  0  0  0  0  0  0  0  0  0  0  0
  191.4480  176.0650  136.4580 C   0  0  0  0  0  2  0  0  0  0  0  0
  192.1300  176.3050  137.7970 C   0  0  0  0  0  2  0  0  0  0  0  0
  194.2480  176.7320  136.5520 O   0  0  0  0  0  0  0  0  0  0  0  0
  193.6090  176.1970  137.6630 C   0  0  0  0  0  0  0  0  0  0  0  0
  194.2840  175.6380  138.5690 O   0  0  0  0  0  1  0  0  0  0  0  0
  188.8170  178.0850  143.7850 N   0  0  0  0  0  2  0  0  0  0  0  0
  188.7300  177.7800  145.1890 C   0  0  0  0  0  0  0  0  0  0  0  0
  189.8080  177.1130  147.2600 C   0  0  0  0  0  0  0  0  0  0  0  0
  192.2790  176.6980  145.9710 O   0  0  0  0  0  0  0  0  0  0  0  0
  187.5240  177.8790  145.9170 C   0  0  0  0  0  0  0  0  0  0  0  0
  191.0350  176.7700  148.0550 C   0  0  0  0  0  2  0  0  0  0  0  0
  191.2350  177.2780  145.2520 C   0  0  0  0  0  0  0  0  0  0  0  0
  188.6180  177.2290  147.8950 N   0  0  0  0  0  0  0  0  0  0  0  0
  189.8950  177.4010  145.8870 C   0  0  0  0  0  0  0  0  0  0  0  0
  186.2980  178.2490  145.2940 N   0  0  0  0  0  1  0  0  0  0  0  0
  191.4580  177.7140  144.0920 O   0  0  0  0  0  0  0  0  0  0  0  0
  192.0310  176.0000  147.1910 C   0  0  0  0  0  2  0  0  0  0  0  0
  187.5170  177.5940  147.2460 N   0  0  0  0  0  0  0  0  0  0  0  0
  1  4  1  0  0  0  0
  2  1  1  0  0  0  0
  3  2  1  0  0  0  0
  3  5  2  0  0  0  0
  4 40  1  1  0  0  0
  5  8  1  0  0  0  0
  5  4  1  0  0  0  0
  6  8  2  0  0  0  0
  7  9  1  0  0  0  0
  8  7  1  0  0  0  0
 10 12  2  0  0  0  0
 11  9  1  0  0  0  0
 12 11  1  0  0  0  0
 13 14  1  0  0  0  0
 14 12  1  1  0  0  0
 15 14  1  0  0  0  0
 16 15  1  0  0  0  0
 16 17  1  0  0  0  0
 17 20  1  6  0  0  0
 17 13  1  0  0  0  0
 18 23  1  0  0  0  0
 19 20  1  0  0  0  0
 21 19  2  0  0  0  0
 22 18  2  0  0  0  0
 22 21  1  0  0  0  0
 23 25  1  0  0  0  0
 23 20  2  0  0  0  0
 25 24  1  0  0  0  0
 26 25  1  0  0  0  0
 27 28  1  0  0  0  0
 28 25  1  0  0  0  0
 29  3  1  0  0  0  0
 30 29  1  0  0  0  0
 31 30  1  0  0  0  0
 32 35  1  1  0  0  0
 32 33  1  0  0  0  0
 32 31  1  0  0  0  0
 34 33  1  0  0  0  0
 35 36  1  0  0  0  0
 37 38  2  0  0  0  0
 38 36  1  0  0  0  0
 38 39  1  0  0  0  0
 40 41  1  0  0  0  0
 41 48  2  0  0  0  0
 41 44  1  0  0  0  0
 42 47  2  0  0  0  0
 42 45  1  0  0  0  0
 43 51  1  0  0  0  0
 44 52  2  0  0  0  0
 46 48  1  0  0  0  0
 46 43  1  0  0  0  0
 48 42  1  0  0  0  0
 49 44  1  0  0  0  0
 50 46  2  0  0  0  0
 51 45  1  0  0  0  0
 52 47  1  0  0  0  0
M  END
>  <MODEL>
8

>  <REMARK>
 VINA RESULT:      -7.7      3.998      8.696
  Name = 
  17 active torsions:
  status: ('A' for Active; 'I' for Inactive)
    1  A    between atoms: C_2  and  N_42
    2  A    between atoms: C_4  and  O_28
    3  A    between atoms: C_4  and  C_48
    4  A    between atoms: C_8  and  C_32
    5  A    between atoms: C_9  and  C_32
    6  A    between atoms: C_9  and  N_39
    7  A    between atoms: C_10  and  N_39
    8  A    between atoms: C_10  and  C_44
    9  A    between atoms: N_12  and  C_33
   10  A    between atoms: C_16  and  C_25
   11  A    between atoms: C_20  and  C_52
   12  A    between atoms: C_23  and  C_31
   13  A    between atoms: C_23  and  C_34
   14  A    between atoms: C_32  and  C_34
   15  A    between atoms: C_33  and  N_37
   16  A    between atoms: N_42  and  C_45
   17  A    between atoms: C_43  and  C_47
                            x       y       z     vdW  Elec       q    Type
                         _______ _______ _______ _____ _____    ______ ____

>  <TORSDO>
F 17

$$$$
=
 OpenBabel11032421163D

 52 56  0  0  1  0  0  0  0  0999 V2000
  184.5190  179.6010  144.5100 O   0  0  0  0  0  0  0  0  0  0  0  0
  183.1310  179.4520  144.3030 C   0  0  0  0  0  2  0  0  0  0  0  0
  182.9340  178.9520  142.9230 C   0  0  0  0  0  0  0  0  0  0  0  0
  185.1610  179.1010  143.3540 C   0  0  2  0  0  3  0  0  0  0  0  0
  184.1060  178.7520  142.3750 C   0  0  0  0  0  0  0  0  0  0  0  0
  183.8020  177.2450  140.5440 O   0  0  0  0  0  0  0  0  0  0  0  0
  185.3450  178.9690  140.2100 N   0  0  0  0  0  2  0  0  0  0  0  0
  184.3820  178.2720  141.0040 C   0  0  0  0  0  0  0  0  0  0  0  0
  185.7060  178.5400  138.8690 C   0  0  0  0  0  2  0  0  0  0  0  0
  187.5110  179.3720  136.8330 O   0  0  0  0  0  0  0  0  0  0  0  0
  187.1250  178.2180  138.8310 N   0  0  0  0  0  2  0  0  0  0  0  0
  187.9710  178.6510  137.7630 C   0  0  0  0  0  0  0  0  0  0  0  0
  189.6710  177.1260  136.8410 C   0  0  0  0  0  2  0  0  0  0  0  0
  189.4210  178.2850  137.7790 C   0  0  2  0  0  3  0  0  0  0  0  0
  189.8690  177.8760  139.1790 C   0  0  0  0  0  2  0  0  0  0  0  0
  191.1030  176.5420  139.0610 S   0  0  0  0  0  0  0  0  0  0  0  0
  190.9990  176.5290  137.2460 C   0  0  1  0  0  3  0  0  0  0  0  0
  192.6020  173.3750  135.8010 C   0  0  0  0  0  3  0  0  0  0  0  0
  190.0630  174.3440  136.4330 C   0  0  0  0  0  3  0  0  0  0  0  0
  191.1890  175.1460  136.6860 C   0  0  0  0  0  0  0  0  0  0  0  0
  190.2030  173.0730  135.8750 C   0  0  0  0  0  3  0  0  0  0  0  0
  191.4740  172.5910  135.5530 C   0  0  0  0  0  3  0  0  0  0  0  0
  192.4810  174.6490  136.3840 C   0  0  0  0  0  0  0  0  0  0  0  0
  193.5620  176.7590  136.0910 F   0  0  0  0  0  0  0  0  0  0  0  0
  193.7240  175.4880  136.6340 C   0  0  0  0  0  0  0  0  0  0  0  0
  194.7800  174.8850  135.9750 F   0  0  0  0  0  0  0  0  0  0  0  0
  194.9290  174.4990  138.3250 C   0  0  0  0  0  1  0  0  0  0  0  0
  194.0620  175.5590  138.0070 O   0  0  0  0  0  0  0  0  0  0  0  0
  181.6040  178.6990  142.2750 C   0  0  0  0  0  2  0  0  0  0  0  0
  181.0800  179.9120  141.6690 N   0  0  0  0  0  2  0  0  0  0  0  0
  180.7820  179.5940  140.2800 C   0  0  0  0  0  2  0  0  0  0  0  0
  181.5420  180.5230  139.3300 C   0  0  2  0  0  3  0  0  0  0  0  0
  180.6000  181.5150  138.6600 C   0  0  0  0  0  2  0  0  0  0  0  0
  181.1660  181.9840  137.4870 F   0  0  0  0  0  0  0  0  0  0  0  0
  182.3270  179.7450  138.2770 C   0  0  0  0  0  2  0  0  0  0  0  0
  181.5690  178.5060  137.8190 C   0  0  0  0  0  2  0  0  0  0  0  0
  183.3340  176.9610  136.9750 O   0  0  0  0  0  1  0  0  0  0  0  0
  182.2870  177.8310  136.7030 C   0  0  0  0  0  0  0  0  0  0  0  0
  181.9290  178.0330  135.5130 O   0  0  0  0  0  0  0  0  0  0  0  0
  185.9280  177.9100  143.6980 N   0  0  0  0  0  2  0  0  0  0  0  0
  187.3100  177.8600  144.0950 C   0  0  0  0  0  0  0  0  0  0  0  0
  188.9840  177.7090  145.8480 C   0  0  0  0  0  0  0  0  0  0  0  0
  187.0340  177.8490  147.8770 O   0  0  0  0  0  0  0  0  0  0  0  0
  188.3710  177.8640  143.1630 C   0  0  0  0  0  0  0  0  0  0  0  0
  189.3700  177.5430  147.2890 C   0  0  0  0  0  2  0  0  0  0  0  0
  186.6180  177.7310  146.5510 C   0  0  0  0  0  0  0  0  0  0  0  0
  189.9510  177.7170  144.9000 N   0  0  0  0  0  0  0  0  0  0  0  0
  187.6340  177.7670  145.4640 C   0  0  0  0  0  0  0  0  0  0  0  0
  188.1400  177.9610  141.7610 N   0  0  0  0  0  1  0  0  0  0  0  0
  185.3950  177.5650  146.3060 O   0  0  0  0  0  0  0  0  0  0  0  0
  188.3660  178.2530  148.1940 C   0  0  0  0  0  2  0  0  0  0  0  0
  189.6540  177.7960  143.6060 N   0  0  0  0  0  0  0  0  0  0  0  0
  2  1  1  0  0  0  0
  3  2  1  0  0  0  0
  4 40  1  1  0  0  0
  4  1  1  0  0  0  0
  5  3  2  0  0  0  0
  5  4  1  0  0  0  0
  6  8  2  0  0  0  0
  7  8  1  0  0  0  0
  8  5  1  0  0  0  0
  9  7  1  0  0  0  0
 10 12  2  0  0  0  0
 11  9  1  0  0  0  0
 12 11  1  0  0  0  0
 13 17  1  0  0  0  0
 13 14  1  0  0  0  0
 14 12  1  1  0  0  0
 14 15  1  0  0  0  0
 16 15  1  0  0  0  0
 17 20  1  1  0  0  0
 17 16  1  0  0  0  0
 18 23  1  0  0  0  0
 19 20  1  0  0  0  0
 21 19  2  0  0  0  0
 22 18  2  0  0  0  0
 22 21  1  0  0  0  0
 23 25  1  0  0  0  0
 23 20  2  0  0  0  0
 24 25  1  0  0  0  0
 25 28  1  0  0  0  0
 26 25  1  0  0  0  0
 28 27  1  0  0  0  0
 29  3  1  0  0  0  0
 30 29  1  0  0  0  0
 31 30  1  0  0  0  0
 32 35  1  6  0  0  0
 32 31  1  0  0  0  0
 33 32  1  0  0  0  0
 34 33  1  0  0  0  0
 36 35  1  0  0  0  0
 38 37  1  0  0  0  0
 38 36  1  0  0  0  0
 39 38  2  0  0  0  0
 40 41  1  0  0  0  0
 41 48  1  0  0  0  0
 42 45  1  0  0  0  0
 43 51  1  0  0  0  0
 44 52  1  0  0  0  0
 44 41  2  0  0  0  0
 45 51  1  0  0  0  0
 46 43  1  0  0  0  0
 47 42  1  0  0  0  0
 48 42  2  0  0  0  0
 48 46  1  0  0  0  0
 49 44  1  0  0  0  0
 50 46  2  0  0  0  0
 52 47  2  0  0  0  0
M  END
>  <MODEL>
9

>  <REMARK>
 VINA RESULT:      -7.7      2.049      2.730
  Name = 
  17 active torsions:
  status: ('A' for Active; 'I' for Inactive)
    1  A    between atoms: C_2  and  N_42
    2  A    between atoms: C_4  and  O_28
    3  A    between atoms: C_4  and  C_48
    4  A    between atoms: C_8  and  C_32
    5  A    between atoms: C_9  and  C_32
    6  A    between atoms: C_9  and  N_39
    7  A    between atoms: C_10  and  N_39
    8  A    between atoms: C_10  and  C_44
    9  A    between atoms: N_12  and  C_33
   10  A    between atoms: C_16  and  C_25
   11  A    between atoms: C_20  and  C_52
   12  A    between atoms: C_23  and  C_31
   13  A    between atoms: C_23  and  C_34
   14  A    between atoms: C_32  and  C_34
   15  A    between atoms: C_33  and  N_37
   16  A    between atoms: N_42  and  C_45
   17  A    between atoms: C_43  and  C_47
                            x       y       z     vdW  Elec       q    Type
                         _______ _______ _______ _____ _____    ______ ____

>  <TORSDO>
F 17

$$$$
