=
 OpenBabel11032420003D

 64 71  0  0  1  0  0  0  0  0999 V2000
  188.8800  176.9480  137.6000 C   0  0  0  0  0  0  0  0  0  0  0  0
  189.3740  176.7130  138.8740 F   0  0  0  0  0  0  0  0  0  0  0  0
  189.9540  177.1870  136.7570 F   0  0  0  0  0  0  0  0  0  0  0  0
  188.7350  179.3390  137.3000 O   0  0  0  0  0  1  0  0  0  0  0  0
  187.9870  178.1980  137.5990 C   0  0  2  0  0  3  0  0  0  0  0  0
  186.0090  178.7990  138.9070 N   0  0  0  0  0  2  0  0  0  0  0  0
  186.7740  178.5720  140.9890 C   0  0  0  0  0  0  0  0  0  0  0  0
  187.2690  178.3920  138.8560 N   0  0  0  0  0  0  0  0  0  0  0  0
  184.5630  179.2710  140.6270 O   0  0  0  0  0  0  0  0  0  0  0  0
  187.7860  178.2620  140.1010 C   0  0  0  0  0  3  0  0  0  0  0  0
  185.6940  178.9090  140.2070 C   0  0  0  0  0  0  0  0  0  0  0  0
  186.8740  178.6190  142.4750 C   0  0  0  0  0  2  0  0  0  0  0  0
  184.7110  179.6610  143.6660 C   0  0  0  0  0  1  0  0  0  0  0  0
  185.2790  178.2240  143.2140 S   0  0  2  0  0  3  0  0  0  0  0  0
  185.7010  177.4890  144.6900 O   0  0  0  0  0  0  0  0  0  0  0  0
  186.7440  178.2700  145.1940 C   0  0  0  0  0  2  0  0  0  0  0  0
  186.4740  178.6390  146.6470 C   0  0  1  0  0  3  0  0  0  0  0  0
  185.1410  178.1190  147.0840 C   0  0  0  0  0  3  0  0  0  0  0  0
  184.1110  178.6030  146.6430 O   0  0  0  0  0  0  0  0  0  0  0  0
  187.5940  178.1050  147.5360 C   0  0  0  0  0  2  0  0  0  0  0  0
  188.2630  177.0330  146.9100 O   0  0  0  0  0  0  0  0  0  0  0  0
  190.9360  176.5900  147.0870 P   0  0  2  0  0  0  0  0  0  0  0  0
  191.8770  176.3880  145.5650 C   0  0  2  0  0  3  0  0  0  0  0  0
  190.5650  175.2470  147.6770 O   0  0  0  0  0  0  0  0  0  0  0  0
  192.0900  177.6560  144.9700 O   0  0  0  0  0  0  0  0  0  0  0  0
  191.0120  176.8990  144.4760 C   0  0  2  0  0  0  0  0  0  0  0  0
  189.5100  177.4740  146.4060 C   0  0  1  0  0  3  0  0  0  0  0  0
  189.6350  177.4590  144.8790 C   0  0  0  0  0  2  0  0  0  0  0  0
  191.7710  177.5340  148.2140 O   0  0  0  0  0  1  0  0  0  0  0  0
  191.2670  176.3500  143.0810 C   0  0  1  0  0  3  0  0  0  0  0  0
  190.1540  175.6300  142.6460 O   0  0  0  0  0  1  0  0  0  0  0  0
  191.5540  177.4780  142.1080 C   0  0  0  0  0  1  0  0  0  0  0  0
  188.1130  175.7190  137.0870 C   0  0  1  0  0  3  0  0  0  0  0  0
  184.3230  173.5550  136.9580 C   0  0  0  0  0  0  0  0  0  0  0  0
  186.7960  176.0990  136.5690 N   0  0  0  0  0  2  0  0  0  0  0  0
  185.6400  175.2530  136.5650 C   0  0  0  0  0  0  0  0  0  0  0  0
  183.4290  174.4750  136.1990 C   0  0  2  0  0  3  0  0  0  0  0  0
  185.6270  174.0830  137.1080 N   0  0  0  0  0  0  0  0  0  0  0  0
  184.3420  175.6770  135.9600 C   0  0  0  0  0  2  0  0  0  0  0  0
  184.0510  172.2780  137.1820 C   0  0  0  0  0  2  0  0  0  0  0  0
  182.2480  174.9190  137.0540 C   0  0  0  0  0  2  0  0  0  0  0  0
  181.1910  178.1460  138.4100 O   0  0  0  0  0  0  0  0  0  0  0  0
  182.3030  176.2380  139.2440 C   0  0  1  0  0  3  0  0  0  0  0  0
  181.2060  175.4260  139.5670 O   0  0  0  0  0  1  0  0  0  0  0  0
  182.5220  176.2610  137.7500 C   0  0  2  0  0  3  0  0  0  0  0  0
  181.2340  177.9170  140.8040 C   0  0  0  0  0  1  0  0  0  0  0  0
  181.6830  177.4640  137.2730 C   0  0  1  0  0  3  0  0  0  0  0  0
  181.9640  177.6930  139.4900 C   0  0  2  0  0  3  0  0  0  0  0  0
  181.0310  176.9280  135.0220 O   0  0  0  0  0  1  0  0  0  0  0  0
  180.5340  177.1020  136.3200 C   0  0  2  0  0  3  0  0  0  0  0  0
  178.9310  178.3540  137.6100 O   0  0  0  0  0  1  0  0  0  0  0  0
  179.4180  178.1520  136.3160 C   0  0  1  0  0  3  0  0  0  0  0  0
  179.9160  179.4470  135.7650 C   0  0  0  0  0  3  0  0  0  0  0  0
  179.7790  180.4800  136.4030 O   0  0  0  0  0  0  0  0  0  0  0  0
  188.8530  175.0360  136.1060 O   0  0  0  0  0  0  0  0  0  0  0  0
  190.9730  174.0880  137.0230 C   0  0  0  0  0  0  0  0  0  0  0  0
  189.8030  172.9940  135.7070 C   0  0  2  0  0  3  0  0  0  0  0  0
  192.4590  172.5730  135.8160 N   0  0  0  0  0  0  0  0  0  0  0  0
  189.5110  173.9800  136.7540 C   0  0  2  0  0  0  0  0  0  0  0  0
  193.4980  173.1470  136.5140 C   0  0  0  0  0  3  0  0  0  0  0  0
  188.8630  172.6140  136.8190 C   0  0  0  0  0  2  0  0  0  0  0  0
  191.2370  173.0590  136.1020 C   0  0  0  0  0  0  0  0  0  0  0  0
  191.9810  174.6870  137.7540 C   0  0  0  0  0  3  0  0  0  0  0  0
  193.2810  174.1910  137.4740 C   0  0  0  0  0  3  0  0  0  0  0  0
  1  2  1  0  0  0  0
  3  1  1  0  0  0  0
  5  4  1  1  0  0  0
  5  1  1  0  0  0  0
  5  8  1  0  0  0  0
  6 11  1  0  0  0  0
  7 12  1  0  0  0  0
  8  6  1  0  0  0  0
  8 10  1  0  0  0  0
 10  7  2  0  0  0  0
 11  9  2  0  0  0  0
 11  7  1  0  0  0  0
 12 14  1  0  0  0  0
 14 13  1  1  0  0  0
 14 15  1  0  0  0  0
 15 16  1  0  0  0  0
 17 16  1  6  0  0  0
 17 18  1  0  0  0  0
 17 20  1  0  0  0  0
 19 18  2  0  0  0  0
 21 20  1  0  0  0  0
 22 24  2  1  0  0  0
 22 29  1  0  0  0  0
 23 25  1  1  0  0  0
 23 22  1  0  0  0  0
 26 30  1  6  0  0  0
 26 28  1  0  0  0  0
 26 25  1  0  0  0  0
 26 23  1  0  0  0  0
 27 21  1  6  0  0  0
 27 22  1  0  0  0  0
 28 27  1  0  0  0  0
 30 32  1  6  0  0  0
 31 30  1  0  0  0  0
 33 55  1  6  0  0  0
 33  1  1  0  0  0  0
 34 38  1  0  0  0  0
 34 40  2  0  0  0  0
 35 33  1  0  0  0  0
 36 35  1  0  0  0  0
 36 38  2  0  0  0  0
 37 34  1  0  0  0  0
 37 41  1  1  0  0  0
 39 37  1  0  0  0  0
 39 36  1  0  0  0  0
 42 48  1  0  0  0  0
 43 48  1  0  0  0  0
 43 44  1  6  0  0  0
 45 41  1  6  0  0  0
 45 43  1  0  0  0  0
 47 50  1  6  0  0  0
 47 45  1  0  0  0  0
 47 42  1  0  0  0  0
 48 46  1  1  0  0  0
 50 49  1  6  0  0  0
 52 50  1  0  0  0  0
 52 51  1  1  0  0  0
 53 52  1  0  0  0  0
 53 54  2  0  0  0  0
 56 63  1  0  0  0  0
 57 62  1  0  0  0  0
 57 59  1  0  0  0  0
 57 61  1  1  0  0  0
 58 62  1  0  0  0  0
 58 60  2  0  0  0  0
 59 55  1  6  0  0  0
 59 61  1  0  0  0  0
 59 56  1  0  0  0  0
 60 64  1  0  0  0  0
 62 56  2  0  0  0  0
 64 63  2  0  0  0  0
M  END
>  <MODEL>
1

>  <REMARK>
 VINA RESULT:      -6.6      0.000      0.000
  Name = 
  21 active torsions:
  status: ('A' for Active; 'I' for Inactive)
    1  A    between atoms: C_4  and  C_35
    2  A    between atoms: O_6  and  C_28
    3  A    between atoms: O_6  and  C_30
    4  A    between atoms: C_7  and  C_9
    5  A    between atoms: C_7  and  N_20
    6  A    between atoms: C_9  and  C_28
    7  A    between atoms: C_11  and  C_17
    8  A    between atoms: C_11  and  S_36
    9  A    between atoms: C_13  and  O_16
   10  A    between atoms: C_13  and  C_56
   11  A    between atoms: N_15  and  C_28
   12  A    between atoms: O_16  and  S_36
   13  A    between atoms: C_23  and  C_42
   14  A    between atoms: C_25  and  C_56
   15  A    between atoms: C_27  and  C_34
   16  A    between atoms: C_33  and  C_34
   17  A    between atoms: C_42  and  C_49
   18  A    between atoms: O_43  and  C_44
   19  A    between atoms: O_43  and  C_47
   20  A    between atoms: C_47  and  C_56
   21  A    between atoms: C_48  and  C_49
                            x       y       z     vdW  Elec       q    Type
                         _______ _______ _______ _____ _____    ______ ____

>  <TORSDO>
F 21

$$$$
=
 OpenBabel11032420003D

 64 71  0  0  1  0  0  0  0  0999 V2000
  188.7700  176.9700  138.6200 C   0  0  0  0  0  0  0  0  0  0  0  0
  188.3550  176.3970  139.8130 F   0  0  0  0  0  0  0  0  0  0  0  0
  190.1240  177.2490  138.7210 F   0  0  0  0  0  0  0  0  0  0  0  0
  188.9280  179.3630  138.3410 O   0  0  0  0  0  1  0  0  0  0  0  0
  188.0290  178.2950  138.3820 C   0  0  2  0  0  3  0  0  0  0  0  0
  185.7150  178.7080  139.0570 N   0  0  0  0  0  2  0  0  0  0  0  0
  185.9450  179.0080  141.2550 C   0  0  0  0  0  0  0  0  0  0  0  0
  186.9920  178.5590  139.3760 N   0  0  0  0  0  0  0  0  0  0  0  0
  183.8220  179.1760  140.2690 O   0  0  0  0  0  0  0  0  0  0  0  0
  187.1850  178.7550  140.7020 C   0  0  0  0  0  3  0  0  0  0  0  0
  185.0630  178.9790  140.1990 C   0  0  0  0  0  0  0  0  0  0  0  0
  185.6520  179.3340  142.6790 C   0  0  0  0  0  2  0  0  0  0  0  0
  183.0910  178.8890  143.3340 C   0  0  0  0  0  1  0  0  0  0  0  0
  184.5080  178.1250  143.3670 S   0  0  2  0  0  3  0  0  0  0  0  0
  184.9030  178.1070  145.0220 O   0  0  0  0  0  0  0  0  0  0  0  0
  186.3000  178.0890  145.0560 C   0  0  0  0  0  2  0  0  0  0  0  0
  186.8030  178.6000  146.4000 C   0  0  1  0  0  3  0  0  0  0  0  0
  185.7170  179.3300  147.1270 C   0  0  0  0  0  3  0  0  0  0  0  0
  185.9600  180.3610  147.7320 O   0  0  0  0  0  0  0  0  0  0  0  0
  187.3400  177.4390  147.2310 C   0  0  0  0  0  2  0  0  0  0  0  0
  188.1460  176.5900  146.4450 O   0  0  0  0  0  0  0  0  0  0  0  0
  190.8350  176.6850  146.8110 P   0  0  2  0  0  0  0  0  0  0  0  0
  191.9010  176.7010  145.3590 C   0  0  2  0  0  3  0  0  0  0  0  0
  190.7000  175.2840  147.3680 O   0  0  0  0  0  0  0  0  0  0  0  0
  191.8970  177.9970  144.7860 O   0  0  0  0  0  0  0  0  0  0  0  0
  191.0280  177.0500  144.2140 C   0  0  2  0  0  0  0  0  0  0  0  0
  189.3120  177.2800  146.0330 C   0  0  1  0  0  3  0  0  0  0  0  0
  189.5430  177.3170  144.5190 C   0  0  0  0  0  2  0  0  0  0  0  0
  191.3840  177.7550  147.9990 O   0  0  0  0  0  1  0  0  0  0  0  0
  191.4840  176.5870  142.8380 C   0  0  1  0  0  3  0  0  0  0  0  0
  190.5480  175.7020  142.3030 O   0  0  0  0  0  1  0  0  0  0  0  0
  191.6520  177.7720  141.9060 C   0  0  0  0  0  1  0  0  0  0  0  0
  188.5520  175.9950  137.4520 C   0  0  1  0  0  3  0  0  0  0  0  0
  185.2070  173.8770  135.6140 C   0  0  0  0  0  0  0  0  0  0  0  0
  187.4750  176.4590  136.5740 N   0  0  0  0  0  2  0  0  0  0  0  0
  186.4550  175.6240  136.0130 C   0  0  0  0  0  0  0  0  0  0  0  0
  184.5710  174.9180  134.7580 C   0  0  2  0  0  3  0  0  0  0  0  0
  186.3360  174.3730  136.3060 N   0  0  0  0  0  0  0  0  0  0  0  0
  185.4230  176.1470  135.0690 C   0  0  0  0  0  2  0  0  0  0  0  0
  184.9630  172.5790  135.5030 C   0  0  0  0  0  2  0  0  0  0  0  0
  183.1370  175.1890  135.2000 C   0  0  0  0  0  2  0  0  0  0  0  0
  180.9800  174.0030  137.9020 O   0  0  0  0  0  0  0  0  0  0  0  0
  181.3870  173.3830  135.6610 C   0  0  1  0  0  3  0  0  0  0  0  0
  180.5350  174.2730  134.9920 O   0  0  0  0  0  1  0  0  0  0  0  0
  182.6210  174.1020  136.1540 C   0  0  2  0  0  3  0  0  0  0  0  0
  179.2940  172.6350  136.8670 C   0  0  0  0  0  1  0  0  0  0  0  0
  182.2350  174.5630  137.5740 C   0  0  1  0  0  3  0  0  0  0  0  0
  180.7730  172.9650  136.9800 C   0  0  2  0  0  3  0  0  0  0  0  0
  183.4400  176.5170  138.2920 O   0  0  0  0  0  1  0  0  0  0  0  0
  182.2140  176.0880  137.7660 C   0  0  2  0  0  3  0  0  0  0  0  0
  181.4960  176.6630  139.9920 O   0  0  0  0  0  1  0  0  0  0  0  0
  181.0660  176.5530  138.6670 C   0  0  1  0  0  3  0  0  0  0  0  0
  180.5370  177.8710  138.2060 C   0  0  0  0  0  3  0  0  0  0  0  0
  181.2290  178.8750  138.2900 O   0  0  0  0  0  0  0  0  0  0  0  0
  189.7390  175.8080  136.7230 O   0  0  0  0  0  0  0  0  0  0  0  0
  191.8020  174.5690  137.3890 C   0  0  0  0  0  0  0  0  0  0  0  0
  190.4710  173.7590  136.0200 C   0  0  2  0  0  3  0  0  0  0  0  0
  193.0780  173.0960  135.9180 N   0  0  0  0  0  0  0  0  0  0  0  0
  190.3250  174.6240  137.1960 C   0  0  2  0  0  0  0  0  0  0  0  0
  194.1990  173.4820  136.6180 C   0  0  0  0  0  3  0  0  0  0  0  0
  189.5550  173.3230  137.1310 C   0  0  0  0  0  2  0  0  0  0  0  0
  191.9230  173.6460  136.3340 C   0  0  0  0  0  0  0  0  0  0  0  0
  192.8960  174.9780  138.1270 C   0  0  0  0  0  3  0  0  0  0  0  0
  194.1280  174.4100  137.7100 C   0  0  0  0  0  3  0  0  0  0  0  0
  1  3  1  0  0  0  0
  1  2  1  0  0  0  0
  5  4  1  1  0  0  0
  5  1  1  0  0  0  0
  5  8  1  0  0  0  0
  6  8  1  0  0  0  0
  6 11  1  0  0  0  0
  7 12  1  0  0  0  0
  8 10  1  0  0  0  0
 10  7  2  0  0  0  0
 11  9  2  0  0  0  0
 11  7  1  0  0  0  0
 12 14  1  0  0  0  0
 14 13  1  1  0  0  0
 14 15  1  0  0  0  0
 15 16  1  0  0  0  0
 17 16  1  6  0  0  0
 17 18  1  0  0  0  0
 17 20  1  0  0  0  0
 18 19  2  0  0  0  0
 21 20  1  0  0  0  0
 22 24  2  1  0  0  0
 22 29  1  0  0  0  0
 23 25  1  1  0  0  0
 23 22  1  0  0  0  0
 26 30  1  6  0  0  0
 26 28  1  0  0  0  0
 26 25  1  0  0  0  0
 26 23  1  0  0  0  0
 27 21  1  6  0  0  0
 27 22  1  0  0  0  0
 28 27  1  0  0  0  0
 30 32  1  6  0  0  0
 31 30  1  0  0  0  0
 33 35  1  6  0  0  0
 33  1  1  0  0  0  0
 34 38  1  0  0  0  0
 36 38  2  0  0  0  0
 36 35  1  0  0  0  0
 37 39  1  0  0  0  0
 37 41  1  1  0  0  0
 37 34  1  0  0  0  0
 39 36  1  0  0  0  0
 40 34  2  0  0  0  0
 43 44  1  1  0  0  0
 43 45  1  0  0  0  0
 43 48  1  0  0  0  0
 45 41  1  6  0  0  0
 45 47  1  0  0  0  0
 47 50  1  6  0  0  0
 47 42  1  0  0  0  0
 48 46  1  6  0  0  0
 48 42  1  0  0  0  0
 50 49  1  1  0  0  0
 50 52  1  0  0  0  0
 52 51  1  1  0  0  0
 53 54  2  0  0  0  0
 53 52  1  0  0  0  0
 55 33  1  0  0  0  0
 56 63  1  0  0  0  0
 57 62  1  0  0  0  0
 57 61  1  1  0  0  0
 57 59  1  0  0  0  0
 58 62  1  0  0  0  0
 58 60  2  0  0  0  0
 59 55  1  6  0  0  0
 59 56  1  0  0  0  0
 60 64  1  0  0  0  0
 61 59  1  0  0  0  0
 62 56  2  0  0  0  0
 64 63  2  0  0  0  0
M  END
>  <MODEL>
2

>  <REMARK>
 VINA RESULT:      -6.4      1.277      2.103
  Name = 
  21 active torsions:
  status: ('A' for Active; 'I' for Inactive)
    1  A    between atoms: C_4  and  C_35
    2  A    between atoms: O_6  and  C_28
    3  A    between atoms: O_6  and  C_30
    4  A    between atoms: C_7  and  C_9
    5  A    between atoms: C_7  and  N_20
    6  A    between atoms: C_9  and  C_28
    7  A    between atoms: C_11  and  C_17
    8  A    between atoms: C_11  and  S_36
    9  A    between atoms: C_13  and  O_16
   10  A    between atoms: C_13  and  C_56
   11  A    between atoms: N_15  and  C_28
   12  A    between atoms: O_16  and  S_36
   13  A    between atoms: C_23  and  C_42
   14  A    between atoms: C_25  and  C_56
   15  A    between atoms: C_27  and  C_34
   16  A    between atoms: C_33  and  C_34
   17  A    between atoms: C_42  and  C_49
   18  A    between atoms: O_43  and  C_44
   19  A    between atoms: O_43  and  C_47
   20  A    between atoms: C_47  and  C_56
   21  A    between atoms: C_48  and  C_49
                            x       y       z     vdW  Elec       q    Type
                         _______ _______ _______ _____ _____    ______ ____

>  <TORSDO>
F 21

$$$$
=
 OpenBabel11032420003D

 64 71  0  0  1  0  0  0  0  0999 V2000
  189.1940  177.6070  138.4020 C   0  0  0  0  0  0  0  0  0  0  0  0
  189.5450  178.9180  138.1160 F   0  0  0  0  0  0  0  0  0  0  0  0
  187.9840  177.6200  139.0760 F   0  0  0  0  0  0  0  0  0  0  0  0
  190.0770  175.5810  139.3740 O   0  0  0  0  0  1  0  0  0  0  0  0
  190.2440  176.9670  139.3230 C   0  0  2  0  0  3  0  0  0  0  0  0
  191.3180  177.5830  141.4330 N   0  0  0  0  0  2  0  0  0  0  0  0
  189.5810  178.3500  142.6020 C   0  0  0  0  0  0  0  0  0  0  0  0
  190.2320  177.5160  140.6760 N   0  0  0  0  0  0  0  0  0  0  0  0
  191.7150  178.3020  143.5770 O   0  0  0  0  0  0  0  0  0  0  0  0
  189.1440  177.9520  141.3530 C   0  0  0  0  0  3  0  0  0  0  0  0
  190.9320  178.0940  142.6130 C   0  0  0  0  0  0  0  0  0  0  0  0
  188.7400  178.8580  143.7230 C   0  0  0  0  0  2  0  0  0  0  0  0
  188.9930  176.2770  144.4000 C   0  0  0  0  0  1  0  0  0  0  0  0
  187.9400  177.4830  144.5670 S   0  0  2  0  0  3  0  0  0  0  0  0
  186.6800  177.0510  143.5070 O   0  0  0  0  0  0  0  0  0  0  0  0
  186.1120  178.2650  143.1120 C   0  0  0  0  0  2  0  0  0  0  0  0
  184.6200  178.2750  143.4190 C   0  0  1  0  0  3  0  0  0  0  0  0
  184.2510  179.4960  144.2020 C   0  0  0  0  0  3  0  0  0  0  0  0
  183.6540  179.3960  145.2620 O   0  0  0  0  0  0  0  0  0  0  0  0
  183.8210  178.1890  142.1220 C   0  0  0  0  0  2  0  0  0  0  0  0
  182.6290  178.9370  142.2170 O   0  0  0  0  0  0  0  0  0  0  0  0
  180.0130  178.7260  141.5200 P   0  0  2  0  0  0  0  0  0  0  0  0
  179.4530  179.5530  140.0210 C   0  0  2  0  0  3  0  0  0  0  0  0
  179.7310  179.5720  142.7430 O   0  0  0  0  0  1  0  0  0  0  0  0
  179.8530  178.8000  138.8900 O   0  0  0  0  0  0  0  0  0  0  0  0
  180.6770  179.8810  139.2520 C   0  0  2  0  0  0  0  0  0  0  0  0
  181.7790  178.6270  141.1290 C   0  0  1  0  0  3  0  0  0  0  0  0
  182.0240  179.4490  139.8590 C   0  0  0  0  0  2  0  0  0  0  0  0
  179.3260  177.1900  141.6780 O   0  0  0  0  0  0  0  0  0  0  0  0
  180.5830  181.0460  138.2780 C   0  0  1  0  0  3  0  0  0  0  0  0
  181.5650  181.9920  138.5770 O   0  0  0  0  0  1  0  0  0  0  0  0
  180.7620  180.5630  136.8510 C   0  0  0  0  0  1  0  0  0  0  0  0
  189.0300  176.8000  137.1050 C   0  0  1  0  0  3  0  0  0  0  0  0
  185.7260  174.0160  136.4770 C   0  0  0  0  0  0  0  0  0  0  0  0
  187.6950  176.9920  136.5310 N   0  0  0  0  0  2  0  0  0  0  0  0
  186.7200  175.9570  136.3560 C   0  0  0  0  0  0  0  0  0  0  0  0
  184.7170  174.8390  135.7510 C   0  0  2  0  0  3  0  0  0  0  0  0
  186.8970  174.7500  136.7760 N   0  0  0  0  0  0  0  0  0  0  0  0
  185.4000  176.2050  135.7020 C   0  0  0  0  0  2  0  0  0  0  0  0
  185.6860  172.6940  136.5510 C   0  0  0  0  0  2  0  0  0  0  0  0
  183.4290  174.9630  136.5560 C   0  0  0  0  0  2  0  0  0  0  0  0
  179.8160  174.9950  136.0050 O   0  0  0  0  0  0  0  0  0  0  0  0
  181.6490  176.3080  135.3070 C   0  0  1  0  0  3  0  0  0  0  0  0
  181.7730  177.1740  136.4030 O   0  0  0  0  0  1  0  0  0  0  0  0
  182.1880  174.9400  135.6510 C   0  0  2  0  0  3  0  0  0  0  0  0
  179.2810  177.1860  135.1670 C   0  0  0  0  0  1  0  0  0  0  0  0
  180.9580  174.1850  136.1940 C   0  0  1  0  0  3  0  0  0  0  0  0
  180.1920  175.9730  135.0710 C   0  0  2  0  0  3  0  0  0  0  0  0
  180.8050  172.3780  137.7740 O   0  0  0  0  0  1  0  0  0  0  0  0
  181.0750  173.7490  137.6630 C   0  0  2  0  0  3  0  0  0  0  0  0
  179.4260  173.6770  139.4170 O   0  0  0  0  0  1  0  0  0  0  0  0
  180.1470  174.5410  138.5890 C   0  0  1  0  0  3  0  0  0  0  0  0
  180.9320  175.4940  139.4290 C   0  0  0  0  0  3  0  0  0  0  0  0
  182.1350  175.3390  139.5740 O   0  0  0  0  0  0  0  0  0  0  0  0
  190.0230  177.1390  136.1700 O   0  0  0  0  0  0  0  0  0  0  0  0
  192.0300  175.6900  136.4970 C   0  0  0  0  0  0  0  0  0  0  0  0
  191.4030  176.2220  134.5940 C   0  0  2  0  0  3  0  0  0  0  0  0
  194.0020  175.6950  135.0580 N   0  0  0  0  0  0  0  0  0  0  0  0
  190.7100  175.9560  135.8590 C   0  0  2  0  0  0  0  0  0  0  0  0
  194.7360  175.3790  136.1790 C   0  0  0  0  0  3  0  0  0  0  0  0
  190.3320  175.1670  134.6250 C   0  0  0  0  0  2  0  0  0  0  0  0
  192.6790  175.8310  135.2570 C   0  0  0  0  0  0  0  0  0  0  0  0
  192.7230  175.3640  137.6480 C   0  0  0  0  0  3  0  0  0  0  0  0
  194.1220  175.2120  137.4650 C   0  0  0  0  0  3  0  0  0  0  0  0
  1  3  1  0  0  0  0
  1  5  1  0  0  0  0
  2  1  1  0  0  0  0
  5  4  1  1  0  0  0
  5  8  1  0  0  0  0
  6 11  1  0  0  0  0
  7 11  1  0  0  0  0
  7 12  1  0  0  0  0
  8 10  1  0  0  0  0
  8  6  1  0  0  0  0
 10  7  2  0  0  0  0
 11  9  2  0  0  0  0
 12 14  1  0  0  0  0
 14 13  1  6  0  0  0
 15 14  1  0  0  0  0
 16 17  1  0  0  0  0
 16 15  1  0  0  0  0
 17 20  1  6  0  0  0
 17 18  1  0  0  0  0
 18 19  2  0  0  0  0
 20 21  1  0  0  0  0
 22 29  2  1  0  0  0
 22 24  1  0  0  0  0
 23 25  1  6  0  0  0
 23 22  1  0  0  0  0
 25 26  1  0  0  0  0
 26 30  1  6  0  0  0
 26 28  1  0  0  0  0
 26 23  1  0  0  0  0
 27 22  1  0  0  0  0
 27 21  1  1  0  0  0
 28 27  1  0  0  0  0
 30 32  1  6  0  0  0
 30 31  1  0  0  0  0
 33 55  1  6  0  0  0
 33  1  1  0  0  0  0
 34 40  2  0  0  0  0
 34 38  1  0  0  0  0
 35 33  1  0  0  0  0
 36 35  1  0  0  0  0
 36 38  2  0  0  0  0
 37 34  1  0  0  0  0
 37 41  1  1  0  0  0
 39 37  1  0  0  0  0
 39 36  1  0  0  0  0
 42 47  1  0  0  0  0
 43 45  1  0  0  0  0
 43 44  1  1  0  0  0
 45 47  1  0  0  0  0
 45 41  1  1  0  0  0
 47 50  1  1  0  0  0
 48 46  1  1  0  0  0
 48 43  1  0  0  0  0
 48 42  1  0  0  0  0
 50 49  1  6  0  0  0
 50 52  1  0  0  0  0
 52 51  1  1  0  0  0
 52 53  1  0  0  0  0
 53 54  2  0  0  0  0
 56 63  1  0  0  0  0
 57 61  1  6  0  0  0
 57 62  1  0  0  0  0
 57 59  1  0  0  0  0
 58 62  1  0  0  0  0
 58 60  2  0  0  0  0
 59 55  1  1  0  0  0
 59 56  1  0  0  0  0
 60 64  1  0  0  0  0
 61 59  1  0  0  0  0
 62 56  2  0  0  0  0
 64 63  2  0  0  0  0
M  END
>  <MODEL>
3

>  <REMARK>
 VINA RESULT:      -6.2      2.781      6.153
  Name = 
  21 active torsions:
  status: ('A' for Active; 'I' for Inactive)
    1  A    between atoms: C_4  and  C_35
    2  A    between atoms: O_6  and  C_28
    3  A    between atoms: O_6  and  C_30
    4  A    between atoms: C_7  and  C_9
    5  A    between atoms: C_7  and  N_20
    6  A    between atoms: C_9  and  C_28
    7  A    between atoms: C_11  and  C_17
    8  A    between atoms: C_11  and  S_36
    9  A    between atoms: C_13  and  O_16
   10  A    between atoms: C_13  and  C_56
   11  A    between atoms: N_15  and  C_28
   12  A    between atoms: O_16  and  S_36
   13  A    between atoms: C_23  and  C_42
   14  A    between atoms: C_25  and  C_56
   15  A    between atoms: C_27  and  C_34
   16  A    between atoms: C_33  and  C_34
   17  A    between atoms: C_42  and  C_49
   18  A    between atoms: O_43  and  C_44
   19  A    between atoms: O_43  and  C_47
   20  A    between atoms: C_47  and  C_56
   21  A    between atoms: C_48  and  C_49
                            x       y       z     vdW  Elec       q    Type
                         _______ _______ _______ _____ _____    ______ ____

>  <TORSDO>
F 21

$$$$
=
 OpenBabel11032420003D

 64 71  0  0  1  0  0  0  0  0999 V2000
  187.7700  177.2840  143.1480 C   0  0  0  0  0  0  0  0  0  0  0  0
  187.6980  175.9000  143.1690 F   0  0  0  0  0  0  0  0  0  0  0  0
  187.7400  177.7400  144.4560 F   0  0  0  0  0  0  0  0  0  0  0  0
  186.9180  178.9840  141.6590 O   0  0  0  0  0  1  0  0  0  0  0  0
  186.5510  177.8670  142.4140 C   0  0  2  0  0  3  0  0  0  0  0  0
  185.6310  178.4530  144.6030 N   0  0  0  0  0  2  0  0  0  0  0  0
  183.4550  178.6030  144.1400 C   0  0  0  0  0  0  0  0  0  0  0  0
  185.4540  178.2160  143.3120 N   0  0  0  0  0  0  0  0  0  0  0  0
  184.2100  178.9650  146.3330 O   0  0  0  0  0  0  0  0  0  0  0  0
  184.1410  178.2740  142.9860 C   0  0  0  0  0  3  0  0  0  0  0  0
  184.4160  178.6950  145.1200 C   0  0  0  0  0  0  0  0  0  0  0  0
  181.9790  178.7360  144.2950 C   0  0  0  0  0  2  0  0  0  0  0  0
  179.8250  178.5570  142.7110 C   0  0  0  0  0  1  0  0  0  0  0  0
  181.2450  179.3130  142.7550 S   0  0  2  0  0  3  0  0  0  0  0  0
  182.1530  178.5070  141.5610 O   0  0  0  0  0  0  0  0  0  0  0  0
  181.5290  178.8340  140.3550 C   0  0  0  0  0  2  0  0  0  0  0  0
  182.4940  178.6500  139.1920 C   0  0  1  0  0  3  0  0  0  0  0  0
  183.3900  179.8420  139.0560 C   0  0  0  0  0  3  0  0  0  0  0  0
  184.5000  179.8450  139.5640 O   0  0  0  0  0  0  0  0  0  0  0  0
  183.3040  177.3710  139.3840 C   0  0  0  0  0  2  0  0  0  0  0  0
  183.6920  176.8320  138.1400 O   0  0  0  0  0  0  0  0  0  0  0  0
  182.6630  176.3840  135.6680 P   0  0  2  0  0  0  0  0  0  0  0  0
  182.0260  174.7430  135.2850 C   0  0  2  0  0  3  0  0  0  0  0  0
  184.0820  176.5450  135.1660 O   0  0  0  0  0  1  0  0  0  0  0  0
  180.7530  174.5800  135.8850 O   0  0  0  0  0  0  0  0  0  0  0  0
  181.8540  174.0560  136.5870 C   0  0  2  0  0  0  0  0  0  0  0  0
  182.5640  176.2970  137.4740 C   0  0  1  0  0  3  0  0  0  0  0  0
  182.2090  174.8550  137.8550 C   0  0  0  0  0  2  0  0  0  0  0  0
  181.6640  177.5990  135.0500 O   0  0  0  0  0  0  0  0  0  0  0  0
  181.8940  172.5360  136.5720 C   0  0  1  0  0  3  0  0  0  0  0  0
  183.0420  172.0860  137.2270 O   0  0  0  0  0  1  0  0  0  0  0  0
  180.6650  171.9630  137.2520 C   0  0  0  0  0  1  0  0  0  0  0  0
  189.0820  177.7440  142.4940 C   0  0  1  0  0  3  0  0  0  0  0  0
  191.3990  176.7450  138.9300 C   0  0  0  0  0  0  0  0  0  0  0  0
  188.8790  178.0730  141.0800 N   0  0  0  0  0  2  0  0  0  0  0  0
  189.7600  177.6980  140.0150 C   0  0  0  0  0  0  0  0  0  0  0  0
  190.6980  177.4890  137.8460 C   0  0  2  0  0  3  0  0  0  0  0  0
  190.7910  176.9440  140.1920 N   0  0  0  0  0  0  0  0  0  0  0  0
  189.5300  178.1230  138.6020 C   0  0  0  0  0  2  0  0  0  0  0  0
  192.6130  176.2280  138.8070 C   0  0  0  0  0  2  0  0  0  0  0  0
  190.1420  176.5340  136.7970 C   0  0  0  0  0  2  0  0  0  0  0  0
  190.0080  172.9420  136.1330 O   0  0  0  0  0  0  0  0  0  0  0  0
  191.6990  174.5850  136.2360 C   0  0  1  0  0  3  0  0  0  0  0  0
  191.6200  175.1130  134.9390 O   0  0  0  0  0  1  0  0  0  0  0  0
  190.5480  175.0800  137.0790 C   0  0  2  0  0  3  0  0  0  0  0  0
  192.0920  172.3740  135.0720 C   0  0  0  0  0  1  0  0  0  0  0  0
  189.4550  174.0110  136.8730 C   0  0  1  0  0  3  0  0  0  0  0  0
  191.4000  173.1010  136.2140 C   0  0  2  0  0  3  0  0  0  0  0  0
  188.4950  175.5380  135.2820 O   0  0  0  0  0  1  0  0  0  0  0  0
  188.1740  174.5290  136.2010 C   0  0  2  0  0  3  0  0  0  0  0  0
  186.8460  176.3900  136.9590 O   0  0  0  0  0  1  0  0  0  0  0  0
  187.1460  175.0490  137.2110 C   0  0  1  0  0  3  0  0  0  0  0  0
  185.8930  174.2390  137.1500 C   0  0  0  0  0  3  0  0  0  0  0  0
  185.5780  173.6730  136.1140 O   0  0  0  0  0  0  0  0  0  0  0  0
  189.6330  178.8380  143.1830 O   0  0  0  0  0  0  0  0  0  0  0  0
  191.2530  177.0650  143.8680 C   0  0  0  0  0  0  0  0  0  0  0  0
  191.0930  178.8310  144.9430 C   0  0  2  0  0  3  0  0  0  0  0  0
  191.8850  176.5720  146.1740 N   0  0  0  0  0  0  0  0  0  0  0  0
  190.9470  178.4830  143.5260 C   0  0  2  0  0  0  0  0  0  0  0  0
  192.0380  175.2620  145.7790 C   0  0  0  0  0  3  0  0  0  0  0  0
  191.9360  179.5540  143.9290 C   0  0  0  0  0  2  0  0  0  0  0  0
  191.5070  177.4240  145.2040 C   0  0  0  0  0  0  0  0  0  0  0  0
  191.4030  175.7650  143.4220 C   0  0  0  0  0  3  0  0  0  0  0  0
  191.8040  174.8460  144.4260 C   0  0  0  0  0  3  0  0  0  0  0  0
  1  2  1  0  0  0  0
  1  3  1  0  0  0  0
  5  4  1  1  0  0  0
  5  1  1  0  0  0  0
  5  8  1  0  0  0  0
  6 11  1  0  0  0  0
  7 12  1  0  0  0  0
  7 11  1  0  0  0  0
  8  6  1  0  0  0  0
 10  8  1  0  0  0  0
 10  7  2  0  0  0  0
 11  9  2  0  0  0  0
 14 13  1  1  0  0  0
 14 12  1  0  0  0  0
 15 14  1  0  0  0  0
 16 15  1  0  0  0  0
 17 18  1  1  0  0  0
 17 20  1  0  0  0  0
 17 16  1  0  0  0  0
 18 19  2  0  0  0  0
 21 20  1  0  0  0  0
 22 29  2  6  0  0  0
 22 27  1  0  0  0  0
 23 22  1  0  0  0  0
 23 25  1  1  0  0  0
 23 26  1  0  0  0  0
 24 22  1  0  0  0  0
 25 26  1  0  0  0  0
 26 30  1  1  0  0  0
 26 28  1  0  0  0  0
 27 28  1  0  0  0  0
 27 21  1  1  0  0  0
 30 31  1  0  0  0  0
 30 32  1  1  0  0  0
 33 35  1  6  0  0  0
 33  1  1  0  0  0  0
 33 55  1  0  0  0  0
 34 38  1  0  0  0  0
 36 38  2  0  0  0  0
 36 35  1  0  0  0  0
 37 41  1  6  0  0  0
 37 39  1  0  0  0  0
 37 34  1  0  0  0  0
 39 36  1  0  0  0  0
 40 34  2  0  0  0  0
 42 48  1  0  0  0  0
 42 47  1  0  0  0  0
 43 44  1  6  0  0  0
 43 45  1  0  0  0  0
 45 41  1  6  0  0  0
 47 50  1  6  0  0  0
 47 45  1  0  0  0  0
 48 46  1  6  0  0  0
 48 43  1  0  0  0  0
 50 49  1  6  0  0  0
 50 52  1  0  0  0  0
 52 51  1  6  0  0  0
 53 52  1  0  0  0  0
 54 53  2  0  0  0  0
 56 62  1  0  0  0  0
 57 61  1  6  0  0  0
 57 62  1  0  0  0  0
 59 55  1  6  0  0  0
 59 56  1  0  0  0  0
 59 61  1  0  0  0  0
 59 57  1  0  0  0  0
 60 58  1  0  0  0  0
 62 58  2  0  0  0  0
 63 56  2  0  0  0  0
 63 64  1  0  0  0  0
 64 60  2  0  0  0  0
M  END
>  <MODEL>
4

>  <REMARK>
 VINA RESULT:      -6.1      3.422      9.035
  Name = 
  21 active torsions:
  status: ('A' for Active; 'I' for Inactive)
    1  A    between atoms: C_4  and  C_35
    2  A    between atoms: O_6  and  C_28
    3  A    between atoms: O_6  and  C_30
    4  A    between atoms: C_7  and  C_9
    5  A    between atoms: C_7  and  N_20
    6  A    between atoms: C_9  and  C_28
    7  A    between atoms: C_11  and  C_17
    8  A    between atoms: C_11  and  S_36
    9  A    between atoms: C_13  and  O_16
   10  A    between atoms: C_13  and  C_56
   11  A    between atoms: N_15  and  C_28
   12  A    between atoms: O_16  and  S_36
   13  A    between atoms: C_23  and  C_42
   14  A    between atoms: C_25  and  C_56
   15  A    between atoms: C_27  and  C_34
   16  A    between atoms: C_33  and  C_34
   17  A    between atoms: C_42  and  C_49
   18  A    between atoms: O_43  and  C_44
   19  A    between atoms: O_43  and  C_47
   20  A    between atoms: C_47  and  C_56
   21  A    between atoms: C_48  and  C_49
                            x       y       z     vdW  Elec       q    Type
                         _______ _______ _______ _____ _____    ______ ____

>  <TORSDO>
F 21

$$$$
=
 OpenBabel11032420003D

 64 71  0  0  1  0  0  0  0  0999 V2000
  183.4950  178.5120  141.7750 C   0  0  0  0  0  0  0  0  0  0  0  0
  184.4190  177.5340  141.4400 F   0  0  0  0  0  0  0  0  0  0  0  0
  183.8480  179.6830  141.1230 F   0  0  0  0  0  0  0  0  0  0  0  0
  183.2650  180.1260  143.5570 O   0  0  0  0  0  1  0  0  0  0  0  0
  183.5340  178.7820  143.2880 C   0  0  2  0  0  3  0  0  0  0  0  0
  184.9230  178.1710  145.2070 N   0  0  0  0  0  2  0  0  0  0  0  0
  186.9230  177.9430  144.2470 C   0  0  0  0  0  0  0  0  0  0  0  0
  184.8000  178.3980  143.9070 N   0  0  0  0  0  0  0  0  0  0  0  0
  186.6930  177.6160  146.5600 O   0  0  0  0  0  0  0  0  0  0  0  0
  185.9970  178.2920  143.2830 C   0  0  0  0  0  3  0  0  0  0  0  0
  186.2170  177.8890  145.4260 C   0  0  0  0  0  0  0  0  0  0  0  0
  188.3890  177.7600  144.0530 C   0  0  0  0  0  2  0  0  0  0  0  0
  189.6400  175.5390  143.2260 C   0  0  0  0  0  1  0  0  0  0  0  0
  188.6960  176.6990  142.6300 S   0  0  2  0  0  3  0  0  0  0  0  0
  189.7630  177.6200  141.6760 O   0  0  0  0  0  0  0  0  0  0  0  0
  190.8360  176.7650  141.4120 C   0  0  0  0  0  2  0  0  0  0  0  0
  191.0650  176.6530  139.9100 C   0  0  1  0  0  3  0  0  0  0  0  0
  189.8700  177.1470  139.1560 C   0  0  0  0  0  3  0  0  0  0  0  0
  189.8110  178.3060  138.7790 O   0  0  0  0  0  0  0  0  0  0  0  0
  192.3230  177.4210  139.5160 C   0  0  0  0  0  2  0  0  0  0  0  0
  192.6940  177.1280  138.1880 O   0  0  0  0  0  0  0  0  0  0  0  0
  192.0480  174.8260  136.9010 P   0  0  2  0  0  0  0  0  0  0  0  0
  193.3650  173.8790  136.1190 C   0  0  2  0  0  3  0  0  0  0  0  0
  191.3480  175.7130  135.8940 O   0  0  0  0  0  0  0  0  0  0  0  0
  194.0840  173.1650  137.1090 O   0  0  0  0  0  0  0  0  0  0  0  0
  194.6330  174.3910  136.6900 C   0  0  2  0  0  0  0  0  0  0  0  0
  193.0540  175.7630  138.0790 C   0  0  1  0  0  3  0  0  0  0  0  0
  194.5270  175.5040  137.7480 C   0  0  0  0  0  2  0  0  0  0  0  0
  190.9420  173.8210  137.6900 O   0  0  0  0  0  1  0  0  0  0  0  0
  195.8860  174.2170  135.8440 C   0  0  1  0  0  3  0  0  0  0  0  0
  196.8420  175.1630  136.2160 O   0  0  0  0  0  1  0  0  0  0  0  0
  196.4570  172.8230  136.0180 C   0  0  0  0  0  1  0  0  0  0  0  0
  182.0870  178.0980  141.3230 C   0  0  1  0  0  3  0  0  0  0  0  0
  182.1960  177.5130  136.9970 C   0  0  0  0  0  0  0  0  0  0  0  0
  182.1320  176.8810  140.5090 N   0  0  0  0  0  2  0  0  0  0  0  0
  182.1260  176.8490  139.0770 C   0  0  0  0  0  0  0  0  0  0  0  0
  182.1150  176.0320  136.8500 C   0  0  2  0  0  3  0  0  0  0  0  0
  182.1710  177.9160  138.3530 N   0  0  0  0  0  0  0  0  0  0  0  0
  182.1050  175.5690  138.3060 C   0  0  0  0  0  2  0  0  0  0  0  0
  181.9900  178.3670  136.0060 C   0  0  0  0  0  2  0  0  0  0  0  0
  183.3620  175.4810  136.1690 C   0  0  0  0  0  2  0  0  0  0  0  0
  186.9700  175.4100  136.7520 O   0  0  0  0  0  0  0  0  0  0  0  0
  185.4100  177.0000  135.9720 C   0  0  1  0  0  3  0  0  0  0  0  0
  185.3380  176.6420  134.6180 O   0  0  0  0  0  1  0  0  0  0  0  0
  184.6480  176.0100  136.8210 C   0  0  2  0  0  3  0  0  0  0  0  0
  187.8860  177.2740  135.5370 C   0  0  0  0  0  1  0  0  0  0  0  0
  185.7080  174.9560  137.1990 C   0  0  1  0  0  3  0  0  0  0  0  0
  186.8140  176.7810  136.4940 C   0  0  2  0  0  3  0  0  0  0  0  0
  184.7780  172.7860  137.6550 O   0  0  0  0  0  1  0  0  0  0  0  0
  185.4220  173.5440  136.6670 C   0  0  2  0  0  3  0  0  0  0  0  0
  187.4920  172.4800  137.2890 O   0  0  0  0  0  1  0  0  0  0  0  0
  186.6890  172.8220  136.1980 C   0  0  1  0  0  3  0  0  0  0  0  0
  186.3380  171.5880  135.4330 C   0  0  0  0  0  3  0  0  0  0  0  0
  187.2100  170.9500  134.8620 O   0  0  0  0  0  0  0  0  0  0  0  0
  181.2320  177.9260  142.4250 O   0  0  0  0  0  0  0  0  0  0  0  0
  179.8920  179.2760  140.8090 C   0  0  0  0  0  0  0  0  0  0  0  0
  179.9670  179.7900  142.8160 C   0  0  2  0  0  3  0  0  0  0  0  0
  179.5510  181.6890  140.9540 N   0  0  0  0  0  0  0  0  0  0  0  0
  180.0060  178.5180  142.0870 C   0  0  2  0  0  0  0  0  0  0  0  0
  179.5020  181.6960  139.5790 C   0  0  0  0  0  3  0  0  0  0  0  0
  178.9530  178.7310  143.1510 C   0  0  0  0  0  2  0  0  0  0  0  0
  179.7360  180.4810  141.5170 C   0  0  0  0  0  0  0  0  0  0  0  0
  179.8390  179.2310  139.4280 C   0  0  0  0  0  3  0  0  0  0  0  0
  179.6430  180.4930  138.8090 C   0  0  0  0  0  3  0  0  0  0  0  0
  1  5  1  0  0  0  0
  2  1  1  0  0  0  0
  3  1  1  0  0  0  0
  5  4  1  6  0  0  0
  5  8  1  0  0  0  0
  6 11  1  0  0  0  0
  7 11  1  0  0  0  0
  8  6  1  0  0  0  0
 10  8  1  0  0  0  0
 10  7  2  0  0  0  0
 11  9  2  0  0  0  0
 12  7  1  0  0  0  0
 14 13  1  1  0  0  0
 14 12  1  0  0  0  0
 15 14  1  0  0  0  0
 16 15  1  0  0  0  0
 17 18  1  6  0  0  0
 17 16  1  0  0  0  0
 19 18  2  0  0  0  0
 20 17  1  0  0  0  0
 21 20  1  0  0  0  0
 22 24  2  6  0  0  0
 22 29  1  0  0  0  0
 22 27  1  0  0  0  0
 23 26  1  0  0  0  0
 23 22  1  0  0  0  0
 23 25  1  1  0  0  0
 26 30  1  6  0  0  0
 26 25  1  0  0  0  0
 26 28  1  0  0  0  0
 27 21  1  6  0  0  0
 28 27  1  0  0  0  0
 30 32  1  1  0  0  0
 30 31  1  0  0  0  0
 33 35  1  1  0  0  0
 33  1  1  0  0  0  0
 33 55  1  0  0  0  0
 34 38  1  0  0  0  0
 36 35  1  0  0  0  0
 37 41  1  6  0  0  0
 37 34  1  0  0  0  0
 37 39  1  0  0  0  0
 38 36  2  0  0  0  0
 39 36  1  0  0  0  0
 40 34  2  0  0  0  0
 42 47  1  0  0  0  0
 43 44  1  6  0  0  0
 43 48  1  0  0  0  0
 43 45  1  0  0  0  0
 45 41  1  6  0  0  0
 45 47  1  0  0  0  0
 47 50  1  6  0  0  0
 48 46  1  6  0  0  0
 48 42  1  0  0  0  0
 50 49  1  1  0  0  0
 52 50  1  0  0  0  0
 52 51  1  1  0  0  0
 53 52  1  0  0  0  0
 54 53  2  0  0  0  0
 56 62  1  0  0  0  0
 56 59  1  0  0  0  0
 57 61  1  1  0  0  0
 58 62  2  0  0  0  0
 59 55  1  1  0  0  0
 59 57  1  0  0  0  0
 59 61  1  0  0  0  0
 60 58  1  0  0  0  0
 62 57  1  0  0  0  0
 63 56  2  0  0  0  0
 64 63  1  0  0  0  0
 64 60  2  0  0  0  0
M  END
>  <MODEL>
5

>  <REMARK>
 VINA RESULT:      -5.6      3.587      8.811
  Name = 
  21 active torsions:
  status: ('A' for Active; 'I' for Inactive)
    1  A    between atoms: C_4  and  C_35
    2  A    between atoms: O_6  and  C_28
    3  A    between atoms: O_6  and  C_30
    4  A    between atoms: C_7  and  C_9
    5  A    between atoms: C_7  and  N_20
    6  A    between atoms: C_9  and  C_28
    7  A    between atoms: C_11  and  C_17
    8  A    between atoms: C_11  and  S_36
    9  A    between atoms: C_13  and  O_16
   10  A    between atoms: C_13  and  C_56
   11  A    between atoms: N_15  and  C_28
   12  A    between atoms: O_16  and  S_36
   13  A    between atoms: C_23  and  C_42
   14  A    between atoms: C_25  and  C_56
   15  A    between atoms: C_27  and  C_34
   16  A    between atoms: C_33  and  C_34
   17  A    between atoms: C_42  and  C_49
   18  A    between atoms: O_43  and  C_44
   19  A    between atoms: O_43  and  C_47
   20  A    between atoms: C_47  and  C_56
   21  A    between atoms: C_48  and  C_49
                            x       y       z     vdW  Elec       q    Type
                         _______ _______ _______ _____ _____    ______ ____

>  <TORSDO>
F 21

$$$$
=
 OpenBabel11032420003D

 64 71  0  0  1  0  0  0  0  0999 V2000
  187.0650  175.0720  136.2130 C   0  0  0  0  0  0  0  0  0  0  0  0
  187.8770  174.1960  136.9160 F   0  0  0  0  0  0  0  0  0  0  0  0
  187.3520  174.9390  134.8630 F   0  0  0  0  0  0  0  0  0  0  0  0
  187.2150  177.3850  135.5340 O   0  0  0  0  0  1  0  0  0  0  0  0
  187.3680  176.5220  136.6220 C   0  0  2  0  0  3  0  0  0  0  0  0
  189.8110  176.4690  136.5180 N   0  0  0  0  0  2  0  0  0  0  0  0
  190.3520  177.0220  138.6100 C   0  0  0  0  0  0  0  0  0  0  0  0
  188.6980  176.6890  137.2020 N   0  0  0  0  0  0  0  0  0  0  0  0
  192.0430  176.5560  137.0500 O   0  0  0  0  0  0  0  0  0  0  0  0
  188.9760  177.0070  138.4880 C   0  0  0  0  0  3  0  0  0  0  0  0
  190.8300  176.6740  137.3680 C   0  0  0  0  0  0  0  0  0  0  0  0
  191.1370  177.2730  139.8510 C   0  0  0  0  0  2  0  0  0  0  0  0
  189.1570  178.0790  141.4680 C   0  0  0  0  0  1  0  0  0  0  0  0
  190.1610  176.8310  141.2990 S   0  0  2  0  0  3  0  0  0  0  0  0
  191.2560  177.0340  142.5870 O   0  0  0  0  0  0  0  0  0  0  0  0
  190.9520  176.0040  143.4810 C   0  0  0  0  0  2  0  0  0  0  0  0
  190.7530  176.5630  144.8830 C   0  0  1  0  0  3  0  0  0  0  0  0
  191.9900  176.3790  145.7050 C   0  0  0  0  0  3  0  0  0  0  0  0
  192.1610  175.3580  146.3510 O   0  0  0  0  0  0  0  0  0  0  0  0
  190.3540  178.0330  144.8070 C   0  0  0  0  0  2  0  0  0  0  0  0
  189.6250  178.4150  145.9530 O   0  0  0  0  0  0  0  0  0  0  0  0
  187.5200  177.8530  147.5730 P   0  0  2  0  0  0  0  0  0  0  0  0
  185.8540  178.1130  146.9400 C   0  0  2  0  0  3  0  0  0  0  0  0
  187.9770  179.0370  148.3970 O   0  0  0  0  0  0  0  0  0  0  0  0
  185.5110  177.0520  146.0660 O   0  0  0  0  0  0  0  0  0  0  0  0
  185.9880  178.2340  145.4690 C   0  0  2  0  0  0  0  0  0  0  0  0
  188.3910  177.7230  145.9910 C   0  0  1  0  0  3  0  0  0  0  0  0
  187.4030  178.0940  144.8800 C   0  0  0  0  0  2  0  0  0  0  0  0
  187.6320  176.4200  148.4620 O   0  0  0  0  0  1  0  0  0  0  0  0
  184.8990  179.0080  144.7430 C   0  0  1  0  0  3  0  0  0  0  0  0
  185.3810  180.2640  144.3690 O   0  0  0  0  0  1  0  0  0  0  0  0
  184.4410  178.2540  143.5090 C   0  0  0  0  0  1  0  0  0  0  0  0
  185.5840  174.7300  136.4390 C   0  0  1  0  0  3  0  0  0  0  0  0
  182.4300  177.7350  136.1470 C   0  0  0  0  0  0  0  0  0  0  0  0
  184.9880  175.6130  137.4450 N   0  0  0  0  0  2  0  0  0  0  0  0
  183.9710  176.5870  137.1850 C   0  0  0  0  0  0  0  0  0  0  0  0
  182.4010  178.3350  137.5110 C   0  0  2  0  0  3  0  0  0  0  0  0
  183.4090  176.7210  136.0310 N   0  0  0  0  0  0  0  0  0  0  0  0
  183.4530  177.5040  138.2440 C   0  0  0  0  0  2  0  0  0  0  0  0
  181.8550  178.2830  135.0860 C   0  0  0  0  0  2  0  0  0  0  0  0
  181.0480  178.1140  138.1780 C   0  0  0  0  0  2  0  0  0  0  0  0
  179.4760  175.8220  140.5530 O   0  0  0  0  0  0  0  0  0  0  0  0
  180.6010  175.6150  138.4870 C   0  0  1  0  0  3  0  0  0  0  0  0
  179.5450  175.8640  137.5980 O   0  0  0  0  0  1  0  0  0  0  0  0
  181.0710  176.9020  139.1220 C   0  0  2  0  0  3  0  0  0  0  0  0
  179.1250  173.7590  139.3660 C   0  0  0  0  0  1  0  0  0  0  0  0
  180.2190  177.0150  140.4020 C   0  0  1  0  0  3  0  0  0  0  0  0
  180.0890  174.8820  139.7090 C   0  0  2  0  0  3  0  0  0  0  0  0
  179.7240  179.1970  139.5180 O   0  0  0  0  0  1  0  0  0  0  0  0
  179.2900  178.2390  140.4440 C   0  0  2  0  0  3  0  0  0  0  0  0
  179.0610  177.8710  142.8140 O   0  0  0  0  0  1  0  0  0  0  0  0
  179.2010  178.8640  141.8400 C   0  0  1  0  0  3  0  0  0  0  0  0
  180.4190  179.6770  142.1310 C   0  0  0  0  0  3  0  0  0  0  0  0
  180.3450  180.6550  142.8590 O   0  0  0  0  0  0  0  0  0  0  0  0
  184.8620  174.7930  135.2350 O   0  0  0  0  0  0  0  0  0  0  0  0
  182.9000  173.2540  135.3710 C   0  0  0  0  0  0  0  0  0  0  0  0
  184.7340  172.7110  136.1710 C   0  0  2  0  0  3  0  0  0  0  0  0
  182.4610  171.7160  137.2150 N   0  0  0  0  0  0  0  0  0  0  0  0
  184.3240  173.5160  135.0160 C   0  0  2  0  0  0  0  0  0  0  0  0
  181.1210  171.9080  136.9650 C   0  0  0  0  0  3  0  0  0  0  0  0
  185.2460  172.3350  134.8080 C   0  0  0  0  0  2  0  0  0  0  0  0
  183.2980  172.3890  136.4050 C   0  0  0  0  0  0  0  0  0  0  0  0
  181.5670  173.4710  135.0760 C   0  0  0  0  0  3  0  0  0  0  0  0
  180.6620  172.7700  135.9140 C   0  0  0  0  0  3  0  0  0  0  0  0
  1 33  1  0  0  0  0
  1  5  1  0  0  0  0
  1  2  1  0  0  0  0
  3  1  1  0  0  0  0
  5  4  1  6  0  0  0
  5  8  1  0  0  0  0
  6  8  1  0  0  0  0
  6 11  1  0  0  0  0
  7 12  1  0  0  0  0
  8 10  1  0  0  0  0
  9 11  2  0  0  0  0
 10  7  2  0  0  0  0
 11  7  1  0  0  0  0
 12 14  1  0  0  0  0
 14 13  1  1  0  0  0
 14 15  1  0  0  0  0
 15 16  1  0  0  0  0
 17 16  1  6  0  0  0
 17 18  1  0  0  0  0
 18 19  2  0  0  0  0
 20 17  1  0  0  0  0
 20 21  1  0  0  0  0
 22 24  2  1  0  0  0
 22 29  1  0  0  0  0
 23 25  1  6  0  0  0
 23 22  1  0  0  0  0
 26 30  1  6  0  0  0
 26 25  1  0  0  0  0
 26 23  1  0  0  0  0
 27 21  1  1  0  0  0
 27 22  1  0  0  0  0
 28 26  1  0  0  0  0
 28 27  1  0  0  0  0
 30 32  1  6  0  0  0
 31 30  1  0  0  0  0
 33 55  1  6  0  0  0
 33 35  1  0  0  0  0
 34 37  1  0  0  0  0
 36 35  1  0  0  0  0
 36 39  1  0  0  0  0
 37 41  1  1  0  0  0
 37 39  1  0  0  0  0
 38 34  1  0  0  0  0
 38 36  2  0  0  0  0
 40 34  2  0  0  0  0
 43 44  1  6  0  0  0
 43 45  1  0  0  0  0
 43 48  1  0  0  0  0
 45 41  1  6  0  0  0
 45 47  1  0  0  0  0
 47 50  1  6  0  0  0
 47 42  1  0  0  0  0
 48 46  1  6  0  0  0
 48 42  1  0  0  0  0
 50 49  1  6  0  0  0
 50 52  1  0  0  0  0
 52 53  1  0  0  0  0
 52 51  1  1  0  0  0
 53 54  2  0  0  0  0
 56 62  1  0  0  0  0
 57 61  1  6  0  0  0
 57 62  1  0  0  0  0
 59 55  1  6  0  0  0
 59 56  1  0  0  0  0
 59 57  1  0  0  0  0
 60 58  1  0  0  0  0
 61 59  1  0  0  0  0
 62 58  2  0  0  0  0
 63 56  2  0  0  0  0
 63 64  1  0  0  0  0
 64 60  2  0  0  0  0
M  END
>  <MODEL>
6

>  <REMARK>
 VINA RESULT:      -5.4      2.481      5.630
  Name = 
  21 active torsions:
  status: ('A' for Active; 'I' for Inactive)
    1  A    between atoms: C_4  and  C_35
    2  A    between atoms: O_6  and  C_28
    3  A    between atoms: O_6  and  C_30
    4  A    between atoms: C_7  and  C_9
    5  A    between atoms: C_7  and  N_20
    6  A    between atoms: C_9  and  C_28
    7  A    between atoms: C_11  and  C_17
    8  A    between atoms: C_11  and  S_36
    9  A    between atoms: C_13  and  O_16
   10  A    between atoms: C_13  and  C_56
   11  A    between atoms: N_15  and  C_28
   12  A    between atoms: O_16  and  S_36
   13  A    between atoms: C_23  and  C_42
   14  A    between atoms: C_25  and  C_56
   15  A    between atoms: C_27  and  C_34
   16  A    between atoms: C_33  and  C_34
   17  A    between atoms: C_42  and  C_49
   18  A    between atoms: O_43  and  C_44
   19  A    between atoms: O_43  and  C_47
   20  A    between atoms: C_47  and  C_56
   21  A    between atoms: C_48  and  C_49
                            x       y       z     vdW  Elec       q    Type
                         _______ _______ _______ _____ _____    ______ ____

>  <TORSDO>
F 21

$$$$
=
 OpenBabel11032420003D

 64 71  0  0  1  0  0  0  0  0999 V2000
  189.6940  176.4990  142.2080 C   0  0  0  0  0  0  0  0  0  0  0  0
  190.5360  175.6760  142.9410 F   0  0  0  0  0  0  0  0  0  0  0  0
  189.0530  175.7240  141.2540 F   0  0  0  0  0  0  0  0  0  0  0  0
  190.1460  178.8520  141.9050 O   0  0  0  0  0  1  0  0  0  0  0  0
  190.5120  177.5750  141.4740 C   0  0  2  0  0  3  0  0  0  0  0  0
  191.2520  176.8110  139.2720 N   0  0  0  0  0  2  0  0  0  0  0  0
  189.7600  177.7990  137.9400 C   0  0  0  0  0  0  0  0  0  0  0  0
  190.3970  177.4910  140.0210 N   0  0  0  0  0  0  0  0  0  0  0  0
  191.4610  176.4760  137.0100 O   0  0  0  0  0  0  0  0  0  0  0  0
  189.4820  178.1290  139.2520 C   0  0  0  0  0  3  0  0  0  0  0  0
  190.8700  176.9880  137.9970 C   0  0  0  0  0  0  0  0  0  0  0  0
  189.0560  178.2970  136.7250 C   0  0  0  0  0  2  0  0  0  0  0  0
  186.4390  177.7890  136.9990 C   0  0  0  0  0  1  0  0  0  0  0  0
  187.7320  177.1640  136.2700 S   0  0  2  0  0  3  0  0  0  0  0  0
  188.0680  175.7750  137.1950 O   0  0  0  0  0  0  0  0  0  0  0  0
  187.1500  174.8190  136.7530 C   0  0  0  0  0  2  0  0  0  0  0  0
  187.2920  174.6030  135.2520 C   0  0  1  0  0  3  0  0  0  0  0  0
  188.0370  173.3360  134.9700 C   0  0  0  0  0  3  0  0  0  0  0  0
  187.6690  172.2790  135.4570 O   0  0  0  0  0  0  0  0  0  0  0  0
  185.9160  174.5930  134.5940 C   0  0  0  0  0  2  0  0  0  0  0  0
  184.8980  174.7500  135.5580 O   0  0  0  0  0  0  0  0  0  0  0  0
  184.0360  172.3550  136.5040 P   0  0  2  0  0  0  0  0  0  0  0  0
  182.2890  172.1660  136.9030 C   0  0  2  0  0  3  0  0  0  0  0  0
  184.8420  172.6770  137.7430 O   0  0  0  0  0  1  0  0  0  0  0  0
  181.5480  172.0020  135.7070 O   0  0  0  0  0  0  0  0  0  0  0  0
  181.5940  173.2990  136.2480 C   0  0  2  0  0  0  0  0  0  0  0  0
  183.9020  173.7610  135.3710 C   0  0  1  0  0  3  0  0  0  0  0  0
  182.4600  174.2750  135.4290 C   0  0  0  0  0  2  0  0  0  0  0  0
  184.6480  170.9860  135.7240 O   0  0  0  0  0  0  0  0  0  0  0  0
  180.2680  173.7330  136.8530 C   0  0  1  0  0  3  0  0  0  0  0  0
  180.4870  174.7270  137.8080 O   0  0  0  0  0  1  0  0  0  0  0  0
  179.3380  174.2590  135.7770 C   0  0  0  0  0  1  0  0  0  0  0  0
  188.6350  177.1350  143.1210 C   0  0  1  0  0  3  0  0  0  0  0  0
  184.9160  179.3810  143.5510 C   0  0  0  0  0  0  0  0  0  0  0  0
  187.2830  176.8790  142.6180 N   0  0  0  0  0  2  0  0  0  0  0  0
  186.1400  177.7020  142.8780 C   0  0  0  0  0  0  0  0  0  0  0  0
  183.9070  178.5020  142.8940 C   0  0  2  0  0  3  0  0  0  0  0  0
  186.2130  178.8190  143.5200 N   0  0  0  0  0  0  0  0  0  0  0  0
  184.7730  177.3480  142.3910 C   0  0  0  0  0  2  0  0  0  0  0  0
  184.6060  180.3940  144.3460 C   0  0  0  0  0  2  0  0  0  0  0  0
  183.2730  179.1980  141.6950 C   0  0  0  0  0  2  0  0  0  0  0  0
  181.4150  177.6750  138.9390 O   0  0  0  0  0  0  0  0  0  0  0  0
  183.4080  178.9220  139.1560 C   0  0  1  0  0  3  0  0  0  0  0  0
  182.8930  180.2260  139.1540 O   0  0  0  0  0  1  0  0  0  0  0  0
  183.1540  178.2550  140.4870 C   0  0  2  0  0  3  0  0  0  0  0  0
  182.2410  178.6970  136.9240 C   0  0  0  0  0  1  0  0  0  0  0  0
  181.7930  177.5560  140.2960 C   0  0  1  0  0  3  0  0  0  0  0  0
  182.5820  178.0350  138.2480 C   0  0  2  0  0  3  0  0  0  0  0  0
  179.5640  177.2240  141.1340 O   0  0  0  0  0  1  0  0  0  0  0  0
  180.6750  178.0720  141.2160 C   0  0  2  0  0  3  0  0  0  0  0  0
  179.3970  179.5370  139.7930 O   0  0  0  0  0  1  0  0  0  0  0  0
  180.2610  179.5110  140.8910 C   0  0  1  0  0  3  0  0  0  0  0  0
  179.5900  180.1420  142.0660 C   0  0  0  0  0  3  0  0  0  0  0  0
  180.2430  180.7770  142.8800 O   0  0  0  0  0  0  0  0  0  0  0  0
  188.7670  176.6770  144.4430 O   0  0  0  0  0  0  0  0  0  0  0  0
  190.9150  176.5360  145.7090 C   0  0  0  0  0  0  0  0  0  0  0  0
  189.4260  177.8600  146.2860 C   0  0  2  0  0  3  0  0  0  0  0  0
  191.1370  176.8780  148.1160 N   0  0  0  0  0  0  0  0  0  0  0  0
  189.8780  177.3330  144.9930 C   0  0  2  0  0  0  0  0  0  0  0  0
  192.1700  175.9680  148.0800 C   0  0  0  0  0  3  0  0  0  0  0  0
  189.8380  178.8300  145.2120 C   0  0  0  0  0  2  0  0  0  0  0  0
  190.5550  177.1330  146.9310 C   0  0  0  0  0  0  0  0  0  0  0  0
  191.9510  175.6260  145.6210 C   0  0  0  0  0  3  0  0  0  0  0  0
  192.5850  175.3400  146.8580 C   0  0  0  0  0  3  0  0  0  0  0  0
  1  2  1  0  0  0  0
  1 33  1  0  0  0  0
  3  1  1  0  0  0  0
  5  4  1  1  0  0  0
  5  1  1  0  0  0  0
  6  8  1  0  0  0  0
  7 11  1  0  0  0  0
  7 10  2  0  0  0  0
  8  5  1  0  0  0  0
  9 11  2  0  0  0  0
 10  8  1  0  0  0  0
 11  6  1  0  0  0  0
 12  7  1  0  0  0  0
 14 12  1  0  0  0  0
 14 13  1  1  0  0  0
 14 15  1  0  0  0  0
 16 15  1  0  0  0  0
 17 20  1  6  0  0  0
 17 16  1  0  0  0  0
 18 17  1  0  0  0  0
 18 19  2  0  0  0  0
 20 21  1  0  0  0  0
 22 29  2  6  0  0  0
 22 23  1  0  0  0  0
 22 24  1  0  0  0  0
 23 25  1  6  0  0  0
 25 26  1  0  0  0  0
 26 30  1  1  0  0  0
 26 23  1  0  0  0  0
 27 28  1  0  0  0  0
 27 21  1  1  0  0  0
 27 22  1  0  0  0  0
 28 26  1  0  0  0  0
 30 32  1  6  0  0  0
 30 31  1  0  0  0  0
 33 35  1  6  0  0  0
 33 55  1  0  0  0  0
 34 40  2  0  0  0  0
 35 36  1  0  0  0  0
 36 38  2  0  0  0  0
 37 41  1  6  0  0  0
 37 34  1  0  0  0  0
 38 34  1  0  0  0  0
 39 36  1  0  0  0  0
 39 37  1  0  0  0  0
 42 47  1  0  0  0  0
 43 44  1  1  0  0  0
 43 45  1  0  0  0  0
 45 41  1  1  0  0  0
 47 45  1  0  0  0  0
 47 50  1  1  0  0  0
 48 46  1  6  0  0  0
 48 42  1  0  0  0  0
 48 43  1  0  0  0  0
 50 49  1  6  0  0  0
 52 51  1  6  0  0  0
 52 50  1  0  0  0  0
 52 53  1  0  0  0  0
 53 54  2  0  0  0  0
 56 62  1  0  0  0  0
 57 61  1  6  0  0  0
 57 62  1  0  0  0  0
 59 55  1  6  0  0  0
 59 61  1  0  0  0  0
 59 56  1  0  0  0  0
 59 57  1  0  0  0  0
 60 58  1  0  0  0  0
 62 58  2  0  0  0  0
 63 56  2  0  0  0  0
 63 64  1  0  0  0  0
 64 60  2  0  0  0  0
M  END
>  <MODEL>
7

>  <REMARK>
 VINA RESULT:      -5.3      3.415      9.025
  Name = 
  21 active torsions:
  status: ('A' for Active; 'I' for Inactive)
    1  A    between atoms: C_4  and  C_35
    2  A    between atoms: O_6  and  C_28
    3  A    between atoms: O_6  and  C_30
    4  A    between atoms: C_7  and  C_9
    5  A    between atoms: C_7  and  N_20
    6  A    between atoms: C_9  and  C_28
    7  A    between atoms: C_11  and  C_17
    8  A    between atoms: C_11  and  S_36
    9  A    between atoms: C_13  and  O_16
   10  A    between atoms: C_13  and  C_56
   11  A    between atoms: N_15  and  C_28
   12  A    between atoms: O_16  and  S_36
   13  A    between atoms: C_23  and  C_42
   14  A    between atoms: C_25  and  C_56
   15  A    between atoms: C_27  and  C_34
   16  A    between atoms: C_33  and  C_34
   17  A    between atoms: C_42  and  C_49
   18  A    between atoms: O_43  and  C_44
   19  A    between atoms: O_43  and  C_47
   20  A    between atoms: C_47  and  C_56
   21  A    between atoms: C_48  and  C_49
                            x       y       z     vdW  Elec       q    Type
                         _______ _______ _______ _____ _____    ______ ____

>  <TORSDO>
F 21

$$$$
=
 OpenBabel11032420003D

 64 71  0  0  1  0  0  0  0  0999 V2000
  187.7510  177.0580  143.0060 C   0  0  0  0  0  0  0  0  0  0  0  0
  187.2340  175.8290  143.3860 F   0  0  0  0  0  0  0  0  0  0  0  0
  187.9680  177.8090  144.1500 F   0  0  0  0  0  0  0  0  0  0  0  0
  187.3690  178.8340  141.4150 O   0  0  0  0  0  1  0  0  0  0  0  0
  186.7390  177.8110  142.1270 C   0  0  2  0  0  3  0  0  0  0  0  0
  185.4730  178.1710  144.1890 N   0  0  0  0  0  2  0  0  0  0  0  0
  183.7220  179.3260  143.4330 C   0  0  0  0  0  0  0  0  0  0  0  0
  185.6150  178.3550  142.8850 N   0  0  0  0  0  0  0  0  0  0  0  0
  183.8710  178.7890  145.7130 O   0  0  0  0  0  0  0  0  0  0  0  0
  184.5610  179.0340  142.3750 C   0  0  0  0  0  3  0  0  0  0  0  0
  184.3200  178.7640  144.5370 C   0  0  0  0  0  0  0  0  0  0  0  0
  182.4060  180.0210  143.3640 C   0  0  0  0  0  2  0  0  0  0  0  0
  180.6940  177.9750  143.6200 C   0  0  0  0  0  1  0  0  0  0  0  0
  181.2110  178.9960  142.4880 S   0  0  2  0  0  3  0  0  0  0  0  0
  182.1870  178.0170  141.4940 O   0  0  0  0  0  0  0  0  0  0  0  0
  181.6210  178.1210  140.2220 C   0  0  0  0  0  2  0  0  0  0  0  0
  180.6280  176.9900  139.9900 C   0  0  1  0  0  3  0  0  0  0  0  0
  179.2630  177.5350  139.7070 C   0  0  0  0  0  3  0  0  0  0  0  0
  178.9910  178.6950  139.9720 O   0  0  0  0  0  0  0  0  0  0  0  0
  181.1120  176.0970  138.8520 C   0  0  0  0  0  2  0  0  0  0  0  0
  180.5430  176.4950  137.6250 O   0  0  0  0  0  0  0  0  0  0  0  0
  182.7500  176.8800  136.0910 P   0  0  2  0  0  0  0  0  0  0  0  0
  183.8880  175.5030  135.8600 C   0  0  2  0  0  3  0  0  0  0  0  0
  183.2270  177.7960  137.1960 O   0  0  0  0  0  1  0  0  0  0  0  0
  183.3460  174.5960  134.9160 O   0  0  0  0  0  0  0  0  0  0  0  0
  183.1500  174.2870  136.2740 C   0  0  2  0  0  0  0  0  0  0  0  0
  181.2750  175.9350  136.5510 C   0  0  1  0  0  3  0  0  0  0  0  0
  181.6950  174.4740  136.7430 C   0  0  0  0  0  2  0  0  0  0  0  0
  182.5140  177.7390  134.6550 O   0  0  0  0  0  0  0  0  0  0  0  0
  183.9850  173.1010  136.7350 C   0  0  1  0  0  3  0  0  0  0  0  0
  184.6090  173.4050  137.9460 O   0  0  0  0  0  1  0  0  0  0  0  0
  183.1130  171.8720  136.9080 C   0  0  0  0  0  1  0  0  0  0  0  0
  189.0900  176.8740  142.2750 C   0  0  1  0  0  3  0  0  0  0  0  0
  191.1420  175.9530  138.5320 C   0  0  0  0  0  0  0  0  0  0  0  0
  189.0730  177.5390  140.9690 N   0  0  0  0  0  2  0  0  0  0  0  0
  189.8400  177.1330  139.8300 C   0  0  0  0  0  0  0  0  0  0  0  0
  190.7690  177.0930  137.6480 C   0  0  2  0  0  3  0  0  0  0  0  0
  190.5680  176.0670  139.8200 N   0  0  0  0  0  0  0  0  0  0  0  0
  189.8280  177.8950  138.5450 C   0  0  0  0  0  2  0  0  0  0  0  0
  192.1330  175.1110  138.2760 C   0  0  0  0  0  2  0  0  0  0  0  0
  189.9910  176.6090  136.4300 C   0  0  0  0  0  2  0  0  0  0  0  0
  187.2070  174.3310  135.7800 O   0  0  0  0  0  0  0  0  0  0  0  0
  189.5460  174.1240  136.0190 C   0  0  1  0  0  3  0  0  0  0  0  0
  189.9630  174.4360  134.7160 O   0  0  0  0  0  1  0  0  0  0  0  0
  189.1330  175.3770  136.7560 C   0  0  2  0  0  3  0  0  0  0  0  0
  188.1780  172.3110  134.9070 C   0  0  0  0  0  1  0  0  0  0  0  0
  187.6240  175.4960  136.4630 C   0  0  1  0  0  3  0  0  0  0  0  0
  188.2250  173.3860  135.9800 C   0  0  2  0  0  3  0  0  0  0  0  0
  188.3290  177.2450  134.9710 O   0  0  0  0  0  1  0  0  0  0  0  0
  187.2240  176.7550  135.6790 C   0  0  2  0  0  3  0  0  0  0  0  0
  186.3810  177.3510  137.8550 O   0  0  0  0  0  1  0  0  0  0  0  0
  186.6500  177.8540  136.5790 C   0  0  1  0  0  3  0  0  0  0  0  0
  187.6040  178.9970  136.6870 C   0  0  0  0  0  3  0  0  0  0  0  0
  187.2130  180.1420  136.5160 O   0  0  0  0  0  0  0  0  0  0  0  0
  190.1600  177.3430  143.0550 O   0  0  0  0  0  0  0  0  0  0  0  0
  190.1450  176.7130  145.4710 C   0  0  0  0  0  0  0  0  0  0  0  0
  191.8410  176.4340  144.3110 C   0  0  2  0  0  3  0  0  0  0  0  0
  192.0750  176.8530  146.9600 N   0  0  0  0  0  0  0  0  0  0  0  0
  190.4000  176.3750  144.0420 C   0  0  2  0  0  0  0  0  0  0  0  0
  191.1850  177.1210  147.9750 C   0  0  0  0  0  3  0  0  0  0  0  0
  191.2640  175.1740  143.7260 C   0  0  0  0  0  2  0  0  0  0  0  0
  191.5220  176.6520  145.7500 C   0  0  0  0  0  0  0  0  0  0  0  0
  189.2130  176.9680  146.4590 C   0  0  0  0  0  3  0  0  0  0  0  0
  189.7690  177.1810  147.7470 C   0  0  0  0  0  3  0  0  0  0  0  0
  1  2  1  0  0  0  0
  1  3  1  0  0  0  0
  5  4  1  1  0  0  0
  5  8  1  0  0  0  0
  5  1  1  0  0  0  0
  6 11  1  0  0  0  0
  7 11  1  0  0  0  0
  8  6  1  0  0  0  0
 10  8  1  0  0  0  0
 10  7  2  0  0  0  0
 11  9  2  0  0  0  0
 12  7  1  0  0  0  0
 14 12  1  0  0  0  0
 14 13  1  1  0  0  0
 15 14  1  0  0  0  0
 16 15  1  0  0  0  0
 17 20  1  6  0  0  0
 17 16  1  0  0  0  0
 18 19  2  0  0  0  0
 18 17  1  0  0  0  0
 21 20  1  0  0  0  0
 22 29  2  6  0  0  0
 22 27  1  0  0  0  0
 22 24  1  0  0  0  0
 23 25  1  6  0  0  0
 23 22  1  0  0  0  0
 23 26  1  0  0  0  0
 25 26  1  0  0  0  0
 26 30  1  1  0  0  0
 26 28  1  0  0  0  0
 27 28  1  0  0  0  0
 27 21  1  1  0  0  0
 30 32  1  1  0  0  0
 30 31  1  0  0  0  0
 33 35  1  6  0  0  0
 33  1  1  0  0  0  0
 33 55  1  0  0  0  0
 34 38  1  0  0  0  0
 36 35  1  0  0  0  0
 37 41  1  6  0  0  0
 37 34  1  0  0  0  0
 37 39  1  0  0  0  0
 38 36  2  0  0  0  0
 39 36  1  0  0  0  0
 40 34  2  0  0  0  0
 42 48  1  0  0  0  0
 42 47  1  0  0  0  0
 43 44  1  6  0  0  0
 43 45  1  0  0  0  0
 45 41  1  6  0  0  0
 47 50  1  6  0  0  0
 47 45  1  0  0  0  0
 48 46  1  6  0  0  0
 48 43  1  0  0  0  0
 50 49  1  1  0  0  0
 50 52  1  0  0  0  0
 52 53  1  0  0  0  0
 52 51  1  1  0  0  0
 54 53  2  0  0  0  0
 56 62  2  0  0  0  0
 56 63  1  0  0  0  0
 57 61  1  1  0  0  0
 57 62  1  0  0  0  0
 58 60  2  0  0  0  0
 59 55  1  6  0  0  0
 59 57  1  0  0  0  0
 59 56  1  0  0  0  0
 61 59  1  0  0  0  0
 62 58  1  0  0  0  0
 63 64  2  0  0  0  0
 64 60  1  0  0  0  0
M  END
>  <MODEL>
8

>  <REMARK>
 VINA RESULT:      -5.2      3.218      8.689
  Name = 
  21 active torsions:
  status: ('A' for Active; 'I' for Inactive)
    1  A    between atoms: C_4  and  C_35
    2  A    between atoms: O_6  and  C_28
    3  A    between atoms: O_6  and  C_30
    4  A    between atoms: C_7  and  C_9
    5  A    between atoms: C_7  and  N_20
    6  A    between atoms: C_9  and  C_28
    7  A    between atoms: C_11  and  C_17
    8  A    between atoms: C_11  and  S_36
    9  A    between atoms: C_13  and  O_16
   10  A    between atoms: C_13  and  C_56
   11  A    between atoms: N_15  and  C_28
   12  A    between atoms: O_16  and  S_36
   13  A    between atoms: C_23  and  C_42
   14  A    between atoms: C_25  and  C_56
   15  A    between atoms: C_27  and  C_34
   16  A    between atoms: C_33  and  C_34
   17  A    between atoms: C_42  and  C_49
   18  A    between atoms: O_43  and  C_44
   19  A    between atoms: O_43  and  C_47
   20  A    between atoms: C_47  and  C_56
   21  A    between atoms: C_48  and  C_49
                            x       y       z     vdW  Elec       q    Type
                         _______ _______ _______ _____ _____    ______ ____

>  <TORSDO>
F 21

$$$$
=
 OpenBabel11032420003D

 64 71  0  0  1  0  0  0  0  0999 V2000
  189.5560  176.9450  137.0510 C   0  0  0  0  0  0  0  0  0  0  0  0
  188.2920  177.1670  137.5770 F   0  0  0  0  0  0  0  0  0  0  0  0
  190.0570  178.1560  136.6010 F   0  0  0  0  0  0  0  0  0  0  0  0
  189.4700  176.7070  134.6490 O   0  0  0  0  0  1  0  0  0  0  0  0
  189.4690  175.9910  135.8490 C   0  0  2  0  0  3  0  0  0  0  0  0
  188.1280  174.2110  136.8550 N   0  0  0  0  0  2  0  0  0  0  0  0
  186.4480  174.0480  135.3980 C   0  0  0  0  0  0  0  0  0  0  0  0
  188.3060  175.1090  135.8980 N   0  0  0  0  0  0  0  0  0  0  0  0
  186.5140  172.6310  137.2680 O   0  0  0  0  0  0  0  0  0  0  0  0
  187.3200  175.0330  134.9740 C   0  0  0  0  0  3  0  0  0  0  0  0
  186.9930  173.5580  136.5620 C   0  0  0  0  0  0  0  0  0  0  0  0
  185.2320  173.5650  134.6860 C   0  0  0  0  0  2  0  0  0  0  0  0
  184.0700  175.9790  134.5940 C   0  0  0  0  0  1  0  0  0  0  0  0
  183.7930  174.5160  135.2070 S   0  0  2  0  0  3  0  0  0  0  0  0
  184.0510  174.7370  136.8750 O   0  0  0  0  0  0  0  0  0  0  0  0
  183.1260  173.8930  137.4950 C   0  0  0  0  0  2  0  0  0  0  0  0
  181.7430  174.5300  137.4900 C   0  0  1  0  0  3  0  0  0  0  0  0
  180.7030  173.5350  137.9000 C   0  0  0  0  0  3  0  0  0  0  0  0
  179.8690  173.8210  138.7440 O   0  0  0  0  0  0  0  0  0  0  0  0
  181.7280  175.7520  138.4030 C   0  0  0  0  0  2  0  0  0  0  0  0
  182.9180  175.8310  139.1550 O   0  0  0  0  0  0  0  0  0  0  0  0
  184.0570  178.2900  138.9930 P   0  0  2  0  0  0  0  0  0  0  0  0
  183.0010  179.7400  139.1660 C   0  0  2  0  0  3  0  0  0  0  0  0
  184.2950  177.9650  137.5350 O   0  0  0  0  0  0  0  0  0  0  0  0
  182.6880  179.9350  140.5330 O   0  0  0  0  0  0  0  0  0  0  0  0
  181.7320  179.2550  139.7580 C   0  0  2  0  0  0  0  0  0  0  0  0
  182.9880  177.0810  139.8150 C   0  0  1  0  0  3  0  0  0  0  0  0
  181.6370  177.7520  140.0790 C   0  0  0  0  0  2  0  0  0  0  0  0
  185.5210  178.4840  139.8150 O   0  0  0  0  0  1  0  0  0  0  0  0
  180.4880  180.0890  139.4910 C   0  0  1  0  0  3  0  0  0  0  0  0
  179.5980  179.3690  138.6940 O   0  0  0  0  0  1  0  0  0  0  0  0
  179.8100  180.4670  140.7950 C   0  0  0  0  0  1  0  0  0  0  0  0
  190.4970  176.3910  138.1310 C   0  0  1  0  0  3  0  0  0  0  0  0
  191.1850  177.6280  142.2620 C   0  0  0  0  0  0  0  0  0  0  0  0
  189.7660  176.0980  139.3670 N   0  0  0  0  0  2  0  0  0  0  0  0
  190.1420  176.5540  140.6720 C   0  0  0  0  0  0  0  0  0  0  0  0
  190.1420  176.8820  143.0210 C   0  0  2  0  0  3  0  0  0  0  0  0
  191.1320  177.3560  140.8740 N   0  0  0  0  0  0  0  0  0  0  0  0
  189.3900  176.1630  141.9020 C   0  0  0  0  0  2  0  0  0  0  0  0
  192.2330  178.2130  142.8240 C   0  0  0  0  0  2  0  0  0  0  0  0
  189.1830  177.8400  143.7180 C   0  0  0  0  0  2  0  0  0  0  0  0
  185.8320  177.6710  145.1710 O   0  0  0  0  0  0  0  0  0  0  0  0
  186.7310  178.0270  143.0170 C   0  0  1  0  0  3  0  0  0  0  0  0
  186.9920  179.4040  143.0760 O   0  0  0  0  0  1  0  0  0  0  0  0
  187.7630  177.2590  143.8080 C   0  0  2  0  0  3  0  0  0  0  0  0
  184.3510  178.6830  143.5680 C   0  0  0  0  0  1  0  0  0  0  0  0
  187.1510  177.1630  145.2190 C   0  0  1  0  0  3  0  0  0  0  0  0
  185.4840  177.7000  143.8120 C   0  0  2  0  0  3  0  0  0  0  0  0
  189.1460  177.1590  146.5610 O   0  0  0  0  0  1  0  0  0  0  0  0
  187.9620  177.8670  146.3170 C   0  0  2  0  0  3  0  0  0  0  0  0
  187.7980  177.3420  148.6620 O   0  0  0  0  0  1  0  0  0  0  0  0
  187.1740  178.0330  147.6200 C   0  0  1  0  0  3  0  0  0  0  0  0
  187.0540  179.4770  147.9820 C   0  0  0  0  0  3  0  0  0  0  0  0
  186.0550  180.1070  147.6710 O   0  0  0  0  0  0  0  0  0  0  0  0
  191.1750  175.2490  137.6730 O   0  0  0  0  0  0  0  0  0  0  0  0
  193.3680  174.6890  136.6200 C   0  0  0  0  0  0  0  0  0  0  0  0
  193.2840  175.5670  138.4960 C   0  0  2  0  0  3  0  0  0  0  0  0
  195.3610  173.9850  137.8410 N   0  0  0  0  0  0  0  0  0  0  0  0
  192.4580  175.6630  137.2880 C   0  0  2  0  0  0  0  0  0  0  0  0
  195.6860  173.2290  136.7380 C   0  0  0  0  0  3  0  0  0  0  0  0
  193.0550  176.9200  137.8800 C   0  0  0  0  0  2  0  0  0  0  0  0
  194.2210  174.6910  137.7380 C   0  0  0  0  0  0  0  0  0  0  0  0
  193.6580  173.9540  135.4850 C   0  0  0  0  0  3  0  0  0  0  0  0
  194.8570  173.2010  135.5670 C   0  0  0  0  0  3  0  0  0  0  0  0
  1  2  1  0  0  0  0
  1 33  1  0  0  0  0
  3  1  1  0  0  0  0
  5  4  1  6  0  0  0
  5  8  1  0  0  0  0
  5  1  1  0  0  0  0
  7 11  1  0  0  0  0
  8  6  1  0  0  0  0
 10  7  2  0  0  0  0
 10  8  1  0  0  0  0
 11  6  1  0  0  0  0
 11  9  2  0  0  0  0
 12 14  1  0  0  0  0
 12  7  1  0  0  0  0
 14 13  1  6  0  0  0
 14 15  1  0  0  0  0
 15 16  1  0  0  0  0
 17 16  1  1  0  0  0
 17 18  1  0  0  0  0
 17 20  1  0  0  0  0
 18 19  2  0  0  0  0
 20 21  1  0  0  0  0
 22 24  2  6  0  0  0
 22 23  1  0  0  0  0
 22 29  1  0  0  0  0
 22 27  1  0  0  0  0
 23 26  1  0  0  0  0
 23 25  1  1  0  0  0
 26 30  1  6  0  0  0
 26 28  1  0  0  0  0
 26 25  1  0  0  0  0
 27 21  1  6  0  0  0
 27 28  1  0  0  0  0
 30 32  1  1  0  0  0
 31 30  1  0  0  0  0
 33 55  1  6  0  0  0
 33 35  1  0  0  0  0
 34 40  2  0  0  0  0
 34 37  1  0  0  0  0
 35 36  1  0  0  0  0
 36 38  2  0  0  0  0
 36 39  1  0  0  0  0
 37 41  1  6  0  0  0
 38 34  1  0  0  0  0
 39 37  1  0  0  0  0
 42 47  1  0  0  0  0
 43 44  1  1  0  0  0
 43 45  1  0  0  0  0
 43 48  1  0  0  0  0
 45 41  1  1  0  0  0
 45 47  1  0  0  0  0
 47 50  1  1  0  0  0
 48 46  1  1  0  0  0
 48 42  1  0  0  0  0
 50 49  1  1  0  0  0
 50 52  1  0  0  0  0
 52 53  1  0  0  0  0
 52 51  1  1  0  0  0
 54 53  2  0  0  0  0
 56 59  1  0  0  0  0
 56 62  1  0  0  0  0
 57 61  1  6  0  0  0
 59 55  1  1  0  0  0
 59 61  1  0  0  0  0
 59 57  1  0  0  0  0
 60 58  1  0  0  0  0
 62 58  2  0  0  0  0
 62 57  1  0  0  0  0
 63 64  1  0  0  0  0
 63 56  2  0  0  0  0
 64 60  2  0  0  0  0
M  END
>  <MODEL>
9

>  <REMARK>
 VINA RESULT:      -5.1      2.849      8.688
  Name = 
  21 active torsions:
  status: ('A' for Active; 'I' for Inactive)
    1  A    between atoms: C_4  and  C_35
    2  A    between atoms: O_6  and  C_28
    3  A    between atoms: O_6  and  C_30
    4  A    between atoms: C_7  and  C_9
    5  A    between atoms: C_7  and  N_20
    6  A    between atoms: C_9  and  C_28
    7  A    between atoms: C_11  and  C_17
    8  A    between atoms: C_11  and  S_36
    9  A    between atoms: C_13  and  O_16
   10  A    between atoms: C_13  and  C_56
   11  A    between atoms: N_15  and  C_28
   12  A    between atoms: O_16  and  S_36
   13  A    between atoms: C_23  and  C_42
   14  A    between atoms: C_25  and  C_56
   15  A    between atoms: C_27  and  C_34
   16  A    between atoms: C_33  and  C_34
   17  A    between atoms: C_42  and  C_49
   18  A    between atoms: O_43  and  C_44
   19  A    between atoms: O_43  and  C_47
   20  A    between atoms: C_47  and  C_56
   21  A    between atoms: C_48  and  C_49
                            x       y       z     vdW  Elec       q    Type
                         _______ _______ _______ _____ _____    ______ ____

>  <TORSDO>
F 21

$$$$
