=
 OpenBabel11042410563D

 56 59  0  0  1  0  0  0  0  0999 V2000
  186.5800  178.7080  141.0390 C   0  0  0  0  0  3  0  0  0  0  0  0
  186.3870  178.3360  138.6420 C   0  0  0  0  0  0  0  0  0  0  0  0
  185.1910  178.8440  141.1320 C   0  0  0  0  0  3  0  0  0  0  0  0
  184.9980  178.4980  138.7560 C   0  0  0  0  0  3  0  0  0  0  0  0
  183.0250  178.9090  140.0820 O   0  0  0  0  0  1  0  0  0  0  0  0
  184.4030  178.7550  139.9880 C   0  0  0  0  0  0  0  0  0  0  0  0
  187.1910  178.4660  139.8010 C   0  0  0  0  0  0  0  0  0  0  0  0
  186.9850  178.1330  137.3010 C   0  0  0  0  0  0  0  0  0  0  0  0
  187.5620  179.1240  136.7150 N   0  0  0  0  0  2  0  0  0  0  0  0
  186.7640  176.9430  136.5370 N   0  0  0  0  0  2  0  0  0  0  0  0
  187.6340  173.8230  135.9940 C   0  0  2  0  0  3  0  0  0  0  0  0
  187.2400  174.5590  134.7160 C   0  0  0  0  0  2  0  0  0  0  0  0
  186.2110  175.6930  137.0570 C   0  0  2  0  0  3  0  0  0  0  0  0
  187.3460  174.6670  137.2460 C   0  0  0  0  0  2  0  0  0  0  0  0
  185.1510  175.1440  136.0930 C   0  0  2  0  0  3  0  0  0  0  0  0
  185.7410  174.8620  134.7030 C   0  0  0  0  0  2  0  0  0  0  0  0
  183.9880  176.0990  135.9680 C   0  0  0  0  0  1  0  0  0  0  0  0
  188.9830  173.4610  135.9710 O   0  0  0  0  0  0  0  0  0  0  0  0
  189.7000  174.6370  135.7210 C   0  0  0  0  0  2  0  0  0  0  0  0
  190.8860  174.3480  135.0360 O   0  0  0  0  0  0  0  0  0  0  0  0
  191.7570  175.3020  135.4480 N   0  0  0  0  0  2  0  0  0  0  0  0
  192.9760  174.6290  135.8930 C   0  0  1  0  0  3  0  0  0  0  0  0
  193.2320  176.3580  137.4750 O   0  0  0  0  0  0  0  0  0  0  0  0
  193.7820  175.4660  136.8600 C   0  0  0  0  0  0  0  0  0  0  0  0
  195.2340  175.1890  137.1530 C   0  0  1  0  0  3  0  0  0  0  0  0
  195.4590  174.2770  138.3630 C   0  0  0  0  0  2  0  0  0  0  0  0
  196.1710  173.1370  137.9890 O   0  0  0  0  0  1  0  0  0  0  0  0
  195.8710  174.6700  136.0240 O   0  0  0  0  0  0  0  0  0  0  0  0
  198.0090  174.8560  135.2880 O   0  0  0  0  0  1  0  0  0  0  0  0
  196.8990  175.5650  135.7340 C   0  0  0  0  0  2  0  0  0  0  0  0
  192.7580  173.3090  136.3590 O   0  0  0  0  0  0  0  0  0  0  0  0
  193.4320  172.3740  135.5550 C   0  0  0  0  0  3  0  0  0  0  0  0
  194.0560  171.3120  136.4470 C   0  0  0  0  0  2  0  0  0  0  0  0
  192.7960  171.0000  135.6860 C   0  0  0  0  0  2  0  0  0  0  0  0
  188.6190  178.3220  139.7210 N   0  0  0  0  0  2  0  0  0  0  0  0
  189.3700  177.3040  140.4360 C   0  0  1  0  0  3  0  0  0  0  0  0
  191.4440  176.1790  139.9860 O   0  0  0  0  0  0  0  0  0  0  0  0
  190.0580  176.4780  138.1510 N   0  0  0  0  0  1  0  0  0  0  0  0
  190.3590  176.6310  139.5310 C   0  0  0  0  0  0  0  0  0  0  0  0
  190.0370  177.8980  141.6660 C   0  0  0  0  0  2  0  0  0  0  0  0
  189.7150  177.1280  142.8610 N   0  0  0  0  0  2  0  0  0  0  0  0
  190.8240  177.2600  143.7880 C   0  0  2  0  0  3  0  0  0  0  0  0
  192.0890  176.7130  143.1460 C   0  0  0  0  0  1  0  0  0  0  0  0
  189.1110  176.8770  145.4050 C   0  0  0  0  0  2  0  0  0  0  0  0
  190.4860  176.5910  145.0450 N   0  0  0  0  0  0  0  0  0  0  0  0
  189.1030  176.8190  146.9020 C   0  0  1  0  0  3  0  0  0  0  0  0
  190.5750  176.8300  147.2260 C   0  0  0  0  0  2  0  0  0  0  0  0
  191.2740  177.0710  146.0390 O   0  0  0  0  0  0  0  0  0  0  0  0
  188.3620  178.0120  147.5200 C   0  0  2  0  0  3  0  0  0  0  0  0
  188.8010  178.2400  148.8280 O   0  0  0  0  0  1  0  0  0  0  0  0
  186.8610  177.7580  147.5270 C   0  0  0  0  0  2  0  0  0  0  0  0
  185.7790  179.8530  147.6550 O   0  0  0  0  0  0  0  0  0  0  0  0
  186.1060  178.9090  146.9470 C   0  0  0  0  0  0  0  0  0  0  0  0
  185.7760  178.9130  145.4940 C   0  0  0  0  0  2  0  0  0  0  0  0
  184.0510  180.1180  144.3810 O   0  0  0  0  0  1  0  0  0  0  0  0
  184.2870  179.0890  145.2960 C   0  0  0  0  0  2  0  0  0  0  0  0
  1  3  1  0  0  0  0
  2  4  2  0  0  0  0
  2  7  1  0  0  0  0
  4  6  1  0  0  0  0
  6  5  1  0  0  0  0
  6  3  2  0  0  0  0
  7  1  2  0  0  0  0
  8  2  1  0  0  0  0
  9  8  2  0  0  0  0
 10  8  1  0  0  0  0
 11 18  1  6  0  0  0
 11 14  1  0  0  0  0
 12 11  1  0  0  0  0
 13 10  1  6  0  0  0
 13 14  1  0  0  0  0
 15 17  1  6  0  0  0
 15 13  1  0  0  0  0
 16 12  1  0  0  0  0
 16 15  1  0  0  0  0
 19 18  1  0  0  0  0
 20 21  1  0  0  0  0
 20 19  1  0  0  0  0
 22 21  1  1  0  0  0
 22 31  1  0  0  0  0
 22 24  1  0  0  0  0
 24 25  1  0  0  0  0
 24 23  2  0  0  0  0
 25 26  1  1  0  0  0
 27 26  1  0  0  0  0
 28 25  1  0  0  0  0
 29 30  1  0  0  0  0
 30 28  1  0  0  0  0
 32 34  1  0  0  0  0
 32 31  1  0  0  0  0
 32 33  1  0  0  0  0
 34 33  1  0  0  0  0
 35  7  1  0  0  0  0
 35 36  1  0  0  0  0
 36 40  1  1  0  0  0
 38 39  1  0  0  0  0
 39 37  2  0  0  0  0
 39 36  1  0  0  0  0
 40 41  1  0  0  0  0
 41 42  1  0  0  0  0
 42 43  1  6  0  0  0
 42 45  1  0  0  0  0
 44 46  1  0  0  0  0
 45 44  1  0  0  0  0
 45 48  1  0  0  0  0
 46 47  1  0  0  0  0
 46 49  1  1  0  0  0
 48 47  1  0  0  0  0
 49 51  1  0  0  0  0
 49 50  1  1  0  0  0
 53 51  1  0  0  0  0
 53 52  2  0  0  0  0
 54 53  1  0  0  0  0
 55 56  1  0  0  0  0
 56 54  1  0  0  0  0
M  END
>  <MODEL>
1

>  <REMARK>
 VINA RESULT:      -5.7      0.000      0.000
  Name = 
  26 active torsions:
  status: ('A' for Active; 'I' for Inactive)
    1  A    between atoms: C_1  and  C_8
    2  A    between atoms: O_3  and  C_15
    3  A    between atoms: O_3  and  C_44
    4  A    between atoms: N_4  and  C_25
    5  A    between atoms: C_10  and  C_14
    6  A    between atoms: C_10  and  C_42
    7  A    between atoms: C_12  and  C_18
    8  A    between atoms: C_12  and  N_30
    9  A    between atoms: C_12  and  C_33
   10  A    between atoms: N_13  and  C_28
   11  A    between atoms: C_15  and  N_43
   12  A    between atoms: C_15  and  C_56
   13  A    between atoms: C_18  and  N_29
   14  A    between atoms: C_22  and  O_38
   15  A    between atoms: C_23  and  O_37
   16  A    between atoms: C_23  and  O_38
   17  A    between atoms: C_27  and  C_52
   18  A    between atoms: C_28  and  N_29
   19  A    between atoms: N_30  and  C_48
   20  A    between atoms: C_31  and  O_51
   21  A    between atoms: C_34  and  C_35
   22  A    between atoms: C_35  and  C_39
   23  A    between atoms: O_37  and  N_43
   24  A    between atoms: C_39  and  C_42
   25  A    between atoms: O_51  and  C_52
   26  A    between atoms: C_52  and  C_56
                            x       y       z     vdW  Elec       q    Type
                         _______ _______ _______ _____ _____    ______ ____

>  <TORSDO>
F 26

$$$$
=
 OpenBabel11042410563D

 56 59  0  0  1  0  0  0  0  0999 V2000
  182.6040  178.2000  136.1510 C   0  0  0  0  0  3  0  0  0  0  0  0
  181.8780  177.3260  138.3030 C   0  0  0  0  0  0  0  0  0  0  0  0
  181.2800  178.5140  135.8290 C   0  0  0  0  0  3  0  0  0  0  0  0
  180.5550  177.6310  137.9490 C   0  0  0  0  0  3  0  0  0  0  0  0
  178.9380  178.5120  136.3890 O   0  0  0  0  0  1  0  0  0  0  0  0
  180.2550  178.2150  136.7210 C   0  0  0  0  0  0  0  0  0  0  0  0
  182.9160  177.5960  137.3770 C   0  0  0  0  0  0  0  0  0  0  0  0
  182.1440  176.6430  139.5910 C   0  0  0  0  0  0  0  0  0  0  0  0
  182.0210  175.3620  139.6580 N   0  0  0  0  0  2  0  0  0  0  0  0
  182.3250  177.3610  140.8150 N   0  0  0  0  0  2  0  0  0  0  0  0
  183.6050  179.1330  143.2660 C   0  0  2  0  0  3  0  0  0  0  0  0
  182.3510  178.3670  143.6810 C   0  0  0  0  0  2  0  0  0  0  0  0
  182.5740  178.7980  140.9270 C   0  0  2  0  0  3  0  0  0  0  0  0
  183.8530  179.0370  141.7530 C   0  0  0  0  0  2  0  0  0  0  0  0
  181.3750  179.4910  141.5870 C   0  0  2  0  0  3  0  0  0  0  0  0
  181.1110  178.9440  142.9970 C   0  0  0  0  0  2  0  0  0  0  0  0
  180.1330  179.3430  140.7420 C   0  0  0  0  0  1  0  0  0  0  0  0
  184.7280  178.6720  143.9580 O   0  0  0  0  0  0  0  0  0  0  0  0
  185.6420  178.2500  142.9840 C   0  0  0  0  0  2  0  0  0  0  0  0
  186.5290  177.3120  143.5230 O   0  0  0  0  0  0  0  0  0  0  0  0
  187.4420  178.0560  144.1960 N   0  0  0  0  0  2  0  0  0  0  0  0
  188.5780  177.1910  144.5070 C   0  0  1  0  0  3  0  0  0  0  0  0
  190.3130  178.7760  144.3200 O   0  0  0  0  0  0  0  0  0  0  0  0
  189.8770  177.7090  143.9340 C   0  0  0  0  0  0  0  0  0  0  0  0
  190.7010  176.9160  142.9530 C   0  0  1  0  0  3  0  0  0  0  0  0
  191.4630  175.7480  143.5840 C   0  0  0  0  0  2  0  0  0  0  0  0
  191.9110  176.0910  144.8610 O   0  0  0  0  0  1  0  0  0  0  0  0
  189.9060  176.4680  141.8960 O   0  0  0  0  0  0  0  0  0  0  0  0
  189.5790  176.8200  139.6780 O   0  0  0  0  0  1  0  0  0  0  0  0
  190.4020  177.1080  140.7620 C   0  0  0  0  0  2  0  0  0  0  0  0
  188.6780  176.8570  145.8800 O   0  0  0  0  0  0  0  0  0  0  0  0
  188.6390  178.0110  146.6820 C   0  0  0  0  0  3  0  0  0  0  0  0
  187.6390  177.7990  147.8080 C   0  0  0  0  0  2  0  0  0  0  0  0
  189.1140  177.6990  148.0910 C   0  0  0  0  0  2  0  0  0  0  0  0
  184.2820  177.2840  137.6980 N   0  0  0  0  0  2  0  0  0  0  0  0
  185.4200  177.7480  136.9230 C   0  0  1  0  0  3  0  0  0  0  0  0
  187.5530  178.7700  137.3400 O   0  0  0  0  0  0  0  0  0  0  0  0
  186.1460  178.6220  139.1780 N   0  0  0  0  0  1  0  0  0  0  0  0
  186.4430  178.3990  137.8070 C   0  0  0  0  0  0  0  0  0  0  0  0
  186.0130  176.6080  136.1100 C   0  0  0  0  0  2  0  0  0  0  0  0
  186.5830  175.5860  136.9780 N   0  0  0  0  0  2  0  0  0  0  0  0
  186.1710  174.2900  136.4690 C   0  0  2  0  0  3  0  0  0  0  0  0
  185.4120  173.5380  137.5500 C   0  0  0  0  0  1  0  0  0  0  0  0
  188.4500  173.7330  136.9150 C   0  0  0  0  0  2  0  0  0  0  0  0
  187.3480  173.5650  135.9870 N   0  0  0  0  0  0  0  0  0  0  0  0
  189.6720  173.6370  136.0550 C   0  0  1  0  0  3  0  0  0  0  0  0
  189.0940  173.7560  134.6690 C   0  0  0  0  0  2  0  0  0  0  0  0
  187.7390  174.0810  134.7950 O   0  0  0  0  0  0  0  0  0  0  0  0
  190.6810  174.7520  136.3620 C   0  0  2  0  0  3  0  0  0  0  0  0
  191.2410  175.2490  135.1810 O   0  0  0  0  0  1  0  0  0  0  0  0
  191.7880  174.2310  137.2680 C   0  0  0  0  0  2  0  0  0  0  0  0
  192.4320  176.4380  137.8030 O   0  0  0  0  0  0  0  0  0  0  0  0
  192.7940  175.2920  137.5730 C   0  0  0  0  0  0  0  0  0  0  0  0
  194.2410  174.9390  137.6220 C   0  0  0  0  0  2  0  0  0  0  0  0
  195.6020  176.2020  136.1320 O   0  0  0  0  0  1  0  0  0  0  0  0
  194.8470  175.0310  136.2390 C   0  0  0  0  0  2  0  0  0  0  0  0
  1  7  1  0  0  0  0
  2  8  1  0  0  0  0
  3  1  2  0  0  0  0
  3  6  1  0  0  0  0
  4  2  1  0  0  0  0
  5  6  1  0  0  0  0
  6  4  2  0  0  0  0
  7 35  1  0  0  0  0
  7  2  2  0  0  0  0
  8  9  2  0  0  0  0
  8 10  1  0  0  0  0
 11 12  1  0  0  0  0
 11 18  1  1  0  0  0
 13 10  1  1  0  0  0
 13 15  1  0  0  0  0
 13 14  1  0  0  0  0
 14 11  1  0  0  0  0
 15 17  1  6  0  0  0
 15 16  1  0  0  0  0
 16 12  1  0  0  0  0
 19 20  1  0  0  0  0
 19 18  1  0  0  0  0
 20 21  1  0  0  0  0
 21 22  1  0  0  0  0
 22 24  1  1  0  0  0
 22 31  1  0  0  0  0
 24 23  2  0  0  0  0
 25 26  1  1  0  0  0
 25 24  1  0  0  0  0
 26 27  1  0  0  0  0
 28 25  1  0  0  0  0
 29 30  1  0  0  0  0
 30 28  1  0  0  0  0
 31 32  1  0  0  0  0
 32 33  1  0  0  0  0
 32 34  1  0  0  0  0
 33 34  1  0  0  0  0
 36 40  1  1  0  0  0
 36 35  1  0  0  0  0
 36 39  1  0  0  0  0
 37 39  2  0  0  0  0
 39 38  1  0  0  0  0
 40 41  1  0  0  0  0
 42 41  1  0  0  0  0
 42 43  1  1  0  0  0
 45 42  1  0  0  0  0
 45 44  1  0  0  0  0
 46 49  1  1  0  0  0
 46 44  1  0  0  0  0
 47 48  1  0  0  0  0
 47 46  1  0  0  0  0
 48 45  1  0  0  0  0
 49 50  1  6  0  0  0
 49 51  1  0  0  0  0
 51 53  1  0  0  0  0
 53 54  1  0  0  0  0
 53 52  2  0  0  0  0
 55 56  1  0  0  0  0
 56 54  1  0  0  0  0
M  END
>  <MODEL>
2

>  <REMARK>
 VINA RESULT:      -5.6      2.686      9.444
  Name = 
  26 active torsions:
  status: ('A' for Active; 'I' for Inactive)
    1  A    between atoms: C_1  and  C_8
    2  A    between atoms: O_3  and  C_15
    3  A    between atoms: O_3  and  C_44
    4  A    between atoms: N_4  and  C_25
    5  A    between atoms: C_10  and  C_14
    6  A    between atoms: C_10  and  C_42
    7  A    between atoms: C_12  and  C_18
    8  A    between atoms: C_12  and  N_30
    9  A    between atoms: C_12  and  C_33
   10  A    between atoms: N_13  and  C_28
   11  A    between atoms: C_15  and  N_43
   12  A    between atoms: C_15  and  C_56
   13  A    between atoms: C_18  and  N_29
   14  A    between atoms: C_22  and  O_38
   15  A    between atoms: C_23  and  O_37
   16  A    between atoms: C_23  and  O_38
   17  A    between atoms: C_27  and  C_52
   18  A    between atoms: C_28  and  N_29
   19  A    between atoms: N_30  and  C_48
   20  A    between atoms: C_31  and  O_51
   21  A    between atoms: C_34  and  C_35
   22  A    between atoms: C_35  and  C_39
   23  A    between atoms: O_37  and  N_43
   24  A    between atoms: C_39  and  C_42
   25  A    between atoms: O_51  and  C_52
   26  A    between atoms: C_52  and  C_56
                            x       y       z     vdW  Elec       q    Type
                         _______ _______ _______ _____ _____    ______ ____

>  <TORSDO>
F 26

$$$$
=
 OpenBabel11042410563D

 56 59  0  0  1  0  0  0  0  0999 V2000
  182.5790  177.9360  136.0120 C   0  0  0  0  0  3  0  0  0  0  0  0
  181.5190  177.2500  138.0920 C   0  0  0  0  0  0  0  0  0  0  0  0
  181.3350  178.3180  135.5010 C   0  0  0  0  0  3  0  0  0  0  0  0
  180.2790  177.6200  137.5510 C   0  0  0  0  0  3  0  0  0  0  0  0
  178.9470  178.5100  135.7460 O   0  0  0  0  0  1  0  0  0  0  0  0
  180.1840  178.1450  136.2640 C   0  0  0  0  0  0  0  0  0  0  0  0
  182.6840  177.3910  137.2990 C   0  0  0  0  0  0  0  0  0  0  0  0
  181.5660  176.6310  139.4380 C   0  0  0  0  0  0  0  0  0  0  0  0
  181.2400  175.3920  139.5700 N   0  0  0  0  0  2  0  0  0  0  0  0
  181.7510  177.4040  140.6290 N   0  0  0  0  0  2  0  0  0  0  0  0
  183.6360  178.9660  142.8170 C   0  0  2  0  0  3  0  0  0  0  0  0
  182.3710  178.3790  143.4380 C   0  0  0  0  0  2  0  0  0  0  0  0
  182.2090  178.7910  140.6770 C   0  0  2  0  0  3  0  0  0  0  0  0
  183.6240  178.8470  141.2860 C   0  0  0  0  0  2  0  0  0  0  0  0
  181.2370  179.6390  141.5080 C   0  0  2  0  0  3  0  0  0  0  0  0
  181.1290  179.1240  142.9510 C   0  0  0  0  0  2  0  0  0  0  0  0
  179.8670  179.6700  140.8730 C   0  0  0  0  0  1  0  0  0  0  0  0
  184.7810  178.3510  143.3290 O   0  0  0  0  0  0  0  0  0  0  0  0
  184.8600  178.7270  144.6750 C   0  0  0  0  0  2  0  0  0  0  0  0
  186.1260  178.4290  145.1910 O   0  0  0  0  0  0  0  0  0  0  0  0
  186.5820  177.4200  144.4070 N   0  0  0  0  0  2  0  0  0  0  0  0
  187.9210  177.0650  144.8740 C   0  0  1  0  0  3  0  0  0  0  0  0
  189.2400  175.8260  143.3620 O   0  0  0  0  0  0  0  0  0  0  0  0
  188.9150  176.9340  143.7430 C   0  0  0  0  0  0  0  0  0  0  0  0
  189.4680  178.1290  143.0100 C   0  0  1  0  0  3  0  0  0  0  0  0
  190.8730  178.5360  143.4600 C   0  0  0  0  0  2  0  0  0  0  0  0
  191.4450  177.5310  144.2410 O   0  0  0  0  0  1  0  0  0  0  0  0
  189.4370  177.9140  141.6310 O   0  0  0  0  0  0  0  0  0  0  0  0
  188.1710  178.9740  140.0740 O   0  0  0  0  0  1  0  0  0  0  0  0
  188.1340  178.2130  141.2380 C   0  0  0  0  0  2  0  0  0  0  0  0
  188.3920  177.8880  145.9270 O   0  0  0  0  0  0  0  0  0  0  0  0
  188.4520  177.1730  147.1350 C   0  0  0  0  0  3  0  0  0  0  0  0
  189.3500  177.9210  148.1090 C   0  0  0  0  0  2  0  0  0  0  0  0
  187.8550  177.9900  148.2680 C   0  0  0  0  0  2  0  0  0  0  0  0
  183.9710  177.0070  137.8140 N   0  0  0  0  0  2  0  0  0  0  0  0
  184.6580  175.7830  137.4410 C   0  0  1  0  0  3  0  0  0  0  0  0
  183.2650  173.8290  137.5410 O   0  0  0  0  0  0  0  0  0  0  0  0
  183.2640  174.9450  135.5090 N   0  0  0  0  0  1  0  0  0  0  0  0
  183.7020  174.7890  136.8510 C   0  0  0  0  0  0  0  0  0  0  0  0
  185.8150  176.0860  136.5020 C   0  0  0  0  0  2  0  0  0  0  0  0
  186.8750  175.0960  136.6400 N   0  0  0  0  0  2  0  0  0  0  0  0
  188.0690  175.6310  136.0090 C   0  0  2  0  0  3  0  0  0  0  0  0
  188.8930  174.4900  135.4340 C   0  0  0  0  0  1  0  0  0  0  0  0
  190.1230  176.7600  136.4590 C   0  0  0  0  0  2  0  0  0  0  0  0
  188.8080  176.4390  136.9800 N   0  0  0  0  0  0  0  0  0  0  0  0
  190.9800  176.8870  137.6810 C   0  0  1  0  0  3  0  0  0  0  0  0
  190.1020  176.2870  138.7480 C   0  0  0  0  0  2  0  0  0  0  0  0
  188.9870  175.7240  138.1190 O   0  0  0  0  0  0  0  0  0  0  0  0
  192.3100  176.1360  137.5310 C   0  0  2  0  0  3  0  0  0  0  0  0
  193.3040  176.7330  138.3140 O   0  0  0  0  0  1  0  0  0  0  0  0
  192.7520  176.1250  136.0740 C   0  0  0  0  0  2  0  0  0  0  0  0
  194.9690  176.8370  135.6890 O   0  0  0  0  0  0  0  0  0  0  0  0
  194.2240  175.9020  135.9470 C   0  0  0  0  0  0  0  0  0  0  0  0
  194.7800  174.5370  136.1650 C   0  0  0  0  0  2  0  0  0  0  0  0
  195.5580  172.7860  134.7520 O   0  0  0  0  0  1  0  0  0  0  0  0
  195.6840  174.1520  135.0150 C   0  0  0  0  0  2  0  0  0  0  0  0
  1  7  1  0  0  0  0
  2  8  1  0  0  0  0
  3  1  2  0  0  0  0
  3  6  1  0  0  0  0
  4  2  1  0  0  0  0
  5  6  1  0  0  0  0
  6  4  2  0  0  0  0
  7 35  1  0  0  0  0
  7  2  2  0  0  0  0
  8  9  2  0  0  0  0
  8 10  1  0  0  0  0
 11 18  1  1  0  0  0
 11 12  1  0  0  0  0
 13 10  1  1  0  0  0
 13 14  1  0  0  0  0
 13 15  1  0  0  0  0
 14 11  1  0  0  0  0
 15 17  1  6  0  0  0
 15 16  1  0  0  0  0
 16 12  1  0  0  0  0
 18 19  1  0  0  0  0
 19 20  1  0  0  0  0
 21 22  1  0  0  0  0
 21 20  1  0  0  0  0
 22 24  1  6  0  0  0
 22 31  1  0  0  0  0
 23 24  2  0  0  0  0
 25 26  1  1  0  0  0
 25 24  1  0  0  0  0
 26 27  1  0  0  0  0
 28 25  1  0  0  0  0
 29 30  1  0  0  0  0
 30 28  1  0  0  0  0
 31 32  1  0  0  0  0
 32 33  1  0  0  0  0
 32 34  1  0  0  0  0
 33 34  1  0  0  0  0
 36 40  1  6  0  0  0
 36 35  1  0  0  0  0
 38 39  1  0  0  0  0
 39 36  1  0  0  0  0
 39 37  2  0  0  0  0
 40 41  1  0  0  0  0
 42 43  1  1  0  0  0
 42 41  1  0  0  0  0
 42 45  1  0  0  0  0
 44 45  1  0  0  0  0
 44 46  1  0  0  0  0
 45 48  1  0  0  0  0
 46 49  1  6  0  0  0
 46 47  1  0  0  0  0
 48 47  1  0  0  0  0
 49 50  1  1  0  0  0
 51 49  1  0  0  0  0
 52 53  2  0  0  0  0
 53 51  1  0  0  0  0
 53 54  1  0  0  0  0
 55 56  1  0  0  0  0
 56 54  1  0  0  0  0
M  END
>  <MODEL>
3

>  <REMARK>
 VINA RESULT:      -5.5      2.949      9.776
  Name = 
  26 active torsions:
  status: ('A' for Active; 'I' for Inactive)
    1  A    between atoms: C_1  and  C_8
    2  A    between atoms: O_3  and  C_15
    3  A    between atoms: O_3  and  C_44
    4  A    between atoms: N_4  and  C_25
    5  A    between atoms: C_10  and  C_14
    6  A    between atoms: C_10  and  C_42
    7  A    between atoms: C_12  and  C_18
    8  A    between atoms: C_12  and  N_30
    9  A    between atoms: C_12  and  C_33
   10  A    between atoms: N_13  and  C_28
   11  A    between atoms: C_15  and  N_43
   12  A    between atoms: C_15  and  C_56
   13  A    between atoms: C_18  and  N_29
   14  A    between atoms: C_22  and  O_38
   15  A    between atoms: C_23  and  O_37
   16  A    between atoms: C_23  and  O_38
   17  A    between atoms: C_27  and  C_52
   18  A    between atoms: C_28  and  N_29
   19  A    between atoms: N_30  and  C_48
   20  A    between atoms: C_31  and  O_51
   21  A    between atoms: C_34  and  C_35
   22  A    between atoms: C_35  and  C_39
   23  A    between atoms: O_37  and  N_43
   24  A    between atoms: C_39  and  C_42
   25  A    between atoms: O_51  and  C_52
   26  A    between atoms: C_52  and  C_56
                            x       y       z     vdW  Elec       q    Type
                         _______ _______ _______ _____ _____    ______ ____

>  <TORSDO>
F 26

$$$$
=
 OpenBabel11042410563D

 56 59  0  0  1  0  0  0  0  0999 V2000
  186.2990  178.4810  142.3360 C   0  0  0  0  0  3  0  0  0  0  0  0
  184.3070  178.8990  141.0020 C   0  0  0  0  0  0  0  0  0  0  0  0
  185.5040  178.3200  143.4760 C   0  0  0  0  0  3  0  0  0  0  0  0
  183.5320  178.7540  142.1630 C   0  0  0  0  0  3  0  0  0  0  0  0
  183.3400  178.3300  144.5310 O   0  0  0  0  0  1  0  0  0  0  0  0
  184.1230  178.4730  143.3920 C   0  0  0  0  0  0  0  0  0  0  0  0
  185.7150  178.7810  141.0980 C   0  0  0  0  0  0  0  0  0  0  0  0
  183.6420  179.2660  139.7300 C   0  0  0  0  0  0  0  0  0  0  0  0
  184.0150  180.3340  139.1140 N   0  0  0  0  0  2  0  0  0  0  0  0
  182.4620  178.6050  139.2640 N   0  0  0  0  0  2  0  0  0  0  0  0
  180.9890  176.1090  137.7190 C   0  0  2  0  0  3  0  0  0  0  0  0
  180.2400  177.4290  137.5600 C   0  0  0  0  0  2  0  0  0  0  0  0
  181.9420  177.3370  139.7760 C   0  0  2  0  0  3  0  0  0  0  0  0
  182.1470  176.2320  138.7220 C   0  0  0  0  0  2  0  0  0  0  0  0
  180.4530  177.4780  140.1190 C   0  0  2  0  0  3  0  0  0  0  0  0
  179.6230  177.8690  138.8880 C   0  0  0  0  0  2  0  0  0  0  0  0
  180.2450  178.4930  141.2170 C   0  0  0  0  0  1  0  0  0  0  0  0
  181.4750  175.6530  136.4920 O   0  0  0  0  0  0  0  0  0  0  0  0
  181.7150  174.2830  136.6490 C   0  0  0  0  0  2  0  0  0  0  0  0
  182.8680  173.9070  135.9510 O   0  0  0  0  0  0  0  0  0  0  0  0
  183.6300  173.2680  136.8730 N   0  0  0  0  0  2  0  0  0  0  0  0
  184.6960  172.5680  136.1600 C   0  0  1  0  0  3  0  0  0  0  0  0
  186.1250  172.7740  138.0250 O   0  0  0  0  0  0  0  0  0  0  0  0
  186.0480  172.7510  136.8120 C   0  0  0  0  0  0  0  0  0  0  0  0
  187.3250  172.8290  136.0150 C   0  0  1  0  0  3  0  0  0  0  0  0
  187.5120  171.6740  135.0290 C   0  0  0  0  0  2  0  0  0  0  0  0
  187.6520  170.4650  135.7130 O   0  0  0  0  0  1  0  0  0  0  0  0
  187.4150  174.0560  135.3550 O   0  0  0  0  0  0  0  0  0  0  0  0
  188.6110  175.9240  135.8380 O   0  0  0  0  0  1  0  0  0  0  0  0
  188.6850  174.5460  135.6560 C   0  0  0  0  0  2  0  0  0  0  0  0
  184.3990  171.2100  135.8860 O   0  0  0  0  0  0  0  0  0  0  0  0
  183.3440  171.1040  134.9630 C   0  0  0  0  0  3  0  0  0  0  0  0
  183.0530  169.6320  134.7110 C   0  0  0  0  0  2  0  0  0  0  0  0
  182.1410  170.4320  135.6020 C   0  0  0  0  0  2  0  0  0  0  0  0
  186.5430  178.9380  139.9330 N   0  0  0  0  0  2  0  0  0  0  0  0
  187.0660  177.8260  139.1590 C   0  0  1  0  0  3  0  0  0  0  0  0
  186.6300  178.4770  136.8880 O   0  0  0  0  0  0  0  0  0  0  0  0
  185.3760  176.6880  137.6670 N   0  0  0  0  0  1  0  0  0  0  0  0
  186.3540  177.7040  137.8440 C   0  0  0  0  0  0  0  0  0  0  0  0
  188.5710  177.9610  138.9800 C   0  0  0  0  0  2  0  0  0  0  0  0
  189.2820  177.5190  140.1720 N   0  0  0  0  0  2  0  0  0  0  0  0
  190.7050  177.5660  139.8850 C   0  0  2  0  0  3  0  0  0  0  0  0
  191.1490  176.2340  139.3040 C   0  0  0  0  0  1  0  0  0  0  0  0
  191.8070  176.7370  141.8330 C   0  0  0  0  0  2  0  0  0  0  0  0
  191.4320  177.9310  141.1010 N   0  0  0  0  0  0  0  0  0  0  0  0
  191.8350  177.1760  143.2640 C   0  0  1  0  0  3  0  0  0  0  0  0
  191.1380  178.5110  143.1990 C   0  0  0  0  0  2  0  0  0  0  0  0
  190.6230  178.6630  141.9080 O   0  0  0  0  0  0  0  0  0  0  0  0
  191.1090  176.1850  144.1840 C   0  0  2  0  0  3  0  0  0  0  0  0
  190.6770  175.0680  143.4620 O   0  0  0  0  0  1  0  0  0  0  0  0
  189.9130  176.8540  144.8470 C   0  0  0  0  0  2  0  0  0  0  0  0
  191.1930  177.0730  146.8180 O   0  0  0  0  0  0  0  0  0  0  0  0
  190.0790  176.9360  146.3290 C   0  0  0  0  0  0  0  0  0  0  0  0
  188.8770  176.8760  147.2070 C   0  0  0  0  0  2  0  0  0  0  0  0
  187.7520  178.5880  148.4200 O   0  0  0  0  0  1  0  0  0  0  0  0
  188.9730  177.9210  148.2970 C   0  0  0  0  0  2  0  0  0  0  0  0
  1  3  1  0  0  0  0
  2  7  1  0  0  0  0
  2  4  2  0  0  0  0
  4  6  1  0  0  0  0
  6  3  2  0  0  0  0
  6  5  1  0  0  0  0
  7  1  2  0  0  0  0
  8  2  1  0  0  0  0
  9  8  2  0  0  0  0
 10  8  1  0  0  0  0
 11 18  1  6  0  0  0
 11 14  1  0  0  0  0
 12 11  1  0  0  0  0
 12 16  1  0  0  0  0
 13 10  1  6  0  0  0
 13 15  1  0  0  0  0
 14 13  1  0  0  0  0
 15 17  1  1  0  0  0
 16 15  1  0  0  0  0
 18 19  1  0  0  0  0
 20 19  1  0  0  0  0
 20 21  1  0  0  0  0
 22 31  1  1  0  0  0
 22 24  1  0  0  0  0
 22 21  1  0  0  0  0
 24 23  2  0  0  0  0
 25 26  1  6  0  0  0
 25 24  1  0  0  0  0
 26 27  1  0  0  0  0
 28 30  1  0  0  0  0
 28 25  1  0  0  0  0
 30 29  1  0  0  0  0
 32 34  1  0  0  0  0
 32 31  1  0  0  0  0
 33 32  1  0  0  0  0
 33 34  1  0  0  0  0
 35  7  1  0  0  0  0
 36 40  1  6  0  0  0
 36 35  1  0  0  0  0
 37 39  2  0  0  0  0
 38 39  1  0  0  0  0
 39 36  1  0  0  0  0
 40 41  1  0  0  0  0
 42 43  1  1  0  0  0
 42 41  1  0  0  0  0
 42 45  1  0  0  0  0
 44 46  1  0  0  0  0
 45 44  1  0  0  0  0
 45 48  1  0  0  0  0
 46 49  1  1  0  0  0
 47 46  1  0  0  0  0
 48 47  1  0  0  0  0
 49 50  1  6  0  0  0
 49 51  1  0  0  0  0
 51 53  1  0  0  0  0
 53 52  2  0  0  0  0
 53 54  1  0  0  0  0
 54 56  1  0  0  0  0
 56 55  1  0  0  0  0
M  END
>  <MODEL>
4

>  <REMARK>
 VINA RESULT:      -5.3      3.515      6.380
  Name = 
  26 active torsions:
  status: ('A' for Active; 'I' for Inactive)
    1  A    between atoms: C_1  and  C_8
    2  A    between atoms: O_3  and  C_15
    3  A    between atoms: O_3  and  C_44
    4  A    between atoms: N_4  and  C_25
    5  A    between atoms: C_10  and  C_14
    6  A    between atoms: C_10  and  C_42
    7  A    between atoms: C_12  and  C_18
    8  A    between atoms: C_12  and  N_30
    9  A    between atoms: C_12  and  C_33
   10  A    between atoms: N_13  and  C_28
   11  A    between atoms: C_15  and  N_43
   12  A    between atoms: C_15  and  C_56
   13  A    between atoms: C_18  and  N_29
   14  A    between atoms: C_22  and  O_38
   15  A    between atoms: C_23  and  O_37
   16  A    between atoms: C_23  and  O_38
   17  A    between atoms: C_27  and  C_52
   18  A    between atoms: C_28  and  N_29
   19  A    between atoms: N_30  and  C_48
   20  A    between atoms: C_31  and  O_51
   21  A    between atoms: C_34  and  C_35
   22  A    between atoms: C_35  and  C_39
   23  A    between atoms: O_37  and  N_43
   24  A    between atoms: C_39  and  C_42
   25  A    between atoms: O_51  and  C_52
   26  A    between atoms: C_52  and  C_56
                            x       y       z     vdW  Elec       q    Type
                         _______ _______ _______ _____ _____    ______ ____

>  <TORSDO>
F 26

$$$$
=
 OpenBabel11042410563D

 56 59  0  0  1  0  0  0  0  0999 V2000
  182.5480  179.1220  137.0560 C   0  0  0  0  0  3  0  0  0  0  0  0
  182.1960  177.8800  139.1190 C   0  0  0  0  0  0  0  0  0  0  0  0
  181.1690  179.3200  136.9380 C   0  0  0  0  0  3  0  0  0  0  0  0
  180.8150  178.0740  138.9680 C   0  0  0  0  0  3  0  0  0  0  0  0
  178.9310  178.9670  137.7530 O   0  0  0  0  0  1  0  0  0  0  0  0
  180.3020  178.7820  137.8840 C   0  0  0  0  0  0  0  0  0  0  0  0
  183.0740  178.3950  138.1340 C   0  0  0  0  0  0  0  0  0  0  0  0
  182.6930  177.0610  140.2500 C   0  0  0  0  0  0  0  0  0  0  0  0
  182.6610  175.7770  140.1550 N   0  0  0  0  0  2  0  0  0  0  0  0
  183.0090  177.6280  141.5250 N   0  0  0  0  0  2  0  0  0  0  0  0
  184.7270  179.1700  143.8610 C   0  0  2  0  0  3  0  0  0  0  0  0
  183.6650  178.2320  144.4280 C   0  0  0  0  0  2  0  0  0  0  0  0
  183.1820  179.0540  141.7990 C   0  0  2  0  0  3  0  0  0  0  0  0
  184.6050  179.3070  142.3350 C   0  0  0  0  0  2  0  0  0  0  0  0
  182.1370  179.5250  142.8180 C   0  0  2  0  0  3  0  0  0  0  0  0
  182.2600  178.7670  144.1480 C   0  0  0  0  0  2  0  0  0  0  0  0
  180.7390  179.3690  142.2700 C   0  0  0  0  0  1  0  0  0  0  0  0
  186.0120  178.7370  144.1940 O   0  0  0  0  0  0  0  0  0  0  0  0
  186.3800  177.8100  143.2110 C   0  0  0  0  0  2  0  0  0  0  0  0
  187.3300  176.9150  143.7170 O   0  0  0  0  0  0  0  0  0  0  0  0
  188.1010  177.6680  144.5400 N   0  0  0  0  0  2  0  0  0  0  0  0
  189.0620  176.7770  145.1870 C   0  0  1  0  0  3  0  0  0  0  0  0
  191.3850  176.3780  145.2200 O   0  0  0  0  0  0  0  0  0  0  0  0
  190.4760  176.9960  144.7000 C   0  0  0  0  0  0  0  0  0  0  0  0
  190.8000  177.8970  143.5370 C   0  0  1  0  0  3  0  0  0  0  0  0
  190.9700  179.3690  143.9220 C   0  0  0  0  0  2  0  0  0  0  0  0
  192.2690  179.6070  144.3740 O   0  0  0  0  0  1  0  0  0  0  0  0
  191.9300  177.4330  142.8590 O   0  0  0  0  0  0  0  0  0  0  0  0
  190.2500  177.1940  141.3520 O   0  0  0  0  0  1  0  0  0  0  0  0
  191.6000  177.4920  141.5060 C   0  0  0  0  0  2  0  0  0  0  0  0
  188.9630  176.7680  146.6010 O   0  0  0  0  0  0  0  0  0  0  0  0
  188.8480  178.0740  147.1060 C   0  0  0  0  0  3  0  0  0  0  0  0
  187.6220  178.1530  148.0020 C   0  0  0  0  0  2  0  0  0  0  0  0
  188.9930  178.0760  148.6180 C   0  0  0  0  0  2  0  0  0  0  0  0
  184.4940  178.2040  138.2470 N   0  0  0  0  0  2  0  0  0  0  0  0
  185.3990  178.1790  137.1100 C   0  0  1  0  0  3  0  0  0  0  0  0
  187.2320  177.4680  138.4890 O   0  0  0  0  0  0  0  0  0  0  0  0
  187.7450  179.0910  136.9150 N   0  0  0  0  0  1  0  0  0  0  0  0
  186.8290  178.2180  137.5600 C   0  0  0  0  0  0  0  0  0  0  0  0
  185.1130  176.9730  136.2270 C   0  0  0  0  0  2  0  0  0  0  0  0
  185.3160  175.7290  136.9570 N   0  0  0  0  0  2  0  0  0  0  0  0
  184.5400  174.6940  136.2970 C   0  0  2  0  0  3  0  0  0  0  0  0
  183.2390  174.4760  137.0530 C   0  0  0  0  0  1  0  0  0  0  0  0
  186.6320  173.6780  136.8330 C   0  0  0  0  0  2  0  0  0  0  0  0
  185.3490  173.4790  136.1890 N   0  0  0  0  0  0  0  0  0  0  0  0
  187.5660  172.7840  136.0760 C   0  0  1  0  0  3  0  0  0  0  0  0
  186.7480  172.4290  134.8610 C   0  0  0  0  0  2  0  0  0  0  0  0
  185.5890  173.2120  134.8810 O   0  0  0  0  0  0  0  0  0  0  0  0
  188.8740  173.4980  135.7080 C   0  0  2  0  0  3  0  0  0  0  0  0
  189.6960  172.6600  134.9480 O   0  0  0  0  0  1  0  0  0  0  0  0
  189.6150  173.9290  136.9660 C   0  0  0  0  0  2  0  0  0  0  0  0
  189.4280  176.1100  136.0830 O   0  0  0  0  0  0  0  0  0  0  0  0
  189.8080  175.4100  137.0110 C   0  0  0  0  0  0  0  0  0  0  0  0
  190.4430  176.0300  138.2080 C   0  0  0  0  0  2  0  0  0  0  0  0
  192.3220  175.4820  136.8530 O   0  0  0  0  0  1  0  0  0  0  0  0
  191.9260  176.2140  137.9750 C   0  0  0  0  0  2  0  0  0  0  0  0
  1  7  1  0  0  0  0
  2  8  1  0  0  0  0
  3  1  2  0  0  0  0
  3  6  1  0  0  0  0
  4  2  1  0  0  0  0
  5  6  1  0  0  0  0
  6  4  2  0  0  0  0
  7 35  1  0  0  0  0
  7  2  2  0  0  0  0
  8 10  1  0  0  0  0
  9  8  2  0  0  0  0
 11 18  1  6  0  0  0
 11 12  1  0  0  0  0
 13 10  1  1  0  0  0
 13 14  1  0  0  0  0
 13 15  1  0  0  0  0
 14 11  1  0  0  0  0
 15 17  1  6  0  0  0
 15 16  1  0  0  0  0
 16 12  1  0  0  0  0
 19 20  1  0  0  0  0
 19 18  1  0  0  0  0
 20 21  1  0  0  0  0
 22 21  1  6  0  0  0
 22 31  1  0  0  0  0
 24 22  1  0  0  0  0
 24 23  2  0  0  0  0
 25 26  1  1  0  0  0
 25 24  1  0  0  0  0
 26 27  1  0  0  0  0
 28 25  1  0  0  0  0
 29 30  1  0  0  0  0
 30 28  1  0  0  0  0
 31 32  1  0  0  0  0
 32 33  1  0  0  0  0
 32 34  1  0  0  0  0
 33 34  1  0  0  0  0
 36 40  1  1  0  0  0
 36 39  1  0  0  0  0
 36 35  1  0  0  0  0
 38 39  1  0  0  0  0
 39 37  2  0  0  0  0
 40 41  1  0  0  0  0
 42 41  1  0  0  0  0
 42 43  1  1  0  0  0
 45 42  1  0  0  0  0
 45 44  1  0  0  0  0
 46 49  1  6  0  0  0
 46 44  1  0  0  0  0
 47 48  1  0  0  0  0
 47 46  1  0  0  0  0
 48 45  1  0  0  0  0
 49 50  1  1  0  0  0
 49 51  1  0  0  0  0
 51 53  1  0  0  0  0
 52 53  2  0  0  0  0
 53 54  1  0  0  0  0
 55 56  1  0  0  0  0
 56 54  1  0  0  0  0
M  END
>  <MODEL>
5

>  <REMARK>
 VINA RESULT:      -5.2      2.748      9.458
  Name = 
  26 active torsions:
  status: ('A' for Active; 'I' for Inactive)
    1  A    between atoms: C_1  and  C_8
    2  A    between atoms: O_3  and  C_15
    3  A    between atoms: O_3  and  C_44
    4  A    between atoms: N_4  and  C_25
    5  A    between atoms: C_10  and  C_14
    6  A    between atoms: C_10  and  C_42
    7  A    between atoms: C_12  and  C_18
    8  A    between atoms: C_12  and  N_30
    9  A    between atoms: C_12  and  C_33
   10  A    between atoms: N_13  and  C_28
   11  A    between atoms: C_15  and  N_43
   12  A    between atoms: C_15  and  C_56
   13  A    between atoms: C_18  and  N_29
   14  A    between atoms: C_22  and  O_38
   15  A    between atoms: C_23  and  O_37
   16  A    between atoms: C_23  and  O_38
   17  A    between atoms: C_27  and  C_52
   18  A    between atoms: C_28  and  N_29
   19  A    between atoms: N_30  and  C_48
   20  A    between atoms: C_31  and  O_51
   21  A    between atoms: C_34  and  C_35
   22  A    between atoms: C_35  and  C_39
   23  A    between atoms: O_37  and  N_43
   24  A    between atoms: C_39  and  C_42
   25  A    between atoms: O_51  and  C_52
   26  A    between atoms: C_52  and  C_56
                            x       y       z     vdW  Elec       q    Type
                         _______ _______ _______ _____ _____    ______ ____

>  <TORSDO>
F 26

$$$$
=
 OpenBabel11042410563D

 56 59  0  0  1  0  0  0  0  0999 V2000
  182.6950  177.4510  135.6350 C   0  0  0  0  0  3  0  0  0  0  0  0
  181.5070  177.0850  137.7260 C   0  0  0  0  0  0  0  0  0  0  0  0
  181.5360  177.9920  135.0690 C   0  0  0  0  0  3  0  0  0  0  0  0
  180.3510  177.6120  137.1300 C   0  0  0  0  0  3  0  0  0  0  0  0
  179.2070  178.5780  135.2380 O   0  0  0  0  0  1  0  0  0  0  0  0
  180.3610  178.0570  135.8110 C   0  0  0  0  0  0  0  0  0  0  0  0
  182.6910  176.9840  136.9560 C   0  0  0  0  0  0  0  0  0  0  0  0
  181.4330  176.5600  139.1100 C   0  0  0  0  0  0  0  0  0  0  0  0
  181.1930  175.3080  139.2930 N   0  0  0  0  0  2  0  0  0  0  0  0
  181.4040  177.4190  140.2540 N   0  0  0  0  0  2  0  0  0  0  0  0
  183.5590  179.1140  142.0620 C   0  0  2  0  0  3  0  0  0  0  0  0
  182.5060  178.4040  142.9080 C   0  0  0  0  0  2  0  0  0  0  0  0
  181.7410  178.8420  140.2550 C   0  0  2  0  0  3  0  0  0  0  0  0
  183.2410  179.0170  140.5620 C   0  0  0  0  0  2  0  0  0  0  0  0
  180.8920  179.5840  141.2950 C   0  0  2  0  0  3  0  0  0  0  0  0
  181.1300  179.0400  142.7120 C   0  0  0  0  0  2  0  0  0  0  0  0
  179.4240  179.4990  140.9560 C   0  0  0  0  0  1  0  0  0  0  0  0
  184.8340  178.5990  142.3070 O   0  0  0  0  0  0  0  0  0  0  0  0
  184.8560  178.2320  143.6580 C   0  0  0  0  0  2  0  0  0  0  0  0
  186.1750  178.0670  144.0960 O   0  0  0  0  0  0  0  0  0  0  0  0
  186.8020  177.4540  143.0620 N   0  0  0  0  0  2  0  0  0  0  0  0
  188.1760  177.9490  143.0180 C   0  0  1  0  0  3  0  0  0  0  0  0
  189.0430  175.7610  143.1610 O   0  0  0  0  0  0  0  0  0  0  0  0
  189.1790  176.9230  143.4930 C   0  0  0  0  0  0  0  0  0  0  0  0
  190.3920  177.2950  144.3060 C   0  0  1  0  0  3  0  0  0  0  0  0
  191.4840  178.0040  143.5000 C   0  0  0  0  0  2  0  0  0  0  0  0
  192.0250  177.1400  142.5460 O   0  0  0  0  0  1  0  0  0  0  0  0
  190.0240  178.0620  145.4130 O   0  0  0  0  0  0  0  0  0  0  0  0
  188.5390  177.1990  146.8970 O   0  0  0  0  0  1  0  0  0  0  0  0
  189.8580  177.1520  146.4550 C   0  0  0  0  0  2  0  0  0  0  0  0
  188.5310  178.5300  141.7760 O   0  0  0  0  0  0  0  0  0  0  0  0
  188.6460  177.5480  140.7770 C   0  0  0  0  0  3  0  0  0  0  0  0
  188.1640  178.1260  139.4550 C   0  0  0  0  0  2  0  0  0  0  0  0
  189.6400  177.9820  139.7130 C   0  0  0  0  0  2  0  0  0  0  0  0
  183.8910  176.4370  137.5280 N   0  0  0  0  0  2  0  0  0  0  0  0
  184.5020  175.1950  137.0860 C   0  0  1  0  0  3  0  0  0  0  0  0
  183.3210  174.2850  135.2030 O   0  0  0  0  0  0  0  0  0  0  0  0
  182.7200  173.4150  137.2670 N   0  0  0  0  0  1  0  0  0  0  0  0
  183.4860  174.2920  136.4530 C   0  0  0  0  0  0  0  0  0  0  0  0
  185.6720  175.4760  136.1560 C   0  0  0  0  0  2  0  0  0  0  0  0
  186.9170  174.9570  136.7060 N   0  0  0  0  0  2  0  0  0  0  0  0
  187.7320  174.4910  135.5990 C   0  0  2  0  0  3  0  0  0  0  0  0
  188.1770  173.0610  135.8630 C   0  0  0  0  0  1  0  0  0  0  0  0
  190.0920  174.6670  135.2860 C   0  0  0  0  0  2  0  0  0  0  0  0
  188.8540  175.4110  135.4040 N   0  0  0  0  0  0  0  0  0  0  0  0
  191.1340  175.6010  135.8220 C   0  0  1  0  0  3  0  0  0  0  0  0
  190.2960  176.6570  136.4950 C   0  0  0  0  0  2  0  0  0  0  0  0
  188.9680  176.2200  136.4880 O   0  0  0  0  0  0  0  0  0  0  0  0
  192.0850  174.9000  136.8020 C   0  0  2  0  0  3  0  0  0  0  0  0
  192.5530  175.8010  137.7640 O   0  0  0  0  0  1  0  0  0  0  0  0
  193.2670  174.2980  136.0550 C   0  0  0  0  0  2  0  0  0  0  0  0
  194.2460  172.5860  137.3530 O   0  0  0  0  0  0  0  0  0  0  0  0
  194.2940  173.7550  136.9950 C   0  0  0  0  0  0  0  0  0  0  0  0
  195.3910  174.6420  137.4740 C   0  0  0  0  0  2  0  0  0  0  0  0
  196.9600  174.8800  139.2470 O   0  0  0  0  0  1  0  0  0  0  0  0
  195.7150  174.3380  138.9190 C   0  0  0  0  0  2  0  0  0  0  0  0
  1  7  1  0  0  0  0
  2  8  1  0  0  0  0
  3  1  2  0  0  0  0
  3  6  1  0  0  0  0
  4  2  1  0  0  0  0
  5  6  1  0  0  0  0
  6  4  2  0  0  0  0
  7 35  1  0  0  0  0
  7  2  2  0  0  0  0
  8  9  2  0  0  0  0
  8 10  1  0  0  0  0
 11 18  1  6  0  0  0
 11 12  1  0  0  0  0
 13 10  1  1  0  0  0
 13 14  1  0  0  0  0
 13 15  1  0  0  0  0
 14 11  1  0  0  0  0
 15 17  1  6  0  0  0
 15 16  1  0  0  0  0
 16 12  1  0  0  0  0
 18 19  1  0  0  0  0
 19 20  1  0  0  0  0
 21 20  1  0  0  0  0
 22 31  1  6  0  0  0
 22 21  1  0  0  0  0
 22 24  1  0  0  0  0
 23 24  2  0  0  0  0
 24 25  1  0  0  0  0
 25 26  1  6  0  0  0
 25 28  1  0  0  0  0
 27 26  1  0  0  0  0
 28 30  1  0  0  0  0
 30 29  1  0  0  0  0
 32 31  1  0  0  0  0
 33 34  1  0  0  0  0
 33 32  1  0  0  0  0
 34 32  1  0  0  0  0
 36 40  1  6  0  0  0
 36 35  1  0  0  0  0
 37 39  2  0  0  0  0
 39 36  1  0  0  0  0
 39 38  1  0  0  0  0
 40 41  1  0  0  0  0
 42 43  1  1  0  0  0
 42 41  1  0  0  0  0
 44 45  1  0  0  0  0
 44 46  1  0  0  0  0
 45 42  1  0  0  0  0
 45 48  1  0  0  0  0
 46 47  1  0  0  0  0
 46 49  1  1  0  0  0
 48 47  1  0  0  0  0
 49 50  1  1  0  0  0
 51 49  1  0  0  0  0
 51 53  1  0  0  0  0
 53 52  2  0  0  0  0
 53 54  1  0  0  0  0
 54 56  1  0  0  0  0
 56 55  1  0  0  0  0
M  END
>  <MODEL>
6

>  <REMARK>
 VINA RESULT:      -5.0      2.959      9.545
  Name = 
  26 active torsions:
  status: ('A' for Active; 'I' for Inactive)
    1  A    between atoms: C_1  and  C_8
    2  A    between atoms: O_3  and  C_15
    3  A    between atoms: O_3  and  C_44
    4  A    between atoms: N_4  and  C_25
    5  A    between atoms: C_10  and  C_14
    6  A    between atoms: C_10  and  C_42
    7  A    between atoms: C_12  and  C_18
    8  A    between atoms: C_12  and  N_30
    9  A    between atoms: C_12  and  C_33
   10  A    between atoms: N_13  and  C_28
   11  A    between atoms: C_15  and  N_43
   12  A    between atoms: C_15  and  C_56
   13  A    between atoms: C_18  and  N_29
   14  A    between atoms: C_22  and  O_38
   15  A    between atoms: C_23  and  O_37
   16  A    between atoms: C_23  and  O_38
   17  A    between atoms: C_27  and  C_52
   18  A    between atoms: C_28  and  N_29
   19  A    between atoms: N_30  and  C_48
   20  A    between atoms: C_31  and  O_51
   21  A    between atoms: C_34  and  C_35
   22  A    between atoms: C_35  and  C_39
   23  A    between atoms: O_37  and  N_43
   24  A    between atoms: C_39  and  C_42
   25  A    between atoms: O_51  and  C_52
   26  A    between atoms: C_52  and  C_56
                            x       y       z     vdW  Elec       q    Type
                         _______ _______ _______ _____ _____    ______ ____

>  <TORSDO>
F 26

$$$$
=
 OpenBabel11042410563D

 56 59  0  0  1  0  0  0  0  0999 V2000
  186.1230  179.2930  141.8390 C   0  0  0  0  0  3  0  0  0  0  0  0
  187.5430  177.3950  142.3910 C   0  0  0  0  0  0  0  0  0  0  0  0
  186.7270  179.3820  140.5810 C   0  0  0  0  0  3  0  0  0  0  0  0
  188.1480  177.5170  141.1320 C   0  0  0  0  0  3  0  0  0  0  0  0
  188.3600  178.6080  138.9890 O   0  0  0  0  0  1  0  0  0  0  0  0
  187.7500  178.5040  140.2340 C   0  0  0  0  0  0  0  0  0  0  0  0
  186.5280  178.3140  142.7570 C   0  0  0  0  0  0  0  0  0  0  0  0
  188.0450  176.3750  143.3410 C   0  0  0  0  0  0  0  0  0  0  0  0
  187.6220  175.1630  143.2400 N   0  0  0  0  0  2  0  0  0  0  0  0
  188.8170  176.7190  144.4970 N   0  0  0  0  0  2  0  0  0  0  0  0
  191.5820  178.0030  143.2760 C   0  0  2  0  0  3  0  0  0  0  0  0
  191.8170  176.6930  144.0240 C   0  0  0  0  0  2  0  0  0  0  0  0
  189.4560  178.0120  144.7350 C   0  0  2  0  0  3  0  0  0  0  0  0
  190.1360  178.4980  143.4400 C   0  0  0  0  0  2  0  0  0  0  0  0
  190.4850  177.8910  145.8660 C   0  0  2  0  0  3  0  0  0  0  0  0
  191.5840  176.8740  145.5240 C   0  0  0  0  0  2  0  0  0  0  0  0
  189.8190  177.5050  147.1650 C   0  0  0  0  0  1  0  0  0  0  0  0
  191.8830  177.8690  141.9190 O   0  0  0  0  0  0  0  0  0  0  0  0
  191.4230  176.6030  141.5390 C   0  0  0  0  0  2  0  0  0  0  0  0
  190.9250  176.6380  140.2310 O   0  0  0  0  0  0  0  0  0  0  0  0
  191.9930  176.9860  139.4710 N   0  0  0  0  0  2  0  0  0  0  0  0
  191.7580  176.4830  138.1180 C   0  0  1  0  0  3  0  0  0  0  0  0
  191.7250  174.1300  137.9680 O   0  0  0  0  0  0  0  0  0  0  0  0
  192.4020  175.1370  137.8790 C   0  0  0  0  0  0  0  0  0  0  0  0
  193.8410  174.9920  137.4580 C   0  0  1  0  0  3  0  0  0  0  0  0
  194.1680  175.6730  136.1260 C   0  0  0  0  0  2  0  0  0  0  0  0
  194.3600  177.0420  136.3120 O   0  0  0  0  0  1  0  0  0  0  0  0
  194.6940  175.4500  138.4640 O   0  0  0  0  0  0  0  0  0  0  0  0
  196.3180  174.6370  139.8250 O   0  0  0  0  0  1  0  0  0  0  0  0
  195.6570  174.4540  138.6140 C   0  0  0  0  0  2  0  0  0  0  0  0
  190.3970  176.5180  137.7280 O   0  0  0  0  0  0  0  0  0  0  0  0
  190.2590  177.0380  136.4300 C   0  0  0  0  0  3  0  0  0  0  0  0
  189.8210  175.9230  135.4930 C   0  0  0  0  0  2  0  0  0  0  0  0
  188.8160  176.9390  135.9660 C   0  0  0  0  0  2  0  0  0  0  0  0
  185.8950  178.2310  144.0450 N   0  0  0  0  0  2  0  0  0  0  0  0
  184.4560  178.2730  144.2410 C   0  0  1  0  0  3  0  0  0  0  0  0
  183.0010  179.3670  145.8080 O   0  0  0  0  0  0  0  0  0  0  0  0
  185.0460  178.6830  146.6620 N   0  0  0  0  0  1  0  0  0  0  0  0
  184.1140  178.8150  145.5970 C   0  0  0  0  0  0  0  0  0  0  0  0
  183.7880  179.0640  143.1270 C   0  0  0  0  0  2  0  0  0  0  0  0
  182.7970  178.2540  142.4300 N   0  0  0  0  0  2  0  0  0  0  0  0
  181.5760  179.0330  142.3310 C   0  0  2  0  0  3  0  0  0  0  0  0
  180.6820  178.7300  143.5220 C   0  0  0  0  0  1  0  0  0  0  0  0
  181.6940  177.7700  140.3090 C   0  0  0  0  0  2  0  0  0  0  0  0
  180.9300  178.7570  141.0460 N   0  0  0  0  0  0  0  0  0  0  0  0
  181.4320  178.1020  138.8720 C   0  0  1  0  0  3  0  0  0  0  0  0
  180.8010  179.4660  138.9720 C   0  0  0  0  0  2  0  0  0  0  0  0
  180.9050  179.8900  140.3010 O   0  0  0  0  0  0  0  0  0  0  0  0
  182.7220  178.1160  138.0400 C   0  0  2  0  0  3  0  0  0  0  0  0
  182.4280  178.0390  136.6750 O   0  0  0  0  0  1  0  0  0  0  0  0
  183.6190  176.9500  138.4320 C   0  0  0  0  0  2  0  0  0  0  0  0
  185.5290  177.4170  137.1270 O   0  0  0  0  0  0  0  0  0  0  0  0
  184.6150  176.6390  137.3630 C   0  0  0  0  0  0  0  0  0  0  0  0
  184.5020  175.3610  136.6060 C   0  0  0  0  0  2  0  0  0  0  0  0
  186.1040  173.9070  137.5990 O   0  0  0  0  0  1  0  0  0  0  0  0
  184.7360  174.1850  137.5270 C   0  0  0  0  0  2  0  0  0  0  0  0
  1  7  1  0  0  0  0
  2  7  2  0  0  0  0
  2  8  1  0  0  0  0
  3  1  2  0  0  0  0
  4  2  1  0  0  0  0
  5  6  1  0  0  0  0
  6  3  1  0  0  0  0
  6  4  2  0  0  0  0
  7 35  1  0  0  0  0
  8 10  1  0  0  0  0
  9  8  2  0  0  0  0
 11 18  1  6  0  0  0
 11 14  1  0  0  0  0
 11 12  1  0  0  0  0
 12 16  1  0  0  0  0
 13 10  1  6  0  0  0
 13 15  1  0  0  0  0
 14 13  1  0  0  0  0
 15 17  1  1  0  0  0
 16 15  1  0  0  0  0
 19 18  1  0  0  0  0
 20 19  1  0  0  0  0
 21 20  1  0  0  0  0
 22 31  1  1  0  0  0
 22 21  1  0  0  0  0
 24 23  2  0  0  0  0
 24 22  1  0  0  0  0
 25 26  1  6  0  0  0
 25 24  1  0  0  0  0
 25 28  1  0  0  0  0
 26 27  1  0  0  0  0
 28 30  1  0  0  0  0
 30 29  1  0  0  0  0
 32 31  1  0  0  0  0
 33 34  1  0  0  0  0
 33 32  1  0  0  0  0
 34 32  1  0  0  0  0
 35 36  1  0  0  0  0
 36 40  1  6  0  0  0
 36 39  1  0  0  0  0
 39 37  2  0  0  0  0
 39 38  1  0  0  0  0
 41 40  1  0  0  0  0
 42 41  1  0  0  0  0
 42 43  1  1  0  0  0
 44 45  1  0  0  0  0
 45 42  1  0  0  0  0
 46 49  1  6  0  0  0
 46 47  1  0  0  0  0
 46 44  1  0  0  0  0
 47 48  1  0  0  0  0
 48 45  1  0  0  0  0
 49 50  1  6  0  0  0
 49 51  1  0  0  0  0
 52 53  2  0  0  0  0
 53 51  1  0  0  0  0
 54 53  1  0  0  0  0
 54 56  1  0  0  0  0
 56 55  1  0  0  0  0
M  END
>  <MODEL>
7

>  <REMARK>
 VINA RESULT:      -4.7      2.715      8.054
  Name = 
  26 active torsions:
  status: ('A' for Active; 'I' for Inactive)
    1  A    between atoms: C_1  and  C_8
    2  A    between atoms: O_3  and  C_15
    3  A    between atoms: O_3  and  C_44
    4  A    between atoms: N_4  and  C_25
    5  A    between atoms: C_10  and  C_14
    6  A    between atoms: C_10  and  C_42
    7  A    between atoms: C_12  and  C_18
    8  A    between atoms: C_12  and  N_30
    9  A    between atoms: C_12  and  C_33
   10  A    between atoms: N_13  and  C_28
   11  A    between atoms: C_15  and  N_43
   12  A    between atoms: C_15  and  C_56
   13  A    between atoms: C_18  and  N_29
   14  A    between atoms: C_22  and  O_38
   15  A    between atoms: C_23  and  O_37
   16  A    between atoms: C_23  and  O_38
   17  A    between atoms: C_27  and  C_52
   18  A    between atoms: C_28  and  N_29
   19  A    between atoms: N_30  and  C_48
   20  A    between atoms: C_31  and  O_51
   21  A    between atoms: C_34  and  C_35
   22  A    between atoms: C_35  and  C_39
   23  A    between atoms: O_37  and  N_43
   24  A    between atoms: C_39  and  C_42
   25  A    between atoms: O_51  and  C_52
   26  A    between atoms: C_52  and  C_56
                            x       y       z     vdW  Elec       q    Type
                         _______ _______ _______ _____ _____    ______ ____

>  <TORSDO>
F 26

$$$$
=
 OpenBabel11042410563D

 56 59  0  0  1  0  0  0  0  0999 V2000
  182.8010  178.8280  136.7310 C   0  0  0  0  0  3  0  0  0  0  0  0
  182.1640  177.7760  138.8310 C   0  0  0  0  0  0  0  0  0  0  0  0
  181.4650  179.1670  136.4940 C   0  0  0  0  0  3  0  0  0  0  0  0
  180.8280  178.1080  138.5600 C   0  0  0  0  0  3  0  0  0  0  0  0
  179.1490  179.1160  137.1500 O   0  0  0  0  0  1  0  0  0  0  0  0
  180.4780  178.7930  137.4000 C   0  0  0  0  0  0  0  0  0  0  0  0
  183.1630  178.1240  137.8880 C   0  0  0  0  0  0  0  0  0  0  0  0
  182.4830  176.9860  140.0440 C   0  0  0  0  0  0  0  0  0  0  0  0
  182.5190  175.7010  139.9630 N   0  0  0  0  0  2  0  0  0  0  0  0
  182.5430  177.5750  141.3460 N   0  0  0  0  0  2  0  0  0  0  0  0
  184.0860  179.2290  143.7270 C   0  0  2  0  0  3  0  0  0  0  0  0
  183.0790  178.2170  144.2660 C   0  0  0  0  0  2  0  0  0  0  0  0
  182.6070  179.0090  141.6260 C   0  0  2  0  0  3  0  0  0  0  0  0
  183.9940  179.3610  142.1990 C   0  0  0  0  0  2  0  0  0  0  0  0
  181.5050  179.4030  142.6180 C   0  0  2  0  0  3  0  0  0  0  0  0
  181.6480  178.6520  143.9500 C   0  0  0  0  0  2  0  0  0  0  0  0
  180.1360  179.1490  142.0340 C   0  0  0  0  0  1  0  0  0  0  0  0
  185.3900  178.8870  144.0920 O   0  0  0  0  0  0  0  0  0  0  0  0
  185.3240  178.4570  145.4230 C   0  0  0  0  0  2  0  0  0  0  0  0
  186.6120  178.3270  145.9570 O   0  0  0  0  0  0  0  0  0  0  0  0
  187.2650  177.5280  145.0770 N   0  0  0  0  0  2  0  0  0  0  0  0
  188.5890  178.1040  144.8510 C   0  0  1  0  0  3  0  0  0  0  0  0
  189.3120  177.0660  146.8410 O   0  0  0  0  0  0  0  0  0  0  0  0
  189.6420  177.5120  145.7590 C   0  0  0  0  0  0  0  0  0  0  0  0
  191.0850  177.3810  145.3450 C   0  0  1  0  0  3  0  0  0  0  0  0
  191.6320  175.9550  145.4480 C   0  0  0  0  0  2  0  0  0  0  0  0
  192.2460  175.7560  146.6860 O   0  0  0  0  0  1  0  0  0  0  0  0
  191.2720  177.8850  144.0560 O   0  0  0  0  0  0  0  0  0  0  0  0
  191.3100  180.1430  144.2830 O   0  0  0  0  0  1  0  0  0  0  0  0
  192.0970  178.9980  144.2100 C   0  0  0  0  0  2  0  0  0  0  0  0
  188.9790  178.1130  143.4900 O   0  0  0  0  0  0  0  0  0  0  0  0
  188.1870  177.2310  142.7340 C   0  0  0  0  0  3  0  0  0  0  0  0
  187.5200  178.0070  141.6080 C   0  0  0  0  0  2  0  0  0  0  0  0
  188.7090  177.1320  141.3100 C   0  0  0  0  0  2  0  0  0  0  0  0
  184.5400  177.7870  138.1230 N   0  0  0  0  0  2  0  0  0  0  0  0
  185.1770  176.5860  137.6090 C   0  0  1  0  0  3  0  0  0  0  0  0
  184.4950  176.4270  135.3120 O   0  0  0  0  0  0  0  0  0  0  0  0
  183.4950  174.9090  136.7520 N   0  0  0  0  0  1  0  0  0  0  0  0
  184.3770  175.9920  136.4890 C   0  0  0  0  0  0  0  0  0  0  0  0
  186.6100  176.8790  137.1920 C   0  0  0  0  0  2  0  0  0  0  0  0
  187.3490  175.6450  136.9540 N   0  0  0  0  0  2  0  0  0  0  0  0
  188.6090  175.9960  136.3250 C   0  0  2  0  0  3  0  0  0  0  0  0
  188.8650  175.0680  135.1490 C   0  0  0  0  0  1  0  0  0  0  0  0
  190.7940  176.7730  136.8910 C   0  0  0  0  0  2  0  0  0  0  0  0
  189.6760  175.9590  137.3260 N   0  0  0  0  0  0  0  0  0  0  0  0
  191.9890  176.1180  137.5120 C   0  0  1  0  0  3  0  0  0  0  0  0
  191.4260  174.7960  137.9650 C   0  0  0  0  0  2  0  0  0  0  0  0
  190.1280  174.6860  137.4560 O   0  0  0  0  0  0  0  0  0  0  0  0
  193.1390  175.9490  136.5100 C   0  0  2  0  0  3  0  0  0  0  0  0
  192.6820  176.1300  135.2010 O   0  0  0  0  0  1  0  0  0  0  0  0
  193.7610  174.5660  136.6440 C   0  0  0  0  0  2  0  0  0  0  0  0
  195.0870  175.2570  138.4700 O   0  0  0  0  0  0  0  0  0  0  0  0
  195.0270  174.6050  137.4360 C   0  0  0  0  0  0  0  0  0  0  0  0
  196.2070  173.8240  136.9710 C   0  0  0  0  0  2  0  0  0  0  0  0
  196.6120  176.0000  136.0950 O   0  0  0  0  0  1  0  0  0  0  0  0
  197.1100  174.6950  136.1260 C   0  0  0  0  0  2  0  0  0  0  0  0
  1  7  1  0  0  0  0
  2  8  1  0  0  0  0
  3  1  2  0  0  0  0
  3  6  1  0  0  0  0
  4  2  1  0  0  0  0
  5  6  1  0  0  0  0
  6  4  2  0  0  0  0
  7 35  1  0  0  0  0
  7  2  2  0  0  0  0
  8 10  1  0  0  0  0
  9  8  2  0  0  0  0
 11 18  1  6  0  0  0
 11 12  1  0  0  0  0
 13 10  1  1  0  0  0
 13 14  1  0  0  0  0
 13 15  1  0  0  0  0
 14 11  1  0  0  0  0
 15 17  1  6  0  0  0
 15 16  1  0  0  0  0
 16 12  1  0  0  0  0
 18 19  1  0  0  0  0
 19 20  1  0  0  0  0
 21 20  1  0  0  0  0
 22 31  1  6  0  0  0
 22 21  1  0  0  0  0
 22 24  1  0  0  0  0
 24 23  2  0  0  0  0
 25 26  1  6  0  0  0
 25 24  1  0  0  0  0
 26 27  1  0  0  0  0
 28 30  1  0  0  0  0
 28 25  1  0  0  0  0
 30 29  1  0  0  0  0
 32 31  1  0  0  0  0
 33 32  1  0  0  0  0
 34 33  1  0  0  0  0
 34 32  1  0  0  0  0
 36 40  1  6  0  0  0
 36 35  1  0  0  0  0
 37 39  2  0  0  0  0
 39 38  1  0  0  0  0
 39 36  1  0  0  0  0
 41 40  1  0  0  0  0
 42 43  1  6  0  0  0
 42 41  1  0  0  0  0
 42 45  1  0  0  0  0
 44 45  1  0  0  0  0
 44 46  1  0  0  0  0
 45 48  1  0  0  0  0
 46 49  1  6  0  0  0
 46 47  1  0  0  0  0
 48 47  1  0  0  0  0
 49 50  1  6  0  0  0
 49 51  1  0  0  0  0
 51 53  1  0  0  0  0
 53 52  2  0  0  0  0
 54 53  1  0  0  0  0
 55 56  1  0  0  0  0
 56 54  1  0  0  0  0
M  END
>  <MODEL>
8

>  <REMARK>
 VINA RESULT:      -4.2      2.754      9.588
  Name = 
  26 active torsions:
  status: ('A' for Active; 'I' for Inactive)
    1  A    between atoms: C_1  and  C_8
    2  A    between atoms: O_3  and  C_15
    3  A    between atoms: O_3  and  C_44
    4  A    between atoms: N_4  and  C_25
    5  A    between atoms: C_10  and  C_14
    6  A    between atoms: C_10  and  C_42
    7  A    between atoms: C_12  and  C_18
    8  A    between atoms: C_12  and  N_30
    9  A    between atoms: C_12  and  C_33
   10  A    between atoms: N_13  and  C_28
   11  A    between atoms: C_15  and  N_43
   12  A    between atoms: C_15  and  C_56
   13  A    between atoms: C_18  and  N_29
   14  A    between atoms: C_22  and  O_38
   15  A    between atoms: C_23  and  O_37
   16  A    between atoms: C_23  and  O_38
   17  A    between atoms: C_27  and  C_52
   18  A    between atoms: C_28  and  N_29
   19  A    between atoms: N_30  and  C_48
   20  A    between atoms: C_31  and  O_51
   21  A    between atoms: C_34  and  C_35
   22  A    between atoms: C_35  and  C_39
   23  A    between atoms: O_37  and  N_43
   24  A    between atoms: C_39  and  C_42
   25  A    between atoms: O_51  and  C_52
   26  A    between atoms: C_52  and  C_56
                            x       y       z     vdW  Elec       q    Type
                         _______ _______ _______ _____ _____    ______ ____

>  <TORSDO>
F 26

$$$$
=
 OpenBabel11042410563D

 56 59  0  0  1  0  0  0  0  0999 V2000
  182.4540  180.5920  137.5810 C   0  0  0  0  0  3  0  0  0  0  0  0
  181.2030  179.2090  139.1440 C   0  0  0  0  0  0  0  0  0  0  0  0
  181.2930  181.3120  137.2850 C   0  0  0  0  0  3  0  0  0  0  0  0
  180.0460  179.9320  138.8150 C   0  0  0  0  0  3  0  0  0  0  0  0
  178.9310  181.6780  137.5780 O   0  0  0  0  0  1  0  0  0  0  0  0
  180.0870  180.9720  137.8890 C   0  0  0  0  0  0  0  0  0  0  0  0
  182.4220  179.5330  138.4980 C   0  0  0  0  0  0  0  0  0  0  0  0
  181.1000  178.0670  140.0820 C   0  0  0  0  0  0  0  0  0  0  0  0
  180.8720  176.8890  139.6130 N   0  0  0  0  0  2  0  0  0  0  0  0
  181.0320  178.2450  141.5010 N   0  0  0  0  0  2  0  0  0  0  0  0
  182.7350  178.7440  144.2640 C   0  0  2  0  0  3  0  0  0  0  0  0
  181.5290  177.8310  144.4680 C   0  0  0  0  0  2  0  0  0  0  0  0
  181.3510  179.4790  142.2160 C   0  0  2  0  0  3  0  0  0  0  0  0
  182.7480  179.3590  142.8560 C   0  0  0  0  0  2  0  0  0  0  0  0
  180.2930  179.7530  143.2930 C   0  0  2  0  0  3  0  0  0  0  0  0
  180.2230  178.6130  144.3200 C   0  0  0  0  0  2  0  0  0  0  0  0
  178.9330  179.9650  142.6730 C   0  0  0  0  0  1  0  0  0  0  0  0
  183.9300  178.0580  144.4900 O   0  0  0  0  0  0  0  0  0  0  0  0
  184.9300  179.0340  144.5860 C   0  0  0  0  0  2  0  0  0  0  0  0
  186.0510  178.5190  145.2460 O   0  0  0  0  0  0  0  0  0  0  0  0
  186.2250  177.2860  144.7080 N   0  0  0  0  0  2  0  0  0  0  0  0
  187.6180  176.8990  144.9240 C   0  0  1  0  0  3  0  0  0  0  0  0
  188.1070  175.6960  142.9570 O   0  0  0  0  0  0  0  0  0  0  0  0
  188.3660  176.6740  143.6300 C   0  0  0  0  0  0  0  0  0  0  0  0
  189.3730  177.6600  143.0970 C   0  0  1  0  0  3  0  0  0  0  0  0
  190.8280  177.2150  143.2730 C   0  0  0  0  0  2  0  0  0  0  0  0
  190.9000  175.8280  143.4090 O   0  0  0  0  0  1  0  0  0  0  0  0
  189.1090  177.9530  141.7580 O   0  0  0  0  0  0  0  0  0  0  0  0
  190.0030  177.6780  139.6900 O   0  0  0  0  0  1  0  0  0  0  0  0
  190.2180  177.4900  141.0520 C   0  0  0  0  0  2  0  0  0  0  0  0
  188.3110  177.7520  145.8180 O   0  0  0  0  0  0  0  0  0  0  0  0
  188.7750  177.0370  146.9360 C   0  0  0  0  0  3  0  0  0  0  0  0
  189.4500  178.0040  147.8970 C   0  0  0  0  0  2  0  0  0  0  0  0
  188.0640  177.5000  148.1970 C   0  0  0  0  0  2  0  0  0  0  0  0
  183.6240  178.8050  138.7990 N   0  0  0  0  0  2  0  0  0  0  0  0
  184.2340  177.8450  137.8940 C   0  0  1  0  0  3  0  0  0  0  0  0
  186.0840  178.2720  136.4240 O   0  0  0  0  0  0  0  0  0  0  0  0
  186.5390  178.5050  138.6860 N   0  0  0  0  0  1  0  0  0  0  0  0
  185.6610  178.2070  137.6090 C   0  0  0  0  0  0  0  0  0  0  0  0
  184.1040  176.4340  138.4470 C   0  0  0  0  0  2  0  0  0  0  0  0
  184.8110  175.4750  137.6070 N   0  0  0  0  0  2  0  0  0  0  0  0
  183.8680  174.9590  136.6310 C   0  0  2  0  0  3  0  0  0  0  0  0
  182.5140  174.7550  137.2910 C   0  0  0  0  0  1  0  0  0  0  0  0
  185.4240  173.1700  136.9070 C   0  0  0  0  0  2  0  0  0  0  0  0
  184.4070  173.7320  136.0410 N   0  0  0  0  0  0  0  0  0  0  0  0
  186.3530  172.4610  135.9710 C   0  0  1  0  0  3  0  0  0  0  0  0
  185.9200  172.9960  134.6310 C   0  0  0  0  0  2  0  0  0  0  0  0
  185.0000  174.0240  134.8560 O   0  0  0  0  0  0  0  0  0  0  0  0
  187.8250  172.7730  136.2750 C   0  0  2  0  0  3  0  0  0  0  0  0
  187.9250  173.7470  137.2730 O   0  0  0  0  0  1  0  0  0  0  0  0
  188.5350  173.2590  135.0190 C   0  0  0  0  0  2  0  0  0  0  0  0
  189.5330  175.2830  135.7110 O   0  0  0  0  0  0  0  0  0  0  0  0
  189.7050  174.1260  135.3490 C   0  0  0  0  0  0  0  0  0  0  0  0
  191.0820  173.5650  135.2610 C   0  0  0  0  0  2  0  0  0  0  0  0
  192.6630  175.0470  136.2450 O   0  0  0  0  0  1  0  0  0  0  0  0
  192.0850  174.6730  135.0290 C   0  0  0  0  0  2  0  0  0  0  0  0
  1  7  1  0  0  0  0
  2  8  1  0  0  0  0
  3  1  2  0  0  0  0
  3  6  1  0  0  0  0
  4  2  1  0  0  0  0
  5  6  1  0  0  0  0
  6  4  2  0  0  0  0
  7 35  1  0  0  0  0
  7  2  2  0  0  0  0
  8 10  1  0  0  0  0
  9  8  2  0  0  0  0
 11 12  1  0  0  0  0
 11 18  1  6  0  0  0
 13 10  1  1  0  0  0
 13 14  1  0  0  0  0
 13 15  1  0  0  0  0
 14 11  1  0  0  0  0
 15 17  1  6  0  0  0
 15 16  1  0  0  0  0
 16 12  1  0  0  0  0
 18 19  1  0  0  0  0
 19 20  1  0  0  0  0
 21 22  1  0  0  0  0
 21 20  1  0  0  0  0
 22 24  1  6  0  0  0
 22 31  1  0  0  0  0
 23 24  2  0  0  0  0
 25 26  1  6  0  0  0
 25 24  1  0  0  0  0
 26 27  1  0  0  0  0
 28 25  1  0  0  0  0
 29 30  1  0  0  0  0
 30 28  1  0  0  0  0
 31 32  1  0  0  0  0
 32 33  1  0  0  0  0
 32 34  1  0  0  0  0
 33 34  1  0  0  0  0
 36 40  1  1  0  0  0
 36 35  1  0  0  0  0
 37 39  2  0  0  0  0
 39 36  1  0  0  0  0
 39 38  1  0  0  0  0
 41 40  1  0  0  0  0
 42 43  1  1  0  0  0
 42 41  1  0  0  0  0
 45 42  1  0  0  0  0
 45 44  1  0  0  0  0
 46 49  1  1  0  0  0
 46 44  1  0  0  0  0
 47 48  1  0  0  0  0
 47 46  1  0  0  0  0
 48 45  1  0  0  0  0
 49 50  1  1  0  0  0
 51 53  1  0  0  0  0
 51 49  1  0  0  0  0
 53 52  2  0  0  0  0
 54 53  1  0  0  0  0
 56 54  1  0  0  0  0
 56 55  1  0  0  0  0
M  END
>  <MODEL>
9

>  <REMARK>
 VINA RESULT:      -4.0      3.238      9.985
  Name = 
  26 active torsions:
  status: ('A' for Active; 'I' for Inactive)
    1  A    between atoms: C_1  and  C_8
    2  A    between atoms: O_3  and  C_15
    3  A    between atoms: O_3  and  C_44
    4  A    between atoms: N_4  and  C_25
    5  A    between atoms: C_10  and  C_14
    6  A    between atoms: C_10  and  C_42
    7  A    between atoms: C_12  and  C_18
    8  A    between atoms: C_12  and  N_30
    9  A    between atoms: C_12  and  C_33
   10  A    between atoms: N_13  and  C_28
   11  A    between atoms: C_15  and  N_43
   12  A    between atoms: C_15  and  C_56
   13  A    between atoms: C_18  and  N_29
   14  A    between atoms: C_22  and  O_38
   15  A    between atoms: C_23  and  O_37
   16  A    between atoms: C_23  and  O_38
   17  A    between atoms: C_27  and  C_52
   18  A    between atoms: C_28  and  N_29
   19  A    between atoms: N_30  and  C_48
   20  A    between atoms: C_31  and  O_51
   21  A    between atoms: C_34  and  C_35
   22  A    between atoms: C_35  and  C_39
   23  A    between atoms: O_37  and  N_43
   24  A    between atoms: C_39  and  C_42
   25  A    between atoms: O_51  and  C_52
   26  A    between atoms: C_52  and  C_56
                            x       y       z     vdW  Elec       q    Type
                         _______ _______ _______ _____ _____    ______ ____

>  <TORSDO>
F 26

$$$$
