=
 OpenBabel11042409563D

 66 75  0  0  1  0  0  0  0  0999 V2000
  185.9620  175.3760  136.1190 C   0  0  2  0  0  3  0  0  0  0  0  0
  186.0150  176.7880  136.4380 N   0  0  0  0  0  0  0  0  0  0  0  0
  187.2570  173.4020  135.2820 C   0  0  0  0  0  1  0  0  0  0  0  0
  190.6420  174.8560  137.1820 C   0  0  0  0  0  0  0  0  0  0  0  0
  187.2910  174.9150  135.5030 C   0  0  2  0  0  3  0  0  0  0  0  0
  190.6710  176.0560  137.8960 C   0  0  0  0  0  0  0  0  0  0  0  0
  187.2080  178.6390  137.1930 O   0  0  0  0  0  0  0  0  0  0  0  0
  184.5570  176.7720  134.8490 C   0  0  0  0  0  2  0  0  0  0  0  0
  184.9690  177.5140  135.9780 O   0  0  0  0  0  0  0  0  0  0  0  0
  191.6990  174.0080  137.1940 F   0  0  0  0  0  0  0  0  0  0  0  0
  187.2140  177.4110  136.9100 C   0  0  0  0  0  0  0  0  0  0  0  0
  189.5540  174.5100  136.4490 N   0  0  0  0  0  0  0  0  0  0  0  0
  189.5430  176.9170  137.8540 C   0  0  0  0  0  0  0  0  0  0  0  0
  188.4570  175.3170  136.3730 C   0  0  0  0  0  0  0  0  0  0  0  0
  188.4490  176.5760  137.0300 C   0  0  0  0  0  0  0  0  0  0  0  0
  184.8540  175.2880  135.1090 C   0  0  2  0  0  3  0  0  0  0  0  0
  191.9080  176.3840  138.6770 C   0  0  0  0  0  2  0  0  0  0  0  0
  193.0670  176.4210  137.7940 N   0  0  0  0  0  2  0  0  0  0  0  0
  194.0760  175.6170  138.4420 C   0  0  0  0  0  2  0  0  0  0  0  0
  195.0550  173.3480  138.2860 C   0  0  0  0  0  1  0  0  0  0  0  0
  194.6430  174.5620  137.4790 C   0  0  2  0  0  3  0  0  0  0  0  0
  195.8690  175.1150  136.7710 C   0  0  0  0  0  2  0  0  0  0  0  0
  196.8910  174.0160  136.5500 C   0  0  0  0  0  2  0  0  0  0  0  0
  198.2990  174.4810  136.9170 C   0  0  0  0  0  2  0  0  0  0  0  0
  198.6390  174.1020  138.3510 C   0  0  0  0  0  2  0  0  0  0  0  0
  198.5370  175.3140  139.2730 C   0  0  0  0  0  2  0  0  0  0  0  0
  198.4040  175.2540  141.6670 F   0  0  0  0  0  0  0  0  0  0  0  0
  196.5140  175.6390  140.5140 F   0  0  0  0  0  0  0  0  0  0  0  0
  197.7100  174.9410  140.5240 C   0  0  0  0  0  3  0  0  0  0  0  0
  183.6390  174.6410  135.8000 C   0  0  0  0  0  2  0  0  0  0  0  0
  183.6330  174.7890  137.3420 C   0  0  1  0  0  3  0  0  0  0  0  0
  180.2400  175.9700  138.2830 C   0  0  0  0  0  2  0  0  0  0  0  0
  181.2880  174.2350  137.0420 O   0  0  0  0  0  0  0  0  0  0  0  0
  181.7300  176.1550  138.2820 C   0  0  2  0  0  3  0  0  0  0  0  0
  182.2230  174.7710  137.9370 C   0  0  2  0  0  3  0  0  0  0  0  0
  180.0210  174.6870  137.4820 C   0  0  1  0  0  3  0  0  0  0  0  0
  179.3590  173.6340  138.3620 C   0  0  0  0  0  2  0  0  0  0  0  0
  179.7550  172.3460  138.0120 O   0  0  0  0  0  1  0  0  0  0  0  0
  182.2110  176.5710  139.6050 N   0  0  0  0  0  2  0  0  0  0  0  0
  182.8560  178.3950  140.9410 O   0  0  0  0  0  0  0  0  0  0  0  0
  184.1610  177.8990  141.1380 C   0  0  0  0  0  2  0  0  0  0  0  0
  185.1360  178.7670  140.3850 C   0  0  0  0  0  2  0  0  0  0  0  0
  182.4590  178.0350  139.6380 C   0  0  1  0  0  0  0  0  0  0  0  0
  183.4090  178.3780  138.6130 O   0  0  0  0  0  0  0  0  0  0  0  0
  184.5020  179.1940  139.0640 C   0  0  1  0  0  3  0  0  0  0  0  0
  184.1760  180.5340  139.0620 O   0  0  0  0  0  1  0  0  0  0  0  0
  181.2050  179.6180  138.2240 O   0  0  0  0  0  1  0  0  0  0  0  0
  180.6940  179.4880  140.4380 O   0  0  0  0  0  1  0  0  0  0  0  0
  181.1280  178.7620  139.3280 C   0  0  0  0  0  3  0  0  0  0  0  0
  184.3750  172.5050  137.4170 O   0  0  0  0  0  1  0  0  0  0  0  0
  184.5420  173.7630  137.9930 C   0  0  0  0  0  2  0  0  0  0  0  0
  189.4310  178.0260  138.8630 C   0  0  0  0  0  2  0  0  0  0  0  0
  189.2520  176.6120  140.8590 C   0  0  1  0  0  3  0  0  0  0  0  0
  190.1010  177.7080  140.2000 C   0  0  2  0  0  3  0  0  0  0  0  0
  189.1590  178.1230  142.8660 C   0  0  2  0  0  3  0  0  0  0  0  0
  189.7600  176.9160  143.5800 C   0  0  2  0  0  3  0  0  0  0  0  0
  190.1670  175.9340  141.6700 O   0  0  0  0  0  0  0  0  0  0  0  0
  187.8050  178.2380  143.2770 O   0  0  0  0  0  0  0  0  0  0  0  0
  188.4900  177.9680  145.5920 C   0  0  2  0  0  3  0  0  0  0  0  0
  189.5740  175.7330  142.8180 O   0  0  0  0  0  0  0  0  0  0  0  0
  189.0490  178.0700  141.3000 C   0  0  2  0  0  3  0  0  0  0  0  0
  187.6230  177.4580  144.4370 C   0  0  2  0  0  3  0  0  0  0  0  0
  188.8770  176.7320  144.7950 C   0  0  1  0  0  3  0  0  0  0  0  0
  187.8700  177.4870  146.8690 C   0  0  2  0  0  3  0  0  0  0  0  0
  188.5420  178.1280  148.0120 C   0  0  0  0  0  2  0  0  0  0  0  0
  188.8120  176.8010  147.6670 O   0  0  0  0  0  0  0  0  0  0  0  0
  1  2  1  6  0  0  0
  2 11  1  0  0  0  0
  4 10  1  0  0  0  0
  4  6  1  0  0  0  0
  5  3  1  1  0  0  0
  5  1  1  0  0  0  0
  5 14  1  0  0  0  0
  6 17  1  0  0  0  0
  8 16  1  0  0  0  0
  8  9  1  0  0  0  0
  9  2  1  0  0  0  0
 11 15  1  0  0  0  0
 11  7  2  0  0  0  0
 12  4  2  0  0  0  0
 13  6  2  0  0  0  0
 13 52  1  0  0  0  0
 14 12  1  0  0  0  0
 14 15  2  0  0  0  0
 15 13  1  0  0  0  0
 16 30  1  1  0  0  0
 16  1  1  0  0  0  0
 18 19  1  0  0  0  0
 18 17  1  0  0  0  0
 21 20  1  1  0  0  0
 21 19  1  0  0  0  0
 22 21  1  0  0  0  0
 23 22  1  0  0  0  0
 23 24  1  0  0  0  0
 24 25  1  0  0  0  0
 25 26  1  0  0  0  0
 26 29  1  0  0  0  0
 28 29  1  0  0  0  0
 29 27  1  0  0  0  0
 31 30  1  6  0  0  0
 31 51  1  0  0  0  0
 33 36  1  0  0  0  0
 33 35  1  0  0  0  0
 34 32  1  0  0  0  0
 34 39  1  1  0  0  0
 35 31  1  6  0  0  0
 35 34  1  0  0  0  0
 36 32  1  0  0  0  0
 36 37  1  1  0  0  0
 38 37  1  0  0  0  0
 39 43  1  0  0  0  0
 40 41  1  0  0  0  0
 42 41  1  0  0  0  0
 43 49  1  6  0  0  0
 43 40  1  0  0  0  0
 44 45  1  0  0  0  0
 44 43  1  0  0  0  0
 45 46  1  1  0  0  0
 45 42  1  0  0  0  0
 47 49  1  0  0  0  0
 49 48  1  0  0  0  0
 50 51  1  0  0  0  0
 53 61  1  0  0  0  0
 53 57  1  1  0  0  0
 54 52  1  6  0  0  0
 54 53  1  0  0  0  0
 54 61  1  0  0  0  0
 55 58  1  1  0  0  0
 55 56  1  0  0  0  0
 56 60  1  6  0  0  0
 56 63  1  0  0  0  0
 57 60  1  0  0  0  0
 58 62  1  0  0  0  0
 59 64  1  1  0  0  0
 61 55  1  0  0  0  0
 62 63  1  0  0  0  0
 62 59  1  0  0  0  0
 63 59  1  0  0  0  0
 64 66  1  0  0  0  0
 64 65  1  0  0  0  0
 66 65  1  0  0  0  0
M  END
>  <MODEL>
1

>  <REMARK>
 VINA RESULT:      -7.2      0.000      0.000
  Name = 
  21 active torsions:
  status: ('A' for Active; 'I' for Inactive)
    1  A    between atoms: C_3  and  C_9
    2  A    between atoms: C_3  and  C_66
    3  A    between atoms: C_5  and  C_58
    4  A    between atoms: C_6  and  C_37
    5  A    between atoms: C_6  and  C_46
    6  A    between atoms: C_9  and  C_45
    7  A    between atoms: C_9  and  C_60
    8  A    between atoms: N_10  and  C_28
    9  A    between atoms: N_10  and  C_32
   10  A    between atoms: C_13  and  C_37
   11  A    between atoms: C_13  and  C_38
   12  A    between atoms: C_20  and  C_22
   13  A    between atoms: C_22  and  N_29
   14  A    between atoms: N_29  and  C_61
   15  A    between atoms: C_32  and  C_59
   16  A    between atoms: C_34  and  C_35
   17  A    between atoms: C_36  and  C_38
   18  A    between atoms: C_36  and  C_50
   19  A    between atoms: C_39  and  C_62
   20  A    between atoms: C_50  and  C_61
   21  A    between atoms: C_54  and  C_58
                            x       y       z     vdW  Elec       q    Type
                         _______ _______ _______ _____ _____    ______ ____

>  <TORSDO>
F 21

$$$$
=
 OpenBabel11042409563D

 66 75  0  0  1  0  0  0  0  0999 V2000
  186.7050  175.7470  136.1050 C   0  0  2  0  0  3  0  0  0  0  0  0
  186.9240  177.0020  136.7960 N   0  0  0  0  0  0  0  0  0  0  0  0
  187.7210  174.0110  134.6120 C   0  0  0  0  0  1  0  0  0  0  0  0
  191.3870  174.6240  136.4470 C   0  0  0  0  0  0  0  0  0  0  0  0
  187.9230  175.3910  135.2390 C   0  0  2  0  0  3  0  0  0  0  0  0
  191.5960  175.5640  137.4580 C   0  0  0  0  0  0  0  0  0  0  0  0
  188.3540  178.4720  137.8960 O   0  0  0  0  0  0  0  0  0  0  0  0
  185.3370  177.5410  135.4390 C   0  0  0  0  0  2  0  0  0  0  0  0
  185.9180  177.8980  136.6760 O   0  0  0  0  0  0  0  0  0  0  0  0
  192.3530  173.7380  136.1050 F   0  0  0  0  0  0  0  0  0  0  0  0
  188.2150  177.3790  137.2840 C   0  0  0  0  0  0  0  0  0  0  0  0
  190.2100  174.5780  135.7750 N   0  0  0  0  0  0  0  0  0  0  0  0
  190.5590  176.4760  137.7850 C   0  0  0  0  0  0  0  0  0  0  0  0
  189.1950  175.4460  136.0500 C   0  0  0  0  0  0  0  0  0  0  0  0
  189.3680  176.4610  137.0270 C   0  0  0  0  0  0  0  0  0  0  0  0
  185.5090  176.0280  135.2410 C   0  0  2  0  0  3  0  0  0  0  0  0
  192.9240  175.5680  138.1560 C   0  0  0  0  0  2  0  0  0  0  0  0
  193.9480  176.1320  137.2850 N   0  0  0  0  0  2  0  0  0  0  0  0
  194.9350  175.0910  137.1210 C   0  0  0  0  0  2  0  0  0  0  0  0
  194.9060  175.4510  134.6700 C   0  0  0  0  0  1  0  0  0  0  0  0
  195.8090  175.3500  135.8840 C   0  0  2  0  0  3  0  0  0  0  0  0
  196.7710  174.1900  135.6790 C   0  0  0  0  0  2  0  0  0  0  0  0
  197.4210  173.8070  136.9950 C   0  0  0  0  0  2  0  0  0  0  0  0
  196.9430  172.4370  137.4740 C   0  0  0  0  0  2  0  0  0  0  0  0
  197.9430  171.3520  137.1010 C   0  0  0  0  0  2  0  0  0  0  0  0
  197.2920  169.9720  137.1470 C   0  0  0  0  0  2  0  0  0  0  0  0
  195.2500  169.6990  135.9180 F   0  0  0  0  0  0  0  0  0  0  0  0
  197.0030  170.6290  134.8620 F   0  0  0  0  0  0  0  0  0  0  0  0
  196.6180  169.6750  135.7890 C   0  0  0  0  0  3  0  0  0  0  0  0
  184.3020  175.2960  135.8580 C   0  0  0  0  0  2  0  0  0  0  0  0
  183.6620  176.0290  137.0630 C   0  0  1  0  0  3  0  0  0  0  0  0
  181.0780  178.5880  136.3080 C   0  0  0  0  0  2  0  0  0  0  0  0
  182.0430  176.6350  135.3570 O   0  0  0  0  0  0  0  0  0  0  0  0
  182.1760  178.0660  137.1890 C   0  0  2  0  0  3  0  0  0  0  0  0
  182.2930  176.6310  136.7360 C   0  0  2  0  0  3  0  0  0  0  0  0
  181.0250  177.5950  135.1470 C   0  0  1  0  0  3  0  0  0  0  0  0
  179.6600  176.9200  135.1060 C   0  0  0  0  0  2  0  0  0  0  0  0
  178.9460  177.1290  136.2820 O   0  0  0  0  0  1  0  0  0  0  0  0
  181.7970  178.1410  138.6050 N   0  0  0  0  0  2  0  0  0  0  0  0
  182.0750  179.4930  140.5090 O   0  0  0  0  0  0  0  0  0  0  0  0
  181.9600  178.4080  141.4010 C   0  0  0  0  0  2  0  0  0  0  0  0
  183.3040  178.1430  142.0270 C   0  0  0  0  0  2  0  0  0  0  0  0
  182.7300  179.0230  139.3530 C   0  0  1  0  0  0  0  0  0  0  0  0
  183.9510  178.3080  139.6130 O   0  0  0  0  0  0  0  0  0  0  0  0
  184.3920  178.3620  140.9790 C   0  0  1  0  0  3  0  0  0  0  0  0
  185.1270  179.5000  141.2360 O   0  0  0  0  0  1  0  0  0  0  0  0
  184.2770  180.8570  138.7910 O   0  0  0  0  0  1  0  0  0  0  0  0
  182.0420  181.1950  138.5300 O   0  0  0  0  0  1  0  0  0  0  0  0
  183.0630  180.2450  138.4640 C   0  0  0  0  0  3  0  0  0  0  0  0
  182.4430  175.3330  139.0120 O   0  0  0  0  0  1  0  0  0  0  0  0
  183.6160  175.1330  138.2860 C   0  0  0  0  0  2  0  0  0  0  0  0
  190.6460  177.2550  139.0680 C   0  0  0  0  0  2  0  0  0  0  0  0
  189.1550  177.9780  140.8760 C   0  0  1  0  0  3  0  0  0  0  0  0
  189.7130  176.7390  140.1640 C   0  0  2  0  0  3  0  0  0  0  0  0
  189.9530  176.9060  143.0060 C   0  0  2  0  0  3  0  0  0  0  0  0
  188.4900  177.0480  143.4150 C   0  0  2  0  0  3  0  0  0  0  0  0
  187.9180  177.5470  141.3650 O   0  0  0  0  0  0  0  0  0  0  0  0
  190.7010  177.8660  143.7370 O   0  0  0  0  0  0  0  0  0  0  0  0
  189.5720  177.1850  145.7770 C   0  0  2  0  0  3  0  0  0  0  0  0
  187.8230  177.9910  142.5900 O   0  0  0  0  0  0  0  0  0  0  0  0
  190.3320  177.2250  141.5150 C   0  0  2  0  0  3  0  0  0  0  0  0
  189.9110  178.3240  144.8110 C   0  0  2  0  0  3  0  0  0  0  0  0
  188.5520  177.7070  144.7760 C   0  0  1  0  0  3  0  0  0  0  0  0
  189.2370  177.8010  147.1030 C   0  0  2  0  0  3  0  0  0  0  0  0
  188.6650  176.7740  147.9890 C   0  0  0  0  0  2  0  0  0  0  0  0
  187.8520  177.7230  147.3650 O   0  0  0  0  0  0  0  0  0  0  0  0
  1  2  1  6  0  0  0
  2 11  1  0  0  0  0
  4  6  1  0  0  0  0
  5  3  1  1  0  0  0
  5 14  1  0  0  0  0
  5  1  1  0  0  0  0
  6 13  2  0  0  0  0
  6 17  1  0  0  0  0
  8  9  1  0  0  0  0
  9  2  1  0  0  0  0
 10  4  1  0  0  0  0
 11  7  2  0  0  0  0
 12 14  1  0  0  0  0
 12  4  2  0  0  0  0
 13 52  1  0  0  0  0
 14 15  2  0  0  0  0
 15 11  1  0  0  0  0
 15 13  1  0  0  0  0
 16  8  1  0  0  0  0
 16 30  1  1  0  0  0
 16  1  1  0  0  0  0
 18 17  1  0  0  0  0
 19 18  1  0  0  0  0
 21 20  1  6  0  0  0
 21 19  1  0  0  0  0
 22 21  1  0  0  0  0
 22 23  1  0  0  0  0
 23 24  1  0  0  0  0
 25 26  1  0  0  0  0
 25 24  1  0  0  0  0
 28 29  1  0  0  0  0
 29 27  1  0  0  0  0
 29 26  1  0  0  0  0
 31 30  1  6  0  0  0
 31 51  1  0  0  0  0
 32 34  1  0  0  0  0
 33 35  1  0  0  0  0
 34 39  1  1  0  0  0
 35 31  1  6  0  0  0
 35 34  1  0  0  0  0
 36 37  1  1  0  0  0
 36 33  1  0  0  0  0
 36 32  1  0  0  0  0
 37 38  1  0  0  0  0
 39 43  1  0  0  0  0
 40 41  1  0  0  0  0
 41 42  1  0  0  0  0
 43 49  1  6  0  0  0
 43 44  1  0  0  0  0
 43 40  1  0  0  0  0
 44 45  1  0  0  0  0
 45 46  1  1  0  0  0
 45 42  1  0  0  0  0
 49 48  1  0  0  0  0
 49 47  1  0  0  0  0
 51 50  1  0  0  0  0
 53 57  1  1  0  0  0
 53 61  1  0  0  0  0
 54 52  1  6  0  0  0
 54 53  1  0  0  0  0
 54 61  1  0  0  0  0
 55 56  1  0  0  0  0
 55 58  1  1  0  0  0
 56 60  1  6  0  0  0
 56 63  1  0  0  0  0
 57 60  1  0  0  0  0
 58 62  1  0  0  0  0
 59 64  1  1  0  0  0
 61 55  1  0  0  0  0
 62 59  1  0  0  0  0
 63 62  1  0  0  0  0
 63 59  1  0  0  0  0
 64 66  1  0  0  0  0
 64 65  1  0  0  0  0
 66 65  1  0  0  0  0
M  END
>  <MODEL>
2

>  <REMARK>
 VINA RESULT:      -6.5      2.129      2.762
  Name = 
  21 active torsions:
  status: ('A' for Active; 'I' for Inactive)
    1  A    between atoms: C_3  and  C_9
    2  A    between atoms: C_3  and  C_66
    3  A    between atoms: C_5  and  C_58
    4  A    between atoms: C_6  and  C_37
    5  A    between atoms: C_6  and  C_46
    6  A    between atoms: C_9  and  C_45
    7  A    between atoms: C_9  and  C_60
    8  A    between atoms: N_10  and  C_28
    9  A    between atoms: N_10  and  C_32
   10  A    between atoms: C_13  and  C_37
   11  A    between atoms: C_13  and  C_38
   12  A    between atoms: C_20  and  C_22
   13  A    between atoms: C_22  and  N_29
   14  A    between atoms: N_29  and  C_61
   15  A    between atoms: C_32  and  C_59
   16  A    between atoms: C_34  and  C_35
   17  A    between atoms: C_36  and  C_38
   18  A    between atoms: C_36  and  C_50
   19  A    between atoms: C_39  and  C_62
   20  A    between atoms: C_50  and  C_61
   21  A    between atoms: C_54  and  C_58
                            x       y       z     vdW  Elec       q    Type
                         _______ _______ _______ _____ _____    ______ ____

>  <TORSDO>
F 21

$$$$
=
 OpenBabel11042409563D

 66 75  0  0  1  0  0  0  0  0999 V2000
  184.8360  178.8970  139.6030 C   0  0  2  0  0  3  0  0  0  0  0  0
  185.7080  178.4160  138.5510 N   0  0  0  0  0  0  0  0  0  0  0  0
  184.1620  178.6370  142.0010 C   0  0  0  0  0  1  0  0  0  0  0  0
  188.0870  177.7270  142.9740 C   0  0  0  0  0  0  0  0  0  0  0  0
  185.0020  178.0440  140.8690 C   0  0  2  0  0  3  0  0  0  0  0  0
  189.1180  177.6510  142.0340 C   0  0  0  0  0  0  0  0  0  0  0  0
  187.7430  177.5040  137.8810 O   0  0  0  0  0  0  0  0  0  0  0  0
  183.7690  177.9440  137.7350 C   0  0  0  0  0  2  0  0  0  0  0  0
  185.1020  178.2170  137.3580 O   0  0  0  0  0  0  0  0  0  0  0  0
  188.3440  177.6520  144.3020 F   0  0  0  0  0  0  0  0  0  0  0  0
  187.0120  177.8940  138.8310 C   0  0  0  0  0  0  0  0  0  0  0  0
  186.7970  177.8700  142.5790 N   0  0  0  0  0  0  0  0  0  0  0  0
  188.8040  177.7310  140.6520 C   0  0  0  0  0  0  0  0  0  0  0  0
  186.4550  177.9370  141.2610 C   0  0  0  0  0  0  0  0  0  0  0  0
  187.4510  177.8080  140.2570 C   0  0  0  0  0  0  0  0  0  0  0  0
  183.4610  178.7200  139.0240 C   0  0  2  0  0  3  0  0  0  0  0  0
  190.5210  177.4820  142.5360 C   0  0  0  0  0  2  0  0  0  0  0  0
  190.9460  178.6770  143.2540 N   0  0  0  0  0  2  0  0  0  0  0  0
  190.8160  178.3540  144.6560 C   0  0  0  0  0  2  0  0  0  0  0  0
  191.1420  175.9040  144.4930 C   0  0  0  0  0  1  0  0  0  0  0  0
  191.7370  177.1860  145.0400 C   0  0  2  0  0  3  0  0  0  0  0  0
  191.8250  177.0740  146.5540 C   0  0  0  0  0  2  0  0  0  0  0  0
  190.5420  176.4900  147.1140 C   0  0  0  0  0  2  0  0  0  0  0  0
  189.4680  177.5630  147.2810 C   0  0  0  0  0  2  0  0  0  0  0  0
  188.2580  177.0100  148.0200 C   0  0  0  0  0  2  0  0  0  0  0  0
  187.2070  178.0970  148.2330 C   0  0  0  0  0  2  0  0  0  0  0  0
  185.8540  177.4440  146.3630 F   0  0  0  0  0  0  0  0  0  0  0  0
  185.7600  179.5860  147.0380 F   0  0  0  0  0  0  0  0  0  0  0  0
  186.5880  178.4880  146.8720 C   0  0  0  0  0  3  0  0  0  0  0  0
  182.9230  180.1160  138.6590 C   0  0  0  0  0  2  0  0  0  0  0  0
  181.4180  180.1400  138.2940 C   0  0  1  0  0  3  0  0  0  0  0  0
  180.0230  177.8470  140.8610 C   0  0  0  0  0  2  0  0  0  0  0  0
  181.0100  180.0020  140.6840 O   0  0  0  0  0  0  0  0  0  0  0  0
  180.4210  178.1240  139.4390 C   0  0  2  0  0  3  0  0  0  0  0  0
  180.5220  179.6300  139.4240 C   0  0  2  0  0  3  0  0  0  0  0  0
  180.4090  179.1210  141.6130 C   0  0  1  0  0  3  0  0  0  0  0  0
  179.1660  179.7590  142.2220 C   0  0  0  0  0  2  0  0  0  0  0  0
  179.4550  180.4080  143.4190 O   0  0  0  0  0  1  0  0  0  0  0  0
  179.3930  177.6560  138.5020 N   0  0  0  0  0  2  0  0  0  0  0  0
  181.0560  176.0360  138.1310 O   0  0  0  0  0  0  0  0  0  0  0  0
  180.5300  175.1510  139.0930 C   0  0  0  0  0  2  0  0  0  0  0  0
  179.9360  173.9580  138.3910 C   0  0  0  0  0  2  0  0  0  0  0  0
  179.9700  176.6980  137.5240 C   0  0  1  0  0  0  0  0  0  0  0  0
  178.9310  175.8210  137.0510 O   0  0  0  0  0  0  0  0  0  0  0  0
  179.2630  174.4250  137.1020 C   0  0  1  0  0  3  0  0  0  0  0  0
  179.9650  174.0230  135.9850 O   0  0  0  0  0  1  0  0  0  0  0  0
  179.5390  177.7970  135.3610 O   0  0  0  0  0  1  0  0  0  0  0  0
  181.5620  176.8140  135.7030 O   0  0  0  0  0  1  0  0  0  0  0  0
  180.5140  177.5000  136.3180 C   0  0  0  0  0  3  0  0  0  0  0  0
  180.8890  181.5410  136.4150 O   0  0  0  0  0  1  0  0  0  0  0  0
  180.9960  181.5130  137.8040 C   0  0  0  0  0  2  0  0  0  0  0  0
  189.9100  177.9820  139.6650 C   0  0  0  0  0  2  0  0  0  0  0  0
  191.8210  177.1410  138.3770 C   0  0  1  0  0  3  0  0  0  0  0  0
  190.9490  176.8620  139.6090 C   0  0  2  0  0  3  0  0  0  0  0  0
  191.3010  174.7820  137.6820 C   0  0  2  0  0  3  0  0  0  0  0  0
  192.8200  174.6360  137.6820 C   0  0  2  0  0  3  0  0  0  0  0  0
  193.0480  176.5550  138.7050 O   0  0  0  0  0  0  0  0  0  0  0  0
  190.8690  174.7990  136.3300 O   0  0  0  0  0  0  0  0  0  0  0  0
  192.2570  172.8600  135.8660 C   0  0  2  0  0  3  0  0  0  0  0  0
  193.4500  175.9080  137.6430 O   0  0  0  0  0  0  0  0  0  0  0  0
  190.6910  176.1070  138.2630 C   0  0  2  0  0  3  0  0  0  0  0  0
  191.9150  174.3120  135.5210 C   0  0  2  0  0  3  0  0  0  0  0  0
  193.1290  174.0140  136.3380 C   0  0  1  0  0  3  0  0  0  0  0  0
  192.9380  172.2590  134.6730 C   0  0  2  0  0  3  0  0  0  0  0  0
  192.8470  170.7910  134.7450 C   0  0  0  0  0  2  0  0  0  0  0  0
  194.0330  171.4570  135.0610 O   0  0  0  0  0  0  0  0  0  0  0  0
  1  2  1  6  0  0  0
  1  5  1  0  0  0  0
  2 11  1  0  0  0  0
  4 10  1  0  0  0  0
  5 14  1  0  0  0  0
  5  3  1  1  0  0  0
  6 17  1  0  0  0  0
  6  4  2  0  0  0  0
  7 11  2  0  0  0  0
  8 16  1  0  0  0  0
  9  8  1  0  0  0  0
  9  2  1  0  0  0  0
 11 15  1  0  0  0  0
 12  4  1  0  0  0  0
 13  6  1  0  0  0  0
 14 12  2  0  0  0  0
 15 13  2  0  0  0  0
 15 14  1  0  0  0  0
 16 30  1  6  0  0  0
 16  1  1  0  0  0  0
 17 18  1  0  0  0  0
 18 19  1  0  0  0  0
 19 21  1  0  0  0  0
 21 20  1  6  0  0  0
 21 22  1  0  0  0  0
 22 23  1  0  0  0  0
 23 24  1  0  0  0  0
 24 25  1  0  0  0  0
 25 26  1  0  0  0  0
 27 29  1  0  0  0  0
 29 28  1  0  0  0  0
 29 26  1  0  0  0  0
 31 51  1  1  0  0  0
 31 30  1  0  0  0  0
 32 36  1  0  0  0  0
 33 36  1  0  0  0  0
 34 39  1  6  0  0  0
 34 32  1  0  0  0  0
 35 31  1  6  0  0  0
 35 34  1  0  0  0  0
 35 33  1  0  0  0  0
 36 37  1  6  0  0  0
 37 38  1  0  0  0  0
 40 41  1  0  0  0  0
 42 41  1  0  0  0  0
 43 49  1  6  0  0  0
 43 40  1  0  0  0  0
 43 39  1  0  0  0  0
 44 45  1  0  0  0  0
 44 43  1  0  0  0  0
 45 46  1  6  0  0  0
 45 42  1  0  0  0  0
 47 49  1  0  0  0  0
 48 49  1  0  0  0  0
 50 51  1  0  0  0  0
 52 13  1  0  0  0  0
 53 57  1  1  0  0  0
 53 54  1  0  0  0  0
 54 52  1  6  0  0  0
 55 58  1  6  0  0  0
 55 56  1  0  0  0  0
 55 61  1  0  0  0  0
 56 60  1  6  0  0  0
 59 64  1  6  0  0  0
 59 63  1  0  0  0  0
 60 57  1  0  0  0  0
 61 53  1  0  0  0  0
 61 54  1  0  0  0  0
 62 59  1  0  0  0  0
 62 58  1  0  0  0  0
 62 63  1  0  0  0  0
 63 56  1  0  0  0  0
 64 65  1  0  0  0  0
 64 66  1  0  0  0  0
 65 66  1  0  0  0  0
M  END
>  <MODEL>
3

>  <REMARK>
 VINA RESULT:      -5.6      3.802      8.017
  Name = 
  21 active torsions:
  status: ('A' for Active; 'I' for Inactive)
    1  A    between atoms: C_3  and  C_9
    2  A    between atoms: C_3  and  C_66
    3  A    between atoms: C_5  and  C_58
    4  A    between atoms: C_6  and  C_37
    5  A    between atoms: C_6  and  C_46
    6  A    between atoms: C_9  and  C_45
    7  A    between atoms: C_9  and  C_60
    8  A    between atoms: N_10  and  C_28
    9  A    between atoms: N_10  and  C_32
   10  A    between atoms: C_13  and  C_37
   11  A    between atoms: C_13  and  C_38
   12  A    between atoms: C_20  and  C_22
   13  A    between atoms: C_22  and  N_29
   14  A    between atoms: N_29  and  C_61
   15  A    between atoms: C_32  and  C_59
   16  A    between atoms: C_34  and  C_35
   17  A    between atoms: C_36  and  C_38
   18  A    between atoms: C_36  and  C_50
   19  A    between atoms: C_39  and  C_62
   20  A    between atoms: C_50  and  C_61
   21  A    between atoms: C_54  and  C_58
                            x       y       z     vdW  Elec       q    Type
                         _______ _______ _______ _____ _____    ______ ____

>  <TORSDO>
F 21

$$$$
=
 OpenBabel11042409563D

 66 75  0  0  1  0  0  0  0  0999 V2000
  185.0650  176.6900  136.4650 C   0  0  2  0  0  3  0  0  0  0  0  0
  185.8410  175.5160  136.1230 N   0  0  0  0  0  0  0  0  0  0  0  0
  184.5570  178.3790  138.2450 C   0  0  0  0  0  1  0  0  0  0  0  0
  188.5070  178.2080  139.4910 C   0  0  0  0  0  0  0  0  0  0  0  0
  185.2920  177.0730  137.9360 C   0  0  2  0  0  3  0  0  0  0  0  0
  189.4630  177.3700  138.9130 C   0  0  0  0  0  0  0  0  0  0  0  0
  187.7870  174.2560  136.3340 O   0  0  0  0  0  0  0  0  0  0  0  0
  183.8320  174.7460  135.9850 C   0  0  0  0  0  2  0  0  0  0  0  0
  185.1440  174.5350  135.5050 O   0  0  0  0  0  0  0  0  0  0  0  0
  188.8570  179.1390  140.4110 F   0  0  0  0  0  0  0  0  0  0  0  0
  187.1420  175.2830  136.6750 C   0  0  0  0  0  0  0  0  0  0  0  0
  187.1980  178.1060  139.1500 N   0  0  0  0  0  0  0  0  0  0  0  0
  189.0540  176.4060  137.9540 C   0  0  0  0  0  0  0  0  0  0  0  0
  186.7650  177.1840  138.2440 C   0  0  0  0  0  0  0  0  0  0  0  0
  187.6800  176.2660  137.6640 C   0  0  0  0  0  0  0  0  0  0  0  0
  183.6470  176.2470  136.2480 C   0  0  2  0  0  3  0  0  0  0  0  0
  190.8920  177.5270  139.3410 C   0  0  0  0  0  2  0  0  0  0  0  0
  190.9630  177.7770  140.7750 N   0  0  0  0  0  2  0  0  0  0  0  0
  190.6420  176.5180  141.4060 C   0  0  0  0  0  2  0  0  0  0  0  0
  191.3040  175.6770  143.6400 C   0  0  0  0  0  1  0  0  0  0  0  0
  190.4430  176.6950  142.9190 C   0  0  2  0  0  3  0  0  0  0  0  0
  188.9870  176.4440  143.2800 C   0  0  0  0  0  2  0  0  0  0  0  0
  188.2800  177.7570  143.5580 C   0  0  0  0  0  2  0  0  0  0  0  0
  186.9090  177.5270  144.1930 C   0  0  0  0  0  2  0  0  0  0  0  0
  187.0480  176.9470  145.5930 C   0  0  0  0  0  2  0  0  0  0  0  0
  186.7500  178.0060  146.6520 C   0  0  0  0  0  2  0  0  0  0  0  0
  188.8220  177.1380  147.4950 F   0  0  0  0  0  0  0  0  0  0  0  0
  187.9990  179.0080  148.4330 F   0  0  0  0  0  0  0  0  0  0  0  0
  187.6700  177.7850  147.8730 C   0  0  0  0  0  3  0  0  0  0  0  0
  183.1350  176.9280  134.9640 C   0  0  0  0  0  2  0  0  0  0  0  0
  181.5920  177.0260  134.8700 C   0  0  1  0  0  3  0  0  0  0  0  0
  179.1340  176.5040  137.6060 C   0  0  0  0  0  2  0  0  0  0  0  0
  179.9050  175.4480  135.6200 O   0  0  0  0  0  0  0  0  0  0  0  0
  180.1650  177.3580  136.9270 C   0  0  2  0  0  3  0  0  0  0  0  0
  180.8800  176.3580  136.0490 C   0  0  2  0  0  3  0  0  0  0  0  0
  179.0320  175.2630  136.7180 C   0  0  1  0  0  3  0  0  0  0  0  0
  179.4320  174.0250  137.5120 C   0  0  0  0  0  2  0  0  0  0  0  0
  179.8110  172.9780  136.6760 O   0  0  0  0  0  1  0  0  0  0  0  0
  181.0860  177.9520  137.9040 N   0  0  0  0  0  2  0  0  0  0  0  0
  181.4080  179.8600  139.2390 O   0  0  0  0  0  0  0  0  0  0  0  0
  182.0180  180.5900  138.1990 C   0  0  0  0  0  2  0  0  0  0  0  0
  181.0860  181.6880  137.7570 C   0  0  0  0  0  2  0  0  0  0  0  0
  180.4170  179.0430  138.6590 C   0  0  1  0  0  0  0  0  0  0  0  0
  179.5130  179.7390  137.7830 O   0  0  0  0  0  0  0  0  0  0  0  0
  179.6510  181.1690  137.8010 C   0  0  1  0  0  3  0  0  0  0  0  0
  178.9310  181.7420  138.8280 O   0  0  0  0  0  1  0  0  0  0  0  0
  178.9380  179.3490  140.6060 O   0  0  0  0  0  1  0  0  0  0  0  0
  180.4030  177.6080  140.6100 O   0  0  0  0  0  1  0  0  0  0  0  0
  179.5920  178.4080  139.8040 C   0  0  0  0  0  3  0  0  0  0  0  0
  182.2160  179.3450  134.8150 O   0  0  0  0  0  1  0  0  0  0  0  0
  181.1470  178.4620  134.6720 C   0  0  0  0  0  2  0  0  0  0  0  0
  190.0940  175.7410  137.0960 C   0  0  0  0  0  2  0  0  0  0  0  0
  192.5170  176.0410  136.8540 C   0  0  1  0  0  3  0  0  0  0  0  0
  191.4300  175.5260  137.8080 C   0  0  2  0  0  3  0  0  0  0  0  0
  193.6030  173.7930  137.1440 C   0  0  2  0  0  3  0  0  0  0  0  0
  194.7950  174.6270  137.6070 C   0  0  2  0  0  3  0  0  0  0  0  0
  193.5520  176.4230  137.7130 O   0  0  0  0  0  0  0  0  0  0  0  0
  193.9110  173.2760  135.8590 O   0  0  0  0  0  0  0  0  0  0  0  0
  196.0930  172.5780  136.6660 C   0  0  2  0  0  3  0  0  0  0  0  0
  194.6610  175.9760  137.1850 O   0  0  0  0  0  0  0  0  0  0  0  0
  192.2370  174.5320  136.9090 C   0  0  2  0  0  3  0  0  0  0  0  0
  195.2990  173.4010  135.6480 C   0  0  2  0  0  3  0  0  0  0  0  0
  195.9550  174.0870  136.7990 C   0  0  1  0  0  3  0  0  0  0  0  0
  197.4470  172.3140  136.0780 C   0  0  2  0  0  3  0  0  0  0  0  0
  197.8450  170.9270  136.3680 C   0  0  0  0  0  2  0  0  0  0  0  0
  198.3860  171.9980  137.0840 O   0  0  0  0  0  0  0  0  0  0  0  0
  1  2  1  1  0  0  0
  1  5  1  0  0  0  0
  2 11  1  0  0  0  0
  4 10  1  0  0  0  0
  5 14  1  0  0  0  0
  5  3  1  6  0  0  0
  6 17  1  0  0  0  0
  6  4  2  0  0  0  0
  7 11  2  0  0  0  0
  8 16  1  0  0  0  0
  9  8  1  0  0  0  0
  9  2  1  0  0  0  0
 11 15  1  0  0  0  0
 12  4  1  0  0  0  0
 13  6  1  0  0  0  0
 14 12  2  0  0  0  0
 15 13  2  0  0  0  0
 15 14  1  0  0  0  0
 16 30  1  6  0  0  0
 16  1  1  0  0  0  0
 17 18  1  0  0  0  0
 18 19  1  0  0  0  0
 19 21  1  0  0  0  0
 21 22  1  0  0  0  0
 21 20  1  1  0  0  0
 22 23  1  0  0  0  0
 23 24  1  0  0  0  0
 24 25  1  0  0  0  0
 25 26  1  0  0  0  0
 26 29  1  0  0  0  0
 27 29  1  0  0  0  0
 29 28  1  0  0  0  0
 31 51  1  1  0  0  0
 31 30  1  0  0  0  0
 33 35  1  0  0  0  0
 33 36  1  0  0  0  0
 34 32  1  0  0  0  0
 34 39  1  1  0  0  0
 35 31  1  6  0  0  0
 35 34  1  0  0  0  0
 36 37  1  1  0  0  0
 36 32  1  0  0  0  0
 38 37  1  0  0  0  0
 41 40  1  0  0  0  0
 42 45  1  0  0  0  0
 42 41  1  0  0  0  0
 43 39  1  6  0  0  0
 43 40  1  0  0  0  0
 43 49  1  0  0  0  0
 44 45  1  0  0  0  0
 44 43  1  0  0  0  0
 45 46  1  1  0  0  0
 49 47  1  0  0  0  0
 49 48  1  0  0  0  0
 51 50  1  0  0  0  0
 52 13  1  0  0  0  0
 53 61  1  0  0  0  0
 53 57  1  1  0  0  0
 53 54  1  0  0  0  0
 54 52  1  6  0  0  0
 55 58  1  6  0  0  0
 55 56  1  0  0  0  0
 56 60  1  6  0  0  0
 59 64  1  6  0  0  0
 59 63  1  0  0  0  0
 60 57  1  0  0  0  0
 61 55  1  0  0  0  0
 61 54  1  0  0  0  0
 62 58  1  0  0  0  0
 62 59  1  0  0  0  0
 62 63  1  0  0  0  0
 63 56  1  0  0  0  0
 64 65  1  0  0  0  0
 64 66  1  0  0  0  0
 65 66  1  0  0  0  0
M  END
>  <MODEL>
4

>  <REMARK>
 VINA RESULT:      -5.6      3.399      7.308
  Name = 
  21 active torsions:
  status: ('A' for Active; 'I' for Inactive)
    1  A    between atoms: C_3  and  C_9
    2  A    between atoms: C_3  and  C_66
    3  A    between atoms: C_5  and  C_58
    4  A    between atoms: C_6  and  C_37
    5  A    between atoms: C_6  and  C_46
    6  A    between atoms: C_9  and  C_45
    7  A    between atoms: C_9  and  C_60
    8  A    between atoms: N_10  and  C_28
    9  A    between atoms: N_10  and  C_32
   10  A    between atoms: C_13  and  C_37
   11  A    between atoms: C_13  and  C_38
   12  A    between atoms: C_20  and  C_22
   13  A    between atoms: C_22  and  N_29
   14  A    between atoms: N_29  and  C_61
   15  A    between atoms: C_32  and  C_59
   16  A    between atoms: C_34  and  C_35
   17  A    between atoms: C_36  and  C_38
   18  A    between atoms: C_36  and  C_50
   19  A    between atoms: C_39  and  C_62
   20  A    between atoms: C_50  and  C_61
   21  A    between atoms: C_54  and  C_58
                            x       y       z     vdW  Elec       q    Type
                         _______ _______ _______ _____ _____    ______ ____

>  <TORSDO>
F 21

$$$$
=
 OpenBabel11042409563D

 66 75  0  0  1  0  0  0  0  0999 V2000
  184.7900  178.6570  138.5470 C   0  0  2  0  0  3  0  0  0  0  0  0
  185.6820  178.1030  137.5490 N   0  0  0  0  0  0  0  0  0  0  0  0
  184.1990  178.7130  140.9810 C   0  0  0  0  0  1  0  0  0  0  0  0
  188.2170  178.3430  141.9330 C   0  0  0  0  0  0  0  0  0  0  0  0
  185.0690  178.0330  139.9220 C   0  0  2  0  0  3  0  0  0  0  0  0
  189.2280  178.2200  140.9770 C   0  0  0  0  0  0  0  0  0  0  0  0
  187.7810  177.2950  136.9510 O   0  0  0  0  0  0  0  0  0  0  0  0
  183.7810  177.3270  136.8900 C   0  0  0  0  0  2  0  0  0  0  0  0
  185.0720  177.6620  136.4250 O   0  0  0  0  0  0  0  0  0  0  0  0
  188.5100  178.5020  143.2460 F   0  0  0  0  0  0  0  0  0  0  0  0
  187.0370  177.7570  137.8570 C   0  0  0  0  0  0  0  0  0  0  0  0
  186.9100  178.3000  141.5700 N   0  0  0  0  0  0  0  0  0  0  0  0
  188.8770  178.0520  139.6120 C   0  0  0  0  0  0  0  0  0  0  0  0
  186.5340  178.1270  140.2710 C   0  0  0  0  0  0  0  0  0  0  0  0
  187.5150  177.9380  139.2620 C   0  0  0  0  0  0  0  0  0  0  0  0
  183.4270  178.2630  138.0550 C   0  0  2  0  0  3  0  0  0  0  0  0
  190.6520  178.2650  141.4460 C   0  0  0  0  0  2  0  0  0  0  0  0
  191.2020  176.9170  141.5170 N   0  0  0  0  0  2  0  0  0  0  0  0
  190.6500  176.3360  142.7190 C   0  0  0  0  0  2  0  0  0  0  0  0
  191.9700  175.2780  144.5280 C   0  0  0  0  0  1  0  0  0  0  0  0
  191.5560  176.6070  143.9300 C   0  0  2  0  0  3  0  0  0  0  0  0
  190.7910  177.3970  144.9790 C   0  0  0  0  0  2  0  0  0  0  0  0
  190.3920  176.4940  146.1310 C   0  0  0  0  0  2  0  0  0  0  0  0
  189.7810  177.2940  147.2800 C   0  0  0  0  0  2  0  0  0  0  0  0
  188.6040  178.1280  146.7960 C   0  0  0  0  0  2  0  0  0  0  0  0
  187.3070  177.6770  147.4630 C   0  0  0  0  0  2  0  0  0  0  0  0
  185.1100  178.6250  147.2880 F   0  0  0  0  0  0  0  0  0  0  0  0
  186.5230  178.9080  145.5640 F   0  0  0  0  0  0  0  0  0  0  0  0
  186.1090  178.0330  146.5540 C   0  0  0  0  0  3  0  0  0  0  0  0
  182.7440  179.5270  137.5010 C   0  0  0  0  0  2  0  0  0  0  0  0
  181.2260  179.3640  137.2360 C   0  0  1  0  0  3  0  0  0  0  0  0
  178.9330  177.2720  139.2760 C   0  0  0  0  0  2  0  0  0  0  0  0
  179.7590  177.4380  137.0530 O   0  0  0  0  0  0  0  0  0  0  0  0
  179.8360  178.4650  139.1420 C   0  0  2  0  0  3  0  0  0  0  0  0
  180.6340  178.1230  137.9060 C   0  0  2  0  0  3  0  0  0  0  0  0
  178.9490  176.6320  137.8880 C   0  0  1  0  0  3  0  0  0  0  0  0
  179.5160  175.2210  137.9760 C   0  0  0  0  0  2  0  0  0  0  0  0
  179.1760  174.4590  136.8610 O   0  0  0  0  0  1  0  0  0  0  0  0
  180.7110  178.5990  140.3120 N   0  0  0  0  0  2  0  0  0  0  0  0
  178.9380  178.2690  141.8210 O   0  0  0  0  0  0  0  0  0  0  0  0
  179.5460  177.1480  142.4220 C   0  0  0  0  0  2  0  0  0  0  0  0
  179.9830  177.5160  143.8160 C   0  0  0  0  0  2  0  0  0  0  0  0
  179.9640  179.1670  141.4640 C   0  0  1  0  0  0  0  0  0  0  0  0
  180.8880  179.4640  142.5270 O   0  0  0  0  0  0  0  0  0  0  0  0
  180.4990  178.9520  143.8120 C   0  0  1  0  0  3  0  0  0  0  0  0
  179.6360  179.8070  144.4650 O   0  0  0  0  0  1  0  0  0  0  0  0
  180.1140  181.2590  140.1710 O   0  0  0  0  0  1  0  0  0  0  0  0
  178.9350  181.2600  142.1170 O   0  0  0  0  0  1  0  0  0  0  0  0
  179.3030  180.4910  141.0120 C   0  0  0  0  0  3  0  0  0  0  0  0
  180.5120  181.5570  136.5630 O   0  0  0  0  0  1  0  0  0  0  0  0
  180.4700  180.6270  137.6000 C   0  0  0  0  0  2  0  0  0  0  0  0
  189.9300  178.2500  138.5570 C   0  0  0  0  0  2  0  0  0  0  0  0
  190.8810  175.9900  138.6210 C   0  0  1  0  0  3  0  0  0  0  0  0
  190.1860  177.0060  137.7050 C   0  0  2  0  0  3  0  0  0  0  0  0
  192.6530  175.8500  136.8420 C   0  0  2  0  0  3  0  0  0  0  0  0
  192.3030  174.3650  136.8620 C   0  0  2  0  0  3  0  0  0  0  0  0
  190.5240  174.7550  138.0700 O   0  0  0  0  0  0  0  0  0  0  0  0
  193.9210  176.0020  137.4620 O   0  0  0  0  0  0  0  0  0  0  0  0
  194.7900  174.1710  136.1240 C   0  0  2  0  0  3  0  0  0  0  0  0
  191.6070  174.0250  138.0510 O   0  0  0  0  0  0  0  0  0  0  0  0
  191.7400  176.8300  137.6630 C   0  0  2  0  0  3  0  0  0  0  0  0
  194.5420  174.7390  137.5240 C   0  0  2  0  0  3  0  0  0  0  0  0
  193.6430  173.6740  136.9900 C   0  0  1  0  0  3  0  0  0  0  0  0
  195.8900  173.1580  136.2340 C   0  0  2  0  0  3  0  0  0  0  0  0
  196.8540  173.3600  135.1390 C   0  0  0  0  0  2  0  0  0  0  0  0
  195.9240  172.3180  135.1000 O   0  0  0  0  0  0  0  0  0  0  0  0
  1  2  1  6  0  0  0
  1  5  1  0  0  0  0
  2 11  1  0  0  0  0
  4 10  1  0  0  0  0
  5 14  1  0  0  0  0
  5  3  1  1  0  0  0
  6 17  1  0  0  0  0
  6  4  2  0  0  0  0
  7 11  2  0  0  0  0
  8 16  1  0  0  0  0
  9  8  1  0  0  0  0
  9  2  1  0  0  0  0
 11 15  1  0  0  0  0
 12  4  1  0  0  0  0
 13  6  1  0  0  0  0
 14 12  2  0  0  0  0
 15 13  2  0  0  0  0
 15 14  1  0  0  0  0
 16 30  1  6  0  0  0
 16  1  1  0  0  0  0
 17 18  1  0  0  0  0
 18 19  1  0  0  0  0
 19 21  1  0  0  0  0
 21 20  1  1  0  0  0
 21 22  1  0  0  0  0
 22 23  1  0  0  0  0
 23 24  1  0  0  0  0
 25 24  1  0  0  0  0
 25 26  1  0  0  0  0
 28 29  1  0  0  0  0
 29 27  1  0  0  0  0
 29 26  1  0  0  0  0
 31 30  1  1  0  0  0
 31 51  1  0  0  0  0
 33 36  1  0  0  0  0
 33 35  1  0  0  0  0
 34 32  1  0  0  0  0
 34 39  1  1  0  0  0
 35 31  1  6  0  0  0
 35 34  1  0  0  0  0
 36 37  1  1  0  0  0
 36 32  1  0  0  0  0
 38 37  1  0  0  0  0
 40 41  1  0  0  0  0
 41 42  1  0  0  0  0
 43 39  1  6  0  0  0
 43 40  1  0  0  0  0
 43 44  1  0  0  0  0
 44 45  1  0  0  0  0
 45 42  1  0  0  0  0
 45 46  1  6  0  0  0
 47 49  1  0  0  0  0
 49 43  1  0  0  0  0
 49 48  1  0  0  0  0
 50 51  1  0  0  0  0
 52 13  1  0  0  0  0
 53 57  1  6  0  0  0
 54 52  1  1  0  0  0
 54 53  1  0  0  0  0
 55 56  1  0  0  0  0
 55 58  1  1  0  0  0
 55 61  1  0  0  0  0
 56 63  1  0  0  0  0
 56 60  1  1  0  0  0
 58 62  1  0  0  0  0
 59 64  1  1  0  0  0
 59 63  1  0  0  0  0
 59 62  1  0  0  0  0
 60 57  1  0  0  0  0
 61 54  1  0  0  0  0
 61 53  1  0  0  0  0
 63 62  1  0  0  0  0
 65 64  1  0  0  0  0
 66 65  1  0  0  0  0
 66 64  1  0  0  0  0
M  END
>  <MODEL>
5

>  <REMARK>
 VINA RESULT:      -5.0      3.482      7.466
  Name = 
  21 active torsions:
  status: ('A' for Active; 'I' for Inactive)
    1  A    between atoms: C_3  and  C_9
    2  A    between atoms: C_3  and  C_66
    3  A    between atoms: C_5  and  C_58
    4  A    between atoms: C_6  and  C_37
    5  A    between atoms: C_6  and  C_46
    6  A    between atoms: C_9  and  C_45
    7  A    between atoms: C_9  and  C_60
    8  A    between atoms: N_10  and  C_28
    9  A    between atoms: N_10  and  C_32
   10  A    between atoms: C_13  and  C_37
   11  A    between atoms: C_13  and  C_38
   12  A    between atoms: C_20  and  C_22
   13  A    between atoms: C_22  and  N_29
   14  A    between atoms: N_29  and  C_61
   15  A    between atoms: C_32  and  C_59
   16  A    between atoms: C_34  and  C_35
   17  A    between atoms: C_36  and  C_38
   18  A    between atoms: C_36  and  C_50
   19  A    between atoms: C_39  and  C_62
   20  A    between atoms: C_50  and  C_61
   21  A    between atoms: C_54  and  C_58
                            x       y       z     vdW  Elec       q    Type
                         _______ _______ _______ _____ _____    ______ ____

>  <TORSDO>
F 21

$$$$
=
 OpenBabel11042409563D

 66 75  0  0  1  0  0  0  0  0999 V2000
  184.8020  177.7860  137.7840 C   0  0  2  0  0  3  0  0  0  0  0  0
  185.3740  177.9190  139.1080 N   0  0  0  0  0  0  0  0  0  0  0  0
  185.1430  178.2100  135.3390 C   0  0  0  0  0  1  0  0  0  0  0  0
  189.1950  177.4670  135.8080 C   0  0  0  0  0  0  0  0  0  0  0  0
  185.7030  178.4620  136.7400 C   0  0  2  0  0  3  0  0  0  0  0  0
  189.7860  177.1620  137.0360 C   0  0  0  0  0  0  0  0  0  0  0  0
  187.2390  177.9780  140.5000 O   0  0  0  0  0  0  0  0  0  0  0  0
  183.6080  179.1440  139.2890 C   0  0  0  0  0  2  0  0  0  0  0  0
  184.5200  178.3810  140.0510 O   0  0  0  0  0  0  0  0  0  0  0  0
  189.8990  177.3900  134.6530 F   0  0  0  0  0  0  0  0  0  0  0  0
  186.7880  177.8760  139.3280 C   0  0  0  0  0  0  0  0  0  0  0  0
  187.8970  177.8560  135.7400 N   0  0  0  0  0  0  0  0  0  0  0  0
  189.0130  177.2580  138.2220 C   0  0  0  0  0  0  0  0  0  0  0  0
  187.1260  177.9740  136.8590 C   0  0  0  0  0  0  0  0  0  0  0  0
  187.6870  177.7330  138.1410 C   0  0  0  0  0  0  0  0  0  0  0  0
  183.4900  178.5090  137.8960 C   0  0  2  0  0  3  0  0  0  0  0  0
  191.2280  176.7480  137.0420 C   0  0  0  0  0  2  0  0  0  0  0  0
  191.4080  175.5390  136.2470 N   0  0  0  0  0  2  0  0  0  0  0  0
  192.7230  175.6510  135.6620 C   0  0  0  0  0  2  0  0  0  0  0  0
  192.6770  173.3130  136.4770 C   0  0  0  0  0  1  0  0  0  0  0  0
  193.3990  174.2750  135.5550 C   0  0  2  0  0  3  0  0  0  0  0  0
  194.8500  174.3770  135.9980 C   0  0  0  0  0  2  0  0  0  0  0  0
  195.3840  175.7720  135.7330 C   0  0  0  0  0  2  0  0  0  0  0  0
  196.8900  175.7520  135.4790 C   0  0  0  0  0  2  0  0  0  0  0  0
  197.2850  174.5430  134.6440 C   0  0  0  0  0  2  0  0  0  0  0  0
  198.4750  173.8170  135.2650 C   0  0  0  0  0  2  0  0  0  0  0  0
  196.7590  172.1420  135.3090 F   0  0  0  0  0  0  0  0  0  0  0  0
  198.8200  171.5260  134.6590 F   0  0  0  0  0  0  0  0  0  0  0  0
  198.1020  172.3400  135.5190 C   0  0  0  0  0  3  0  0  0  0  0  0
  182.3710  177.4510  137.9130 C   0  0  0  0  0  2  0  0  0  0  0  0
  182.0020  176.8930  136.5160 C   0  0  1  0  0  3  0  0  0  0  0  0
  181.7040  173.3010  137.4110 C   0  0  0  0  0  2  0  0  0  0  0  0
  180.4820  175.3320  137.5880 O   0  0  0  0  0  0  0  0  0  0  0  0
  182.5040  174.4420  136.8520 C   0  0  2  0  0  3  0  0  0  0  0  0
  181.4360  175.4730  136.5720 C   0  0  2  0  0  3  0  0  0  0  0  0
  180.3880  173.9440  137.8480 C   0  0  1  0  0  3  0  0  0  0  0  0
  179.2300  173.3360  137.0670 C   0  0  0  0  0  2  0  0  0  0  0  0
  179.2650  171.9440  137.0950 O   0  0  0  0  0  1  0  0  0  0  0  0
  183.1910  174.0490  135.6160 N   0  0  0  0  0  2  0  0  0  0  0  0
  185.2360  173.1620  134.8660 O   0  0  0  0  0  0  0  0  0  0  0  0
  185.9130  174.3910  134.9910 C   0  0  0  0  0  2  0  0  0  0  0  0
  186.8850  174.3030  136.1380 C   0  0  0  0  0  2  0  0  0  0  0  0
  184.2900  173.0920  135.9080 C   0  0  1  0  0  0  0  0  0  0  0  0
  184.8250  173.3700  137.2140 O   0  0  0  0  0  0  0  0  0  0  0  0
  186.2560  173.4790  137.2590 C   0  0  1  0  0  3  0  0  0  0  0  0
  186.8610  172.2470  137.3900 O   0  0  0  0  0  1  0  0  0  0  0  0
  184.5420  170.7060  135.3430 O   0  0  0  0  0  1  0  0  0  0  0  0
  182.4650  171.6330  135.2680 O   0  0  0  0  0  1  0  0  0  0  0  0
  183.6990  171.6610  135.9200 C   0  0  0  0  0  3  0  0  0  0  0  0
  181.1490  179.1300  136.3110 O   0  0  0  0  0  1  0  0  0  0  0  0
  181.0850  177.8460  135.7730 C   0  0  0  0  0  2  0  0  0  0  0  0
  189.5290  176.6250  139.4840 C   0  0  0  0  0  2  0  0  0  0  0  0
  190.8180  176.8850  141.5550 C   0  0  1  0  0  3  0  0  0  0  0  0
  189.9200  177.6360  140.5630 C   0  0  2  0  0  3  0  0  0  0  0  0
  189.2490  177.7060  143.3400 C   0  0  2  0  0  3  0  0  0  0  0  0
  190.5220  178.3030  143.9330 C   0  0  2  0  0  3  0  0  0  0  0  0
  191.6260  177.8910  142.0920 O   0  0  0  0  0  0  0  0  0  0  0  0
  188.8730  176.6010  144.1470 O   0  0  0  0  0  0  0  0  0  0  0  0
  189.1860  177.9560  146.1390 C   0  0  2  0  0  3  0  0  0  0  0  0
  191.6750  177.6860  143.3820 O   0  0  0  0  0  0  0  0  0  0  0  0
  189.3340  177.0790  141.9020 C   0  0  2  0  0  3  0  0  0  0  0  0
  189.5660  176.6860  145.3720 C   0  0  2  0  0  3  0  0  0  0  0  0
  190.4990  177.8520  145.3770 C   0  0  1  0  0  3  0  0  0  0  0  0
  189.5020  177.7220  147.5860 C   0  0  2  0  0  3  0  0  0  0  0  0
  188.2770  177.3160  148.2950 C   0  0  0  0  0  2  0  0  0  0  0  0
  188.7850  178.6130  148.4140 O   0  0  0  0  0  0  0  0  0  0  0  0
  1 16  1  0  0  0  0
  1  2  1  1  0  0  0
  2 11  1  0  0  0  0
  2  9  1  0  0  0  0
  4  6  1  0  0  0  0
  5  3  1  6  0  0  0
  5 14  1  0  0  0  0
  5  1  1  0  0  0  0
  6 17  1  0  0  0  0
  6 13  2  0  0  0  0
  8  9  1  0  0  0  0
 10  4  1  0  0  0  0
 11  7  2  0  0  0  0
 12  4  2  0  0  0  0
 12 14  1  0  0  0  0
 13 52  1  0  0  0  0
 14 15  2  0  0  0  0
 15 13  1  0  0  0  0
 15 11  1  0  0  0  0
 16 30  1  1  0  0  0
 16  8  1  0  0  0  0
 18 17  1  0  0  0  0
 19 18  1  0  0  0  0
 21 19  1  0  0  0  0
 21 22  1  0  0  0  0
 21 20  1  1  0  0  0
 23 22  1  0  0  0  0
 24 23  1  0  0  0  0
 25 26  1  0  0  0  0
 25 24  1  0  0  0  0
 26 29  1  0  0  0  0
 27 29  1  0  0  0  0
 28 29  1  0  0  0  0
 31 51  1  1  0  0  0
 31 30  1  0  0  0  0
 32 36  1  0  0  0  0
 33 36  1  0  0  0  0
 34 39  1  6  0  0  0
 34 32  1  0  0  0  0
 35 31  1  1  0  0  0
 35 34  1  0  0  0  0
 35 33  1  0  0  0  0
 36 37  1  6  0  0  0
 37 38  1  0  0  0  0
 40 41  1  0  0  0  0
 40 43  1  0  0  0  0
 41 42  1  0  0  0  0
 42 45  1  0  0  0  0
 43 39  1  6  0  0  0
 43 49  1  0  0  0  0
 43 44  1  0  0  0  0
 44 45  1  0  0  0  0
 45 46  1  6  0  0  0
 47 49  1  0  0  0  0
 48 49  1  0  0  0  0
 51 50  1  0  0  0  0
 53 61  1  0  0  0  0
 53 57  1  1  0  0  0
 54 52  1  6  0  0  0
 54 53  1  0  0  0  0
 54 61  1  0  0  0  0
 55 56  1  0  0  0  0
 55 58  1  1  0  0  0
 56 60  1  6  0  0  0
 56 63  1  0  0  0  0
 57 60  1  0  0  0  0
 58 62  1  0  0  0  0
 59 64  1  1  0  0  0
 61 55  1  0  0  0  0
 62 63  1  0  0  0  0
 62 59  1  0  0  0  0
 63 59  1  0  0  0  0
 64 65  1  0  0  0  0
 64 66  1  0  0  0  0
 65 66  1  0  0  0  0
M  END
>  <MODEL>
6

>  <REMARK>
 VINA RESULT:      -4.6      2.392      4.345
  Name = 
  21 active torsions:
  status: ('A' for Active; 'I' for Inactive)
    1  A    between atoms: C_3  and  C_9
    2  A    between atoms: C_3  and  C_66
    3  A    between atoms: C_5  and  C_58
    4  A    between atoms: C_6  and  C_37
    5  A    between atoms: C_6  and  C_46
    6  A    between atoms: C_9  and  C_45
    7  A    between atoms: C_9  and  C_60
    8  A    between atoms: N_10  and  C_28
    9  A    between atoms: N_10  and  C_32
   10  A    between atoms: C_13  and  C_37
   11  A    between atoms: C_13  and  C_38
   12  A    between atoms: C_20  and  C_22
   13  A    between atoms: C_22  and  N_29
   14  A    between atoms: N_29  and  C_61
   15  A    between atoms: C_32  and  C_59
   16  A    between atoms: C_34  and  C_35
   17  A    between atoms: C_36  and  C_38
   18  A    between atoms: C_36  and  C_50
   19  A    between atoms: C_39  and  C_62
   20  A    between atoms: C_50  and  C_61
   21  A    between atoms: C_54  and  C_58
                            x       y       z     vdW  Elec       q    Type
                         _______ _______ _______ _____ _____    ______ ____

>  <TORSDO>
F 21

$$$$
