=
 OpenBabel11042412023D

 28 31  0  0  1  0  0  0  0  0999 V2000
  189.4470  176.9020  145.0910 N   0  0  0  0  0  0  0  0  0  0  0  0
  186.2130  178.4620  146.0080 C   0  0  0  0  0  3  0  0  0  0  0  0
  190.6810  176.6410  145.8100 C   0  0  0  0  0  3  0  0  0  0  0  0
  189.2100  176.6390  143.7560 C   0  0  0  0  0  0  0  0  0  0  0  0
  183.6940  178.5680  142.6920 C   0  0  0  0  0  3  0  0  0  0  0  0
  189.0210  177.6980  147.2880 C   0  0  0  0  0  3  0  0  0  0  0  0
  187.0230  177.5850  144.0190 C   0  0  0  0  0  0  0  0  0  0  0  0
  183.9880  179.1030  145.0610 C   0  0  0  0  0  3  0  0  0  0  0  0
  187.3050  177.8530  145.4050 C   0  0  1  0  0  3  0  0  0  0  0  0
  187.9600  176.9790  143.1900 C   0  0  0  0  0  3  0  0  0  0  0  0
  188.5440  177.4920  145.9070 C   0  0  0  0  0  0  0  0  0  0  0  0
  185.2700  178.5610  144.9850 C   0  0  0  0  0  0  0  0  0  0  0  0
  190.4400  177.1270  147.2450 C   0  0  0  0  0  3  0  0  0  0  0  0
  183.1970  179.1030  143.8980 C   0  0  0  0  0  3  0  0  0  0  0  0
  184.9880  178.0260  142.6280 C   0  0  0  0  0  3  0  0  0  0  0  0
  185.7510  178.0380  143.7940 C   0  0  0  0  0  0  0  0  0  0  0  0
  190.4450  176.3150  141.5410 N   0  0  0  0  0  2  0  0  0  0  0  0
  190.2270  175.9630  142.9130 C   0  0  0  0  0  0  0  0  0  0  0  0
  190.9210  175.0360  143.4080 O   0  0  0  0  0  0  0  0  0  0  0  0
  189.8740  177.4860  140.8960 C   0  0  0  0  0  2  0  0  0  0  0  0
  190.0860  177.3600  139.0960 S   0  0  0  0  0  0  0  0  0  0  0  0
  188.7890  178.5860  138.7620 C   0  0  0  0  0  2  0  0  0  0  0  0
  187.5170  178.2050  139.4980 C   0  0  0  0  0  2  0  0  0  0  0  0
  186.5700  177.8320  137.2920 C   0  0  0  0  0  2  0  0  0  0  0  0
  186.3610  178.1830  138.5540 C   0  0  0  0  0  0  0  0  0  0  0  0
  185.0210  178.6040  138.9990 C   0  0  0  0  0  0  0  0  0  0  0  0
  184.8400  179.7650  139.4530 O   0  0  0  0  0  1  0  0  0  0  0  0
  183.9460  177.7260  138.9240 O   0  0  0  0  0  0  0  0  0  0  0  0
  1  3  1  0  0  0  0
  1 11  1  0  0  0  0
  3 13  2  0  0  0  0
  4  1  1  0  0  0  0
  5 14  1  0  0  0  0
  7  9  1  0  0  0  0
  9 11  1  0  0  0  0
  9  2  1  6  0  0  0
 10  4  2  0  0  0  0
 10  7  1  0  0  0  0
 11  6  2  0  0  0  0
 12  8  1  0  0  0  0
 12  2  2  0  0  0  0
 13  6  1  0  0  0  0
 14  8  2  0  0  0  0
 15  5  2  0  0  0  0
 15 16  1  0  0  0  0
 16  7  2  0  0  0  0
 16 12  1  0  0  0  0
 17 18  1  0  0  0  0
 18 19  2  0  0  0  0
 18  4  1  0  0  0  0
 20 17  1  0  0  0  0
 21 20  1  0  0  0  0
 22 21  1  0  0  0  0
 22 23  1  0  0  0  0
 24 25  2  0  0  0  0
 25 26  1  0  0  0  0
 25 23  1  0  0  0  0
 26 27  1  0  0  0  0
 28 26  2  0  0  0  0
M  END
>  <MODEL>
1

>  <REMARK>
 VINA RESULT:      -9.4      0.000      0.000
  Name = 
  7 active torsions:
  status: ('A' for Active; 'I' for Inactive)
    1  A    between atoms: C_4  and  C_18
    2  A    between atoms: C_4  and  S_25
    3  A    between atoms: C_5  and  C_23
    4  A    between atoms: C_12  and  C_27
    5  A    between atoms: N_17  and  C_26
    6  A    between atoms: C_18  and  C_27
    7  A    between atoms: S_25  and  C_26
                            x       y       z     vdW  Elec       q    Type
                         _______ _______ _______ _____ _____    ______ ____

>  <TORSDO>
F 7

$$$$
=
 OpenBabel11042412023D

 28 31  0  0  1  0  0  0  0  0999 V2000
  189.3300  176.8650  144.9400 N   0  0  0  0  0  0  0  0  0  0  0  0
  186.1490  178.4160  146.0410 C   0  0  0  0  0  3  0  0  0  0  0  0
  190.5920  176.5770  145.5970 C   0  0  0  0  0  3  0  0  0  0  0  0
  189.0340  176.6410  143.6090 C   0  0  0  0  0  0  0  0  0  0  0  0
  183.4890  178.6290  142.8410 C   0  0  0  0  0  3  0  0  0  0  0  0
  189.0050  177.6010  147.1750 C   0  0  0  0  0  3  0  0  0  0  0  0
  186.8660  177.5900  143.9940 C   0  0  0  0  0  0  0  0  0  0  0  0
  183.8900  179.0950  145.2100 C   0  0  0  0  0  3  0  0  0  0  0  0
  187.2100  177.8180  145.3740 C   0  0  1  0  0  3  0  0  0  0  0  0
  187.7620  177.0040  143.1090 C   0  0  0  0  0  3  0  0  0  0  0  0
  188.4670  177.4360  145.8100 C   0  0  0  0  0  0  0  0  0  0  0  0
  185.1630  178.5490  145.0630 C   0  0  0  0  0  0  0  0  0  0  0  0
  190.4170  177.0240  147.0540 C   0  0  0  0  0  3  0  0  0  0  0  0
  183.0490  179.1320  144.0830 C   0  0  0  0  0  3  0  0  0  0  0  0
  184.7760  178.0820  142.7060 C   0  0  0  0  0  3  0  0  0  0  0  0
  185.5890  178.0560  143.8370 C   0  0  0  0  0  0  0  0  0  0  0  0
  190.4400  176.5810  141.4760 N   0  0  0  0  0  2  0  0  0  0  0  0
  190.0090  175.9830  142.7040 C   0  0  0  0  0  0  0  0  0  0  0  0
  190.4700  174.8530  143.0120 O   0  0  0  0  0  0  0  0  0  0  0  0
  190.1590  177.9550  141.0910 C   0  0  0  0  0  2  0  0  0  0  0  0
  189.0600  177.9730  139.6450 S   0  0  0  0  0  0  0  0  0  0  0  0
  189.7990  176.4690  138.9450 C   0  0  0  0  0  2  0  0  0  0  0  0
  190.6450  176.8250  137.7360 C   0  0  0  0  0  2  0  0  0  0  0  0
  191.7250  174.6640  137.4820 C   0  0  0  0  0  2  0  0  0  0  0  0
  191.8660  175.9670  137.6880 C   0  0  0  0  0  0  0  0  0  0  0  0
  193.1990  176.5450  137.9280 C   0  0  0  0  0  0  0  0  0  0  0  0
  193.5290  176.9190  139.0860 O   0  0  0  0  0  1  0  0  0  0  0  0
  194.1040  176.6850  136.8830 O   0  0  0  0  0  0  0  0  0  0  0  0
  1  3  1  0  0  0  0
  1 11  1  0  0  0  0
  3 13  2  0  0  0  0
  4  1  1  0  0  0  0
  5 14  1  0  0  0  0
  7  9  1  0  0  0  0
  9 11  1  0  0  0  0
  9  2  1  6  0  0  0
 10  4  2  0  0  0  0
 10  7  1  0  0  0  0
 11  6  2  0  0  0  0
 12  8  1  0  0  0  0
 12  2  2  0  0  0  0
 13  6  1  0  0  0  0
 14  8  2  0  0  0  0
 15  5  2  0  0  0  0
 15 16  1  0  0  0  0
 16  7  2  0  0  0  0
 16 12  1  0  0  0  0
 17 18  1  0  0  0  0
 18 19  2  0  0  0  0
 18  4  1  0  0  0  0
 20 17  1  0  0  0  0
 21 20  1  0  0  0  0
 22 21  1  0  0  0  0
 23 22  1  0  0  0  0
 24 25  2  0  0  0  0
 25 23  1  0  0  0  0
 25 26  1  0  0  0  0
 26 27  1  0  0  0  0
 28 26  2  0  0  0  0
M  END
>  <MODEL>
2

>  <REMARK>
 VINA RESULT:      -9.4      2.655      3.589
  Name = 
  7 active torsions:
  status: ('A' for Active; 'I' for Inactive)
    1  A    between atoms: C_4  and  C_18
    2  A    between atoms: C_4  and  S_25
    3  A    between atoms: C_5  and  C_23
    4  A    between atoms: C_12  and  C_27
    5  A    between atoms: N_17  and  C_26
    6  A    between atoms: C_18  and  C_27
    7  A    between atoms: S_25  and  C_26
                            x       y       z     vdW  Elec       q    Type
                         _______ _______ _______ _____ _____    ______ ____

>  <TORSDO>
F 7

$$$$
=
 OpenBabel11042412023D

 28 31  0  0  1  0  0  0  0  0999 V2000
  189.3050  176.8760  144.9220 N   0  0  0  0  0  0  0  0  0  0  0  0
  186.1330  178.4780  145.9740 C   0  0  0  0  0  3  0  0  0  0  0  0
  190.5660  176.6020  145.5860 C   0  0  0  0  0  3  0  0  0  0  0  0
  189.0060  176.6100  143.5990 C   0  0  0  0  0  0  0  0  0  0  0  0
  183.4720  178.6020  142.7710 C   0  0  0  0  0  3  0  0  0  0  0  0
  188.9860  177.6850  147.1320 C   0  0  0  0  0  3  0  0  0  0  0  0
  186.8440  177.5830  143.9540 C   0  0  0  0  0  0  0  0  0  0  0  0
  183.8770  179.1420  145.1230 C   0  0  0  0  0  3  0  0  0  0  0  0
  187.1910  177.8540  145.3260 C   0  0  2  0  0  3  0  0  0  0  0  0
  187.7370  176.9640  143.0880 C   0  0  0  0  0  3  0  0  0  0  0  0
  188.4460  177.4790  145.7740 C   0  0  0  0  0  0  0  0  0  0  0  0
  185.1470  178.5850  144.9930 C   0  0  0  0  0  0  0  0  0  0  0  0
  190.3950  177.0970  147.0280 C   0  0  0  0  0  3  0  0  0  0  0  0
  183.0350  179.1470  143.9960 C   0  0  0  0  0  3  0  0  0  0  0  0
  184.7560  178.0440  142.6530 C   0  0  0  0  0  3  0  0  0  0  0  0
  185.5690  178.0510  143.7840 C   0  0  0  0  0  0  0  0  0  0  0  0
  190.3310  176.4220  141.4210 N   0  0  0  0  0  2  0  0  0  0  0  0
  189.9770  175.9180  142.7150 C   0  0  0  0  0  0  0  0  0  0  0  0
  190.5050  174.8430  143.1020 O   0  0  0  0  0  0  0  0  0  0  0  0
  189.9670  177.7400  140.9270 C   0  0  0  0  0  2  0  0  0  0  0  0
  188.6370  177.5900  139.6990 S   0  0  0  0  0  0  0  0  0  0  0  0
  189.6660  178.2670  138.3640 C   0  0  0  0  0  2  0  0  0  0  0  0
  189.3100  177.5960  137.0490 C   0  0  0  0  0  2  0  0  0  0  0  0
  190.4890  176.3120  135.3570 C   0  0  0  0  0  2  0  0  0  0  0  0
  190.3980  176.6630  136.6330 C   0  0  0  0  0  0  0  0  0  0  0  0
  191.3180  176.0910  137.6300 C   0  0  0  0  0  0  0  0  0  0  0  0
  192.4500  176.6110  137.8210 O   0  0  0  0  0  0  0  0  0  0  0  0
  190.9480  174.9720  138.3690 O   0  0  0  0  0  1  0  0  0  0  0  0
  1  3  1  0  0  0  0
  1 11  1  0  0  0  0
  3 13  2  0  0  0  0
  4  1  1  0  0  0  0
  5 14  1  0  0  0  0
  7  9  1  0  0  0  0
  9 11  1  0  0  0  0
  9  2  1  1  0  0  0
 10  4  2  0  0  0  0
 10  7  1  0  0  0  0
 11  6  2  0  0  0  0
 12  8  1  0  0  0  0
 12  2  2  0  0  0  0
 13  6  1  0  0  0  0
 14  8  2  0  0  0  0
 15  5  2  0  0  0  0
 15 16  1  0  0  0  0
 16  7  2  0  0  0  0
 16 12  1  0  0  0  0
 17 18  1  0  0  0  0
 18 19  2  0  0  0  0
 18  4  1  0  0  0  0
 20 17  1  0  0  0  0
 21 20  1  0  0  0  0
 22 21  1  0  0  0  0
 23 22  1  0  0  0  0
 24 25  2  0  0  0  0
 25 23  1  0  0  0  0
 25 26  1  0  0  0  0
 26 27  2  0  0  0  0
 26 28  1  0  0  0  0
M  END
>  <MODEL>
3

>  <REMARK>
 VINA RESULT:      -9.0      2.400      2.886
  Name = 
  7 active torsions:
  status: ('A' for Active; 'I' for Inactive)
    1  A    between atoms: C_4  and  C_18
    2  A    between atoms: C_4  and  S_25
    3  A    between atoms: C_5  and  C_23
    4  A    between atoms: C_12  and  C_27
    5  A    between atoms: N_17  and  C_26
    6  A    between atoms: C_18  and  C_27
    7  A    between atoms: S_25  and  C_26
                            x       y       z     vdW  Elec       q    Type
                         _______ _______ _______ _____ _____    ______ ____

>  <TORSDO>
F 7

$$$$
=
 OpenBabel11042412023D

 28 31  0  0  1  0  0  0  0  0999 V2000
  189.6460  176.7830  145.1870 N   0  0  0  0  0  0  0  0  0  0  0  0
  186.5340  178.3000  146.5080 C   0  0  0  0  0  3  0  0  0  0  0  0
  190.9480  176.4910  145.7590 C   0  0  0  0  0  3  0  0  0  0  0  0
  189.2680  176.5780  143.8740 C   0  0  0  0  0  0  0  0  0  0  0  0
  183.6780  178.5480  143.4850 C   0  0  0  0  0  3  0  0  0  0  0  0
  189.4590  177.4820  147.4490 C   0  0  0  0  0  3  0  0  0  0  0  0
  187.1250  177.5100  144.4080 C   0  0  0  0  0  0  0  0  0  0  0  0
  184.2240  178.9790  145.8320 C   0  0  0  0  0  3  0  0  0  0  0  0
  187.5540  177.7180  145.7670 C   0  0  1  0  0  3  0  0  0  0  0  0
  187.9670  176.9420  143.4600 C   0  0  0  0  0  3  0  0  0  0  0  0
  188.8370  177.3360  146.1180 C   0  0  0  0  0  0  0  0  0  0  0  0
  185.4880  178.4420  145.5960 C   0  0  0  0  0  0  0  0  0  0  0  0
  190.8630  176.9150  147.2310 C   0  0  0  0  0  3  0  0  0  0  0  0
  183.3140  179.0290  144.7600 C   0  0  0  0  0  3  0  0  0  0  0  0
  184.9560  178.0100  143.2620 C   0  0  0  0  0  3  0  0  0  0  0  0
  185.8380  177.9710  144.3390 C   0  0  0  0  0  0  0  0  0  0  0  0
  190.5720  176.5770  141.6750 N   0  0  0  0  0  2  0  0  0  0  0  0
  190.1880  175.9390  142.9000 C   0  0  0  0  0  0  0  0  0  0  0  0
  190.6420  174.7910  143.1430 O   0  0  0  0  0  0  0  0  0  0  0  0
  190.2980  177.9690  141.3560 C   0  0  0  0  0  2  0  0  0  0  0  0
  188.7650  178.0860  140.3880 S   0  0  0  0  0  0  0  0  0  0  0  0
  189.3320  176.8680  139.1660 C   0  0  0  0  0  2  0  0  0  0  0  0
  188.1990  176.5250  138.2150 C   0  0  0  0  0  2  0  0  0  0  0  0
  186.4350  178.0310  137.4910 C   0  0  0  0  0  2  0  0  0  0  0  0
  187.7330  177.7520  137.5040 C   0  0  0  0  0  0  0  0  0  0  0  0
  188.6860  178.6050  136.7750 C   0  0  0  0  0  0  0  0  0  0  0  0
  188.9720  179.7520  137.2100 O   0  0  0  0  0  1  0  0  0  0  0  0
  189.2780  178.1540  135.6000 O   0  0  0  0  0  0  0  0  0  0  0  0
  1  3  1  0  0  0  0
  1 11  1  0  0  0  0
  3 13  2  0  0  0  0
  4  1  1  0  0  0  0
  5 14  1  0  0  0  0
  7  9  1  0  0  0  0
  9 11  1  0  0  0  0
  9  2  1  6  0  0  0
 10  4  2  0  0  0  0
 10  7  1  0  0  0  0
 11  6  2  0  0  0  0
 12  8  1  0  0  0  0
 12  2  2  0  0  0  0
 13  6  1  0  0  0  0
 14  8  2  0  0  0  0
 15  5  2  0  0  0  0
 15 16  1  0  0  0  0
 16  7  2  0  0  0  0
 16 12  1  0  0  0  0
 17 18  1  0  0  0  0
 18 19  2  0  0  0  0
 18  4  1  0  0  0  0
 20 17  1  0  0  0  0
 21 20  1  0  0  0  0
 22 21  1  0  0  0  0
 23 22  1  0  0  0  0
 24 25  2  0  0  0  0
 25 23  1  0  0  0  0
 26 27  1  0  0  0  0
 26 25  1  0  0  0  0
 28 26  2  0  0  0  0
M  END
>  <MODEL>
4

>  <REMARK>
 VINA RESULT:      -8.9      1.717      1.904
  Name = 
  7 active torsions:
  status: ('A' for Active; 'I' for Inactive)
    1  A    between atoms: C_4  and  C_18
    2  A    between atoms: C_4  and  S_25
    3  A    between atoms: C_5  and  C_23
    4  A    between atoms: C_12  and  C_27
    5  A    between atoms: N_17  and  C_26
    6  A    between atoms: C_18  and  C_27
    7  A    between atoms: S_25  and  C_26
                            x       y       z     vdW  Elec       q    Type
                         _______ _______ _______ _____ _____    ______ ____

>  <TORSDO>
F 7

$$$$
=
 OpenBabel11042412023D

 28 31  0  0  0  0  0  0  0  0999 V2000
  184.4290  178.7970  142.8580 N   0  0  0  0  0  0  0  0  0  0  0  0
  185.0930  178.2620  146.4640 C   0  0  0  0  0  3  0  0  0  0  0  0
  183.2250  179.0040  142.0730 C   0  0  0  0  0  3  0  0  0  0  0  0
  185.7160  178.6980  142.3650 C   0  0  0  0  0  0  0  0  0  0  0  0
  189.1730  177.6950  147.0900 C   0  0  0  0  0  3  0  0  0  0  0  0
  182.6790  178.7860  144.4630 C   0  0  0  0  0  3  0  0  0  0  0  0
  186.4830  178.3330  144.6070 C   0  0  0  0  0  0  0  0  0  0  0  0
  186.9440  177.8340  148.0910 C   0  0  0  0  0  3  0  0  0  0  0  0
  185.1280  178.4330  145.0860 C   0  0  0  0  0  0  0  0  0  0  0  0
  186.7870  178.4660  143.2570 C   0  0  0  0  0  3  0  0  0  0  0  0
  184.1200  178.6690  144.1680 C   0  0  0  0  0  0  0  0  0  0  0  0
  186.4270  178.0590  146.8160 C   0  0  0  0  0  0  0  0  0  0  0  0
  182.0680  179.0200  143.0800 C   0  0  0  0  0  3  0  0  0  0  0  0
  188.3330  177.6520  148.2220 C   0  0  0  0  0  3  0  0  0  0  0  0
  188.6390  177.9220  145.8100 C   0  0  0  0  0  2  0  0  0  0  0  0
  187.2610  178.1000  145.7080 C   0  0  0  0  0  0  0  0  0  0  0  0
  187.2620  178.5210  140.3370 N   0  0  0  0  0  2  0  0  0  0  0  0
  186.0020  178.8770  140.9190 C   0  0  0  0  0  0  0  0  0  0  0  0
  185.1160  179.3690  140.1720 O   0  0  0  0  0  0  0  0  0  0  0  0
  188.2960  177.7620  141.0210 C   0  0  0  0  0  2  0  0  0  0  0  0
  189.6150  177.3290  139.8510 S   0  0  0  0  0  0  0  0  0  0  0  0
  190.8240  177.0370  141.1750 C   0  0  0  0  0  2  0  0  0  0  0  0
  190.1400  177.1320  142.5270 C   0  0  0  0  0  2  0  0  0  0  0  0
  191.5870  178.6550  143.7470 C   0  0  0  0  0  2  0  0  0  0  0  0
  191.1440  177.4140  143.5950 C   0  0  0  0  0  0  0  0  0  0  0  0
  191.6820  176.3240  144.4260 C   0  0  0  0  0  0  0  0  0  0  0  0
  191.9240  175.1970  143.9150 O   0  0  0  0  0  0  0  0  0  0  0  0
  191.9270  176.5240  145.7800 O   0  0  0  0  0  1  0  0  0  0  0  0
  1 11  1  0  0  0  0
  2 12  1  0  0  0  0
  3  1  1  0  0  0  0
  3 13  2  0  0  0  0
  4  1  1  0  0  0  0
  4 10  2  0  0  0  0
  5 14  2  0  0  0  0
  7  9  1  0  0  0  0
  7 16  2  0  0  0  0
  8 14  1  0  0  0  0
  9  2  2  0  0  0  0
 10  7  1  0  0  0  0
 11  6  2  0  0  0  0
 11  9  1  0  0  0  0
 12  8  2  0  0  0  0
 13  6  1  0  0  0  0
 15  5  1  0  0  0  0
 16 15  1  0  0  0  0
 16 12  1  0  0  0  0
 17 18  1  0  0  0  0
 17 20  1  0  0  0  0
 18  4  1  0  0  0  0
 19 18  2  0  0  0  0
 21 20  1  0  0  0  0
 21 22  1  0  0  0  0
 22 23  1  0  0  0  0
 23 25  1  0  0  0  0
 25 24  2  0  0  0  0
 25 26  1  0  0  0  0
 26 28  1  0  0  0  0
 27 26  2  0  0  0  0
M  END
>  <MODEL>
5

>  <REMARK>
 VINA RESULT:      -8.8      1.989      5.963
  Name = 
  7 active torsions:
  status: ('A' for Active; 'I' for Inactive)
    1  A    between atoms: C_4  and  C_18
    2  A    between atoms: C_4  and  S_25
    3  A    between atoms: C_5  and  C_23
    4  A    between atoms: C_12  and  C_27
    5  A    between atoms: N_17  and  C_26
    6  A    between atoms: C_18  and  C_27
    7  A    between atoms: S_25  and  C_26
                            x       y       z     vdW  Elec       q    Type
                         _______ _______ _______ _____ _____    ______ ____

>  <TORSDO>
F 7

$$$$
=
 OpenBabel11042412023D

 28 31  0  0  1  0  0  0  0  0999 V2000
  189.6010  176.8090  145.0880 N   0  0  0  0  0  0  0  0  0  0  0  0
  186.4940  178.3190  146.4280 C   0  0  0  0  0  3  0  0  0  0  0  0
  190.9060  176.5150  145.6540 C   0  0  0  0  0  3  0  0  0  0  0  0
  189.2190  176.6100  143.7760 C   0  0  0  0  0  0  0  0  0  0  0  0
  183.6270  178.5800  143.4170 C   0  0  0  0  0  3  0  0  0  0  0  0
  189.4220  177.4990  147.3540 C   0  0  0  0  0  3  0  0  0  0  0  0
  187.0770  177.5390  144.3220 C   0  0  0  0  0  0  0  0  0  0  0  0
  184.1810  179.0010  145.7630 C   0  0  0  0  0  3  0  0  0  0  0  0
  187.5110  177.7410  145.6810 C   0  0  1  0  0  3  0  0  0  0  0  0
  187.9150  176.9750  143.3680 C   0  0  0  0  0  3  0  0  0  0  0  0
  188.7950  177.3580  146.0250 C   0  0  0  0  0  0  0  0  0  0  0  0
  185.4450  178.4660  145.5210 C   0  0  0  0  0  0  0  0  0  0  0  0
  190.8260  176.9330  147.1280 C   0  0  0  0  0  3  0  0  0  0  0  0
  183.2670  179.0560  144.6950 C   0  0  0  0  0  3  0  0  0  0  0  0
  184.9040  178.0440  143.1860 C   0  0  0  0  0  3  0  0  0  0  0  0
  185.7900  178.0000  144.2600 C   0  0  0  0  0  0  0  0  0  0  0  0
  190.3630  176.5250  141.4920 N   0  0  0  0  0  2  0  0  0  0  0  0
  190.1340  175.9760  142.7950 C   0  0  0  0  0  0  0  0  0  0  0  0
  190.7270  174.9100  143.1060 O   0  0  0  0  0  0  0  0  0  0  0  0
  189.9170  177.8430  141.0690 C   0  0  0  0  0  2  0  0  0  0  0  0
  188.4940  177.6800  139.9510 S   0  0  0  0  0  0  0  0  0  0  0  0
  189.2730  178.6910  138.6590 C   0  0  0  0  0  2  0  0  0  0  0  0
  189.4900  177.8550  137.4110 C   0  0  0  0  0  2  0  0  0  0  0  0
  187.4320  178.7000  136.4350 C   0  0  0  0  0  2  0  0  0  0  0  0
  188.1960  177.6470  136.6960 C   0  0  0  0  0  0  0  0  0  0  0  0
  187.7430  176.2920  136.3430 C   0  0  0  0  0  0  0  0  0  0  0  0
  187.4930  175.4500  137.2470 O   0  0  0  0  0  1  0  0  0  0  0  0
  187.5890  175.9250  135.0100 O   0  0  0  0  0  0  0  0  0  0  0  0
  1  3  1  0  0  0  0
  1 11  1  0  0  0  0
  3 13  2  0  0  0  0
  4  1  1  0  0  0  0
  5 14  1  0  0  0  0
  7  9  1  0  0  0  0
  9 11  1  0  0  0  0
  9  2  1  6  0  0  0
 10  4  2  0  0  0  0
 10  7  1  0  0  0  0
 11  6  2  0  0  0  0
 12  8  1  0  0  0  0
 12  2  2  0  0  0  0
 13  6  1  0  0  0  0
 14  8  2  0  0  0  0
 15  5  2  0  0  0  0
 15 16  1  0  0  0  0
 16  7  2  0  0  0  0
 16 12  1  0  0  0  0
 17 18  1  0  0  0  0
 18 19  2  0  0  0  0
 18  4  1  0  0  0  0
 20 17  1  0  0  0  0
 21 20  1  0  0  0  0
 22 21  1  0  0  0  0
 23 22  1  0  0  0  0
 24 25  2  0  0  0  0
 25 23  1  0  0  0  0
 26 25  1  0  0  0  0
 26 27  1  0  0  0  0
 28 26  2  0  0  0  0
M  END
>  <MODEL>
6

>  <REMARK>
 VINA RESULT:      -8.8      1.726      1.960
  Name = 
  7 active torsions:
  status: ('A' for Active; 'I' for Inactive)
    1  A    between atoms: C_4  and  C_18
    2  A    between atoms: C_4  and  S_25
    3  A    between atoms: C_5  and  C_23
    4  A    between atoms: C_12  and  C_27
    5  A    between atoms: N_17  and  C_26
    6  A    between atoms: C_18  and  C_27
    7  A    between atoms: S_25  and  C_26
                            x       y       z     vdW  Elec       q    Type
                         _______ _______ _______ _____ _____    ______ ____

>  <TORSDO>
F 7

$$$$
=
 OpenBabel11042412023D

 28 31  0  0  1  0  0  0  0  0999 V2000
  188.8490  177.6060  146.4860 N   0  0  0  0  0  0  0  0  0  0  0  0
  185.3010  178.6530  146.2690 C   0  0  0  0  0  3  0  0  0  0  0  0
  189.8040  177.4980  147.5740 C   0  0  0  0  0  3  0  0  0  0  0  0
  189.1030  177.3610  145.1500 C   0  0  0  0  0  0  0  0  0  0  0  0
  184.0180  178.5180  142.3070 C   0  0  0  0  0  3  0  0  0  0  0  0
  187.6160  178.2520  148.4100 C   0  0  0  0  0  3  0  0  0  0  0  0
  186.8360  177.9730  144.6670 C   0  0  0  0  0  0  0  0  0  0  0  0
  183.4390  179.0030  144.6350 C   0  0  0  0  0  3  0  0  0  0  0  0
  186.6070  178.2290  146.0660 C   0  0  1  0  0  3  0  0  0  0  0  0
  188.0710  177.5390  144.2010 C   0  0  0  0  0  3  0  0  0  0  0  0
  187.6520  178.0300  146.9520 C   0  0  0  0  0  0  0  0  0  0  0  0
  184.7400  178.6530  144.9910 C   0  0  0  0  0  0  0  0  0  0  0  0
  189.0380  177.8930  148.8430 C   0  0  0  0  0  3  0  0  0  0  0  0
  183.0810  178.9320  143.2770 C   0  0  0  0  0  3  0  0  0  0  0  0
  185.3270  178.1700  142.6800 C   0  0  0  0  0  3  0  0  0  0  0  0
  185.6560  178.2480  144.0310 C   0  0  0  0  0  0  0  0  0  0  0  0
  190.9140  177.0870  143.3680 N   0  0  0  0  0  2  0  0  0  0  0  0
  190.4280  176.8680  144.6980 C   0  0  0  0  0  0  0  0  0  0  0  0
  191.1520  176.2230  145.5000 O   0  0  0  0  0  0  0  0  0  0  0  0
  190.2910  177.9790  142.4040 C   0  0  0  0  0  2  0  0  0  0  0  0
  189.9760  177.0850  140.8550 S   0  0  0  0  0  0  0  0  0  0  0  0
  188.6190  178.1950  140.3790 C   0  0  0  0  0  2  0  0  0  0  0  0
  188.6960  178.4970  138.8930 C   0  0  0  0  0  2  0  0  0  0  0  0
  186.4250  178.2520  138.0650 C   0  0  0  0  0  2  0  0  0  0  0  0
  187.6450  177.7360  138.1560 C   0  0  0  0  0  0  0  0  0  0  0  0
  187.9350  176.4060  137.5940 C   0  0  0  0  0  0  0  0  0  0  0  0
  189.1280  176.0260  137.4500 O   0  0  0  0  0  1  0  0  0  0  0  0
  186.8990  175.5600  137.2160 O   0  0  0  0  0  0  0  0  0  0  0  0
  1 11  1  0  0  0  0
  1  3  1  0  0  0  0
  3 13  2  0  0  0  0
  4  1  1  0  0  0  0
  5 15  2  0  0  0  0
  5 14  1  0  0  0  0
  6 13  1  0  0  0  0
  7  9  1  0  0  0  0
  8 12  1  0  0  0  0
  9  2  1  6  0  0  0
  9 11  1  0  0  0  0
 10  7  1  0  0  0  0
 10  4  2  0  0  0  0
 11  6  2  0  0  0  0
 12  2  2  0  0  0  0
 14  8  2  0  0  0  0
 15 16  1  0  0  0  0
 16  7  2  0  0  0  0
 16 12  1  0  0  0  0
 17 18  1  0  0  0  0
 18  4  1  0  0  0  0
 18 19  2  0  0  0  0
 20 17  1  0  0  0  0
 21 20  1  0  0  0  0
 22 21  1  0  0  0  0
 23 22  1  0  0  0  0
 24 25  2  0  0  0  0
 25 23  1  0  0  0  0
 26 25  1  0  0  0  0
 27 26  1  0  0  0  0
 28 26  2  0  0  0  0
M  END
>  <MODEL>
7

>  <REMARK>
 VINA RESULT:      -8.6      1.800      2.085
  Name = 
  7 active torsions:
  status: ('A' for Active; 'I' for Inactive)
    1  A    between atoms: C_4  and  C_18
    2  A    between atoms: C_4  and  S_25
    3  A    between atoms: C_5  and  C_23
    4  A    between atoms: C_12  and  C_27
    5  A    between atoms: N_17  and  C_26
    6  A    between atoms: C_18  and  C_27
    7  A    between atoms: S_25  and  C_26
                            x       y       z     vdW  Elec       q    Type
                         _______ _______ _______ _____ _____    ______ ____

>  <TORSDO>
F 7

$$$$
=
 OpenBabel11042412023D

 28 31  0  0  0  0  0  0  0  0999 V2000
  183.6250  178.8040  142.2920 N   0  0  0  0  0  0  0  0  0  0  0  0
  185.6780  178.0450  145.2830 C   0  0  0  0  0  3  0  0  0  0  0  0
  182.2160  179.0840  142.0800 C   0  0  0  0  0  3  0  0  0  0  0  0
  184.5920  178.7030  141.3110 C   0  0  0  0  0  0  0  0  0  0  0  0
  189.6270  177.3460  144.1560 C   0  0  0  0  0  3  0  0  0  0  0  0
  182.6840  178.7410  144.4720 C   0  0  0  0  0  3  0  0  0  0  0  0
  186.1900  178.1910  143.0240 C   0  0  0  0  0  0  0  0  0  0  0  0
  188.0100  177.4800  145.9880 C   0  0  0  0  0  3  0  0  0  0  0  0
  185.1550  178.2950  144.0210 C   0  0  0  0  0  0  0  0  0  0  0  0
  185.9230  178.3940  141.6760 C   0  0  0  0  0  3  0  0  0  0  0  0
  183.8720  178.6070  143.6070 C   0  0  0  0  0  0  0  0  0  0  0  0
  187.0290  177.7900  145.0480 C   0  0  0  0  0  0  0  0  0  0  0  0
  181.5730  179.0690  143.4730 C   0  0  0  0  0  3  0  0  0  0  0  0
  189.3210  177.2570  145.5300 C   0  0  0  0  0  3  0  0  0  0  0  0
  188.6290  177.6590  143.2190 C   0  0  0  0  0  2  0  0  0  0  0  0
  187.3390  177.8760  143.6980 C   0  0  0  0  0  0  0  0  0  0  0  0
  183.6790  177.9620  139.0420 N   0  0  0  0  0  2  0  0  0  0  0  0
  184.2720  178.9580  139.8850 C   0  0  0  0  0  0  0  0  0  0  0  0
  184.5370  180.0820  139.3860 O   0  0  0  0  0  0  0  0  0  0  0  0
  183.1330  176.7030  139.5210 C   0  0  0  0  0  2  0  0  0  0  0  0
  183.2190  175.4560  138.2030 S   0  0  0  0  0  0  0  0  0  0  0  0
  184.0400  176.5940  137.0500 C   0  0  0  0  0  2  0  0  0  0  0  0
  185.4660  176.1370  136.8010 C   0  0  0  0  0  2  0  0  0  0  0  0
  186.4420  177.4620  135.0140 C   0  0  0  0  0  2  0  0  0  0  0  0
  186.2980  177.2790  136.3200 C   0  0  0  0  0  0  0  0  0  0  0  0
  187.0010  178.1500  137.2770 C   0  0  0  0  0  0  0  0  0  0  0  0
  187.2630  177.7370  138.4380 O   0  0  0  0  0  1  0  0  0  0  0  0
  187.3810  179.4370  136.9100 O   0  0  0  0  0  0  0  0  0  0  0  0
  1 11  1  0  0  0  0
  3  1  1  0  0  0  0
  3 13  2  0  0  0  0
  4 10  2  0  0  0  0
  4  1  1  0  0  0  0
  5 14  2  0  0  0  0
  7 16  2  0  0  0  0
  7  9  1  0  0  0  0
  9  2  2  0  0  0  0
 10  7  1  0  0  0  0
 11  9  1  0  0  0  0
 11  6  2  0  0  0  0
 12  2  1  0  0  0  0
 12  8  2  0  0  0  0
 13  6  1  0  0  0  0
 14  8  1  0  0  0  0
 15 16  1  0  0  0  0
 15  5  1  0  0  0  0
 16 12  1  0  0  0  0
 17 20  1  0  0  0  0
 17 18  1  0  0  0  0
 18  4  1  0  0  0  0
 19 18  2  0  0  0  0
 21 20  1  0  0  0  0
 22 21  1  0  0  0  0
 23 22  1  0  0  0  0
 24 25  2  0  0  0  0
 25 23  1  0  0  0  0
 25 26  1  0  0  0  0
 26 27  1  0  0  0  0
 28 26  2  0  0  0  0
M  END
>  <MODEL>
8

>  <REMARK>
 VINA RESULT:      -8.5      2.967      5.563
  Name = 
  7 active torsions:
  status: ('A' for Active; 'I' for Inactive)
    1  A    between atoms: C_4  and  C_18
    2  A    between atoms: C_4  and  S_25
    3  A    between atoms: C_5  and  C_23
    4  A    between atoms: C_12  and  C_27
    5  A    between atoms: N_17  and  C_26
    6  A    between atoms: C_18  and  C_27
    7  A    between atoms: S_25  and  C_26
                            x       y       z     vdW  Elec       q    Type
                         _______ _______ _______ _____ _____    ______ ____

>  <TORSDO>
F 7

$$$$
=
 OpenBabel11042412023D

 28 31  0  0  1  0  0  0  0  0999 V2000
  186.7490  178.2760  139.9270 N   0  0  0  0  0  0  0  0  0  0  0  0
  184.1320  178.7100  142.5150 C   0  0  0  0  0  3  0  0  0  0  0  0
  186.7380  178.2530  138.4760 C   0  0  0  0  0  3  0  0  0  0  0  0
  187.8490  178.0720  140.7370 C   0  0  0  0  0  0  0  0  0  0  0  0
  185.8200  178.3880  146.3110 C   0  0  0  0  0  3  0  0  0  0  0  0
  184.4750  178.6580  139.3550 C   0  0  0  0  0  3  0  0  0  0  0  0
  186.4150  178.3160  142.6440 C   0  0  0  0  0  0  0  0  0  0  0  0
  183.7900  178.7490  144.9930 C   0  0  0  0  0  3  0  0  0  0  0  0
  185.2880  178.5170  141.7700 C   0  0  0  0  0  0  0  0  0  0  0  0
  187.6920  178.0960  142.1420 C   0  0  0  0  0  3  0  0  0  0  0  0
  185.5010  178.4890  140.4030 C   0  0  0  0  0  0  0  0  0  0  0  0
  184.5620  178.6260  143.8400 C   0  0  1  0  0  3  0  0  0  0  0  0
  185.2830  178.5140  138.0640 C   0  0  0  0  0  3  0  0  0  0  0  0
  184.4320  178.6280  146.2380 C   0  0  0  0  0  3  0  0  0  0  0  0
  186.5870  178.2650  145.1410 C   0  0  0  0  0  3  0  0  0  0  0  0
  185.9270  178.3900  143.9200 C   0  0  0  0  0  0  0  0  0  0  0  0
  190.2990  177.3690  140.9350 N   0  0  0  0  0  2  0  0  0  0  0  0
  189.2020  177.8720  140.1620 C   0  0  0  0  0  0  0  0  0  0  0  0
  189.4070  178.1630  138.9540 O   0  0  0  0  0  0  0  0  0  0  0  0
  190.1690  176.8030  142.2680 C   0  0  0  0  0  2  0  0  0  0  0  0
  191.6800  177.1280  143.2220 S   0  0  0  0  0  0  0  0  0  0  0  0
  190.7800  178.0200  144.5220 C   0  0  0  0  0  2  0  0  0  0  0  0
  189.8280  177.0750  145.2320 C   0  0  0  0  0  2  0  0  0  0  0  0
  189.2490  177.4500  147.5620 C   0  0  0  0  0  2  0  0  0  0  0  0
  190.1480  177.0140  146.6880 C   0  0  0  0  0  0  0  0  0  0  0  0
  191.4640  176.5390  147.1480 C   0  0  0  0  0  0  0  0  0  0  0  0
  192.0410  175.5920  146.5490 O   0  0  0  0  0  0  0  0  0  0  0  0
  192.0820  177.1280  148.2460 O   0  0  0  0  0  1  0  0  0  0  0  0
  1 11  1  0  0  0  0
  1  4  1  0  0  0  0
  3  1  1  0  0  0  0
  4 10  2  0  0  0  0
  6 11  2  0  0  0  0
  7 16  2  0  0  0  0
  8 14  2  0  0  0  0
  9  2  2  0  0  0  0
  9  7  1  0  0  0  0
 10  7  1  0  0  0  0
 11  9  1  0  0  0  0
 12  2  1  6  0  0  0
 12 16  1  0  0  0  0
 12  8  1  0  0  0  0
 13  3  2  0  0  0  0
 13  6  1  0  0  0  0
 14  5  1  0  0  0  0
 15  5  2  0  0  0  0
 16 15  1  0  0  0  0
 17 20  1  0  0  0  0
 18  4  1  0  0  0  0
 18 17  1  0  0  0  0
 19 18  2  0  0  0  0
 20 21  1  0  0  0  0
 21 22  1  0  0  0  0
 22 23  1  0  0  0  0
 23 25  1  0  0  0  0
 25 26  1  0  0  0  0
 25 24  2  0  0  0  0
 26 28  1  0  0  0  0
 27 26  2  0  0  0  0
M  END
>  <MODEL>
9

>  <REMARK>
 VINA RESULT:      -8.5      2.158      6.433
  Name = 
  7 active torsions:
  status: ('A' for Active; 'I' for Inactive)
    1  A    between atoms: C_4  and  C_18
    2  A    between atoms: C_4  and  S_25
    3  A    between atoms: C_5  and  C_23
    4  A    between atoms: C_12  and  C_27
    5  A    between atoms: N_17  and  C_26
    6  A    between atoms: C_18  and  C_27
    7  A    between atoms: S_25  and  C_26
                            x       y       z     vdW  Elec       q    Type
                         _______ _______ _______ _____ _____    ______ ____

>  <TORSDO>
F 7

$$$$
