=
 OpenBabel11032420183D

 32 34  0  0  1  0  0  0  0  0999 V2000
  188.1910  178.2560  141.2630 C   0  0  0  0  0  0  0  0  0  0  0  0
  190.1110  177.7470  142.6340 N   0  0  0  0  0  0  0  0  0  0  0  0
  188.1320  179.1240  136.8560 O   0  0  0  0  0  0  0  0  0  0  0  0
  188.8280  178.8660  139.0710 N   0  0  0  0  0  0  0  0  0  0  0  0
  187.8530  178.7150  139.9020 C   0  0  0  0  0  0  0  0  0  0  0  0
  189.5030  177.5960  141.4940 C   0  0  0  0  0  0  0  0  0  0  0  0
  191.3600  175.2550  137.9320 S   0  0  0  0  0  0  0  0  0  0  0  0
  190.9220  177.0150  138.1060 C   0  0  1  0  0  3  0  0  0  0  0  0
  186.4780  178.7520  139.5000 N   0  0  0  0  0  0  0  0  0  0  0  0
  185.4660  178.6990  140.5180 C   0  0  0  0  0  3  0  0  0  0  0  0
  188.7580  176.0220  137.4800 C   0  0  0  0  0  2  0  0  0  0  0  0
  188.8250  178.5010  137.7050 C   0  0  0  0  0  0  0  0  0  0  0  0
  189.6030  177.2700  137.3290 C   0  0  1  0  0  3  0  0  0  0  0  0
  190.9690  177.4540  139.5200 N   0  0  0  0  0  2  0  0  0  0  0  0
  187.2050  178.1390  142.1610 C   0  0  0  0  0  3  0  0  0  0  0  0
  185.8000  178.4380  141.7920 C   0  0  0  0  0  2  0  0  0  0  0  0
  189.6800  174.8160  137.3590 C   0  0  1  0  0  3  0  0  0  0  0  0
  190.0720  176.6990  140.4030 C   0  0  0  0  0  2  0  0  0  0  0  0
  189.7220  174.3320  135.9460 C   0  0  0  0  0  0  0  0  0  0  0  0
  190.8040  174.6350  135.1250 O   0  0  0  0  0  0  0  0  0  0  0  0
  188.7650  173.6490  135.4930 O   0  0  0  0  0  1  0  0  0  0  0  0
  191.3850  177.1140  142.9650 C   0  0  0  0  0  2  0  0  0  0  0  0
  191.2660  176.2610  144.2170 C   0  0  0  0  0  2  0  0  0  0  0  0
  190.5970  177.0380  145.3420 C   0  0  0  0  0  2  0  0  0  0  0  0
  188.2510  177.5940  146.1290 C   0  0  0  0  0  0  0  0  0  0  0  0
  188.6930  178.0870  147.2020 O   0  0  0  0  0  0  0  0  0  0  0  0
  189.1520  177.0690  145.1470 N   0  0  0  0  0  2  0  0  0  0  0  0
  186.7730  177.4920  145.9270 C   0  0  0  0  0  2  0  0  0  0  0  0
  186.0750  178.8280  146.1450 C   0  0  2  0  0  3  0  0  0  0  0  0
  185.5320  178.8730  147.4300 O   0  0  0  0  0  1  0  0  0  0  0  0
  183.7290  179.0390  145.7550 O   0  0  0  0  0  1  0  0  0  0  0  0
  184.9700  178.9580  145.1190 C   0  0  0  0  0  2  0  0  0  0  0  0
  1  6  1  0  0  0  0
  1 15  2  0  0  0  0
  2 22  1  0  0  0  0
  3 12  2  0  0  0  0
  4  5  2  0  0  0  0
  5  1  1  0  0  0  0
  6  2  2  0  0  0  0
  8  7  1  1  0  0  0
  8 14  1  0  0  0  0
  9  5  1  0  0  0  0
  9 10  2  0  0  0  0
 10 16  1  0  0  0  0
 12  4  1  0  0  0  0
 13 11  1  1  0  0  0
 13 12  1  0  0  0  0
 13  8  1  0  0  0  0
 14 18  1  0  0  0  0
 16 15  1  0  0  0  0
 17 19  1  6  0  0  0
 17 11  1  0  0  0  0
 17  7  1  0  0  0  0
 18  6  1  0  0  0  0
 20 19  2  0  0  0  0
 21 19  1  0  0  0  0
 22 23  1  0  0  0  0
 23 24  1  0  0  0  0
 25 26  2  0  0  0  0
 27 24  1  0  0  0  0
 27 25  1  0  0  0  0
 28 25  1  0  0  0  0
 28 29  1  0  0  0  0
 29 30  1  1  0  0  0
 32 31  1  0  0  0  0
 32 29  1  0  0  0  0
M  END
>  <MODEL>
1

>  <REMARK>
 VINA RESULT:      -8.0      0.000      0.000
  Name = 
  8 active torsions:
  status: ('A' for Active; 'I' for Inactive)
    1  A    between atoms: N_2  and  C_10
    2  A    between atoms: C_3  and  C_32
    3  A    between atoms: C_5  and  C_10
    4  A    between atoms: C_5  and  C_17
    5  A    between atoms: C_9  and  C_30
    6  A    between atoms: C_16  and  C_28
    7  A    between atoms: C_16  and  C_32
    8  A    between atoms: C_17  and  N_22
                            x       y       z     vdW  Elec       q    Type
                         _______ _______ _______ _____ _____    ______ ____

>  <TORSDO>
F 8

$$$$
=
 OpenBabel11032420183D

 32 34  0  0  1  0  0  0  0  0999 V2000
  186.5000  178.5980  141.4510 C   0  0  0  0  0  0  0  0  0  0  0  0
  188.7070  178.4630  140.4840 N   0  0  0  0  0  0  0  0  0  0  0  0
  182.6690  179.6990  139.3810 O   0  0  0  0  0  0  0  0  0  0  0  0
  184.9310  179.4730  139.9160 N   0  0  0  0  0  0  0  0  0  0  0  0
  185.1360  179.0510  141.1180 C   0  0  0  0  0  0  0  0  0  0  0  0
  187.4310  178.2460  140.3480 C   0  0  0  0  0  0  0  0  0  0  0  0
  185.5500  176.6200  136.4190 S   0  0  0  0  0  0  0  0  0  0  0  0
  185.3420  178.2180  137.2710 C   0  0  1  0  0  3  0  0  0  0  0  0
  184.0710  178.7940  142.0410 N   0  0  0  0  0  0  0  0  0  0  0  0
  184.4070  178.4470  143.3940 C   0  0  0  0  0  3  0  0  0  0  0  0
  183.7470  176.7930  138.4880 C   0  0  0  0  0  2  0  0  0  0  0  0
  183.7970  179.2010  139.1170 C   0  0  0  0  0  0  0  0  0  0  0  0
  183.9740  178.2080  138.0010 C   0  0  1  0  0  3  0  0  0  0  0  0
  186.5360  178.5680  138.0760 N   0  0  0  0  0  2  0  0  0  0  0  0
  186.7530  178.2020  142.7050 C   0  0  0  0  0  3  0  0  0  0  0  0
  185.6820  178.1920  143.7310 C   0  0  0  0  0  2  0  0  0  0  0  0
  184.2130  175.8420  137.3940 C   0  0  1  0  0  3  0  0  0  0  0  0
  186.8680  177.5730  139.1030 C   0  0  0  0  0  2  0  0  0  0  0  0
  183.0700  175.4680  136.5070 C   0  0  0  0  0  0  0  0  0  0  0  0
  181.7600  175.5360  136.9730 O   0  0  0  0  0  1  0  0  0  0  0  0
  183.2970  175.0810  135.3300 O   0  0  0  0  0  0  0  0  0  0  0  0
  189.7010  178.1210  139.4690 C   0  0  0  0  0  2  0  0  0  0  0  0
  190.5970  176.9870  139.9380 C   0  0  0  0  0  2  0  0  0  0  0  0
  191.3770  177.3900  141.1820 C   0  0  0  0  0  2  0  0  0  0  0  0
  190.3460  177.5160  143.4950 C   0  0  0  0  0  0  0  0  0  0  0  0
  190.3970  178.7760  143.4850 O   0  0  0  0  0  0  0  0  0  0  0  0
  190.8030  176.7630  142.3660 N   0  0  0  0  0  2  0  0  0  0  0  0
  189.8750  176.8160  144.7300 C   0  0  0  0  0  2  0  0  0  0  0  0
  190.4980  177.4020  145.9900 C   0  0  2  0  0  3  0  0  0  0  0  0
  191.8400  177.0270  146.0710 O   0  0  0  0  0  1  0  0  0  0  0  0
  189.3300  177.9110  148.0090 O   0  0  0  0  0  1  0  0  0  0  0  0
  189.7430  176.8620  147.1860 C   0  0  0  0  0  2  0  0  0  0  0  0
  1 15  2  0  0  0  0
  4  5  2  0  0  0  0
  5  1  1  0  0  0  0
  5  9  1  0  0  0  0
  6  2  2  0  0  0  0
  6  1  1  0  0  0  0
  7 17  1  0  0  0  0
  8  7  1  1  0  0  0
  8 13  1  0  0  0  0
  8 14  1  0  0  0  0
  9 10  2  0  0  0  0
 10 16  1  0  0  0  0
 12  3  2  0  0  0  0
 12  4  1  0  0  0  0
 13 11  1  1  0  0  0
 13 12  1  0  0  0  0
 14 18  1  0  0  0  0
 15 16  1  0  0  0  0
 17 19  1  6  0  0  0
 17 11  1  0  0  0  0
 18  6  1  0  0  0  0
 19 20  1  0  0  0  0
 21 19  2  0  0  0  0
 22 23  1  0  0  0  0
 22  2  1  0  0  0  0
 23 24  1  0  0  0  0
 24 27  1  0  0  0  0
 25 28  1  0  0  0  0
 26 25  2  0  0  0  0
 27 25  1  0  0  0  0
 28 29  1  0  0  0  0
 29 30  1  1  0  0  0
 29 32  1  0  0  0  0
 32 31  1  0  0  0  0
M  END
>  <MODEL>
2

>  <REMARK>
 VINA RESULT:      -7.3      3.214      4.786
  Name = 
  8 active torsions:
  status: ('A' for Active; 'I' for Inactive)
    1  A    between atoms: N_2  and  C_10
    2  A    between atoms: C_3  and  C_32
    3  A    between atoms: C_5  and  C_10
    4  A    between atoms: C_5  and  C_17
    5  A    between atoms: C_9  and  C_30
    6  A    between atoms: C_16  and  C_28
    7  A    between atoms: C_16  and  C_32
    8  A    between atoms: C_17  and  N_22
                            x       y       z     vdW  Elec       q    Type
                         _______ _______ _______ _____ _____    ______ ____

>  <TORSDO>
F 8

$$$$
=
 OpenBabel11032420183D

 32 34  0  0  1  0  0  0  0  0999 V2000
  188.4480  177.3640  139.1030 C   0  0  0  0  0  0  0  0  0  0  0  0
  186.6480  178.6000  140.1310 N   0  0  0  0  0  0  0  0  0  0  0  0
  192.8090  177.4890  140.1690 O   0  0  0  0  0  0  0  0  0  0  0  0
  190.5530  178.0440  139.9340 N   0  0  0  0  0  0  0  0  0  0  0  0
  189.9210  177.2880  139.1010 C   0  0  0  0  0  0  0  0  0  0  0  0
  187.7590  177.9410  140.2870 C   0  0  0  0  0  0  0  0  0  0  0  0
  189.8730  177.4880  144.4040 S   0  0  0  0  0  0  0  0  0  0  0  0
  190.4040  178.3230  142.8730 C   0  0  1  0  0  3  0  0  0  0  0  0
  190.5640  176.2410  138.3630 N   0  0  0  0  0  2  0  0  0  0  0  0
  189.8020  175.5380  137.3690 C   0  0  0  0  0  3  0  0  0  0  0  0
  191.0460  175.9920  142.4170 C   0  0  0  0  0  2  0  0  0  0  0  0
  191.6830  177.6800  140.7020 C   0  0  0  0  0  0  0  0  0  0  0  0
  191.4560  177.4280  142.1670 C   0  0  1  0  0  3  0  0  0  0  0  0
  189.2470  178.7730  142.0650 N   0  0  0  0  0  2  0  0  0  0  0  0
  187.7690  176.6270  138.2150 C   0  0  0  0  0  3  0  0  0  0  0  0
  188.4780  175.7330  137.2670 C   0  0  0  0  0  3  0  0  0  0  0  0
  190.5670  175.8860  143.8580 C   0  0  1  0  0  3  0  0  0  0  0  0
  188.3450  177.6850  141.6700 C   0  0  0  0  0  2  0  0  0  0  0  0
  191.6900  175.4740  144.7530 C   0  0  0  0  0  0  0  0  0  0  0  0
  191.9700  176.1900  145.9140 O   0  0  0  0  0  1  0  0  0  0  0  0
  192.3940  174.4750  144.4480 O   0  0  0  0  0  0  0  0  0  0  0  0
  185.8840  179.1740  141.2360 C   0  0  0  0  0  2  0  0  0  0  0  0
  184.5260  178.5050  141.3720 C   0  0  0  0  0  2  0  0  0  0  0  0
  184.0960  178.4390  142.8310 C   0  0  0  0  0  2  0  0  0  0  0  0
  185.2410  178.5430  145.0910 C   0  0  0  0  0  0  0  0  0  0  0  0
  184.1910  178.9750  145.6390 O   0  0  0  0  0  0  0  0  0  0  0  0
  185.2550  178.2370  143.6920 N   0  0  0  0  0  2  0  0  0  0  0  0
  186.4930  178.4270  145.9010 C   0  0  0  0  0  2  0  0  0  0  0  0
  186.2260  178.6090  147.3890 C   0  0  2  0  0  3  0  0  0  0  0  0
  185.9450  179.9490  147.6580 O   0  0  0  0  0  1  0  0  0  0  0  0
  187.9820  177.0050  147.6090 O   0  0  0  0  0  1  0  0  0  0  0  0
  187.4670  178.1860  148.1470 C   0  0  0  0  0  2  0  0  0  0  0  0
  1  6  1  0  0  0  0
  2  6  2  0  0  0  0
  2 22  1  0  0  0  0
  3 12  2  0  0  0  0
  4 12  1  0  0  0  0
  5  1  1  0  0  0  0
  5  4  2  0  0  0  0
  6 18  1  0  0  0  0
  8 14  1  6  0  0  0
  8  7  1  0  0  0  0
  9  5  1  0  0  0  0
 10  9  1  0  0  0  0
 11 17  1  0  0  0  0
 12 13  1  0  0  0  0
 13 11  1  6  0  0  0
 13  8  1  0  0  0  0
 15  1  2  0  0  0  0
 16 10  2  0  0  0  0
 16 15  1  0  0  0  0
 17  7  1  0  0  0  0
 17 19  1  1  0  0  0
 18 14  1  0  0  0  0
 19 20  1  0  0  0  0
 21 19  2  0  0  0  0
 22 23  1  0  0  0  0
 23 24  1  0  0  0  0
 24 27  1  0  0  0  0
 25 26  2  0  0  0  0
 25 28  1  0  0  0  0
 27 25  1  0  0  0  0
 28 29  1  0  0  0  0
 29 30  1  6  0  0  0
 29 32  1  0  0  0  0
 31 32  1  0  0  0  0
M  END
>  <MODEL>
3

>  <REMARK>
 VINA RESULT:      -7.3      2.682      5.430
  Name = 
  8 active torsions:
  status: ('A' for Active; 'I' for Inactive)
    1  A    between atoms: N_2  and  C_10
    2  A    between atoms: C_3  and  C_32
    3  A    between atoms: C_5  and  C_10
    4  A    between atoms: C_5  and  C_17
    5  A    between atoms: C_9  and  C_30
    6  A    between atoms: C_16  and  C_28
    7  A    between atoms: C_16  and  C_32
    8  A    between atoms: C_17  and  N_22
                            x       y       z     vdW  Elec       q    Type
                         _______ _______ _______ _____ _____    ______ ____

>  <TORSDO>
F 8

$$$$
=
 OpenBabel11032420183D

 32 34  0  0  1  0  0  0  0  0999 V2000
  189.0830  176.0600  137.3760 C   0  0  0  0  0  0  0  0  0  0  0  0
  187.0590  177.3140  136.9790 N   0  0  0  0  0  0  0  0  0  0  0  0
  192.4940  177.1580  140.0840 O   0  0  0  0  0  0  0  0  0  0  0  0
  190.6090  177.2750  138.7100 N   0  0  0  0  0  0  0  0  0  0  0  0
  190.3940  176.1950  138.0380 C   0  0  0  0  0  0  0  0  0  0  0  0
  187.9550  176.9130  137.8340 C   0  0  0  0  0  0  0  0  0  0  0  0
  187.9630  178.2310  142.2920 S   0  0  0  0  0  0  0  0  0  0  0  0
  189.1590  178.5430  140.9520 C   0  0  1  0  0  3  0  0  0  0  0  0
  191.2620  175.0560  138.1020 N   0  0  0  0  0  2  0  0  0  0  0  0
  191.0060  173.9500  137.2230 C   0  0  0  0  0  3  0  0  0  0  0  0
  189.8520  176.3130  141.7310 C   0  0  0  0  0  2  0  0  0  0  0  0
  191.2560  177.3640  139.9640 C   0  0  0  0  0  0  0  0  0  0  0  0
  190.3820  177.6130  141.1630 C   0  0  1  0  0  3  0  0  0  0  0  0
  188.5090  178.5150  139.6220 N   0  0  0  0  0  2  0  0  0  0  0  0
  188.8520  174.9720  136.6310 C   0  0  0  0  0  3  0  0  0  0  0  0
  189.8790  173.9110  136.4940 C   0  0  0  0  0  3  0  0  0  0  0  0
  188.7690  176.6540  142.7460 C   0  0  1  0  0  3  0  0  0  0  0  0
  187.8430  177.2430  139.3170 C   0  0  0  0  0  2  0  0  0  0  0  0
  189.3520  176.7420  144.1190 C   0  0  0  0  0  0  0  0  0  0  0  0
  188.5480  177.0660  145.2090 O   0  0  0  0  0  1  0  0  0  0  0  0
  190.5810  176.5290  144.2890 O   0  0  0  0  0  0  0  0  0  0  0  0
  185.9000  178.1270  137.3410 C   0  0  0  0  0  2  0  0  0  0  0  0
  184.7110  177.2540  137.7080 C   0  0  0  0  0  2  0  0  0  0  0  0
  183.6180  178.0790  138.3740 C   0  0  0  0  0  2  0  0  0  0  0  0
  184.2890  178.5870  140.7660 C   0  0  0  0  0  0  0  0  0  0  0  0
  184.9670  179.5850  140.3980 O   0  0  0  0  0  0  0  0  0  0  0  0
  183.5740  177.8020  139.8040 N   0  0  0  0  0  2  0  0  0  0  0  0
  184.3030  178.1870  142.2060 C   0  0  0  0  0  2  0  0  0  0  0  0
  183.8830  179.3310  143.1190 C   0  0  2  0  0  3  0  0  0  0  0  0
  185.0130  179.9200  143.6890 O   0  0  0  0  0  1  0  0  0  0  0  0
  183.5030  179.1050  145.4660 O   0  0  0  0  0  1  0  0  0  0  0  0
  182.9980  178.7650  144.2100 C   0  0  0  0  0  2  0  0  0  0  0  0
  1  6  1  0  0  0  0
  1  5  1  0  0  0  0
  2 22  1  0  0  0  0
  2  6  2  0  0  0  0
  4 12  1  0  0  0  0
  5  9  1  0  0  0  0
  5  4  2  0  0  0  0
  6 18  1  0  0  0  0
  7 17  1  0  0  0  0
  8 14  1  6  0  0  0
  8 13  1  0  0  0  0
  8  7  1  0  0  0  0
 10  9  1  0  0  0  0
 11 17  1  0  0  0  0
 12  3  2  0  0  0  0
 12 13  1  0  0  0  0
 13 11  1  6  0  0  0
 15  1  2  0  0  0  0
 16 15  1  0  0  0  0
 16 10  2  0  0  0  0
 17 19  1  1  0  0  0
 18 14  1  0  0  0  0
 19 21  2  0  0  0  0
 19 20  1  0  0  0  0
 22 23  1  0  0  0  0
 23 24  1  0  0  0  0
 24 27  1  0  0  0  0
 25 28  1  0  0  0  0
 26 25  2  0  0  0  0
 27 25  1  0  0  0  0
 28 29  1  0  0  0  0
 29 30  1  1  0  0  0
 29 32  1  0  0  0  0
 32 31  1  0  0  0  0
M  END
>  <MODEL>
4

>  <REMARK>
 VINA RESULT:      -7.0      2.937      6.216
  Name = 
  8 active torsions:
  status: ('A' for Active; 'I' for Inactive)
    1  A    between atoms: N_2  and  C_10
    2  A    between atoms: C_3  and  C_32
    3  A    between atoms: C_5  and  C_10
    4  A    between atoms: C_5  and  C_17
    5  A    between atoms: C_9  and  C_30
    6  A    between atoms: C_16  and  C_28
    7  A    between atoms: C_16  and  C_32
    8  A    between atoms: C_17  and  N_22
                            x       y       z     vdW  Elec       q    Type
                         _______ _______ _______ _____ _____    ______ ____

>  <TORSDO>
F 8

$$$$
=
 OpenBabel11032420183D

 32 34  0  0  1  0  0  0  0  0999 V2000
  188.1210  178.3260  140.2830 C   0  0  0  0  0  0  0  0  0  0  0  0
  190.3160  178.0300  141.2410 N   0  0  0  0  0  0  0  0  0  0  0  0
  187.0110  178.3150  135.9310 O   0  0  0  0  0  0  0  0  0  0  0  0
  188.2140  178.4720  137.9270 N   0  0  0  0  0  0  0  0  0  0  0  0
  187.4660  178.5220  138.9760 C   0  0  0  0  0  0  0  0  0  0  0  0
  189.4580  177.6790  140.3280 C   0  0  0  0  0  0  0  0  0  0  0  0
  190.4500  174.6200  136.9690 S   0  0  0  0  0  0  0  0  0  0  0  0
  190.0430  176.3950  136.8870 C   0  0  1  0  0  3  0  0  0  0  0  0
  186.0340  178.5270  138.9080 N   0  0  0  0  0  0  0  0  0  0  0  0
  185.2920  178.7110  140.1240 C   0  0  0  0  0  3  0  0  0  0  0  0
  187.8050  175.3750  136.9960 C   0  0  0  0  0  2  0  0  0  0  0  0
  187.8920  177.8460  136.7000 C   0  0  0  0  0  0  0  0  0  0  0  0
  188.5750  176.5380  136.4060 C   0  0  1  0  0  3  0  0  0  0  0  0
  190.4180  177.1010  138.1340 N   0  0  0  0  0  2  0  0  0  0  0  0
  187.3760  178.4230  141.3920 C   0  0  0  0  0  3  0  0  0  0  0  0
  185.9210  178.6940  141.3110 C   0  0  0  0  0  2  0  0  0  0  0  0
  188.6870  174.1370  136.9040 C   0  0  1  0  0  3  0  0  0  0  0  0
  189.7650  176.5650  139.3350 C   0  0  0  0  0  2  0  0  0  0  0  0
  188.3990  173.3840  135.6470 C   0  0  0  0  0  0  0  0  0  0  0  0
  187.2470  172.6120  135.5320 O   0  0  0  0  0  1  0  0  0  0  0  0
  189.2120  173.4430  134.6860 O   0  0  0  0  0  0  0  0  0  0  0  0
  191.6410  177.4290  141.3830 C   0  0  0  0  0  2  0  0  0  0  0  0
  191.7680  176.6870  142.7040 C   0  0  0  0  0  2  0  0  0  0  0  0
  190.4120  176.1760  143.1720 C   0  0  0  0  0  2  0  0  0  0  0  0
  188.6430  176.9600  144.8110 C   0  0  0  0  0  0  0  0  0  0  0  0
  187.7270  176.4290  144.1270 O   0  0  0  0  0  0  0  0  0  0  0  0
  190.0110  176.8540  144.3980 N   0  0  0  0  0  2  0  0  0  0  0  0
  188.2790  177.7680  146.0160 C   0  0  0  0  0  2  0  0  0  0  0  0
  189.2720  177.5720  147.1540 C   0  0  2  0  0  3  0  0  0  0  0  0
  189.2970  176.2290  147.5330 O   0  0  0  0  0  1  0  0  0  0  0  0
  187.8110  177.7780  149.0320 O   0  0  0  0  0  1  0  0  0  0  0  0
  188.8250  178.4240  148.3230 C   0  0  0  0  0  2  0  0  0  0  0  0
  1  6  1  0  0  0  0
  1 15  2  0  0  0  0
  2 22  1  0  0  0  0
  3 12  2  0  0  0  0
  4  5  2  0  0  0  0
  5  1  1  0  0  0  0
  6  2  2  0  0  0  0
  8  7  1  1  0  0  0
  8 14  1  0  0  0  0
  9  5  1  0  0  0  0
  9 10  2  0  0  0  0
 10 16  1  0  0  0  0
 12  4  1  0  0  0  0
 13 12  1  0  0  0  0
 13  8  1  0  0  0  0
 13 11  1  1  0  0  0
 14 18  1  0  0  0  0
 16 15  1  0  0  0  0
 17 19  1  6  0  0  0
 17  7  1  0  0  0  0
 17 11  1  0  0  0  0
 18  6  1  0  0  0  0
 20 19  1  0  0  0  0
 21 19  2  0  0  0  0
 22 23  1  0  0  0  0
 23 24  1  0  0  0  0
 24 27  1  0  0  0  0
 25 28  1  0  0  0  0
 26 25  2  0  0  0  0
 27 25  1  0  0  0  0
 28 29  1  0  0  0  0
 29 30  1  1  0  0  0
 29 32  1  0  0  0  0
 32 31  1  0  0  0  0
M  END
>  <MODEL>
5

>  <REMARK>
 VINA RESULT:      -6.9      1.772      2.286
  Name = 
  8 active torsions:
  status: ('A' for Active; 'I' for Inactive)
    1  A    between atoms: N_2  and  C_10
    2  A    between atoms: C_3  and  C_32
    3  A    between atoms: C_5  and  C_10
    4  A    between atoms: C_5  and  C_17
    5  A    between atoms: C_9  and  C_30
    6  A    between atoms: C_16  and  C_28
    7  A    between atoms: C_16  and  C_32
    8  A    between atoms: C_17  and  N_22
                            x       y       z     vdW  Elec       q    Type
                         _______ _______ _______ _____ _____    ______ ____

>  <TORSDO>
F 8

$$$$
=
 OpenBabel11032420183D

 32 34  0  0  1  0  0  0  0  0999 V2000
  185.4430  177.7580  137.5220 C   0  0  0  0  0  0  0  0  0  0  0  0
  185.1930  178.7360  139.7140 N   0  0  0  0  0  0  0  0  0  0  0  0
  188.9930  178.0490  134.7860 O   0  0  0  0  0  0  0  0  0  0  0  0
  187.4360  178.4730  136.4750 N   0  0  0  0  0  0  0  0  0  0  0  0
  186.3530  177.7820  136.3610 C   0  0  0  0  0  0  0  0  0  0  0  0
  185.9710  178.1400  138.8580 C   0  0  0  0  0  0  0  0  0  0  0  0
  190.4780  177.3380  139.6690 S   0  0  0  0  0  0  0  0  0  0  0  0
  189.6560  178.3860  138.4250 C   0  0  1  0  0  3  0  0  0  0  0  0
  186.1200  176.8780  135.2740 N   0  0  0  0  0  0  0  0  0  0  0  0
  184.8330  176.2490  135.1710 C   0  0  0  0  0  3  0  0  0  0  0  0
  189.5760  176.1750  137.3470 C   0  0  0  0  0  2  0  0  0  0  0  0
  188.7200  178.0970  136.0160 C   0  0  0  0  0  0  0  0  0  0  0  0
  189.7110  177.6550  137.0580 C   0  0  1  0  0  3  0  0  0  0  0  0
  188.3290  178.8500  138.8910 N   0  0  0  0  0  2  0  0  0  0  0  0
  184.2880  177.0890  137.4150 C   0  0  0  0  0  3  0  0  0  0  0  0
  183.9400  176.3660  136.1670 C   0  0  0  0  0  2  0  0  0  0  0  0
  190.3990  175.8650  138.5890 C   0  0  1  0  0  3  0  0  0  0  0  0
  187.4020  177.7590  139.2150 C   0  0  0  0  0  2  0  0  0  0  0  0
  191.7750  175.4240  138.2070 C   0  0  0  0  0  0  0  0  0  0  0  0
  192.8220  176.3400  138.1540 O   0  0  0  0  0  1  0  0  0  0  0  0
  191.9860  174.2150  137.9230 O   0  0  0  0  0  0  0  0  0  0  0  0
  185.6130  179.1200  141.0600 C   0  0  0  0  0  2  0  0  0  0  0  0
  184.9970  178.2070  142.1080 C   0  0  0  0  0  2  0  0  0  0  0  0
  185.6700  178.4020  143.4600 C   0  0  0  0  0  2  0  0  0  0  0  0
  187.7380  177.6030  144.6920 C   0  0  0  0  0  0  0  0  0  0  0  0
  187.4390  178.2910  145.7060 O   0  0  0  0  0  0  0  0  0  0  0  0
  186.8850  177.5990  143.5410 N   0  0  0  0  0  2  0  0  0  0  0  0
  189.0320  176.8530  144.6750 C   0  0  0  0  0  2  0  0  0  0  0  0
  190.2270  177.7830  144.5160 C   0  0  2  0  0  3  0  0  0  0  0  0
  190.0540  178.5870  143.3890 O   0  0  0  0  0  1  0  0  0  0  0  0
  191.9540  177.0350  143.0460 O   0  0  0  0  0  1  0  0  0  0  0  0
  191.4690  176.9330  144.3520 C   0  0  0  0  0  2  0  0  0  0  0  0
  1  6  1  0  0  0  0
  2 22  1  0  0  0  0
  3 12  2  0  0  0  0
  5  4  2  0  0  0  0
  5  1  1  0  0  0  0
  6 18  1  0  0  0  0
  6  2  2  0  0  0  0
  8 14  1  1  0  0  0
  8  7  1  0  0  0  0
  9  5  1  0  0  0  0
 10  9  2  0  0  0  0
 10 16  1  0  0  0  0
 11 17  1  0  0  0  0
 12  4  1  0  0  0  0
 12 13  1  0  0  0  0
 13 11  1  1  0  0  0
 13  8  1  0  0  0  0
 14 18  1  0  0  0  0
 15  1  2  0  0  0  0
 16 15  1  0  0  0  0
 17 19  1  6  0  0  0
 17  7  1  0  0  0  0
 20 19  1  0  0  0  0
 21 19  2  0  0  0  0
 22 23  1  0  0  0  0
 23 24  1  0  0  0  0
 24 27  1  0  0  0  0
 25 26  2  0  0  0  0
 27 25  1  0  0  0  0
 28 25  1  0  0  0  0
 29 30  1  6  0  0  0
 29 28  1  0  0  0  0
 31 32  1  0  0  0  0
 32 29  1  0  0  0  0
M  END
>  <MODEL>
6

>  <REMARK>
 VINA RESULT:      -6.8      2.703      4.466
  Name = 
  8 active torsions:
  status: ('A' for Active; 'I' for Inactive)
    1  A    between atoms: N_2  and  C_10
    2  A    between atoms: C_3  and  C_32
    3  A    between atoms: C_5  and  C_10
    4  A    between atoms: C_5  and  C_17
    5  A    between atoms: C_9  and  C_30
    6  A    between atoms: C_16  and  C_28
    7  A    between atoms: C_16  and  C_32
    8  A    between atoms: C_17  and  N_22
                            x       y       z     vdW  Elec       q    Type
                         _______ _______ _______ _____ _____    ______ ____

>  <TORSDO>
F 8

$$$$
=
 OpenBabel11032420183D

 32 34  0  0  1  0  0  0  0  0999 V2000
  187.7670  178.2030  140.6410 C   0  0  0  0  0  0  0  0  0  0  0  0
  188.3780  178.7380  138.3680 N   0  0  0  0  0  0  0  0  0  0  0  0
  184.0140  179.3760  142.8110 O   0  0  0  0  0  0  0  0  0  0  0  0
  185.7860  179.3140  141.2910 N   0  0  0  0  0  0  0  0  0  0  0  0
  186.7490  178.5370  141.6550 C   0  0  0  0  0  0  0  0  0  0  0  0
  187.4410  178.3960  139.2040 C   0  0  0  0  0  0  0  0  0  0  0  0
  182.9800  177.9740  137.9620 S   0  0  0  0  0  0  0  0  0  0  0  0
  183.7960  179.1290  139.1120 C   0  0  1  0  0  3  0  0  0  0  0  0
  186.7410  177.8210  142.8960 N   0  0  0  0  0  2  0  0  0  0  0  0
  187.9150  177.0810  143.2670 C   0  0  0  0  0  3  0  0  0  0  0  0
  183.4650  177.1520  140.5400 C   0  0  0  0  0  2  0  0  0  0  0  0
  184.4220  179.1720  141.6360 C   0  0  0  0  0  0  0  0  0  0  0  0
  183.4990  178.6650  140.5620 C   0  0  1  0  0  3  0  0  0  0  0  0
  185.2150  179.3500  138.7510 N   0  0  0  0  0  2  0  0  0  0  0  0
  188.8040  177.4380  141.0050 C   0  0  0  0  0  3  0  0  0  0  0  0
  188.9170  176.9160  142.3880 C   0  0  0  0  0  3  0  0  0  0  0  0
  182.7460  176.7190  139.2700 C   0  0  1  0  0  3  0  0  0  0  0  0
  186.0180  178.1210  138.7330 C   0  0  0  0  0  2  0  0  0  0  0  0
  181.2910  176.5110  139.5390 C   0  0  0  0  0  0  0  0  0  0  0  0
  180.8100  175.2560  139.8980 O   0  0  0  0  0  1  0  0  0  0  0  0
  180.4940  177.4810  139.4330 O   0  0  0  0  0  0  0  0  0  0  0  0
  188.1610  178.9200  136.9350 C   0  0  0  0  0  2  0  0  0  0  0  0
  189.0540  177.9960  136.1230 C   0  0  0  0  0  2  0  0  0  0  0  0
  189.0690  176.5940  136.7180 C   0  0  0  0  0  2  0  0  0  0  0  0
  191.1060  175.3170  137.5230 C   0  0  0  0  0  0  0  0  0  0  0  0
  190.6430  175.2540  138.6940 O   0  0  0  0  0  0  0  0  0  0  0  0
  190.3590  175.9580  136.4830 N   0  0  0  0  0  2  0  0  0  0  0  0
  192.4760  174.7840  137.2500 C   0  0  0  0  0  2  0  0  0  0  0  0
  193.5560  175.6160  137.9290 C   0  0  2  0  0  3  0  0  0  0  0  0
  194.0290  176.5870  137.0450 O   0  0  0  0  0  1  0  0  0  0  0  0
  195.4300  175.2540  139.3640 O   0  0  0  0  0  1  0  0  0  0  0  0
  194.6880  174.6910  138.3240 C   0  0  0  0  0  2  0  0  0  0  0  0
  1 15  2  0  0  0  0
  1  5  1  0  0  0  0
  2  6  2  0  0  0  0
  4 12  1  0  0  0  0
  4  5  2  0  0  0  0
  5  9  1  0  0  0  0
  6  1  1  0  0  0  0
  7 17  1  0  0  0  0
  8  7  1  6  0  0  0
  8 13  1  0  0  0  0
  9 10  1  0  0  0  0
 12  3  2  0  0  0  0
 13 11  1  6  0  0  0
 13 12  1  0  0  0  0
 14  8  1  0  0  0  0
 15 16  1  0  0  0  0
 16 10  2  0  0  0  0
 17 19  1  1  0  0  0
 17 11  1  0  0  0  0
 18 14  1  0  0  0  0
 18  6  1  0  0  0  0
 19 20  1  0  0  0  0
 21 19  2  0  0  0  0
 22  2  1  0  0  0  0
 23 24  1  0  0  0  0
 23 22  1  0  0  0  0
 25 26  2  0  0  0  0
 27 24  1  0  0  0  0
 27 25  1  0  0  0  0
 28 25  1  0  0  0  0
 28 29  1  0  0  0  0
 29 30  1  6  0  0  0
 29 32  1  0  0  0  0
 32 31  1  0  0  0  0
M  END
>  <MODEL>
7

>  <REMARK>
 VINA RESULT:      -6.8      3.560      8.035
  Name = 
  8 active torsions:
  status: ('A' for Active; 'I' for Inactive)
    1  A    between atoms: N_2  and  C_10
    2  A    between atoms: C_3  and  C_32
    3  A    between atoms: C_5  and  C_10
    4  A    between atoms: C_5  and  C_17
    5  A    between atoms: C_9  and  C_30
    6  A    between atoms: C_16  and  C_28
    7  A    between atoms: C_16  and  C_32
    8  A    between atoms: C_17  and  N_22
                            x       y       z     vdW  Elec       q    Type
                         _______ _______ _______ _____ _____    ______ ____

>  <TORSDO>
F 8

$$$$
=
 OpenBabel11032420183D

 32 34  0  0  1  0  0  0  0  0999 V2000
  185.7410  175.9450  136.0110 C   0  0  0  0  0  0  0  0  0  0  0  0
  184.2240  177.3290  137.2790 N   0  0  0  0  0  0  0  0  0  0  0  0
  189.9270  176.9420  134.7250 O   0  0  0  0  0  0  0  0  0  0  0  0
  187.7080  177.1190  135.4310 N   0  0  0  0  0  0  0  0  0  0  0  0
  187.0450  176.0170  135.3260 C   0  0  0  0  0  0  0  0  0  0  0  0
  185.4440  176.9160  137.0970 C   0  0  0  0  0  0  0  0  0  0  0  0
  189.0510  178.5250  139.5500 S   0  0  0  0  0  0  0  0  0  0  0  0
  188.6640  178.6480  137.7730 C   0  0  1  0  0  3  0  0  0  0  0  0
  187.6140  174.8190  134.7840 N   0  0  0  0  0  0  0  0  0  0  0  0
  186.7590  173.6800  134.5940 C   0  0  0  0  0  3  0  0  0  0  0  0
  189.7160  176.4260  137.9030 C   0  0  0  0  0  2  0  0  0  0  0  0
  189.1020  177.2390  135.6310 C   0  0  0  0  0  0  0  0  0  0  0  0
  189.5590  177.6380  137.0080 C   0  0  1  0  0  3  0  0  0  0  0  0
  187.2060  178.5830  137.5250 N   0  0  0  0  0  2  0  0  0  0  0  0
  185.0090  174.8310  135.8770 C   0  0  0  0  0  3  0  0  0  0  0  0
  185.5080  173.6840  135.0820 C   0  0  0  0  0  2  0  0  0  0  0  0
  189.9010  176.9210  139.3300 C   0  0  1  0  0  3  0  0  0  0  0  0
  186.5770  177.3520  138.0170 C   0  0  0  0  0  2  0  0  0  0  0  0
  191.3540  177.0540  139.6520 C   0  0  0  0  0  0  0  0  0  0  0  0
  192.3220  176.6770  138.7250 O   0  0  0  0  0  0  0  0  0  0  0  0
  191.7050  177.5040  140.7750 O   0  0  0  0  0  1  0  0  0  0  0  0
  183.8310  178.2560  138.3380 C   0  0  0  0  0  2  0  0  0  0  0  0
  183.2620  177.5120  139.5350 C   0  0  0  0  0  2  0  0  0  0  0  0
  183.0200  178.4620  140.7000 C   0  0  0  0  0  2  0  0  0  0  0  0
  185.2590  178.6900  141.8690 C   0  0  0  0  0  0  0  0  0  0  0  0
  185.6790  179.4800  140.9800 O   0  0  0  0  0  0  0  0  0  0  0  0
  183.9310  178.1590  141.7980 N   0  0  0  0  0  2  0  0  0  0  0  0
  186.1900  178.2530  142.9550 C   0  0  0  0  0  2  0  0  0  0  0  0
  185.4960  178.1920  144.3090 C   0  0  2  0  0  3  0  0  0  0  0  0
  185.2060  179.4840  144.7490 O   0  0  0  0  0  1  0  0  0  0  0  0
  187.6800  177.3100  144.7010 O   0  0  0  0  0  1  0  0  0  0  0  0
  186.4310  177.5170  145.2900 C   0  0  0  0  0  2  0  0  0  0  0  0
  1  6  1  0  0  0  0
  2 22  1  0  0  0  0
  3 12  2  0  0  0  0
  4 12  1  0  0  0  0
  5  4  2  0  0  0  0
  5  1  1  0  0  0  0
  6  2  2  0  0  0  0
  6 18  1  0  0  0  0
  8 14  1  1  0  0  0
  8  7  1  0  0  0  0
  9  5  1  0  0  0  0
 10  9  2  0  0  0  0
 10 16  1  0  0  0  0
 11 17  1  0  0  0  0
 12 13  1  0  0  0  0
 13  8  1  0  0  0  0
 13 11  1  1  0  0  0
 14 18  1  0  0  0  0
 15  1  2  0  0  0  0
 16 15  1  0  0  0  0
 17  7  1  0  0  0  0
 17 19  1  6  0  0  0
 19 21  1  0  0  0  0
 20 19  2  0  0  0  0
 22 23  1  0  0  0  0
 23 24  1  0  0  0  0
 24 27  1  0  0  0  0
 25 28  1  0  0  0  0
 26 25  2  0  0  0  0
 27 25  1  0  0  0  0
 28 29  1  0  0  0  0
 29 30  1  1  0  0  0
 29 32  1  0  0  0  0
 31 32  1  0  0  0  0
M  END
>  <MODEL>
8

>  <REMARK>
 VINA RESULT:      -6.5      3.113      5.612
  Name = 
  8 active torsions:
  status: ('A' for Active; 'I' for Inactive)
    1  A    between atoms: N_2  and  C_10
    2  A    between atoms: C_3  and  C_32
    3  A    between atoms: C_5  and  C_10
    4  A    between atoms: C_5  and  C_17
    5  A    between atoms: C_9  and  C_30
    6  A    between atoms: C_16  and  C_28
    7  A    between atoms: C_16  and  C_32
    8  A    between atoms: C_17  and  N_22
                            x       y       z     vdW  Elec       q    Type
                         _______ _______ _______ _____ _____    ______ ____

>  <TORSDO>
F 8

$$$$
=
 OpenBabel11032420183D

 32 34  0  0  1  0  0  0  0  0999 V2000
  184.6840  178.7170  140.3890 C   0  0  0  0  0  0  0  0  0  0  0  0
  186.1880  178.6330  138.5030 N   0  0  0  0  0  0  0  0  0  0  0  0
  180.1970  178.8890  140.3010 O   0  0  0  0  0  0  0  0  0  0  0  0
  182.4480  179.0490  139.7000 N   0  0  0  0  0  0  0  0  0  0  0  0
  183.2570  178.9250  140.6980 C   0  0  0  0  0  0  0  0  0  0  0  0
  185.0650  178.2440  139.0320 C   0  0  0  0  0  0  0  0  0  0  0  0
  181.9880  175.5960  136.7650 S   0  0  0  0  0  0  0  0  0  0  0  0
  181.8650  177.3050  137.3850 C   0  0  1  0  0  3  0  0  0  0  0  0
  182.8040  178.7520  142.0460 N   0  0  0  0  0  0  0  0  0  0  0  0
  183.7790  178.7490  143.1000 C   0  0  0  0  0  3  0  0  0  0  0  0
  181.3250  176.0030  139.4030 C   0  0  0  0  0  2  0  0  0  0  0  0
  181.1570  178.4800  139.5950 C   0  0  0  0  0  0  0  0  0  0  0  0
  181.0100  177.2960  138.6790 C   0  0  1  0  0  3  0  0  0  0  0  0
  183.1930  177.9580  137.4560 N   0  0  0  0  0  2  0  0  0  0  0  0
  185.5530  178.6350  141.4040 C   0  0  0  0  0  3  0  0  0  0  0  0
  185.0900  178.7240  142.8100 C   0  0  0  0  0  2  0  0  0  0  0  0
  181.4300  174.8980  138.3610 C   0  0  1  0  0  3  0  0  0  0  0  0
  184.1500  177.2560  138.3190 C   0  0  0  0  0  2  0  0  0  0  0  0
  180.1140  174.2100  138.1970 C   0  0  0  0  0  0  0  0  0  0  0  0
  179.8670  173.4110  137.0840 O   0  0  0  0  0  0  0  0  0  0  0  0
  179.2180  174.3620  139.0700 O   0  0  0  0  0  1  0  0  0  0  0  0
  186.6610  178.1970  137.1910 C   0  0  0  0  0  2  0  0  0  0  0  0
  188.0850  178.6640  136.9380 C   0  0  0  0  0  2  0  0  0  0  0  0
  189.0910  177.6440  137.4540 C   0  0  0  0  0  2  0  0  0  0  0  0
  190.2420  177.1010  139.6470 C   0  0  0  0  0  0  0  0  0  0  0  0
  190.5160  175.9360  139.2530 O   0  0  0  0  0  0  0  0  0  0  0  0
  189.5470  178.0130  138.7890 N   0  0  0  0  0  2  0  0  0  0  0  0
  190.5830  177.4950  141.0490 C   0  0  0  0  0  2  0  0  0  0  0  0
  189.4410  177.2070  142.0150 C   0  0  2  0  0  3  0  0  0  0  0  0
  188.8500  178.4050  142.4180 O   0  0  0  0  0  1  0  0  0  0  0  0
  190.5310  175.2490  142.8400 O   0  0  0  0  0  1  0  0  0  0  0  0
  190.0100  176.4880  143.2190 C   0  0  0  0  0  2  0  0  0  0  0  0
  1  5  1  0  0  0  0
  1 15  2  0  0  0  0
  2  6  2  0  0  0  0
  4  5  2  0  0  0  0
  5  9  1  0  0  0  0
  6  1  1  0  0  0  0
  7 17  1  0  0  0  0
  8  7  1  1  0  0  0
  8 14  1  0  0  0  0
  8 13  1  0  0  0  0
  9 10  2  0  0  0  0
 12  4  1  0  0  0  0
 12  3  2  0  0  0  0
 13 11  1  1  0  0  0
 13 12  1  0  0  0  0
 14 18  1  0  0  0  0
 15 16  1  0  0  0  0
 16 10  1  0  0  0  0
 17 19  1  6  0  0  0
 17 11  1  0  0  0  0
 18  6  1  0  0  0  0
 19 21  1  0  0  0  0
 20 19  2  0  0  0  0
 22  2  1  0  0  0  0
 23 22  1  0  0  0  0
 23 24  1  0  0  0  0
 24 27  1  0  0  0  0
 25 28  1  0  0  0  0
 26 25  2  0  0  0  0
 27 25  1  0  0  0  0
 28 29  1  0  0  0  0
 29 30  1  1  0  0  0
 29 32  1  0  0  0  0
 31 32  1  0  0  0  0
M  END
>  <MODEL>
9

>  <REMARK>
 VINA RESULT:      -6.4      4.497      7.233
  Name = 
  8 active torsions:
  status: ('A' for Active; 'I' for Inactive)
    1  A    between atoms: N_2  and  C_10
    2  A    between atoms: C_3  and  C_32
    3  A    between atoms: C_5  and  C_10
    4  A    between atoms: C_5  and  C_17
    5  A    between atoms: C_9  and  C_30
    6  A    between atoms: C_16  and  C_28
    7  A    between atoms: C_16  and  C_32
    8  A    between atoms: C_17  and  N_22
                            x       y       z     vdW  Elec       q    Type
                         _______ _______ _______ _____ _____    ______ ____

>  <TORSDO>
F 8

$$$$
