=
 OpenBabel11042412073D

 37 41  0  0  1  0  0  0  0  0999 V2000
  191.0580  177.5040  144.8860 C   0  0  1  0  0  3  0  0  0  0  0  0
  191.5280  177.6720  143.4330 C   0  0  0  0  0  2  0  0  0  0  0  0
  189.5020  177.3330  142.0150 C   0  0  0  0  0  0  0  0  0  0  0  0
  190.8060  176.7390  142.4640 C   0  0  0  0  0  2  0  0  0  0  0  0
  189.3290  177.7150  140.6550 C   0  0  0  0  0  0  0  0  0  0  0  0
  189.6180  177.9960  145.0890 C   0  0  0  0  0  2  0  0  0  0  0  0
  187.2560  178.0860  142.4690 C   0  0  0  0  0  0  0  0  0  0  0  0
  187.0940  178.4460  141.1470 C   0  0  0  0  0  0  0  0  0  0  0  0
  186.0580  178.3840  143.0820 C   0  0  0  0  0  0  0  0  0  0  0  0
  185.6570  178.1710  144.3360 C   0  0  0  0  0  2  0  0  0  0  0  0
  183.5640  179.5140  143.7830 C   0  0  0  0  0  2  0  0  0  0  0  0
  184.2080  178.4330  144.6820 C   0  0  2  0  0  3  0  0  0  0  0  0
  185.8710  178.9650  140.8950 N   0  0  0  0  0  0  0  0  0  0  0  0
  185.2550  178.9360  142.0990 C   0  0  0  0  0  0  0  0  0  0  0  0
  188.1130  178.2730  140.2190 C   0  0  0  0  0  3  0  0  0  0  0  0
  188.4450  177.5130  142.9420 C   0  0  2  0  0  3  0  0  0  0  0  0
  184.0420  179.4330  142.3490 C   0  0  0  0  0  2  0  0  0  0  0  0
  188.5880  177.1170  144.3820 C   0  0  0  0  0  2  0  0  0  0  0  0
  191.3020  176.0880  145.4450 C   0  0  1  0  0  3  0  0  0  0  0  0
  192.1160  175.2400  144.4770 C   0  0  0  0  0  1  0  0  0  0  0  0
  191.6830  177.1270  147.6820 O   0  0  0  0  0  1  0  0  0  0  0  0
  192.8660  175.2620  147.0670 O   0  0  0  0  0  0  0  0  0  0  0  0
  191.9960  176.1260  146.7720 C   0  0  0  0  0  0  0  0  0  0  0  0
  184.0930  178.7930  146.0270 O   0  0  0  0  0  0  0  0  0  0  0  0
  185.0160  177.9830  146.6950 C   0  0  0  0  0  2  0  0  0  0  0  0
  187.2390  178.2640  147.7840 O   0  0  0  0  0  1  0  0  0  0  0  0
  186.0430  178.8300  147.3620 C   0  0  0  0  0  0  0  0  0  0  0  0
  185.8280  180.0550  147.5530 O   0  0  0  0  0  0  0  0  0  0  0  0
  190.4420  177.5680  139.6640 C   0  0  0  0  0  2  0  0  0  0  0  0
  189.0190  178.5100  137.4130 S   0  0  0  0  0  0  0  0  0  0  0  0
  188.7680  177.4530  136.1300 C   0  0  0  0  0  0  0  0  0  0  0  0
  189.9580  176.1880  137.5410 C   0  0  0  0  0  0  0  0  0  0  0  0
  189.3300  176.2430  136.3340 N   0  0  0  0  0  0  0  0  0  0  0  0
  188.0680  177.7920  134.9380 N   0  0  0  0  0  1  0  0  0  0  0  0
  189.8960  177.3650  138.2860 C   0  0  0  0  0  0  0  0  0  0  0  0
  190.6410  174.9760  138.0090 C   0  0  0  0  0  3  0  0  0  0  0  0
  190.5450  173.8650  137.3560 N   0  0  0  0  0  2  0  0  0  0  0  0
  1  6  1  0  0  0  0
  1 19  1  6  0  0  0
  2  1  1  0  0  0  0
  3  4  1  0  0  0  0
  3 16  1  0  0  0  0
  4  2  1  0  0  0  0
  5  3  2  0  0  0  0
  7 16  1  0  0  0  0
  7  9  2  0  0  0  0
  8  7  1  0  0  0  0
  9 10  1  0  0  0  0
 10 12  1  0  0  0  0
 11 12  1  0  0  0  0
 12 24  1  1  0  0  0
 13  8  1  0  0  0  0
 13 14  2  0  0  0  0
 14 17  1  0  0  0  0
 14  9  1  0  0  0  0
 15  5  1  0  0  0  0
 15  8  2  0  0  0  0
 16 18  1  1  0  0  0
 17 11  1  0  0  0  0
 18  6  1  0  0  0  0
 19 20  1  6  0  0  0
 19 23  1  0  0  0  0
 23 22  2  0  0  0  0
 23 21  1  0  0  0  0
 24 25  1  0  0  0  0
 25 27  1  0  0  0  0
 27 28  2  0  0  0  0
 27 26  1  0  0  0  0
 29  5  1  0  0  0  0
 30 35  1  0  0  0  0
 31 33  2  0  0  0  0
 31 30  1  0  0  0  0
 32 36  1  0  0  0  0
 32 35  2  0  0  0  0
 33 32  1  0  0  0  0
 34 31  1  0  0  0  0
 35 29  1  0  0  0  0
 37 36  2  0  0  0  0
M  END
>  <MODEL>
1

>  <REMARK>
 VINA RESULT:      -9.9      0.000      0.000
  Name = 
  8 active torsions:
  status: ('A' for Active; 'I' for Inactive)
    1  A    between atoms: C_3  and  C_22
    2  A    between atoms: C_7  and  C_14
    3  A    between atoms: C_10  and  C_30
    4  A    between atoms: C_11  and  C_16
    5  A    between atoms: C_14  and  O_23
    6  A    between atoms: C_20  and  O_23
    7  A    between atoms: C_22  and  C_32
    8  A    between atoms: C_30  and  C_34
                            x       y       z     vdW  Elec       q    Type
                         _______ _______ _______ _____ _____    ______ ____

>  <TORSDO>
F 8

$$$$
=
 OpenBabel11042412073D

 37 41  0  0  1  0  0  0  0  0999 V2000
  191.0260  177.5200  144.7680 C   0  0  1  0  0  3  0  0  0  0  0  0
  191.4640  177.7030  143.3080 C   0  0  0  0  0  2  0  0  0  0  0  0
  189.4110  177.3640  141.9300 C   0  0  0  0  0  0  0  0  0  0  0  0
  190.7270  176.7730  142.3470 C   0  0  0  0  0  2  0  0  0  0  0  0
  189.2060  177.7560  140.5760 C   0  0  0  0  0  0  0  0  0  0  0  0
  189.5880  178.0020  145.0060 C   0  0  0  0  0  2  0  0  0  0  0  0
  187.1700  178.0990  142.4370 C   0  0  0  0  0  0  0  0  0  0  0  0
  186.9780  178.4690  141.1220 C   0  0  0  0  0  0  0  0  0  0  0  0
  185.9840  178.3850  143.0770 C   0  0  0  0  0  0  0  0  0  0  0  0
  185.6110  178.1590  144.3380 C   0  0  0  0  0  2  0  0  0  0  0  0
  183.4990  179.4950  143.8400 C   0  0  0  0  0  2  0  0  0  0  0  0
  184.1680  178.4100  144.7170 C   0  0  2  0  0  3  0  0  0  0  0  0
  185.7470  178.9830  140.9010 N   0  0  0  0  0  0  0  0  0  0  0  0
  185.1570  178.9400  142.1170 C   0  0  0  0  0  0  0  0  0  0  0  0
  187.9780  178.3100  140.1720 C   0  0  0  0  0  3  0  0  0  0  0  0
  188.3720  177.5300  142.8800 C   0  0  2  0  0  3  0  0  0  0  0  0
  183.9470  179.4280  142.3960 C   0  0  0  0  0  2  0  0  0  0  0  0
  188.5480  177.1230  144.3140 C   0  0  0  0  0  2  0  0  0  0  0  0
  191.2890  176.1010  145.3100 C   0  0  1  0  0  3  0  0  0  0  0  0
  192.1210  175.2790  144.3350 C   0  0  0  0  0  1  0  0  0  0  0  0
  191.6760  177.1420  147.5460 O   0  0  0  0  0  1  0  0  0  0  0  0
  192.8310  175.2560  146.9440 O   0  0  0  0  0  0  0  0  0  0  0  0
  191.9760  176.1320  146.6410 C   0  0  0  0  0  0  0  0  0  0  0  0
  184.0790  178.7580  146.0670 O   0  0  0  0  0  0  0  0  0  0  0  0
  185.0420  177.9700  146.7040 C   0  0  0  0  0  2  0  0  0  0  0  0
  187.2730  178.3070  147.7590 O   0  0  0  0  0  1  0  0  0  0  0  0
  186.0550  178.8410  147.3610 C   0  0  0  0  0  0  0  0  0  0  0  0
  185.8090  180.0590  147.5630 O   0  0  0  0  0  0  0  0  0  0  0  0
  190.2990  177.6240  139.5610 C   0  0  0  0  0  2  0  0  0  0  0  0
  189.8540  175.3470  137.9500 S   0  0  0  0  0  0  0  0  0  0  0  0
  189.1720  175.5690  136.4290 C   0  0  0  0  0  0  0  0  0  0  0  0
  189.2240  177.6620  137.2180 C   0  0  0  0  0  0  0  0  0  0  0  0
  188.8830  176.8610  136.1710 N   0  0  0  0  0  0  0  0  0  0  0  0
  188.8950  174.5150  135.5140 N   0  0  0  0  0  1  0  0  0  0  0  0
  189.7790  176.9930  138.3080 C   0  0  0  0  0  0  0  0  0  0  0  0
  189.0220  179.1150  137.1860 C   0  0  0  0  0  3  0  0  0  0  0  0
  187.8790  179.6200  136.8550 N   0  0  0  0  0  2  0  0  0  0  0  0
  1  6  1  0  0  0  0
  1 19  1  6  0  0  0
  2  1  1  0  0  0  0
  3  4  1  0  0  0  0
  3 16  1  0  0  0  0
  4  2  1  0  0  0  0
  5  3  2  0  0  0  0
  7 16  1  0  0  0  0
  7  9  2  0  0  0  0
  8  7  1  0  0  0  0
  9 10  1  0  0  0  0
 10 12  1  0  0  0  0
 11 12  1  0  0  0  0
 12 24  1  1  0  0  0
 13  8  1  0  0  0  0
 13 14  2  0  0  0  0
 14 17  1  0  0  0  0
 14  9  1  0  0  0  0
 15  5  1  0  0  0  0
 15  8  2  0  0  0  0
 16 18  1  1  0  0  0
 17 11  1  0  0  0  0
 18  6  1  0  0  0  0
 19 20  1  6  0  0  0
 19 23  1  0  0  0  0
 23 22  2  0  0  0  0
 23 21  1  0  0  0  0
 24 25  1  0  0  0  0
 25 27  1  0  0  0  0
 27 28  2  0  0  0  0
 27 26  1  0  0  0  0
 29  5  1  0  0  0  0
 30 35  1  0  0  0  0
 31 30  1  0  0  0  0
 32 35  2  0  0  0  0
 33 31  2  0  0  0  0
 33 32  1  0  0  0  0
 34 31  1  0  0  0  0
 35 29  1  0  0  0  0
 36 32  1  0  0  0  0
 37 36  2  0  0  0  0
M  END
>  <MODEL>
2

>  <REMARK>
 VINA RESULT:      -9.9      0.910      1.572
  Name = 
  8 active torsions:
  status: ('A' for Active; 'I' for Inactive)
    1  A    between atoms: C_3  and  C_22
    2  A    between atoms: C_7  and  C_14
    3  A    between atoms: C_10  and  C_30
    4  A    between atoms: C_11  and  C_16
    5  A    between atoms: C_14  and  O_23
    6  A    between atoms: C_20  and  O_23
    7  A    between atoms: C_22  and  C_32
    8  A    between atoms: C_30  and  C_34
                            x       y       z     vdW  Elec       q    Type
                         _______ _______ _______ _____ _____    ______ ____

>  <TORSDO>
F 8

$$$$
=
 OpenBabel11042412073D

 37 41  0  0  1  0  0  0  0  0999 V2000
  188.7410  178.3190  140.4040 C   0  0  1  0  0  3  0  0  0  0  0  0
  187.3910  178.8970  139.9540 C   0  0  0  0  0  2  0  0  0  0  0  0
  185.7550  178.2770  141.7340 C   0  0  0  0  0  0  0  0  0  0  0  0
  186.2100  178.0050  140.3290 C   0  0  0  0  0  2  0  0  0  0  0  0
  184.4730  178.8530  141.9640 C   0  0  0  0  0  0  0  0  0  0  0  0
  188.8940  178.3280  141.9320 C   0  0  0  0  0  2  0  0  0  0  0  0
  186.1250  178.2510  144.1170 C   0  0  0  0  0  0  0  0  0  0  0  0
  184.8780  178.8020  144.3320 C   0  0  0  0  0  0  0  0  0  0  0  0
  186.6670  178.0670  145.3700 C   0  0  0  0  0  0  0  0  0  0  0  0
  187.8220  177.5060  145.7340 C   0  0  0  0  0  2  0  0  0  0  0  0
  187.3240  178.2760  148.1120 C   0  0  0  0  0  2  0  0  0  0  0  0
  188.0740  177.2690  147.2070 C   0  0  2  0  0  3  0  0  0  0  0  0
  184.6110  178.9880  145.6440 N   0  0  0  0  0  0  0  0  0  0  0  0
  185.7280  178.5480  146.2660 C   0  0  0  0  0  0  0  0  0  0  0  0
  184.0330  179.1140  143.2750 C   0  0  0  0  0  3  0  0  0  0  0  0
  186.5970  177.9620  142.8290 C   0  0  2  0  0  3  0  0  0  0  0  0
  185.9490  178.6180  147.5800 C   0  0  0  0  0  2  0  0  0  0  0  0
  187.9510  177.3480  142.6260 C   0  0  0  0  0  2  0  0  0  0  0  0
  189.0610  176.9510  139.7690 C   0  0  1  0  0  3  0  0  0  0  0  0
  188.4470  176.8250  138.3820 C   0  0  0  0  0  1  0  0  0  0  0  0
  191.0120  175.6160  138.9690 O   0  0  0  0  0  0  0  0  0  0  0  0
  191.3510  177.4870  140.2500 O   0  0  0  0  0  1  0  0  0  0  0  0
  190.5370  176.7100  139.6800 C   0  0  0  0  0  0  0  0  0  0  0  0
  189.4440  177.3090  147.4730 O   0  0  0  0  0  0  0  0  0  0  0  0
  190.0560  177.1340  146.2280 C   0  0  0  0  0  2  0  0  0  0  0  0
  192.0800  176.7390  147.6260 O   0  0  0  0  0  1  0  0  0  0  0  0
  191.4270  176.5830  146.4100 C   0  0  0  0  0  0  0  0  0  0  0  0
  192.0000  175.9820  145.4640 O   0  0  0  0  0  0  0  0  0  0  0  0
  183.5790  179.2280  140.8230 C   0  0  0  0  0  2  0  0  0  0  0  0
  182.6500  176.7790  139.7680 S   0  0  0  0  0  0  0  0  0  0  0  0
  181.0420  176.3600  140.0240 C   0  0  0  0  0  0  0  0  0  0  0  0
  181.1860  178.3130  141.1080 C   0  0  0  0  0  0  0  0  0  0  0  0
  180.3770  177.2740  140.7610 N   0  0  0  0  0  0  0  0  0  0  0  0
  180.4410  175.1610  139.5490 N   0  0  0  0  0  1  0  0  0  0  0  0
  182.4970  178.2100  140.6460 C   0  0  0  0  0  0  0  0  0  0  0  0
  180.7010  179.4470  141.9020 C   0  0  0  0  0  3  0  0  0  0  0  0
  180.0880  180.4380  141.3420 N   0  0  0  0  0  2  0  0  0  0  0  0
  1 19  1  1  0  0  0
  1  6  1  0  0  0  0
  2  4  1  0  0  0  0
  2  1  1  0  0  0  0
  3  5  2  0  0  0  0
  3 16  1  0  0  0  0
  4  3  1  0  0  0  0
  5 15  1  0  0  0  0
  6 18  1  0  0  0  0
  7  8  1  0  0  0  0
  7  9  2  0  0  0  0
  8 13  1  0  0  0  0
  9 10  1  0  0  0  0
  9 14  1  0  0  0  0
 10 12  1  0  0  0  0
 12 24  1  6  0  0  0
 12 11  1  0  0  0  0
 13 14  2  0  0  0  0
 14 17  1  0  0  0  0
 15  8  2  0  0  0  0
 16 18  1  6  0  0  0
 16  7  1  0  0  0  0
 17 11  1  0  0  0  0
 19 20  1  6  0  0  0
 21 23  2  0  0  0  0
 23 19  1  0  0  0  0
 23 22  1  0  0  0  0
 25 27  1  0  0  0  0
 25 24  1  0  0  0  0
 27 26  1  0  0  0  0
 28 27  2  0  0  0  0
 29  5  1  0  0  0  0
 30 31  1  0  0  0  0
 30 35  1  0  0  0  0
 31 33  2  0  0  0  0
 32 36  1  0  0  0  0
 33 32  1  0  0  0  0
 34 31  1  0  0  0  0
 35 29  1  0  0  0  0
 35 32  2  0  0  0  0
 37 36  2  0  0  0  0
M  END
>  <MODEL>
3

>  <REMARK>
 VINA RESULT:      -9.7      3.605      6.595
  Name = 
  8 active torsions:
  status: ('A' for Active; 'I' for Inactive)
    1  A    between atoms: C_3  and  C_22
    2  A    between atoms: C_7  and  C_14
    3  A    between atoms: C_10  and  C_30
    4  A    between atoms: C_11  and  C_16
    5  A    between atoms: C_14  and  O_23
    6  A    between atoms: C_20  and  O_23
    7  A    between atoms: C_22  and  C_32
    8  A    between atoms: C_30  and  C_34
                            x       y       z     vdW  Elec       q    Type
                         _______ _______ _______ _____ _____    ______ ____

>  <TORSDO>
F 8

$$$$
=
 OpenBabel11042412073D

 37 41  0  0  1  0  0  0  0  0999 V2000
  190.9800  177.5770  144.7510 C   0  0  1  0  0  3  0  0  0  0  0  0
  191.6840  177.7110  143.3920 C   0  0  0  0  0  2  0  0  0  0  0  0
  189.9360  177.2600  141.6690 C   0  0  0  0  0  0  0  0  0  0  0  0
  191.1600  176.7230  142.3530 C   0  0  0  0  0  2  0  0  0  0  0  0
  189.9860  177.5890  140.2840 C   0  0  0  0  0  0  0  0  0  0  0  0
  189.5140  178.0300  144.6890 C   0  0  0  0  0  2  0  0  0  0  0  0
  187.6270  177.9550  141.7090 C   0  0  0  0  0  0  0  0  0  0  0  0
  187.6810  178.2640  140.3650 C   0  0  0  0  0  0  0  0  0  0  0  0
  186.3360  178.2350  142.0990 C   0  0  0  0  0  0  0  0  0  0  0  0
  185.7340  178.0520  143.2760 C   0  0  0  0  0  2  0  0  0  0  0  0
  183.7310  179.3090  142.3270 C   0  0  0  0  0  2  0  0  0  0  0  0
  184.2410  178.2800  143.3630 C   0  0  2  0  0  3  0  0  0  0  0  0
  186.5060  178.7350  139.8920 N   0  0  0  0  0  0  0  0  0  0  0  0
  185.6960  178.7280  140.9750 C   0  0  0  0  0  0  0  0  0  0  0  0
  188.8460  178.0930  139.6290 C   0  0  0  0  0  3  0  0  0  0  0  0
  188.7330  177.4370  142.3970 C   0  0  2  0  0  3  0  0  0  0  0  0
  184.4460  179.1940  140.9980 C   0  0  0  0  0  2  0  0  0  0  0  0
  188.6410  177.0950  143.8550 C   0  0  0  0  0  2  0  0  0  0  0  0
  191.1610  176.1900  145.3970 C   0  0  1  0  0  3  0  0  0  0  0  0
  192.1110  175.3190  144.5870 C   0  0  0  0  0  1  0  0  0  0  0  0
  191.0190  177.1290  147.7060 O   0  0  0  0  0  1  0  0  0  0  0  0
  192.6750  175.6360  147.1760 O   0  0  0  0  0  0  0  0  0  0  0  0
  191.6650  176.2940  146.8050 C   0  0  0  0  0  0  0  0  0  0  0  0
  183.8910  178.6810  144.6540 O   0  0  0  0  0  0  0  0  0  0  0  0
  185.0490  179.2670  145.1740 C   0  0  0  0  0  2  0  0  0  0  0  0
  186.7070  178.4410  146.8390 O   0  0  0  0  0  0  0  0  0  0  0  0
  185.3800  178.6550  146.4900 C   0  0  0  0  0  0  0  0  0  0  0  0
  184.4620  178.3220  147.2840 O   0  0  0  0  0  1  0  0  0  0  0  0
  191.2540  177.4440  139.5010 C   0  0  0  0  0  2  0  0  0  0  0  0
  189.7100  175.6180  137.9970 S   0  0  0  0  0  0  0  0  0  0  0  0
  190.5130  174.4370  137.1110 C   0  0  0  0  0  0  0  0  0  0  0  0
  192.2180  175.5710  138.0150 C   0  0  0  0  0  0  0  0  0  0  0  0
  191.8560  174.5330  137.2110 N   0  0  0  0  0  0  0  0  0  0  0  0
  189.8640  173.4530  136.3130 N   0  0  0  0  0  1  0  0  0  0  0  0
  191.1520  176.2980  138.5440 C   0  0  0  0  0  0  0  0  0  0  0  0
  193.6230  175.8850  138.2960 C   0  0  0  0  0  3  0  0  0  0  0  0
  194.5770  175.3100  137.6400 N   0  0  0  0  0  2  0  0  0  0  0  0
  1 19  1  6  0  0  0
  2  1  1  0  0  0  0
  3  4  1  0  0  0  0
  3 16  1  0  0  0  0
  4  2  1  0  0  0  0
  5  3  2  0  0  0  0
  6  1  1  0  0  0  0
  7  9  2  0  0  0  0
  7 16  1  0  0  0  0
  8  7  1  0  0  0  0
  9 10  1  0  0  0  0
 10 12  1  0  0  0  0
 11 12  1  0  0  0  0
 12 24  1  1  0  0  0
 13  8  1  0  0  0  0
 13 14  2  0  0  0  0
 14 17  1  0  0  0  0
 14  9  1  0  0  0  0
 15  5  1  0  0  0  0
 15  8  2  0  0  0  0
 16 18  1  1  0  0  0
 17 11  1  0  0  0  0
 18  6  1  0  0  0  0
 19 20  1  6  0  0  0
 19 23  1  0  0  0  0
 23 22  2  0  0  0  0
 23 21  1  0  0  0  0
 24 25  1  0  0  0  0
 25 27  1  0  0  0  0
 27 26  2  0  0  0  0
 27 28  1  0  0  0  0
 29  5  1  0  0  0  0
 30 35  1  0  0  0  0
 31 33  2  0  0  0  0
 31 30  1  0  0  0  0
 32 36  1  0  0  0  0
 32 35  2  0  0  0  0
 33 32  1  0  0  0  0
 34 31  1  0  0  0  0
 35 29  1  0  0  0  0
 37 36  2  0  0  0  0
M  END
>  <MODEL>
4

>  <REMARK>
 VINA RESULT:      -9.2      1.509      1.827
  Name = 
  8 active torsions:
  status: ('A' for Active; 'I' for Inactive)
    1  A    between atoms: C_3  and  C_22
    2  A    between atoms: C_7  and  C_14
    3  A    between atoms: C_10  and  C_30
    4  A    between atoms: C_11  and  C_16
    5  A    between atoms: C_14  and  O_23
    6  A    between atoms: C_20  and  O_23
    7  A    between atoms: C_22  and  C_32
    8  A    between atoms: C_30  and  C_34
                            x       y       z     vdW  Elec       q    Type
                         _______ _______ _______ _____ _____    ______ ____

>  <TORSDO>
F 8

$$$$
=
 OpenBabel11042412073D

 37 41  0  0  1  0  0  0  0  0999 V2000
  187.6070  176.7970  144.9280 C   0  0  1  0  0  3  0  0  0  0  0  0
  186.1370  177.1940  144.7260 C   0  0  0  0  0  2  0  0  0  0  0  0
  186.0820  178.5880  142.6570 C   0  0  0  0  0  0  0  0  0  0  0  0
  185.9760  178.6000  144.1540 C   0  0  0  0  0  2  0  0  0  0  0  0
  184.9440  178.9070  141.8630 C   0  0  0  0  0  0  0  0  0  0  0  0
  188.3450  176.6130  143.5940 C   0  0  0  0  0  2  0  0  0  0  0  0
  187.3490  178.2520  140.6320 C   0  0  0  0  0  0  0  0  0  0  0  0
  186.2440  178.5710  139.8700 C   0  0  0  0  0  0  0  0  0  0  0  0
  188.3580  177.9970  139.7290 C   0  0  0  0  0  0  0  0  0  0  0  0
  189.6440  177.7120  139.9340 C   0  0  0  0  0  2  0  0  0  0  0  0
  189.8400  177.2800  137.4310 C   0  0  0  0  0  2  0  0  0  0  0  0
  190.5710  177.6640  138.7390 C   0  0  2  0  0  3  0  0  0  0  0  0
  186.4940  178.5160  138.5420 N   0  0  0  0  0  0  0  0  0  0  0  0
  187.7920  178.1440  138.4740 C   0  0  0  0  0  0  0  0  0  0  0  0
  185.0290  178.9000  140.4580 C   0  0  0  0  0  3  0  0  0  0  0  0
  187.3120  178.2610  142.0330 C   0  0  2  0  0  3  0  0  0  0  0  0
  188.4530  177.8830  137.3460 C   0  0  0  0  0  2  0  0  0  0  0  0
  188.5340  177.9260  142.8370 C   0  0  0  0  0  2  0  0  0  0  0  0
  188.3560  177.7140  145.9150 C   0  0  1  0  0  3  0  0  0  0  0  0
  187.5490  177.9400  147.1860 C   0  0  0  0  0  1  0  0  0  0  0  0
  190.8130  177.5140  145.5210 O   0  0  0  0  0  0  0  0  0  0  0  0
  189.8330  176.3760  147.2530 O   0  0  0  0  0  1  0  0  0  0  0  0
  189.7020  177.1620  146.2760 C   0  0  0  0  0  0  0  0  0  0  0  0
  191.6230  176.7780  138.9810 O   0  0  0  0  0  0  0  0  0  0  0  0
  192.0420  176.3640  137.7140 C   0  0  0  0  0  2  0  0  0  0  0  0
  194.2780  175.9870  138.7460 O   0  0  0  0  0  1  0  0  0  0  0  0
  193.5290  176.3760  137.6430 C   0  0  0  0  0  0  0  0  0  0  0  0
  194.1110  176.7460  136.5900 O   0  0  0  0  0  0  0  0  0  0  0  0
  183.6240  179.2210  142.4960 C   0  0  0  0  0  2  0  0  0  0  0  0
  182.7120  177.4410  140.5010 S   0  0  0  0  0  0  0  0  0  0  0  0
  181.0570  177.3330  140.2270 C   0  0  0  0  0  0  0  0  0  0  0  0
  181.1480  178.8150  141.9020 C   0  0  0  0  0  0  0  0  0  0  0  0
  180.3390  178.1230  141.0530 N   0  0  0  0  0  0  0  0  0  0  0  0
  180.4600  176.4820  139.2550 N   0  0  0  0  0  1  0  0  0  0  0  0
  182.5110  178.5600  141.7460 C   0  0  0  0  0  0  0  0  0  0  0  0
  180.6150  179.7540  142.8950 C   0  0  0  0  0  3  0  0  0  0  0  0
  179.8990  180.7680  142.5340 N   0  0  0  0  0  2  0  0  0  0  0  0
  1 19  1  1  0  0  0
  2  1  1  0  0  0  0
  3  4  1  0  0  0  0
  4  2  1  0  0  0  0
  5 29  1  0  0  0  0
  5  3  2  0  0  0  0
  6  1  1  0  0  0  0
  7 16  1  0  0  0  0
  8 15  2  0  0  0  0
  8  7  1  0  0  0  0
  9 10  1  0  0  0  0
  9  7  2  0  0  0  0
 11 12  1  0  0  0  0
 12 24  1  1  0  0  0
 12 10  1  0  0  0  0
 13  8  1  0  0  0  0
 14 13  2  0  0  0  0
 14  9  1  0  0  0  0
 15  5  1  0  0  0  0
 16  3  1  0  0  0  0
 16 18  1  6  0  0  0
 17 11  1  0  0  0  0
 17 14  1  0  0  0  0
 18  6  1  0  0  0  0
 19 23  1  0  0  0  0
 19 20  1  1  0  0  0
 21 23  2  0  0  0  0
 23 22  1  0  0  0  0
 25 24  1  0  0  0  0
 27 25  1  0  0  0  0
 27 26  1  0  0  0  0
 28 27  2  0  0  0  0
 30 35  1  0  0  0  0
 31 30  1  0  0  0  0
 31 33  2  0  0  0  0
 32 36  1  0  0  0  0
 33 32  1  0  0  0  0
 34 31  1  0  0  0  0
 35 32  2  0  0  0  0
 35 29  1  0  0  0  0
 37 36  2  0  0  0  0
M  END
>  <MODEL>
5

>  <REMARK>
 VINA RESULT:      -9.0      3.718      7.540
  Name = 
  8 active torsions:
  status: ('A' for Active; 'I' for Inactive)
    1  A    between atoms: C_3  and  C_22
    2  A    between atoms: C_7  and  C_14
    3  A    between atoms: C_10  and  C_30
    4  A    between atoms: C_11  and  C_16
    5  A    between atoms: C_14  and  O_23
    6  A    between atoms: C_20  and  O_23
    7  A    between atoms: C_22  and  C_32
    8  A    between atoms: C_30  and  C_34
                            x       y       z     vdW  Elec       q    Type
                         _______ _______ _______ _____ _____    ______ ____

>  <TORSDO>
F 8

$$$$
=
 OpenBabel11042412073D

 37 41  0  0  1  0  0  0  0  0999 V2000
  185.3630  177.8280  143.6510 C   0  0  1  0  0  3  0  0  0  0  0  0
  184.3640  177.9210  142.4880 C   0  0  0  0  0  2  0  0  0  0  0  0
  185.6810  178.6990  140.5160 C   0  0  0  0  0  0  0  0  0  0  0  0
  184.6590  179.0850  141.5450 C   0  0  0  0  0  2  0  0  0  0  0  0
  185.3090  178.6150  139.1440 C   0  0  0  0  0  0  0  0  0  0  0  0
  186.7650  177.4200  143.1780 C   0  0  0  0  0  2  0  0  0  0  0  0
  187.9220  178.0490  139.9040 C   0  0  0  0  0  0  0  0  0  0  0  0
  187.5560  177.9780  138.5760 C   0  0  0  0  0  0  0  0  0  0  0  0
  189.2620  177.7290  139.9340 C   0  0  0  0  0  0  0  0  0  0  0  0
  190.1200  177.7140  140.9550 C   0  0  0  0  0  2  0  0  0  0  0  0
  191.8250  176.6790  139.3690 C   0  0  0  0  0  2  0  0  0  0  0  0
  191.5890  177.5020  140.6570 C   0  0  2  0  0  3  0  0  0  0  0  0
  188.5810  177.6190  137.7720 N   0  0  0  0  0  0  0  0  0  0  0  0
  189.6170  177.4520  138.6250 C   0  0  0  0  0  0  0  0  0  0  0  0
  186.2570  178.2540  138.1680 C   0  0  0  0  0  3  0  0  0  0  0  0
  187.0150  178.4180  140.9060 C   0  0  2  0  0  3  0  0  0  0  0  0
  190.8280  177.0120  138.2800 C   0  0  0  0  0  2  0  0  0  0  0  0
  187.4450  178.5020  142.3420 C   0  0  0  0  0  2  0  0  0  0  0  0
  185.3650  179.0770  144.5530 C   0  0  1  0  0  3  0  0  0  0  0  0
  184.0030  179.7580  144.5640 C   0  0  0  0  0  1  0  0  0  0  0  0
  187.0360  178.2570  146.2160 O   0  0  0  0  0  0  0  0  0  0  0  0
  184.9490  178.9030  146.9110 O   0  0  0  0  0  1  0  0  0  0  0  0
  185.7630  178.7470  145.9600 C   0  0  0  0  0  0  0  0  0  0  0  0
  192.2150  176.8880  141.7440 O   0  0  0  0  0  0  0  0  0  0  0  0
  191.6790  177.5180  142.8710 C   0  0  0  0  0  2  0  0  0  0  0  0
  190.3530  176.7560  144.8370 O   0  0  0  0  0  1  0  0  0  0  0  0
  191.3600  176.5060  143.9140 C   0  0  0  0  0  0  0  0  0  0  0  0
  192.0050  175.4260  143.9690 O   0  0  0  0  0  0  0  0  0  0  0  0
  183.9000  178.8720  138.7090 C   0  0  0  0  0  2  0  0  0  0  0  0
  183.4800  176.3400  137.5300 S   0  0  0  0  0  0  0  0  0  0  0  0
  182.1600  175.4320  138.0410 C   0  0  0  0  0  0  0  0  0  0  0  0
  181.9950  177.2500  139.3350 C   0  0  0  0  0  0  0  0  0  0  0  0
  181.4540  176.0420  139.0150 N   0  0  0  0  0  0  0  0  0  0  0  0
  181.8280  174.1450  137.5330 N   0  0  0  0  0  1  0  0  0  0  0  0
  183.1380  177.5870  138.6110 C   0  0  0  0  0  0  0  0  0  0  0  0
  181.4080  178.1210  140.3600 C   0  0  0  0  0  3  0  0  0  0  0  0
  180.2650  177.8400  140.8950 N   0  0  0  0  0  2  0  0  0  0  0  0
  1 19  1  6  0  0  0
  2  1  1  0  0  0  0
  3 16  1  0  0  0  0
  3  4  1  0  0  0  0
  4  2  1  0  0  0  0
  5  3  2  0  0  0  0
  6  1  1  0  0  0  0
  7  9  2  0  0  0  0
  7 16  1  0  0  0  0
  8  7  1  0  0  0  0
  9 10  1  0  0  0  0
 11 12  1  0  0  0  0
 12 10  1  0  0  0  0
 12 24  1  1  0  0  0
 13  8  1  0  0  0  0
 13 14  2  0  0  0  0
 14  9  1  0  0  0  0
 15  8  2  0  0  0  0
 15  5  1  0  0  0  0
 16 18  1  1  0  0  0
 17 14  1  0  0  0  0
 17 11  1  0  0  0  0
 18  6  1  0  0  0  0
 19 20  1  1  0  0  0
 19 23  1  0  0  0  0
 23 21  2  0  0  0  0
 23 22  1  0  0  0  0
 24 25  1  0  0  0  0
 25 27  1  0  0  0  0
 27 28  2  0  0  0  0
 27 26  1  0  0  0  0
 29  5  1  0  0  0  0
 30 31  1  0  0  0  0
 30 35  1  0  0  0  0
 31 33  2  0  0  0  0
 32 36  1  0  0  0  0
 33 32  1  0  0  0  0
 34 31  1  0  0  0  0
 35 29  1  0  0  0  0
 35 32  2  0  0  0  0
 36 37  2  0  0  0  0
M  END
>  <MODEL>
6

>  <REMARK>
 VINA RESULT:      -8.7      3.074      6.838
  Name = 
  8 active torsions:
  status: ('A' for Active; 'I' for Inactive)
    1  A    between atoms: C_3  and  C_22
    2  A    between atoms: C_7  and  C_14
    3  A    between atoms: C_10  and  C_30
    4  A    between atoms: C_11  and  C_16
    5  A    between atoms: C_14  and  O_23
    6  A    between atoms: C_20  and  O_23
    7  A    between atoms: C_22  and  C_32
    8  A    between atoms: C_30  and  C_34
                            x       y       z     vdW  Elec       q    Type
                         _______ _______ _______ _____ _____    ______ ____

>  <TORSDO>
F 8

$$$$
=
 OpenBabel11042412073D

 37 41  0  0  1  0  0  0  0  0999 V2000
  183.9080  177.8360  142.0740 C   0  0  1  0  0  3  0  0  0  0  0  0
  184.1780  177.7340  140.5660 C   0  0  0  0  0  2  0  0  0  0  0  0
  186.5370  178.4820  140.2420 C   0  0  0  0  0  0  0  0  0  0  0  0
  185.0920  178.8440  140.0510 C   0  0  0  0  0  2  0  0  0  0  0  0
  187.3660  178.2530  139.1070 C   0  0  0  0  0  0  0  0  0  0  0  0
  185.1610  177.5360  142.9080 C   0  0  0  0  0  2  0  0  0  0  0  0
  188.4280  178.0180  141.6650 C   0  0  0  0  0  0  0  0  0  0  0  0
  189.2270  177.8050  140.5600 C   0  0  0  0  0  0  0  0  0  0  0  0
  189.2520  177.8380  142.7550 C   0  0  0  0  0  0  0  0  0  0  0  0
  189.0030  177.9920  144.0560 C   0  0  0  0  0  2  0  0  0  0  0  0
  191.3130  177.0130  144.5060 C   0  0  0  0  0  2  0  0  0  0  0  0
  190.1620  177.9070  145.0260 C   0  0  2  0  0  3  0  0  0  0  0  0
  190.4990  177.4890  140.8910 N   0  0  0  0  0  0  0  0  0  0  0  0
  190.4920  177.4960  142.2430 C   0  0  0  0  0  0  0  0  0  0  0  0
  188.7220  177.9140  139.2710 C   0  0  0  0  0  3  0  0  0  0  0  0
  187.0770  178.3710  141.5480 C   0  0  2  0  0  3  0  0  0  0  0  0
  191.5260  177.1550  143.0140 C   0  0  0  0  0  2  0  0  0  0  0  0
  186.2360  178.6120  142.7670 C   0  0  0  0  0  2  0  0  0  0  0  0
  183.2060  179.1460  142.4800 C   0  0  1  0  0  3  0  0  0  0  0  0
  181.9470  179.3810  141.6570 C   0  0  0  0  0  1  0  0  0  0  0  0
  183.7190  179.7530  144.8470 O   0  0  0  0  0  1  0  0  0  0  0  0
  181.7830  178.6330  144.3440 O   0  0  0  0  0  0  0  0  0  0  0  0
  182.8530  179.1610  143.9370 C   0  0  0  0  0  0  0  0  0  0  0  0
  189.7170  177.4480  146.2670 O   0  0  0  0  0  0  0  0  0  0  0  0
  188.3250  177.3860  146.1500 C   0  0  0  0  0  2  0  0  0  0  0  0
  186.5360  178.6370  147.3490 O   0  0  0  0  0  0  0  0  0  0  0  0
  187.6890  177.8650  147.4070 C   0  0  0  0  0  0  0  0  0  0  0  0
  188.1950  177.5790  148.5230 O   0  0  0  0  0  1  0  0  0  0  0  0
  186.8120  178.3300  137.7180 C   0  0  0  0  0  2  0  0  0  0  0  0
  187.4890  175.6850  136.9950 S   0  0  0  0  0  0  0  0  0  0  0  0
  186.2740  174.6860  136.3990 C   0  0  0  0  0  0  0  0  0  0  0  0
  185.1480  176.5710  136.8310 C   0  0  0  0  0  0  0  0  0  0  0  0
  185.0690  175.2930  136.3700 N   0  0  0  0  0  0  0  0  0  0  0  0
  186.4730  173.3360  135.9960 N   0  0  0  0  0  1  0  0  0  0  0  0
  186.4230  176.9690  137.2320 C   0  0  0  0  0  0  0  0  0  0  0  0
  183.9760  177.4520  136.8920 C   0  0  0  0  0  3  0  0  0  0  0  0
  182.8230  177.0540  136.4640 N   0  0  0  0  0  2  0  0  0  0  0  0
  1 19  1  6  0  0  0
  1  6  1  0  0  0  0
  2  1  1  0  0  0  0
  3 16  1  0  0  0  0
  4  3  1  0  0  0  0
  4  2  1  0  0  0  0
  5 15  1  0  0  0  0
  5  3  2  0  0  0  0
  7  9  2  0  0  0  0
  8 13  1  0  0  0  0
  8  7  1  0  0  0  0
  9 10  1  0  0  0  0
 10 12  1  0  0  0  0
 11 12  1  0  0  0  0
 12 24  1  1  0  0  0
 13 14  2  0  0  0  0
 14  9  1  0  0  0  0
 14 17  1  0  0  0  0
 15  8  2  0  0  0  0
 16  7  1  0  0  0  0
 16 18  1  1  0  0  0
 17 11  1  0  0  0  0
 18  6  1  0  0  0  0
 19 20  1  6  0  0  0
 19 23  1  0  0  0  0
 23 22  2  0  0  0  0
 23 21  1  0  0  0  0
 25 24  1  0  0  0  0
 25 27  1  0  0  0  0
 26 27  2  0  0  0  0
 27 28  1  0  0  0  0
 29  5  1  0  0  0  0
 30 35  1  0  0  0  0
 31 30  1  0  0  0  0
 32 36  1  0  0  0  0
 32 35  2  0  0  0  0
 33 31  2  0  0  0  0
 33 32  1  0  0  0  0
 34 31  1  0  0  0  0
 35 29  1  0  0  0  0
 37 36  2  0  0  0  0
M  END
>  <MODEL>
7

>  <REMARK>
 VINA RESULT:      -8.2      2.441      5.953
  Name = 
  8 active torsions:
  status: ('A' for Active; 'I' for Inactive)
    1  A    between atoms: C_3  and  C_22
    2  A    between atoms: C_7  and  C_14
    3  A    between atoms: C_10  and  C_30
    4  A    between atoms: C_11  and  C_16
    5  A    between atoms: C_14  and  O_23
    6  A    between atoms: C_20  and  O_23
    7  A    between atoms: C_22  and  C_32
    8  A    between atoms: C_30  and  C_34
                            x       y       z     vdW  Elec       q    Type
                         _______ _______ _______ _____ _____    ______ ____

>  <TORSDO>
F 8

$$$$
=
 OpenBabel11042412073D

 37 41  0  0  1  0  0  0  0  0999 V2000
  189.0390  178.5470  139.7300 C   0  0  1  0  0  3  0  0  0  0  0  0
  187.8500  178.9270  138.8360 C   0  0  0  0  0  2  0  0  0  0  0  0
  185.8060  178.1990  140.0700 C   0  0  0  0  0  0  0  0  0  0  0  0
  186.7090  177.9140  138.9050 C   0  0  0  0  0  2  0  0  0  0  0  0
  184.4650  178.6200  139.8410 C   0  0  0  0  0  0  0  0  0  0  0  0
  188.6970  178.6540  141.2230 C   0  0  0  0  0  2  0  0  0  0  0  0
  185.4010  178.3420  142.4430 C   0  0  0  0  0  0  0  0  0  0  0  0
  184.1010  178.7420  142.2130 C   0  0  0  0  0  0  0  0  0  0  0  0
  185.5340  178.2920  143.8140 C   0  0  0  0  0  0  0  0  0  0  0  0
  186.5640  177.9000  144.5650 C   0  0  0  0  0  2  0  0  0  0  0  0
  185.2610  178.7230  146.5950 C   0  0  0  0  0  2  0  0  0  0  0  0
  186.3580  177.7730  146.0580 C   0  0  2  0  0  3  0  0  0  0  0  0
  183.4130  178.9610  143.3560 N   0  0  0  0  0  0  0  0  0  0  0  0
  184.3150  178.6970  144.3290 C   0  0  0  0  0  0  0  0  0  0  0  0
  183.6070  178.8910  140.9230 C   0  0  0  0  0  3  0  0  0  0  0  0
  186.2840  178.0480  141.3960 C   0  0  2  0  0  3  0  0  0  0  0  0
  184.0980  178.8620  145.6350 C   0  0  0  0  0  2  0  0  0  0  0  0
  187.6890  177.6000  141.6760 C   0  0  0  0  0  2  0  0  0  0  0  0
  189.6820  177.2000  139.3490 C   0  0  1  0  0  3  0  0  0  0  0  0
  190.1860  177.2100  137.9120 C   0  0  0  0  0  1  0  0  0  0  0  0
  192.0360  177.4880  140.1290 O   0  0  0  0  0  0  0  0  0  0  0  0
  190.6680  175.9590  141.1520 O   0  0  0  0  0  1  0  0  0  0  0  0
  190.8140  176.8440  140.2650 C   0  0  0  0  0  0  0  0  0  0  0  0
  187.5620  177.9990  146.7300 O   0  0  0  0  0  0  0  0  0  0  0  0
  188.5350  177.3800  145.9400 C   0  0  0  0  0  2  0  0  0  0  0  0
  190.9920  176.9770  146.0210 O   0  0  0  0  0  0  0  0  0  0  0  0
  189.8170  177.2920  146.6910 C   0  0  0  0  0  0  0  0  0  0  0  0
  189.8400  177.4940  147.9330 O   0  0  0  0  0  1  0  0  0  0  0  0
  183.9460  178.8220  138.4510 C   0  0  0  0  0  2  0  0  0  0  0  0
  183.1160  176.1290  138.2580 S   0  0  0  0  0  0  0  0  0  0  0  0
  181.5850  175.8090  137.6400 C   0  0  0  0  0  0  0  0  0  0  0  0
  181.6410  178.0460  137.5940 C   0  0  0  0  0  0  0  0  0  0  0  0
  180.9050  176.9320  137.3290 N   0  0  0  0  0  0  0  0  0  0  0  0
  181.0410  174.5040  137.4850 N   0  0  0  0  0  1  0  0  0  0  0  0
  182.9060  177.7960  138.1240 C   0  0  0  0  0  0  0  0  0  0  0  0
  181.1320  179.3970  137.3330 C   0  0  0  0  0  3  0  0  0  0  0  0
  180.1700  179.8930  138.0400 N   0  0  0  0  0  2  0  0  0  0  0  0
  1 19  1  6  0  0  0
  1  6  1  0  0  0  0
  2  4  1  0  0  0  0
  2  1  1  0  0  0  0
  3 16  1  0  0  0  0
  4  3  1  0  0  0  0
  5  3  2  0  0  0  0
  5 15  1  0  0  0  0
  6 18  1  0  0  0  0
  7  9  2  0  0  0  0
  8  7  1  0  0  0  0
  8 13  1  0  0  0  0
  9 14  1  0  0  0  0
  9 10  1  0  0  0  0
 10 12  1  0  0  0  0
 12 11  1  0  0  0  0
 12 24  1  1  0  0  0
 13 14  2  0  0  0  0
 14 17  1  0  0  0  0
 15  8  2  0  0  0  0
 16 18  1  6  0  0  0
 16  7  1  0  0  0  0
 17 11  1  0  0  0  0
 19 20  1  6  0  0  0
 19 23  1  0  0  0  0
 21 23  2  0  0  0  0
 23 22  1  0  0  0  0
 25 27  1  0  0  0  0
 25 24  1  0  0  0  0
 26 27  2  0  0  0  0
 27 28  1  0  0  0  0
 29  5  1  0  0  0  0
 31 30  1  0  0  0  0
 32 35  2  0  0  0  0
 33 32  1  0  0  0  0
 33 31  2  0  0  0  0
 34 31  1  0  0  0  0
 35 30  1  0  0  0  0
 35 29  1  0  0  0  0
 36 32  1  0  0  0  0
 36 37  2  0  0  0  0
M  END
>  <MODEL>
8

>  <REMARK>
 VINA RESULT:      -8.2      3.570      5.779
  Name = 
  8 active torsions:
  status: ('A' for Active; 'I' for Inactive)
    1  A    between atoms: C_3  and  C_22
    2  A    between atoms: C_7  and  C_14
    3  A    between atoms: C_10  and  C_30
    4  A    between atoms: C_11  and  C_16
    5  A    between atoms: C_14  and  O_23
    6  A    between atoms: C_20  and  O_23
    7  A    between atoms: C_22  and  C_32
    8  A    between atoms: C_30  and  C_34
                            x       y       z     vdW  Elec       q    Type
                         _______ _______ _______ _____ _____    ______ ____

>  <TORSDO>
F 8

$$$$
=
 OpenBabel11042412073D

 37 41  0  0  1  0  0  0  0  0999 V2000
  189.8270  178.2620  140.8730 C   0  0  1  0  0  3  0  0  0  0  0  0
  188.9610  178.6360  139.6620 C   0  0  0  0  0  2  0  0  0  0  0  0
  186.6200  178.0300  140.2830 C   0  0  0  0  0  0  0  0  0  0  0  0
  187.8050  177.6620  139.4370 C   0  0  0  0  0  2  0  0  0  0  0  0
  185.4200  178.4800  139.6630 C   0  0  0  0  0  0  0  0  0  0  0  0
  189.0790  178.4510  142.2000 C   0  0  0  0  0  2  0  0  0  0  0  0
  185.5610  178.2980  142.4330 C   0  0  0  0  0  0  0  0  0  0  0  0
  184.3990  178.7260  141.8250 C   0  0  0  0  0  0  0  0  0  0  0  0
  185.2940  178.3090  143.7850 C   0  0  0  0  0  0  0  0  0  0  0  0
  186.0500  177.9220  144.8140 C   0  0  0  0  0  2  0  0  0  0  0  0
  184.2580  178.8790  146.3530 C   0  0  0  0  0  2  0  0  0  0  0  0
  185.4210  177.8720  146.1900 C   0  0  2  0  0  3  0  0  0  0  0  0
  183.4240  179.0190  142.7140 N   0  0  0  0  0  0  0  0  0  0  0  0
  183.9980  178.7750  143.9140 C   0  0  0  0  0  0  0  0  0  0  0  0
  184.3010  178.8280  140.4430 C   0  0  0  0  0  3  0  0  0  0  0  0
  186.6940  177.9280  141.6950 C   0  0  2  0  0  3  0  0  0  0  0  0
  183.4250  179.0080  145.0960 C   0  0  0  0  0  2  0  0  0  0  0  0
  187.9390  177.4510  142.3830 C   0  0  0  0  0  2  0  0  0  0  0  0
  190.4950  176.8800  140.7430 C   0  0  1  0  0  3  0  0  0  0  0  0
  191.5420  176.8700  139.6380 C   0  0  0  0  0  1  0  0  0  0  0  0
  192.1930  177.1690  142.5490 O   0  0  0  0  0  0  0  0  0  0  0  0
  190.7120  175.4210  142.6370 O   0  0  0  0  0  1  0  0  0  0  0  0
  191.1290  176.4440  142.0280 C   0  0  0  0  0  0  0  0  0  0  0  0
  186.3910  178.0920  147.1700 O   0  0  0  0  0  0  0  0  0  0  0  0
  187.5570  177.5150  146.6570 C   0  0  0  0  0  2  0  0  0  0  0  0
  188.3620  177.9440  148.9750 O   0  0  0  0  0  1  0  0  0  0  0  0
  188.6540  177.6150  147.6580 C   0  0  0  0  0  0  0  0  0  0  0  0
  189.8470  177.4110  147.3130 O   0  0  0  0  0  0  0  0  0  0  0  0
  185.3280  178.6310  138.1760 C   0  0  0  0  0  2  0  0  0  0  0  0
  183.3410  176.6400  137.9200 S   0  0  0  0  0  0  0  0  0  0  0  0
  183.6380  175.3470  136.8870 C   0  0  0  0  0  0  0  0  0  0  0  0
  185.4920  176.5740  136.6310 C   0  0  0  0  0  0  0  0  0  0  0  0
  184.8280  175.4450  136.2590 N   0  0  0  0  0  0  0  0  0  0  0  0
  182.7280  174.2750  136.6640 N   0  0  0  0  0  1  0  0  0  0  0  0
  184.8140  177.3730  137.5510 C   0  0  0  0  0  0  0  0  0  0  0  0
  186.8170  176.9100  136.0980 C   0  0  0  0  0  3  0  0  0  0  0  0
  187.1420  176.6070  134.8840 N   0  0  0  0  0  2  0  0  0  0  0  0
  1 19  1  6  0  0  0
  1  6  1  0  0  0  0
  2  1  1  0  0  0  0
  3 16  1  0  0  0  0
  4  2  1  0  0  0  0
  4  3  1  0  0  0  0
  5  3  2  0  0  0  0
  5 15  1  0  0  0  0
  6 18  1  0  0  0  0
  7  9  2  0  0  0  0
  8  7  1  0  0  0  0
  8 13  1  0  0  0  0
  9 14  1  0  0  0  0
  9 10  1  0  0  0  0
 10 12  1  0  0  0  0
 12 11  1  0  0  0  0
 12 24  1  1  0  0  0
 13 14  2  0  0  0  0
 14 17  1  0  0  0  0
 15  8  2  0  0  0  0
 16 18  1  1  0  0  0
 16  7  1  0  0  0  0
 17 11  1  0  0  0  0
 19 20  1  6  0  0  0
 19 23  1  0  0  0  0
 23 21  2  0  0  0  0
 23 22  1  0  0  0  0
 25 24  1  0  0  0  0
 25 27  1  0  0  0  0
 27 26  1  0  0  0  0
 28 27  2  0  0  0  0
 29  5  1  0  0  0  0
 31 30  1  0  0  0  0
 32 35  2  0  0  0  0
 33 32  1  0  0  0  0
 33 31  2  0  0  0  0
 34 31  1  0  0  0  0
 35 30  1  0  0  0  0
 35 29  1  0  0  0  0
 36 32  1  0  0  0  0
 37 36  2  0  0  0  0
M  END
>  <MODEL>
9

>  <REMARK>
 VINA RESULT:      -8.0      2.750      4.010
  Name = 
  8 active torsions:
  status: ('A' for Active; 'I' for Inactive)
    1  A    between atoms: C_3  and  C_22
    2  A    between atoms: C_7  and  C_14
    3  A    between atoms: C_10  and  C_30
    4  A    between atoms: C_11  and  C_16
    5  A    between atoms: C_14  and  O_23
    6  A    between atoms: C_20  and  O_23
    7  A    between atoms: C_22  and  C_32
    8  A    between atoms: C_30  and  C_34
                            x       y       z     vdW  Elec       q    Type
                         _______ _______ _______ _____ _____    ______ ____

>  <TORSDO>
F 8

$$$$
