=
 OpenBabel11042412273D

 26 28  0  0  1  0  0  0  0  0999 V2000
  188.1950  177.4850  144.7210 C   0  0  0  0  0  3  0  0  0  0  0  0
  186.2660  178.0980  143.3760 C   0  0  0  0  0  0  0  0  0  0  0  0
  189.0240  177.5480  143.5940 C   0  0  0  0  0  0  0  0  0  0  0  0
  188.4750  177.9090  142.3480 C   0  0  0  0  0  0  0  0  0  0  0  0
  186.8290  177.7550  144.6140 C   0  0  0  0  0  3  0  0  0  0  0  0
  187.1000  178.1740  142.2520 C   0  0  0  0  0  3  0  0  0  0  0  0
  182.1020  178.9240  143.0370 N   0  0  0  0  0  0  0  0  0  0  0  0
  184.1830  178.3680  142.0060 C   0  0  0  0  0  3  0  0  0  0  0  0
  182.8160  178.6410  141.9160 C   0  0  0  0  0  3  0  0  0  0  0  0
  184.8170  178.3850  143.2590 C   0  0  0  0  0  0  0  0  0  0  0  0
  184.0500  178.6810  144.3970 C   0  0  0  0  0  3  0  0  0  0  0  0
  182.6860  178.9500  144.2640 C   0  0  0  0  0  3  0  0  0  0  0  0
  190.9470  179.5760  144.0810 O   0  0  0  0  0  1  0  0  0  0  0  0
  191.3420  178.2460  143.9870 C   0  0  0  0  0  3  0  0  0  0  0  0
  190.4680  177.2590  143.7540 C   0  0  0  0  0  0  0  0  0  0  0  0
  190.4220  175.1300  142.7910 O   0  0  0  0  0  0  0  0  0  0  0  0
  190.9420  175.9090  143.6170 N   0  0  0  0  0  0  0  0  0  0  0  0
  192.0090  175.4700  144.3660 O   0  0  0  0  0  0  0  0  0  0  0  0
  189.3060  178.0180  141.2240 O   0  0  0  0  0  0  0  0  0  0  0  0
  190.1820  177.4860  139.0600 C   0  0  0  0  0  2  0  0  0  0  0  0
  189.0780  178.5180  138.8900 C   0  0  2  0  0  3  0  0  0  0  0  0
  188.9740  177.4480  139.9660 C   0  0  2  0  0  3  0  0  0  0  0  0
  188.7470  177.9870  136.5210 C   0  0  0  0  0  2  0  0  0  0  0  0
  188.1950  178.1680  137.7200 C   0  0  0  0  0  0  0  0  0  0  0  0
  186.7480  177.7930  137.8840 C   0  0  0  0  0  2  0  0  0  0  0  0
  186.0160  178.7820  138.6590 N   0  0  0  0  0  1  0  0  0  0  0  0
  2  5  2  0  0  0  0
  3 15  1  0  0  0  0
  3  1  2  0  0  0  0
  4  3  1  0  0  0  0
  5  1  1  0  0  0  0
  6  4  2  0  0  0  0
  6  2  1  0  0  0  0
  7 12  1  0  0  0  0
  8 10  2  0  0  0  0
  9  8  1  0  0  0  0
  9  7  2  0  0  0  0
 10  2  1  0  0  0  0
 10 11  1  0  0  0  0
 12 11  2  0  0  0  0
 14 13  1  0  0  0  0
 15 14  2  0  0  0  0
 16 17  2  0  0  0  0
 17 15  1  0  0  0  0
 17 18  2  0  0  0  0
 19  4  1  0  0  0  0
 20 22  1  0  0  0  0
 21 24  1  6  0  0  0
 21 20  1  0  0  0  0
 21 22  1  0  0  0  0
 22 19  1  1  0  0  0
 23 24  2  0  0  0  0
 24 25  1  0  0  0  0
 25 26  1  0  0  0  0
M  END
>  <MODEL>
1

>  <REMARK>
 VINA RESULT:      -8.2      0.000      0.000
  Name = 
  7 active torsions:
  status: ('A' for Active; 'I' for Inactive)
    1  A    between atoms: C_2  and  C_19
    2  A    between atoms: C_3  and  C_26
    3  A    between atoms: C_6  and  O_18
    4  A    between atoms: C_8  and  C_14
    5  A    between atoms: C_8  and  C_22
    6  A    between atoms: N_10  and  C_26
    7  A    between atoms: O_18  and  C_24
                            x       y       z     vdW  Elec       q    Type
                         _______ _______ _______ _____ _____    ______ ____

>  <TORSDO>
F 7

$$$$
=
 OpenBabel11042412273D

 26 28  0  0  1  0  0  0  0  0999 V2000
  188.2390  177.1930  144.8810 C   0  0  0  0  0  3  0  0  0  0  0  0
  186.3810  177.9780  143.5250 C   0  0  0  0  0  0  0  0  0  0  0  0
  189.1120  177.3200  143.7940 C   0  0  0  0  0  0  0  0  0  0  0  0
  188.6210  177.7980  142.5630 C   0  0  0  0  0  0  0  0  0  0  0  0
  186.8870  177.5160  144.7490 C   0  0  0  0  0  3  0  0  0  0  0  0
  187.2600  178.1160  142.4410 C   0  0  0  0  0  3  0  0  0  0  0  0
  182.2590  178.9630  143.1160 N   0  0  0  0  0  0  0  0  0  0  0  0
  184.1820  178.6820  144.5030 C   0  0  0  0  0  3  0  0  0  0  0  0
  182.8320  179.0020  144.3480 C   0  0  0  0  0  3  0  0  0  0  0  0
  184.9470  178.3210  143.3820 C   0  0  0  0  0  0  0  0  0  0  0  0
  184.3240  178.2910  142.1240 C   0  0  0  0  0  3  0  0  0  0  0  0
  182.9710  178.6170  142.0110 C   0  0  0  0  0  3  0  0  0  0  0  0
  190.2320  174.8970  142.8360 O   0  0  0  0  0  1  0  0  0  0  0  0
  191.0290  175.8180  143.5070 C   0  0  0  0  0  3  0  0  0  0  0  0
  190.5390  176.9710  143.9790 C   0  0  0  0  0  0  0  0  0  0  0  0
  191.7760  178.9410  144.2070 O   0  0  0  0  0  0  0  0  0  0  0  0
  191.4000  177.8610  144.7090 N   0  0  0  0  0  0  0  0  0  0  0  0
  191.7870  177.5540  145.9930 O   0  0  0  0  0  0  0  0  0  0  0  0
  189.4960  177.9700  141.4820 O   0  0  0  0  0  0  0  0  0  0  0  0
  190.6300  177.3690  139.4600 C   0  0  0  0  0  2  0  0  0  0  0  0
  189.4450  178.2530  139.1000 C   0  0  2  0  0  3  0  0  0  0  0  0
  189.3500  177.2670  140.2560 C   0  0  2  0  0  3  0  0  0  0  0  0
  189.4300  177.2570  136.8620 C   0  0  0  0  0  2  0  0  0  0  0  0
  188.7210  177.7120  137.8940 C   0  0  0  0  0  0  0  0  0  0  0  0
  187.2400  177.4550  137.8890 C   0  0  0  0  0  2  0  0  0  0  0  0
  186.4940  178.5620  138.4680 N   0  0  0  0  0  1  0  0  0  0  0  0
  2  5  2  0  0  0  0
  3 15  1  0  0  0  0
  3  1  2  0  0  0  0
  4  3  1  0  0  0  0
  5  1  1  0  0  0  0
  6  4  2  0  0  0  0
  6  2  1  0  0  0  0
  7  9  1  0  0  0  0
  9  8  2  0  0  0  0
 10  2  1  0  0  0  0
 10  8  1  0  0  0  0
 11 10  2  0  0  0  0
 12 11  1  0  0  0  0
 12  7  2  0  0  0  0
 13 14  1  0  0  0  0
 14 15  2  0  0  0  0
 15 17  1  0  0  0  0
 16 17  2  0  0  0  0
 17 18  2  0  0  0  0
 19  4  1  0  0  0  0
 20 22  1  0  0  0  0
 21 24  1  6  0  0  0
 21 20  1  0  0  0  0
 21 22  1  0  0  0  0
 22 19  1  1  0  0  0
 23 24  2  0  0  0  0
 25 24  1  0  0  0  0
 25 26  1  0  0  0  0
M  END
>  <MODEL>
2

>  <REMARK>
 VINA RESULT:      -8.1      0.877      1.838
  Name = 
  7 active torsions:
  status: ('A' for Active; 'I' for Inactive)
    1  A    between atoms: C_2  and  C_19
    2  A    between atoms: C_3  and  C_26
    3  A    between atoms: C_6  and  O_18
    4  A    between atoms: C_8  and  C_14
    5  A    between atoms: C_8  and  C_22
    6  A    between atoms: N_10  and  C_26
    7  A    between atoms: O_18  and  C_24
                            x       y       z     vdW  Elec       q    Type
                         _______ _______ _______ _____ _____    ______ ____

>  <TORSDO>
F 7

$$$$
=
 OpenBabel11042412273D

 26 28  0  0  1  0  0  0  0  0999 V2000
  192.0640  177.4820  141.5740 C   0  0  0  0  0  3  0  0  0  0  0  0
  190.4420  177.2310  139.7820 C   0  0  0  0  0  0  0  0  0  0  0  0
  191.0660  177.2680  142.5330 C   0  0  0  0  0  0  0  0  0  0  0  0
  189.7450  177.0140  142.1150 C   0  0  0  0  0  0  0  0  0  0  0  0
  191.7560  177.4660  140.2130 C   0  0  0  0  0  3  0  0  0  0  0  0
  189.4470  177.0040  140.7430 C   0  0  0  0  0  3  0  0  0  0  0  0
  189.4900  177.1810  135.6320 N   0  0  0  0  0  0  0  0  0  0  0  0
  189.1650  178.1050  137.8090 C   0  0  0  0  0  3  0  0  0  0  0  0
  188.8660  178.0740  136.4460 C   0  0  0  0  0  3  0  0  0  0  0  0
  190.1120  177.2130  138.3380 C   0  0  0  0  0  0  0  0  0  0  0  0
  190.7370  176.3050  137.4700 C   0  0  0  0  0  3  0  0  0  0  0  0
  190.4100  176.3050  136.1120 C   0  0  0  0  0  3  0  0  0  0  0  0
  191.2150  179.6660  144.0420 O   0  0  0  0  0  1  0  0  0  0  0  0
  191.4920  178.4430  144.6430 C   0  0  0  0  0  3  0  0  0  0  0  0
  191.4370  177.2890  143.9660 C   0  0  0  0  0  0  0  0  0  0  0  0
  191.9900  175.0180  143.9750 O   0  0  0  0  0  0  0  0  0  0  0  0
  191.7830  176.0620  144.6300 N   0  0  0  0  0  0  0  0  0  0  0  0
  191.9340  176.0300  145.9970 O   0  0  0  0  0  0  0  0  0  0  0  0
  188.7490  176.7560  143.0660 O   0  0  0  0  0  0  0  0  0  0  0  0
  187.9730  177.5080  145.2030 C   0  0  0  0  0  2  0  0  0  0  0  0
  186.7620  177.2010  144.3340 C   0  0  2  0  0  3  0  0  0  0  0  0
  188.0240  177.7880  143.7190 C   0  0  2  0  0  3  0  0  0  0  0  0
  184.7440  178.3630  143.5740 C   0  0  0  0  0  2  0  0  0  0  0  0
  185.7110  178.2700  144.4850 C   0  0  0  0  0  0  0  0  0  0  0  0
  185.5720  179.0970  145.7340 C   0  0  0  0  0  2  0  0  0  0  0  0
  184.5320  178.5830  146.6120 N   0  0  0  0  0  1  0  0  0  0  0  0
  1  3  1  0  0  0  0
  2  5  1  0  0  0  0
  2  6  2  0  0  0  0
  3 15  1  0  0  0  0
  4  3  2  0  0  0  0
  4 19  1  0  0  0  0
  5  1  2  0  0  0  0
  6  4  1  0  0  0  0
  7 12  2  0  0  0  0
  7  9  1  0  0  0  0
  8 10  1  0  0  0  0
  9  8  2  0  0  0  0
 10  2  1  0  0  0  0
 11 10  2  0  0  0  0
 12 11  1  0  0  0  0
 13 14  1  0  0  0  0
 15 17  1  0  0  0  0
 15 14  2  0  0  0  0
 16 17  2  0  0  0  0
 17 18  2  0  0  0  0
 21 24  1  1  0  0  0
 21 20  1  0  0  0  0
 22 19  1  6  0  0  0
 22 21  1  0  0  0  0
 22 20  1  0  0  0  0
 23 24  2  0  0  0  0
 24 25  1  0  0  0  0
 25 26  1  0  0  0  0
M  END
>  <MODEL>
3

>  <REMARK>
 VINA RESULT:      -7.8      1.865      6.144
  Name = 
  7 active torsions:
  status: ('A' for Active; 'I' for Inactive)
    1  A    between atoms: C_2  and  C_19
    2  A    between atoms: C_3  and  C_26
    3  A    between atoms: C_6  and  O_18
    4  A    between atoms: C_8  and  C_14
    5  A    between atoms: C_8  and  C_22
    6  A    between atoms: N_10  and  C_26
    7  A    between atoms: O_18  and  C_24
                            x       y       z     vdW  Elec       q    Type
                         _______ _______ _______ _____ _____    ______ ____

>  <TORSDO>
F 7

$$$$
=
 OpenBabel11042412273D

 26 28  0  0  1  0  0  0  0  0999 V2000
  188.1860  178.4770  141.2370 C   0  0  0  0  0  3  0  0  0  0  0  0
  186.0020  178.2970  142.2880 C   0  0  0  0  0  0  0  0  0  0  0  0
  188.8010  177.9560  142.3820 C   0  0  0  0  0  0  0  0  0  0  0  0
  188.0090  177.5840  143.4870 C   0  0  0  0  0  0  0  0  0  0  0  0
  186.8010  178.6480  141.1900 C   0  0  0  0  0  3  0  0  0  0  0  0
  186.6190  177.7640  143.4280 C   0  0  0  0  0  3  0  0  0  0  0  0
  181.7770  178.8150  142.1560 N   0  0  0  0  0  0  0  0  0  0  0  0
  183.8190  178.8420  143.3940 C   0  0  0  0  0  3  0  0  0  0  0  0
  182.4330  179.0080  143.3310 C   0  0  0  0  0  3  0  0  0  0  0  0
  184.5320  178.4780  142.2410 C   0  0  0  0  0  0  0  0  0  0  0  0
  183.8230  178.2870  141.0450 C   0  0  0  0  0  3  0  0  0  0  0  0
  182.4380  178.4610  141.0220 C   0  0  0  0  0  3  0  0  0  0  0  0
  190.1620  176.3260  140.5020 O   0  0  0  0  0  1  0  0  0  0  0  0
  190.8760  177.0110  141.4790 C   0  0  0  0  0  3  0  0  0  0  0  0
  190.2720  177.7870  142.3880 C   0  0  0  0  0  0  0  0  0  0  0  0
  190.8940  179.6400  143.6700 O   0  0  0  0  0  0  0  0  0  0  0  0
  191.0580  178.4300  143.4050 N   0  0  0  0  0  0  0  0  0  0  0  0
  191.9750  177.7080  144.1330 O   0  0  0  0  0  0  0  0  0  0  0  0
  188.6120  177.0210  144.6200 O   0  0  0  0  0  0  0  0  0  0  0  0
  189.3070  176.7980  146.9010 C   0  0  0  0  0  2  0  0  0  0  0  0
  187.8180  177.1080  146.8810 C   0  0  2  0  0  3  0  0  0  0  0  0
  188.7470  177.7250  145.8470 C   0  0  2  0  0  3  0  0  0  0  0  0
  188.2450  178.2310  149.0170 C   0  0  0  0  0  2  0  0  0  0  0  0
  187.4690  178.1230  147.9390 C   0  0  0  0  0  0  0  0  0  0  0  0
  186.4140  179.1740  147.7340 C   0  0  0  0  0  2  0  0  0  0  0  0
  185.2540  178.6480  147.0290 N   0  0  0  0  0  1  0  0  0  0  0  0
  1  3  1  0  0  0  0
  2  6  2  0  0  0  0
  3 15  1  0  0  0  0
  3  4  2  0  0  0  0
  4 19  1  0  0  0  0
  5  1  2  0  0  0  0
  5  2  1  0  0  0  0
  6  4  1  0  0  0  0
  7  9  1  0  0  0  0
  9  8  2  0  0  0  0
 10  2  1  0  0  0  0
 10  8  1  0  0  0  0
 11 10  2  0  0  0  0
 12 11  1  0  0  0  0
 12  7  2  0  0  0  0
 13 14  1  0  0  0  0
 14 15  2  0  0  0  0
 15 17  1  0  0  0  0
 17 16  2  0  0  0  0
 17 18  2  0  0  0  0
 21 20  1  0  0  0  0
 21 24  1  1  0  0  0
 22 19  1  6  0  0  0
 22 21  1  0  0  0  0
 22 20  1  0  0  0  0
 24 23  2  0  0  0  0
 25 24  1  0  0  0  0
 26 25  1  0  0  0  0
M  END
>  <MODEL>
4

>  <REMARK>
 VINA RESULT:      -7.8      2.259      5.324
  Name = 
  7 active torsions:
  status: ('A' for Active; 'I' for Inactive)
    1  A    between atoms: C_2  and  C_19
    2  A    between atoms: C_3  and  C_26
    3  A    between atoms: C_6  and  O_18
    4  A    between atoms: C_8  and  C_14
    5  A    between atoms: C_8  and  C_22
    6  A    between atoms: N_10  and  C_26
    7  A    between atoms: O_18  and  C_24
                            x       y       z     vdW  Elec       q    Type
                         _______ _______ _______ _____ _____    ______ ____

>  <TORSDO>
F 7

$$$$
=
 OpenBabel11042412273D

 26 28  0  0  1  0  0  0  0  0999 V2000
  187.0300  178.5250  146.2830 C   0  0  0  0  0  3  0  0  0  0  0  0
  185.6030  178.1970  144.3430 C   0  0  0  0  0  0  0  0  0  0  0  0
  188.0230  177.7190  145.7140 C   0  0  0  0  0  0  0  0  0  0  0  0
  187.8140  177.1590  144.4370 C   0  0  0  0  0  0  0  0  0  0  0  0
  185.8310  178.7610  145.6070 C   0  0  0  0  0  3  0  0  0  0  0  0
  186.6040  177.4010  143.7690 C   0  0  0  0  0  3  0  0  0  0  0  0
  181.9520  178.9120  142.2710 N   0  0  0  0  0  0  0  0  0  0  0  0
  184.2750  178.3600  142.2230 C   0  0  0  0  0  3  0  0  0  0  0  0
  183.0680  178.5970  141.5620 C   0  0  0  0  0  3  0  0  0  0  0  0
  184.3320  178.4460  143.6230 C   0  0  0  0  0  0  0  0  0  0  0  0
  183.1620  178.7730  144.3250 C   0  0  0  0  0  3  0  0  0  0  0  0
  181.9750  179.0040  143.6270 C   0  0  0  0  0  3  0  0  0  0  0  0
  188.0660  176.7840  148.3920 O   0  0  0  0  0  1  0  0  0  0  0  0
  189.2560  177.0520  147.7260 C   0  0  0  0  0  3  0  0  0  0  0  0
  189.2800  177.4990  146.4630 C   0  0  0  0  0  0  0  0  0  0  0  0
  190.6300  178.7180  144.9950 O   0  0  0  0  0  0  0  0  0  0  0  0
  190.5400  177.8060  145.8440 N   0  0  0  0  0  0  0  0  0  0  0  0
  191.6790  177.1270  146.2130 O   0  0  0  0  0  0  0  0  0  0  0  0
  188.8200  176.3880  143.8410 O   0  0  0  0  0  0  0  0  0  0  0  0
  190.4270  176.3860  142.0650 C   0  0  0  0  0  2  0  0  0  0  0  0
  189.5060  177.5820  141.8770 C   0  0  2  0  0  3  0  0  0  0  0  0
  188.9660  176.2720  142.4320 C   0  0  2  0  0  3  0  0  0  0  0  0
  187.9320  178.2620  140.1280 C   0  0  0  0  0  2  0  0  0  0  0  0
  189.1160  177.7330  140.4290 C   0  0  0  0  0  0  0  0  0  0  0  0
  190.0910  177.5210  139.3040 C   0  0  0  0  0  2  0  0  0  0  0  0
  189.7280  176.3780  138.4800 N   0  0  0  0  0  1  0  0  0  0  0  0
  2  5  1  0  0  0  0
  3  1  1  0  0  0  0
  3 15  1  0  0  0  0
  4  3  2  0  0  0  0
  5  1  2  0  0  0  0
  6  2  2  0  0  0  0
  6  4  1  0  0  0  0
  7 12  1  0  0  0  0
  8 10  2  0  0  0  0
  9  8  1  0  0  0  0
  9  7  2  0  0  0  0
 10 11  1  0  0  0  0
 10  2  1  0  0  0  0
 12 11  2  0  0  0  0
 14 13  1  0  0  0  0
 15 14  2  0  0  0  0
 16 17  2  0  0  0  0
 17 18  2  0  0  0  0
 17 15  1  0  0  0  0
 19  4  1  0  0  0  0
 20 22  1  0  0  0  0
 21 24  1  6  0  0  0
 21 20  1  0  0  0  0
 21 22  1  0  0  0  0
 22 19  1  1  0  0  0
 23 24  2  0  0  0  0
 25 24  1  0  0  0  0
 26 25  1  0  0  0  0
M  END
>  <MODEL>
5

>  <REMARK>
 VINA RESULT:      -7.6      2.076      2.874
  Name = 
  7 active torsions:
  status: ('A' for Active; 'I' for Inactive)
    1  A    between atoms: C_2  and  C_19
    2  A    between atoms: C_3  and  C_26
    3  A    between atoms: C_6  and  O_18
    4  A    between atoms: C_8  and  C_14
    5  A    between atoms: C_8  and  C_22
    6  A    between atoms: N_10  and  C_26
    7  A    between atoms: O_18  and  C_24
                            x       y       z     vdW  Elec       q    Type
                         _______ _______ _______ _____ _____    ______ ____

>  <TORSDO>
F 7

$$$$
=
 OpenBabel11042412273D

 26 28  0  0  1  0  0  0  0  0999 V2000
  191.4550  177.2220  141.4150 C   0  0  0  0  0  3  0  0  0  0  0  0
  189.4440  177.5560  140.0930 C   0  0  0  0  0  0  0  0  0  0  0  0
  190.6860  177.0000  142.5640 C   0  0  0  0  0  0  0  0  0  0  0  0
  189.2800  177.0370  142.4760 C   0  0  0  0  0  0  0  0  0  0  0  0
  190.8420  177.5000  140.1920 C   0  0  0  0  0  3  0  0  0  0  0  0
  188.6760  177.3210  141.2420 C   0  0  0  0  0  3  0  0  0  0  0  0
  187.5620  178.4010  136.3680 N   0  0  0  0  0  0  0  0  0  0  0  0
  187.3950  177.9880  138.7140 C   0  0  0  0  0  3  0  0  0  0  0  0
  186.7970  178.2650  137.4830 C   0  0  0  0  0  3  0  0  0  0  0  0
  188.7900  177.8510  138.7960 C   0  0  0  0  0  0  0  0  0  0  0  0
  189.5510  177.9970  137.6260 C   0  0  0  0  0  3  0  0  0  0  0  0
  188.9140  178.2740  136.4140 C   0  0  0  0  0  3  0  0  0  0  0  0
  191.3280  174.3600  143.3810 O   0  0  0  0  0  1  0  0  0  0  0  0
  191.6660  175.4430  144.1860 C   0  0  0  0  0  3  0  0  0  0  0  0
  191.3780  176.7040  143.8400 C   0  0  0  0  0  0  0  0  0  0  0  0
  191.8950  178.9350  144.3050 O   0  0  0  0  0  0  0  0  0  0  0  0
  191.7070  177.7780  144.7360 N   0  0  0  0  0  0  0  0  0  0  0  0
  191.7770  177.5540  146.0920 O   0  0  0  0  0  0  0  0  0  0  0  0
  188.5020  176.7720  143.6110 O   0  0  0  0  0  0  0  0  0  0  0  0
  188.1240  177.5020  145.8600 C   0  0  0  0  0  2  0  0  0  0  0  0
  186.7770  177.2120  145.2170 C   0  0  2  0  0  3  0  0  0  0  0  0
  187.9130  177.8000  144.3950 C   0  0  2  0  0  3  0  0  0  0  0  0
  185.9050  178.9430  146.7160 C   0  0  0  0  0  2  0  0  0  0  0  0
  185.7770  178.2840  145.5650 C   0  0  0  0  0  0  0  0  0  0  0  0
  184.7680  178.8000  144.5770 C   0  0  0  0  0  2  0  0  0  0  0  0
  183.4950  179.1080  145.2100 N   0  0  0  0  0  1  0  0  0  0  0  0
  1  3  1  0  0  0  0
  2  5  1  0  0  0  0
  2  6  2  0  0  0  0
  3 15  1  0  0  0  0
  4  3  2  0  0  0  0
  4 19  1  0  0  0  0
  5  1  2  0  0  0  0
  6  4  1  0  0  0  0
  7 12  2  0  0  0  0
  7  9  1  0  0  0  0
  8 10  1  0  0  0  0
  9  8  2  0  0  0  0
 10  2  1  0  0  0  0
 11 10  2  0  0  0  0
 12 11  1  0  0  0  0
 13 14  1  0  0  0  0
 15 14  2  0  0  0  0
 15 17  1  0  0  0  0
 16 17  2  0  0  0  0
 17 18  2  0  0  0  0
 21 24  1  1  0  0  0
 21 20  1  0  0  0  0
 22 19  1  6  0  0  0
 22 21  1  0  0  0  0
 22 20  1  0  0  0  0
 24 23  2  0  0  0  0
 25 26  1  0  0  0  0
 25 24  1  0  0  0  0
M  END
>  <MODEL>
6

>  <REMARK>
 VINA RESULT:      -7.4      1.738      5.908
  Name = 
  7 active torsions:
  status: ('A' for Active; 'I' for Inactive)
    1  A    between atoms: C_2  and  C_19
    2  A    between atoms: C_3  and  C_26
    3  A    between atoms: C_6  and  O_18
    4  A    between atoms: C_8  and  C_14
    5  A    between atoms: C_8  and  C_22
    6  A    between atoms: N_10  and  C_26
    7  A    between atoms: O_18  and  C_24
                            x       y       z     vdW  Elec       q    Type
                         _______ _______ _______ _____ _____    ______ ____

>  <TORSDO>
F 7

$$$$
=
 OpenBabel11042412273D

 26 28  0  0  1  0  0  0  0  0999 V2000
  183.4270  178.6110  142.1850 C   0  0  0  0  0  3  0  0  0  0  0  0
  185.4090  178.4230  143.5770 C   0  0  0  0  0  0  0  0  0  0  0  0
  184.2170  178.6290  141.0280 C   0  0  0  0  0  0  0  0  0  0  0  0
  185.6170  178.5230  141.1440 C   0  0  0  0  0  0  0  0  0  0  0  0
  184.0160  178.5120  143.4460 C   0  0  0  0  0  3  0  0  0  0  0  0
  186.1970  178.4270  142.4180 C   0  0  0  0  0  3  0  0  0  0  0  0
  187.2130  178.1220  147.4230 N   0  0  0  0  0  0  0  0  0  0  0  0
  185.4070  178.8600  146.0460 C   0  0  0  0  0  3  0  0  0  0  0  0
  186.0140  178.7510  147.2990 C   0  0  0  0  0  3  0  0  0  0  0  0
  186.0370  178.3170  144.9150 C   0  0  0  0  0  0  0  0  0  0  0  0
  187.2740  177.6750  145.0780 C   0  0  0  0  0  3  0  0  0  0  0  0
  187.8490  177.5870  146.3480 C   0  0  0  0  0  3  0  0  0  0  0  0
  183.2240  176.3660  139.6350 O   0  0  0  0  0  1  0  0  0  0  0  0
  183.0920  177.6370  139.0880 C   0  0  0  0  0  3  0  0  0  0  0  0
  183.5510  178.7310  139.7100 C   0  0  0  0  0  0  0  0  0  0  0  0
  184.4450  180.6840  138.7890 O   0  0  0  0  0  0  0  0  0  0  0  0
  183.4300  180.0130  139.0710 N   0  0  0  0  0  0  0  0  0  0  0  0
  182.1920  180.5000  138.7210 O   0  0  0  0  0  0  0  0  0  0  0  0
  186.4120  178.4950  139.9900 O   0  0  0  0  0  0  0  0  0  0  0  0
  188.3930  178.3200  138.6550 C   0  0  0  0  0  2  0  0  0  0  0  0
  188.4230  177.2190  139.7050 C   0  0  2  0  0  3  0  0  0  0  0  0
  187.8300  178.5810  140.0330 C   0  0  2  0  0  3  0  0  0  0  0  0
  189.9250  177.0210  141.6310 C   0  0  0  0  0  2  0  0  0  0  0  0
  189.7990  177.0930  140.3070 C   0  0  0  0  0  0  0  0  0  0  0  0
  191.0230  176.8200  139.4750 C   0  0  0  0  0  2  0  0  0  0  0  0
  190.8530  175.6500  138.6280 N   0  0  0  0  0  1  0  0  0  0  0  0
  1  5  1  0  0  0  0
  2 10  1  0  0  0  0
  3  4  1  0  0  0  0
  3  1  2  0  0  0  0
  4  6  2  0  0  0  0
  5  2  2  0  0  0  0
  6  2  1  0  0  0  0
  8  9  2  0  0  0  0
  9  7  1  0  0  0  0
 10 11  2  0  0  0  0
 10  8  1  0  0  0  0
 11 12  1  0  0  0  0
 12  7  2  0  0  0  0
 14 13  1  0  0  0  0
 14 15  2  0  0  0  0
 15  3  1  0  0  0  0
 16 17  2  0  0  0  0
 17 15  1  0  0  0  0
 18 17  2  0  0  0  0
 19  4  1  0  0  0  0
 20 21  1  0  0  0  0
 20 22  1  0  0  0  0
 21 22  1  0  0  0  0
 21 24  1  1  0  0  0
 22 19  1  6  0  0  0
 24 23  2  0  0  0  0
 25 24  1  0  0  0  0
 26 25  1  0  0  0  0
M  END
>  <MODEL>
7

>  <REMARK>
 VINA RESULT:      -7.3      3.201      5.972
  Name = 
  7 active torsions:
  status: ('A' for Active; 'I' for Inactive)
    1  A    between atoms: C_2  and  C_19
    2  A    between atoms: C_3  and  C_26
    3  A    between atoms: C_6  and  O_18
    4  A    between atoms: C_8  and  C_14
    5  A    between atoms: C_8  and  C_22
    6  A    between atoms: N_10  and  C_26
    7  A    between atoms: O_18  and  C_24
                            x       y       z     vdW  Elec       q    Type
                         _______ _______ _______ _____ _____    ______ ____

>  <TORSDO>
F 7

$$$$
=
 OpenBabel11042412273D

 26 28  0  0  1  0  0  0  0  0999 V2000
  183.9370  178.2940  141.3330 C   0  0  0  0  0  3  0  0  0  0  0  0
  185.6440  178.3040  143.0620 C   0  0  0  0  0  0  0  0  0  0  0  0
  184.9170  178.3930  140.3370 C   0  0  0  0  0  0  0  0  0  0  0  0
  186.2770  178.4300  140.7040 C   0  0  0  0  0  0  0  0  0  0  0  0
  184.2950  178.2520  142.6810 C   0  0  0  0  0  3  0  0  0  0  0  0
  186.6240  178.3900  142.0640 C   0  0  0  0  0  3  0  0  0  0  0  0
  186.7440  178.1790  147.1740 N   0  0  0  0  0  0  0  0  0  0  0  0
  185.1350  178.6920  145.4860 C   0  0  0  0  0  3  0  0  0  0  0  0
  185.5140  178.6430  146.8290 C   0  0  0  0  0  3  0  0  0  0  0  0
  186.0280  178.2590  144.4930 C   0  0  0  0  0  0  0  0  0  0  0  0
  187.2900  177.7860  144.8830 C   0  0  0  0  0  3  0  0  0  0  0  0
  187.6320  177.7540  146.2370 C   0  0  0  0  0  3  0  0  0  0  0  0
  183.9330  180.7460  139.0950 O   0  0  0  0  0  1  0  0  0  0  0  0
  184.0380  179.5640  138.3700 C   0  0  0  0  0  3  0  0  0  0  0  0
  184.4930  178.4300  138.9190 C   0  0  0  0  0  0  0  0  0  0  0  0
  183.6150  176.3820  138.2140 O   0  0  0  0  0  0  0  0  0  0  0  0
  184.5310  177.2280  138.1340 N   0  0  0  0  0  0  0  0  0  0  0  0
  185.5600  177.0110  137.2460 O   0  0  0  0  0  0  0  0  0  0  0  0
  187.2660  178.4840  139.7130 O   0  0  0  0  0  0  0  0  0  0  0  0
  189.4640  178.2520  138.7930 C   0  0  0  0  0  2  0  0  0  0  0  0
  189.3040  177.2350  139.9120 C   0  0  2  0  0  3  0  0  0  0  0  0
  188.6490  178.6040  140.0150 C   0  0  2  0  0  3  0  0  0  0  0  0
  191.7190  177.5000  140.2310 C   0  0  0  0  0  2  0  0  0  0  0  0
  190.5420  177.1840  140.7700 C   0  0  0  0  0  0  0  0  0  0  0  0
  190.4840  177.0090  142.2620 C   0  0  0  0  0  2  0  0  0  0  0  0
  190.1840  175.6350  142.6360 N   0  0  0  0  0  1  0  0  0  0  0  0
  1  5  1  0  0  0  0
  2 10  1  0  0  0  0
  3  4  1  0  0  0  0
  3  1  2  0  0  0  0
  4  6  2  0  0  0  0
  5  2  2  0  0  0  0
  6  2  1  0  0  0  0
  8  9  2  0  0  0  0
  9  7  1  0  0  0  0
 10 11  2  0  0  0  0
 10  8  1  0  0  0  0
 11 12  1  0  0  0  0
 12  7  2  0  0  0  0
 14 15  2  0  0  0  0
 14 13  1  0  0  0  0
 15  3  1  0  0  0  0
 17 16  2  0  0  0  0
 17 15  1  0  0  0  0
 18 17  2  0  0  0  0
 19  4  1  0  0  0  0
 20 21  1  0  0  0  0
 20 22  1  0  0  0  0
 21 22  1  0  0  0  0
 21 24  1  1  0  0  0
 22 19  1  6  0  0  0
 23 24  2  0  0  0  0
 24 25  1  0  0  0  0
 25 26  1  0  0  0  0
M  END
>  <MODEL>
8

>  <REMARK>
 VINA RESULT:      -7.1      2.873      5.519
  Name = 
  7 active torsions:
  status: ('A' for Active; 'I' for Inactive)
    1  A    between atoms: C_2  and  C_19
    2  A    between atoms: C_3  and  C_26
    3  A    between atoms: C_6  and  O_18
    4  A    between atoms: C_8  and  C_14
    5  A    between atoms: C_8  and  C_22
    6  A    between atoms: N_10  and  C_26
    7  A    between atoms: O_18  and  C_24
                            x       y       z     vdW  Elec       q    Type
                         _______ _______ _______ _____ _____    ______ ____

>  <TORSDO>
F 7

$$$$
=
 OpenBabel11042412273D

 26 28  0  0  1  0  0  0  0  0999 V2000
  187.9190  178.6960  141.1940 C   0  0  0  0  0  3  0  0  0  0  0  0
  185.8330  178.3100  142.3800 C   0  0  0  0  0  0  0  0  0  0  0  0
  188.6150  177.9170  142.1250 C   0  0  0  0  0  0  0  0  0  0  0  0
  187.9130  177.3110  143.1870 C   0  0  0  0  0  0  0  0  0  0  0  0
  186.5420  178.8930  141.3190 C   0  0  0  0  0  3  0  0  0  0  0  0
  186.5300  177.5200  143.3040 C   0  0  0  0  0  3  0  0  0  0  0  0
  181.6350  178.9060  142.7740 N   0  0  0  0  0  0  0  0  0  0  0  0
  183.8010  178.7810  143.7710 C   0  0  0  0  0  3  0  0  0  0  0  0
  182.4220  178.9740  143.8800 C   0  0  0  0  0  3  0  0  0  0  0  0
  184.3720  178.5180  142.5160 C   0  0  0  0  0  0  0  0  0  0  0  0
  183.5310  178.4540  141.3950 C   0  0  0  0  0  3  0  0  0  0  0  0
  182.1560  178.6520  141.5460 C   0  0  0  0  0  3  0  0  0  0  0  0
  189.7310  176.5730  139.8900 O   0  0  0  0  0  1  0  0  0  0  0  0
  190.5590  177.0920  140.8780 C   0  0  0  0  0  3  0  0  0  0  0  0
  190.0740  177.7290  141.9520 C   0  0  0  0  0  0  0  0  0  0  0  0
  191.9320  177.4930  143.3490 O   0  0  0  0  0  0  0  0  0  0  0  0
  190.9770  178.2010  142.9650 N   0  0  0  0  0  0  0  0  0  0  0  0
  190.8280  179.4610  143.4960 O   0  0  0  0  0  0  0  0  0  0  0  0
  188.5940  176.4940  144.0980 O   0  0  0  0  0  0  0  0  0  0  0  0
  187.9900  178.0610  145.8040 C   0  0  0  0  0  2  0  0  0  0  0  0
  189.4770  177.7680  145.9280 C   0  0  2  0  0  3  0  0  0  0  0  0
  188.5080  176.6740  145.5050 C   0  0  2  0  0  3  0  0  0  0  0  0
  189.0370  178.0020  148.3270 C   0  0  0  0  0  2  0  0  0  0  0  0
  189.8680  177.5870  147.3720 C   0  0  0  0  0  0  0  0  0  0  0  0
  191.0510  176.7590  147.7920 C   0  0  0  0  0  2  0  0  0  0  0  0
  192.0030  176.5830  146.7050 N   0  0  0  0  0  1  0  0  0  0  0  0
  1  5  2  0  0  0  0
  1  3  1  0  0  0  0
  2 10  1  0  0  0  0
  2  6  2  0  0  0  0
  3  4  2  0  0  0  0
  4  6  1  0  0  0  0
  4 19  1  0  0  0  0
  5  2  1  0  0  0  0
  7  9  1  0  0  0  0
  8  9  2  0  0  0  0
 10  8  1  0  0  0  0
 11 12  1  0  0  0  0
 11 10  2  0  0  0  0
 12  7  2  0  0  0  0
 13 14  1  0  0  0  0
 14 15  2  0  0  0  0
 15  3  1  0  0  0  0
 15 17  1  0  0  0  0
 17 16  2  0  0  0  0
 17 18  2  0  0  0  0
 20 21  1  0  0  0  0
 21 24  1  1  0  0  0
 22 19  1  6  0  0  0
 22 20  1  0  0  0  0
 22 21  1  0  0  0  0
 24 25  1  0  0  0  0
 24 23  2  0  0  0  0
 26 25  1  0  0  0  0
M  END
>  <MODEL>
9

>  <REMARK>
 VINA RESULT:      -7.1      2.317      5.322
  Name = 
  7 active torsions:
  status: ('A' for Active; 'I' for Inactive)
    1  A    between atoms: C_2  and  C_19
    2  A    between atoms: C_3  and  C_26
    3  A    between atoms: C_6  and  O_18
    4  A    between atoms: C_8  and  C_14
    5  A    between atoms: C_8  and  C_22
    6  A    between atoms: N_10  and  C_26
    7  A    between atoms: O_18  and  C_24
                            x       y       z     vdW  Elec       q    Type
                         _______ _______ _______ _____ _____    ______ ____

>  <TORSDO>
F 7

$$$$
