=
 OpenBabel11032419573D

 52 58  0  0  1  0  0  0  0  0999 V2000
  180.8600  178.6180  138.7310 C   0  0  1  0  0  3  0  0  0  0  0  0
  180.9620  178.5370  134.8950 C   0  0  0  0  0  3  0  0  0  0  0  0
  180.7430  180.4040  136.9490 C   0  0  0  0  0  3  0  0  0  0  0  0
  180.7620  180.8350  135.6220 C   0  0  0  0  0  0  0  0  0  0  0  0
  180.9660  178.0880  136.2260 C   0  0  0  0  0  0  0  0  0  0  0  0
  180.8310  179.0390  137.2710 C   0  0  0  0  0  0  0  0  0  0  0  0
  180.8590  179.8980  134.5940 C   0  0  0  0  0  3  0  0  0  0  0  0
  181.1630  176.6380  136.4980 C   0  0  0  0  0  0  0  0  0  0  0  0
  182.5640  174.7130  137.0800 C   0  0  0  0  0  0  0  0  0  0  0  0
  180.0390  175.7990  136.5720 C   0  0  0  0  0  3  0  0  0  0  0  0
  180.1680  174.4450  136.8950 C   0  0  0  0  0  3  0  0  0  0  0  0
  181.4280  173.9060  137.1600 C   0  0  0  0  0  3  0  0  0  0  0  0
  182.4460  176.0750  136.7260 C   0  0  0  0  0  0  0  0  0  0  0  0
  183.6210  176.8300  136.6280 C   0  0  0  0  0  3  0  0  0  0  0  0
  184.8610  176.2380  136.8820 C   0  0  0  0  0  0  0  0  0  0  0  0
  184.8950  174.9250  137.2550 N   0  0  0  0  0  0  0  0  0  0  0  0
  183.7880  174.1890  137.3480 N   0  0  0  0  0  0  0  0  0  0  0  0
  186.6590  177.6730  137.7570 N   0  0  0  0  0  0  0  0  0  0  0  0
  188.4780  178.3200  136.4280 N   0  0  0  0  0  0  0  0  0  0  0  0
  187.8310  178.3370  137.6230 C   0  0  0  0  0  3  0  0  0  0  0  0
  187.9720  177.6610  135.3850 N   0  0  0  0  0  0  0  0  0  0  0  0
  186.1170  176.9960  136.7080 C   0  0  0  0  0  0  0  0  0  0  0  0
  186.7960  176.9880  135.4850 C   0  0  0  0  0  3  0  0  0  0  0  0
  180.6610  182.2870  135.3040 C   0  0  0  0  0  2  0  0  0  0  0  0
  179.4970  182.8180  135.8620 O   0  0  0  0  0  0  0  0  0  0  0  0
  178.9410  183.7500  137.9750 C   0  0  0  0  0  1  0  0  0  0  0  0
  179.9480  183.6960  136.8460 C   0  0  0  0  0  2  0  0  0  0  0  0
  184.7550  178.7080  140.5880 C   0  0  0  0  0  0  0  0  0  0  0  0
  183.7930  177.7710  140.9840 C   0  0  0  0  0  3  0  0  0  0  0  0
  182.5410  177.7460  140.3640 C   0  0  0  0  0  3  0  0  0  0  0  0
  184.4440  179.6410  139.5930 C   0  0  0  0  0  3  0  0  0  0  0  0
  183.1860  179.6240  138.9800 C   0  0  0  0  0  3  0  0  0  0  0  0
  182.2330  178.6580  139.3490 C   0  0  0  0  0  0  0  0  0  0  0  0
  186.0830  178.7760  141.2730 C   0  0  0  0  0  2  0  0  0  0  0  0
  186.0070  178.2180  142.6220 N   0  0  0  0  0  2  0  0  0  0  0  0
  187.1930  177.3910  142.8320 C   0  0  2  0  0  3  0  0  0  0  0  0
  189.4750  177.5950  143.3860 N   0  0  0  0  0  2  0  0  0  0  0  0
  187.3340  176.9220  144.2070 N   0  0  2  0  0  0  0  0  0  0  0  0
  188.4530  178.1490  142.5160 C   0  0  0  0  0  2  0  0  0  0  0  0
  187.7590  177.8570  146.2350 N   0  0  0  0  0  2  0  0  0  0  0  0
  186.9190  177.9270  145.1080 N   0  0  0  0  0  2  0  0  0  0  0  0
  189.0390  177.3760  145.7540 C   0  0  0  0  0  2  0  0  0  0  0  0
  188.7720  176.8030  144.3970 C   0  0  2  0  0  3  0  0  0  0  0  0
  179.8500  179.3060  139.6070 C   0  0  0  0  0  3  0  0  0  0  0  0
  180.1680  180.4020  140.2940 C   0  0  0  0  0  3  0  0  0  0  0  0
  178.9310  181.2300  141.2860 S   0  0  0  0  0  0  0  0  0  0  0  0
  180.3560  179.5340  142.7970 N   0  0  0  0  0  0  0  0  0  0  0  0
  179.2140  180.1280  142.6650 C   0  0  0  0  0  3  0  0  0  0  0  0
  179.6930  177.9350  144.3840 O   0  0  0  0  0  0  0  0  0  0  0  0
  180.6210  178.6220  143.8690 C   0  0  0  0  0  0  0  0  0  0  0  0
  182.8860  179.5890  143.8470 C   0  0  0  0  0  1  0  0  0  0  0  0
  182.0140  178.4560  144.3700 C   0  0  0  0  0  2  0  0  0  0  0  0
  1 33  1  0  0  0  0
  1 44  1  1  0  0  0
  2  5  1  0  0  0  0
  3  6  1  0  0  0  0
  4  3  2  0  0  0  0
  5  8  1  0  0  0  0
  5  6  2  0  0  0  0
  6  1  1  0  0  0  0
  7  2  2  0  0  0  0
  7  4  1  0  0  0  0
  8 10  2  0  0  0  0
  8 13  1  0  0  0  0
  9 12  1  0  0  0  0
  9 17  1  0  0  0  0
 10 11  1  0  0  0  0
 11 12  2  0  0  0  0
 13  9  2  0  0  0  0
 14 13  1  0  0  0  0
 14 15  2  0  0  0  0
 15 16  1  0  0  0  0
 16 17  2  0  0  0  0
 19 20  2  0  0  0  0
 20 18  1  0  0  0  0
 21 23  2  0  0  0  0
 21 19  1  0  0  0  0
 22 15  1  0  0  0  0
 22 18  2  0  0  0  0
 23 22  1  0  0  0  0
 24  4  1  0  0  0  0
 24 25  1  0  0  0  0
 25 27  1  0  0  0  0
 27 26  1  0  0  0  0
 28 29  1  0  0  0  0
 28 34  1  0  0  0  0
 30 29  2  0  0  0  0
 31 28  2  0  0  0  0
 32 33  2  0  0  0  0
 32 31  1  0  0  0  0
 33 30  1  0  0  0  0
 34 35  1  0  0  0  0
 36 35  1  1  0  0  0
 36 38  1  0  0  0  0
 37 43  1  0  0  0  0
 38 43  1  0  0  0  0
 38 41  1  1  0  0  0
 39 36  1  0  0  0  0
 39 37  1  0  0  0  0
 41 40  1  0  0  0  0
 42 40  1  0  0  0  0
 43 42  1  1  0  0  0
 44 45  2  0  0  0  0
 45 46  1  0  0  0  0
 46 48  1  0  0  0  0
 47 50  1  0  0  0  0
 48 47  2  0  0  0  0
 50 52  1  0  0  0  0
 50 49  2  0  0  0  0
 51 52  1  0  0  0  0
M  END
>  <MODEL>
1

>  <REMARK>
 VINA RESULT:      -7.0      0.000      0.000
  Name = 
  15 active torsions:
  status: ('A' for Active; 'I' for Inactive)
    1  A    between atoms: N_1  and  C_32
    2  A    between atoms: C_2  and  N_43
    3  A    between atoms: C_3  and  C_24
    4  A    between atoms: C_8  and  C_34
    5  A    between atoms: C_10  and  C_19
    6  A    between atoms: C_10  and  O_26
    7  A    between atoms: C_14  and  C_27
    8  A    between atoms: C_14  and  C_31
    9  A    between atoms: C_14  and  C_50
   10  A    between atoms: C_18  and  C_42
   11  A    between atoms: S_25  and  C_37
   12  A    between atoms: S_25  and  C_52
   13  A    between atoms: O_26  and  C_47
   14  A    between atoms: C_32  and  C_36
   15  A    between atoms: C_34  and  N_43
                            x       y       z     vdW  Elec       q    Type
                         _______ _______ _______ _____ _____    ______ ____

>  <TORSDO>
F 15

$$$$
=
 OpenBabel11032419573D

 52 58  0  0  1  0  0  0  0  0999 V2000
  183.9270  178.4700  139.1070 C   0  0  1  0  0  3  0  0  0  0  0  0
  185.4890  176.6180  136.1300 C   0  0  0  0  0  3  0  0  0  0  0  0
  186.1400  178.6610  137.9060 C   0  0  0  0  0  3  0  0  0  0  0  0
  187.0640  178.2660  136.9370 C   0  0  0  0  0  0  0  0  0  0  0  0
  184.5560  176.9880  137.1140 C   0  0  0  0  0  0  0  0  0  0  0  0
  184.8810  178.0460  138.0020 C   0  0  0  0  0  0  0  0  0  0  0  0
  186.7320  177.2510  136.0410 C   0  0  0  0  0  3  0  0  0  0  0  0
  183.2810  176.2270  137.2230 C   0  0  0  0  0  0  0  0  0  0  0  0
  182.0040  174.1370  137.2720 C   0  0  0  0  0  0  0  0  0  0  0  0
  182.1000  176.9170  137.5410 C   0  0  0  0  0  3  0  0  0  0  0  0
  180.8930  176.2370  137.7250 C   0  0  0  0  0  3  0  0  0  0  0  0
  180.8470  174.8470  137.6020 C   0  0  0  0  0  3  0  0  0  0  0  0
  183.2210  174.8190  137.0560 C   0  0  0  0  0  0  0  0  0  0  0  0
  184.3410  174.0610  136.6960 C   0  0  0  0  0  3  0  0  0  0  0  0
  184.2390  172.6740  136.5640 C   0  0  0  0  0  0  0  0  0  0  0  0
  183.0380  172.0780  136.8240 N   0  0  0  0  0  0  0  0  0  0  0  0
  181.9590  172.7840  137.1630 N   0  0  0  0  0  0  0  0  0  0  0  0
  186.6580  172.2540  136.4020 N   0  0  0  0  0  0  0  0  0  0  0  0
  187.5110  170.3380  135.3550 N   0  0  0  0  0  0  0  0  0  0  0  0
  187.7200  171.5010  136.0260 C   0  0  0  0  0  3  0  0  0  0  0  0
  186.2760  169.9290  135.0590 N   0  0  0  0  0  0  0  0  0  0  0  0
  185.3880  171.8640  136.1090 C   0  0  0  0  0  0  0  0  0  0  0  0
  185.1910  170.6640  135.4180 C   0  0  0  0  0  3  0  0  0  0  0  0
  188.3900  178.9380  136.8500 C   0  0  0  0  0  2  0  0  0  0  0  0
  189.3860  178.0970  137.3500 O   0  0  0  0  0  0  0  0  0  0  0  0
  189.2840  177.1800  139.5390 C   0  0  0  0  0  1  0  0  0  0  0  0
  189.4780  178.4260  138.7020 C   0  0  0  0  0  2  0  0  0  0  0  0
  185.5560  178.3160  143.1000 C   0  0  0  0  0  0  0  0  0  0  0  0
  184.1840  178.1540  142.8790 C   0  0  0  0  0  3  0  0  0  0  0  0
  183.6730  178.1930  141.5790 C   0  0  0  0  0  3  0  0  0  0  0  0
  186.4090  178.5520  142.0160 C   0  0  0  0  0  3  0  0  0  0  0  0
  185.8960  178.6040  140.7150 C   0  0  0  0  0  3  0  0  0  0  0  0
  184.5230  178.4010  140.4880 C   0  0  0  0  0  0  0  0  0  0  0  0
  186.1110  178.3200  144.4890 C   0  0  0  0  0  2  0  0  0  0  0  0
  187.0050  177.1840  144.7000 N   0  0  0  0  0  2  0  0  0  0  0  0
  188.3580  177.7060  144.8850 C   0  0  2  0  0  3  0  0  0  0  0  0
  190.4370  177.0810  145.8000 N   0  0  0  0  0  2  0  0  0  0  0  0
  189.2430  177.4270  143.7590 N   0  0  2  0  0  0  0  0  0  0  0  0
  189.0160  177.1060  146.0960 C   0  0  0  0  0  2  0  0  0  0  0  0
  190.1970  175.5860  142.8270 N   0  0  0  0  0  2  0  0  0  0  0  0
  188.9720  176.1450  143.2340 N   0  0  0  0  0  2  0  0  0  0  0  0
  191.2050  176.1400  143.7080 C   0  0  0  0  0  2  0  0  0  0  0  0
  190.5640  177.3250  144.3610 C   0  0  2  0  0  3  0  0  0  0  0  0
  183.2410  179.7880  138.8770 C   0  0  0  0  0  3  0  0  0  0  0  0
  181.9390  179.8470  138.5990 C   0  0  0  0  0  3  0  0  0  0  0  0
  181.1370  181.4310  138.3840 S   0  0  0  0  0  0  0  0  0  0  0  0
  180.3800  180.2090  140.6480 N   0  0  0  0  0  0  0  0  0  0  0  0
  180.1190  181.1800  139.8330 C   0  0  0  0  0  3  0  0  0  0  0  0
  178.9650  180.8860  142.3950 O   0  0  0  0  0  0  0  0  0  0  0  0
  179.5790  179.9510  141.8060 C   0  0  0  0  0  0  0  0  0  0  0  0
  179.9690  178.4750  143.7390 C   0  0  0  0  0  1  0  0  0  0  0  0
  179.4420  178.5570  142.3130 C   0  0  0  0  0  2  0  0  0  0  0  0
  1 44  1  6  0  0  0
  1 33  1  0  0  0  0
  2  5  1  0  0  0  0
  3  6  1  0  0  0  0
  4  3  2  0  0  0  0
  5  8  1  0  0  0  0
  5  6  2  0  0  0  0
  6  1  1  0  0  0  0
  7  2  2  0  0  0  0
  7  4  1  0  0  0  0
  8 10  1  0  0  0  0
  9 12  2  0  0  0  0
 10 11  2  0  0  0  0
 12 11  1  0  0  0  0
 13  8  2  0  0  0  0
 13  9  1  0  0  0  0
 14 13  1  0  0  0  0
 15 14  2  0  0  0  0
 15 16  1  0  0  0  0
 16 17  2  0  0  0  0
 17  9  1  0  0  0  0
 19 20  1  0  0  0  0
 20 18  2  0  0  0  0
 21 19  2  0  0  0  0
 21 23  1  0  0  0  0
 22 18  1  0  0  0  0
 22 15  1  0  0  0  0
 23 22  2  0  0  0  0
 24  4  1  0  0  0  0
 24 25  1  0  0  0  0
 25 27  1  0  0  0  0
 27 26  1  0  0  0  0
 28 34  1  0  0  0  0
 29 28  1  0  0  0  0
 30 29  2  0  0  0  0
 31 28  2  0  0  0  0
 32 31  1  0  0  0  0
 33 32  2  0  0  0  0
 33 30  1  0  0  0  0
 34 35  1  0  0  0  0
 36 35  1  6  0  0  0
 36 39  1  0  0  0  0
 37 39  1  0  0  0  0
 38 41  1  1  0  0  0
 38 43  1  0  0  0  0
 38 36  1  0  0  0  0
 40 41  1  0  0  0  0
 40 42  1  0  0  0  0
 43 42  1  6  0  0  0
 43 37  1  0  0  0  0
 45 44  2  0  0  0  0
 46 45  1  0  0  0  0
 46 48  1  0  0  0  0
 47 50  1  0  0  0  0
 48 47  2  0  0  0  0
 50 52  1  0  0  0  0
 50 49  2  0  0  0  0
 52 51  1  0  0  0  0
M  END
>  <MODEL>
2

>  <REMARK>
 VINA RESULT:      -6.2      2.773      4.858
  Name = 
  15 active torsions:
  status: ('A' for Active; 'I' for Inactive)
    1  A    between atoms: N_1  and  C_32
    2  A    between atoms: C_2  and  N_43
    3  A    between atoms: C_3  and  C_24
    4  A    between atoms: C_8  and  C_34
    5  A    between atoms: C_10  and  C_19
    6  A    between atoms: C_10  and  O_26
    7  A    between atoms: C_14  and  C_27
    8  A    between atoms: C_14  and  C_31
    9  A    between atoms: C_14  and  C_50
   10  A    between atoms: C_18  and  C_42
   11  A    between atoms: S_25  and  C_37
   12  A    between atoms: S_25  and  C_52
   13  A    between atoms: O_26  and  C_47
   14  A    between atoms: C_32  and  C_36
   15  A    between atoms: C_34  and  N_43
                            x       y       z     vdW  Elec       q    Type
                         _______ _______ _______ _____ _____    ______ ____

>  <TORSDO>
F 15

$$$$
=
 OpenBabel11032419573D

 52 58  0  0  1  0  0  0  0  0999 V2000
  182.0200  177.6940  139.5950 C   0  0  1  0  0  3  0  0  0  0  0  0
  180.9780  178.2880  135.9490 C   0  0  0  0  0  3  0  0  0  0  0  0
  181.4750  179.7640  138.2560 C   0  0  0  0  0  3  0  0  0  0  0  0
  181.1230  180.4210  137.0760 C   0  0  0  0  0  0  0  0  0  0  0  0
  181.3520  177.6120  137.1220 C   0  0  0  0  0  0  0  0  0  0  0  0
  181.5820  178.3640  138.3030 C   0  0  0  0  0  0  0  0  0  0  0  0
  180.8620  179.6800  135.9250 C   0  0  0  0  0  3  0  0  0  0  0  0
  181.5460  176.1360  137.0750 C   0  0  0  0  0  0  0  0  0  0  0  0
  182.9600  174.1350  137.0750 C   0  0  0  0  0  0  0  0  0  0  0  0
  180.4190  175.2990  137.1320 C   0  0  0  0  0  3  0  0  0  0  0  0
  180.5530  173.9080  137.1630 C   0  0  0  0  0  3  0  0  0  0  0  0
  181.8220  173.3270  137.1470 C   0  0  0  0  0  3  0  0  0  0  0  0
  182.8320  175.5400  137.0150 C   0  0  0  0  0  0  0  0  0  0  0  0
  184.0030  176.2990  136.9120 C   0  0  0  0  0  3  0  0  0  0  0  0
  185.2490  175.6690  136.8780 C   0  0  0  0  0  0  0  0  0  0  0  0
  185.2980  174.3080  136.9770 N   0  0  0  0  0  0  0  0  0  0  0  0
  184.1940  173.5680  137.0700 N   0  0  0  0  0  0  0  0  0  0  0  0
  186.4660  177.6240  136.0080 N   0  0  0  0  0  0  0  0  0  0  0  0
  188.7540  177.9340  136.4130 N   0  0  0  0  0  0  0  0  0  0  0  0
  187.5890  178.3670  135.8630 C   0  0  0  0  0  3  0  0  0  0  0  0
  188.8070  176.7870  137.0910 N   0  0  0  0  0  0  0  0  0  0  0  0
  186.4920  176.4460  136.6900 C   0  0  0  0  0  0  0  0  0  0  0  0
  187.6990  176.0160  137.2500 C   0  0  0  0  0  3  0  0  0  0  0  0
  181.0080  181.9060  137.0520 C   0  0  0  0  0  2  0  0  0  0  0  0
  179.9670  182.2920  136.2060 O   0  0  0  0  0  0  0  0  0  0  0  0
  181.2760  184.2140  136.6930 C   0  0  0  0  0  1  0  0  0  0  0  0
  179.9060  183.6790  136.3330 C   0  0  0  0  0  2  0  0  0  0  0  0
  186.0940  178.5130  140.7600 C   0  0  0  0  0  0  0  0  0  0  0  0
  185.1830  177.9680  141.6720 C   0  0  0  0  0  3  0  0  0  0  0  0
  183.8710  177.6960  141.2760 C   0  0  0  0  0  3  0  0  0  0  0  0
  185.6750  178.8160  139.4600 C   0  0  0  0  0  3  0  0  0  0  0  0
  184.3570  178.5550  139.0670 C   0  0  0  0  0  3  0  0  0  0  0  0
  183.4520  177.9710  139.9700 C   0  0  0  0  0  0  0  0  0  0  0  0
  187.4890  178.8500  141.1820 C   0  0  0  0  0  2  0  0  0  0  0  0
  188.3360  177.6590  141.1950 N   0  0  0  0  0  2  0  0  0  0  0  0
  189.6370  178.0410  141.7410 C   0  0  2  0  0  3  0  0  0  0  0  0
  190.7250  178.3240  143.8120 N   0  0  0  0  0  2  0  0  0  0  0  0
  190.5520  176.9150  141.8900 N   0  0  2  0  0  0  0  0  0  0  0  0
  189.4990  178.6530  143.1070 C   0  0  0  0  0  2  0  0  0  0  0  0
  190.6780  175.0480  143.1810 N   0  0  0  0  0  2  0  0  0  0  0  0
  189.8460  175.7640  142.3010 N   0  0  0  0  0  2  0  0  0  0  0  0
  191.5050  176.0350  143.8460 C   0  0  0  0  0  2  0  0  0  0  0  0
  191.3860  177.2810  143.0250 C   0  0  2  0  0  3  0  0  0  0  0  0
  181.1010  177.9120  140.7640 C   0  0  0  0  0  3  0  0  0  0  0  0
  181.3990  178.7910  141.7190 C   0  0  0  0  0  3  0  0  0  0  0  0
  180.2610  179.0700  143.0710 S   0  0  0  0  0  0  0  0  0  0  0  0
  182.7470  179.3010  144.0480 N   0  0  0  0  0  0  0  0  0  0  0  0
  181.5560  178.8540  144.2840 C   0  0  0  0  0  3  0  0  0  0  0  0
  183.6000  178.8090  146.1800 O   0  0  0  0  0  0  0  0  0  0  0  0
  183.8230  179.1290  144.9770 C   0  0  0  0  0  0  0  0  0  0  0  0
  186.1180  178.2590  145.1810 C   0  0  0  0  0  1  0  0  0  0  0  0
  185.2290  179.3010  144.5170 C   0  0  0  0  0  2  0  0  0  0  0  0
  1 33  1  0  0  0  0
  1 44  1  1  0  0  0
  2  5  1  0  0  0  0
  3  6  1  0  0  0  0
  4  3  2  0  0  0  0
  5  6  2  0  0  0  0
  6  1  1  0  0  0  0
  7  2  2  0  0  0  0
  7  4  1  0  0  0  0
  8  5  1  0  0  0  0
  8 10  1  0  0  0  0
  9 12  2  0  0  0  0
 10 11  2  0  0  0  0
 12 11  1  0  0  0  0
 13  8  2  0  0  0  0
 13  9  1  0  0  0  0
 14 13  1  0  0  0  0
 15 14  2  0  0  0  0
 15 16  1  0  0  0  0
 16 17  2  0  0  0  0
 17  9  1  0  0  0  0
 18 22  1  0  0  0  0
 19 21  2  0  0  0  0
 20 18  2  0  0  0  0
 20 19  1  0  0  0  0
 21 23  1  0  0  0  0
 22 15  1  0  0  0  0
 22 23  2  0  0  0  0
 24  4  1  0  0  0  0
 25 27  1  0  0  0  0
 25 24  1  0  0  0  0
 27 26  1  0  0  0  0
 28 34  1  0  0  0  0
 28 29  1  0  0  0  0
 30 29  2  0  0  0  0
 31 28  2  0  0  0  0
 32 31  1  0  0  0  0
 32 33  2  0  0  0  0
 33 30  1  0  0  0  0
 34 35  1  0  0  0  0
 36 35  1  1  0  0  0
 36 38  1  0  0  0  0
 36 39  1  0  0  0  0
 38 41  1  1  0  0  0
 38 43  1  0  0  0  0
 39 37  1  0  0  0  0
 40 42  1  0  0  0  0
 41 40  1  0  0  0  0
 43 37  1  0  0  0  0
 43 42  1  1  0  0  0
 44 45  2  0  0  0  0
 45 46  1  0  0  0  0
 46 48  1  0  0  0  0
 47 48  2  0  0  0  0
 47 50  1  0  0  0  0
 50 49  2  0  0  0  0
 52 50  1  0  0  0  0
 52 51  1  0  0  0  0
M  END
>  <MODEL>
3

>  <REMARK>
 VINA RESULT:      -6.1      1.813      2.235
  Name = 
  15 active torsions:
  status: ('A' for Active; 'I' for Inactive)
    1  A    between atoms: N_1  and  C_32
    2  A    between atoms: C_2  and  N_43
    3  A    between atoms: C_3  and  C_24
    4  A    between atoms: C_8  and  C_34
    5  A    between atoms: C_10  and  C_19
    6  A    between atoms: C_10  and  O_26
    7  A    between atoms: C_14  and  C_27
    8  A    between atoms: C_14  and  C_31
    9  A    between atoms: C_14  and  C_50
   10  A    between atoms: C_18  and  C_42
   11  A    between atoms: S_25  and  C_37
   12  A    between atoms: S_25  and  C_52
   13  A    between atoms: O_26  and  C_47
   14  A    between atoms: C_32  and  C_36
   15  A    between atoms: C_34  and  N_43
                            x       y       z     vdW  Elec       q    Type
                         _______ _______ _______ _____ _____    ______ ____

>  <TORSDO>
F 15

$$$$
=
 OpenBabel11032419573D

 52 58  0  0  1  0  0  0  0  0999 V2000
  182.5440  178.2280  140.1800 C   0  0  1  0  0  3  0  0  0  0  0  0
  183.8330  176.5080  137.0000 C   0  0  0  0  0  3  0  0  0  0  0  0
  184.7180  178.3380  138.9010 C   0  0  0  0  0  3  0  0  0  0  0  0
  185.5690  177.9520  137.8640 C   0  0  0  0  0  0  0  0  0  0  0  0
  182.9720  176.8700  138.0500 C   0  0  0  0  0  0  0  0  0  0  0  0
  183.4170  177.8210  139.0040 C   0  0  0  0  0  0  0  0  0  0  0  0
  185.1200  177.0450  136.9060 C   0  0  0  0  0  3  0  0  0  0  0  0
  181.6430  176.2060  138.1550 C   0  0  0  0  0  0  0  0  0  0  0  0
  180.1950  174.2310  138.0750 C   0  0  0  0  0  0  0  0  0  0  0  0
  180.5400  176.9550  138.5980 C   0  0  0  0  0  3  0  0  0  0  0  0
  179.2890  176.3600  138.7810 C   0  0  0  0  0  3  0  0  0  0  0  0
  179.1200  174.9970  138.5320 C   0  0  0  0  0  3  0  0  0  0  0  0
  181.4560  174.8310  137.8600 C   0  0  0  0  0  0  0  0  0  0  0  0
  182.4890  174.0230  137.3720 C   0  0  0  0  0  3  0  0  0  0  0  0
  182.2630  172.6690  137.1170 C   0  0  0  0  0  0  0  0  0  0  0  0
  181.0280  172.1500  137.3830 N   0  0  0  0  0  0  0  0  0  0  0  0
  180.0300  172.9030  137.8430 N   0  0  0  0  0  0  0  0  0  0  0  0
  183.0550  170.5180  136.2200 N   0  0  0  0  0  0  0  0  0  0  0  0
  185.2180  170.2620  135.3570 N   0  0  0  0  0  0  0  0  0  0  0  0
  183.9970  169.7370  135.6420 C   0  0  0  0  0  3  0  0  0  0  0  0
  185.5010  171.5340  135.6420 N   0  0  0  0  0  0  0  0  0  0  0  0
  183.3170  171.8180  136.5270 C   0  0  0  0  0  0  0  0  0  0  0  0
  184.5780  172.3410  136.2260 C   0  0  0  0  0  3  0  0  0  0  0  0
  186.9430  178.5200  137.7720 C   0  0  0  0  0  2  0  0  0  0  0  0
  187.5660  178.4710  139.0200 O   0  0  0  0  0  0  0  0  0  0  0  0
  189.6670  177.5590  139.6510 C   0  0  0  0  0  1  0  0  0  0  0  0
  188.9300  178.5110  138.7340 C   0  0  0  0  0  2  0  0  0  0  0  0
  184.6170  178.5820  143.9480 C   0  0  0  0  0  0  0  0  0  0  0  0
  183.2500  178.8690  143.8520 C   0  0  0  0  0  3  0  0  0  0  0  0
  182.5900  178.7370  142.6270 C   0  0  0  0  0  3  0  0  0  0  0  0
  185.3250  178.1960  142.8050 C   0  0  0  0  0  3  0  0  0  0  0  0
  184.6660  178.0750  141.5760 C   0  0  0  0  0  3  0  0  0  0  0  0
  183.2850  178.3250  141.4860 C   0  0  0  0  0  0  0  0  0  0  0  0
  185.3460  178.7600  145.2420 C   0  0  0  0  0  2  0  0  0  0  0  0
  186.1690  177.5920  145.5460 N   0  0  0  0  0  2  0  0  0  0  0  0
  187.4820  178.0700  145.9750 C   0  0  2  0  0  3  0  0  0  0  0  0
  189.4720  177.2760  146.9580 N   0  0  0  0  0  2  0  0  0  0  0  0
  188.4850  178.0300  144.9160 N   0  0  2  0  0  0  0  0  0  0  0  0
  188.0280  177.2360  147.1010 C   0  0  0  0  0  2  0  0  0  0  0  0
  189.5760  176.4240  143.7340 N   0  0  0  0  0  2  0  0  0  0  0  0
  188.3020  176.8830  144.1150 N   0  0  0  0  0  2  0  0  0  0  0  0
  190.4730  176.7880  144.8120 C   0  0  0  0  0  2  0  0  0  0  0  0
  189.7390  177.8110  145.6210 C   0  0  2  0  0  3  0  0  0  0  0  0
  181.6970  179.4480  139.9450 C   0  0  0  0  0  3  0  0  0  0  0  0
  181.9730  180.2980  138.9550 C   0  0  0  0  0  3  0  0  0  0  0  0
  180.9170  181.7120  138.6650 S   0  0  0  0  0  0  0  0  0  0  0  0
  180.9340  180.0520  136.5590 N   0  0  0  0  0  0  0  0  0  0  0  0
  180.2860  181.0040  137.1490 C   0  0  0  0  0  3  0  0  0  0  0  0
  179.6450  180.0690  134.5960 O   0  0  0  0  0  0  0  0  0  0  0  0
  180.4830  179.4710  135.3310 C   0  0  0  0  0  0  0  0  0  0  0  0
  179.9240  177.1060  134.9290 C   0  0  0  0  0  1  0  0  0  0  0  0
  181.0260  178.1550  134.8920 C   0  0  0  0  0  2  0  0  0  0  0  0
  1 44  1  6  0  0  0
  1 33  1  0  0  0  0
  2  5  1  0  0  0  0
  3  6  1  0  0  0  0
  4  3  2  0  0  0  0
  5  8  1  0  0  0  0
  5  6  2  0  0  0  0
  6  1  1  0  0  0  0
  7  2  2  0  0  0  0
  7  4  1  0  0  0  0
  8 10  1  0  0  0  0
  9 12  2  0  0  0  0
 10 11  2  0  0  0  0
 12 11  1  0  0  0  0
 13  9  1  0  0  0  0
 13  8  2  0  0  0  0
 14 13  1  0  0  0  0
 15 14  2  0  0  0  0
 15 16  1  0  0  0  0
 16 17  2  0  0  0  0
 17  9  1  0  0  0  0
 18 22  1  0  0  0  0
 19 21  2  0  0  0  0
 19 20  1  0  0  0  0
 20 18  2  0  0  0  0
 21 23  1  0  0  0  0
 22 15  1  0  0  0  0
 23 22  2  0  0  0  0
 24  4  1  0  0  0  0
 24 25  1  0  0  0  0
 27 25  1  0  0  0  0
 27 26  1  0  0  0  0
 28 34  1  0  0  0  0
 29 28  1  0  0  0  0
 30 29  2  0  0  0  0
 31 28  2  0  0  0  0
 32 31  1  0  0  0  0
 33 32  2  0  0  0  0
 33 30  1  0  0  0  0
 34 35  1  0  0  0  0
 36 35  1  6  0  0  0
 36 39  1  0  0  0  0
 37 39  1  0  0  0  0
 38 41  1  6  0  0  0
 38 43  1  0  0  0  0
 38 36  1  0  0  0  0
 40 41  1  0  0  0  0
 40 42  1  0  0  0  0
 43 42  1  6  0  0  0
 43 37  1  0  0  0  0
 45 44  2  0  0  0  0
 46 45  1  0  0  0  0
 47 48  2  0  0  0  0
 48 46  1  0  0  0  0
 49 50  2  0  0  0  0
 50 47  1  0  0  0  0
 52 51  1  0  0  0  0
 52 50  1  0  0  0  0
M  END
>  <MODEL>
4

>  <REMARK>
 VINA RESULT:      -6.0      2.918      5.554
  Name = 
  15 active torsions:
  status: ('A' for Active; 'I' for Inactive)
    1  A    between atoms: N_1  and  C_32
    2  A    between atoms: C_2  and  N_43
    3  A    between atoms: C_3  and  C_24
    4  A    between atoms: C_8  and  C_34
    5  A    between atoms: C_10  and  C_19
    6  A    between atoms: C_10  and  O_26
    7  A    between atoms: C_14  and  C_27
    8  A    between atoms: C_14  and  C_31
    9  A    between atoms: C_14  and  C_50
   10  A    between atoms: C_18  and  C_42
   11  A    between atoms: S_25  and  C_37
   12  A    between atoms: S_25  and  C_52
   13  A    between atoms: O_26  and  C_47
   14  A    between atoms: C_32  and  C_36
   15  A    between atoms: C_34  and  N_43
                            x       y       z     vdW  Elec       q    Type
                         _______ _______ _______ _____ _____    ______ ____

>  <TORSDO>
F 15

$$$$
=
 OpenBabel11032419573D

 52 58  0  0  1  0  0  0  0  0999 V2000
  183.6710  178.7380  139.5260 C   0  0  1  0  0  3  0  0  0  0  0  0
  180.4130  179.8080  141.2490 C   0  0  0  0  0  3  0  0  0  0  0  0
  182.8660  178.6740  141.9180 C   0  0  0  0  0  3  0  0  0  0  0  0
  181.9240  178.9270  142.9170 C   0  0  0  0  0  0  0  0  0  0  0  0
  181.3570  179.5800  140.2340 C   0  0  0  0  0  0  0  0  0  0  0  0
  182.5970  178.9800  140.5730 C   0  0  0  0  0  0  0  0  0  0  0  0
  180.6920  179.4830  142.5790 C   0  0  0  0  0  3  0  0  0  0  0  0
  181.0460  180.0210  138.8460 C   0  0  0  0  0  0  0  0  0  0  0  0
  180.0650  179.6680  136.6290 C   0  0  0  0  0  0  0  0  0  0  0  0
  181.3380  181.3430  138.4690 C   0  0  0  0  0  3  0  0  0  0  0  0
  180.9990  181.8240  137.2010 C   0  0  0  0  0  3  0  0  0  0  0  0
  180.3530  180.9910  136.2860 C   0  0  0  0  0  3  0  0  0  0  0  0
  180.4290  179.1650  137.8970 C   0  0  0  0  0  0  0  0  0  0  0  0
  180.1440  177.8240  138.1750 C   0  0  0  0  0  3  0  0  0  0  0  0
  179.5160  177.0240  137.2180 C   0  0  0  0  0  0  0  0  0  0  0  0
  179.1600  177.5880  136.0260 N   0  0  0  0  0  0  0  0  0  0  0  0
  179.4270  178.8620  135.7410 N   0  0  0  0  0  0  0  0  0  0  0  0
  179.1290  174.7310  136.4130 N   0  0  0  0  0  0  0  0  0  0  0  0
  178.9310  172.9220  137.8890 N   0  0  0  0  0  0  0  0  0  0  0  0
  178.9520  173.4040  136.6190 C   0  0  0  0  0  3  0  0  0  0  0  0
  179.0800  173.7360  138.9350 N   0  0  0  0  0  0  0  0  0  0  0  0
  179.2780  175.5860  137.4610 C   0  0  0  0  0  0  0  0  0  0  0  0
  179.2550  175.0720  138.7610 C   0  0  0  0  0  3  0  0  0  0  0  0
  182.2290  178.5880  144.3350 C   0  0  0  0  0  2  0  0  0  0  0  0
  183.2460  179.4130  144.8170 O   0  0  0  0  0  0  0  0  0  0  0  0
  185.5370  179.0970  145.3620 C   0  0  0  0  0  1  0  0  0  0  0  0
  184.1300  178.5450  145.4560 C   0  0  0  0  0  2  0  0  0  0  0  0
  187.6950  178.5170  141.0710 C   0  0  0  0  0  0  0  0  0  0  0  0
  187.4240  178.2200  139.7300 C   0  0  0  0  0  3  0  0  0  0  0  0
  186.1180  178.3090  139.2410 C   0  0  0  0  0  3  0  0  0  0  0  0
  186.6460  178.8690  141.9270 C   0  0  0  0  0  3  0  0  0  0  0  0
  185.3350  178.9460  141.4400 C   0  0  0  0  0  3  0  0  0  0  0  0
  185.0680  178.6870  140.0840 C   0  0  0  0  0  0  0  0  0  0  0  0
  189.0800  178.3830  141.6190 C   0  0  0  0  0  2  0  0  0  0  0  0
  189.4880  176.9820  141.6790 N   0  0  0  0  0  2  0  0  0  0  0  0
  190.5440  176.8650  142.6830 C   0  0  2  0  0  3  0  0  0  0  0  0
  191.6120  178.1410  144.3520 N   0  0  0  0  0  2  0  0  0  0  0  0
  190.0680  176.3580  143.9660 N   0  0  2  0  0  0  0  0  0  0  0  0
  191.1780  178.1980  142.9680 C   0  0  0  0  0  2  0  0  0  0  0  0
  188.7130  177.0980  145.6340 N   0  0  0  0  0  2  0  0  0  0  0  0
  188.7850  176.8740  144.2470 N   0  0  0  0  0  2  0  0  0  0  0  0
  190.0610  177.4150  146.0610 C   0  0  0  0  0  2  0  0  0  0  0  0
  190.9540  176.9730  144.9430 C   0  0  2  0  0  3  0  0  0  0  0  0
  183.4100  177.5740  138.6110 C   0  0  0  0  0  3  0  0  0  0  0  0
  183.5180  177.7000  137.2890 C   0  0  0  0  0  3  0  0  0  0  0  0
  183.2550  176.2850  136.2270 S   0  0  0  0  0  0  0  0  0  0  0  0
  185.8940  176.7540  136.1600 N   0  0  0  0  0  0  0  0  0  0  0  0
  184.8460  176.5030  135.4430 C   0  0  0  0  0  3  0  0  0  0  0  0
  187.3620  177.8430  134.6860 O   0  0  0  0  0  0  0  0  0  0  0  0
  187.1850  176.9620  135.5760 C   0  0  0  0  0  0  0  0  0  0  0  0
  187.8480  174.9520  136.8350 C   0  0  0  0  0  1  0  0  0  0  0  0
  188.3450  176.1520  136.0400 C   0  0  0  0  0  2  0  0  0  0  0  0
  1 44  1  1  0  0  0
  1 33  1  0  0  0  0
  1  6  1  0  0  0  0
  2  7  1  0  0  0  0
  3  4  1  0  0  0  0
  4 24  1  0  0  0  0
  5  6  1  0  0  0  0
  5  2  2  0  0  0  0
  6  3  2  0  0  0  0
  7  4  2  0  0  0  0
  8  5  1  0  0  0  0
  9 13  1  0  0  0  0
 10  8  1  0  0  0  0
 11 10  2  0  0  0  0
 12  9  2  0  0  0  0
 12 11  1  0  0  0  0
 13 14  1  0  0  0  0
 13  8  2  0  0  0  0
 15 22  1  0  0  0  0
 15 14  2  0  0  0  0
 16 15  1  0  0  0  0
 17 16  2  0  0  0  0
 17  9  1  0  0  0  0
 18 20  2  0  0  0  0
 18 22  1  0  0  0  0
 19 21  2  0  0  0  0
 20 19  1  0  0  0  0
 22 23  2  0  0  0  0
 23 21  1  0  0  0  0
 24 25  1  0  0  0  0
 25 27  1  0  0  0  0
 26 27  1  0  0  0  0
 28 34  1  0  0  0  0
 28 31  1  0  0  0  0
 29 28  2  0  0  0  0
 30 29  1  0  0  0  0
 30 33  2  0  0  0  0
 32 31  2  0  0  0  0
 33 32  1  0  0  0  0
 34 35  1  0  0  0  0
 36 35  1  6  0  0  0
 36 39  1  0  0  0  0
 36 38  1  0  0  0  0
 37 43  1  0  0  0  0
 38 41  1  1  0  0  0
 38 43  1  0  0  0  0
 39 37  1  0  0  0  0
 40 42  1  0  0  0  0
 41 40  1  0  0  0  0
 43 42  1  1  0  0  0
 45 44  2  0  0  0  0
 46 45  1  0  0  0  0
 48 47  2  0  0  0  0
 48 46  1  0  0  0  0
 49 50  2  0  0  0  0
 50 52  1  0  0  0  0
 50 47  1  0  0  0  0
 52 51  1  0  0  0  0
M  END
>  <MODEL>
5

>  <REMARK>
 VINA RESULT:      -5.7      2.919      6.858
  Name = 
  15 active torsions:
  status: ('A' for Active; 'I' for Inactive)
    1  A    between atoms: N_1  and  C_32
    2  A    between atoms: C_2  and  N_43
    3  A    between atoms: C_3  and  C_24
    4  A    between atoms: C_8  and  C_34
    5  A    between atoms: C_10  and  C_19
    6  A    between atoms: C_10  and  O_26
    7  A    between atoms: C_14  and  C_27
    8  A    between atoms: C_14  and  C_31
    9  A    between atoms: C_14  and  C_50
   10  A    between atoms: C_18  and  C_42
   11  A    between atoms: S_25  and  C_37
   12  A    between atoms: S_25  and  C_52
   13  A    between atoms: O_26  and  C_47
   14  A    between atoms: C_32  and  C_36
   15  A    between atoms: C_34  and  N_43
                            x       y       z     vdW  Elec       q    Type
                         _______ _______ _______ _____ _____    ______ ____

>  <TORSDO>
F 15

$$$$
=
 OpenBabel11032419573D

 52 58  0  0  1  0  0  0  0  0999 V2000
  186.4200  178.6020  140.2760 C   0  0  1  0  0  3  0  0  0  0  0  0
  183.9360  178.2020  137.3770 C   0  0  0  0  0  3  0  0  0  0  0  0
  183.9070  178.7830  140.0990 C   0  0  0  0  0  3  0  0  0  0  0  0
  182.7090  178.7610  139.3840 C   0  0  0  0  0  0  0  0  0  0  0  0
  185.1530  178.2410  138.0780 C   0  0  0  0  0  0  0  0  0  0  0  0
  185.1340  178.5140  139.4700 C   0  0  0  0  0  0  0  0  0  0  0  0
  182.7240  178.4580  138.0240 C   0  0  0  0  0  3  0  0  0  0  0  0
  186.4250  178.0460  137.3280 C   0  0  0  0  0  0  0  0  0  0  0  0
  187.9180  176.7290  135.9000 C   0  0  0  0  0  0  0  0  0  0  0  0
  187.3250  179.1200  137.2210 C   0  0  0  0  0  3  0  0  0  0  0  0
  188.4970  179.0070  136.4680 C   0  0  0  0  0  3  0  0  0  0  0  0
  188.7870  177.8170  135.7990 C   0  0  0  0  0  3  0  0  0  0  0  0
  186.7460  176.8240  136.6820 C   0  0  0  0  0  0  0  0  0  0  0  0
  185.9280  175.6930  136.7750 C   0  0  0  0  0  3  0  0  0  0  0  0
  186.2730  174.5170  136.1040 C   0  0  0  0  0  0  0  0  0  0  0  0
  187.4030  174.5100  135.3370 N   0  0  0  0  0  0  0  0  0  0  0  0
  188.1970  175.5750  135.2400 N   0  0  0  0  0  0  0  0  0  0  0  0
  184.4110  173.2630  137.1120 N   0  0  0  0  0  0  0  0  0  0  0  0
  183.9140  171.0640  136.4700 N   0  0  0  0  0  0  0  0  0  0  0  0
  183.6370  172.1570  137.2280 C   0  0  0  0  0  3  0  0  0  0  0  0
  184.9380  171.0640  135.6150 N   0  0  0  0  0  0  0  0  0  0  0  0
  185.4660  173.2890  136.2520 C   0  0  0  0  0  0  0  0  0  0  0  0
  185.7350  172.1550  135.4790 C   0  0  0  0  0  3  0  0  0  0  0  0
  181.4190  179.0420  140.0750 C   0  0  0  0  0  2  0  0  0  0  0  0
  181.3630  178.3470  141.2830 O   0  0  0  0  0  0  0  0  0  0  0  0
  180.5350  178.7320  143.4770 C   0  0  0  0  0  1  0  0  0  0  0  0
  180.3320  178.9610  141.9940 C   0  0  0  0  0  2  0  0  0  0  0  0
  185.8160  178.4500  144.5460 C   0  0  0  0  0  0  0  0  0  0  0  0
  185.0950  179.3500  143.7520 C   0  0  0  0  0  3  0  0  0  0  0  0
  185.2930  179.3780  142.3690 C   0  0  0  0  0  3  0  0  0  0  0  0
  186.7590  177.6040  143.9530 C   0  0  0  0  0  3  0  0  0  0  0  0
  186.9650  177.6400  142.5690 C   0  0  0  0  0  3  0  0  0  0  0  0
  186.2130  178.5150  141.7650 C   0  0  0  0  0  0  0  0  0  0  0  0
  185.6480  178.4390  146.0330 C   0  0  0  0  0  2  0  0  0  0  0  0
  186.5770  177.5010  146.6590 N   0  0  0  0  0  2  0  0  0  0  0  0
  187.5970  178.2810  147.3580 C   0  0  2  0  0  3  0  0  0  0  0  0
  189.0390  178.1340  149.2150 N   0  0  0  0  0  2  0  0  0  0  0  0
  188.9410  178.0780  146.8280 N   0  0  2  0  0  0  0  0  0  0  0  0
  187.6610  177.9180  148.8150 C   0  0  0  0  0  2  0  0  0  0  0  0
  190.4470  176.3760  146.7540 N   0  0  0  0  0  2  0  0  0  0  0  0
  189.1180  176.7280  146.4540 N   0  0  0  0  0  2  0  0  0  0  0  0
  190.8290  177.1810  147.8970 C   0  0  0  0  0  2  0  0  0  0  0  0
  189.8110  178.2760  147.9790 C   0  0  2  0  0  3  0  0  0  0  0  0
  187.5130  177.6730  139.8240 C   0  0  0  0  0  3  0  0  0  0  0  0
  188.7940  178.0280  139.9060 C   0  0  0  0  0  3  0  0  0  0  0  0
  190.0770  176.8840  139.4130 S   0  0  0  0  0  0  0  0  0  0  0  0
  190.6630  176.5070  142.0020 N   0  0  0  0  0  0  0  0  0  0  0  0
  190.9840  177.1550  140.9290 C   0  0  0  0  0  3  0  0  0  0  0  0
  191.6790  175.7290  143.9700 O   0  0  0  0  0  0  0  0  0  0  0  0
  191.3420  176.7090  143.2460 C   0  0  0  0  0  0  0  0  0  0  0  0
  190.4060  178.8930  143.8950 C   0  0  0  0  0  1  0  0  0  0  0  0
  191.6830  178.0910  143.6860 C   0  0  0  0  0  2  0  0  0  0  0  0
  1 44  1  6  0  0  0
  1 33  1  0  0  0  0
  2  7  2  0  0  0  0
  2  5  1  0  0  0  0
  4 24  1  0  0  0  0
  4  3  2  0  0  0  0
  5  6  2  0  0  0  0
  6  3  1  0  0  0  0
  6  1  1  0  0  0  0
  7  4  1  0  0  0  0
  8  5  1  0  0  0  0
  9 13  1  0  0  0  0
 10  8  1  0  0  0  0
 11 10  2  0  0  0  0
 12  9  2  0  0  0  0
 12 11  1  0  0  0  0
 13 14  1  0  0  0  0
 13  8  2  0  0  0  0
 15 22  1  0  0  0  0
 15 14  2  0  0  0  0
 16 15  1  0  0  0  0
 17 16  2  0  0  0  0
 17  9  1  0  0  0  0
 18 20  1  0  0  0  0
 19 20  2  0  0  0  0
 21 19  1  0  0  0  0
 22 18  2  0  0  0  0
 23 21  2  0  0  0  0
 23 22  1  0  0  0  0
 24 25  1  0  0  0  0
 25 27  1  0  0  0  0
 27 26  1  0  0  0  0
 28 34  1  0  0  0  0
 29 28  2  0  0  0  0
 30 29  1  0  0  0  0
 31 28  1  0  0  0  0
 32 31  2  0  0  0  0
 33 30  2  0  0  0  0
 33 32  1  0  0  0  0
 34 35  1  0  0  0  0
 36 35  1  6  0  0  0
 36 39  1  0  0  0  0
 38 41  1  1  0  0  0
 38 36  1  0  0  0  0
 38 43  1  0  0  0  0
 39 37  1  0  0  0  0
 40 42  1  0  0  0  0
 41 40  1  0  0  0  0
 43 42  1  1  0  0  0
 43 37  1  0  0  0  0
 44 45  2  0  0  0  0
 46 45  1  0  0  0  0
 46 48  1  0  0  0  0
 47 50  1  0  0  0  0
 48 47  2  0  0  0  0
 50 52  1  0  0  0  0
 50 49  2  0  0  0  0
 52 51  1  0  0  0  0
M  END
>  <MODEL>
6

>  <REMARK>
 VINA RESULT:      -5.4      3.409      6.562
  Name = 
  15 active torsions:
  status: ('A' for Active; 'I' for Inactive)
    1  A    between atoms: N_1  and  C_32
    2  A    between atoms: C_2  and  N_43
    3  A    between atoms: C_3  and  C_24
    4  A    between atoms: C_8  and  C_34
    5  A    between atoms: C_10  and  C_19
    6  A    between atoms: C_10  and  O_26
    7  A    between atoms: C_14  and  C_27
    8  A    between atoms: C_14  and  C_31
    9  A    between atoms: C_14  and  C_50
   10  A    between atoms: C_18  and  C_42
   11  A    between atoms: S_25  and  C_37
   12  A    between atoms: S_25  and  C_52
   13  A    between atoms: O_26  and  C_47
   14  A    between atoms: C_32  and  C_36
   15  A    between atoms: C_34  and  N_43
                            x       y       z     vdW  Elec       q    Type
                         _______ _______ _______ _____ _____    ______ ____

>  <TORSDO>
F 15

$$$$
=
 OpenBabel11032419573D

 52 58  0  0  1  0  0  0  0  0999 V2000
  182.8000  177.9230  138.8280 C   0  0  1  0  0  3  0  0  0  0  0  0
  179.3990  178.4900  140.5150 C   0  0  0  0  0  3  0  0  0  0  0  0
  182.1050  178.6040  141.1590 C   0  0  0  0  0  3  0  0  0  0  0  0
  181.1500  178.9280  142.1230 C   0  0  0  0  0  0  0  0  0  0  0  0
  180.3480  178.1810  139.5260 C   0  0  0  0  0  0  0  0  0  0  0  0
  181.7260  178.2160  139.8630 C   0  0  0  0  0  0  0  0  0  0  0  0
  179.7960  178.8590  141.8030 C   0  0  0  0  0  3  0  0  0  0  0  0
  179.8800  177.8770  138.1450 C   0  0  0  0  0  0  0  0  0  0  0  0
  179.5730  178.4560  135.7840 C   0  0  0  0  0  0  0  0  0  0  0  0
  179.3990  176.5890  137.8560 C   0  0  0  0  0  3  0  0  0  0  0  0
  179.0160  176.2350  136.5600 C   0  0  0  0  0  3  0  0  0  0  0  0
  179.1140  177.1640  135.5230 C   0  0  0  0  0  3  0  0  0  0  0  0
  179.9360  178.8310  137.0970 C   0  0  0  0  0  0  0  0  0  0  0  0
  180.3590  180.1480  137.3070 C   0  0  0  0  0  3  0  0  0  0  0  0
  180.4190  181.0480  136.2400 C   0  0  0  0  0  0  0  0  0  0  0  0
  180.0880  180.6040  134.9910 N   0  0  0  0  0  0  0  0  0  0  0  0
  179.6780  179.3550  134.7720 N   0  0  0  0  0  0  0  0  0  0  0  0
  181.2850  182.8660  137.6540 N   0  0  0  0  0  0  0  0  0  0  0  0
  181.5530  185.0450  136.8360 N   0  0  0  0  0  0  0  0  0  0  0  0
  181.6650  184.1510  137.8520 C   0  0  0  0  0  3  0  0  0  0  0  0
  181.0740  184.6760  135.6470 N   0  0  0  0  0  0  0  0  0  0  0  0
  180.7870  182.4620  136.4540 C   0  0  0  0  0  0  0  0  0  0  0  0
  180.6810  183.3960  135.4180 C   0  0  0  0  0  3  0  0  0  0  0  0
  181.5760  179.3290  143.4930 C   0  0  0  0  0  2  0  0  0  0  0  0
  182.9600  179.5030  143.5320 O   0  0  0  0  0  0  0  0  0  0  0  0
  184.8690  178.8860  144.8050 C   0  0  0  0  0  1  0  0  0  0  0  0
  183.3570  178.9060  144.7270 C   0  0  0  0  0  2  0  0  0  0  0  0
  186.8530  178.5310  140.1820 C   0  0  0  0  0  0  0  0  0  0  0  0
  186.5810  178.2370  138.8410 C   0  0  0  0  0  3  0  0  0  0  0  0
  185.2630  178.0550  138.4150 C   0  0  0  0  0  3  0  0  0  0  0  0
  185.8000  178.6100  141.1000 C   0  0  0  0  0  3  0  0  0  0  0  0
  184.4800  178.4160  140.6760 C   0  0  0  0  0  3  0  0  0  0  0  0
  184.2030  178.1590  139.3220 C   0  0  0  0  0  0  0  0  0  0  0  0
  188.2620  178.6840  140.6610 C   0  0  0  0  0  2  0  0  0  0  0  0
  188.6590  177.5500  141.4920 N   0  0  0  0  0  2  0  0  0  0  0  0
  188.7630  178.0210  142.8720 C   0  0  2  0  0  3  0  0  0  0  0  0
  188.6500  177.2100  145.0820 N   0  0  0  0  0  2  0  0  0  0  0  0
  190.1290  178.0120  143.3840 N   0  0  2  0  0  0  0  0  0  0  0  0
  187.9580  177.1610  143.8060 C   0  0  0  0  0  2  0  0  0  0  0  0
  191.6800  176.4390  143.9190 N   0  0  0  0  0  2  0  0  0  0  0  0
  190.8230  176.8840  142.8960 N   0  0  0  0  0  2  0  0  0  0  0  0
  191.0280  176.7790  145.1670 C   0  0  0  0  0  2  0  0  0  0  0  0
  189.9720  177.7790  144.8120 C   0  0  2  0  0  3  0  0  0  0  0  0
  182.6800  176.5850  138.1540 C   0  0  0  0  0  3  0  0  0  0  0  0
  182.8120  176.4650  136.8330 C   0  0  0  0  0  3  0  0  0  0  0  0
  182.7180  174.8540  136.0630 S   0  0  0  0  0  0  0  0  0  0  0  0
  185.1130  174.1620  137.0510 N   0  0  0  0  0  0  0  0  0  0  0  0
  184.4980  174.6940  136.0440 C   0  0  0  0  0  3  0  0  0  0  0  0
  187.2800  175.0580  137.1640 O   0  0  0  0  0  0  0  0  0  0  0  0
  186.5380  174.0360  137.0940 C   0  0  0  0  0  0  0  0  0  0  0  0
  186.5130  171.8270  136.0050 C   0  0  0  0  0  1  0  0  0  0  0  0
  187.1610  172.6830  137.0840 C   0  0  0  0  0  2  0  0  0  0  0  0
  1 44  1  1  0  0  0
  1 33  1  0  0  0  0
  1  6  1  0  0  0  0
  2  7  1  0  0  0  0
  3  4  1  0  0  0  0
  4 24  1  0  0  0  0
  5  6  1  0  0  0  0
  5  2  2  0  0  0  0
  6  3  2  0  0  0  0
  7  4  2  0  0  0  0
  8  5  1  0  0  0  0
  9 13  1  0  0  0  0
 10  8  1  0  0  0  0
 11 10  2  0  0  0  0
 12  9  2  0  0  0  0
 12 11  1  0  0  0  0
 13 14  1  0  0  0  0
 13  8  2  0  0  0  0
 15 22  1  0  0  0  0
 15 14  2  0  0  0  0
 16 15  1  0  0  0  0
 17 16  2  0  0  0  0
 17  9  1  0  0  0  0
 18 20  1  0  0  0  0
 19 20  2  0  0  0  0
 21 19  1  0  0  0  0
 22 18  2  0  0  0  0
 23 21  2  0  0  0  0
 23 22  1  0  0  0  0
 24 25  1  0  0  0  0
 25 27  1  0  0  0  0
 27 26  1  0  0  0  0
 28 34  1  0  0  0  0
 28 31  1  0  0  0  0
 29 28  2  0  0  0  0
 30 29  1  0  0  0  0
 30 33  2  0  0  0  0
 32 31  2  0  0  0  0
 33 32  1  0  0  0  0
 34 35  1  0  0  0  0
 36 35  1  6  0  0  0
 36 38  1  0  0  0  0
 36 39  1  0  0  0  0
 38 41  1  6  0  0  0
 38 43  1  0  0  0  0
 39 37  1  0  0  0  0
 40 42  1  0  0  0  0
 41 40  1  0  0  0  0
 43 37  1  0  0  0  0
 43 42  1  6  0  0  0
 45 44  2  0  0  0  0
 46 45  1  0  0  0  0
 47 50  1  0  0  0  0
 48 46  1  0  0  0  0
 48 47  2  0  0  0  0
 50 49  2  0  0  0  0
 51 52  1  0  0  0  0
 52 50  1  0  0  0  0
M  END
>  <MODEL>
7

>  <REMARK>
 VINA RESULT:      -5.4      3.519      6.443
  Name = 
  15 active torsions:
  status: ('A' for Active; 'I' for Inactive)
    1  A    between atoms: N_1  and  C_32
    2  A    between atoms: C_2  and  N_43
    3  A    between atoms: C_3  and  C_24
    4  A    between atoms: C_8  and  C_34
    5  A    between atoms: C_10  and  C_19
    6  A    between atoms: C_10  and  O_26
    7  A    between atoms: C_14  and  C_27
    8  A    between atoms: C_14  and  C_31
    9  A    between atoms: C_14  and  C_50
   10  A    between atoms: C_18  and  C_42
   11  A    between atoms: S_25  and  C_37
   12  A    between atoms: S_25  and  C_52
   13  A    between atoms: O_26  and  C_47
   14  A    between atoms: C_32  and  C_36
   15  A    between atoms: C_34  and  N_43
                            x       y       z     vdW  Elec       q    Type
                         _______ _______ _______ _____ _____    ______ ____

>  <TORSDO>
F 15

$$$$
=
 OpenBabel11032419573D

 52 58  0  0  1  0  0  0  0  0999 V2000
  186.1890  175.6000  137.3340 C   0  0  1  0  0  3  0  0  0  0  0  0
  188.5010  178.6600  137.4790 C   0  0  0  0  0  3  0  0  0  0  0  0
  188.2710  176.2690  136.0720 C   0  0  0  0  0  3  0  0  0  0  0  0
  189.3100  177.1520  135.7720 C   0  0  0  0  0  0  0  0  0  0  0  0
  187.4370  177.7930  137.7790 C   0  0  0  0  0  0  0  0  0  0  0  0
  187.3350  176.5640  137.0770 C   0  0  0  0  0  0  0  0  0  0  0  0
  189.4310  178.3430  136.4860 C   0  0  0  0  0  3  0  0  0  0  0  0
  186.4230  178.2140  138.7860 C   0  0  0  0  0  0  0  0  0  0  0  0
  185.7390  178.7580  141.0750 C   0  0  0  0  0  0  0  0  0  0  0  0
  185.1540  178.6250  138.3450 C   0  0  0  0  0  3  0  0  0  0  0  0
  184.1950  179.0970  139.2450 C   0  0  0  0  0  3  0  0  0  0  0  0
  184.4910  179.1740  140.6070 C   0  0  0  0  0  3  0  0  0  0  0  0
  186.7050  178.2540  140.1760 C   0  0  0  0  0  0  0  0  0  0  0  0
  187.9260  177.8220  140.7040 C   0  0  0  0  0  3  0  0  0  0  0  0
  188.1670  177.9000  142.0770 C   0  0  0  0  0  0  0  0  0  0  0  0
  187.2010  178.4320  142.8820 N   0  0  0  0  0  0  0  0  0  0  0  0
  186.0290  178.8450  142.3990 N   0  0  0  0  0  0  0  0  0  0  0  0
  190.2610  178.2090  143.3340 N   0  0  0  0  0  0  0  0  0  0  0  0
  191.6810  176.4110  143.8270 N   0  0  0  0  0  0  0  0  0  0  0  0
  191.3900  177.7360  143.9120 C   0  0  0  0  0  3  0  0  0  0  0  0
  190.8710  175.5710  143.1810 N   0  0  0  0  0  0  0  0  0  0  0  0
  189.4180  177.3760  142.6640 C   0  0  0  0  0  0  0  0  0  0  0  0
  189.7320  176.0160  142.5870 C   0  0  0  0  0  3  0  0  0  0  0  0
  190.2950  176.8140  134.7070 C   0  0  0  0  0  2  0  0  0  0  0  0
  190.8750  175.5720  134.9680 O   0  0  0  0  0  0  0  0  0  0  0  0
  192.6520  175.9690  136.4930 C   0  0  0  0  0  1  0  0  0  0  0  0
  192.2430  175.8310  135.0430 C   0  0  0  0  0  2  0  0  0  0  0  0
  182.5070  176.8640  135.4710 C   0  0  0  0  0  0  0  0  0  0  0  0
  183.7420  177.1170  134.8620 C   0  0  0  0  0  3  0  0  0  0  0  0
  184.9250  176.6900  135.4720 C   0  0  0  0  0  3  0  0  0  0  0  0
  182.4650  176.2120  136.7080 C   0  0  0  0  0  3  0  0  0  0  0  0
  183.6510  175.7940  137.3240 C   0  0  0  0  0  3  0  0  0  0  0  0
  184.8900  176.0130  136.6950 C   0  0  0  0  0  0  0  0  0  0  0  0
  181.2360  177.3530  134.8520 C   0  0  0  0  0  2  0  0  0  0  0  0
  180.3870  178.0070  135.8450 N   0  0  0  0  0  2  0  0  0  0  0  0
  180.7690  179.4160  135.9030 C   0  0  2  0  0  3  0  0  0  0  0  0
  179.8660  181.5220  136.4550 N   0  0  0  0  0  2  0  0  0  0  0  0
  181.3590  179.8020  137.1810 N   0  0  2  0  0  0  0  0  0  0  0  0
  179.5810  180.3150  135.7010 C   0  0  0  0  0  2  0  0  0  0  0  0
  180.6480  180.0180  139.3290 N   0  0  0  0  0  2  0  0  0  0  0  0
  180.7090  179.1310  138.2390 N   0  0  0  0  0  2  0  0  0  0  0  0
  180.5740  181.3500  138.7610 C   0  0  0  0  0  2  0  0  0  0  0  0
  180.9950  181.2030  137.3320 C   0  0  2  0  0  3  0  0  0  0  0  0
  186.5010  174.1570  137.0470 C   0  0  0  0  0  3  0  0  0  0  0  0
  185.8860  173.5030  136.0620 C   0  0  0  0  0  3  0  0  0  0  0  0
  186.3150  171.8030  135.7070 S   0  0  0  0  0  0  0  0  0  0  0  0
  183.7360  171.8870  136.4350 N   0  0  0  0  0  0  0  0  0  0  0  0
  184.5950  171.3180  135.6520 C   0  0  0  0  0  3  0  0  0  0  0  0
  181.9520  170.4810  135.8390 O   0  0  0  0  0  0  0  0  0  0  0  0
  182.3530  171.5140  136.4470 C   0  0  0  0  0  0  0  0  0  0  0  0
  179.9620  172.0360  136.7240 C   0  0  0  0  0  1  0  0  0  0  0  0
  181.3730  172.3380  137.2080 C   0  0  0  0  0  2  0  0  0  0  0  0
  1 44  1  6  0  0  0
  2  5  1  0  0  0  0
  3  6  1  0  0  0  0
  4  3  2  0  0  0  0
  4  7  1  0  0  0  0
  5  8  1  0  0  0  0
  6  1  1  0  0  0  0
  6  5  2  0  0  0  0
  7  2  2  0  0  0  0
  8 13  1  0  0  0  0
  9 17  1  0  0  0  0
 10  8  2  0  0  0  0
 10 11  1  0  0  0  0
 11 12  2  0  0  0  0
 12  9  1  0  0  0  0
 13 14  1  0  0  0  0
 13  9  2  0  0  0  0
 14 15  2  0  0  0  0
 15 22  1  0  0  0  0
 15 16  1  0  0  0  0
 17 16  2  0  0  0  0
 18 20  1  0  0  0  0
 19 20  2  0  0  0  0
 21 19  1  0  0  0  0
 22 18  2  0  0  0  0
 23 22  1  0  0  0  0
 23 21  2  0  0  0  0
 24 25  1  0  0  0  0
 24  4  1  0  0  0  0
 25 27  1  0  0  0  0
 27 26  1  0  0  0  0
 28 31  1  0  0  0  0
 29 28  2  0  0  0  0
 29 30  1  0  0  0  0
 30 33  2  0  0  0  0
 31 32  2  0  0  0  0
 33 32  1  0  0  0  0
 33  1  1  0  0  0  0
 34 28  1  0  0  0  0
 34 35  1  0  0  0  0
 36 35  1  1  0  0  0
 36 38  1  0  0  0  0
 37 43  1  0  0  0  0
 38 43  1  0  0  0  0
 38 41  1  1  0  0  0
 39 36  1  0  0  0  0
 39 37  1  0  0  0  0
 41 40  1  0  0  0  0
 42 40  1  0  0  0  0
 43 42  1  1  0  0  0
 45 44  2  0  0  0  0
 46 45  1  0  0  0  0
 47 50  1  0  0  0  0
 48 46  1  0  0  0  0
 48 47  2  0  0  0  0
 49 50  2  0  0  0  0
 50 52  1  0  0  0  0
 51 52  1  0  0  0  0
M  END
>  <MODEL>
8

>  <REMARK>
 VINA RESULT:      -5.3      4.018      9.071
  Name = 
  15 active torsions:
  status: ('A' for Active; 'I' for Inactive)
    1  A    between atoms: N_1  and  C_32
    2  A    between atoms: C_2  and  N_43
    3  A    between atoms: C_3  and  C_24
    4  A    between atoms: C_8  and  C_34
    5  A    between atoms: C_10  and  C_19
    6  A    between atoms: C_10  and  O_26
    7  A    between atoms: C_14  and  C_27
    8  A    between atoms: C_14  and  C_31
    9  A    between atoms: C_14  and  C_50
   10  A    between atoms: C_18  and  C_42
   11  A    between atoms: S_25  and  C_37
   12  A    between atoms: S_25  and  C_52
   13  A    between atoms: O_26  and  C_47
   14  A    between atoms: C_32  and  C_36
   15  A    between atoms: C_34  and  N_43
                            x       y       z     vdW  Elec       q    Type
                         _______ _______ _______ _____ _____    ______ ____

>  <TORSDO>
F 15

$$$$
=
 OpenBabel11032419573D

 52 58  0  0  1  0  0  0  0  0999 V2000
  184.1530  178.5020  139.2510 C   0  0  1  0  0  3  0  0  0  0  0  0
  180.6740  178.2920  140.8570 C   0  0  0  0  0  3  0  0  0  0  0  0
  183.2960  178.8620  141.5990 C   0  0  0  0  0  3  0  0  0  0  0  0
  182.2780  178.9280  142.5510 C   0  0  0  0  0  0  0  0  0  0  0  0
  181.6840  178.2420  139.8820 C   0  0  0  0  0  0  0  0  0  0  0  0
  183.0230  178.5090  140.2670 C   0  0  0  0  0  0  0  0  0  0  0  0
  180.9670  178.6300  142.1810 C   0  0  0  0  0  3  0  0  0  0  0  0
  181.3090  177.9600  138.4680 C   0  0  0  0  0  0  0  0  0  0  0  0
  180.7620  178.6730  136.1880 C   0  0  0  0  0  0  0  0  0  0  0  0
  181.2850  176.6280  138.0210 C   0  0  0  0  0  3  0  0  0  0  0  0
  181.0090  176.3190  136.6870 C   0  0  0  0  0  3  0  0  0  0  0  0
  180.7600  177.3400  135.7690 C   0  0  0  0  0  3  0  0  0  0  0  0
  181.0110  178.9930  137.5410 C   0  0  0  0  0  0  0  0  0  0  0  0
  180.9700  180.3410  137.9120 C   0  0  0  0  0  3  0  0  0  0  0  0
  180.6940  181.3250  136.9610 C   0  0  0  0  0  0  0  0  0  0  0  0
  180.4980  180.9450  135.6640 N   0  0  0  0  0  0  0  0  0  0  0  0
  180.5290  179.6650  135.2920 N   0  0  0  0  0  0  0  0  0  0  0  0
  181.5820  183.6170  137.0930 N   0  0  0  0  0  0  0  0  0  0  0  0
  180.3140  185.3830  137.9680 N   0  0  0  0  0  0  0  0  0  0  0  0
  181.4640  184.9300  137.4030 C   0  0  0  0  0  3  0  0  0  0  0  0
  179.3020  184.5530  138.2230 N   0  0  0  0  0  0  0  0  0  0  0  0
  180.5670  182.7460  137.3460 C   0  0  0  0  0  0  0  0  0  0  0  0
  179.3910  183.2300  137.9270 C   0  0  0  0  0  3  0  0  0  0  0  0
  182.5930  179.2970  143.9590 C   0  0  0  0  0  2  0  0  0  0  0  0
  183.9560  179.5640  144.0900 O   0  0  0  0  0  0  0  0  0  0  0  0
  185.6870  178.3360  145.1580 C   0  0  0  0  0  1  0  0  0  0  0  0
  184.3180  178.9650  145.2970 C   0  0  0  0  0  2  0  0  0  0  0  0
  188.1160  178.3840  140.9550 C   0  0  0  0  0  0  0  0  0  0  0  0
  187.9210  178.1990  139.5820 C   0  0  0  0  0  3  0  0  0  0  0  0
  186.6330  178.2530  139.0430 C   0  0  0  0  0  3  0  0  0  0  0  0
  187.0130  178.5890  141.7910 C   0  0  0  0  0  3  0  0  0  0  0  0
  185.7210  178.6310  141.2520 C   0  0  0  0  0  3  0  0  0  0  0  0
  185.5270  178.4850  139.8670 C   0  0  0  0  0  0  0  0  0  0  0  0
  189.4850  178.2850  141.5530 C   0  0  0  0  0  2  0  0  0  0  0  0
  189.7960  176.9060  141.9240 N   0  0  0  0  0  2  0  0  0  0  0  0
  190.8310  176.9430  142.9560 C   0  0  2  0  0  3  0  0  0  0  0  0
  191.6800  178.3730  144.6250 N   0  0  0  0  0  2  0  0  0  0  0  0
  190.3880  176.4020  144.2360 N   0  0  2  0  0  0  0  0  0  0  0  0
  191.2810  178.3510  143.2290 C   0  0  0  0  0  2  0  0  0  0  0  0
  188.9040  176.9920  145.8540 N   0  0  0  0  0  2  0  0  0  0  0  0
  189.0420  176.7540  144.4740 N   0  0  0  0  0  2  0  0  0  0  0  0
  190.1880  177.4860  146.3080 C   0  0  0  0  0  2  0  0  0  0  0  0
  191.1600  177.1420  145.2230 C   0  0  2  0  0  3  0  0  0  0  0  0
  184.0290  177.4610  138.1740 C   0  0  0  0  0  3  0  0  0  0  0  0
  184.6280  177.6150  136.9940 C   0  0  0  0  0  3  0  0  0  0  0  0
  184.5080  176.3360  135.7500 S   0  0  0  0  0  0  0  0  0  0  0  0
  186.8010  175.3450  136.7240 N   0  0  0  0  0  0  0  0  0  0  0  0
  186.2740  176.0570  135.7810 C   0  0  0  0  0  3  0  0  0  0  0  0
  188.6830  173.9430  136.7970 O   0  0  0  0  0  0  0  0  0  0  0  0
  188.2130  175.1170  136.8070 C   0  0  0  0  0  0  0  0  0  0  0  0
  189.9600  176.3580  135.5950 C   0  0  0  0  0  1  0  0  0  0  0  0
  189.1460  176.2760  136.8780 C   0  0  0  0  0  2  0  0  0  0  0  0
  1 44  1  6  0  0  0
  1 33  1  0  0  0  0
  1  6  1  0  0  0  0
  2  7  1  0  0  0  0
  3  4  1  0  0  0  0
  4 24  1  0  0  0  0
  5  6  1  0  0  0  0
  5  2  2  0  0  0  0
  6  3  2  0  0  0  0
  7  4  2  0  0  0  0
  8  5  1  0  0  0  0
  9 13  1  0  0  0  0
 10  8  1  0  0  0  0
 11 10  2  0  0  0  0
 12  9  2  0  0  0  0
 12 11  1  0  0  0  0
 13 14  1  0  0  0  0
 13  8  2  0  0  0  0
 15 22  1  0  0  0  0
 15 14  2  0  0  0  0
 16 15  1  0  0  0  0
 17 16  2  0  0  0  0
 17  9  1  0  0  0  0
 18 22  2  0  0  0  0
 18 20  1  0  0  0  0
 19 21  1  0  0  0  0
 20 19  2  0  0  0  0
 22 23  1  0  0  0  0
 23 21  2  0  0  0  0
 24 25  1  0  0  0  0
 25 27  1  0  0  0  0
 26 27  1  0  0  0  0
 28 34  1  0  0  0  0
 28 31  1  0  0  0  0
 29 28  2  0  0  0  0
 30 29  1  0  0  0  0
 30 33  2  0  0  0  0
 32 31  2  0  0  0  0
 33 32  1  0  0  0  0
 34 35  1  0  0  0  0
 36 35  1  6  0  0  0
 36 39  1  0  0  0  0
 36 38  1  0  0  0  0
 37 43  1  0  0  0  0
 38 41  1  1  0  0  0
 38 43  1  0  0  0  0
 39 37  1  0  0  0  0
 40 42  1  0  0  0  0
 41 40  1  0  0  0  0
 43 42  1  1  0  0  0
 45 44  2  0  0  0  0
 46 48  1  0  0  0  0
 46 45  1  0  0  0  0
 47 50  1  0  0  0  0
 48 47  2  0  0  0  0
 49 50  2  0  0  0  0
 50 52  1  0  0  0  0
 51 52  1  0  0  0  0
M  END
>  <MODEL>
9

>  <REMARK>
 VINA RESULT:      -5.2      3.510      6.892
  Name = 
  15 active torsions:
  status: ('A' for Active; 'I' for Inactive)
    1  A    between atoms: N_1  and  C_32
    2  A    between atoms: C_2  and  N_43
    3  A    between atoms: C_3  and  C_24
    4  A    between atoms: C_8  and  C_34
    5  A    between atoms: C_10  and  C_19
    6  A    between atoms: C_10  and  O_26
    7  A    between atoms: C_14  and  C_27
    8  A    between atoms: C_14  and  C_31
    9  A    between atoms: C_14  and  C_50
   10  A    between atoms: C_18  and  C_42
   11  A    between atoms: S_25  and  C_37
   12  A    between atoms: S_25  and  C_52
   13  A    between atoms: O_26  and  C_47
   14  A    between atoms: C_32  and  C_36
   15  A    between atoms: C_34  and  N_43
                            x       y       z     vdW  Elec       q    Type
                         _______ _______ _______ _____ _____    ______ ____

>  <TORSDO>
F 15

$$$$
