=
 OpenBabel11032420103D

 36 39  0  0  1  0  0  0  0  0999 V2000
  185.1710  178.4750  141.7410 C   0  0  0  0  0  0  0  0  0  0  0  0
  186.5190  178.3120  141.4150 C   0  0  0  0  0  3  0  0  0  0  0  0
  188.8830  177.8400  142.0950 C   0  0  0  0  0  0  0  0  0  0  0  0
  189.4630  177.4100  144.3920 C   0  0  0  0  0  0  0  0  0  0  0  0
  189.1970  177.0140  147.3030 O   0  0  0  0  0  0  0  0  0  0  0  0
  183.1450  179.8180  144.2200 C   0  0  0  0  0  1  0  0  0  0  0  0
  182.3530  178.4470  142.2870 C   0  0  0  0  0  2  0  0  0  0  0  0
  187.0380  177.8310  143.7360 C   0  0  0  0  0  0  0  0  0  0  0  0
  185.6880  177.9780  144.0610 C   0  0  0  0  0  3  0  0  0  0  0  0
  182.8770  179.3170  141.1440 C   0  0  1  0  0  3  0  0  0  0  0  0
  190.4960  177.1440  145.3510 N   0  0  0  0  0  2  0  0  0  0  0  0
  189.3150  177.9780  140.8850 N   0  0  0  0  0  2  0  0  0  0  0  0
  184.1890  178.7210  140.6320 C   0  0  0  0  0  2  0  0  0  0  0  0
  183.3080  178.4990  143.4820 C   0  0  1  0  0  3  0  0  0  0  0  0
  184.7460  178.2970  143.0760 C   0  0  0  0  0  0  0  0  0  0  0  0
  189.8090  177.5680  143.1480 N   0  0  0  0  0  0  0  0  0  0  0  0
  187.4560  177.9990  142.4080 C   0  0  0  0  0  0  0  0  0  0  0  0
  190.3310  176.9470  146.7610 C   0  0  0  0  0  0  0  0  0  0  0  0
  188.0120  177.4750  144.8250 C   0  0  0  0  0  2  0  0  0  0  0  0
  192.2880  175.4930  147.0750 C   0  0  0  0  0  1  0  0  0  0  0  0
  191.5300  176.6940  147.6040 C   0  0  0  0  0  2  0  0  0  0  0  0
  181.8470  179.4100  140.0150 C   0  0  2  0  0  3  0  0  0  0  0  0
  181.6990  176.7610  139.0730 S   0  0  0  0  0  0  0  0  0  0  0  0
  179.8160  177.8570  140.3170 C   0  0  0  0  0  3  0  0  0  0  0  0
  179.3760  176.6010  140.0350 N   0  0  0  0  0  0  0  0  0  0  0  0
  181.1000  178.1260  139.8500 C   0  0  0  0  0  0  0  0  0  0  0  0
  180.2970  175.8830  139.3580 C   0  0  0  0  0  0  0  0  0  0  0  0
  179.9170  173.4330  138.5990 N   0  0  0  0  0  0  0  0  0  0  0  0
  180.0870  174.5270  138.9380 C   0  0  0  0  0  0  0  0  0  0  0  0
  182.4740  179.7380  138.8080 O   0  0  0  0  0  0  0  0  0  0  0  0
  181.5550  180.4720  138.1320 N   0  0  0  0  0  2  0  0  0  0  0  0
  181.8940  181.8700  138.3340 C   0  0  0  0  0  2  0  0  0  0  0  0
  180.8340  182.7550  137.7040 C   0  0  0  0  0  2  0  0  0  0  0  0
  182.3470  184.5920  137.6790 O   0  0  0  0  0  1  0  0  0  0  0  0
  181.4760  183.9300  137.0580 C   0  0  0  0  0  0  0  0  0  0  0  0
  181.0920  184.3160  135.7810 O   0  0  0  0  0  0  0  0  0  0  0  0
  1 15  1  0  0  0  0
  2  1  2  0  0  0  0
  2 17  1  0  0  0  0
  3 17  1  0  0  0  0
  3 16  1  0  0  0  0
  4 19  1  0  0  0  0
  4 11  1  0  0  0  0
  7 14  1  0  0  0  0
  8  9  1  0  0  0  0
  8 19  1  0  0  0  0
 10 22  1  6  0  0  0
 10  7  1  0  0  0  0
 11 18  1  0  0  0  0
 12  3  2  0  0  0  0
 13 10  1  0  0  0  0
 13  1  1  0  0  0  0
 14  6  1  6  0  0  0
 15 14  1  0  0  0  0
 15  9  2  0  0  0  0
 16  4  2  0  0  0  0
 17  8  2  0  0  0  0
 18  5  2  0  0  0  0
 18 21  1  0  0  0  0
 20 21  1  0  0  0  0
 22 30  1  6  0  0  0
 23 27  1  0  0  0  0
 23 26  1  0  0  0  0
 25 24  1  0  0  0  0
 26 22  1  0  0  0  0
 26 24  2  0  0  0  0
 27 25  2  0  0  0  0
 28 29  3  0  0  0  0
 29 27  1  0  0  0  0
 31 32  1  0  0  0  0
 31 30  1  0  0  0  0
 33 32  1  0  0  0  0
 35 34  1  0  0  0  0
 35 33  1  0  0  0  0
 36 35  2  0  0  0  0
M  END
>  <MODEL>
1

>  <REMARK>
 VINA RESULT:      -8.0      0.000      0.000
  Name = 
  9 active torsions:
  status: ('A' for Active; 'I' for Inactive)
    1  A    between atoms: C_3  and  C_35
    2  A    between atoms: C_4  and  C_11
    3  A    between atoms: C_4  and  C_16
    4  A    between atoms: C_13  and  C_21
    5  A    between atoms: C_13  and  C_25
    6  A    between atoms: C_13  and  O_34
    7  A    between atoms: C_16  and  N_26
    8  A    between atoms: N_26  and  O_34
    9  A    between atoms: C_28  and  C_30
                            x       y       z     vdW  Elec       q    Type
                         _______ _______ _______ _____ _____    ______ ____

>  <TORSDO>
F 9

$$$$
=
 OpenBabel11032420103D

 36 39  0  0  1  0  0  0  0  0999 V2000
  186.9180  178.1210  141.7320 C   0  0  0  0  0  0  0  0  0  0  0  0
  188.2770  177.8830  141.5200 C   0  0  0  0  0  3  0  0  0  0  0  0
  190.5450  177.2730  142.3910 C   0  0  0  0  0  0  0  0  0  0  0  0
  190.9020  176.7960  144.7240 C   0  0  0  0  0  0  0  0  0  0  0  0
  190.3690  176.3990  147.5970 O   0  0  0  0  0  0  0  0  0  0  0  0
  184.7680  179.5630  144.0460 C   0  0  0  0  0  1  0  0  0  0  0  0
  184.0670  178.2520  142.0390 C   0  0  0  0  0  2  0  0  0  0  0  0
  188.5700  177.3590  143.8710 C   0  0  0  0  0  0  0  0  0  0  0  0
  187.2070  177.5820  144.0820 C   0  0  0  0  0  3  0  0  0  0  0  0
  184.7340  179.0970  140.9530 C   0  0  1  0  0  3  0  0  0  0  0  0
  191.8340  176.4660  145.7630 N   0  0  0  0  0  2  0  0  0  0  0  0
  191.0850  177.3930  141.2230 N   0  0  0  0  0  2  0  0  0  0  0  0
  186.0490  178.4300  140.5470 C   0  0  0  0  0  2  0  0  0  0  0  0
  184.9180  178.2420  143.3100 C   0  0  1  0  0  3  0  0  0  0  0  0
  186.3720  177.9600  143.0250 C   0  0  0  0  0  0  0  0  0  0  0  0
  191.3610  176.9420  143.5150 N   0  0  0  0  0  0  0  0  0  0  0  0
  189.1080  177.5110  142.5850 C   0  0  0  0  0  0  0  0  0  0  0  0
  191.5400  176.2700  147.1520 C   0  0  0  0  0  0  0  0  0  0  0  0
  189.4260  176.9420  145.0340 C   0  0  0  0  0  2  0  0  0  0  0  0
  192.7430  177.0120  149.1620 C   0  0  0  0  0  1  0  0  0  0  0  0
  192.6460  175.9450  148.0910 C   0  0  0  0  0  2  0  0  0  0  0  0
  183.8100  179.2560  139.7430 C   0  0  2  0  0  3  0  0  0  0  0  0
  182.7600  176.7160  139.1330 S   0  0  0  0  0  0  0  0  0  0  0  0
  184.6120  177.7640  137.8030 C   0  0  0  0  0  3  0  0  0  0  0  0
  184.3820  176.5610  137.2120 N   0  0  0  0  0  0  0  0  0  0  0  0
  183.7950  178.0200  138.9010 C   0  0  0  0  0  0  0  0  0  0  0  0
  183.3970  175.8730  137.8280 C   0  0  0  0  0  0  0  0  0  0  0  0
  182.6030  173.5270  137.0610 N   0  0  0  0  0  0  0  0  0  0  0  0
  182.9570  174.5750  137.4040 C   0  0  0  0  0  0  0  0  0  0  0  0
  184.2140  180.3420  138.9590 O   0  0  0  0  0  0  0  0  0  0  0  0
  183.1880  181.2240  139.0410 N   0  0  0  0  0  2  0  0  0  0  0  0
  182.0550  180.6260  138.3550 C   0  0  0  0  0  2  0  0  0  0  0  0
  181.1580  181.7130  137.7920 C   0  0  0  0  0  2  0  0  0  0  0  0
  180.8840  180.1530  136.0160 O   0  0  0  0  0  1  0  0  0  0  0  0
  180.6610  181.3130  136.4500 C   0  0  0  0  0  0  0  0  0  0  0  0
  179.9770  182.2280  135.6610 O   0  0  0  0  0  0  0  0  0  0  0  0
  1 15  1  0  0  0  0
  2  1  2  0  0  0  0
  2 17  1  0  0  0  0
  3 17  1  0  0  0  0
  3 16  1  0  0  0  0
  4 19  1  0  0  0  0
  4 11  1  0  0  0  0
  7 14  1  0  0  0  0
  8  9  1  0  0  0  0
  8 19  1  0  0  0  0
 10 22  1  6  0  0  0
 10  7  1  0  0  0  0
 11 18  1  0  0  0  0
 12  3  2  0  0  0  0
 13 10  1  0  0  0  0
 13  1  1  0  0  0  0
 14  6  1  6  0  0  0
 15 14  1  0  0  0  0
 15  9  2  0  0  0  0
 16  4  2  0  0  0  0
 17  8  2  0  0  0  0
 18  5  2  0  0  0  0
 18 21  1  0  0  0  0
 21 20  1  0  0  0  0
 22 30  1  6  0  0  0
 24 26  2  0  0  0  0
 25 24  1  0  0  0  0
 25 27  2  0  0  0  0
 26 23  1  0  0  0  0
 26 22  1  0  0  0  0
 27 23  1  0  0  0  0
 28 29  3  0  0  0  0
 29 27  1  0  0  0  0
 30 31  1  0  0  0  0
 32 31  1  0  0  0  0
 33 32  1  0  0  0  0
 34 35  1  0  0  0  0
 35 33  1  0  0  0  0
 36 35  2  0  0  0  0
M  END
>  <MODEL>
2

>  <REMARK>
 VINA RESULT:      -7.7      2.101      2.465
  Name = 
  9 active torsions:
  status: ('A' for Active; 'I' for Inactive)
    1  A    between atoms: C_3  and  C_35
    2  A    between atoms: C_4  and  C_11
    3  A    between atoms: C_4  and  C_16
    4  A    between atoms: C_13  and  C_21
    5  A    between atoms: C_13  and  C_25
    6  A    between atoms: C_13  and  O_34
    7  A    between atoms: C_16  and  N_26
    8  A    between atoms: N_26  and  O_34
    9  A    between atoms: C_28  and  C_30
                            x       y       z     vdW  Elec       q    Type
                         _______ _______ _______ _____ _____    ______ ____

>  <TORSDO>
F 9

$$$$
=
 OpenBabel11032420103D

 36 39  0  0  1  0  0  0  0  0999 V2000
  184.5720  178.6510  140.9680 C   0  0  0  0  0  0  0  0  0  0  0  0
  185.9530  178.6300  140.7620 C   0  0  0  0  0  3  0  0  0  0  0  0
  188.2810  178.3210  141.6320 C   0  0  0  0  0  0  0  0  0  0  0  0
  188.6910  177.7810  143.9430 C   0  0  0  0  0  0  0  0  0  0  0  0
  188.2060  177.1580  146.7850 O   0  0  0  0  0  0  0  0  0  0  0  0
  182.2160  179.6310  143.3220 C   0  0  0  0  0  1  0  0  0  0  0  0
  181.7320  178.3370  141.2410 C   0  0  0  0  0  2  0  0  0  0  0  0
  186.3060  178.0330  143.0870 C   0  0  0  0  0  0  0  0  0  0  0  0
  184.9240  178.0380  143.2910 C   0  0  0  0  0  3  0  0  0  0  0  0
  182.2710  179.3280  140.2090 C   0  0  1  0  0  3  0  0  0  0  0  0
  189.6560  177.5400  144.9770 N   0  0  0  0  0  2  0  0  0  0  0  0
  188.8040  178.5820  140.4800 N   0  0  0  0  0  2  0  0  0  0  0  0
  183.6740  178.8870  139.7870 C   0  0  0  0  0  2  0  0  0  0  0  0
  182.5670  178.3870  142.5210 C   0  0  1  0  0  3  0  0  0  0  0  0
  184.0480  178.3410  142.2430 C   0  0  0  0  0  0  0  0  0  0  0  0
  189.1310  178.0570  142.7500 N   0  0  0  0  0  0  0  0  0  0  0  0
  186.8230  178.3310  141.8180 C   0  0  0  0  0  0  0  0  0  0  0  0
  189.3860  177.2300  146.3500 C   0  0  0  0  0  0  0  0  0  0  0  0
  187.2080  177.6870  144.2390 C   0  0  0  0  0  2  0  0  0  0  0  0
  191.6810  176.3750  146.5540 C   0  0  0  0  0  1  0  0  0  0  0  0
  190.5230  177.0240  147.2860 C   0  0  0  0  0  2  0  0  0  0  0  0
  181.3410  179.4100  138.9950 C   0  0  2  0  0  3  0  0  0  0  0  0
  180.8550  181.9090  137.7920 S   0  0  0  0  0  0  0  0  0  0  0  0
  179.6290  181.1370  139.8410 C   0  0  0  0  0  3  0  0  0  0  0  0
  179.1250  182.3700  139.5650 N   0  0  0  0  0  0  0  0  0  0  0  0
  180.6140  180.7160  138.9520 C   0  0  0  0  0  0  0  0  0  0  0  0
  179.6990  182.9180  138.4720 C   0  0  0  0  0  0  0  0  0  0  0  0
  179.0660  185.2590  137.5540 N   0  0  0  0  0  0  0  0  0  0  0  0
  179.3490  184.2140  137.9640 C   0  0  0  0  0  0  0  0  0  0  0  0
  180.4120  178.3650  139.0200 O   0  0  0  0  0  0  0  0  0  0  0  0
  180.7580  177.5730  137.9750 N   0  0  0  0  0  2  0  0  0  0  0  0
  180.5990  176.1960  138.4120 C   0  0  0  0  0  2  0  0  0  0  0  0
  181.9190  175.6660  138.9400 C   0  0  0  0  0  2  0  0  0  0  0  0
  181.9370  174.0820  137.1640 O   0  0  0  0  0  0  0  0  0  0  0  0
  182.6010  174.8690  137.8870 C   0  0  0  0  0  0  0  0  0  0  0  0
  183.9760  174.9690  137.7210 O   0  0  0  0  0  1  0  0  0  0  0  0
  1 15  1  0  0  0  0
  2  1  2  0  0  0  0
  2 17  1  0  0  0  0
  3 17  1  0  0  0  0
  3 16  1  0  0  0  0
  4 19  1  0  0  0  0
  4 11  1  0  0  0  0
  7 14  1  0  0  0  0
  8  9  1  0  0  0  0
  8 19  1  0  0  0  0
 10 22  1  6  0  0  0
 10  7  1  0  0  0  0
 11 18  1  0  0  0  0
 12  3  2  0  0  0  0
 13 10  1  0  0  0  0
 13  1  1  0  0  0  0
 14  6  1  6  0  0  0
 15 14  1  0  0  0  0
 15  9  2  0  0  0  0
 16  4  2  0  0  0  0
 17  8  2  0  0  0  0
 18  5  2  0  0  0  0
 18 21  1  0  0  0  0
 20 21  1  0  0  0  0
 22 30  1  1  0  0  0
 23 27  1  0  0  0  0
 23 26  1  0  0  0  0
 25 24  1  0  0  0  0
 26 22  1  0  0  0  0
 26 24  2  0  0  0  0
 27 25  2  0  0  0  0
 28 29  3  0  0  0  0
 29 27  1  0  0  0  0
 31 32  1  0  0  0  0
 31 30  1  0  0  0  0
 32 33  1  0  0  0  0
 34 35  2  0  0  0  0
 35 33  1  0  0  0  0
 36 35  1  0  0  0  0
M  END
>  <MODEL>
3

>  <REMARK>
 VINA RESULT:      -7.5      2.361      4.685
  Name = 
  9 active torsions:
  status: ('A' for Active; 'I' for Inactive)
    1  A    between atoms: C_3  and  C_35
    2  A    between atoms: C_4  and  C_11
    3  A    between atoms: C_4  and  C_16
    4  A    between atoms: C_13  and  C_21
    5  A    between atoms: C_13  and  C_25
    6  A    between atoms: C_13  and  O_34
    7  A    between atoms: C_16  and  N_26
    8  A    between atoms: N_26  and  O_34
    9  A    between atoms: C_28  and  C_30
                            x       y       z     vdW  Elec       q    Type
                         _______ _______ _______ _____ _____    ______ ____

>  <TORSDO>
F 9

$$$$
=
 OpenBabel11032420103D

 36 39  0  0  1  0  0  0  0  0999 V2000
  187.8900  177.6150  141.7070 C   0  0  0  0  0  0  0  0  0  0  0  0
  187.8080  177.7410  140.3180 C   0  0  0  0  0  3  0  0  0  0  0  0
  188.8520  177.5640  138.0490 C   0  0  0  0  0  0  0  0  0  0  0  0
  191.1330  176.8420  137.7730 C   0  0  0  0  0  0  0  0  0  0  0  0
  193.8530  175.9040  138.4210 O   0  0  0  0  0  0  0  0  0  0  0  0
  190.1020  178.1430  144.3300 C   0  0  0  0  0  1  0  0  0  0  0  0
  187.8800  177.0170  144.5140 C   0  0  0  0  0  2  0  0  0  0  0  0
  190.0930  176.9570  140.0950 C   0  0  0  0  0  0  0  0  0  0  0  0
  190.1720  176.8150  141.4820 C   0  0  0  0  0  3  0  0  0  0  0  0
  186.9930  178.1490  143.9950 C   0  0  1  0  0  3  0  0  0  0  0  0
  192.2230  176.5910  136.8760 N   0  0  0  0  0  2  0  0  0  0  0  0
  187.7790  177.9820  137.4630 N   0  0  0  0  0  2  0  0  0  0  0  0
  186.6600  177.8820  142.5260 C   0  0  0  0  0  2  0  0  0  0  0  0
  189.2290  177.0200  143.7940 C   0  0  1  0  0  3  0  0  0  0  0  0
  189.0810  177.1370  142.2980 C   0  0  0  0  0  0  0  0  0  0  0  0
  190.0130  177.2720  137.2690 N   0  0  0  0  0  0  0  0  0  0  0  0
  188.9070  177.4220  139.5100 C   0  0  0  0  0  0  0  0  0  0  0  0
  193.5340  176.1260  137.2230 C   0  0  0  0  0  0  0  0  0  0  0  0
  191.2860  176.5850  139.2590 C   0  0  0  0  0  2  0  0  0  0  0  0
  195.3360  174.6680  136.4080 C   0  0  0  0  0  1  0  0  0  0  0  0
  194.5450  175.9360  136.1510 C   0  0  0  0  0  2  0  0  0  0  0  0
  185.7130  178.2630  144.8270 C   0  0  2  0  0  3  0  0  0  0  0  0
  183.0160  179.0100  144.5160 S   0  0  0  0  0  0  0  0  0  0  0  0
  184.4590  178.3300  142.5800 C   0  0  0  0  0  3  0  0  0  0  0  0
  183.2440  178.6150  142.0390 N   0  0  0  0  0  0  0  0  0  0  0  0
  184.5160  178.4930  143.9610 C   0  0  0  0  0  0  0  0  0  0  0  0
  182.3510  179.0010  142.9740 C   0  0  0  0  0  0  0  0  0  0  0  0
  179.9010  179.6490  142.4260 N   0  0  0  0  0  0  0  0  0  0  0  0
  180.9950  179.3600  142.6710 C   0  0  0  0  0  0  0  0  0  0  0  0
  185.8220  179.3090  145.7490 O   0  0  0  0  0  0  0  0  0  0  0  0
  185.6390  178.7220  146.9580 N   0  0  0  0  0  2  0  0  0  0  0  0
  186.8900  178.8450  147.6860 C   0  0  0  0  0  2  0  0  0  0  0  0
  187.4690  177.4670  147.9550 C   0  0  0  0  0  2  0  0  0  0  0  0
  189.4830  178.4980  148.6930 O   0  0  0  0  0  1  0  0  0  0  0  0
  188.9500  177.5530  148.0570 C   0  0  0  0  0  0  0  0  0  0  0  0
  189.7450  176.6070  147.4250 O   0  0  0  0  0  0  0  0  0  0  0  0
  1 15  1  0  0  0  0
  1 13  1  0  0  0  0
  2  1  2  0  0  0  0
  3 17  1  0  0  0  0
  4 19  1  0  0  0  0
  8  9  1  0  0  0  0
  9 15  2  0  0  0  0
 10  7  1  0  0  0  0
 10 22  1  1  0  0  0
 11 18  1  0  0  0  0
 11  4  1  0  0  0  0
 12  3  2  0  0  0  0
 13 10  1  0  0  0  0
 14  6  1  1  0  0  0
 14  7  1  0  0  0  0
 15 14  1  0  0  0  0
 16  4  2  0  0  0  0
 16  3  1  0  0  0  0
 17  8  2  0  0  0  0
 17  2  1  0  0  0  0
 18  5  2  0  0  0  0
 19  8  1  0  0  0  0
 21 20  1  0  0  0  0
 21 18  1  0  0  0  0
 22 30  1  1  0  0  0
 24 26  2  0  0  0  0
 25 24  1  0  0  0  0
 25 27  2  0  0  0  0
 26 23  1  0  0  0  0
 26 22  1  0  0  0  0
 27 23  1  0  0  0  0
 28 29  3  0  0  0  0
 29 27  1  0  0  0  0
 30 31  1  0  0  0  0
 31 32  1  0  0  0  0
 32 33  1  0  0  0  0
 33 35  1  0  0  0  0
 35 34  1  0  0  0  0
 36 35  2  0  0  0  0
M  END
>  <MODEL>
4

>  <REMARK>
 VINA RESULT:      -7.4      4.596      8.132
  Name = 
  9 active torsions:
  status: ('A' for Active; 'I' for Inactive)
    1  A    between atoms: C_3  and  C_35
    2  A    between atoms: C_4  and  C_11
    3  A    between atoms: C_4  and  C_16
    4  A    between atoms: C_13  and  C_21
    5  A    between atoms: C_13  and  C_25
    6  A    between atoms: C_13  and  O_34
    7  A    between atoms: C_16  and  N_26
    8  A    between atoms: N_26  and  O_34
    9  A    between atoms: C_28  and  C_30
                            x       y       z     vdW  Elec       q    Type
                         _______ _______ _______ _____ _____    ______ ____

>  <TORSDO>
F 9

$$$$
=
 OpenBabel11032420103D

 36 39  0  0  1  0  0  0  0  0999 V2000
  191.3000  176.7660  139.2620 C   0  0  0  0  0  0  0  0  0  0  0  0
  191.5140  176.9960  140.6230 C   0  0  0  0  0  3  0  0  0  0  0  0
  190.6370  177.5250  142.9080 C   0  0  0  0  0  0  0  0  0  0  0  0
  188.2850  177.8690  143.2970 C   0  0  0  0  0  0  0  0  0  0  0  0
  185.3870  178.1030  142.8020 O   0  0  0  0  0  0  0  0  0  0  0  0
  189.3500  177.8890  136.6180 C   0  0  0  0  0  1  0  0  0  0  0  0
  190.8830  175.9180  136.5520 C   0  0  0  0  0  2  0  0  0  0  0  0
  189.1300  177.2790  140.9680 C   0  0  0  0  0  0  0  0  0  0  0  0
  188.9110  177.0340  139.6100 C   0  0  0  0  0  3  0  0  0  0  0  0
  192.1930  176.6180  136.9150 C   0  0  1  0  0  3  0  0  0  0  0  0
  187.2490  178.2010  144.2310 N   0  0  0  0  0  2  0  0  0  0  0  0
  191.8210  177.5120  143.4240 N   0  0  0  0  0  2  0  0  0  0  0  0
  192.4740  176.3980  138.4020 C   0  0  0  0  0  2  0  0  0  0  0  0
  189.7060  176.5680  137.2810 C   0  0  1  0  0  3  0  0  0  0  0  0
  189.9830  176.7740  138.7490 C   0  0  0  0  0  0  0  0  0  0  0  0
  189.5110  177.8380  143.7310 N   0  0  0  0  0  0  0  0  0  0  0  0
  190.4360  177.2620  141.4760 C   0  0  0  0  0  0  0  0  0  0  0  0
  185.8450  178.2980  143.9590 C   0  0  0  0  0  0  0  0  0  0  0  0
  187.9460  177.5400  141.8570 C   0  0  0  0  0  2  0  0  0  0  0  0
  183.4900  178.6930  144.5420 C   0  0  0  0  0  1  0  0  0  0  0  0
  184.9160  178.6710  145.0580 C   0  0  0  0  0  2  0  0  0  0  0  0
  193.3480  176.0900  136.0610 C   0  0  2  0  0  3  0  0  0  0  0  0
  192.9340  173.3600  135.5130 S   0  0  0  0  0  0  0  0  0  0  0  0
  194.4870  174.1520  137.3160 C   0  0  0  0  0  3  0  0  0  0  0  0
  194.5560  172.7940  137.3550 N   0  0  0  0  0  0  0  0  0  0  0  0
  193.6220  174.6480  136.3440 C   0  0  0  0  0  0  0  0  0  0  0  0
  193.7610  172.2200  136.4280 C   0  0  0  0  0  0  0  0  0  0  0  0
  193.5550  169.6540  136.1180 N   0  0  0  0  0  0  0  0  0  0  0  0
  193.6470  170.8000  136.2560 C   0  0  0  0  0  0  0  0  0  0  0  0
  194.5090  176.8350  136.2940 O   0  0  0  0  0  0  0  0  0  0  0  0
  194.8360  177.3490  135.0830 N   0  0  0  0  0  2  0  0  0  0  0  0
  196.2860  177.3210  134.9850 C   0  0  0  0  0  2  0  0  0  0  0  0
  196.7610  175.8990  134.7480 C   0  0  0  0  0  2  0  0  0  0  0  0
  198.9850  175.2140  135.2480 O   0  0  0  0  0  0  0  0  0  0  0  0
  197.8630  175.5710  135.6910 C   0  0  0  0  0  0  0  0  0  0  0  0
  197.6440  175.6270  137.0610 O   0  0  0  0  0  1  0  0  0  0  0  0
  1  2  1  0  0  0  0
  2 17  2  0  0  0  0
  3 12  2  0  0  0  0
  3 16  1  0  0  0  0
  4 16  2  0  0  0  0
  4 11  1  0  0  0  0
  5 18  2  0  0  0  0
  7 10  1  0  0  0  0
  7 14  1  0  0  0  0
  8 17  1  0  0  0  0
  8 19  1  0  0  0  0
  9  8  2  0  0  0  0
 10 22  1  6  0  0  0
 10 13  1  0  0  0  0
 13  1  1  0  0  0  0
 14  6  1  6  0  0  0
 14 15  1  0  0  0  0
 15  1  2  0  0  0  0
 15  9  1  0  0  0  0
 17  3  1  0  0  0  0
 18 11  1  0  0  0  0
 18 21  1  0  0  0  0
 19  4  1  0  0  0  0
 20 21  1  0  0  0  0
 22 30  1  1  0  0  0
 22 26  1  0  0  0  0
 23 26  1  0  0  0  0
 23 27  1  0  0  0  0
 24 25  1  0  0  0  0
 26 24  2  0  0  0  0
 27 25  2  0  0  0  0
 28 29  3  0  0  0  0
 29 27  1  0  0  0  0
 31 30  1  0  0  0  0
 32 31  1  0  0  0  0
 33 32  1  0  0  0  0
 33 35  1  0  0  0  0
 34 35  2  0  0  0  0
 35 36  1  0  0  0  0
M  END
>  <MODEL>
5

>  <REMARK>
 VINA RESULT:      -7.0      7.386     11.154
  Name = 
  9 active torsions:
  status: ('A' for Active; 'I' for Inactive)
    1  A    between atoms: C_3  and  C_35
    2  A    between atoms: C_4  and  C_11
    3  A    between atoms: C_4  and  C_16
    4  A    between atoms: C_13  and  C_21
    5  A    between atoms: C_13  and  C_25
    6  A    between atoms: C_13  and  O_34
    7  A    between atoms: C_16  and  N_26
    8  A    between atoms: N_26  and  O_34
    9  A    between atoms: C_28  and  C_30
                            x       y       z     vdW  Elec       q    Type
                         _______ _______ _______ _____ _____    ______ ____

>  <TORSDO>
F 9

$$$$
=
 OpenBabel11032420103D

 36 39  0  0  1  0  0  0  0  0999 V2000
  184.0750  178.8280  141.8230 C   0  0  0  0  0  0  0  0  0  0  0  0
  184.2050  178.6240  143.1980 C   0  0  0  0  0  3  0  0  0  0  0  0
  185.6150  178.0980  145.2000 C   0  0  0  0  0  0  0  0  0  0  0  0
  187.9780  177.6790  144.9900 C   0  0  0  0  0  0  0  0  0  0  0  0
  190.6490  177.3400  143.7860 O   0  0  0  0  0  0  0  0  0  0  0  0
  185.2590  177.6020  138.7980 C   0  0  0  0  0  1  0  0  0  0  0  0
  183.8180  179.6240  139.0770 C   0  0  0  0  0  2  0  0  0  0  0  0
  186.5900  178.2650  142.9370 C   0  0  0  0  0  0  0  0  0  0  0  0
  186.4650  178.4840  141.5630 C   0  0  0  0  0  3  0  0  0  0  0  0
  182.6230  178.9740  139.7740 C   0  0  1  0  0  3  0  0  0  0  0  0
  189.2070  177.3250  145.6400 N   0  0  0  0  0  2  0  0  0  0  0  0
  184.6010  178.1590  145.9980 N   0  0  0  0  0  2  0  0  0  0  0  0
  182.7330  179.2240  141.2790 C   0  0  0  0  0  2  0  0  0  0  0  0
  185.1210  178.9440  139.5000 C   0  0  1  0  0  3  0  0  0  0  0  0
  185.2180  178.7680  140.9940 C   0  0  0  0  0  0  0  0  0  0  0  0
  186.9030  177.7590  145.7190 N   0  0  0  0  0  0  0  0  0  0  0  0
  185.4560  178.3340  143.7580 C   0  0  0  0  0  0  0  0  0  0  0  0
  190.4930  177.1770  145.0250 C   0  0  0  0  0  0  0  0  0  0  0  0
  187.9520  177.9770  143.5040 C   0  0  0  0  0  2  0  0  0  0  0  0
  191.1850  176.3660  147.2390 C   0  0  0  0  0  1  0  0  0  0  0  0
  191.6580  176.7880  145.8620 C   0  0  0  0  0  2  0  0  0  0  0  0
  181.3050  179.5290  139.2270 C   0  0  2  0  0  3  0  0  0  0  0  0
  180.8210  177.9740  136.9310 S   0  0  0  0  0  0  0  0  0  0  0  0
  179.4580  177.7470  139.0250 C   0  0  0  0  0  3  0  0  0  0  0  0
  178.9320  176.8430  138.1560 N   0  0  0  0  0  0  0  0  0  0  0  0
  180.5250  178.4760  138.5080 C   0  0  0  0  0  0  0  0  0  0  0  0
  179.5730  176.8510  136.9680 C   0  0  0  0  0  0  0  0  0  0  0  0
  178.9310  175.3020  134.9900 N   0  0  0  0  0  0  0  0  0  0  0  0
  179.2170  175.9930  135.8740 C   0  0  0  0  0  0  0  0  0  0  0  0
  181.5490  180.5970  138.3580 O   0  0  0  0  0  0  0  0  0  0  0  0
  180.8170  181.6230  138.8600 N   0  0  0  0  0  2  0  0  0  0  0  0
  181.1610  182.8080  138.0940 C   0  0  0  0  0  2  0  0  0  0  0  0
  180.5190  182.7410  136.7200 C   0  0  0  0  0  2  0  0  0  0  0  0
  181.5250  184.8840  136.4810 O   0  0  0  0  0  1  0  0  0  0  0  0
  180.8580  183.9630  135.9440 C   0  0  0  0  0  0  0  0  0  0  0  0
  180.4120  184.1010  134.6370 O   0  0  0  0  0  0  0  0  0  0  0  0
  1  2  1  0  0  0  0
  2 17  2  0  0  0  0
  3 16  1  0  0  0  0
  3 12  2  0  0  0  0
  4 11  1  0  0  0  0
  4 16  2  0  0  0  0
  5 18  2  0  0  0  0
  7 14  1  0  0  0  0
  7 10  1  0  0  0  0
  8 19  1  0  0  0  0
  8 17  1  0  0  0  0
  9  8  2  0  0  0  0
 10 22  1  6  0  0  0
 10 13  1  0  0  0  0
 13  1  1  0  0  0  0
 14  6  1  6  0  0  0
 14 15  1  0  0  0  0
 15  9  1  0  0  0  0
 15  1  2  0  0  0  0
 17  3  1  0  0  0  0
 18 11  1  0  0  0  0
 18 21  1  0  0  0  0
 19  4  1  0  0  0  0
 21 20  1  0  0  0  0
 22 30  1  6  0  0  0
 23 27  1  0  0  0  0
 23 26  1  0  0  0  0
 25 24  1  0  0  0  0
 26 24  2  0  0  0  0
 26 22  1  0  0  0  0
 27 25  2  0  0  0  0
 28 29  3  0  0  0  0
 29 27  1  0  0  0  0
 30 31  1  0  0  0  0
 32 31  1  0  0  0  0
 33 32  1  0  0  0  0
 35 34  1  0  0  0  0
 35 33  1  0  0  0  0
 36 35  2  0  0  0  0
M  END
>  <MODEL>
6

>  <REMARK>
 VINA RESULT:      -7.0      2.046      2.807
  Name = 
  9 active torsions:
  status: ('A' for Active; 'I' for Inactive)
    1  A    between atoms: C_3  and  C_35
    2  A    between atoms: C_4  and  C_11
    3  A    between atoms: C_4  and  C_16
    4  A    between atoms: C_13  and  C_21
    5  A    between atoms: C_13  and  C_25
    6  A    between atoms: C_13  and  O_34
    7  A    between atoms: C_16  and  N_26
    8  A    between atoms: N_26  and  O_34
    9  A    between atoms: C_28  and  C_30
                            x       y       z     vdW  Elec       q    Type
                         _______ _______ _______ _____ _____    ______ ____

>  <TORSDO>
F 9

$$$$
=
 OpenBabel11032420103D

 36 39  0  0  1  0  0  0  0  0999 V2000
  187.4220  177.9610  141.7590 C   0  0  0  0  0  0  0  0  0  0  0  0
  188.8070  177.8130  141.6510 C   0  0  0  0  0  3  0  0  0  0  0  0
  191.0300  177.2970  142.6840 C   0  0  0  0  0  0  0  0  0  0  0  0
  191.2250  176.7310  145.0170 C   0  0  0  0  0  0  0  0  0  0  0  0
  190.4850  176.1660  147.8150 O   0  0  0  0  0  0  0  0  0  0  0  0
  185.0050  179.1620  143.9430 C   0  0  0  0  0  1  0  0  0  0  0  0
  184.5530  177.9090  141.8290 C   0  0  0  0  0  2  0  0  0  0  0  0
  188.9390  177.1960  143.9940 C   0  0  0  0  0  0  0  0  0  0  0  0
  187.5530  177.3280  144.1000 C   0  0  0  0  0  3  0  0  0  0  0  0
  185.2520  178.8420  140.8410 C   0  0  1  0  0  3  0  0  0  0  0  0
  192.0880  176.4070  146.1150 N   0  0  0  0  0  2  0  0  0  0  0  0
  191.6540  177.5040  141.5720 N   0  0  0  0  0  2  0  0  0  0  0  0
  186.6350  178.2740  140.5190 C   0  0  0  0  0  2  0  0  0  0  0  0
  185.2970  177.8880  143.1660 C   0  0  1  0  0  3  0  0  0  0  0  0
  186.7840  177.7060  142.9930 C   0  0  0  0  0  0  0  0  0  0  0  0
  191.7710  176.9610  143.8580 N   0  0  0  0  0  0  0  0  0  0  0  0
  189.5700  177.4410  142.7660 C   0  0  0  0  0  0  0  0  0  0  0  0
  191.6940  176.1280  147.4650 C   0  0  0  0  0  0  0  0  0  0  0  0
  189.7220  176.7740  145.2060 C   0  0  0  0  0  2  0  0  0  0  0  0
  193.0770  177.0770  149.2620 C   0  0  0  0  0  1  0  0  0  0  0  0
  192.7380  175.8240  148.4790 C   0  0  0  0  0  2  0  0  0  0  0  0
  184.4230  179.0040  139.5650 C   0  0  2  0  0  3  0  0  0  0  0  0
  182.4590  177.0020  139.3130 S   0  0  0  0  0  0  0  0  0  0  0  0
  181.9800  179.2390  140.3440 C   0  0  0  0  0  3  0  0  0  0  0  0
  180.8040  178.5570  140.4030 N   0  0  0  0  0  0  0  0  0  0  0  0
  183.0210  178.5220  139.7600 C   0  0  0  0  0  0  0  0  0  0  0  0
  180.9100  177.3180  139.8780 C   0  0  0  0  0  0  0  0  0  0  0  0
  178.9340  175.6430  139.7660 N   0  0  0  0  0  0  0  0  0  0  0  0
  179.8160  176.3910  139.8160 C   0  0  0  0  0  0  0  0  0  0  0  0
  185.0090  178.3000  138.5080 O   0  0  0  0  0  0  0  0  0  0  0  0
  185.6670  179.2440  137.7900 N   0  0  0  0  0  2  0  0  0  0  0  0
  186.6950  178.5590  137.0250 C   0  0  0  0  0  2  0  0  0  0  0  0
  186.2310  177.1560  136.6760 C   0  0  0  0  0  2  0  0  0  0  0  0
  188.3240  176.5350  137.6210 O   0  0  0  0  0  1  0  0  0  0  0  0
  187.2010  176.1590  137.1980 C   0  0  0  0  0  0  0  0  0  0  0  0
  186.8810  174.8080  137.1890 O   0  0  0  0  0  0  0  0  0  0  0  0
  1 15  1  0  0  0  0
  2  1  2  0  0  0  0
  2 17  1  0  0  0  0
  3 17  1  0  0  0  0
  3 16  1  0  0  0  0
  4 19  1  0  0  0  0
  4 11  1  0  0  0  0
  7 14  1  0  0  0  0
  8  9  1  0  0  0  0
  8 19  1  0  0  0  0
 10 22  1  6  0  0  0
 10  7  1  0  0  0  0
 11 18  1  0  0  0  0
 12  3  2  0  0  0  0
 13 10  1  0  0  0  0
 13  1  1  0  0  0  0
 14  6  1  6  0  0  0
 15 14  1  0  0  0  0
 15  9  2  0  0  0  0
 16  4  2  0  0  0  0
 17  8  2  0  0  0  0
 18  5  2  0  0  0  0
 18 21  1  0  0  0  0
 21 20  1  0  0  0  0
 22 30  1  6  0  0  0
 22 26  1  0  0  0  0
 23 26  1  0  0  0  0
 23 27  1  0  0  0  0
 24 25  1  0  0  0  0
 26 24  2  0  0  0  0
 27 25  2  0  0  0  0
 28 29  3  0  0  0  0
 29 27  1  0  0  0  0
 31 30  1  0  0  0  0
 32 31  1  0  0  0  0
 33 32  1  0  0  0  0
 33 35  1  0  0  0  0
 35 34  1  0  0  0  0
 36 35  2  0  0  0  0
M  END
>  <MODEL>
7

>  <REMARK>
 VINA RESULT:      -6.9      2.620      4.016
  Name = 
  9 active torsions:
  status: ('A' for Active; 'I' for Inactive)
    1  A    between atoms: C_3  and  C_35
    2  A    between atoms: C_4  and  C_11
    3  A    between atoms: C_4  and  C_16
    4  A    between atoms: C_13  and  C_21
    5  A    between atoms: C_13  and  C_25
    6  A    between atoms: C_13  and  O_34
    7  A    between atoms: C_16  and  N_26
    8  A    between atoms: N_26  and  O_34
    9  A    between atoms: C_28  and  C_30
                            x       y       z     vdW  Elec       q    Type
                         _______ _______ _______ _____ _____    ______ ____

>  <TORSDO>
F 9

$$$$
=
 OpenBabel11032420103D

 36 39  0  0  1  0  0  0  0  0999 V2000
  187.4570  177.6390  143.2270 C   0  0  0  0  0  0  0  0  0  0  0  0
  186.5830  177.9020  144.2840 C   0  0  0  0  0  3  0  0  0  0  0  0
  184.3270  178.5940  145.1240 C   0  0  0  0  0  0  0  0  0  0  0  0
  182.5450  179.1570  143.6050 C   0  0  0  0  0  0  0  0  0  0  0  0
  181.0720  179.6250  141.0930 O   0  0  0  0  0  0  0  0  0  0  0  0
  188.3050  178.8240  140.0760 C   0  0  0  0  0  1  0  0  0  0  0  0
  189.1730  176.7250  141.1150 C   0  0  0  0  0  2  0  0  0  0  0  0
  184.8070  178.4060  142.7090 C   0  0  0  0  0  0  0  0  0  0  0  0
  185.6760  178.1280  141.6510 C   0  0  0  0  0  3  0  0  0  0  0  0
  189.8030  177.3220  142.3740 C   0  0  1  0  0  3  0  0  0  0  0  0
  181.1960  179.6150  143.4390 N   0  0  0  0  0  2  0  0  0  0  0  0
  184.6980  178.4980  146.3580 N   0  0  0  0  0  2  0  0  0  0  0  0
  188.8360  177.1360  143.5450 C   0  0  0  0  0  2  0  0  0  0  0  0
  187.9170  177.5040  140.7220 C   0  0  1  0  0  3  0  0  0  0  0  0
  186.9990  177.7420  141.8950 C   0  0  0  0  0  0  0  0  0  0  0  0
  183.0030  179.0360  144.8170 N   0  0  0  0  0  0  0  0  0  0  0  0
  185.2620  178.2940  144.0300 C   0  0  0  0  0  0  0  0  0  0  0  0
  180.5050  179.8240  142.2000 C   0  0  0  0  0  0  0  0  0  0  0  0
  183.3910  178.8030  142.3980 C   0  0  0  0  0  2  0  0  0  0  0  0
  178.9330  181.4320  141.2090 C   0  0  0  0  0  1  0  0  0  0  0  0
  179.1040  180.3190  142.2240 C   0  0  0  0  0  2  0  0  0  0  0  0
  191.1510  176.6610  142.6750 C   0  0  2  0  0  3  0  0  0  0  0  0
  191.9850  175.3290  145.0100 S   0  0  0  0  0  0  0  0  0  0  0  0
  191.3340  177.7520  145.0000 C   0  0  0  0  0  3  0  0  0  0  0  0
  191.6730  177.4770  146.2880 N   0  0  0  0  0  0  0  0  0  0  0  0
  191.4450  176.6620  144.1410 C   0  0  0  0  0  0  0  0  0  0  0  0
  192.0510  176.1910  146.4490 C   0  0  0  0  0  0  0  0  0  0  0  0
  192.7870  175.1960  148.7280 N   0  0  0  0  0  0  0  0  0  0  0  0
  192.4580  175.6410  147.7100 C   0  0  0  0  0  0  0  0  0  0  0  0
  192.1800  177.3230  141.9970 O   0  0  0  0  0  0  0  0  0  0  0  0
  191.6230  177.7160  140.8250 N   0  0  0  0  0  2  0  0  0  0  0  0
  192.6090  177.4800  139.7840 C   0  0  0  0  0  2  0  0  0  0  0  0
  192.0730  176.4710  138.7840 C   0  0  0  0  0  2  0  0  0  0  0  0
  193.9320  176.7810  137.3310 O   0  0  0  0  0  0  0  0  0  0  0  0
  193.1820  175.9690  137.9310 C   0  0  0  0  0  0  0  0  0  0  0  0
  193.3710  174.6020  137.7700 O   0  0  0  0  0  1  0  0  0  0  0  0
  1 13  1  0  0  0  0
  1  2  1  0  0  0  0
  3 12  2  0  0  0  0
  4 16  2  0  0  0  0
  5 18  2  0  0  0  0
  7 10  1  0  0  0  0
  8 17  1  0  0  0  0
  9 15  1  0  0  0  0
  9  8  2  0  0  0  0
 10 22  1  1  0  0  0
 10 13  1  0  0  0  0
 11  4  1  0  0  0  0
 14  6  1  1  0  0  0
 14  7  1  0  0  0  0
 14 15  1  0  0  0  0
 15  1  2  0  0  0  0
 16  3  1  0  0  0  0
 17  2  2  0  0  0  0
 17  3  1  0  0  0  0
 18 21  1  0  0  0  0
 18 11  1  0  0  0  0
 19  8  1  0  0  0  0
 19  4  1  0  0  0  0
 20 21  1  0  0  0  0
 22 30  1  6  0  0  0
 22 26  1  0  0  0  0
 23 27  1  0  0  0  0
 24 25  1  0  0  0  0
 25 27  2  0  0  0  0
 26 24  2  0  0  0  0
 26 23  1  0  0  0  0
 27 29  1  0  0  0  0
 29 28  3  0  0  0  0
 31 30  1  0  0  0  0
 32 31  1  0  0  0  0
 33 32  1  0  0  0  0
 34 35  2  0  0  0  0
 35 33  1  0  0  0  0
 36 35  1  0  0  0  0
M  END
>  <MODEL>
8

>  <REMARK>
 VINA RESULT:      -6.7      4.417     10.315
  Name = 
  9 active torsions:
  status: ('A' for Active; 'I' for Inactive)
    1  A    between atoms: C_3  and  C_35
    2  A    between atoms: C_4  and  C_11
    3  A    between atoms: C_4  and  C_16
    4  A    between atoms: C_13  and  C_21
    5  A    between atoms: C_13  and  C_25
    6  A    between atoms: C_13  and  O_34
    7  A    between atoms: C_16  and  N_26
    8  A    between atoms: N_26  and  O_34
    9  A    between atoms: C_28  and  C_30
                            x       y       z     vdW  Elec       q    Type
                         _______ _______ _______ _____ _____    ______ ____

>  <TORSDO>
F 9

$$$$
=
 OpenBabel11032420103D

 36 39  0  0  1  0  0  0  0  0999 V2000
  187.6580  178.0220  140.6350 C   0  0  0  0  0  0  0  0  0  0  0  0
  186.5890  178.3230  141.4830 C   0  0  0  0  0  3  0  0  0  0  0  0
  184.1940  178.9710  141.8230 C   0  0  0  0  0  0  0  0  0  0  0  0
  182.7180  179.3330  139.9550 C   0  0  0  0  0  0  0  0  0  0  0  0
  181.7380  179.5400  137.1810 O   0  0  0  0  0  0  0  0  0  0  0  0
  189.0540  179.0040  137.6120 C   0  0  0  0  0  1  0  0  0  0  0  0
  189.7740  177.0320  138.9670 C   0  0  0  0  0  2  0  0  0  0  0  0
  185.1320  178.6230  139.5660 C   0  0  0  0  0  0  0  0  0  0  0  0
  186.1960  178.3070  138.7170 C   0  0  0  0  0  3  0  0  0  0  0  0
  190.1310  177.7510  140.2680 C   0  0  1  0  0  3  0  0  0  0  0  0
  181.4120  179.7140  139.5010 N   0  0  0  0  0  2  0  0  0  0  0  0
  184.3250  178.9850  143.1090 N   0  0  0  0  0  2  0  0  0  0  0  0
  188.9650  177.6090  141.2470 C   0  0  0  0  0  2  0  0  0  0  0  0
  188.5910  177.7200  138.2820 C   0  0  1  0  0  3  0  0  0  0  0  0
  187.4590  178.0030  139.2360 C   0  0  0  0  0  0  0  0  0  0  0  0
  182.9400  179.3250  141.2370 N   0  0  0  0  0  0  0  0  0  0  0  0
  185.3290  178.6320  140.9540 C   0  0  0  0  0  0  0  0  0  0  0  0
  180.9650  179.7960  138.1410 C   0  0  0  0  0  0  0  0  0  0  0  0
  183.7900  178.9290  138.9630 C   0  0  0  0  0  2  0  0  0  0  0  0
  179.5740  181.5910  137.2020 C   0  0  0  0  0  1  0  0  0  0  0  0
  179.5690  180.2250  137.8600 C   0  0  0  0  0  2  0  0  0  0  0  0
  191.4170  177.1790  140.8700 C   0  0  2  0  0  3  0  0  0  0  0  0
  191.3090  176.1120  143.4730 S   0  0  0  0  0  0  0  0  0  0  0  0
  191.6200  178.5620  143.0320 C   0  0  0  0  0  3  0  0  0  0  0  0
  191.6220  178.4390  144.3870 N   0  0  0  0  0  0  0  0  0  0  0  0
  191.4530  177.3580  142.3540 C   0  0  0  0  0  0  0  0  0  0  0  0
  191.4610  177.1570  144.7790 C   0  0  0  0  0  0  0  0  0  0  0  0
  191.3990  176.4240  147.2650 N   0  0  0  0  0  0  0  0  0  0  0  0
  191.4270  176.7510  146.1550 C   0  0  0  0  0  0  0  0  0  0  0  0
  192.5380  177.7960  140.3050 O   0  0  0  0  0  0  0  0  0  0  0  0
  193.3090  176.7710  139.8650 N   0  0  0  0  0  2  0  0  0  0  0  0
  193.2120  176.7560  138.4150 C   0  0  0  0  0  2  0  0  0  0  0  0
  193.2330  175.3240  137.9110 C   0  0  0  0  0  2  0  0  0  0  0  0
  195.4200  175.2910  136.9740 O   0  0  0  0  0  0  0  0  0  0  0  0
  194.6340  174.8330  137.8430 C   0  0  0  0  0  0  0  0  0  0  0  0
  195.0680  173.8450  138.7180 O   0  0  0  0  0  1  0  0  0  0  0  0
  1 13  1  0  0  0  0
  1  2  1  0  0  0  0
  3 12  2  0  0  0  0
  4 16  2  0  0  0  0
  5 18  2  0  0  0  0
  7 10  1  0  0  0  0
  8 17  1  0  0  0  0
  9 15  1  0  0  0  0
  9  8  2  0  0  0  0
 10 22  1  1  0  0  0
 10 13  1  0  0  0  0
 11  4  1  0  0  0  0
 14  6  1  1  0  0  0
 14  7  1  0  0  0  0
 14 15  1  0  0  0  0
 15  1  2  0  0  0  0
 16  3  1  0  0  0  0
 17  2  2  0  0  0  0
 17  3  1  0  0  0  0
 18 11  1  0  0  0  0
 19  8  1  0  0  0  0
 19  4  1  0  0  0  0
 20 21  1  0  0  0  0
 21 18  1  0  0  0  0
 22 30  1  6  0  0  0
 22 26  1  0  0  0  0
 23 27  1  0  0  0  0
 24 25  1  0  0  0  0
 25 27  2  0  0  0  0
 26 24  2  0  0  0  0
 26 23  1  0  0  0  0
 27 29  1  0  0  0  0
 29 28  3  0  0  0  0
 31 30  1  0  0  0  0
 32 31  1  0  0  0  0
 33 32  1  0  0  0  0
 34 35  2  0  0  0  0
 35 33  1  0  0  0  0
 35 36  1  0  0  0  0
M  END
>  <MODEL>
9

>  <REMARK>
 VINA RESULT:      -6.7      4.633     10.878
  Name = 
  9 active torsions:
  status: ('A' for Active; 'I' for Inactive)
    1  A    between atoms: C_3  and  C_35
    2  A    between atoms: C_4  and  C_11
    3  A    between atoms: C_4  and  C_16
    4  A    between atoms: C_13  and  C_21
    5  A    between atoms: C_13  and  C_25
    6  A    between atoms: C_13  and  O_34
    7  A    between atoms: C_16  and  N_26
    8  A    between atoms: N_26  and  O_34
    9  A    between atoms: C_28  and  C_30
                            x       y       z     vdW  Elec       q    Type
                         _______ _______ _______ _____ _____    ______ ____

>  <TORSDO>
F 9

$$$$
