=
 OpenBabel11032419583D

 52 55  0  0  1  0  0  0  0  0999 V2000
  186.8930  178.4740  142.7790 C   0  0  0  0  0  2  0  0  0  0  0  0
  191.0090  175.8420  144.4670 C   0  0  1  0  0  3  0  0  0  0  0  0
  189.1710  176.5030  143.0760 C   0  0  1  0  0  3  0  0  0  0  0  0
  187.7770  178.0340  141.6530 C   0  0  0  0  0  0  0  0  0  0  0  0
  189.1060  178.1380  145.0670 C   0  0  0  0  0  2  0  0  0  0  0  0
  188.3690  177.0410  144.3000 C   0  0  1  0  0  3  0  0  0  0  0  0
  189.7600  177.5130  147.3610 C   0  0  0  0  0  3  0  0  0  0  0  0
  186.9370  177.4410  143.9060 C   0  0  1  0  0  3  0  0  0  0  0  0
  187.6690  178.5070  140.2480 C   0  0  0  0  0  3  0  0  0  0  0  0
  190.0360  177.5050  146.0600 C   0  0  0  0  0  0  0  0  0  0  0  0
  191.2910  176.8350  145.5960 C   0  0  0  0  0  2  0  0  0  0  0  0
  188.8020  177.2040  141.7930 C   0  0  2  0  0  3  0  0  0  0  0  0
  189.4310  176.9800  140.5020 C   0  0  0  0  0  3  0  0  0  0  0  0
  190.6230  176.5680  143.2620 N   0  0  0  0  0  2  0  0  0  0  0  0
  188.7870  177.7380  139.6220 C   0  0  0  0  0  0  0  0  0  0  0  0
  184.9660  178.6940  145.0260 N   0  0  0  0  0  2  0  0  0  0  0  0
  186.0390  177.7410  145.0770 C   0  0  0  0  0  0  0  0  0  0  0  0
  186.2830  177.1690  146.1710 O   0  0  0  0  0  0  0  0  0  0  0  0
  184.4670  179.3350  143.8180 C   0  0  0  0  0  2  0  0  0  0  0  0
  182.9540  179.1890  143.7260 C   0  0  0  0  0  2  0  0  0  0  0  0
  182.5290  178.7350  142.3370 C   0  0  0  0  0  2  0  0  0  0  0  0
  183.7320  178.2420  141.5510 C   0  0  0  0  0  2  0  0  0  0  0  0
  183.3890  178.1160  140.1020 C   0  0  0  0  0  0  0  0  0  0  0  0
  184.1640  178.6840  139.1800 C   0  0  0  0  0  2  0  0  0  0  0  0
  182.3050  177.1820  139.6900 C   0  0  0  0  0  2  0  0  0  0  0  0
  182.8550  175.9680  139.2720 O   0  0  0  0  0  0  0  0  0  0  0  0
  182.0600  175.5850  137.8230 P   0  0  2  0  0  0  0  0  0  0  0  0
  180.4440  176.0760  137.9340 O   0  0  0  0  0  1  0  0  0  0  0  0
  182.1010  174.0900  137.5990 O   0  0  0  0  0  0  0  0  0  0  0  0
  182.8050  176.3670  136.5150 O   0  0  0  0  0  0  0  0  0  0  0  0
  183.6880  175.4270  135.9810 C   0  0  0  0  0  2  0  0  0  0  0  0
  186.0710  174.8750  136.9520 C   0  0  0  0  0  2  0  0  0  0  0  0
  186.1120  175.0500  135.4420 C   0  0  0  0  0  2  0  0  0  0  0  0
  185.1240  175.8400  136.2670 C   0  0  0  0  0  0  0  0  0  0  0  0
  185.4540  177.2030  136.2870 O   0  0  0  0  0  0  0  0  0  0  0  0
  186.5480  177.3640  135.4290 C   0  0  0  0  0  1  0  0  0  0  0  0
  187.9800  177.6160  148.9750 O   0  0  0  0  0  1  0  0  0  0  0  0
  188.5790  178.1230  147.8750 N   0  0  0  0  0  2  0  0  0  0  0  0
  192.2250  174.9590  144.1940 C   0  0  0  0  0  2  0  0  0  0  0  0
  192.5050  173.9890  145.3320 C   0  0  0  0  0  1  0  0  0  0  0  0
  189.1090  177.7830  138.1650 C   0  0  0  0  0  2  0  0  0  0  0  0
  189.9030  176.5890  137.7590 C   0  0  0  0  0  0  0  0  0  0  0  0
  189.3870  175.7170  137.0090 O   0  0  0  0  0  0  0  0  0  0  0  0
  191.2560  176.4640  138.1990 N   0  0  0  0  0  2  0  0  0  0  0  0
  192.0830  175.3710  137.8100 C   0  0  0  0  0  3  0  0  0  0  0  0
  193.1780  175.5930  137.0930 C   0  0  0  0  0  3  0  0  0  0  0  0
  194.1540  174.4440  135.2600 O   0  0  0  0  0  1  0  0  0  0  0  0
  194.0790  174.4800  136.6540 C   0  0  1  0  0  3  0  0  0  0  0  0
  195.4780  174.6210  137.2410 C   0  0  0  0  0  2  0  0  0  0  0  0
  195.4890  174.2570  138.6860 C   0  0  0  0  0  0  0  0  0  0  0  0
  195.3950  173.0510  139.0350 O   0  0  0  0  0  0  0  0  0  0  0  0
  195.5860  175.2510  139.6510 O   0  0  0  0  0  1  0  0  0  0  0  0
  1  8  1  0  0  0  0
  2 39  1  6  0  0  0
  2 11  1  0  0  0  0
  3 14  1  1  0  0  0
  3  6  1  0  0  0  0
  4 12  1  0  0  0  0
  4  1  1  0  0  0  0
  5 10  1  0  0  0  0
  6  5  1  6  0  0  0
  7 38  1  0  0  0  0
  8  6  1  0  0  0  0
  8 17  1  1  0  0  0
  9  4  2  0  0  0  0
 10  7  2  0  0  0  0
 11 10  1  0  0  0  0
 12 13  1  6  0  0  0
 12  3  1  0  0  0  0
 14  2  1  0  0  0  0
 15  9  1  0  0  0  0
 15 13  2  0  0  0  0
 16 17  1  0  0  0  0
 17 18  2  0  0  0  0
 19 16  1  0  0  0  0
 20 19  1  0  0  0  0
 21 20  1  0  0  0  0
 22 21  1  0  0  0  0
 23 22  1  0  0  0  0
 24 23  2  0  0  0  0
 25 23  1  0  0  0  0
 26 25  1  0  0  0  0
 27 29  2  6  0  0  0
 27 28  1  0  0  0  0
 27 26  1  0  0  0  0
 30 27  1  0  0  0  0
 31 34  1  0  0  0  0
 31 30  1  0  0  0  0
 33 34  1  0  0  0  0
 33 32  1  0  0  0  0
 34 35  1  0  0  0  0
 34 32  1  0  0  0  0
 36 35  1  0  0  0  0
 38 37  1  0  0  0  0
 39 40  1  0  0  0  0
 41 15  1  0  0  0  0
 42 41  1  0  0  0  0
 42 44  1  0  0  0  0
 43 42  2  0  0  0  0
 45 44  1  0  0  0  0
 46 45  2  0  0  0  0
 48 47  1  6  0  0  0
 48 46  1  0  0  0  0
 48 49  1  0  0  0  0
 49 50  1  0  0  0  0
 50 51  2  0  0  0  0
 50 52  1  0  0  0  0
M  END
>  <MODEL>
1

>  <REMARK>
 VINA RESULT:      -7.0      0.000      0.000
  Name = 
  21 active torsions:
  status: ('A' for Active; 'I' for Inactive)
    1  A    between atoms: N_1  and  C_15
    2  A    between atoms: C_4  and  C_25
    3  A    between atoms: C_5  and  C_35
    4  A    between atoms: C_5  and  C_51
    5  A    between atoms: C_7  and  C_30
    6  A    between atoms: C_7  and  C_50
    7  A    between atoms: O_8  and  P_19
    8  A    between atoms: O_8  and  C_38
    9  A    between atoms: O_10  and  P_19
   10  A    between atoms: O_10  and  C_40
   11  A    between atoms: C_11  and  C_40
   12  A    between atoms: C_11  and  C_50
   13  A    between atoms: C_12  and  C_48
   14  A    between atoms: C_13  and  N_42
   15  A    between atoms: C_15  and  C_30
   16  A    between atoms: C_17  and  N_22
   17  A    between atoms: C_21  and  C_39
   18  A    between atoms: C_31  and  O_34
   19  A    between atoms: C_31  and  C_38
   20  A    between atoms: C_43  and  C_52
   21  A    between atoms: C_48  and  C_52
                            x       y       z     vdW  Elec       q    Type
                         _______ _______ _______ _____ _____    ______ ____

>  <TORSDO>
F 21

$$$$
=
 OpenBabel11032419583D

 52 55  0  0  1  0  0  0  0  0999 V2000
  185.8980  177.8720  138.2870 C   0  0  0  0  0  2  0  0  0  0  0  0
  181.4710  175.4090  137.2600 C   0  0  1  0  0  3  0  0  0  0  0  0
  183.6120  176.4350  136.9200 C   0  0  1  0  0  3  0  0  0  0  0  0
  186.0740  176.8160  137.2400 C   0  0  0  0  0  0  0  0  0  0  0  0
  183.1440  176.7180  139.4380 C   0  0  0  0  0  2  0  0  0  0  0  0
  183.3860  177.4240  138.1040 C   0  0  1  0  0  3  0  0  0  0  0  0
  180.8850  177.0550  140.3710 C   0  0  0  0  0  3  0  0  0  0  0  0
  184.4990  178.4820  138.1770 C   0  0  1  0  0  3  0  0  0  0  0  0
  187.3830  176.3210  136.7390 C   0  0  0  0  0  2  0  0  0  0  0  0
  181.6870  176.3760  139.5550 C   0  0  0  0  0  0  0  0  0  0  0  0
  181.1060  175.2650  138.7380 C   0  0  0  0  0  2  0  0  0  0  0  0
  185.0730  176.1560  136.6730 C   0  0  0  0  0  0  0  0  0  0  0  0
  185.5960  175.2180  135.6940 C   0  0  0  0  0  3  0  0  0  0  0  0
  182.8980  175.1660  137.0810 N   0  0  0  0  0  2  0  0  0  0  0  0
  186.9200  175.3070  135.7440 C   0  0  0  0  0  0  0  0  0  0  0  0
  184.7960  179.6790  140.4550 N   0  0  0  0  0  2  0  0  0  0  0  0
  184.2190  179.6030  139.1430 C   0  0  0  0  0  0  0  0  0  0  0  0
  183.3900  180.4850  138.7980 O   0  0  0  0  0  0  0  0  0  0  0  0
  185.8650  178.8260  140.9550 C   0  0  0  0  0  2  0  0  0  0  0  0
  185.4220  178.1070  142.2220 C   0  0  0  0  0  2  0  0  0  0  0  0
  184.5820  179.0180  143.1060 C   0  0  0  0  0  2  0  0  0  0  0  0
  185.3860  179.4700  144.3130 C   0  0  0  0  0  2  0  0  0  0  0  0
  184.7640  178.9600  145.5710 C   0  0  0  0  0  0  0  0  0  0  0  0
  183.4670  178.6570  145.6010 C   0  0  0  0  0  2  0  0  0  0  0  0
  185.6390  178.5940  146.7190 C   0  0  0  0  0  2  0  0  0  0  0  0
  186.3650  177.4390  146.4160 O   0  0  0  0  0  0  0  0  0  0  0  0
  187.9030  177.6810  147.0880 P   0  0  2  0  0  0  0  0  0  0  0  0
  188.4470  176.2250  147.7590 O   0  0  0  0  0  0  0  0  0  0  0  0
  187.8240  178.7220  148.1830 O   0  0  0  0  0  1  0  0  0  0  0  0
  188.9930  178.2040  145.8980 O   0  0  0  0  0  0  0  0  0  0  0  0
  188.7560  177.3800  144.7960 C   0  0  0  0  0  2  0  0  0  0  0  0
  191.2360  177.9810  144.1530 C   0  0  0  0  0  2  0  0  0  0  0  0
  190.9020  176.5400  143.8000 C   0  0  0  0  0  2  0  0  0  0  0  0
  189.8290  177.6000  143.7410 C   0  0  0  0  0  0  0  0  0  0  0  0
  189.4430  177.8590  142.4170 O   0  0  0  0  0  0  0  0  0  0  0  0
  190.1770  176.9860  141.6060 C   0  0  0  0  0  1  0  0  0  0  0  0
  181.0780  179.4080  140.8310 O   0  0  0  0  0  1  0  0  0  0  0  0
  181.3660  178.1310  141.1720 N   0  0  0  0  0  2  0  0  0  0  0  0
  180.6520  174.4550  136.3940 C   0  0  0  0  0  2  0  0  0  0  0  0
  179.9300  173.3990  137.2180 C   0  0  0  0  0  1  0  0  0  0  0  0
  187.8430  174.5200  134.8720 C   0  0  0  0  0  2  0  0  0  0  0  0
  189.1700  174.3440  135.5260 C   0  0  0  0  0  0  0  0  0  0  0  0
  189.3200  173.4620  136.4160 O   0  0  0  0  0  0  0  0  0  0  0  0
  190.2690  175.1550  135.1110 N   0  0  0  0  0  2  0  0  0  0  0  0
  191.5740  175.0060  135.6650 C   0  0  0  0  0  3  0  0  0  0  0  0
  192.0450  175.9210  136.5030 C   0  0  0  0  0  3  0  0  0  0  0  0
  193.6680  176.9300  137.9110 O   0  0  0  0  0  1  0  0  0  0  0  0
  193.4100  175.8150  137.1100 C   0  0  1  0  0  3  0  0  0  0  0  0
  193.5650  174.5430  137.9340 C   0  0  0  0  0  2  0  0  0  0  0  0
  195.0020  174.1750  138.0810 C   0  0  0  0  0  0  0  0  0  0  0  0
  195.8900  174.8520  137.5000 O   0  0  0  0  0  0  0  0  0  0  0  0
  195.3610  173.0750  138.8470 O   0  0  0  0  0  1  0  0  0  0  0  0
  2 39  1  6  0  0  0
  2 11  1  0  0  0  0
  3 12  1  1  0  0  0
  3 14  1  0  0  0  0
  3  6  1  0  0  0  0
  4  1  1  0  0  0  0
  5 10  1  0  0  0  0
  6  8  1  0  0  0  0
  6  5  1  1  0  0  0
  7 38  1  0  0  0  0
  8  1  1  0  0  0  0
  8 17  1  1  0  0  0
  9  4  1  0  0  0  0
 10  7  2  0  0  0  0
 11 10  1  0  0  0  0
 12  4  2  0  0  0  0
 13 15  2  0  0  0  0
 13 12  1  0  0  0  0
 14  2  1  0  0  0  0
 15  9  1  0  0  0  0
 16 19  1  0  0  0  0
 17 16  1  0  0  0  0
 18 17  2  0  0  0  0
 19 20  1  0  0  0  0
 20 21  1  0  0  0  0
 21 22  1  0  0  0  0
 22 23  1  0  0  0  0
 23 24  2  0  0  0  0
 23 25  1  0  0  0  0
 26 25  1  0  0  0  0
 26 27  1  0  0  0  0
 27 28  2  1  0  0  0
 27 29  1  0  0  0  0
 30 27  1  0  0  0  0
 31 30  1  0  0  0  0
 33 32  1  0  0  0  0
 34 33  1  0  0  0  0
 34 32  1  0  0  0  0
 34 31  1  0  0  0  0
 35 34  1  0  0  0  0
 36 35  1  0  0  0  0
 37 38  1  0  0  0  0
 39 40  1  0  0  0  0
 41 42  1  0  0  0  0
 41 15  1  0  0  0  0
 42 43  2  0  0  0  0
 44 42  1  0  0  0  0
 44 45  1  0  0  0  0
 45 46  2  0  0  0  0
 46 48  1  0  0  0  0
 48 47  1  1  0  0  0
 48 49  1  0  0  0  0
 49 50  1  0  0  0  0
 50 52  1  0  0  0  0
 51 50  2  0  0  0  0
M  END
>  <MODEL>
2

>  <REMARK>
 VINA RESULT:      -6.9      3.193      7.851
  Name = 
  21 active torsions:
  status: ('A' for Active; 'I' for Inactive)
    1  A    between atoms: N_1  and  C_15
    2  A    between atoms: C_4  and  C_25
    3  A    between atoms: C_5  and  C_35
    4  A    between atoms: C_5  and  C_51
    5  A    between atoms: C_7  and  C_30
    6  A    between atoms: C_7  and  C_50
    7  A    between atoms: O_8  and  P_19
    8  A    between atoms: O_8  and  C_38
    9  A    between atoms: O_10  and  P_19
   10  A    between atoms: O_10  and  C_40
   11  A    between atoms: C_11  and  C_40
   12  A    between atoms: C_11  and  C_50
   13  A    between atoms: C_12  and  C_48
   14  A    between atoms: C_13  and  N_42
   15  A    between atoms: C_15  and  C_30
   16  A    between atoms: C_17  and  N_22
   17  A    between atoms: C_21  and  C_39
   18  A    between atoms: C_31  and  O_34
   19  A    between atoms: C_31  and  C_38
   20  A    between atoms: C_43  and  C_52
   21  A    between atoms: C_48  and  C_52
                            x       y       z     vdW  Elec       q    Type
                         _______ _______ _______ _____ _____    ______ ____

>  <TORSDO>
F 21

$$$$
=
 OpenBabel11032419583D

 52 55  0  0  1  0  0  0  0  0999 V2000
  187.7110  177.5740  138.4640 C   0  0  0  0  0  2  0  0  0  0  0  0
  189.8890  173.5640  136.0370 C   0  0  1  0  0  3  0  0  0  0  0  0
  189.6630  175.6910  137.1240 C   0  0  1  0  0  3  0  0  0  0  0  0
  189.0950  177.3010  138.9660 C   0  0  0  0  0  0  0  0  0  0  0  0
  187.2850  174.6980  137.1270 C   0  0  0  0  0  2  0  0  0  0  0  0
  188.1860  175.8360  136.6480 C   0  0  1  0  0  3  0  0  0  0  0  0
  186.4060  173.2670  135.3200 C   0  0  0  0  0  3  0  0  0  0  0  0
  187.6210  177.2280  136.9770 C   0  0  1  0  0  3  0  0  0  0  0  0
  189.6940  177.9000  140.1870 C   0  0  0  0  0  2  0  0  0  0  0  0
  187.3920  173.5490  136.1680 C   0  0  0  0  0  0  0  0  0  0  0  0
  188.6270  172.7050  136.1380 C   0  0  0  0  0  2  0  0  0  0  0  0
  189.9340  176.4410  138.4020 C   0  0  0  0  0  0  0  0  0  0  0  0
  191.1900  176.4320  139.1340 C   0  0  0  0  0  3  0  0  0  0  0  0
  190.0850  174.2960  137.2840 N   0  0  0  0  0  2  0  0  0  0  0  0
  191.0440  177.2600  140.1610 C   0  0  0  0  0  0  0  0  0  0  0  0
  185.1090  177.8520  137.0850 N   0  0  0  0  0  2  0  0  0  0  0  0
  186.2880  177.5180  136.3380 C   0  0  0  0  0  0  0  0  0  0  0  0
  186.1950  177.4010  135.0880 O   0  0  0  0  0  0  0  0  0  0  0  0
  185.0740  178.1590  138.5080 C   0  0  0  0  0  2  0  0  0  0  0  0
  183.6380  178.3660  138.9710 C   0  0  0  0  0  2  0  0  0  0  0  0
  183.2710  179.8420  138.9780 C   0  0  0  0  0  2  0  0  0  0  0  0
  181.9490  180.0620  138.2630 C   0  0  0  0  0  2  0  0  0  0  0  0
  180.8340  179.4240  139.0250 C   0  0  0  0  0  0  0  0  0  0  0  0
  180.1400  178.4230  138.4840 C   0  0  0  0  0  2  0  0  0  0  0  0
  180.6450  179.7680  140.4620 C   0  0  0  0  0  2  0  0  0  0  0  0
  180.9110  178.6510  141.2590 O   0  0  0  0  0  0  0  0  0  0  0  0
  180.7600  179.1910  142.8600 P   0  0  2  0  0  0  0  0  0  0  0  0
  179.7290  178.1440  143.7000 O   0  0  0  0  0  1  0  0  0  0  0  0
  180.1620  180.5800  142.8760 O   0  0  0  0  0  0  0  0  0  0  0  0
  182.2780  179.2260  143.6180 O   0  0  0  0  0  0  0  0  0  0  0  0
  183.1360  178.5470  142.7510 C   0  0  0  0  0  2  0  0  0  0  0  0
  185.1080  179.1860  144.3720 C   0  0  0  0  0  2  0  0  0  0  0  0
  185.4240  177.9270  143.5800 C   0  0  0  0  0  2  0  0  0  0  0  0
  184.5690  179.0110  142.9680 C   0  0  0  0  0  0  0  0  0  0  0  0
  185.2420  179.6600  141.9230 O   0  0  0  0  0  0  0  0  0  0  0  0
  186.4590  178.9900  141.7510 C   0  0  0  0  0  1  0  0  0  0  0  0
  184.2290  173.8040  136.1900 O   0  0  0  0  0  1  0  0  0  0  0  0
  185.2050  174.0330  135.2840 N   0  0  0  0  0  2  0  0  0  0  0  0
  191.1140  172.7090  135.7200 C   0  0  0  0  0  2  0  0  0  0  0  0
  192.3060  173.5450  135.2770 C   0  0  0  0  0  1  0  0  0  0  0  0
  192.1200  177.5550  141.1540 C   0  0  0  0  0  2  0  0  0  0  0  0
  191.5660  177.6190  142.5360 C   0  0  0  0  0  0  0  0  0  0  0  0
  191.0200  178.6790  142.9460 O   0  0  0  0  0  0  0  0  0  0  0  0
  191.6290  176.4610  143.3700 N   0  0  0  0  0  2  0  0  0  0  0  0
  191.0770  176.4420  144.6840 C   0  0  0  0  0  3  0  0  0  0  0  0
  191.8510  176.1430  145.7200 C   0  0  0  0  0  3  0  0  0  0  0  0
  192.3030  175.6240  147.9920 O   0  0  0  0  0  1  0  0  0  0  0  0
  191.3230  176.1050  147.1210 C   0  0  1  0  0  3  0  0  0  0  0  0
  190.8510  177.4770  147.5850 C   0  0  0  0  0  2  0  0  0  0  0  0
  189.3750  177.4910  147.7930 C   0  0  0  0  0  0  0  0  0  0  0  0
  188.6810  176.4950  147.4620 O   0  0  0  0  0  0  0  0  0  0  0  0
  188.7620  178.6110  148.3380 O   0  0  0  0  0  1  0  0  0  0  0  0
  1  4  1  0  0  0  0
  2 39  1  1  0  0  0
  2 11  1  0  0  0  0
  2 14  1  0  0  0  0
  3 14  1  1  0  0  0
  3 12  1  0  0  0  0
  4  9  1  0  0  0  0
  6  8  1  0  0  0  0
  6  3  1  0  0  0  0
  6  5  1  1  0  0  0
  7 10  2  0  0  0  0
  8 17  1  1  0  0  0
  8  1  1  0  0  0  0
 10  5  1  0  0  0  0
 11 10  1  0  0  0  0
 12  4  2  0  0  0  0
 12 13  1  0  0  0  0
 13 15  2  0  0  0  0
 15  9  1  0  0  0  0
 15 41  1  0  0  0  0
 16 19  1  0  0  0  0
 17 16  1  0  0  0  0
 18 17  2  0  0  0  0
 19 20  1  0  0  0  0
 20 21  1  0  0  0  0
 22 21  1  0  0  0  0
 22 23  1  0  0  0  0
 23 25  1  0  0  0  0
 24 23  2  0  0  0  0
 25 26  1  0  0  0  0
 26 27  1  0  0  0  0
 27 29  2  1  0  0  0
 27 30  1  0  0  0  0
 27 28  1  0  0  0  0
 31 34  1  0  0  0  0
 31 30  1  0  0  0  0
 33 32  1  0  0  0  0
 34 33  1  0  0  0  0
 34 32  1  0  0  0  0
 35 34  1  0  0  0  0
 36 35  1  0  0  0  0
 38  7  1  0  0  0  0
 38 37  1  0  0  0  0
 40 39  1  0  0  0  0
 41 42  1  0  0  0  0
 42 43  2  0  0  0  0
 42 44  1  0  0  0  0
 44 45  1  0  0  0  0
 45 46  2  0  0  0  0
 46 48  1  0  0  0  0
 48 49  1  0  0  0  0
 48 47  1  1  0  0  0
 49 50  1  0  0  0  0
 50 52  1  0  0  0  0
 51 50  2  0  0  0  0
M  END
>  <MODEL>
3

>  <REMARK>
 VINA RESULT:      -6.8      3.199      8.058
  Name = 
  21 active torsions:
  status: ('A' for Active; 'I' for Inactive)
    1  A    between atoms: N_1  and  C_15
    2  A    between atoms: C_4  and  C_25
    3  A    between atoms: C_5  and  C_35
    4  A    between atoms: C_5  and  C_51
    5  A    between atoms: C_7  and  C_30
    6  A    between atoms: C_7  and  C_50
    7  A    between atoms: O_8  and  P_19
    8  A    between atoms: O_8  and  C_38
    9  A    between atoms: O_10  and  P_19
   10  A    between atoms: O_10  and  C_40
   11  A    between atoms: C_11  and  C_40
   12  A    between atoms: C_11  and  C_50
   13  A    between atoms: C_12  and  C_48
   14  A    between atoms: C_13  and  N_42
   15  A    between atoms: C_15  and  C_30
   16  A    between atoms: C_17  and  N_22
   17  A    between atoms: C_21  and  C_39
   18  A    between atoms: C_31  and  O_34
   19  A    between atoms: C_31  and  C_38
   20  A    between atoms: C_43  and  C_52
   21  A    between atoms: C_48  and  C_52
                            x       y       z     vdW  Elec       q    Type
                         _______ _______ _______ _____ _____    ______ ____

>  <TORSDO>
F 21

$$$$
=
 OpenBabel11032419583D

 52 55  0  0  1  0  0  0  0  0999 V2000
  184.8490  177.8160  138.2680 C   0  0  0  0  0  2  0  0  0  0  0  0
  181.1360  174.3520  137.3070 C   0  0  1  0  0  3  0  0  0  0  0  0
  183.0510  175.7570  136.9720 C   0  0  1  0  0  3  0  0  0  0  0  0
  185.3400  176.6930  137.4070 C   0  0  0  0  0  0  0  0  0  0  0  0
  182.2800  176.2640  139.3780 C   0  0  0  0  0  2  0  0  0  0  0  0
  182.5110  176.8220  137.9740 C   0  0  1  0  0  3  0  0  0  0  0  0
  179.9170  176.2310  140.0850 C   0  0  0  0  0  3  0  0  0  0  0  0
  183.3750  178.0940  137.9670 C   0  0  1  0  0  3  0  0  0  0  0  0
  186.7660  176.4280  137.0820 C   0  0  0  0  0  2  0  0  0  0  0  0
  180.9190  175.6370  139.4410 C   0  0  0  0  0  0  0  0  0  0  0  0
  180.6590  174.3290  138.7610 C   0  0  0  0  0  2  0  0  0  0  0  0
  184.5550  175.7660  136.8760 C   0  0  0  0  0  0  0  0  0  0  0  0
  185.3540  174.8400  136.0900 C   0  0  0  0  0  3  0  0  0  0  0  0
  182.5940  174.3970  137.2700 N   0  0  0  0  0  2  0  0  0  0  0  0
  186.6200  175.2160  136.2210 C   0  0  0  0  0  0  0  0  0  0  0  0
  183.0950  179.5370  140.0990 N   0  0  0  0  0  2  0  0  0  0  0  0
  182.7790  179.2470  138.7300 C   0  0  0  0  0  0  0  0  0  0  0  0
  181.9140  179.9540  138.1490 O   0  0  0  0  0  0  0  0  0  0  0  0
  184.1620  178.9110  140.8680 C   0  0  0  0  0  2  0  0  0  0  0  0
  183.6200  178.3640  142.1810 C   0  0  0  0  0  2  0  0  0  0  0  0
  184.7080  178.3070  143.2430 C   0  0  0  0  0  2  0  0  0  0  0  0
  186.0790  178.2270  142.5920 C   0  0  0  0  0  2  0  0  0  0  0  0
  187.0430  177.5320  143.4970 C   0  0  0  0  0  0  0  0  0  0  0  0
  186.7360  177.3390  144.7790 C   0  0  0  0  0  2  0  0  0  0  0  0
  188.2440  176.8730  142.9130 C   0  0  0  0  0  2  0  0  0  0  0  0
  189.1440  177.8410  142.4580 O   0  0  0  0  0  0  0  0  0  0  0  0
  190.5640  177.5950  143.3530 P   0  0  2  0  0  0  0  0  0  0  0  0
  191.3730  179.0720  143.5210 O   0  0  0  0  0  1  0  0  0  0  0  0
  191.4660  176.6260  142.6220 O   0  0  0  0  0  0  0  0  0  0  0  0
  190.1960  176.9690  144.8860 O   0  0  0  0  0  0  0  0  0  0  0  0
  191.2170  177.4240  145.7230 C   0  0  0  0  0  2  0  0  0  0  0  0
  189.5960  177.9470  147.7290 C   0  0  0  0  0  2  0  0  0  0  0  0
  189.5160  176.4860  147.3150 C   0  0  0  0  0  2  0  0  0  0  0  0
  190.8180  177.2400  147.1790 C   0  0  0  0  0  0  0  0  0  0  0  0
  191.7720  176.7760  148.0960 O   0  0  0  0  0  0  0  0  0  0  0  0
  192.3860  175.6640  147.5090 C   0  0  0  0  0  1  0  0  0  0  0  0
  179.7740  177.6020  142.0560 O   0  0  0  0  0  1  0  0  0  0  0  0
  180.0870  177.4810  140.7460 N   0  0  0  0  0  2  0  0  0  0  0  0
  180.6180  173.1380  136.5390 C   0  0  0  0  0  2  0  0  0  0  0  0
  180.5330  171.8930  137.4090 C   0  0  0  0  0  1  0  0  0  0  0  0
  187.7660  174.5360  135.5470 C   0  0  0  0  0  2  0  0  0  0  0  0
  189.0580  175.1790  135.9170 C   0  0  0  0  0  0  0  0  0  0  0  0
  189.3670  176.2970  135.4240 O   0  0  0  0  0  0  0  0  0  0  0  0
  189.9190  174.5330  136.8570 N   0  0  0  0  0  2  0  0  0  0  0  0
  191.1460  175.1160  137.2870 C   0  0  0  0  0  3  0  0  0  0  0  0
  192.2820  174.7830  136.6860 C   0  0  0  0  0  3  0  0  0  0  0  0
  193.4690  176.7320  137.3370 O   0  0  0  0  0  1  0  0  0  0  0  0
  193.5990  175.3620  137.1000 C   0  0  1  0  0  3  0  0  0  0  0  0
  194.1530  174.6760  138.3430 C   0  0  0  0  0  2  0  0  0  0  0  0
  195.6110  174.4040  138.1970 C   0  0  0  0  0  0  0  0  0  0  0  0
  196.1610  173.5140  138.8950 O   0  0  0  0  0  1  0  0  0  0  0  0
  196.3670  175.1450  137.2980 O   0  0  0  0  0  0  0  0  0  0  0  0
  2 39  1  6  0  0  0
  2 11  1  0  0  0  0
  3 12  1  1  0  0  0
  3 14  1  0  0  0  0
  3  6  1  0  0  0  0
  4  1  1  0  0  0  0
  5 10  1  0  0  0  0
  6  5  1  1  0  0  0
  7 38  1  0  0  0  0
  8  6  1  0  0  0  0
  8  1  1  0  0  0  0
  8 17  1  1  0  0  0
  9  4  1  0  0  0  0
 10  7  2  0  0  0  0
 11 10  1  0  0  0  0
 12  4  2  0  0  0  0
 13 15  2  0  0  0  0
 13 12  1  0  0  0  0
 14  2  1  0  0  0  0
 15  9  1  0  0  0  0
 16 19  1  0  0  0  0
 17 16  1  0  0  0  0
 18 17  2  0  0  0  0
 19 20  1  0  0  0  0
 20 21  1  0  0  0  0
 22 21  1  0  0  0  0
 22 23  1  0  0  0  0
 23 24  2  0  0  0  0
 25 23  1  0  0  0  0
 26 25  1  0  0  0  0
 26 27  1  0  0  0  0
 27 29  2  6  0  0  0
 27 28  1  0  0  0  0
 27 30  1  0  0  0  0
 30 31  1  0  0  0  0
 31 34  1  0  0  0  0
 33 32  1  0  0  0  0
 34 33  1  0  0  0  0
 34 32  1  0  0  0  0
 34 35  1  0  0  0  0
 36 35  1  0  0  0  0
 38 37  1  0  0  0  0
 39 40  1  0  0  0  0
 41 42  1  0  0  0  0
 41 15  1  0  0  0  0
 42 44  1  0  0  0  0
 43 42  2  0  0  0  0
 44 45  1  0  0  0  0
 46 48  1  0  0  0  0
 46 45  2  0  0  0  0
 48 47  1  1  0  0  0
 48 49  1  0  0  0  0
 50 49  1  0  0  0  0
 50 51  1  0  0  0  0
 52 50  2  0  0  0  0
M  END
>  <MODEL>
4

>  <REMARK>
 VINA RESULT:      -6.7      3.291      8.435
  Name = 
  21 active torsions:
  status: ('A' for Active; 'I' for Inactive)
    1  A    between atoms: N_1  and  C_15
    2  A    between atoms: C_4  and  C_25
    3  A    between atoms: C_5  and  C_35
    4  A    between atoms: C_5  and  C_51
    5  A    between atoms: C_7  and  C_30
    6  A    between atoms: C_7  and  C_50
    7  A    between atoms: O_8  and  P_19
    8  A    between atoms: O_8  and  C_38
    9  A    between atoms: O_10  and  P_19
   10  A    between atoms: O_10  and  C_40
   11  A    between atoms: C_11  and  C_40
   12  A    between atoms: C_11  and  C_50
   13  A    between atoms: C_12  and  C_48
   14  A    between atoms: C_13  and  N_42
   15  A    between atoms: C_15  and  C_30
   16  A    between atoms: C_17  and  N_22
   17  A    between atoms: C_21  and  C_39
   18  A    between atoms: C_31  and  O_34
   19  A    between atoms: C_31  and  C_38
   20  A    between atoms: C_43  and  C_52
   21  A    between atoms: C_48  and  C_52
                            x       y       z     vdW  Elec       q    Type
                         _______ _______ _______ _____ _____    ______ ____

>  <TORSDO>
F 21

$$$$
=
 OpenBabel11032419583D

 52 55  0  0  1  0  0  0  0  0999 V2000
  183.5810  178.2910  140.0310 C   0  0  0  0  0  2  0  0  0  0  0  0
  180.9020  175.3120  136.7650 C   0  0  1  0  0  3  0  0  0  0  0  0
  182.3810  177.0250  137.5580 C   0  0  1  0  0  3  0  0  0  0  0  0
  184.3470  178.0060  138.7760 C   0  0  0  0  0  0  0  0  0  0  0  0
  181.5100  175.8750  139.6920 C   0  0  0  0  0  2  0  0  0  0  0  0
  181.5830  177.1730  138.8890 C   0  0  1  0  0  3  0  0  0  0  0  0
  179.2390  174.9340  139.8990 C   0  0  0  0  0  3  0  0  0  0  0  0
  182.0850  178.3660  139.7190 C   0  0  1  0  0  3  0  0  0  0  0  0
  185.7920  178.2900  138.5750 C   0  0  0  0  0  2  0  0  0  0  0  0
  180.3590  175.0510  139.1920 C   0  0  0  0  0  0  0  0  0  0  0  0
  180.4500  174.3550  137.8700 C   0  0  0  0  0  2  0  0  0  0  0  0
  183.8310  177.4110  137.7090 C   0  0  0  0  0  0  0  0  0  0  0  0
  184.8420  177.3050  136.6700 C   0  0  0  0  0  3  0  0  0  0  0  0
  182.2970  175.6820  136.9780 N   0  0  0  0  0  2  0  0  0  0  0  0
  185.9670  177.7980  137.1750 C   0  0  0  0  0  0  0  0  0  0  0  0
  181.6590  178.6600  142.2570 N   0  0  0  0  0  2  0  0  0  0  0  0
  181.2090  178.7090  140.8950 C   0  0  0  0  0  0  0  0  0  0  0  0
  180.0040  178.9940  140.6700 O   0  0  0  0  0  0  0  0  0  0  0  0
  183.0410  178.4840  142.6810 C   0  0  0  0  0  2  0  0  0  0  0  0
  183.2930  179.2210  143.9880 C   0  0  0  0  0  2  0  0  0  0  0  0
  184.7670  179.5630  144.1510 C   0  0  0  0  0  2  0  0  0  0  0  0
  185.5890  178.2960  144.3070 C   0  0  0  0  0  2  0  0  0  0  0  0
  186.2160  178.2480  145.6620 C   0  0  0  0  0  0  0  0  0  0  0  0
  185.5450  178.6880  146.7260 C   0  0  0  0  0  2  0  0  0  0  0  0
  187.5010  177.5160  145.8440 C   0  0  0  0  0  2  0  0  0  0  0  0
  188.5680  178.3170  145.4310 O   0  0  0  0  0  0  0  0  0  0  0  0
  189.9270  177.3020  145.4410 P   0  0  2  0  0  0  0  0  0  0  0  0
  190.0500  176.5610  146.9580 O   0  0  0  0  0  1  0  0  0  0  0  0
  191.1770  178.1180  145.1950 O   0  0  0  0  0  0  0  0  0  0  0  0
  189.7880  176.1150  144.2370 O   0  0  0  0  0  0  0  0  0  0  0  0
  190.6300  176.5380  143.2070 C   0  0  0  0  0  2  0  0  0  0  0  0
  188.3360  177.0660  142.0320 C   0  0  0  0  0  2  0  0  0  0  0  0
  189.3230  178.2110  141.8670 C   0  0  0  0  0  2  0  0  0  0  0  0
  189.8220  176.7880  141.9420 C   0  0  0  0  0  0  0  0  0  0  0  0
  190.3350  176.3630  140.7080 O   0  0  0  0  0  0  0  0  0  0  0  0
  190.1210  177.4080  139.8020 C   0  0  0  0  0  1  0  0  0  0  0  0
  179.2550  174.8760  142.3030 O   0  0  0  0  0  1  0  0  0  0  0  0
  179.0770  175.5760  141.1610 N   0  0  0  0  0  2  0  0  0  0  0  0
  180.7190  174.6860  135.3840 C   0  0  0  0  0  2  0  0  0  0  0  0
  181.8030  173.6690  135.0590 C   0  0  0  0  0  1  0  0  0  0  0  0
  187.2490  177.8960  136.4170 C   0  0  0  0  0  2  0  0  0  0  0  0
  188.1710  176.7850  136.7860 C   0  0  0  0  0  0  0  0  0  0  0  0
  187.7700  175.8630  137.5470 O   0  0  0  0  0  0  0  0  0  0  0  0
  189.4920  176.7600  136.2440 N   0  0  0  0  0  2  0  0  0  0  0  0
  190.4070  175.7030  136.5220 C   0  0  0  0  0  3  0  0  0  0  0  0
  191.7010  175.8660  136.2730 C   0  0  0  0  0  3  0  0  0  0  0  0
  192.7080  173.8630  135.4950 O   0  0  0  0  0  1  0  0  0  0  0  0
  192.7030  174.7870  136.5420 C   0  0  1  0  0  3  0  0  0  0  0  0
  194.1050  175.3540  136.7340 C   0  0  0  0  0  2  0  0  0  0  0  0
  194.8310  174.6260  137.8130 C   0  0  0  0  0  0  0  0  0  0  0  0
  195.0570  175.1900  138.9140 O   0  0  0  0  0  1  0  0  0  0  0  0
  195.2710  173.3270  137.5980 O   0  0  0  0  0  0  0  0  0  0  0  0
  2 39  1  6  0  0  0
  2 14  1  0  0  0  0
  2 11  1  0  0  0  0
  3 14  1  1  0  0  0
  3 12  1  0  0  0  0
  3  6  1  0  0  0  0
  4  1  1  0  0  0  0
  6  5  1  1  0  0  0
  6  8  1  0  0  0  0
  7 38  1  0  0  0  0
  8  1  1  0  0  0  0
  8 17  1  1  0  0  0
  9  4  1  0  0  0  0
 10  5  1  0  0  0  0
 10  7  2  0  0  0  0
 11 10  1  0  0  0  0
 12  4  2  0  0  0  0
 13 15  2  0  0  0  0
 13 12  1  0  0  0  0
 15  9  1  0  0  0  0
 16 19  1  0  0  0  0
 17 16  1  0  0  0  0
 18 17  2  0  0  0  0
 19 20  1  0  0  0  0
 20 21  1  0  0  0  0
 21 22  1  0  0  0  0
 22 23  1  0  0  0  0
 23 25  1  0  0  0  0
 23 24  2  0  0  0  0
 26 27  1  0  0  0  0
 26 25  1  0  0  0  0
 27 29  2  6  0  0  0
 27 28  1  0  0  0  0
 30 27  1  0  0  0  0
 31 30  1  0  0  0  0
 33 34  1  0  0  0  0
 33 32  1  0  0  0  0
 34 32  1  0  0  0  0
 34 31  1  0  0  0  0
 35 34  1  0  0  0  0
 36 35  1  0  0  0  0
 38 37  1  0  0  0  0
 40 39  1  0  0  0  0
 41 42  1  0  0  0  0
 41 15  1  0  0  0  0
 42 43  2  0  0  0  0
 44 45  1  0  0  0  0
 44 42  1  0  0  0  0
 46 45  2  0  0  0  0
 46 48  1  0  0  0  0
 48 47  1  6  0  0  0
 48 49  1  0  0  0  0
 49 50  1  0  0  0  0
 50 51  1  0  0  0  0
 52 50  2  0  0  0  0
M  END
>  <MODEL>
5

>  <REMARK>
 VINA RESULT:      -6.6      3.187      7.886
  Name = 
  21 active torsions:
  status: ('A' for Active; 'I' for Inactive)
    1  A    between atoms: N_1  and  C_15
    2  A    between atoms: C_4  and  C_25
    3  A    between atoms: C_5  and  C_35
    4  A    between atoms: C_5  and  C_51
    5  A    between atoms: C_7  and  C_30
    6  A    between atoms: C_7  and  C_50
    7  A    between atoms: O_8  and  P_19
    8  A    between atoms: O_8  and  C_38
    9  A    between atoms: O_10  and  P_19
   10  A    between atoms: O_10  and  C_40
   11  A    between atoms: C_11  and  C_40
   12  A    between atoms: C_11  and  C_50
   13  A    between atoms: C_12  and  C_48
   14  A    between atoms: C_13  and  N_42
   15  A    between atoms: C_15  and  C_30
   16  A    between atoms: C_17  and  N_22
   17  A    between atoms: C_21  and  C_39
   18  A    between atoms: C_31  and  O_34
   19  A    between atoms: C_31  and  C_38
   20  A    between atoms: C_43  and  C_52
   21  A    between atoms: C_48  and  C_52
                            x       y       z     vdW  Elec       q    Type
                         _______ _______ _______ _____ _____    ______ ____

>  <TORSDO>
F 21

$$$$
=
 OpenBabel11032419583D

 52 55  0  0  1  0  0  0  0  0999 V2000
  189.7470  177.9240  138.6110 C   0  0  0  0  0  2  0  0  0  0  0  0
  190.7050  173.4320  136.2420 C   0  0  1  0  0  3  0  0  0  0  0  0
  189.5220  175.1490  137.4270 C   0  0  1  0  0  3  0  0  0  0  0  0
  188.5580  177.4310  137.8460 C   0  0  0  0  0  0  0  0  0  0  0  0
  191.8890  176.1070  137.0780 C   0  0  0  0  0  2  0  0  0  0  0  0
  190.8330  175.6670  138.0920 C   0  0  1  0  0  3  0  0  0  0  0  0
  193.9290  174.7210  137.0670 C   0  0  0  0  0  3  0  0  0  0  0  0
  190.5420  176.7370  139.1580 C   0  0  1  0  0  3  0  0  0  0  0  0
  187.3400  178.2300  137.5520 C   0  0  0  0  0  2  0  0  0  0  0  0
  192.6820  174.9100  136.6430 C   0  0  0  0  0  0  0  0  0  0  0  0
  192.0720  173.8930  135.7310 C   0  0  0  0  0  2  0  0  0  0  0  0
  188.4790  176.2290  137.2890 C   0  0  0  0  0  0  0  0  0  0  0  0
  187.1880  176.0740  136.6400 C   0  0  0  0  0  3  0  0  0  0  0  0
  189.7440  174.5230  136.1210 N   0  0  0  0  0  2  0  0  0  0  0  0
  186.5440  177.2260  136.7820 C   0  0  0  0  0  0  0  0  0  0  0  0
  191.6550  177.3640  141.4110 N   0  0  0  0  0  2  0  0  0  0  0  0
  191.7330  177.1060  140.0010 C   0  0  0  0  0  0  0  0  0  0  0  0
  192.8420  177.2540  139.4230 O   0  0  0  0  0  0  0  0  0  0  0  0
  190.4920  177.1080  142.2500 C   0  0  0  0  0  2  0  0  0  0  0  0
  190.7290  175.8880  143.1290 C   0  0  0  0  0  2  0  0  0  0  0  0
  191.4410  176.2700  144.4180 C   0  0  0  0  0  2  0  0  0  0  0  0
  190.8140  177.5150  145.0200 C   0  0  0  0  0  2  0  0  0  0  0  0
  189.9460  177.1490  146.1800 C   0  0  0  0  0  0  0  0  0  0  0  0
  190.4570  177.1080  147.4100 C   0  0  0  0  0  2  0  0  0  0  0  0
  188.4740  177.0410  145.9820 C   0  0  0  0  0  2  0  0  0  0  0  0
  187.9590  178.2680  145.5580 O   0  0  0  0  0  0  0  0  0  0  0  0
  186.3280  178.2590  146.0240 P   0  0  2  0  0  0  0  0  0  0  0  0
  185.9710  179.7150  146.8110 O   0  0  0  0  0  0  0  0  0  0  0  0
  186.0760  177.1140  146.9800 O   0  0  0  0  0  1  0  0  0  0  0  0
  185.3250  178.0850  144.6670 O   0  0  0  0  0  0  0  0  0  0  0  0
  186.1850  178.1290  143.5680 C   0  0  0  0  0  2  0  0  0  0  0  0
  184.0670  177.8860  142.0250 C   0  0  0  0  0  2  0  0  0  0  0  0
  184.1450  179.2700  142.6500 C   0  0  0  0  0  2  0  0  0  0  0  0
  185.4120  178.5190  142.3170 C   0  0  0  0  0  0  0  0  0  0  0  0
  186.0960  179.1220  141.2510 O   0  0  0  0  0  0  0  0  0  0  0  0
  187.4130  178.6510  141.3000 C   0  0  0  0  0  1  0  0  0  0  0  0
  195.4460  175.1930  138.8720 O   0  0  0  0  0  1  0  0  0  0  0  0
  194.5710  175.6420  137.9440 N   0  0  0  0  0  2  0  0  0  0  0  0
  190.2180  172.2020  135.4800 C   0  0  0  0  0  2  0  0  0  0  0  0
  188.7010  172.1420  135.3810 C   0  0  0  0  0  1  0  0  0  0  0  0
  185.1630  177.4780  136.2730 C   0  0  0  0  0  2  0  0  0  0  0  0
  184.1600  177.3410  137.3670 C   0  0  0  0  0  0  0  0  0  0  0  0
  183.9820  176.2220  137.9190 O   0  0  0  0  0  0  0  0  0  0  0  0
  183.4360  178.4930  137.8020 N   0  0  0  0  0  2  0  0  0  0  0  0
  182.4960  178.4390  138.8720 C   0  0  0  0  0  3  0  0  0  0  0  0
  181.1980  178.3500  138.6080 C   0  0  0  0  0  3  0  0  0  0  0  0
  179.8140  176.9680  139.9520 O   0  0  0  0  0  1  0  0  0  0  0  0
  180.1690  178.2940  139.6940 C   0  0  1  0  0  3  0  0  0  0  0  0
  180.6630  178.9530  140.9760 C   0  0  0  0  0  2  0  0  0  0  0  0
  180.0340  180.2900  141.1650 C   0  0  0  0  0  0  0  0  0  0  0  0
  180.2240  181.2030  140.3200 O   0  0  0  0  0  0  0  0  0  0  0  0
  179.2480  180.5340  142.2830 O   0  0  0  0  0  1  0  0  0  0  0  0
  1  8  1  0  0  0  0
  2 39  1  6  0  0  0
  3 14  1  6  0  0  0
  3  6  1  0  0  0  0
  4  1  1  0  0  0  0
  6  5  1  6  0  0  0
  6  8  1  0  0  0  0
  7 38  1  0  0  0  0
  8 17  1  6  0  0  0
  9  4  1  0  0  0  0
 10  7  2  0  0  0  0
 10  5  1  0  0  0  0
 11  2  1  0  0  0  0
 11 10  1  0  0  0  0
 12  3  1  0  0  0  0
 12  4  2  0  0  0  0
 13 15  2  0  0  0  0
 13 12  1  0  0  0  0
 14  2  1  0  0  0  0
 15  9  1  0  0  0  0
 16 19  1  0  0  0  0
 17 16  1  0  0  0  0
 18 17  2  0  0  0  0
 19 20  1  0  0  0  0
 20 21  1  0  0  0  0
 21 22  1  0  0  0  0
 22 23  1  0  0  0  0
 23 24  2  0  0  0  0
 25 23  1  0  0  0  0
 26 25  1  0  0  0  0
 26 27  1  0  0  0  0
 27 28  2  1  0  0  0
 27 29  1  0  0  0  0
 30 27  1  0  0  0  0
 31 30  1  0  0  0  0
 32 34  1  0  0  0  0
 32 33  1  0  0  0  0
 34 33  1  0  0  0  0
 34 31  1  0  0  0  0
 35 36  1  0  0  0  0
 35 34  1  0  0  0  0
 38 37  1  0  0  0  0
 40 39  1  0  0  0  0
 41 15  1  0  0  0  0
 41 42  1  0  0  0  0
 42 44  1  0  0  0  0
 42 43  2  0  0  0  0
 44 45  1  0  0  0  0
 46 45  2  0  0  0  0
 46 48  1  0  0  0  0
 48 47  1  1  0  0  0
 48 49  1  0  0  0  0
 49 50  1  0  0  0  0
 50 52  1  0  0  0  0
 51 50  2  0  0  0  0
M  END
>  <MODEL>
6

>  <REMARK>
 VINA RESULT:      -6.6      2.879      9.583
  Name = 
  21 active torsions:
  status: ('A' for Active; 'I' for Inactive)
    1  A    between atoms: N_1  and  C_15
    2  A    between atoms: C_4  and  C_25
    3  A    between atoms: C_5  and  C_35
    4  A    between atoms: C_5  and  C_51
    5  A    between atoms: C_7  and  C_30
    6  A    between atoms: C_7  and  C_50
    7  A    between atoms: O_8  and  P_19
    8  A    between atoms: O_8  and  C_38
    9  A    between atoms: O_10  and  P_19
   10  A    between atoms: O_10  and  C_40
   11  A    between atoms: C_11  and  C_40
   12  A    between atoms: C_11  and  C_50
   13  A    between atoms: C_12  and  C_48
   14  A    between atoms: C_13  and  N_42
   15  A    between atoms: C_15  and  C_30
   16  A    between atoms: C_17  and  N_22
   17  A    between atoms: C_21  and  C_39
   18  A    between atoms: C_31  and  O_34
   19  A    between atoms: C_31  and  C_38
   20  A    between atoms: C_43  and  C_52
   21  A    between atoms: C_48  and  C_52
                            x       y       z     vdW  Elec       q    Type
                         _______ _______ _______ _____ _____    ______ ____

>  <TORSDO>
F 21

$$$$
=
 OpenBabel11032419583D

 52 55  0  0  1  0  0  0  0  0999 V2000
  187.3040  178.3830  142.4940 C   0  0  0  0  0  2  0  0  0  0  0  0
  191.2690  175.7850  144.5540 C   0  0  1  0  0  3  0  0  0  0  0  0
  189.5500  176.4220  143.0070 C   0  0  1  0  0  3  0  0  0  0  0  0
  188.2780  177.9290  141.4510 C   0  0  0  0  0  0  0  0  0  0  0  0
  189.3210  178.0860  144.9610 C   0  0  0  0  0  2  0  0  0  0  0  0
  188.6500  176.9760  144.1530 C   0  0  1  0  0  3  0  0  0  0  0  0
  189.7840  177.4960  147.3110 C   0  0  0  0  0  3  0  0  0  0  0  0
  187.2560  177.3670  143.6370 C   0  0  1  0  0  3  0  0  0  0  0  0
  188.2860  178.3810  140.0360 C   0  0  0  0  0  3  0  0  0  0  0  0
  190.1660  177.4690  146.0370 C   0  0  0  0  0  0  0  0  0  0  0  0
  191.4560  176.7950  145.6880 C   0  0  0  0  0  2  0  0  0  0  0  0
  189.2890  177.1030  141.6880 C   0  0  2  0  0  3  0  0  0  0  0  0
  190.0220  176.8610  140.4560 C   0  0  0  0  0  3  0  0  0  0  0  0
  190.9830  176.4920  143.3110 N   0  0  0  0  0  2  0  0  0  0  0  0
  189.4520  177.6050  139.5160 C   0  0  0  0  0  0  0  0  0  0  0  0
  185.2460  178.6880  144.5990 N   0  0  0  0  0  2  0  0  0  0  0  0
  186.2630  177.6830  144.7250 C   0  0  0  0  0  0  0  0  0  0  0  0
  186.3750  177.0740  145.8200 O   0  0  0  0  0  0  0  0  0  0  0  0
  184.8950  179.3810  143.3670 C   0  0  0  0  0  2  0  0  0  0  0  0
  183.6120  178.8070  142.7820 C   0  0  0  0  0  2  0  0  0  0  0  0
  183.8770  178.1040  141.4590 C   0  0  0  0  0  2  0  0  0  0  0  0
  184.4940  179.0700  140.4620 C   0  0  0  0  0  2  0  0  0  0  0  0
  184.3540  178.5410  139.0720 C   0  0  0  0  0  0  0  0  0  0  0  0
  185.4380  178.2970  138.3370 C   0  0  0  0  0  2  0  0  0  0  0  0
  183.0160  178.0920  138.5960 C   0  0  0  0  0  2  0  0  0  0  0  0
  183.1490  176.9350  137.8240 O   0  0  0  0  0  0  0  0  0  0  0  0
  182.3130  177.2530  136.3830 P   0  0  2  0  0  0  0  0  0  0  0  0
  183.4320  177.4510  135.1290 O   0  0  0  0  0  0  0  0  0  0  0  0
  181.5130  178.5290  136.5280 O   0  0  0  0  0  1  0  0  0  0  0  0
  181.2630  175.9730  136.0130 O   0  0  0  0  0  0  0  0  0  0  0  0
  180.3070  175.9770  137.0310 C   0  0  0  0  0  2  0  0  0  0  0  0
  180.3150  173.3990  136.5070 C   0  0  0  0  0  2  0  0  0  0  0  0
  181.1950  173.7260  137.7030 C   0  0  0  0  0  2  0  0  0  0  0  0
  179.9600  174.5500  137.4250 C   0  0  0  0  0  0  0  0  0  0  0  0
  178.9730  174.3300  138.3970 O   0  0  0  0  0  0  0  0  0  0  0  0
  179.6400  174.1670  139.6170 C   0  0  0  0  0  1  0  0  0  0  0  0
  187.8590  177.5980  148.7490 O   0  0  0  0  0  1  0  0  0  0  0  0
  188.5650  178.1110  147.7160 N   0  0  0  0  0  2  0  0  0  0  0  0
  192.5030  174.9000  144.3950 C   0  0  0  0  0  2  0  0  0  0  0  0
  192.3540  173.5630  145.1060 C   0  0  0  0  0  1  0  0  0  0  0  0
  189.8930  177.6280  138.0890 C   0  0  0  0  0  2  0  0  0  0  0  0
  189.3260  176.4730  137.3380 C   0  0  0  0  0  0  0  0  0  0  0  0
  189.8610  175.3360  137.4370 O   0  0  0  0  0  0  0  0  0  0  0  0
  188.1570  176.6620  136.5390 N   0  0  0  0  0  2  0  0  0  0  0  0
  187.5390  175.5900  135.8330 C   0  0  0  0  0  3  0  0  0  0  0  0
  186.2150  175.5060  135.7840 C   0  0  0  0  0  3  0  0  0  0  0  0
  186.4120  173.3640  134.7810 O   0  0  0  0  0  1  0  0  0  0  0  0
  185.5150  174.3990  135.0600 C   0  0  1  0  0  3  0  0  0  0  0  0
  184.3370  173.8560  135.8590 C   0  0  0  0  0  2  0  0  0  0  0  0
  184.7310  172.6450  136.6340 C   0  0  0  0  0  0  0  0  0  0  0  0
  184.7080  171.5110  136.0890 O   0  0  0  0  0  0  0  0  0  0  0  0
  185.1110  172.7660  137.9640 O   0  0  0  0  0  1  0  0  0  0  0  0
  1  8  1  0  0  0  0
  2 39  1  6  0  0  0
  2 11  1  0  0  0  0
  3 14  1  1  0  0  0
  3  6  1  0  0  0  0
  4 12  1  0  0  0  0
  4  1  1  0  0  0  0
  5 10  1  0  0  0  0
  6  5  1  6  0  0  0
  7 38  1  0  0  0  0
  8  6  1  0  0  0  0
  8 17  1  1  0  0  0
  9  4  2  0  0  0  0
 10  7  2  0  0  0  0
 11 10  1  0  0  0  0
 12 13  1  6  0  0  0
 12  3  1  0  0  0  0
 14  2  1  0  0  0  0
 15  9  1  0  0  0  0
 15 13  2  0  0  0  0
 16 17  1  0  0  0  0
 17 18  2  0  0  0  0
 19 16  1  0  0  0  0
 20 19  1  0  0  0  0
 21 20  1  0  0  0  0
 22 21  1  0  0  0  0
 23 22  1  0  0  0  0
 24 23  2  0  0  0  0
 25 23  1  0  0  0  0
 26 25  1  0  0  0  0
 27 28  2  6  0  0  0
 27 29  1  0  0  0  0
 27 26  1  0  0  0  0
 30 27  1  0  0  0  0
 30 31  1  0  0  0  0
 31 34  1  0  0  0  0
 32 34  1  0  0  0  0
 32 33  1  0  0  0  0
 34 33  1  0  0  0  0
 34 35  1  0  0  0  0
 35 36  1  0  0  0  0
 38 37  1  0  0  0  0
 39 40  1  0  0  0  0
 41 15  1  0  0  0  0
 42 43  2  0  0  0  0
 42 41  1  0  0  0  0
 44 42  1  0  0  0  0
 45 44  1  0  0  0  0
 46 45  2  0  0  0  0
 48 47  1  1  0  0  0
 48 46  1  0  0  0  0
 48 49  1  0  0  0  0
 49 50  1  0  0  0  0
 50 52  1  0  0  0  0
 51 50  2  0  0  0  0
M  END
>  <MODEL>
7

>  <REMARK>
 VINA RESULT:      -6.5      2.384      4.446
  Name = 
  21 active torsions:
  status: ('A' for Active; 'I' for Inactive)
    1  A    between atoms: N_1  and  C_15
    2  A    between atoms: C_4  and  C_25
    3  A    between atoms: C_5  and  C_35
    4  A    between atoms: C_5  and  C_51
    5  A    between atoms: C_7  and  C_30
    6  A    between atoms: C_7  and  C_50
    7  A    between atoms: O_8  and  P_19
    8  A    between atoms: O_8  and  C_38
    9  A    between atoms: O_10  and  P_19
   10  A    between atoms: O_10  and  C_40
   11  A    between atoms: C_11  and  C_40
   12  A    between atoms: C_11  and  C_50
   13  A    between atoms: C_12  and  C_48
   14  A    between atoms: C_13  and  N_42
   15  A    between atoms: C_15  and  C_30
   16  A    between atoms: C_17  and  N_22
   17  A    between atoms: C_21  and  C_39
   18  A    between atoms: C_31  and  O_34
   19  A    between atoms: C_31  and  C_38
   20  A    between atoms: C_43  and  C_52
   21  A    between atoms: C_48  and  C_52
                            x       y       z     vdW  Elec       q    Type
                         _______ _______ _______ _____ _____    ______ ____

>  <TORSDO>
F 21

$$$$
=
 OpenBabel11032419583D

 52 55  0  0  1  0  0  0  0  0999 V2000
  186.5710  178.5590  143.0850 C   0  0  0  0  0  2  0  0  0  0  0  0
  190.8580  175.9900  144.4000 C   0  0  1  0  0  3  0  0  0  0  0  0
  188.9010  176.6310  143.1710 C   0  0  1  0  0  3  0  0  0  0  0  0
  187.3690  178.1520  141.8860 C   0  0  0  0  0  0  0  0  0  0  0  0
  188.9660  178.2400  145.1830 C   0  0  0  0  0  2  0  0  0  0  0  0
  188.1910  177.1370  144.4630 C   0  0  1  0  0  3  0  0  0  0  0  0
  189.8140  177.5990  147.4090 C   0  0  0  0  0  3  0  0  0  0  0  0
  186.7250  177.5140  144.1910 C   0  0  1  0  0  3  0  0  0  0  0  0
  187.1400  178.6410  140.5010 C   0  0  0  0  0  3  0  0  0  0  0  0
  189.9840  177.6130  146.0900 C   0  0  0  0  0  0  0  0  0  0  0  0
  191.2110  176.9730  145.5180 C   0  0  0  0  0  2  0  0  0  0  0  0
  188.4180  177.3400  141.9310 C   0  0  2  0  0  3  0  0  0  0  0  0
  188.9450  177.1460  140.5910 C   0  0  0  0  0  3  0  0  0  0  0  0
  190.3620  176.7220  143.2400 N   0  0  0  0  0  2  0  0  0  0  0  0
  188.2180  177.9010  139.7770 C   0  0  0  0  0  0  0  0  0  0  0  0
  184.8750  178.7660  145.5020 N   0  0  0  0  0  2  0  0  0  0  0  0
  185.9170  177.7810  145.4340 C   0  0  0  0  0  0  0  0  0  0  0  0
  186.2170  177.1480  146.4790 O   0  0  0  0  0  0  0  0  0  0  0  0
  184.3160  179.4810  144.3630 C   0  0  0  0  0  2  0  0  0  0  0  0
  182.9670  178.8910  143.9770 C   0  0  0  0  0  2  0  0  0  0  0  0
  182.7200  179.0170  142.4810 C   0  0  0  0  0  2  0  0  0  0  0  0
  181.2300  178.9680  142.1860 C   0  0  0  0  0  2  0  0  0  0  0  0
  180.9720  178.1700  140.9500 C   0  0  0  0  0  0  0  0  0  0  0  0
  179.7690  177.6410  140.7350 C   0  0  0  0  0  2  0  0  0  0  0  0
  181.9980  178.1500  139.8700 C   0  0  0  0  0  2  0  0  0  0  0  0
  182.4940  176.8540  139.7090 O   0  0  0  0  0  0  0  0  0  0  0  0
  183.1260  176.8030  138.1350 P   0  0  2  0  0  0  0  0  0  0  0  0
  184.6330  177.5740  138.1200 O   0  0  0  0  0  1  0  0  0  0  0  0
  182.1970  177.5310  137.1890 O   0  0  0  0  0  0  0  0  0  0  0  0
  183.3010  175.1960  137.6200 O   0  0  0  0  0  0  0  0  0  0  0  0
  184.5260  175.1580  136.9520 C   0  0  0  0  0  2  0  0  0  0  0  0
  186.2390  173.3330  136.1380 C   0  0  0  0  0  2  0  0  0  0  0  0
  185.6520  172.9800  137.4950 C   0  0  0  0  0  2  0  0  0  0  0  0
  184.8220  173.7390  136.4880 C   0  0  0  0  0  0  0  0  0  0  0  0
  183.7740  172.9490  135.9930 O   0  0  0  0  0  0  0  0  0  0  0  0
  183.6820  171.8320  136.8310 C   0  0  0  0  0  1  0  0  0  0  0  0
  188.3160  177.8160  149.2780 O   0  0  0  0  0  1  0  0  0  0  0  0
  188.6670  178.1790  148.0240 N   0  0  0  0  0  2  0  0  0  0  0  0
  192.0640  175.1340  144.0180 C   0  0  0  0  0  2  0  0  0  0  0  0
  192.4650  174.1690  145.1240 C   0  0  0  0  0  1  0  0  0  0  0  0
  188.4210  177.9710  138.2990 C   0  0  0  0  0  2  0  0  0  0  0  0
  189.1980  176.7960  137.8140 C   0  0  0  0  0  0  0  0  0  0  0  0
  188.5950  175.7990  137.3320 O   0  0  0  0  0  0  0  0  0  0  0  0
  190.6260  176.8280  137.8690 N   0  0  0  0  0  2  0  0  0  0  0  0
  191.4280  175.7570  137.3800 C   0  0  0  0  0  3  0  0  0  0  0  0
  192.7510  175.8430  137.4370 C   0  0  0  0  0  3  0  0  0  0  0  0
  194.0270  175.0100  135.6170 O   0  0  0  0  0  1  0  0  0  0  0  0
  193.6410  174.7490  136.9340 C   0  0  1  0  0  3  0  0  0  0  0  0
  194.8780  174.5790  137.8080 C   0  0  0  0  0  2  0  0  0  0  0  0
  195.2110  173.1370  137.9850 C   0  0  0  0  0  0  0  0  0  0  0  0
  196.1580  172.7950  138.7400 O   0  0  0  0  0  1  0  0  0  0  0  0
  194.4840  172.1700  137.3050 O   0  0  0  0  0  0  0  0  0  0  0  0
  1  8  1  0  0  0  0
  2 39  1  6  0  0  0
  2 11  1  0  0  0  0
  3 14  1  1  0  0  0
  3  6  1  0  0  0  0
  4 12  1  0  0  0  0
  4  1  1  0  0  0  0
  5 10  1  0  0  0  0
  6  5  1  6  0  0  0
  7 38  1  0  0  0  0
  8  6  1  0  0  0  0
  8 17  1  1  0  0  0
  9  4  2  0  0  0  0
 10  7  2  0  0  0  0
 11 10  1  0  0  0  0
 12 13  1  6  0  0  0
 12  3  1  0  0  0  0
 14  2  1  0  0  0  0
 15  9  1  0  0  0  0
 15 13  2  0  0  0  0
 17 16  1  0  0  0  0
 17 18  2  0  0  0  0
 19 16  1  0  0  0  0
 20 19  1  0  0  0  0
 21 20  1  0  0  0  0
 22 21  1  0  0  0  0
 23 22  1  0  0  0  0
 24 23  2  0  0  0  0
 25 23  1  0  0  0  0
 26 25  1  0  0  0  0
 27 29  2  6  0  0  0
 27 26  1  0  0  0  0
 28 27  1  0  0  0  0
 30 27  1  0  0  0  0
 31 30  1  0  0  0  0
 32 34  1  0  0  0  0
 32 33  1  0  0  0  0
 34 31  1  0  0  0  0
 34 33  1  0  0  0  0
 35 34  1  0  0  0  0
 35 36  1  0  0  0  0
 38 37  1  0  0  0  0
 39 40  1  0  0  0  0
 41 15  1  0  0  0  0
 42 44  1  0  0  0  0
 42 41  1  0  0  0  0
 43 42  2  0  0  0  0
 45 46  2  0  0  0  0
 45 44  1  0  0  0  0
 48 47  1  6  0  0  0
 48 46  1  0  0  0  0
 48 49  1  0  0  0  0
 49 50  1  0  0  0  0
 50 51  1  0  0  0  0
 52 50  2  0  0  0  0
M  END
>  <MODEL>
8

>  <REMARK>
 VINA RESULT:      -6.5      1.205      1.879
  Name = 
  21 active torsions:
  status: ('A' for Active; 'I' for Inactive)
    1  A    between atoms: N_1  and  C_15
    2  A    between atoms: C_4  and  C_25
    3  A    between atoms: C_5  and  C_35
    4  A    between atoms: C_5  and  C_51
    5  A    between atoms: C_7  and  C_30
    6  A    between atoms: C_7  and  C_50
    7  A    between atoms: O_8  and  P_19
    8  A    between atoms: O_8  and  C_38
    9  A    between atoms: O_10  and  P_19
   10  A    between atoms: O_10  and  C_40
   11  A    between atoms: C_11  and  C_40
   12  A    between atoms: C_11  and  C_50
   13  A    between atoms: C_12  and  C_48
   14  A    between atoms: C_13  and  N_42
   15  A    between atoms: C_15  and  C_30
   16  A    between atoms: C_17  and  N_22
   17  A    between atoms: C_21  and  C_39
   18  A    between atoms: C_31  and  O_34
   19  A    between atoms: C_31  and  C_38
   20  A    between atoms: C_43  and  C_52
   21  A    between atoms: C_48  and  C_52
                            x       y       z     vdW  Elec       q    Type
                         _______ _______ _______ _____ _____    ______ ____

>  <TORSDO>
F 21

$$$$
=
 OpenBabel11032419583D

 52 55  0  0  1  0  0  0  0  0999 V2000
  185.3640  178.1280  139.0420 C   0  0  0  0  0  2  0  0  0  0  0  0
  190.0040  177.9050  141.3080 C   0  0  1  0  0  3  0  0  0  0  0  0
  187.7470  178.5780  140.8510 C   0  0  1  0  0  3  0  0  0  0  0  0
  185.2710  178.3080  140.5260 C   0  0  0  0  0  0  0  0  0  0  0  0
  188.2730  176.7950  139.0660 C   0  0  0  0  0  2  0  0  0  0  0  0
  187.9020  178.2540  139.3340 C   0  0  1  0  0  3  0  0  0  0  0  0
  190.5110  176.4800  138.0770 C   0  0  0  0  0  3  0  0  0  0  0  0
  186.6770  178.7190  138.5280 C   0  0  1  0  0  3  0  0  0  0  0  0
  184.0110  178.2800  141.3130 C   0  0  0  0  0  3  0  0  0  0  0  0
  189.7620  176.6410  139.1650 C   0  0  0  0  0  0  0  0  0  0  0  0
  190.4370  176.6810  140.5000 C   0  0  0  0  0  2  0  0  0  0  0  0
  186.3210  178.4620  141.3230 C   0  0  2  0  0  3  0  0  0  0  0  0
  185.8730  178.6250  142.6960 C   0  0  0  0  0  3  0  0  0  0  0  0
  188.6090  177.7600  141.7090 N   0  0  0  0  0  2  0  0  0  0  0  0
  184.5510  178.5080  142.6870 C   0  0  0  0  0  0  0  0  0  0  0  0
  186.3400  177.5930  136.2210 N   0  0  0  0  0  2  0  0  0  0  0  0
  186.8620  178.6530  137.0350 C   0  0  0  0  0  0  0  0  0  0  0  0
  187.5610  179.5450  136.4870 O   0  0  0  0  0  0  0  0  0  0  0  0
  185.4060  176.5690  136.6690 C   0  0  0  0  0  2  0  0  0  0  0  0
  185.9980  175.1820  136.4590 C   0  0  0  0  0  2  0  0  0  0  0  0
  185.2160  174.1280  137.2280 C   0  0  0  0  0  2  0  0  0  0  0  0
  184.4220  173.2560  136.2700 C   0  0  0  0  0  2  0  0  0  0  0  0
  183.0620  173.8320  136.0490 C   0  0  0  0  0  0  0  0  0  0  0  0
  182.5540  173.8940  134.8200 C   0  0  0  0  0  2  0  0  0  0  0  0
  182.2010  174.1370  137.2260 C   0  0  0  0  0  2  0  0  0  0  0  0
  181.2980  175.1530  136.9050 O   0  0  0  0  0  0  0  0  0  0  0  0
  181.2390  176.1560  138.2720 P   0  0  2  0  0  0  0  0  0  0  0  0
  182.5680  175.8160  139.2630 O   0  0  0  0  0  1  0  0  0  0  0  0
  179.9700  175.8850  139.0490 O   0  0  0  0  0  0  0  0  0  0  0  0
  181.2740  177.7880  137.8110 O   0  0  0  0  0  0  0  0  0  0  0  0
  180.4120  178.4380  138.6950 C   0  0  0  0  0  2  0  0  0  0  0  0
  182.3960  180.1650  138.7120 C   0  0  0  0  0  2  0  0  0  0  0  0
  181.0720  180.8420  138.3950 C   0  0  0  0  0  2  0  0  0  0  0  0
  181.1080  179.6420  139.3110 C   0  0  0  0  0  0  0  0  0  0  0  0
  180.8070  180.0030  140.6330 O   0  0  0  0  0  0  0  0  0  0  0  0
  180.0870  178.9390  141.1870 C   0  0  0  0  0  1  0  0  0  0  0  0
  189.3680  175.3040  136.3160 O   0  0  0  0  0  1  0  0  0  0  0  0
  189.9390  176.4420  136.7720 N   0  0  0  0  0  2  0  0  0  0  0  0
  190.8950  178.1010  142.5330 C   0  0  0  0  0  2  0  0  0  0  0  0
  192.1850  177.2990  142.4460 C   0  0  0  0  0  1  0  0  0  0  0  0
  183.6930  178.6360  143.9030 C   0  0  0  0  0  2  0  0  0  0  0  0
  184.5240  178.6540  145.1400 C   0  0  0  0  0  0  0  0  0  0  0  0
  184.0100  178.9990  146.2380 O   0  0  0  0  0  0  0  0  0  0  0  0
  185.8910  178.2440  145.0720 N   0  0  0  0  0  2  0  0  0  0  0  0
  186.7270  178.1960  146.2260 C   0  0  0  0  0  3  0  0  0  0  0  0
  188.0050  177.8580  146.1020 C   0  0  0  0  0  3  0  0  0  0  0  0
  188.1930  177.8690  148.4680 O   0  0  0  0  0  1  0  0  0  0  0  0
  188.9250  177.7880  147.2810 C   0  0  1  0  0  3  0  0  0  0  0  0
  189.7550  176.5100  147.2750 C   0  0  0  0  0  2  0  0  0  0  0  0
  191.1960  176.8110  147.0410 C   0  0  0  0  0  0  0  0  0  0  0  0
  191.6070  177.0700  145.8810 O   0  0  0  0  0  0  0  0  0  0  0  0
  192.0890  176.7920  148.1040 O   0  0  0  0  0  1  0  0  0  0  0  0
  1  4  1  0  0  0  0
  2 14  1  0  0  0  0
  2 39  1  1  0  0  0
  3 12  1  0  0  0  0
  3 14  1  1  0  0  0
  4  9  2  0  0  0  0
  4 12  1  0  0  0  0
  5 10  1  0  0  0  0
  6  5  1  1  0  0  0
  6  3  1  0  0  0  0
  7 10  2  0  0  0  0
  8 17  1  6  0  0  0
  8  1  1  0  0  0  0
  8  6  1  0  0  0  0
  9 15  1  0  0  0  0
 10 11  1  0  0  0  0
 11  2  1  0  0  0  0
 12 13  1  6  0  0  0
 15 13  2  0  0  0  0
 15 41  1  0  0  0  0
 16 19  1  0  0  0  0
 16 17  1  0  0  0  0
 18 17  2  0  0  0  0
 20 19  1  0  0  0  0
 20 21  1  0  0  0  0
 22 21  1  0  0  0  0
 23 22  1  0  0  0  0
 23 25  1  0  0  0  0
 24 23  2  0  0  0  0
 26 25  1  0  0  0  0
 26 27  1  0  0  0  0
 27 29  2  1  0  0  0
 27 28  1  0  0  0  0
 30 27  1  0  0  0  0
 30 31  1  0  0  0  0
 31 34  1  0  0  0  0
 32 34  1  0  0  0  0
 33 32  1  0  0  0  0
 33 34  1  0  0  0  0
 34 35  1  0  0  0  0
 35 36  1  0  0  0  0
 37 38  1  0  0  0  0
 38  7  1  0  0  0  0
 40 39  1  0  0  0  0
 41 42  1  0  0  0  0
 42 43  2  0  0  0  0
 44 42  1  0  0  0  0
 44 45  1  0  0  0  0
 46 45  2  0  0  0  0
 46 48  1  0  0  0  0
 48 47  1  1  0  0  0
 49 48  1  0  0  0  0
 50 49  1  0  0  0  0
 50 52  1  0  0  0  0
 51 50  2  0  0  0  0
M  END
>  <MODEL>
9

>  <REMARK>
 VINA RESULT:      -6.5      2.616      7.576
  Name = 
  21 active torsions:
  status: ('A' for Active; 'I' for Inactive)
    1  A    between atoms: N_1  and  C_15
    2  A    between atoms: C_4  and  C_25
    3  A    between atoms: C_5  and  C_35
    4  A    between atoms: C_5  and  C_51
    5  A    between atoms: C_7  and  C_30
    6  A    between atoms: C_7  and  C_50
    7  A    between atoms: O_8  and  P_19
    8  A    between atoms: O_8  and  C_38
    9  A    between atoms: O_10  and  P_19
   10  A    between atoms: O_10  and  C_40
   11  A    between atoms: C_11  and  C_40
   12  A    between atoms: C_11  and  C_50
   13  A    between atoms: C_12  and  C_48
   14  A    between atoms: C_13  and  N_42
   15  A    between atoms: C_15  and  C_30
   16  A    between atoms: C_17  and  N_22
   17  A    between atoms: C_21  and  C_39
   18  A    between atoms: C_31  and  O_34
   19  A    between atoms: C_31  and  C_38
   20  A    between atoms: C_43  and  C_52
   21  A    between atoms: C_48  and  C_52
                            x       y       z     vdW  Elec       q    Type
                         _______ _______ _______ _____ _____    ______ ____

>  <TORSDO>
F 21

$$$$
