=
 OpenBabel11042412173D

 34 37  0  0  1  0  0  0  0  0999 V2000
  187.2910  177.8560  145.6980 C   0  0  0  0  0  0  0  0  0  0  0  0
  186.0040  178.3900  145.8010 C   0  0  0  0  0  3  0  0  0  0  0  0
  189.4620  177.1930  146.5400 C   0  0  0  0  0  0  0  0  0  0  0  0
  185.3420  178.3950  144.5690 C   0  0  0  0  0  0  0  0  0  0  0  0
  192.0290  176.1430  146.1730 C   0  0  0  0  0  3  0  0  0  0  0  0
  188.1870  177.7330  146.7560 O   0  0  0  0  0  0  0  0  0  0  0  0
  188.9180  176.8660  144.1280 N   0  0  0  0  0  0  0  0  0  0  0  0
  186.3510  177.7190  143.3870 S   0  0  0  0  0  0  0  0  0  0  0  0
  190.3440  177.0930  147.6200 C   0  0  0  0  0  3  0  0  0  0  0  0
  191.6240  176.5700  147.4380 C   0  0  0  0  0  0  0  0  0  0  0  0
  187.6380  177.4410  144.4320 C   0  0  0  0  0  0  0  0  0  0  0  0
  191.1540  176.2360  145.0890 C   0  0  0  0  0  3  0  0  0  0  0  0
  192.4740  176.4760  148.4880 F   0  0  0  0  0  0  0  0  0  0  0  0
  189.8580  176.7560  145.2440 C   0  0  0  0  0  0  0  0  0  0  0  0
  183.3110  178.8460  143.0880 N   0  0  0  0  0  0  0  0  0  0  0  0
  183.9520  178.8560  144.3770 C   0  0  0  0  0  0  0  0  0  0  0  0
  183.3080  179.2610  145.3830 O   0  0  0  0  0  0  0  0  0  0  0  0
  184.0650  179.0300  141.8590 C   0  0  0  0  0  1  0  0  0  0  0  0
  179.2480  178.8990  142.8350 C   0  0  0  0  0  1  0  0  0  0  0  0
  181.9100  178.8640  143.0010 C   0  0  0  0  0  0  0  0  0  0  0  0
  180.7070  178.8800  142.9250 C   0  0  0  0  0  0  0  0  0  0  0  0
  189.1260  176.4590  142.7220 C   0  0  2  0  0  3  0  0  0  0  0  0
  190.5810  176.3360  142.3150 C   0  0  0  0  0  2  0  0  0  0  0  0
  189.7750  177.5590  141.9060 C   0  0  1  0  0  3  0  0  0  0  0  0
  189.3480  177.4180  140.4590 C   0  0  0  0  0  2  0  0  0  0  0  0
  188.1080  178.2570  140.2090 C   0  0  0  0  0  2  0  0  0  0  0  0
  187.6650  178.1230  138.7630 C   0  0  0  0  0  2  0  0  0  0  0  0
  188.9620  179.7480  137.5080 O   0  0  0  0  0  1  0  0  0  0  0  0
  188.8230  178.3880  137.8060 C   0  0  2  0  0  3  0  0  0  0  0  0
  188.7740  177.5730  136.6510 O   0  0  0  0  0  0  0  0  0  0  0  0
  191.3350  176.8290  137.5520 O   0  0  0  0  0  1  0  0  0  0  0  0
  190.3830  175.9030  135.1450 O   0  0  0  0  0  0  0  0  0  0  0  0
  189.9470  176.3270  136.7230 P   0  0  0  0  0  0  0  0  0  0  0  0
  189.3640  175.1140  137.4100 O   0  0  0  0  0  1  0  0  0  0  0  0
  1  2  1  0  0  0  0
  1  6  1  0  0  0  0
  3  6  1  0  0  0  0
  3  9  1  0  0  0  0
  4  2  2  0  0  0  0
  5 10  1  0  0  0  0
  7 11  1  0  0  0  0
  7 14  1  0  0  0  0
  8 11  1  0  0  0  0
  8  4  1  0  0  0  0
 10  9  2  0  0  0  0
 10 13  1  0  0  0  0
 11  1  2  0  0  0  0
 12 14  1  0  0  0  0
 12  5  2  0  0  0  0
 14  3  2  0  0  0  0
 15 16  1  0  0  0  0
 16  4  1  0  0  0  0
 16 17  2  0  0  0  0
 18 15  1  0  0  0  0
 19 21  1  0  0  0  0
 20 15  1  0  0  0  0
 21 20  3  0  0  0  0
 22 23  1  1  0  0  0
 22  7  1  0  0  0  0
 24 25  1  6  0  0  0
 24 23  1  0  0  0  0
 24 22  1  0  0  0  0
 26 25  1  0  0  0  0
 27 26  1  0  0  0  0
 29 28  1  6  0  0  0
 29 27  1  0  0  0  0
 30 33  1  0  0  0  0
 30 29  1  0  0  0  0
 32 33  2  0  0  0  0
 33 34  1  0  0  0  0
 33 31  1  0  0  0  0
M  END
>  <MODEL>
1

>  <REMARK>
 VINA RESULT:      -8.7      0.000      0.000
  Name = 
  9 active torsions:
  status: ('A' for Active; 'I' for Inactive)
    1  A    between atoms: C_4  and  N_14
    2  A    between atoms: N_5  and  C_16
    3  A    between atoms: C_10  and  C_26
    4  A    between atoms: C_10  and  C_34
    5  A    between atoms: C_11  and  C_20
    6  A    between atoms: O_17  and  P_22
    7  A    between atoms: O_17  and  C_26
    8  A    between atoms: C_18  and  C_28
    9  A    between atoms: C_28  and  C_34
                            x       y       z     vdW  Elec       q    Type
                         _______ _______ _______ _____ _____    ______ ____

>  <TORSDO>
F 9

$$$$
=
 OpenBabel11042412173D

 34 37  0  0  1  0  0  0  0  0999 V2000
  190.0040  177.0040  142.5440 C   0  0  0  0  0  0  0  0  0  0  0  0
  189.9650  176.9900  141.1480 C   0  0  0  0  0  3  0  0  0  0  0  0
  190.9740  176.5400  144.7140 C   0  0  0  0  0  0  0  0  0  0  0  0
  188.7940  177.5730  140.6540 C   0  0  0  0  0  0  0  0  0  0  0  0
  190.8940  176.6000  147.5100 C   0  0  0  0  0  3  0  0  0  0  0  0
  191.0410  176.4850  143.3150 O   0  0  0  0  0  0  0  0  0  0  0  0
  188.7690  177.6960  144.5660 N   0  0  0  0  0  0  0  0  0  0  0  0
  187.8460  178.1150  141.9500 S   0  0  0  0  0  0  0  0  0  0  0  0
  192.0240  175.9990  145.4610 C   0  0  0  0  0  3  0  0  0  0  0  0
  191.9850  176.0280  146.8550 C   0  0  0  0  0  0  0  0  0  0  0  0
  188.9090  177.5880  143.1410 C   0  0  0  0  0  0  0  0  0  0  0  0
  189.8420  177.1460  146.7720 C   0  0  0  0  0  3  0  0  0  0  0  0
  193.0050  175.5020  147.5730 F   0  0  0  0  0  0  0  0  0  0  0  0
  189.8560  177.1330  145.3670 C   0  0  0  0  0  0  0  0  0  0  0  0
  188.9470  176.8060  138.2230 N   0  0  0  0  0  0  0  0  0  0  0  0
  188.4940  177.7430  139.2180 C   0  0  0  0  0  0  0  0  0  0  0  0
  187.8110  178.7400  138.8600 O   0  0  0  0  0  0  0  0  0  0  0  0
  190.1850  176.0610  138.3830 C   0  0  0  0  0  1  0  0  0  0  0  0
  187.0880  176.6210  134.6050 C   0  0  0  0  0  1  0  0  0  0  0  0
  188.3060  176.7420  136.9760 C   0  0  0  0  0  0  0  0  0  0  0  0
  187.7570  176.6880  135.9040 C   0  0  0  0  0  0  0  0  0  0  0  0
  187.5400  178.3640  145.0450 C   0  0  2  0  0  3  0  0  0  0  0  0
  186.7350  177.5530  146.0410 C   0  0  0  0  0  2  0  0  0  0  0  0
  186.2890  177.6390  144.5890 C   0  0  1  0  0  3  0  0  0  0  0  0
  185.1560  178.6380  144.4700 C   0  0  0  0  0  2  0  0  0  0  0  0
  184.4560  178.4590  143.1350 C   0  0  0  0  0  2  0  0  0  0  0  0
  182.9640  178.6950  143.2880 C   0  0  0  0  0  2  0  0  0  0  0  0
  180.9140  178.5220  141.9980 O   0  0  0  0  0  1  0  0  0  0  0  0
  182.2820  178.8070  141.9270 C   0  0  2  0  0  3  0  0  0  0  0  0
  182.9480  178.0680  140.9210 O   0  0  0  0  0  0  0  0  0  0  0  0
  184.5200  179.9030  139.4770 O   0  0  0  0  0  1  0  0  0  0  0  0
  181.7760  180.0290  139.3640 O   0  0  0  0  0  1  0  0  0  0  0  0
  183.0990  178.9820  139.4810 P   0  0  0  0  0  0  0  0  0  0  0  0
  183.0970  178.0580  138.2850 O   0  0  0  0  0  0  0  0  0  0  0  0
  1 11  2  0  0  0  0
  1  6  1  0  0  0  0
  2  1  1  0  0  0  0
  3 14  2  0  0  0  0
  3  9  1  0  0  0  0
  4  2  2  0  0  0  0
  4  8  1  0  0  0  0
  6  3  1  0  0  0  0
  7 14  1  0  0  0  0
  8 11  1  0  0  0  0
  9 10  2  0  0  0  0
 10  5  1  0  0  0  0
 10 13  1  0  0  0  0
 11  7  1  0  0  0  0
 12  5  2  0  0  0  0
 14 12  1  0  0  0  0
 15 18  1  0  0  0  0
 15 16  1  0  0  0  0
 16  4  1  0  0  0  0
 17 16  2  0  0  0  0
 19 21  1  0  0  0  0
 20 15  1  0  0  0  0
 21 20  3  0  0  0  0
 22  7  1  6  0  0  0
 22 23  1  0  0  0  0
 24 25  1  1  0  0  0
 24 22  1  0  0  0  0
 24 23  1  0  0  0  0
 26 27  1  0  0  0  0
 26 25  1  0  0  0  0
 29 28  1  1  0  0  0
 29 27  1  0  0  0  0
 30 29  1  0  0  0  0
 31 33  1  0  0  0  0
 32 33  1  0  0  0  0
 33 30  1  0  0  0  0
 34 33  2  0  0  0  0
M  END
>  <MODEL>
2

>  <REMARK>
 VINA RESULT:      -8.6      3.045      6.254
  Name = 
  9 active torsions:
  status: ('A' for Active; 'I' for Inactive)
    1  A    between atoms: C_4  and  N_14
    2  A    between atoms: N_5  and  C_16
    3  A    between atoms: C_10  and  C_26
    4  A    between atoms: C_10  and  C_34
    5  A    between atoms: C_11  and  C_20
    6  A    between atoms: O_17  and  P_22
    7  A    between atoms: O_17  and  C_26
    8  A    between atoms: C_18  and  C_28
    9  A    between atoms: C_28  and  C_34
                            x       y       z     vdW  Elec       q    Type
                         _______ _______ _______ _____ _____    ______ ____

>  <TORSDO>
F 9

$$$$
=
 OpenBabel11042412173D

 34 37  0  0  1  0  0  0  0  0999 V2000
  185.1650  178.7450  139.9280 C   0  0  0  0  0  0  0  0  0  0  0  0
  184.2510  179.0040  138.9030 C   0  0  0  0  0  3  0  0  0  0  0  0
  187.3690  178.3460  140.8500 C   0  0  0  0  0  0  0  0  0  0  0  0
  182.9380  179.0650  139.3800 C   0  0  0  0  0  0  0  0  0  0  0  0
  189.0750  177.7810  142.9940 C   0  0  0  0  0  3  0  0  0  0  0  0
  186.5400  178.6200  139.7520 O   0  0  0  0  0  0  0  0  0  0  0  0
  185.3800  178.3480  142.3550 N   0  0  0  0  0  0  0  0  0  0  0  0
  182.9380  178.8220  141.0580 S   0  0  0  0  0  0  0  0  0  0  0  0
  188.7440  178.2130  140.6400 C   0  0  0  0  0  3  0  0  0  0  0  0
  189.5950  177.9310  141.7080 C   0  0  0  0  0  0  0  0  0  0  0  0
  184.6020  178.6150  141.1770 C   0  0  0  0  0  0  0  0  0  0  0  0
  187.7020  177.9150  143.2130 C   0  0  0  0  0  3  0  0  0  0  0  0
  190.9270  177.8030  141.4980 F   0  0  0  0  0  0  0  0  0  0  0  0
  186.8220  178.2020  142.1560 C   0  0  0  0  0  0  0  0  0  0  0  0
  181.5710  180.6600  137.9270 N   0  0  0  0  0  0  0  0  0  0  0  0
  181.7640  179.3700  138.5380 C   0  0  0  0  0  0  0  0  0  0  0  0
  180.9100  178.4620  138.3440 O   0  0  0  0  0  0  0  0  0  0  0  0
  182.0630  181.8790  138.5480 C   0  0  0  0  0  1  0  0  0  0  0  0
  179.1050  181.0410  134.7100 C   0  0  0  0  0  1  0  0  0  0  0  0
  180.7210  180.7910  136.8190 C   0  0  0  0  0  0  0  0  0  0  0  0
  179.9920  180.9040  135.8650 C   0  0  0  0  0  0  0  0  0  0  0  0
  184.6230  178.2520  143.6210 C   0  0  2  0  0  3  0  0  0  0  0  0
  183.8940  179.5220  144.0120 C   0  0  0  0  0  2  0  0  0  0  0  0
  185.2020  179.1520  144.6940 C   0  0  1  0  0  3  0  0  0  0  0  0
  184.9080  178.5520  146.0540 C   0  0  0  0  0  2  0  0  0  0  0  0
  186.1450  178.6400  146.9300 C   0  0  0  0  0  2  0  0  0  0  0  0
  187.1380  177.5570  146.5460 C   0  0  0  0  0  2  0  0  0  0  0  0
  187.7070  177.6890  148.9040 O   0  0  0  0  0  1  0  0  0  0  0  0
  188.1950  177.3710  147.6310 C   0  0  2  0  0  3  0  0  0  0  0  0
  189.4110  178.0270  147.3270 O   0  0  0  0  0  0  0  0  0  0  0  0
  191.9890  177.2790  148.1760 O   0  0  0  0  0  1  0  0  0  0  0  0
  191.2340  176.9450  145.5530 O   0  0  0  0  0  0  0  0  0  0  0  0
  190.6920  176.9040  147.1540 P   0  0  0  0  0  0  0  0  0  0  0  0
  190.1960  175.5100  147.4650 O   0  0  0  0  0  1  0  0  0  0  0  0
  1 11  2  0  0  0  0
  2  4  2  0  0  0  0
  2  1  1  0  0  0  0
  3 14  1  0  0  0  0
  4  8  1  0  0  0  0
  5 12  1  0  0  0  0
  6  1  1  0  0  0  0
  6  3  1  0  0  0  0
  8 11  1  0  0  0  0
  9  3  2  0  0  0  0
  9 10  1  0  0  0  0
 10  5  2  0  0  0  0
 11  7  1  0  0  0  0
 13 10  1  0  0  0  0
 14  7  1  0  0  0  0
 14 12  2  0  0  0  0
 15 16  1  0  0  0  0
 15 18  1  0  0  0  0
 16  4  1  0  0  0  0
 17 16  2  0  0  0  0
 19 21  1  0  0  0  0
 20 15  1  0  0  0  0
 21 20  3  0  0  0  0
 22  7  1  6  0  0  0
 22 23  1  0  0  0  0
 22 24  1  0  0  0  0
 23 24  1  0  0  0  0
 24 25  1  1  0  0  0
 25 26  1  0  0  0  0
 27 26  1  0  0  0  0
 27 29  1  0  0  0  0
 29 28  1  1  0  0  0
 30 29  1  0  0  0  0
 32 33  2  0  0  0  0
 33 30  1  0  0  0  0
 33 34  1  0  0  0  0
 33 31  1  0  0  0  0
M  END
>  <MODEL>
3

>  <REMARK>
 VINA RESULT:      -8.2      4.116      7.386
  Name = 
  9 active torsions:
  status: ('A' for Active; 'I' for Inactive)
    1  A    between atoms: C_4  and  N_14
    2  A    between atoms: N_5  and  C_16
    3  A    between atoms: C_10  and  C_26
    4  A    between atoms: C_10  and  C_34
    5  A    between atoms: C_11  and  C_20
    6  A    between atoms: O_17  and  P_22
    7  A    between atoms: O_17  and  C_26
    8  A    between atoms: C_18  and  C_28
    9  A    between atoms: C_28  and  C_34
                            x       y       z     vdW  Elec       q    Type
                         _______ _______ _______ _____ _____    ______ ____

>  <TORSDO>
F 9

$$$$
=
 OpenBabel11042412173D

 34 37  0  0  1  0  0  0  0  0999 V2000
  185.2800  178.5780  145.0990 C   0  0  0  0  0  0  0  0  0  0  0  0
  184.0410  179.0190  144.6300 C   0  0  0  0  0  3  0  0  0  0  0  0
  187.0220  178.2980  146.7590 C   0  0  0  0  0  0  0  0  0  0  0  0
  183.8460  178.6890  143.2850 C   0  0  0  0  0  0  0  0  0  0  0  0
  189.5510  177.3950  147.5460 C   0  0  0  0  0  3  0  0  0  0  0  0
  185.7540  178.7720  146.3940 O   0  0  0  0  0  0  0  0  0  0  0  0
  187.3440  177.3830  144.4610 N   0  0  0  0  0  0  0  0  0  0  0  0
  185.1970  177.8390  142.7140 S   0  0  0  0  0  0  0  0  0  0  0  0
  187.4750  178.5190  148.0630 C   0  0  0  0  0  3  0  0  0  0  0  0
  188.7360  178.0690  148.4560 C   0  0  0  0  0  0  0  0  0  0  0  0
  186.0410  177.9110  144.1660 C   0  0  0  0  0  0  0  0  0  0  0  0
  189.1050  177.1680  146.2420 C   0  0  0  0  0  3  0  0  0  0  0  0
  189.1690  178.2870  149.7200 F   0  0  0  0  0  0  0  0  0  0  0  0
  187.8390  177.6060  145.8200 C   0  0  0  0  0  0  0  0  0  0  0  0
  182.5410  178.8650  141.0970 N   0  0  0  0  0  0  0  0  0  0  0  0
  182.6110  178.9830  142.5300 C   0  0  0  0  0  0  0  0  0  0  0  0
  181.5850  179.3390  143.1710 O   0  0  0  0  0  0  0  0  0  0  0  0
  183.7020  179.1000  140.2540 C   0  0  0  0  0  1  0  0  0  0  0  0
  178.9310  178.4480  139.2620 C   0  0  0  0  0  1  0  0  0  0  0  0
  181.2970  178.7210  140.4650 C   0  0  0  0  0  0  0  0  0  0  0  0
  180.2270  178.5980  139.9220 C   0  0  0  0  0  0  0  0  0  0  0  0
  188.0220  176.6800  143.3520 C   0  0  2  0  0  3  0  0  0  0  0  0
  189.5270  176.5780  143.5020 C   0  0  0  0  0  2  0  0  0  0  0  0
  188.9230  177.6090  142.5620 C   0  0  1  0  0  3  0  0  0  0  0  0
  189.0210  177.1060  141.1360 C   0  0  0  0  0  2  0  0  0  0  0  0
  190.1630  177.8090  140.4240 C   0  0  0  0  0  2  0  0  0  0  0  0
  191.0390  176.7960  139.7080 C   0  0  0  0  0  2  0  0  0  0  0  0
  190.7980  175.0190  138.0700 O   0  0  0  0  0  1  0  0  0  0  0  0
  190.3770  176.3060  138.4240 C   0  0  2  0  0  3  0  0  0  0  0  0
  190.4930  177.2350  137.3630 O   0  0  0  0  0  0  0  0  0  0  0  0
  187.7160  177.1580  137.8180 O   0  0  0  0  0  1  0  0  0  0  0  0
  188.7020  177.6980  135.3080 O   0  0  0  0  0  0  0  0  0  0  0  0
  188.9700  177.9100  136.9640 P   0  0  0  0  0  0  0  0  0  0  0  0
  188.9700  179.3900  137.2720 O   0  0  0  0  0  1  0  0  0  0  0  0
  1  6  1  0  0  0  0
  2  1  1  0  0  0  0
  3  9  1  0  0  0  0
  4  2  2  0  0  0  0
  5 10  1  0  0  0  0
  6  3  1  0  0  0  0
  7 14  1  0  0  0  0
  8  4  1  0  0  0  0
  8 11  1  0  0  0  0
  9 10  2  0  0  0  0
 10 13  1  0  0  0  0
 11  7  1  0  0  0  0
 11  1  2  0  0  0  0
 12  5  2  0  0  0  0
 14 12  1  0  0  0  0
 14  3  2  0  0  0  0
 15 16  1  0  0  0  0
 16 17  2  0  0  0  0
 16  4  1  0  0  0  0
 18 15  1  0  0  0  0
 19 21  1  0  0  0  0
 20 15  1  0  0  0  0
 21 20  3  0  0  0  0
 22 23  1  1  0  0  0
 22  7  1  0  0  0  0
 24 25  1  6  0  0  0
 24 22  1  0  0  0  0
 24 23  1  0  0  0  0
 26 25  1  0  0  0  0
 27 26  1  0  0  0  0
 29 28  1  6  0  0  0
 29 27  1  0  0  0  0
 30 29  1  0  0  0  0
 32 33  2  0  0  0  0
 33 34  1  0  0  0  0
 33 30  1  0  0  0  0
 33 31  1  0  0  0  0
M  END
>  <MODEL>
4

>  <REMARK>
 VINA RESULT:      -8.2      1.884      2.698
  Name = 
  9 active torsions:
  status: ('A' for Active; 'I' for Inactive)
    1  A    between atoms: C_4  and  N_14
    2  A    between atoms: N_5  and  C_16
    3  A    between atoms: C_10  and  C_26
    4  A    between atoms: C_10  and  C_34
    5  A    between atoms: C_11  and  C_20
    6  A    between atoms: O_17  and  P_22
    7  A    between atoms: O_17  and  C_26
    8  A    between atoms: C_18  and  C_28
    9  A    between atoms: C_28  and  C_34
                            x       y       z     vdW  Elec       q    Type
                         _______ _______ _______ _____ _____    ______ ____

>  <TORSDO>
F 9

$$$$
=
 OpenBabel11042412173D

 34 37  0  0  1  0  0  0  0  0999 V2000
  184.9630  178.7070  140.7000 C   0  0  0  0  0  0  0  0  0  0  0  0
  186.0870  178.6700  139.8710 C   0  0  0  0  0  3  0  0  0  0  0  0
  182.6030  178.9600  141.1830 C   0  0  0  0  0  0  0  0  0  0  0  0
  187.2600  178.4390  140.5960 C   0  0  0  0  0  0  0  0  0  0  0  0
  180.4510  179.0520  142.9690 C   0  0  0  0  0  3  0  0  0  0  0  0
  183.6600  178.9300  140.2620 O   0  0  0  0  0  0  0  0  0  0  0  0
  184.2040  178.5050  143.0400 N   0  0  0  0  0  0  0  0  0  0  0  0
  186.8810  178.2620  142.2380 S   0  0  0  0  0  0  0  0  0  0  0  0
  181.3080  179.1980  140.7140 C   0  0  0  0  0  3  0  0  0  0  0  0
  180.2340  179.2440  141.6040 C   0  0  0  0  0  0  0  0  0  0  0  0
  185.2290  178.5030  142.0350 C   0  0  0  0  0  0  0  0  0  0  0  0
  181.7420  178.8110  143.4460 C   0  0  0  0  0  3  0  0  0  0  0  0
  178.9820  179.4750  141.1440 F   0  0  0  0  0  0  0  0  0  0  0  0
  182.8410  178.7560  142.5720 C   0  0  0  0  0  0  0  0  0  0  0  0
  189.5310  177.2870  140.4010 N   0  0  0  0  0  0  0  0  0  0  0  0
  188.5980  178.3010  139.9850 C   0  0  0  0  0  0  0  0  0  0  0  0
  188.9220  179.0950  139.0600 O   0  0  0  0  0  0  0  0  0  0  0  0
  189.5610  176.7920  141.7680 C   0  0  0  0  0  1  0  0  0  0  0  0
  192.5610  176.1680  137.9230 C   0  0  0  0  0  1  0  0  0  0  0  0
  190.5750  176.9010  139.5470 C   0  0  0  0  0  0  0  0  0  0  0  0
  191.4720  176.5690  138.8130 C   0  0  0  0  0  0  0  0  0  0  0  0
  184.6560  178.2550  144.4250 C   0  0  2  0  0  3  0  0  0  0  0  0
  183.7080  178.7600  145.4950 C   0  0  0  0  0  2  0  0  0  0  0  0
  184.9670  179.5440  145.1590 C   0  0  1  0  0  3  0  0  0  0  0  0
  186.0240  179.2710  146.2100 C   0  0  0  0  0  2  0  0  0  0  0  0
  186.6870  177.9340  145.9330 C   0  0  0  0  0  2  0  0  0  0  0  0
  187.7260  177.6310  146.9990 C   0  0  0  0  0  2  0  0  0  0  0  0
  188.9060  176.7570  145.0650 O   0  0  0  0  0  1  0  0  0  0  0  0
  189.0590  177.2350  146.3710 C   0  0  2  0  0  3  0  0  0  0  0  0
  189.8110  176.3640  147.1930 O   0  0  0  0  0  0  0  0  0  0  0  0
  192.1950  175.0690  146.4400 O   0  0  0  0  0  1  0  0  0  0  0  0
  192.2330  177.0690  148.3250 O   0  0  0  0  0  1  0  0  0  0  0  0
  191.4900  176.5370  146.9020 P   0  0  0  0  0  0  0  0  0  0  0  0
  191.7190  177.5670  145.8190 O   0  0  0  0  0  0  0  0  0  0  0  0
  1 11  2  0  0  0  0
  2  4  2  0  0  0  0
  2  1  1  0  0  0  0
  3 14  1  0  0  0  0
  4  8  1  0  0  0  0
  5 12  1  0  0  0  0
  6  1  1  0  0  0  0
  6  3  1  0  0  0  0
  9  3  2  0  0  0  0
  9 10  1  0  0  0  0
 10  5  2  0  0  0  0
 11  8  1  0  0  0  0
 11  7  1  0  0  0  0
 13 10  1  0  0  0  0
 14  7  1  0  0  0  0
 14 12  2  0  0  0  0
 15 18  1  0  0  0  0
 16 15  1  0  0  0  0
 16  4  1  0  0  0  0
 17 16  2  0  0  0  0
 19 21  1  0  0  0  0
 20 15  1  0  0  0  0
 21 20  3  0  0  0  0
 22  7  1  6  0  0  0
 22 24  1  0  0  0  0
 22 23  1  0  0  0  0
 24 23  1  0  0  0  0
 24 25  1  1  0  0  0
 26 25  1  0  0  0  0
 26 27  1  0  0  0  0
 29 28  1  6  0  0  0
 29 27  1  0  0  0  0
 29 30  1  0  0  0  0
 31 33  1  0  0  0  0
 33 30  1  0  0  0  0
 33 32  1  0  0  0  0
 34 33  2  0  0  0  0
M  END
>  <MODEL>
5

>  <REMARK>
 VINA RESULT:      -8.2      3.920      8.987
  Name = 
  9 active torsions:
  status: ('A' for Active; 'I' for Inactive)
    1  A    between atoms: C_4  and  N_14
    2  A    between atoms: N_5  and  C_16
    3  A    between atoms: C_10  and  C_26
    4  A    between atoms: C_10  and  C_34
    5  A    between atoms: C_11  and  C_20
    6  A    between atoms: O_17  and  P_22
    7  A    between atoms: O_17  and  C_26
    8  A    between atoms: C_18  and  C_28
    9  A    between atoms: C_28  and  C_34
                            x       y       z     vdW  Elec       q    Type
                         _______ _______ _______ _____ _____    ______ ____

>  <TORSDO>
F 9

$$$$
=
 OpenBabel11042412173D

 34 37  0  0  1  0  0  0  0  0999 V2000
  187.2540  177.8150  145.6390 C   0  0  0  0  0  0  0  0  0  0  0  0
  185.9740  178.3490  145.8110 C   0  0  0  0  0  3  0  0  0  0  0  0
  189.4510  177.1080  146.3740 C   0  0  0  0  0  0  0  0  0  0  0  0
  185.2690  178.4090  144.6050 C   0  0  0  0  0  0  0  0  0  0  0  0
  191.9970  176.0640  145.8720 C   0  0  0  0  0  3  0  0  0  0  0  0
  188.1870  177.6440  146.6590 O   0  0  0  0  0  0  0  0  0  0  0  0
  188.8190  176.8850  143.9720 N   0  0  0  0  0  0  0  0  0  0  0  0
  186.2310  177.7780  143.3600 S   0  0  0  0  0  0  0  0  0  0  0  0
  190.3700  176.9600  147.4170 C   0  0  0  0  0  3  0  0  0  0  0  0
  191.6400  176.4400  147.1670 C   0  0  0  0  0  0  0  0  0  0  0  0
  187.5530  177.4520  144.3450 C   0  0  0  0  0  0  0  0  0  0  0  0
  191.0840  176.2060  144.8250 C   0  0  0  0  0  3  0  0  0  0  0  0
  192.5260  176.2990  148.1810 F   0  0  0  0  0  0  0  0  0  0  0  0
  189.7970  176.7240  145.0480 C   0  0  0  0  0  0  0  0  0  0  0  0
  183.1540  178.8320  143.2380 N   0  0  0  0  0  0  0  0  0  0  0  0
  183.8760  178.8830  144.4820 C   0  0  0  0  0  0  0  0  0  0  0  0
  183.3030  179.3380  145.5100 O   0  0  0  0  0  0  0  0  0  0  0  0
  183.8310  178.9570  141.9570 C   0  0  0  0  0  1  0  0  0  0  0  0
  179.0840  178.9370  143.2390 C   0  0  0  0  0  1  0  0  0  0  0  0
  181.7510  178.8680  143.2380 C   0  0  0  0  0  0  0  0  0  0  0  0
  180.5460  178.9000  143.2380 C   0  0  0  0  0  0  0  0  0  0  0  0
  188.9740  176.5360  142.5440 C   0  0  2  0  0  3  0  0  0  0  0  0
  190.3900  176.6590  142.0200 C   0  0  0  0  0  2  0  0  0  0  0  0
  189.3650  177.7380  141.7080 C   0  0  1  0  0  3  0  0  0  0  0  0
  188.8480  177.5470  140.2970 C   0  0  0  0  0  2  0  0  0  0  0  0
  190.0060  177.6060  139.3160 C   0  0  0  0  0  2  0  0  0  0  0  0
  189.8600  176.5200  138.2650 C   0  0  0  0  0  2  0  0  0  0  0  0
  190.7550  176.4900  136.0080 O   0  0  0  0  0  1  0  0  0  0  0  0
  191.0910  176.4550  137.3660 C   0  0  2  0  0  3  0  0  0  0  0  0
  191.9510  175.3800  137.6940 O   0  0  0  0  0  0  0  0  0  0  0  0
  194.1370  176.7430  136.5590 O   0  0  0  0  0  0  0  0  0  0  0  0
  194.5470  174.5810  138.2060 O   0  0  0  0  0  1  0  0  0  0  0  0
  193.5590  175.9230  137.9220 P   0  0  0  0  0  0  0  0  0  0  0  0
  193.6250  176.8390  139.1230 O   0  0  0  0  0  1  0  0  0  0  0  0
  1  2  1  0  0  0  0
  1  6  1  0  0  0  0
  3  6  1  0  0  0  0
  3  9  1  0  0  0  0
  4  2  2  0  0  0  0
  5 10  1  0  0  0  0
  7 11  1  0  0  0  0
  7 14  1  0  0  0  0
  8 11  1  0  0  0  0
  8  4  1  0  0  0  0
 10  9  2  0  0  0  0
 10 13  1  0  0  0  0
 11  1  2  0  0  0  0
 12 14  1  0  0  0  0
 12  5  2  0  0  0  0
 14  3  2  0  0  0  0
 15 20  1  0  0  0  0
 15 16  1  0  0  0  0
 16  4  1  0  0  0  0
 16 17  2  0  0  0  0
 18 15  1  0  0  0  0
 20 21  3  0  0  0  0
 21 19  1  0  0  0  0
 22 23  1  1  0  0  0
 22  7  1  0  0  0  0
 24 25  1  6  0  0  0
 24 23  1  0  0  0  0
 24 22  1  0  0  0  0
 26 25  1  0  0  0  0
 27 26  1  0  0  0  0
 29 28  1  6  0  0  0
 29 30  1  0  0  0  0
 29 27  1  0  0  0  0
 30 33  1  0  0  0  0
 31 33  2  0  0  0  0
 33 32  1  0  0  0  0
 33 34  1  0  0  0  0
M  END
>  <MODEL>
6

>  <REMARK>
 VINA RESULT:      -8.1      1.418      1.968
  Name = 
  9 active torsions:
  status: ('A' for Active; 'I' for Inactive)
    1  A    between atoms: C_4  and  N_14
    2  A    between atoms: N_5  and  C_16
    3  A    between atoms: C_10  and  C_26
    4  A    between atoms: C_10  and  C_34
    5  A    between atoms: C_11  and  C_20
    6  A    between atoms: O_17  and  P_22
    7  A    between atoms: O_17  and  C_26
    8  A    between atoms: C_18  and  C_28
    9  A    between atoms: C_28  and  C_34
                            x       y       z     vdW  Elec       q    Type
                         _______ _______ _______ _____ _____    ______ ____

>  <TORSDO>
F 9

$$$$
=
 OpenBabel11042412173D

 34 37  0  0  1  0  0  0  0  0999 V2000
  187.5700  177.9780  138.6780 C   0  0  0  0  0  0  0  0  0  0  0  0
  186.2570  178.3430  138.3700 C   0  0  0  0  0  3  0  0  0  0  0  0
  189.8030  177.1910  138.1670 C   0  0  0  0  0  0  0  0  0  0  0  0
  185.5420  178.7240  139.5100 C   0  0  0  0  0  0  0  0  0  0  0  0
  192.3880  176.4490  138.9380 C   0  0  0  0  0  3  0  0  0  0  0  0
  188.5120  177.5450  137.7490 O   0  0  0  0  0  0  0  0  0  0  0  0
  189.1940  177.7430  140.5220 N   0  0  0  0  0  0  0  0  0  0  0  0
  186.5530  178.6250  140.8670 S   0  0  0  0  0  0  0  0  0  0  0  0
  190.7230  176.7480  137.2120 C   0  0  0  0  0  3  0  0  0  0  0  0
  192.0120  176.3780  137.5960 C   0  0  0  0  0  0  0  0  0  0  0  0
  187.8930  178.0750  140.0130 C   0  0  0  0  0  0  0  0  0  0  0  0
  191.4760  176.8920  139.8980 C   0  0  0  0  0  3  0  0  0  0  0  0
  192.8990  175.9500  136.6670 F   0  0  0  0  0  0  0  0  0  0  0  0
  190.1720  177.2740  139.5390 C   0  0  0  0  0  0  0  0  0  0  0  0
  183.0440  178.3820  139.9180 N   0  0  0  0  0  0  0  0  0  0  0  0
  184.1460  179.2050  139.4900 C   0  0  0  0  0  0  0  0  0  0  0  0
  183.9200  180.3800  139.0930 O   0  0  0  0  0  0  0  0  0  0  0  0
  183.0690  176.9360  139.7700 C   0  0  0  0  0  1  0  0  0  0  0  0
  179.5250  180.1070  141.0220 C   0  0  0  0  0  1  0  0  0  0  0  0
  181.8310  178.9760  140.2980 C   0  0  0  0  0  0  0  0  0  0  0  0
  180.7890  179.4870  140.6250 C   0  0  0  0  0  0  0  0  0  0  0  0
  189.3810  177.9170  141.9780 C   0  0  2  0  0  3  0  0  0  0  0  0
  190.0380  176.7390  142.6690 C   0  0  0  0  0  2  0  0  0  0  0  0
  188.5350  176.9450  142.7760 C   0  0  1  0  0  3  0  0  0  0  0  0
  188.2070  177.5640  144.1190 C   0  0  0  0  0  2  0  0  0  0  0  0
  186.8130  177.1420  144.5490 C   0  0  0  0  0  2  0  0  0  0  0  0
  186.5200  177.6460  145.9510 C   0  0  0  0  0  2  0  0  0  0  0  0
  185.6880  179.6570  147.0290 O   0  0  0  0  0  1  0  0  0  0  0  0
  185.5390  178.8150  145.9210 C   0  0  2  0  0  3  0  0  0  0  0  0
  184.2020  178.3990  145.7200 O   0  0  0  0  0  0  0  0  0  0  0  0
  181.9000  179.0030  144.2160 O   0  0  0  0  0  1  0  0  0  0  0  0
  184.1280  177.9550  142.9930 O   0  0  0  0  0  0  0  0  0  0  0  0
  183.5930  178.9780  144.2280 P   0  0  0  0  0  0  0  0  0  0  0  0
  184.1170  180.3720  143.9670 O   0  0  0  0  0  1  0  0  0  0  0  0
  1 11  2  0  0  0  0
  2  1  1  0  0  0  0
  2  4  2  0  0  0  0
  3 14  1  0  0  0  0
  4  8  1  0  0  0  0
  5 12  1  0  0  0  0
  6  3  1  0  0  0  0
  6  1  1  0  0  0  0
  9 10  1  0  0  0  0
  9  3  2  0  0  0  0
 10  5  2  0  0  0  0
 11  7  1  0  0  0  0
 11  8  1  0  0  0  0
 13 10  1  0  0  0  0
 14 12  2  0  0  0  0
 14  7  1  0  0  0  0
 15 20  1  0  0  0  0
 16  4  1  0  0  0  0
 16 15  1  0  0  0  0
 17 16  2  0  0  0  0
 18 15  1  0  0  0  0
 20 21  3  0  0  0  0
 21 19  1  0  0  0  0
 22  7  1  6  0  0  0
 22 23  1  0  0  0  0
 22 24  1  0  0  0  0
 23 24  1  0  0  0  0
 24 25  1  1  0  0  0
 25 26  1  0  0  0  0
 26 27  1  0  0  0  0
 29 27  1  0  0  0  0
 29 28  1  1  0  0  0
 30 29  1  0  0  0  0
 31 33  1  0  0  0  0
 32 33  2  0  0  0  0
 33 30  1  0  0  0  0
 34 33  1  0  0  0  0
M  END
>  <MODEL>
7

>  <REMARK>
 VINA RESULT:      -8.1      3.581      7.087
  Name = 
  9 active torsions:
  status: ('A' for Active; 'I' for Inactive)
    1  A    between atoms: C_4  and  N_14
    2  A    between atoms: N_5  and  C_16
    3  A    between atoms: C_10  and  C_26
    4  A    between atoms: C_10  and  C_34
    5  A    between atoms: C_11  and  C_20
    6  A    between atoms: O_17  and  P_22
    7  A    between atoms: O_17  and  C_26
    8  A    between atoms: C_18  and  C_28
    9  A    between atoms: C_28  and  C_34
                            x       y       z     vdW  Elec       q    Type
                         _______ _______ _______ _____ _____    ______ ____

>  <TORSDO>
F 9

$$$$
=
 OpenBabel11042412173D

 34 37  0  0  1  0  0  0  0  0999 V2000
  189.5660  177.3670  142.8000 C   0  0  0  0  0  0  0  0  0  0  0  0
  190.5320  177.1890  141.8060 C   0  0  0  0  0  3  0  0  0  0  0  0
  188.7750  177.5340  145.0830 C   0  0  0  0  0  0  0  0  0  0  0  0
  189.9760  177.2360  140.5250 C   0  0  0  0  0  0  0  0  0  0  0  0
  186.7270  177.8590  146.9610 C   0  0  0  0  0  3  0  0  0  0  0  0
  189.8230  177.3580  144.1680 O   0  0  0  0  0  0  0  0  0  0  0  0
  187.1620  177.7600  143.1940 N   0  0  0  0  0  0  0  0  0  0  0  0
  188.3090  177.5210  140.6460 S   0  0  0  0  0  0  0  0  0  0  0  0
  189.0620  177.5070  146.4500 C   0  0  0  0  0  3  0  0  0  0  0  0
  188.0420  177.6690  147.3880 C   0  0  0  0  0  0  0  0  0  0  0  0
  188.2880  177.5600  142.3270 C   0  0  0  0  0  0  0  0  0  0  0  0
  186.4310  177.8890  145.5970 C   0  0  0  0  0  3  0  0  0  0  0  0
  188.3260  177.6420  148.7110 F   0  0  0  0  0  0  0  0  0  0  0  0
  187.4400  177.7320  144.6310 C   0  0  0  0  0  0  0  0  0  0  0  0
  192.1870  176.9520  139.2800 N   0  0  0  0  0  0  0  0  0  0  0  0
  190.7580  177.1270  139.2770 C   0  0  0  0  0  0  0  0  0  0  0  0
  190.1460  177.1810  138.1760 O   0  0  0  0  0  0  0  0  0  0  0  0
  193.0210  177.4970  140.3380 C   0  0  0  0  0  1  0  0  0  0  0  0
  194.0570  175.4260  136.0010 C   0  0  0  0  0  1  0  0  0  0  0  0
  192.8320  176.4260  138.1500 C   0  0  0  0  0  0  0  0  0  0  0  0
  193.3860  175.9750  137.1790 C   0  0  0  0  0  0  0  0  0  0  0  0
  185.8600  177.9670  142.5260 C   0  0  2  0  0  3  0  0  0  0  0  0
  185.6560  179.3630  141.9710 C   0  0  0  0  0  2  0  0  0  0  0  0
  184.9900  178.9560  143.2770 C   0  0  1  0  0  3  0  0  0  0  0  0
  183.5340  178.6300  143.0180 C   0  0  0  0  0  2  0  0  0  0  0  0
  182.6590  179.3800  144.0050 C   0  0  0  0  0  2  0  0  0  0  0  0
  181.3620  178.6250  144.2390 C   0  0  0  0  0  2  0  0  0  0  0  0
  179.4630  179.9240  143.4620 O   0  0  0  0  0  1  0  0  0  0  0  0
  180.3560  178.9010  143.1250 C   0  0  2  0  0  3  0  0  0  0  0  0
  179.7060  177.7280  142.6750 O   0  0  0  0  0  0  0  0  0  0  0  0
  179.0340  178.9460  140.2270 O   0  0  0  0  0  0  0  0  0  0  0  0
  178.9320  176.2120  140.4970 O   0  0  0  0  0  1  0  0  0  0  0  0
  179.7610  177.6080  140.9670 P   0  0  0  0  0  0  0  0  0  0  0  0
  181.1970  177.5000  140.5080 O   0  0  0  0  0  1  0  0  0  0  0  0
  1  6  1  0  0  0  0
  2  1  1  0  0  0  0
  3  9  1  0  0  0  0
  4  8  1  0  0  0  0
  4  2  2  0  0  0  0
  5 10  1  0  0  0  0
  6  3  1  0  0  0  0
  7 14  1  0  0  0  0
  8 11  1  0  0  0  0
  9 10  2  0  0  0  0
 10 13  1  0  0  0  0
 11  1  2  0  0  0  0
 11  7  1  0  0  0  0
 12  5  2  0  0  0  0
 14  3  2  0  0  0  0
 14 12  1  0  0  0  0
 15 18  1  0  0  0  0
 16 15  1  0  0  0  0
 16  4  1  0  0  0  0
 17 16  2  0  0  0  0
 19 21  1  0  0  0  0
 20 15  1  0  0  0  0
 21 20  3  0  0  0  0
 22 23  1  6  0  0  0
 22  7  1  0  0  0  0
 22 24  1  0  0  0  0
 23 24  1  0  0  0  0
 24 25  1  6  0  0  0
 25 26  1  0  0  0  0
 26 27  1  0  0  0  0
 29 28  1  1  0  0  0
 29 27  1  0  0  0  0
 30 29  1  0  0  0  0
 31 33  2  0  0  0  0
 32 33  1  0  0  0  0
 33 30  1  0  0  0  0
 34 33  1  0  0  0  0
M  END
>  <MODEL>
8

>  <REMARK>
 VINA RESULT:      -7.9      3.836      8.254
  Name = 
  9 active torsions:
  status: ('A' for Active; 'I' for Inactive)
    1  A    between atoms: C_4  and  N_14
    2  A    between atoms: N_5  and  C_16
    3  A    between atoms: C_10  and  C_26
    4  A    between atoms: C_10  and  C_34
    5  A    between atoms: C_11  and  C_20
    6  A    between atoms: O_17  and  P_22
    7  A    between atoms: O_17  and  C_26
    8  A    between atoms: C_18  and  C_28
    9  A    between atoms: C_28  and  C_34
                            x       y       z     vdW  Elec       q    Type
                         _______ _______ _______ _____ _____    ______ ____

>  <TORSDO>
F 9

$$$$
=
 OpenBabel11042412173D

 34 37  0  0  1  0  0  0  0  0999 V2000
  188.9310  177.2520  142.9770 C   0  0  0  0  0  0  0  0  0  0  0  0
  189.7870  176.8280  141.9570 C   0  0  0  0  0  3  0  0  0  0  0  0
  188.2200  177.5030  145.2790 C   0  0  0  0  0  0  0  0  0  0  0  0
  189.2960  177.1660  140.6920 C   0  0  0  0  0  0  0  0  0  0  0  0
  186.3910  178.3710  147.2100 C   0  0  0  0  0  3  0  0  0  0  0  0
  189.1520  177.0460  144.3370 O   0  0  0  0  0  0  0  0  0  0  0  0
  186.8080  178.4230  143.4410 N   0  0  0  0  0  0  0  0  0  0  0  0
  187.8310  178.0020  140.8630 S   0  0  0  0  0  0  0  0  0  0  0  0
  188.4650  177.2710  146.6360 C   0  0  0  0  0  3  0  0  0  0  0  0
  187.5530  177.7030  147.5990 C   0  0  0  0  0  0  0  0  0  0  0  0
  187.8050  177.9130  142.5420 C   0  0  0  0  0  0  0  0  0  0  0  0
  186.1410  178.6090  145.8570 C   0  0  0  0  0  3  0  0  0  0  0  0
  187.7950  177.4750  148.9110 F   0  0  0  0  0  0  0  0  0  0  0  0
  187.0430  178.1880  144.8660 C   0  0  0  0  0  0  0  0  0  0  0  0
  191.4400  176.7680  139.3620 N   0  0  0  0  0  0  0  0  0  0  0  0
  190.0070  176.8910  139.4270 C   0  0  0  0  0  0  0  0  0  0  0  0
  189.3270  176.7490  138.3740 O   0  0  0  0  0  0  0  0  0  0  0  0
  192.3100  177.5020  140.2660 C   0  0  0  0  0  1  0  0  0  0  0  0
  193.1760  174.8140  136.2410 C   0  0  0  0  0  1  0  0  0  0  0  0
  192.0380  176.0950  138.2870 C   0  0  0  0  0  0  0  0  0  0  0  0
  192.5530  175.5160  137.3630 C   0  0  0  0  0  0  0  0  0  0  0  0
  185.6680  179.1220  142.8120 C   0  0  2  0  0  3  0  0  0  0  0  0
  184.4480  179.2570  143.7010 C   0  0  0  0  0  2  0  0  0  0  0  0
  184.4830  178.2000  142.6090 C   0  0  1  0  0  3  0  0  0  0  0  0
  183.6800  178.6820  141.4180 C   0  0  0  0  0  2  0  0  0  0  0  0
  184.0560  177.8750  140.1880 C   0  0  0  0  0  2  0  0  0  0  0  0
  184.5560  178.7950  139.0880 C   0  0  0  0  0  2  0  0  0  0  0  0
  186.4690  178.7660  137.5930 O   0  0  0  0  0  1  0  0  0  0  0  0
  185.3770  178.0260  138.0580 C   0  0  2  0  0  3  0  0  0  0  0  0
  184.5830  177.4990  137.0120 O   0  0  0  0  0  0  0  0  0  0  0  0
  183.8050  174.9530  137.9280 O   0  0  0  0  0  1  0  0  0  0  0  0
  186.4160  175.4390  137.2160 O   0  0  0  0  0  1  0  0  0  0  0  0
  184.8040  175.8070  136.8610 P   0  0  0  0  0  0  0  0  0  0  0  0
  184.5070  175.3760  135.4430 O   0  0  0  0  0  0  0  0  0  0  0  0
  1  6  1  0  0  0  0
  2  1  1  0  0  0  0
  3  9  1  0  0  0  0
  4  8  1  0  0  0  0
  4  2  2  0  0  0  0
  5 10  1  0  0  0  0
  6  3  1  0  0  0  0
  7 14  1  0  0  0  0
  8 11  1  0  0  0  0
  9 10  2  0  0  0  0
 10 13  1  0  0  0  0
 11  1  2  0  0  0  0
 11  7  1  0  0  0  0
 12  5  2  0  0  0  0
 14  3  2  0  0  0  0
 14 12  1  0  0  0  0
 15 16  1  0  0  0  0
 15 18  1  0  0  0  0
 16  4  1  0  0  0  0
 17 16  2  0  0  0  0
 19 21  1  0  0  0  0
 20 15  1  0  0  0  0
 21 20  3  0  0  0  0
 22  7  1  1  0  0  0
 22 23  1  0  0  0  0
 24 25  1  6  0  0  0
 24 22  1  0  0  0  0
 24 23  1  0  0  0  0
 26 25  1  0  0  0  0
 27 26  1  0  0  0  0
 29 28  1  6  0  0  0
 29 27  1  0  0  0  0
 30 29  1  0  0  0  0
 33 30  1  0  0  0  0
 33 32  1  0  0  0  0
 33 31  1  0  0  0  0
 34 33  2  0  0  0  0
M  END
>  <MODEL>
9

>  <REMARK>
 VINA RESULT:      -7.8      3.038      6.511
  Name = 
  9 active torsions:
  status: ('A' for Active; 'I' for Inactive)
    1  A    between atoms: C_4  and  N_14
    2  A    between atoms: N_5  and  C_16
    3  A    between atoms: C_10  and  C_26
    4  A    between atoms: C_10  and  C_34
    5  A    between atoms: C_11  and  C_20
    6  A    between atoms: O_17  and  P_22
    7  A    between atoms: O_17  and  C_26
    8  A    between atoms: C_18  and  C_28
    9  A    between atoms: C_28  and  C_34
                            x       y       z     vdW  Elec       q    Type
                         _______ _______ _______ _____ _____    ______ ____

>  <TORSDO>
F 9

$$$$
