=
 OpenBabel11032420383D

 27 32  0  0  1  0  0  0  0  0999 V2000
  180.6480  175.6140  138.1350 C   0  0  0  0  0  0  0  0  0  0  0  0
  183.5330  178.4920  140.5000 C   0  0  1  0  0  0  0  0  0  0  0  0
  183.7920  179.4680  139.3580 C   0  0  0  0  0  2  0  0  0  0  0  0
  183.2200  179.0100  141.7370 C   0  0  0  0  0  2  0  0  0  0  0  0
  183.4120  177.0640  137.4270 C   0  0  0  0  0  1  0  0  0  0  0  0
  181.8660  177.0700  139.4410 N   0  0  1  0  0  0  0  0  0  0  0  0
  183.1110  177.0620  140.2020 C   0  0  0  0  0  2  0  0  0  0  0  0
  182.0320  177.4140  138.0010 C   0  0  1  0  0  0  0  0  0  0  0  0
  181.7280  178.8970  137.7840 C   0  0  0  0  0  2  0  0  0  0  0  0
  181.2490  175.7430  139.4730 C   0  0  0  0  0  2  0  0  0  0  0  0
  181.0780  176.6270  137.3110 O   0  0  0  0  0  0  0  0  0  0  0  0
  182.5230  179.8520  138.6450 C   0  0  0  0  0  0  0  0  0  0  0  0
  184.6230  178.5380  141.5100 N   0  0  0  0  0  0  0  0  0  0  0  0
  182.1260  181.1190  138.7070 C   0  0  0  0  0  2  0  0  0  0  0  0
  179.8130  174.6590  137.7590 C   0  0  0  0  0  2  0  0  0  0  0  0
  186.6210  177.6350  145.6630 C   0  0  0  0  0  3  0  0  0  0  0  0
  187.8040  177.8840  143.1280 C   0  0  1  0  0  3  0  0  0  0  0  0
  186.4260  178.0430  143.2200 C   0  0  0  0  0  0  0  0  0  0  0  0
  185.9630  178.3040  141.9260 C   0  0  0  0  0  0  0  0  0  0  0  0
  187.3240  178.4590  139.8310 N   0  0  0  0  0  0  0  0  0  0  0  0
  189.2270  178.0320  141.0330 C   0  0  0  0  0  3  0  0  0  0  0  0
  185.6740  177.9350  144.5130 C   0  0  0  0  0  3  0  0  0  0  0  0
  188.6800  178.2980  139.7650 C   0  0  0  0  0  3  0  0  0  0  0  0
  187.9510  177.4930  145.5020 C   0  0  0  0  0  3  0  0  0  0  0  0
  187.0940  178.2850  141.1390 C   0  0  0  0  0  0  0  0  0  0  0  0
  188.5880  177.6210  144.1700 C   0  0  0  0  0  3  0  0  0  0  0  0
  188.1670  178.0390  141.8460 N   0  0  0  0  0  0  0  0  0  0  0  0
  1 10  1  0  0  0  0
  2  3  1  6  0  0  0
  2 13  1  0  0  0  0
  2  4  1  0  0  0  0
  6 10  1  6  0  0  0
  6  7  1  0  0  0  0
  7  2  1  0  0  0  0
  8  5  1  6  0  0  0
  8  6  1  0  0  0  0
  9  8  1  0  0  0  0
  9 12  1  0  0  0  0
 11  8  1  0  0  0  0
 11  1  1  0  0  0  0
 12 14  2  0  0  0  0
 12  3  1  0  0  0  0
 13  4  1  0  0  0  0
 13 19  1  0  0  0  0
 15  1  2  0  0  0  0
 17 18  1  0  0  0  0
 17 26  1  6  0  0  0
 18 22  1  0  0  0  0
 19 18  2  0  0  0  0
 20 25  2  0  0  0  0
 21 27  1  0  0  0  0
 22 16  2  0  0  0  0
 23 20  1  0  0  0  0
 23 21  2  0  0  0  0
 24 16  1  0  0  0  0
 25 27  1  0  0  0  0
 25 19  1  0  0  0  0
 26 24  2  0  0  0  0
 27 17  1  0  0  0  0
M  END
>  <MODEL>
1

>  <REMARK>
 VINA RESULT:      -8.0      0.000      0.000
  Name = 
  1 active torsions:
  status: ('A' for Active; 'I' for Inactive)
    1  A    between atoms: C_5  and  N_23
                            x       y       z     vdW  Elec       q    Type
                         _______ _______ _______ _____ _____    ______ ____

>  <TORSDO>
F 1

$$$$
=
 OpenBabel11032420383D

 27 32  0  0  1  0  0  0  0  0999 V2000
  185.4990  176.7470  135.4050 C   0  0  0  0  0  0  0  0  0  0  0  0
  188.7740  177.4760  138.7140 C   0  0  1  0  0  0  0  0  0  0  0  0
  189.6680  176.2980  138.3470 C   0  0  0  0  0  2  0  0  0  0  0  0
  189.3680  178.7020  138.9180 C   0  0  0  0  0  2  0  0  0  0  0  0
  187.0900  174.8340  137.4180 C   0  0  0  0  0  1  0  0  0  0  0  0
  187.1460  177.3210  136.9100 N   0  0  1  0  0  0  0  0  0  0  0  0
  187.2960  177.4550  138.3560 C   0  0  0  0  0  2  0  0  0  0  0  0
  187.3810  175.9430  136.3970 C   0  0  1  0  0  0  0  0  0  0  0  0
  188.8140  175.8200  135.8760 C   0  0  0  0  0  2  0  0  0  0  0  0
  185.7840  177.6770  136.5110 C   0  0  0  0  0  2  0  0  0  0  0  0
  186.4700  175.7760  135.3250 O   0  0  0  0  0  0  0  0  0  0  0  0
  189.8950  176.2020  136.8630 C   0  0  0  0  0  0  0  0  0  0  0  0
  188.9850  177.9000  140.1230 N   0  0  0  0  0  0  0  0  0  0  0  0
  191.1290  176.3800  136.4030 C   0  0  0  0  0  2  0  0  0  0  0  0
  184.4560  176.8180  134.5940 C   0  0  0  0  0  2  0  0  0  0  0  0
  185.4930  178.3240  143.2340 C   0  0  0  0  0  3  0  0  0  0  0  0
  188.1590  177.5360  143.6380 C   0  0  0  0  0  0  0  0  0  0  0  0
  187.7650  177.8590  142.3430 C   0  0  0  0  0  0  0  0  0  0  0  0
  188.8880  177.6920  141.5280 C   0  0  0  0  0  0  0  0  0  0  0  0
  191.1750  176.9540  142.2270 N   0  0  0  0  0  0  0  0  0  0  0  0
  190.4590  176.7860  144.3970 C   0  0  0  0  0  3  0  0  0  0  0  0
  186.3720  178.2940  141.9960 C   0  0  0  0  0  2  0  0  0  0  0  0
  191.5390  176.6410  143.5070 C   0  0  0  0  0  3  0  0  0  0  0  0
  185.9410  177.9970  144.4630 C   0  0  0  0  0  3  0  0  0  0  0  0
  189.8850  177.2790  142.3840 C   0  0  0  0  0  0  0  0  0  0  0  0
  187.3440  177.5790  144.6890 C   0  0  0  0  0  3  0  0  0  0  0  0
  189.4540  177.1890  143.6160 N   0  0  0  0  0  0  0  0  0  0  0  0
  1 10  1  0  0  0  0
  2  3  1  6  0  0  0
  2  4  1  0  0  0  0
  2 13  1  0  0  0  0
  4 13  1  0  0  0  0
  6 10  1  1  0  0  0
  6  7  1  0  0  0  0
  7  2  1  0  0  0  0
  8  6  1  0  0  0  0
  8  5  1  1  0  0  0
  9  8  1  0  0  0  0
  9 12  1  0  0  0  0
 11  1  1  0  0  0  0
 11  8  1  0  0  0  0
 12  3  1  0  0  0  0
 13 19  1  0  0  0  0
 14 12  2  0  0  0  0
 15  1  2  0  0  0  0
 16 24  2  0  0  0  0
 17 26  2  0  0  0  0
 18 17  1  0  0  0  0
 19 18  2  0  0  0  0
 19 25  1  0  0  0  0
 20 25  2  0  0  0  0
 20 23  1  0  0  0  0
 22 18  1  0  0  0  0
 22 16  1  0  0  0  0
 23 21  2  0  0  0  0
 24 26  1  0  0  0  0
 25 27  1  0  0  0  0
 27 17  1  0  0  0  0
 27 21  1  0  0  0  0
M  END
>  <MODEL>
2

>  <REMARK>
 VINA RESULT:      -7.7      3.565      5.243
  Name = 
  1 active torsions:
  status: ('A' for Active; 'I' for Inactive)
    1  A    between atoms: C_5  and  N_23
                            x       y       z     vdW  Elec       q    Type
                         _______ _______ _______ _____ _____    ______ ____

>  <TORSDO>
F 1

$$$$
=
 OpenBabel11032420383D

 27 32  0  0  1  0  0  0  0  0999 V2000
  190.4220  177.3830  142.9430 C   0  0  0  0  0  0  0  0  0  0  0  0
  185.9280  178.7160  143.4240 C   0  0  1  0  0  0  0  0  0  0  0  0
  185.6210  177.8780  144.6610 C   0  0  0  0  0  2  0  0  0  0  0  0
  185.5380  180.0370  143.4240 C   0  0  0  0  0  2  0  0  0  0  0  0
  187.7000  175.8300  143.5940 C   0  0  0  0  0  1  0  0  0  0  0  0
  188.3110  178.2650  143.2160 N   0  0  1  0  0  0  0  0  0  0  0  0
  187.0490  178.3070  142.4820 C   0  0  0  0  0  2  0  0  0  0  0  0
  188.4770  177.0620  144.0780 C   0  0  1  0  0  0  0  0  0  0  0  0
  188.0910  177.3990  145.5190 C   0  0  0  0  0  2  0  0  0  0  0  0
  189.4360  178.2530  142.2800 C   0  0  0  0  0  2  0  0  0  0  0  0
  189.8550  176.7400  144.0180 O   0  0  0  0  0  0  0  0  0  0  0  0
  186.7070  177.9830  145.6970 C   0  0  0  0  0  0  0  0  0  0  0  0
  184.6880  179.0550  142.6780 N   0  0  0  0  0  0  0  0  0  0  0  0
  186.4100  178.5450  146.8640 C   0  0  0  0  0  2  0  0  0  0  0  0
  191.6800  177.2260  142.5670 C   0  0  0  0  0  2  0  0  0  0  0  0
  180.0850  178.6700  143.5200 C   0  0  0  0  0  3  0  0  0  0  0  0
  181.5050  178.2480  141.1340 C   0  0  1  0  0  3  0  0  0  0  0  0
  182.2260  178.6280  142.2610 C   0  0  0  0  0  0  0  0  0  0  0  0
  183.5680  178.7040  141.8740 C   0  0  0  0  0  0  0  0  0  0  0  0
  184.5200  178.2530  139.6040 N   0  0  0  0  0  0  0  0  0  0  0  0
  182.4220  177.7790  138.8160 C   0  0  0  0  0  3  0  0  0  0  0  0
  181.5870  178.8830  143.5940 C   0  0  0  0  0  3  0  0  0  0  0  0
  183.7910  177.8800  138.5090 C   0  0  0  0  0  3  0  0  0  0  0  0
  179.4490  178.3000  142.3900 C   0  0  0  0  0  3  0  0  0  0  0  0
  183.5670  178.3650  140.5390 C   0  0  0  0  0  0  0  0  0  0  0  0
  180.1870  178.0750  141.1260 C   0  0  0  0  0  3  0  0  0  0  0  0
  182.3600  178.0990  140.1110 N   0  0  0  0  0  0  0  0  0  0  0  0
  1 11  1  0  0  0  0
  2  7  1  6  0  0  0
  2  4  1  0  0  0  0
  2  3  1  0  0  0  0
  3 12  1  0  0  0  0
  6 10  1  6  0  0  0
  6  8  1  0  0  0  0
  7  6  1  0  0  0  0
  8  5  1  6  0  0  0
  8  9  1  0  0  0  0
  9 12  1  0  0  0  0
 10  1  1  0  0  0  0
 11  8  1  0  0  0  0
 12 14  2  0  0  0  0
 13  2  1  0  0  0  0
 13  4  1  0  0  0  0
 15  1  2  0  0  0  0
 16 22  2  0  0  0  0
 17 26  1  6  0  0  0
 17 18  1  0  0  0  0
 18 22  1  0  0  0  0
 19 18  2  0  0  0  0
 19 13  1  0  0  0  0
 20 25  2  0  0  0  0
 21 27  1  0  0  0  0
 23 21  2  0  0  0  0
 23 20  1  0  0  0  0
 24 16  1  0  0  0  0
 25 19  1  0  0  0  0
 26 24  2  0  0  0  0
 27 25  1  0  0  0  0
 27 17  1  0  0  0  0
M  END
>  <MODEL>
3

>  <REMARK>
 VINA RESULT:      -7.6      2.806      7.374
  Name = 
  1 active torsions:
  status: ('A' for Active; 'I' for Inactive)
    1  A    between atoms: C_5  and  N_23
                            x       y       z     vdW  Elec       q    Type
                         _______ _______ _______ _____ _____    ______ ____

>  <TORSDO>
F 1

$$$$
=
 OpenBabel11032420383D

 27 32  0  0  1  0  0  0  0  0999 V2000
  180.5500  181.1640  138.1420 C   0  0  0  0  0  0  0  0  0  0  0  0
  184.1510  178.5020  139.6110 C   0  0  1  0  0  0  0  0  0  0  0  0
  183.4510  177.1550  139.4660 C   0  0  0  0  0  2  0  0  0  0  0  0
  185.4260  178.6280  139.1060 C   0  0  0  0  0  2  0  0  0  0  0  0
  180.7980  178.6430  140.0980 C   0  0  0  0  0  1  0  0  0  0  0  0
  182.4360  179.9470  138.6630 N   0  0  1  0  0  0  0  0  0  0  0  0
  183.3340  179.7710  139.8010 C   0  0  0  0  0  2  0  0  0  0  0  0
  181.2360  179.0660  138.6880 C   0  0  1  0  0  0  0  0  0  0  0  0
  181.4790  177.8320  137.8170 C   0  0  0  0  0  2  0  0  0  0  0  0
  181.9310  181.3200  138.6300 C   0  0  0  0  0  2  0  0  0  0  0  0
  180.1860  179.8380  138.1360 O   0  0  0  0  0  0  0  0  0  0  0  0
  182.7200  177.0370  138.1560 C   0  0  0  0  0  0  0  0  0  0  0  0
  185.2730  178.4290  140.5830 N   0  0  0  0  0  0  0  0  0  0  0  0
  183.1380  176.1250  137.2830 C   0  0  0  0  0  2  0  0  0  0  0  0
  179.7560  182.1520  137.7630 C   0  0  0  0  0  2  0  0  0  0  0  0
  183.4300  178.9770  144.8670 C   0  0  0  0  0  3  0  0  0  0  0  0
  186.0310  178.2190  144.1250 C   0  0  0  0  0  0  0  0  0  0  0  0
  185.1160  178.4820  143.1110 C   0  0  0  0  0  0  0  0  0  0  0  0
  185.7890  178.2840  141.9010 C   0  0  0  0  0  0  0  0  0  0  0  0
  188.1720  177.5880  141.5860 N   0  0  0  0  0  0  0  0  0  0  0  0
  188.4520  177.5140  143.8590 C   0  0  0  0  0  3  0  0  0  0  0  0
  183.6990  178.8950  143.3740 C   0  0  0  0  0  2  0  0  0  0  0  0
  189.0540  177.3340  142.6000 C   0  0  0  0  0  3  0  0  0  0  0  0
  184.3660  178.7070  145.7980 C   0  0  0  0  0  3  0  0  0  0  0  0
  187.0650  177.9140  142.2660 C   0  0  0  0  0  0  0  0  0  0  0  0
  185.7410  178.3060  145.4200 C   0  0  0  0  0  3  0  0  0  0  0  0
  187.2010  177.8780  143.5660 N   0  0  0  0  0  0  0  0  0  0  0  0
  1 10  1  0  0  0  0
  2  4  1  6  0  0  0
  2  7  1  0  0  0  0
  2 13  1  0  0  0  0
  3  2  1  0  0  0  0
  4 13  1  0  0  0  0
  6 10  1  1  0  0  0
  6  8  1  0  0  0  0
  6  7  1  0  0  0  0
  8  5  1  1  0  0  0
  9 12  1  0  0  0  0
  9  8  1  0  0  0  0
 11  1  1  0  0  0  0
 11  8  1  0  0  0  0
 12  3  1  0  0  0  0
 13 19  1  0  0  0  0
 14 12  2  0  0  0  0
 15  1  2  0  0  0  0
 16 24  2  0  0  0  0
 17 26  2  0  0  0  0
 18 22  1  0  0  0  0
 18 17  1  0  0  0  0
 19 25  1  0  0  0  0
 19 18  2  0  0  0  0
 20 25  2  0  0  0  0
 20 23  1  0  0  0  0
 22 16  1  0  0  0  0
 23 21  2  0  0  0  0
 25 27  1  0  0  0  0
 26 24  1  0  0  0  0
 27 21  1  0  0  0  0
 27 17  1  0  0  0  0
M  END
>  <MODEL>
4

>  <REMARK>
 VINA RESULT:      -7.5      1.737      3.348
  Name = 
  1 active torsions:
  status: ('A' for Active; 'I' for Inactive)
    1  A    between atoms: C_5  and  N_23
                            x       y       z     vdW  Elec       q    Type
                         _______ _______ _______ _____ _____    ______ ____

>  <TORSDO>
F 1

$$$$
=
 OpenBabel11032420383D

 27 32  0  0  1  0  0  0  0  0999 V2000
  180.6950  181.0670  137.6550 C   0  0  0  0  0  0  0  0  0  0  0  0
  184.0270  178.4890  139.7660 C   0  0  1  0  0  0  0  0  0  0  0  0
  183.3790  177.1290  139.5330 C   0  0  0  0  0  2  0  0  0  0  0  0
  185.3670  178.6250  139.4810 C   0  0  0  0  0  2  0  0  0  0  0  0
  180.6390  178.5870  139.6770 C   0  0  0  0  0  1  0  0  0  0  0  0
  182.4800  179.8890  138.5120 N   0  0  1  0  0  0  0  0  0  0  0  0
  183.1750  179.7490  139.7880 C   0  0  0  0  0  2  0  0  0  0  0  0
  181.3040  178.9900  138.3530 C   0  0  1  0  0  0  0  0  0  0  0  0
  181.7060  177.7440  137.5610 C   0  0  0  0  0  2  0  0  0  0  0  0
  181.9710  181.2540  138.3650 C   0  0  0  0  0  2  0  0  0  0  0  0
  180.3520  179.7360  137.6150 O   0  0  0  0  0  0  0  0  0  0  0  0
  182.8810  176.9750  138.1210 C   0  0  0  0  0  0  0  0  0  0  0  0
  184.9700  178.4520  140.9140 N   0  0  0  0  0  0  0  0  0  0  0  0
  183.4510  176.0540  137.3510 C   0  0  0  0  0  2  0  0  0  0  0  0
  179.9630  182.0350  137.1260 C   0  0  0  0  0  2  0  0  0  0  0  0
  188.7690  177.1490  143.3460 C   0  0  0  0  0  3  0  0  0  0  0  0
  186.2540  177.9830  144.2750 C   0  0  0  0  0  0  0  0  0  0  0  0
  186.4540  177.9310  142.9000 C   0  0  0  0  0  0  0  0  0  0  0  0
  185.2570  178.3390  142.3030 C   0  0  0  0  0  0  0  0  0  0  0  0
  183.1480  179.0370  143.4550 N   0  0  0  0  0  0  0  0  0  0  0  0
  184.1400  178.6810  145.4900 C   0  0  0  0  0  3  0  0  0  0  0  0
  187.7490  177.5020  142.2770 C   0  0  0  0  0  2  0  0  0  0  0  0
  182.9740  179.0810  144.8110 C   0  0  0  0  0  3  0  0  0  0  0  0
  188.5080  177.2220  144.6660 C   0  0  0  0  0  3  0  0  0  0  0  0
  184.4140  178.6110  143.3580 C   0  0  0  0  0  0  0  0  0  0  0  0
  187.1850  177.6610  145.1690 C   0  0  0  0  0  3  0  0  0  0  0  0
  185.0010  178.4010  144.5090 N   0  0  0  0  0  0  0  0  0  0  0  0
  1 10  1  0  0  0  0
  2  4  1  6  0  0  0
  2  7  1  0  0  0  0
  2 13  1  0  0  0  0
  3  2  1  0  0  0  0
  4 13  1  0  0  0  0
  6 10  1  1  0  0  0
  6  7  1  0  0  0  0
  8  6  1  0  0  0  0
  8  5  1  1  0  0  0
  9 12  1  0  0  0  0
  9  8  1  0  0  0  0
 11  1  1  0  0  0  0
 11  8  1  0  0  0  0
 12  3  1  0  0  0  0
 13 19  1  0  0  0  0
 14 12  2  0  0  0  0
 15  1  2  0  0  0  0
 16 24  2  0  0  0  0
 17 27  1  0  0  0  0
 17 26  2  0  0  0  0
 18 17  1  0  0  0  0
 19 18  2  0  0  0  0
 19 25  1  0  0  0  0
 20 23  1  0  0  0  0
 22 18  1  0  0  0  0
 22 16  1  0  0  0  0
 23 21  2  0  0  0  0
 24 26  1  0  0  0  0
 25 20  2  0  0  0  0
 25 27  1  0  0  0  0
 27 21  1  0  0  0  0
M  END
>  <MODEL>
5

>  <REMARK>
 VINA RESULT:      -7.5      1.833      3.904
  Name = 
  1 active torsions:
  status: ('A' for Active; 'I' for Inactive)
    1  A    between atoms: C_5  and  N_23
                            x       y       z     vdW  Elec       q    Type
                         _______ _______ _______ _____ _____    ______ ____

>  <TORSDO>
F 1

$$$$
=
 OpenBabel11032420383D

 27 32  0  0  1  0  0  0  0  0999 V2000
  190.1900  177.5380  142.7600 C   0  0  0  0  0  0  0  0  0  0  0  0
  185.7140  178.7720  143.5610 C   0  0  1  0  0  0  0  0  0  0  0  0
  185.5130  177.9250  144.8120 C   0  0  0  0  0  2  0  0  0  0  0  0
  185.2960  180.0840  143.5930 C   0  0  0  0  0  2  0  0  0  0  0  0
  187.5550  175.9250  143.5940 C   0  0  0  0  0  1  0  0  0  0  0  0
  188.0850  178.3740  143.1830 N   0  0  1  0  0  0  0  0  0  0  0  0
  186.7750  178.3900  142.5410 C   0  0  0  0  0  2  0  0  0  0  0  0
  188.3380  177.1720  144.0270 C   0  0  1  0  0  0  0  0  0  0  0  0
  188.0470  177.4970  145.4930 C   0  0  0  0  0  2  0  0  0  0  0  0
  189.1420  178.3880  142.1710 C   0  0  0  0  0  2  0  0  0  0  0  0
  189.7140  176.8800  143.8690 O   0  0  0  0  0  0  0  0  0  0  0  0
  186.6670  178.0510  145.7710 C   0  0  0  0  0  0  0  0  0  0  0  0
  184.4180  179.0860  142.9040 N   0  0  0  0  0  0  0  0  0  0  0  0
  186.4400  178.6040  146.9580 C   0  0  0  0  0  2  0  0  0  0  0  0
  191.4230  177.4100  142.2950 C   0  0  0  0  0  2  0  0  0  0  0  0
  183.6310  177.8130  138.4540 C   0  0  0  0  0  3  0  0  0  0  0  0
  181.8190  178.0720  140.5840 C   0  0  0  0  0  0  0  0  0  0  0  0
  183.1590  178.3510  140.8330 C   0  0  0  0  0  0  0  0  0  0  0  0
  183.2510  178.7130  142.1800 C   0  0  0  0  0  0  0  0  0  0  0  0
  181.3900  178.8420  143.8480 N   0  0  0  0  0  0  0  0  0  0  0  0
  179.8980  178.1870  142.2360 C   0  0  0  0  0  3  0  0  0  0  0  0
  184.2240  178.2510  139.7820 C   0  0  0  0  0  2  0  0  0  0  0  0
  180.0780  178.5610  143.5800 C   0  0  0  0  0  3  0  0  0  0  0  0
  182.3190  177.5580  138.2820 C   0  0  0  0  0  3  0  0  0  0  0  0
  181.9610  178.6280  142.6550 C   0  0  0  0  0  0  0  0  0  0  0  0
  181.3530  177.6900  139.3980 C   0  0  0  0  0  3  0  0  0  0  0  0
  181.1280  178.2530  141.7190 N   0  0  0  0  0  0  0  0  0  0  0  0
  1 11  1  0  0  0  0
  2  7  1  6  0  0  0
  2  4  1  0  0  0  0
  2  3  1  0  0  0  0
  3 12  1  0  0  0  0
  6 10  1  6  0  0  0
  6  8  1  0  0  0  0
  7  6  1  0  0  0  0
  8  5  1  6  0  0  0
  8  9  1  0  0  0  0
  9 12  1  0  0  0  0
 10  1  1  0  0  0  0
 11  8  1  0  0  0  0
 12 14  2  0  0  0  0
 13  2  1  0  0  0  0
 13  4  1  0  0  0  0
 15  1  2  0  0  0  0
 16 22  1  0  0  0  0
 17 18  1  0  0  0  0
 17 27  1  0  0  0  0
 18 19  2  0  0  0  0
 19 25  1  0  0  0  0
 19 13  1  0  0  0  0
 21 23  2  0  0  0  0
 22 18  1  0  0  0  0
 23 20  1  0  0  0  0
 24 16  2  0  0  0  0
 24 26  1  0  0  0  0
 25 20  2  0  0  0  0
 26 17  2  0  0  0  0
 27 21  1  0  0  0  0
 27 25  1  0  0  0  0
M  END
>  <MODEL>
6

>  <REMARK>
 VINA RESULT:      -7.3      2.782      7.757
  Name = 
  1 active torsions:
  status: ('A' for Active; 'I' for Inactive)
    1  A    between atoms: C_5  and  N_23
                            x       y       z     vdW  Elec       q    Type
                         _______ _______ _______ _____ _____    ______ ____

>  <TORSDO>
F 1

$$$$
=
 OpenBabel11032420383D

 27 32  0  0  1  0  0  0  0  0999 V2000
  190.4170  177.7390  144.1950 C   0  0  0  0  0  0  0  0  0  0  0  0
  186.1640  178.6250  142.3700 C   0  0  1  0  0  0  0  0  0  0  0  0
  185.3610  177.8050  143.3740 C   0  0  0  0  0  2  0  0  0  0  0  0
  185.7280  179.8980  142.0780 C   0  0  0  0  0  2  0  0  0  0  0  0
  187.8380  175.9420  143.5940 C   0  0  0  0  0  1  0  0  0  0  0  0
  188.3790  178.4110  143.3580 N   0  0  1  0  0  0  0  0  0  0  0  0
  187.6270  178.2980  142.1120 C   0  0  0  0  0  2  0  0  0  0  0  0
  188.1960  177.2630  144.2890 C   0  0  1  0  0  0  0  0  0  0  0  0
  187.1400  177.6100  145.3400 C   0  0  0  0  0  2  0  0  0  0  0  0
  189.8130  178.4790  143.0740 C   0  0  0  0  0  2  0  0  0  0  0  0
  189.4510  177.0800  144.9180 O   0  0  0  0  0  0  0  0  0  0  0  0
  185.8030  178.0570  144.7910 C   0  0  0  0  0  0  0  0  0  0  0  0
  185.4160  178.8080  141.0990 N   0  0  0  0  0  0  0  0  0  0  0  0
  184.9420  178.6270  145.6260 C   0  0  0  0  0  2  0  0  0  0  0  0
  191.7090  177.6970  144.4770 C   0  0  0  0  0  2  0  0  0  0  0  0
  181.1150  177.3710  139.8810 C   0  0  0  0  0  3  0  0  0  0  0  0
  183.4540  177.5170  138.3340 C   0  0  1  0  0  3  0  0  0  0  0  0
  183.5280  177.9180  139.6630 C   0  0  0  0  0  0  0  0  0  0  0  0
  184.8490  178.3170  139.8900 C   0  0  0  0  0  0  0  0  0  0  0  0
  186.7360  178.3230  138.2460 N   0  0  0  0  0  0  0  0  0  0  0  0
  185.3330  177.5030  136.6310 C   0  0  0  0  0  3  0  0  0  0  0  0
  182.3530  177.8880  140.5940 C   0  0  0  0  0  3  0  0  0  0  0  0
  186.6390  177.9240  136.9420 C   0  0  0  0  0  3  0  0  0  0  0  0
  181.1140  176.9980  138.5860 C   0  0  0  0  0  3  0  0  0  0  0  0
  185.4850  178.1300  138.6820 C   0  0  0  0  0  0  0  0  0  0  0  0
  182.3400  177.0710  137.7590 C   0  0  0  0  0  3  0  0  0  0  0  0
  184.6650  177.6620  137.7750 N   0  0  0  0  0  0  0  0  0  0  0  0
  1 15  2  0  0  0  0
  1 11  1  0  0  0  0
  2  4  1  1  0  0  0
  2  3  1  0  0  0  0
  3 12  1  0  0  0  0
  6  7  1  6  0  0  0
  6  8  1  0  0  0  0
  7  2  1  0  0  0  0
  8  5  1  6  0  0  0
  8 11  1  0  0  0  0
  8  9  1  0  0  0  0
 10  6  1  0  0  0  0
 10  1  1  0  0  0  0
 12  9  1  0  0  0  0
 12 14  2  0  0  0  0
 13  4  1  0  0  0  0
 13  2  1  0  0  0  0
 16 22  2  0  0  0  0
 17 26  1  6  0  0  0
 17 18  1  0  0  0  0
 18 19  2  0  0  0  0
 18 22  1  0  0  0  0
 19 13  1  0  0  0  0
 20 25  2  0  0  0  0
 21 23  2  0  0  0  0
 21 27  1  0  0  0  0
 23 20  1  0  0  0  0
 24 16  1  0  0  0  0
 25 19  1  0  0  0  0
 26 24  2  0  0  0  0
 27 17  1  0  0  0  0
 27 25  1  0  0  0  0
M  END
>  <MODEL>
7

>  <REMARK>
 VINA RESULT:      -7.3      2.761      7.301
  Name = 
  1 active torsions:
  status: ('A' for Active; 'I' for Inactive)
    1  A    between atoms: C_5  and  N_23
                            x       y       z     vdW  Elec       q    Type
                         _______ _______ _______ _____ _____    ______ ____

>  <TORSDO>
F 1

$$$$
=
 OpenBabel11032420383D

 27 32  0  0  1  0  0  0  0  0999 V2000
  190.3920  177.7040  144.0140 C   0  0  0  0  0  0  0  0  0  0  0  0
  186.0940  178.6310  142.3210 C   0  0  1  0  0  0  0  0  0  0  0  0
  185.3110  177.8780  143.3910 C   0  0  0  0  0  2  0  0  0  0  0  0
  185.6800  179.9020  141.9910 C   0  0  0  0  0  2  0  0  0  0  0  0
  187.7450  175.9570  143.5940 C   0  0  0  0  0  1  0  0  0  0  0  0
  188.3400  178.3970  143.2290 N   0  0  1  0  0  0  0  0  0  0  0  0
  187.5360  178.2520  142.0200 C   0  0  0  0  0  2  0  0  0  0  0  0
  188.1640  177.2960  144.2160 C   0  0  1  0  0  0  0  0  0  0  0  0
  187.1620  177.7170  145.2920 C   0  0  0  0  0  2  0  0  0  0  0  0
  189.7630  178.4130  142.8870 C   0  0  0  0  0  2  0  0  0  0  0  0
  189.4390  177.1050  144.8030 O   0  0  0  0  0  0  0  0  0  0  0  0
  185.8160  178.1770  144.7760 C   0  0  0  0  0  0  0  0  0  0  0  0
  185.3000  178.7810  141.0730 N   0  0  0  0  0  0  0  0  0  0  0  0
  185.0050  178.8070  145.6190 C   0  0  0  0  0  2  0  0  0  0  0  0
  191.6930  177.6390  144.2470 C   0  0  0  0  0  2  0  0  0  0  0  0
  186.7970  177.8350  136.7250 C   0  0  0  0  0  3  0  0  0  0  0  0
  184.2440  177.5020  137.8460 C   0  0  1  0  0  3  0  0  0  0  0  0
  185.2480  178.0210  138.6570 C   0  0  0  0  0  0  0  0  0  0  0  0
  184.6720  178.2550  139.9100 C   0  0  0  0  0  0  0  0  0  0  0  0
  182.3020  177.8320  140.5940 N   0  0  0  0  0  0  0  0  0  0  0  0
  181.8320  177.0560  138.4900 C   0  0  0  0  0  3  0  0  0  0  0  0
  186.6510  178.2470  138.1790 C   0  0  0  0  0  3  0  0  0  0  0  0
  181.3320  177.3200  139.7780 C   0  0  0  0  0  3  0  0  0  0  0  0
  185.7790  177.3370  135.9950 C   0  0  0  0  0  3  0  0  0  0  0  0
  183.3590  177.8610  139.7720 C   0  0  0  0  0  0  0  0  0  0  0  0
  184.4280  177.1560  136.5750 C   0  0  0  0  0  3  0  0  0  0  0  0
  183.1140  177.4220  138.5640 N   0  0  0  0  0  0  0  0  0  0  0  0
  1 15  2  0  0  0  0
  1 11  1  0  0  0  0
  2  4  1  1  0  0  0
  2  3  1  0  0  0  0
  3 12  1  0  0  0  0
  6  7  1  6  0  0  0
  6  8  1  0  0  0  0
  7  2  1  0  0  0  0
  8  5  1  6  0  0  0
  8 11  1  0  0  0  0
  8  9  1  0  0  0  0
 10  6  1  0  0  0  0
 10  1  1  0  0  0  0
 12  9  1  0  0  0  0
 12 14  2  0  0  0  0
 13  4  1  0  0  0  0
 13  2  1  0  0  0  0
 16 22  2  0  0  0  0
 17 26  1  1  0  0  0
 17 27  1  0  0  0  0
 17 18  1  0  0  0  0
 18 19  2  0  0  0  0
 19 13  1  0  0  0  0
 21 27  1  0  0  0  0
 21 23  2  0  0  0  0
 22 18  1  0  0  0  0
 23 20  1  0  0  0  0
 24 26  2  0  0  0  0
 24 16  1  0  0  0  0
 25 19  1  0  0  0  0
 25 20  2  0  0  0  0
 27 25  1  0  0  0  0
M  END
>  <MODEL>
8

>  <REMARK>
 VINA RESULT:      -7.1      2.745      7.588
  Name = 
  1 active torsions:
  status: ('A' for Active; 'I' for Inactive)
    1  A    between atoms: C_5  and  N_23
                            x       y       z     vdW  Elec       q    Type
                         _______ _______ _______ _____ _____    ______ ____

>  <TORSDO>
F 1

$$$$
=
 OpenBabel11032420383D

 27 32  0  0  1  0  0  0  0  0999 V2000
  190.0670  177.1790  145.7880 C   0  0  0  0  0  0  0  0  0  0  0  0
  188.3340  178.4520  141.5950 C   0  0  1  0  0  0  0  0  0  0  0  0
  186.9370  177.8770  141.7940 C   0  0  0  0  0  2  0  0  0  0  0  0
  188.4430  179.7330  141.1010 C   0  0  0  0  0  2  0  0  0  0  0  0
  188.2550  175.7140  143.5940 C   0  0  0  0  0  1  0  0  0  0  0  0
  189.2570  178.0370  143.8090 N   0  0  1  0  0  0  0  0  0  0  0  0
  189.5110  177.8920  142.3790 C   0  0  0  0  0  2  0  0  0  0  0  0
  188.2990  177.0410  144.3640 C   0  0  1  0  0  0  0  0  0  0  0  0
  186.8990  177.6550  144.4420 C   0  0  0  0  0  2  0  0  0  0  0  0
  190.5010  177.8660  144.5600 C   0  0  0  0  0  2  0  0  0  0  0  0
  188.7650  176.7530  145.6700 O   0  0  0  0  0  0  0  0  0  0  0  0
  186.3700  178.2230  143.1440 C   0  0  0  0  0  0  0  0  0  0  0  0
  188.6620  178.5950  140.1520 N   0  0  0  0  0  0  0  0  0  0  0  0
  185.2960  179.0030  143.1940 C   0  0  0  0  0  2  0  0  0  0  0  0
  190.8140  176.9850  146.8620 C   0  0  0  0  0  2  0  0  0  0  0  0
  192.3310  176.2620  138.3790 C   0  0  0  0  0  3  0  0  0  0  0  0
  189.9380  177.0400  137.1320 C   0  0  1  0  0  3  0  0  0  0  0  0
  190.1100  177.3710  138.4720 C   0  0  0  0  0  0  0  0  0  0  0  0
  188.9570  178.0550  138.8690 C   0  0  0  0  0  0  0  0  0  0  0  0
  186.9540  178.5930  137.4690 N   0  0  0  0  0  0  0  0  0  0  0  0
  187.9310  177.5620  135.6720 C   0  0  0  0  0  3  0  0  0  0  0  0
  191.3410  177.0150  139.2520 C   0  0  0  0  0  3  0  0  0  0  0  0
  186.8060  178.2560  136.1520 C   0  0  0  0  0  3  0  0  0  0  0  0
  192.0990  175.9740  137.0830 C   0  0  0  0  0  3  0  0  0  0  0  0
  188.1650  178.0910  137.7420 C   0  0  0  0  0  0  0  0  0  0  0  0
  190.8400  176.3780  136.4140 C   0  0  0  0  0  3  0  0  0  0  0  0
  188.7420  177.4960  136.7300 N   0  0  0  0  0  0  0  0  0  0  0  0
  1 15  2  0  0  0  0
  2  4  1  1  0  0  0
  2  3  1  0  0  0  0
  2  7  1  0  0  0  0
  3 12  1  0  0  0  0
  6  7  1  6  0  0  0
  6  8  1  0  0  0  0
  6 10  1  0  0  0  0
  8  5  1  6  0  0  0
  8  9  1  0  0  0  0
  8 11  1  0  0  0  0
 10  1  1  0  0  0  0
 11  1  1  0  0  0  0
 12 14  2  0  0  0  0
 12  9  1  0  0  0  0
 13  4  1  0  0  0  0
 13  2  1  0  0  0  0
 16 22  2  0  0  0  0
 17 26  1  1  0  0  0
 17 18  1  0  0  0  0
 18 19  2  0  0  0  0
 18 22  1  0  0  0  0
 19 13  1  0  0  0  0
 20 25  2  0  0  0  0
 21 23  2  0  0  0  0
 21 27  1  0  0  0  0
 23 20  1  0  0  0  0
 24 16  1  0  0  0  0
 25 19  1  0  0  0  0
 26 24  2  0  0  0  0
 27 17  1  0  0  0  0
 27 25  1  0  0  0  0
M  END
>  <MODEL>
9

>  <REMARK>
 VINA RESULT:      -6.8      4.447      7.689
  Name = 
  1 active torsions:
  status: ('A' for Active; 'I' for Inactive)
    1  A    between atoms: C_5  and  N_23
                            x       y       z     vdW  Elec       q    Type
                         _______ _______ _______ _____ _____    ______ ____

>  <TORSDO>
F 1

$$$$
