=
 OpenBabel11032419533D

 48 52  0  0  1  0  0  0  0  0999 V2000
  187.8480  178.9560  141.6990 F   0  0  0  0  0  0  0  0  0  0  0  0
  180.8860  178.8760  141.6980 C   0  0  0  0  0  3  0  0  0  0  0  0
  187.2250  178.6160  140.5430 C   0  0  0  0  0  0  0  0  0  0  0  0
  187.9750  178.2440  139.4160 C   0  0  0  0  0  0  0  0  0  0  0  0
  181.5570  178.5850  140.5090 C   0  0  0  0  0  0  0  0  0  0  0  0
  185.9270  177.9090  138.1650 C   0  0  0  0  0  2  0  0  0  0  0  0
  185.8270  178.6190  140.4820 C   0  0  0  0  0  0  0  0  0  0  0  0
  185.0880  178.9620  141.6130 O   0  0  0  0  0  0  0  0  0  0  0  0
  181.5990  179.1980  142.8500 C   0  0  0  0  0  3  0  0  0  0  0  0
  185.1750  178.2650  139.2890 C   0  0  0  0  0  0  0  0  0  0  0  0
  183.6900  178.9300  141.6460 C   0  0  0  0  0  0  0  0  0  0  0  0
  182.9970  179.2240  142.8450 C   0  0  0  0  0  0  0  0  0  0  0  0
  187.3240  177.8970  138.2280 C   0  0  0  0  0  3  0  0  0  0  0  0
  182.9670  178.6050  140.4770 C   0  0  0  0  0  0  0  0  0  0  0  0
  183.6810  178.2660  139.1910 C   0  0  0  0  0  3  0  0  0  0  0  0
  179.8060  176.5790  137.8410 O   0  0  0  0  0  0  0  0  0  0  0  0
  180.5930  176.8830  138.9470 C   0  0  0  0  0  0  0  0  0  0  0  0
  180.7930  178.2490  139.3430 N   0  0  0  0  0  0  0  0  0  0  0  0
  181.1350  175.9450  139.5930 O   0  0  0  0  0  1  0  0  0  0  0  0
  180.2060  179.3290  138.5610 C   0  0  0  0  0  2  0  0  0  0  0  0
  181.0380  180.5990  138.7230 C   0  0  0  0  0  2  0  0  0  0  0  0
  180.3030  181.6100  135.0440 C   0  0  0  0  0  2  0  0  0  0  0  0
  180.1170  180.9000  136.3910 C   0  0  0  0  0  2  0  0  0  0  0  0
  181.1290  181.3970  137.4280 C   0  0  0  0  0  3  0  0  0  0  0  0
  180.8360  183.0440  135.1710 C   0  0  0  0  0  2  0  0  0  0  0  0
  181.0100  182.9100  137.6830 C   0  0  0  0  0  2  0  0  0  0  0  0
  180.4220  183.6810  136.4940 C   0  0  0  0  0  2  0  0  0  0  0  0
  183.6360  179.5530  144.0510 O   0  0  0  0  0  0  0  0  0  0  0  0
  185.4570  178.3030  145.0140 C   0  0  0  0  0  1  0  0  0  0  0  0
  183.9760  178.6270  145.0760 C   0  0  0  0  0  2  0  0  0  0  0  0
  189.4670  178.2150  139.4710 C   0  0  0  0  0  2  0  0  0  0  0  0
  190.4770  176.1720  138.7310 O   0  0  0  0  0  1  0  0  0  0  0  0
  189.9740  176.8270  139.8580 C   0  0  1  0  0  3  0  0  0  0  0  0
  192.2680  177.5100  140.4140 N   0  0  0  0  0  1  0  0  0  0  0  0
  191.0560  176.9020  140.9390 C   0  0  1  0  0  3  0  0  0  0  0  0
  190.5840  177.6900  142.1500 C   0  0  0  0  0  2  0  0  0  0  0  0
  190.3340  176.7810  143.3520 C   0  0  1  0  0  3  0  0  0  0  0  0
  189.7000  177.5520  144.5180 C   0  0  2  0  0  3  0  0  0  0  0  0
  189.9220  178.9300  144.4140 O   0  0  0  0  0  1  0  0  0  0  0  0
  190.1300  177.0130  145.8880 C   0  0  1  0  0  3  0  0  0  0  0  0
  191.6410  176.8060  145.9750 C   0  0  0  0  0  2  0  0  0  0  0  0
  192.0610  175.7760  147.4150 S   0  0  0  0  0  1  0  0  0  0  0  0
  189.7070  177.8870  146.8950 O   0  0  0  0  0  0  0  0  0  0  0  0
  188.3960  177.8370  148.8700 C   0  0  0  0  0  2  0  0  0  0  0  0
  187.5050  178.2550  147.7180 C   0  0  0  0  0  2  0  0  0  0  0  0
  188.6180  177.2500  147.4910 C   0  0  0  0  0  3  0  0  0  0  0  0
  188.2080  176.1610  143.2550 C   0  0  0  0  0  1  0  0  0  0  0  0
  189.5060  175.7200  142.9790 O   0  0  0  0  0  0  0  0  0  0  0  0
  2  9  1  0  0  0  0
  3  1  1  0  0  0  0
  4 31  1  0  0  0  0
  4  3  1  0  0  0  0
  5  2  2  0  0  0  0
  6 13  1  0  0  0  0
  6 10  1  0  0  0  0
  7  3  2  0  0  0  0
  7  8  1  0  0  0  0
  8 11  1  0  0  0  0
 10  7  1  0  0  0  0
 11 12  1  0  0  0  0
 12  9  2  0  0  0  0
 12 28  1  0  0  0  0
 13  4  2  0  0  0  0
 14  5  1  0  0  0  0
 14 11  2  0  0  0  0
 15 10  2  0  0  0  0
 15 14  1  0  0  0  0
 16 17  2  0  0  0  0
 17 18  1  0  0  0  0
 17 19  1  0  0  0  0
 18  5  1  0  0  0  0
 20 21  1  0  0  0  0
 20 18  1  0  0  0  0
 22 25  1  0  0  0  0
 22 23  1  0  0  0  0
 23 24  1  0  0  0  0
 24 26  1  0  0  0  0
 24 21  1  0  0  0  0
 25 27  1  0  0  0  0
 27 26  1  0  0  0  0
 28 30  1  0  0  0  0
 29 30  1  0  0  0  0
 31 33  1  0  0  0  0
 33 32  1  6  0  0  0
 33 35  1  0  0  0  0
 35 34  1  6  0  0  0
 35 36  1  0  0  0  0
 37 36  1  6  0  0  0
 37 38  1  0  0  0  0
 38 39  1  1  0  0  0
 38 40  1  0  0  0  0
 40 41  1  6  0  0  0
 40 43  1  0  0  0  0
 41 42  1  0  0  0  0
 43 46  1  0  0  0  0
 45 44  1  0  0  0  0
 46 45  1  0  0  0  0
 46 44  1  0  0  0  0
 48 47  1  0  0  0  0
 48 37  1  0  0  0  0
M  END
>  <MODEL>
1

>  <REMARK>
 VINA RESULT:      -7.9      0.000      0.000
  Name = 
  17 active torsions:
  status: ('A' for Active; 'I' for Inactive)
    1  A    between atoms: C_1  and  C_6
    2  A    between atoms: C_1  and  C_22
    3  A    between atoms: C_3  and  C_22
    4  A    between atoms: C_6  and  C_9
    5  A    between atoms: C_6  and  O_48
    6  A    between atoms: C_7  and  C_26
    7  A    between atoms: O_8  and  C_22
    8  A    between atoms: O_8  and  C_41
    9  A    between atoms: C_9  and  C_45
   10  A    between atoms: C_15  and  C_18
   11  A    between atoms: C_15  and  C_47
   12  A    between atoms: O_20  and  C_24
   13  A    between atoms: O_20  and  C_39
   14  A    between atoms: C_21  and  N_34
   15  A    between atoms: C_26  and  C_44
   16  A    between atoms: N_34  and  C_44
   17  A    between atoms: C_45  and  C_47
                            x       y       z     vdW  Elec       q    Type
                         _______ _______ _______ _____ _____    ______ ____

>  <TORSDO>
F 17

$$$$
=
 OpenBabel11032419533D

 48 52  0  0  1  0  0  0  0  0999 V2000
  185.7700  179.0960  141.9970 F   0  0  0  0  0  0  0  0  0  0  0  0
  179.5110  178.6910  138.9750 C   0  0  0  0  0  3  0  0  0  0  0  0
  185.7300  178.7880  140.6760 C   0  0  0  0  0  0  0  0  0  0  0  0
  186.9150  178.5120  139.9770 C   0  0  0  0  0  0  0  0  0  0  0  0
  180.6460  178.4950  138.1870 C   0  0  0  0  0  0  0  0  0  0  0  0
  185.6340  178.1490  137.9520 C   0  0  0  0  0  2  0  0  0  0  0  0
  184.4980  178.7300  140.0150 C   0  0  0  0  0  0  0  0  0  0  0  0
  183.3230  178.9780  140.7230 O   0  0  0  0  0  0  0  0  0  0  0  0
  179.6350  178.9850  140.3310 C   0  0  0  0  0  3  0  0  0  0  0  0
  184.4490  178.4090  138.6480 C   0  0  0  0  0  0  0  0  0  0  0  0
  182.0530  178.8780  140.1450 C   0  0  0  0  0  0  0  0  0  0  0  0
  180.8930  179.0760  140.9320 C   0  0  0  0  0  0  0  0  0  0  0  0
  186.8640  178.1990  138.6140 C   0  0  0  0  0  3  0  0  0  0  0  0
  181.9280  178.5830  138.7690 C   0  0  0  0  0  0  0  0  0  0  0  0
  183.1470  178.3460  137.9120 C   0  0  0  0  0  3  0  0  0  0  0  0
  179.9480  176.5950  135.0080 O   0  0  0  0  0  0  0  0  0  0  0  0
  180.1500  176.8590  136.3580 C   0  0  0  0  0  0  0  0  0  0  0  0
  180.4830  178.1850  136.7960 N   0  0  0  0  0  0  0  0  0  0  0  0
  180.0450  175.9190  137.1930 O   0  0  0  0  0  1  0  0  0  0  0  0
  180.6540  179.2550  135.8210 C   0  0  0  0  0  2  0  0  0  0  0  0
  179.6920  180.3990  136.1320 C   0  0  0  0  0  2  0  0  0  0  0  0
  180.9090  183.9810  135.2440 C   0  0  0  0  0  2  0  0  0  0  0  0
  180.0780  182.6950  135.1530 C   0  0  0  0  0  2  0  0  0  0  0  0
  180.4150  181.7320  136.2950 C   0  0  0  0  0  3  0  0  0  0  0  0
  181.2800  184.3770  136.6800 C   0  0  0  0  0  2  0  0  0  0  0  0
  180.1560  182.3520  137.6790 C   0  0  0  0  0  2  0  0  0  0  0  0
  180.2400  183.8840  137.6820 C   0  0  0  0  0  2  0  0  0  0  0  0
  180.9260  179.3700  142.3060 O   0  0  0  0  0  0  0  0  0  0  0  0
  179.3120  179.0880  144.0730 C   0  0  0  0  0  1  0  0  0  0  0  0
  179.8910  180.0240  143.0270 C   0  0  0  0  0  2  0  0  0  0  0  0
  188.2360  178.5490  140.6720 C   0  0  0  0  0  2  0  0  0  0  0  0
  190.0250  177.2360  139.7680 O   0  0  0  0  0  1  0  0  0  0  0  0
  188.9200  177.1850  140.6230 C   0  0  1  0  0  3  0  0  0  0  0  0
  190.6520  176.0530  141.9490 N   0  0  0  0  0  1  0  0  0  0  0  0
  189.3630  176.7240  142.0130 C   0  0  1  0  0  3  0  0  0  0  0  0
  189.4530  177.8880  142.9870 C   0  0  0  0  0  2  0  0  0  0  0  0
  189.0060  177.4850  144.3910 C   0  0  1  0  0  3  0  0  0  0  0  0
  190.0950  177.7760  145.4330 C   0  0  2  0  0  3  0  0  0  0  0  0
  191.3560  177.9260  144.8430 O   0  0  0  0  0  1  0  0  0  0  0  0
  190.1220  176.7430  146.5670 C   0  0  1  0  0  3  0  0  0  0  0  0
  191.2730  176.9910  147.5410 C   0  0  0  0  0  2  0  0  0  0  0  0
  192.3750  175.5430  147.6060 S   0  0  0  0  0  1  0  0  0  0  0  0
  188.9030  176.7570  147.2510 O   0  0  0  0  0  0  0  0  0  0  0  0
  187.7040  178.6660  147.9870 C   0  0  0  0  0  2  0  0  0  0  0  0
  187.9130  177.7490  149.1750 C   0  0  0  0  0  2  0  0  0  0  0  0
  188.9820  177.8600  148.1040 C   0  0  0  0  0  3  0  0  0  0  0  0
  186.8080  177.2370  144.5270 C   0  0  0  0  0  1  0  0  0  0  0  0
  187.8340  178.1650  144.7280 O   0  0  0  0  0  0  0  0  0  0  0  0
  2  9  1  0  0  0  0
  3  1  1  0  0  0  0
  4 31  1  0  0  0  0
  4  3  1  0  0  0  0
  5 14  1  0  0  0  0
  5  2  2  0  0  0  0
  6 13  1  0  0  0  0
  6 10  1  0  0  0  0
  7  3  2  0  0  0  0
  7  8  1  0  0  0  0
  9 12  2  0  0  0  0
 10  7  1  0  0  0  0
 11  8  1  0  0  0  0
 11 12  1  0  0  0  0
 12 28  1  0  0  0  0
 13  4  2  0  0  0  0
 14 11  2  0  0  0  0
 15 10  2  0  0  0  0
 15 14  1  0  0  0  0
 16 17  2  0  0  0  0
 17 18  1  0  0  0  0
 17 19  1  0  0  0  0
 18  5  1  0  0  0  0
 20 21  1  0  0  0  0
 20 18  1  0  0  0  0
 21 24  1  0  0  0  0
 22 25  1  0  0  0  0
 23 22  1  0  0  0  0
 23 24  1  0  0  0  0
 24 26  1  0  0  0  0
 25 27  1  0  0  0  0
 26 27  1  0  0  0  0
 28 30  1  0  0  0  0
 30 29  1  0  0  0  0
 33 32  1  6  0  0  0
 33 31  1  0  0  0  0
 33 35  1  0  0  0  0
 35 34  1  6  0  0  0
 35 36  1  0  0  0  0
 37 36  1  6  0  0  0
 37 48  1  0  0  0  0
 37 38  1  0  0  0  0
 38 39  1  6  0  0  0
 38 40  1  0  0  0  0
 40 43  1  0  0  0  0
 40 41  1  1  0  0  0
 41 42  1  0  0  0  0
 43 46  1  0  0  0  0
 44 46  1  0  0  0  0
 44 45  1  0  0  0  0
 46 45  1  0  0  0  0
 47 48  1  0  0  0  0
M  END
>  <MODEL>
2

>  <REMARK>
 VINA RESULT:      -7.4      1.658      2.294
  Name = 
  17 active torsions:
  status: ('A' for Active; 'I' for Inactive)
    1  A    between atoms: C_1  and  C_6
    2  A    between atoms: C_1  and  C_22
    3  A    between atoms: C_3  and  C_22
    4  A    between atoms: C_6  and  C_9
    5  A    between atoms: C_6  and  O_48
    6  A    between atoms: C_7  and  C_26
    7  A    between atoms: O_8  and  C_22
    8  A    between atoms: O_8  and  C_41
    9  A    between atoms: C_9  and  C_45
   10  A    between atoms: C_15  and  C_18
   11  A    between atoms: C_15  and  C_47
   12  A    between atoms: O_20  and  C_24
   13  A    between atoms: O_20  and  C_39
   14  A    between atoms: C_21  and  N_34
   15  A    between atoms: C_26  and  C_44
   16  A    between atoms: N_34  and  C_44
   17  A    between atoms: C_45  and  C_47
                            x       y       z     vdW  Elec       q    Type
                         _______ _______ _______ _____ _____    ______ ____

>  <TORSDO>
F 17

$$$$
=
 OpenBabel11032419533D

 48 52  0  0  1  0  0  0  0  0999 V2000
  187.2070  179.0320  141.7280 F   0  0  0  0  0  0  0  0  0  0  0  0
  180.2590  178.6460  141.9760 C   0  0  0  0  0  3  0  0  0  0  0  0
  186.5570  178.6860  140.5880 C   0  0  0  0  0  0  0  0  0  0  0  0
  187.2800  178.3690  139.4280 C   0  0  0  0  0  0  0  0  0  0  0  0
  180.8980  178.4070  140.7570 C   0  0  0  0  0  0  0  0  0  0  0  0
  185.2040  177.9690  138.2440 C   0  0  0  0  0  2  0  0  0  0  0  0
  185.1580  178.6300  140.5780 C   0  0  0  0  0  0  0  0  0  0  0  0
  184.4470  178.9180  141.7420 O   0  0  0  0  0  0  0  0  0  0  0  0
  181.0000  178.9770  143.1080 C   0  0  0  0  0  3  0  0  0  0  0  0
  184.4790  178.2700  139.4020 C   0  0  0  0  0  0  0  0  0  0  0  0
  183.0540  178.8240  141.8240 C   0  0  0  0  0  0  0  0  0  0  0  0
  182.3930  179.0640  143.0530 C   0  0  0  0  0  0  0  0  0  0  0  0
  186.6010  178.0170  138.2570 C   0  0  0  0  0  3  0  0  0  0  0  0
  182.3030  178.4900  140.6750 C   0  0  0  0  0  0  0  0  0  0  0  0
  182.9830  178.2070  139.3580 C   0  0  0  0  0  3  0  0  0  0  0  0
  179.0970  178.6420  137.4550 O   0  0  0  0  0  0  0  0  0  0  0  0
  179.8250  179.0160  138.5790 C   0  0  0  0  0  0  0  0  0  0  0  0
  180.1060  178.0600  139.6130 N   0  0  0  0  0  0  0  0  0  0  0  0
  180.2280  180.2060  138.6840 O   0  0  0  0  0  1  0  0  0  0  0  0
  179.5930  176.7000  139.5100 C   0  0  0  0  0  2  0  0  0  0  0  0
  180.7500  175.7190  139.3390 C   0  0  0  0  0  2  0  0  0  0  0  0
  182.5390  174.3090  136.1910 C   0  0  0  0  0  2  0  0  0  0  0  0
  182.2900  174.6080  137.6750 C   0  0  0  0  0  2  0  0  0  0  0  0
  180.9400  175.2990  137.8860 C   0  0  0  0  0  3  0  0  0  0  0  0
  181.2560  174.0470  135.3910 C   0  0  0  0  0  2  0  0  0  0  0  0
  179.7620  174.4460  137.3830 C   0  0  0  0  0  2  0  0  0  0  0  0
  180.1550  173.4630  136.2720 C   0  0  0  0  0  2  0  0  0  0  0  0
  183.0620  179.3980  144.2420 O   0  0  0  0  0  0  0  0  0  0  0  0
  184.3680  178.4780  146.0470 C   0  0  0  0  0  1  0  0  0  0  0  0
  184.3620  178.9470  144.6040 C   0  0  0  0  0  2  0  0  0  0  0  0
  188.7730  178.4050  139.4280 C   0  0  0  0  0  2  0  0  0  0  0  0
  189.9610  176.6080  138.3780 O   0  0  0  0  0  1  0  0  0  0  0  0
  189.3540  177.0000  139.5750 C   0  0  1  0  0  3  0  0  0  0  0  0
  191.6630  177.4350  140.2940 N   0  0  0  0  0  1  0  0  0  0  0  0
  190.3690  176.9240  140.7180 C   0  0  1  0  0  3  0  0  0  0  0  0
  189.8990  177.7020  141.9360 C   0  0  0  0  0  2  0  0  0  0  0  0
  189.9790  176.8600  143.2080 C   0  0  1  0  0  3  0  0  0  0  0  0
  189.7580  177.7140  144.4640 C   0  0  2  0  0  3  0  0  0  0  0  0
  190.3840  178.9630  144.3620 O   0  0  0  0  0  1  0  0  0  0  0  0
  190.1590  176.9870  145.7540 C   0  0  1  0  0  3  0  0  0  0  0  0
  191.6640  176.7390  145.8280 C   0  0  0  0  0  2  0  0  0  0  0  0
  192.0820  175.8100  147.3370 S   0  0  0  0  0  1  0  0  0  0  0  0
  189.7390  177.7250  146.8650 O   0  0  0  0  0  0  0  0  0  0  0  0
  188.1730  177.5660  148.6380 C   0  0  0  0  0  2  0  0  0  0  0  0
  187.5190  178.3110  147.4910 C   0  0  0  0  0  2  0  0  0  0  0  0
  188.4980  177.1870  147.2070 C   0  0  0  0  0  3  0  0  0  0  0  0
  187.8030  176.4710  143.3880 C   0  0  0  0  0  1  0  0  0  0  0  0
  189.0280  175.8370  143.1580 O   0  0  0  0  0  0  0  0  0  0  0  0
  2  9  1  0  0  0  0
  3  1  1  0  0  0  0
  4  3  1  0  0  0  0
  5  2  2  0  0  0  0
  6 13  1  0  0  0  0
  6 10  1  0  0  0  0
  7  3  2  0  0  0  0
  7  8  1  0  0  0  0
  8 11  1  0  0  0  0
 10  7  1  0  0  0  0
 11 12  1  0  0  0  0
 12  9  2  0  0  0  0
 12 28  1  0  0  0  0
 13  4  2  0  0  0  0
 14  5  1  0  0  0  0
 14 11  2  0  0  0  0
 15 10  2  0  0  0  0
 15 14  1  0  0  0  0
 16 17  2  0  0  0  0
 17 19  1  0  0  0  0
 17 18  1  0  0  0  0
 18  5  1  0  0  0  0
 20 18  1  0  0  0  0
 21 20  1  0  0  0  0
 22 23  1  0  0  0  0
 23 24  1  0  0  0  0
 24 21  1  0  0  0  0
 25 22  1  0  0  0  0
 25 27  1  0  0  0  0
 26 24  1  0  0  0  0
 27 26  1  0  0  0  0
 28 30  1  0  0  0  0
 30 29  1  0  0  0  0
 31  4  1  0  0  0  0
 31 33  1  0  0  0  0
 33 32  1  6  0  0  0
 33 35  1  0  0  0  0
 35 34  1  6  0  0  0
 35 36  1  0  0  0  0
 37 36  1  6  0  0  0
 37 38  1  0  0  0  0
 38 39  1  6  0  0  0
 38 40  1  0  0  0  0
 40 41  1  1  0  0  0
 40 43  1  0  0  0  0
 41 42  1  0  0  0  0
 43 46  1  0  0  0  0
 45 44  1  0  0  0  0
 46 45  1  0  0  0  0
 46 44  1  0  0  0  0
 48 37  1  0  0  0  0
 48 47  1  0  0  0  0
M  END
>  <MODEL>
3

>  <REMARK>
 VINA RESULT:      -7.3      1.771      3.162
  Name = 
  17 active torsions:
  status: ('A' for Active; 'I' for Inactive)
    1  A    between atoms: C_1  and  C_6
    2  A    between atoms: C_1  and  C_22
    3  A    between atoms: C_3  and  C_22
    4  A    between atoms: C_6  and  C_9
    5  A    between atoms: C_6  and  O_48
    6  A    between atoms: C_7  and  C_26
    7  A    between atoms: O_8  and  C_22
    8  A    between atoms: O_8  and  C_41
    9  A    between atoms: C_9  and  C_45
   10  A    between atoms: C_15  and  C_18
   11  A    between atoms: C_15  and  C_47
   12  A    between atoms: O_20  and  C_24
   13  A    between atoms: O_20  and  C_39
   14  A    between atoms: C_21  and  N_34
   15  A    between atoms: C_26  and  C_44
   16  A    between atoms: N_34  and  C_44
   17  A    between atoms: C_45  and  C_47
                            x       y       z     vdW  Elec       q    Type
                         _______ _______ _______ _____ _____    ______ ____

>  <TORSDO>
F 17

$$$$
=
 OpenBabel11032419533D

 48 52  0  0  1  0  0  0  0  0999 V2000
  186.8160  179.5160  141.8600 F   0  0  0  0  0  0  0  0  0  0  0  0
  185.1740  177.2280  135.4930 C   0  0  0  0  0  3  0  0  0  0  0  0
  185.5280  179.1540  141.6370 C   0  0  0  0  0  0  0  0  0  0  0  0
  184.5660  179.2950  142.6490 C   0  0  0  0  0  0  0  0  0  0  0  0
  184.1790  177.2500  136.4710 C   0  0  0  0  0  0  0  0  0  0  0  0
  182.8710  178.4100  141.1610 C   0  0  0  0  0  3  0  0  0  0  0  0
  185.1550  178.6540  140.3830 C   0  0  2  0  0  3  0  0  0  0  0  0
  186.1100  178.5430  139.3740 O   0  0  0  0  0  0  0  0  0  0  0  0
  186.4710  177.6340  135.7960 C   0  0  0  0  0  3  0  0  0  0  0  0
  183.8220  178.2810  140.1440 C   0  0  0  0  0  0  0  0  0  0  0  0
  185.8010  178.1110  138.0800 C   0  0  0  0  0  0  0  0  0  0  0  0
  186.8010  178.0830  137.0780 C   0  0  0  0  0  0  0  0  0  0  0  0
  183.2400  178.9170  142.4100 C   0  0  0  0  0  3  0  0  0  0  0  0
  184.4850  177.6960  137.7730 C   0  0  0  0  0  0  0  0  0  0  0  0
  183.3950  177.7370  138.8160 C   0  0  0  0  0  3  0  0  0  0  0  0
  181.0850  175.1320  136.0830 O   0  0  0  0  0  0  0  0  0  0  0  0
  182.3930  175.4970  136.3850 C   0  0  0  0  0  0  0  0  0  0  0  0
  182.8510  176.8330  136.1230 N   0  0  0  0  0  0  0  0  0  0  0  0
  183.1730  174.6410  136.8830 O   0  0  0  0  0  1  0  0  0  0  0  0
  181.9600  177.8020  135.4990 C   0  0  0  0  0  2  0  0  0  0  0  0
  181.0680  178.4450  136.5580 C   0  0  0  0  0  2  0  0  0  0  0  0
  180.3870  182.0500  135.2770 C   0  0  0  0  0  2  0  0  0  0  0  0
  180.2240  180.5300  135.4110 C   0  0  0  0  0  2  0  0  0  0  0  0
  181.1260  179.9670  136.5140 C   0  0  0  0  0  3  0  0  0  0  0  0
  180.7470  182.7500  136.5950 C   0  0  0  0  0  2  0  0  0  0  0  0
  180.8240  180.5870  137.8890 C   0  0  0  0  0  2  0  0  0  0  0  0
  180.2050  181.9880  137.8010 C   0  0  0  0  0  2  0  0  0  0  0  0
  188.1300  178.4800  137.2960 O   0  0  0  0  0  0  0  0  0  0  0  0
  190.1790  177.2120  137.2680 C   0  0  0  0  0  1  0  0  0  0  0  0
  189.0640  177.7920  138.1190 C   0  0  0  0  0  2  0  0  0  0  0  0
  184.9410  179.8460  143.9850 C   0  0  0  0  0  2  0  0  0  0  0  0
  184.8630  177.5010  144.4680 O   0  0  0  0  0  1  0  0  0  0  0  0
  184.8760  178.7650  145.0620 C   0  0  1  0  0  3  0  0  0  0  0  0
  185.6300  179.4620  147.2950 N   0  0  0  0  0  1  0  0  0  0  0  0
  186.0520  178.8670  146.0360 C   0  0  1  0  0  3  0  0  0  0  0  0
  186.6720  177.5060  146.3100 C   0  0  0  0  0  2  0  0  0  0  0  0
  188.1890  177.5330  146.1360 C   0  0  1  0  0  3  0  0  0  0  0  0
  188.5840  177.8740  144.6930 C   0  0  2  0  0  3  0  0  0  0  0  0
  187.9120  177.0700  143.7640 O   0  0  0  0  0  1  0  0  0  0  0  0
  190.1020  177.8440  144.4700 C   0  0  1  0  0  3  0  0  0  0  0  0
  190.6970  176.4680  144.7630 C   0  0  0  0  0  2  0  0  0  0  0  0
  191.7090  176.5210  146.2750 S   0  0  0  0  0  1  0  0  0  0  0  0
  190.3970  178.2250  143.1570 O   0  0  0  0  0  0  0  0  0  0  0  0
  190.3690  176.7370  141.3110 C   0  0  0  0  0  2  0  0  0  0  0  0
  191.6650  177.5200  141.2720 C   0  0  0  0  0  2  0  0  0  0  0  0
  191.0570  177.1270  142.6040 C   0  0  0  0  0  3  0  0  0  0  0  0
  188.7690  177.8240  148.2560 C   0  0  0  0  0  1  0  0  0  0  0  0
  188.7500  178.4650  147.0140 O   0  0  0  0  0  0  0  0  0  0  0  0
  2  9  2  0  0  0  0
  2  5  1  0  0  0  0
  3  1  1  0  0  0  0
  3  4  2  0  0  0  0
  4 31  1  0  0  0  0
  5 14  2  0  0  0  0
  6 13  2  0  0  0  0
  7  8  1  6  0  0  0
  7  3  1  0  0  0  0
  9 12  1  0  0  0  0
 10  7  1  0  0  0  0
 10  6  1  0  0  0  0
 11  8  1  0  0  0  0
 12 28  1  0  0  0  0
 12 11  2  0  0  0  0
 13  4  1  0  0  0  0
 14 11  1  0  0  0  0
 14 15  1  0  0  0  0
 15 10  2  0  0  0  0
 16 17  2  0  0  0  0
 17 19  1  0  0  0  0
 18 17  1  0  0  0  0
 18  5  1  0  0  0  0
 20 18  1  0  0  0  0
 20 21  1  0  0  0  0
 22 23  1  0  0  0  0
 22 25  1  0  0  0  0
 23 24  1  0  0  0  0
 24 21  1  0  0  0  0
 24 26  1  0  0  0  0
 25 27  1  0  0  0  0
 27 26  1  0  0  0  0
 28 30  1  0  0  0  0
 29 30  1  0  0  0  0
 31 33  1  0  0  0  0
 33 32  1  6  0  0  0
 33 35  1  0  0  0  0
 35 36  1  0  0  0  0
 35 34  1  1  0  0  0
 37 36  1  6  0  0  0
 37 48  1  0  0  0  0
 38 39  1  6  0  0  0
 38 37  1  0  0  0  0
 40 38  1  0  0  0  0
 40 41  1  6  0  0  0
 41 42  1  0  0  0  0
 43 40  1  0  0  0  0
 44 46  1  0  0  0  0
 45 44  1  0  0  0  0
 45 46  1  0  0  0  0
 46 43  1  0  0  0  0
 48 47  1  0  0  0  0
M  END
>  <MODEL>
4

>  <REMARK>
 VINA RESULT:      -7.2      2.309      5.087
  Name = 
  17 active torsions:
  status: ('A' for Active; 'I' for Inactive)
    1  A    between atoms: C_1  and  C_6
    2  A    between atoms: C_1  and  C_22
    3  A    between atoms: C_3  and  C_22
    4  A    between atoms: C_6  and  C_9
    5  A    between atoms: C_6  and  O_48
    6  A    between atoms: C_7  and  C_26
    7  A    between atoms: O_8  and  C_22
    8  A    between atoms: O_8  and  C_41
    9  A    between atoms: C_9  and  C_45
   10  A    between atoms: C_15  and  C_18
   11  A    between atoms: C_15  and  C_47
   12  A    between atoms: O_20  and  C_24
   13  A    between atoms: O_20  and  C_39
   14  A    between atoms: C_21  and  N_34
   15  A    between atoms: C_26  and  C_44
   16  A    between atoms: N_34  and  C_44
   17  A    between atoms: C_45  and  C_47
                            x       y       z     vdW  Elec       q    Type
                         _______ _______ _______ _____ _____    ______ ____

>  <TORSDO>
F 17

$$$$
=
 OpenBabel11032419533D

 48 52  0  0  1  0  0  0  0  0999 V2000
  182.9020  178.9730  139.2130 F   0  0  0  0  0  0  0  0  0  0  0  0
  189.7630  177.8770  139.6490 C   0  0  0  0  0  3  0  0  0  0  0  0
  183.4400  178.8550  140.4530 C   0  0  0  0  0  0  0  0  0  0  0  0
  182.6190  178.9000  141.5900 C   0  0  0  0  0  0  0  0  0  0  0  0
  189.0310  178.0040  140.8310 C   0  0  0  0  0  0  0  0  0  0  0  0
  184.5630  178.6030  143.0050 C   0  0  0  0  0  3  0  0  0  0  0  0
  184.8210  178.6690  140.5940 C   0  0  2  0  0  3  0  0  0  0  0  0
  185.6260  178.5970  139.4590 O   0  0  0  0  0  0  0  0  0  0  0  0
  189.1330  177.9920  138.4130 C   0  0  0  0  0  3  0  0  0  0  0  0
  185.3850  178.5430  141.8750 C   0  0  0  0  0  0  0  0  0  0  0  0
  187.0020  178.3530  139.5190 C   0  0  0  0  0  0  0  0  0  0  0  0
  187.7570  178.2230  138.3280 C   0  0  0  0  0  0  0  0  0  0  0  0
  183.1840  178.7800  142.8640 C   0  0  0  0  0  3  0  0  0  0  0  0
  187.6420  178.2380  140.7730 C   0  0  0  0  0  0  0  0  0  0  0  0
  186.8580  178.3500  142.0580 C   0  0  0  0  0  3  0  0  0  0  0  0
  191.7580  177.4870  143.3820 O   0  0  0  0  0  1  0  0  0  0  0  0
  191.1110  177.5610  142.1530 C   0  0  0  0  0  0  0  0  0  0  0  0
  189.7100  177.8710  142.0880 N   0  0  0  0  0  0  0  0  0  0  0  0
  191.7660  177.3450  141.0970 O   0  0  0  0  0  0  0  0  0  0  0  0
  188.9480  178.0680  143.3130 C   0  0  0  0  0  2  0  0  0  0  0  0
  188.8340  176.7480  144.0720 C   0  0  0  0  0  2  0  0  0  0  0  0
  189.1300  177.9680  147.7490 C   0  0  0  0  0  2  0  0  0  0  0  0
  189.4410  177.8720  146.2500 C   0  0  0  0  0  2  0  0  0  0  0  0
  188.4470  176.9530  145.5320 C   0  0  0  0  0  3  0  0  0  0  0  0
  187.6390  177.8140  148.0820 C   0  0  0  0  0  2  0  0  0  0  0  0
  186.9940  177.4390  145.6720 C   0  0  0  0  0  2  0  0  0  0  0  0
  186.7570  178.2860  146.9290 C   0  0  0  0  0  2  0  0  0  0  0  0
  187.2020  178.3200  137.0420 O   0  0  0  0  0  0  0  0  0  0  0  0
  187.1230  177.1880  134.9160 C   0  0  0  0  0  1  0  0  0  0  0  0
  186.5870  177.2500  136.3340 C   0  0  0  0  0  2  0  0  0  0  0  0
  181.1420  179.0770  141.4560 C   0  0  0  0  0  2  0  0  0  0  0  0
  179.5220  178.0080  142.8610 O   0  0  0  0  0  1  0  0  0  0  0  0
  180.4020  177.7850  141.7990 C   0  0  1  0  0  3  0  0  0  0  0  0
  179.8150  178.0940  139.4330 N   0  0  0  0  0  1  0  0  0  0  0  0
  179.6320  177.2380  140.5950 C   0  0  1  0  0  3  0  0  0  0  0  0
  180.0660  175.8230  140.2480 C   0  0  0  0  0  2  0  0  0  0  0  0
  180.3910  175.6820  138.7620 C   0  0  1  0  0  3  0  0  0  0  0  0
  181.7910  175.0920  138.5460 C   0  0  2  0  0  3  0  0  0  0  0  0
  182.7810  175.8490  139.1830 O   0  0  0  0  0  1  0  0  0  0  0  0
  182.1180  174.8700  137.0630 C   0  0  1  0  0  3  0  0  0  0  0  0
  183.1400  175.8800  136.5440 C   0  0  0  0  0  2  0  0  0  0  0  0
  182.2990  177.3110  135.7990 S   0  0  0  0  0  1  0  0  0  0  0  0
  182.5920  173.5680  136.8720 O   0  0  0  0  0  0  0  0  0  0  0  0
  184.6850  172.7960  137.6740 C   0  0  0  0  0  2  0  0  0  0  0  0
  184.5550  172.3920  136.2190 C   0  0  0  0  0  2  0  0  0  0  0  0
  183.9690  173.7070  136.6980 C   0  0  0  0  0  3  0  0  0  0  0  0
  179.1830  173.8470  139.0590 C   0  0  0  0  0  1  0  0  0  0  0  0
  179.4350  174.8730  138.1430 O   0  0  0  0  0  0  0  0  0  0  0  0
  1  3  1  0  0  0  0
  2  5  1  0  0  0  0
  3  7  1  0  0  0  0
  3  4  2  0  0  0  0
  4 13  1  0  0  0  0
  5 18  1  0  0  0  0
  7  8  1  6  0  0  0
  7 10  1  0  0  0  0
  8 11  1  0  0  0  0
  9  2  2  0  0  0  0
 10 15  2  0  0  0  0
 10  6  1  0  0  0  0
 11 14  1  0  0  0  0
 12  9  1  0  0  0  0
 12 11  2  0  0  0  0
 13  6  2  0  0  0  0
 14  5  2  0  0  0  0
 14 15  1  0  0  0  0
 17 16  1  0  0  0  0
 18 17  1  0  0  0  0
 18 20  1  0  0  0  0
 19 17  2  0  0  0  0
 20 21  1  0  0  0  0
 21 24  1  0  0  0  0
 22 25  1  0  0  0  0
 23 22  1  0  0  0  0
 24 26  1  0  0  0  0
 24 23  1  0  0  0  0
 26 27  1  0  0  0  0
 27 25  1  0  0  0  0
 28 12  1  0  0  0  0
 29 30  1  0  0  0  0
 30 28  1  0  0  0  0
 31  4  1  0  0  0  0
 31 33  1  0  0  0  0
 33 32  1  1  0  0  0
 35 34  1  6  0  0  0
 35 33  1  0  0  0  0
 36 35  1  0  0  0  0
 37 36  1  1  0  0  0
 38 37  1  0  0  0  0
 38 39  1  6  0  0  0
 40 41  1  1  0  0  0
 40 38  1  0  0  0  0
 42 41  1  0  0  0  0
 43 40  1  0  0  0  0
 45 46  1  0  0  0  0
 45 44  1  0  0  0  0
 46 43  1  0  0  0  0
 46 44  1  0  0  0  0
 48 37  1  0  0  0  0
 48 47  1  0  0  0  0
M  END
>  <MODEL>
5

>  <REMARK>
 VINA RESULT:      -7.0      3.623     10.235
  Name = 
  17 active torsions:
  status: ('A' for Active; 'I' for Inactive)
    1  A    between atoms: C_1  and  C_6
    2  A    between atoms: C_1  and  C_22
    3  A    between atoms: C_3  and  C_22
    4  A    between atoms: C_6  and  C_9
    5  A    between atoms: C_6  and  O_48
    6  A    between atoms: C_7  and  C_26
    7  A    between atoms: O_8  and  C_22
    8  A    between atoms: O_8  and  C_41
    9  A    between atoms: C_9  and  C_45
   10  A    between atoms: C_15  and  C_18
   11  A    between atoms: C_15  and  C_47
   12  A    between atoms: O_20  and  C_24
   13  A    between atoms: O_20  and  C_39
   14  A    between atoms: C_21  and  N_34
   15  A    between atoms: C_26  and  C_44
   16  A    between atoms: N_34  and  C_44
   17  A    between atoms: C_45  and  C_47
                            x       y       z     vdW  Elec       q    Type
                         _______ _______ _______ _____ _____    ______ ____

>  <TORSDO>
F 17

$$$$
=
 OpenBabel11032419533D

 48 52  0  0  1  0  0  0  0  0999 V2000
  186.6750  179.6000  141.7740 F   0  0  0  0  0  0  0  0  0  0  0  0
  184.6930  177.0690  135.5980 C   0  0  0  0  0  3  0  0  0  0  0  0
  185.3800  179.2170  141.6390 C   0  0  0  0  0  0  0  0  0  0  0  0
  184.4780  179.3850  142.7010 C   0  0  0  0  0  0  0  0  0  0  0  0
  183.7560  177.1150  136.6330 C   0  0  0  0  0  0  0  0  0  0  0  0
  182.7100  178.4290  141.3470 C   0  0  0  0  0  3  0  0  0  0  0  0
  184.9420  178.6690  140.4290 C   0  0  2  0  0  3  0  0  0  0  0  0
  185.8370  178.5320  139.3690 O   0  0  0  0  0  0  0  0  0  0  0  0
  186.0000  177.5000  135.8110 C   0  0  0  0  0  3  0  0  0  0  0  0
  183.6020  178.2740  140.2810 C   0  0  0  0  0  0  0  0  0  0  0  0
  185.4580  178.0500  138.1120 C   0  0  0  0  0  0  0  0  0  0  0  0
  186.3980  177.9970  137.0540 C   0  0  0  0  0  0  0  0  0  0  0  0
  183.1450  178.9840  142.5540 C   0  0  0  0  0  3  0  0  0  0  0  0
  184.1330  177.6120  137.8970 C   0  0  0  0  0  0  0  0  0  0  0  0
  183.1050  177.6780  139.0010 C   0  0  0  0  0  3  0  0  0  0  0  0
  180.0730  177.1500  135.8310 O   0  0  0  0  0  0  0  0  0  0  0  0
  181.3540  177.6060  136.1260 C   0  0  0  0  0  0  0  0  0  0  0  0
  182.4160  176.6720  136.3780 N   0  0  0  0  0  0  0  0  0  0  0  0
  181.5710  178.8470  136.1760 O   0  0  0  0  0  1  0  0  0  0  0  0
  182.1470  175.2410  136.3700 C   0  0  0  0  0  2  0  0  0  0  0  0
  183.0590  174.5340  137.3700 C   0  0  0  0  0  2  0  0  0  0  0  0
  186.3630  172.5550  136.8560 C   0  0  0  0  0  2  0  0  0  0  0  0
  185.2770  173.3480  137.5940 C   0  0  0  0  0  2  0  0  0  0  0  0
  184.0780  173.6310  136.6840 C   0  0  0  0  0  3  0  0  0  0  0  0
  185.8140  171.6210  135.7680 C   0  0  0  0  0  2  0  0  0  0  0  0
  183.4280  172.3410  136.1540 C   0  0  0  0  0  2  0  0  0  0  0  0
  184.3980  171.1550  136.0940 C   0  0  0  0  0  2  0  0  0  0  0  0
  187.7330  178.4160  137.1800 O   0  0  0  0  0  0  0  0  0  0  0  0
  189.2280  177.6710  138.9170 C   0  0  0  0  0  1  0  0  0  0  0  0
  188.8350  177.5610  137.4550 C   0  0  0  0  0  2  0  0  0  0  0  0
  184.9240  179.9870  143.9930 C   0  0  0  0  0  2  0  0  0  0  0  0
  184.5080  177.7200  144.6460 O   0  0  0  0  0  1  0  0  0  0  0  0
  184.7480  179.0020  145.1470 C   0  0  1  0  0  3  0  0  0  0  0  0
  185.6790  179.6080  147.3390 N   0  0  0  0  0  1  0  0  0  0  0  0
  185.9750  178.9790  146.0610 C   0  0  1  0  0  3  0  0  0  0  0  0
  186.4670  177.5600  146.3040 C   0  0  0  0  0  2  0  0  0  0  0  0
  187.9920  177.4920  146.3500 C   0  0  1  0  0  3  0  0  0  0  0  0
  188.6100  177.7940  144.9780 C   0  0  2  0  0  3  0  0  0  0  0  0
  187.6940  177.5960  143.9380 O   0  0  0  0  0  1  0  0  0  0  0  0
  189.9150  177.0260  144.7340 C   0  0  1  0  0  3  0  0  0  0  0  0
  191.0610  177.9540  144.3370 C   0  0  0  0  0  2  0  0  0  0  0  0
  191.5670  177.6420  142.6160 S   0  0  0  0  0  1  0  0  0  0  0  0
  190.2600  176.3010  145.8790 O   0  0  0  0  0  0  0  0  0  0  0  0
  191.6820  176.7540  147.7210 C   0  0  0  0  0  2  0  0  0  0  0  0
  192.2950  175.6280  146.9130 C   0  0  0  0  0  2  0  0  0  0  0  0
  191.5410  176.7420  146.2130 C   0  0  0  0  0  3  0  0  0  0  0  0
  188.3180  177.7510  148.5280 C   0  0  0  0  0  1  0  0  0  0  0  0
  188.4770  178.3970  147.2980 O   0  0  0  0  0  0  0  0  0  0  0  0
  2  9  2  0  0  0  0
  2  5  1  0  0  0  0
  3  1  1  0  0  0  0
  3  4  2  0  0  0  0
  4 31  1  0  0  0  0
  5 14  2  0  0  0  0
  6 13  2  0  0  0  0
  7  8  1  6  0  0  0
  7  3  1  0  0  0  0
  9 12  1  0  0  0  0
 10  7  1  0  0  0  0
 10  6  1  0  0  0  0
 11  8  1  0  0  0  0
 12 28  1  0  0  0  0
 12 11  2  0  0  0  0
 13  4  1  0  0  0  0
 14 11  1  0  0  0  0
 14 15  1  0  0  0  0
 15 10  2  0  0  0  0
 16 17  2  0  0  0  0
 17 19  1  0  0  0  0
 17 18  1  0  0  0  0
 18  5  1  0  0  0  0
 20 18  1  0  0  0  0
 20 21  1  0  0  0  0
 22 23  1  0  0  0  0
 24 21  1  0  0  0  0
 24 23  1  0  0  0  0
 25 27  1  0  0  0  0
 25 22  1  0  0  0  0
 26 24  1  0  0  0  0
 27 26  1  0  0  0  0
 28 30  1  0  0  0  0
 30 29  1  0  0  0  0
 31 33  1  0  0  0  0
 33 32  1  6  0  0  0
 33 35  1  0  0  0  0
 35 36  1  0  0  0  0
 35 34  1  1  0  0  0
 37 36  1  6  0  0  0
 37 48  1  0  0  0  0
 38 39  1  6  0  0  0
 38 37  1  0  0  0  0
 40 41  1  1  0  0  0
 40 38  1  0  0  0  0
 40 43  1  0  0  0  0
 42 41  1  0  0  0  0
 43 46  1  0  0  0  0
 45 44  1  0  0  0  0
 46 45  1  0  0  0  0
 46 44  1  0  0  0  0
 48 47  1  0  0  0  0
M  END
>  <MODEL>
6

>  <REMARK>
 VINA RESULT:      -6.9      3.191      6.285
  Name = 
  17 active torsions:
  status: ('A' for Active; 'I' for Inactive)
    1  A    between atoms: C_1  and  C_6
    2  A    between atoms: C_1  and  C_22
    3  A    between atoms: C_3  and  C_22
    4  A    between atoms: C_6  and  C_9
    5  A    between atoms: C_6  and  O_48
    6  A    between atoms: C_7  and  C_26
    7  A    between atoms: O_8  and  C_22
    8  A    between atoms: O_8  and  C_41
    9  A    between atoms: C_9  and  C_45
   10  A    between atoms: C_15  and  C_18
   11  A    between atoms: C_15  and  C_47
   12  A    between atoms: O_20  and  C_24
   13  A    between atoms: O_20  and  C_39
   14  A    between atoms: C_21  and  N_34
   15  A    between atoms: C_26  and  C_44
   16  A    between atoms: N_34  and  C_44
   17  A    between atoms: C_45  and  C_47
                            x       y       z     vdW  Elec       q    Type
                         _______ _______ _______ _____ _____    ______ ____

>  <TORSDO>
F 17

$$$$
=
 OpenBabel11032419533D

 48 52  0  0  1  0  0  0  0  0999 V2000
  183.1430  178.5650  145.3270 F   0  0  0  0  0  0  0  0  0  0  0  0
  189.9210  177.3970  144.2500 C   0  0  0  0  0  3  0  0  0  0  0  0
  183.5950  178.6270  144.0500 C   0  0  0  0  0  0  0  0  0  0  0  0
  182.7220  178.9690  143.0050 C   0  0  0  0  0  0  0  0  0  0  0  0
  189.1020  177.6380  143.1460 C   0  0  0  0  0  0  0  0  0  0  0  0
  184.5400  178.7570  141.4180 C   0  0  0  0  0  2  0  0  0  0  0  0
  184.9420  178.3650  143.7770 C   0  0  0  0  0  0  0  0  0  0  0  0
  185.8090  178.0540  144.8230 O   0  0  0  0  0  0  0  0  0  0  0  0
  189.3840  177.3690  145.5350 C   0  0  0  0  0  3  0  0  0  0  0  0
  185.4170  178.4310  142.4570 C   0  0  0  0  0  0  0  0  0  0  0  0
  187.1790  177.8390  144.6370 C   0  0  0  0  0  0  0  0  0  0  0  0
  188.0210  177.5930  145.7470 C   0  0  0  0  0  0  0  0  0  0  0  0
  183.1960  179.0280  141.6900 C   0  0  0  0  0  3  0  0  0  0  0  0
  187.7230  177.8660  143.3330 C   0  0  0  0  0  0  0  0  0  0  0  0
  186.8520  178.1480  142.1330 C   0  0  0  0  0  3  0  0  0  0  0  0
  191.6410  177.4810  140.3640 O   0  0  0  0  0  0  0  0  0  0  0  0
  191.1020  177.4970  141.6470 C   0  0  0  0  0  0  0  0  0  0  0  0
  189.6890  177.6700  141.8380 N   0  0  0  0  0  0  0  0  0  0  0  0
  191.8690  177.3670  142.6390 O   0  0  0  0  0  1  0  0  0  0  0  0
  188.8160  177.8720  140.6890 C   0  0  0  0  0  2  0  0  0  0  0  0
  189.0360  176.7610  139.6660 C   0  0  0  0  0  2  0  0  0  0  0  0
  188.0160  178.8880  136.5780 C   0  0  0  0  0  2  0  0  0  0  0  0
  188.7570  178.5120  137.8680 C   0  0  0  0  0  2  0  0  0  0  0  0
  188.4100  177.0880  138.3150 C   0  0  0  0  0  3  0  0  0  0  0  0
  187.7380  177.6930  135.6550 C   0  0  0  0  0  2  0  0  0  0  0  0
  188.7720  176.0370  137.2520 C   0  0  0  0  0  2  0  0  0  0  0  0
  188.7880  176.5990  135.8240 C   0  0  0  0  0  2  0  0  0  0  0  0
  187.5640  177.5520  147.0750 O   0  0  0  0  0  0  0  0  0  0  0  0
  189.0600  178.3090  148.8070 C   0  0  0  0  0  1  0  0  0  0  0  0
  188.3340  177.1260  148.1920 C   0  0  0  0  0  2  0  0  0  0  0  0
  181.2860  179.2730  143.2810 C   0  0  0  0  0  2  0  0  0  0  0  0
  179.7280  177.4970  142.8790 O   0  0  0  0  0  1  0  0  0  0  0  0
  180.3750  178.5760  142.2710 C   0  0  1  0  0  3  0  0  0  0  0  0
  179.6560  180.9140  142.0380 N   0  0  0  0  0  1  0  0  0  0  0  0
  179.3380  179.5390  141.6880 C   0  0  1  0  0  3  0  0  0  0  0  0
  179.2480  179.4160  140.1750 C   0  0  0  0  0  2  0  0  0  0  0  0
  180.6150  179.5780  139.5140 C   0  0  1  0  0  3  0  0  0  0  0  0
  180.8440  178.5180  138.4270 C   0  0  2  0  0  3  0  0  0  0  0  0
  179.6610  178.2040  137.7470 O   0  0  0  0  0  1  0  0  0  0  0  0
  181.5360  177.2590  138.9640 C   0  0  1  0  0  3  0  0  0  0  0  0
  180.5320  176.2250  139.4730 C   0  0  0  0  0  2  0  0  0  0  0  0
  180.5410  174.7500  138.4060 S   0  0  0  0  0  1  0  0  0  0  0  0
  182.3390  176.6960  137.9660 O   0  0  0  0  0  0  0  0  0  0  0  0
  184.6940  176.9150  137.8060 C   0  0  0  0  0  2  0  0  0  0  0  0
  184.0880  177.2960  136.4700 C   0  0  0  0  0  2  0  0  0  0  0  0
  183.3570  177.6270  137.7560 C   0  0  0  0  0  3  0  0  0  0  0  0
  181.9810  180.8790  138.3500 C   0  0  0  0  0  1  0  0  0  0  0  0
  180.7230  180.8560  138.9590 O   0  0  0  0  0  0  0  0  0  0  0  0
  2  9  1  0  0  0  0
  3  1  1  0  0  0  0
  4 31  1  0  0  0  0
  4  3  1  0  0  0  0
  5 14  1  0  0  0  0
  5  2  2  0  0  0  0
  6 13  1  0  0  0  0
  6 10  1  0  0  0  0
  7  3  2  0  0  0  0
  7  8  1  0  0  0  0
  9 12  2  0  0  0  0
 10  7  1  0  0  0  0
 11  8  1  0  0  0  0
 11 12  1  0  0  0  0
 12 28  1  0  0  0  0
 13  4  2  0  0  0  0
 14 11  2  0  0  0  0
 15 10  2  0  0  0  0
 15 14  1  0  0  0  0
 16 17  2  0  0  0  0
 17 18  1  0  0  0  0
 17 19  1  0  0  0  0
 18  5  1  0  0  0  0
 20 18  1  0  0  0  0
 21 20  1  0  0  0  0
 22 23  1  0  0  0  0
 23 24  1  0  0  0  0
 24 21  1  0  0  0  0
 25 27  1  0  0  0  0
 25 22  1  0  0  0  0
 26 24  1  0  0  0  0
 27 26  1  0  0  0  0
 28 30  1  0  0  0  0
 30 29  1  0  0  0  0
 33 32  1  1  0  0  0
 33 31  1  0  0  0  0
 35 34  1  6  0  0  0
 35 33  1  0  0  0  0
 36 35  1  0  0  0  0
 37 36  1  6  0  0  0
 38 39  1  1  0  0  0
 38 40  1  0  0  0  0
 38 37  1  0  0  0  0
 40 41  1  6  0  0  0
 42 41  1  0  0  0  0
 43 40  1  0  0  0  0
 45 46  1  0  0  0  0
 45 44  1  0  0  0  0
 46 44  1  0  0  0  0
 46 43  1  0  0  0  0
 47 48  1  0  0  0  0
 48 37  1  0  0  0  0
M  END
>  <MODEL>
7

>  <REMARK>
 VINA RESULT:      -6.8      3.021      9.315
  Name = 
  17 active torsions:
  status: ('A' for Active; 'I' for Inactive)
    1  A    between atoms: C_1  and  C_6
    2  A    between atoms: C_1  and  C_22
    3  A    between atoms: C_3  and  C_22
    4  A    between atoms: C_6  and  C_9
    5  A    between atoms: C_6  and  O_48
    6  A    between atoms: C_7  and  C_26
    7  A    between atoms: O_8  and  C_22
    8  A    between atoms: O_8  and  C_41
    9  A    between atoms: C_9  and  C_45
   10  A    between atoms: C_15  and  C_18
   11  A    between atoms: C_15  and  C_47
   12  A    between atoms: O_20  and  C_24
   13  A    between atoms: O_20  and  C_39
   14  A    between atoms: C_21  and  N_34
   15  A    between atoms: C_26  and  C_44
   16  A    between atoms: N_34  and  C_44
   17  A    between atoms: C_45  and  C_47
                            x       y       z     vdW  Elec       q    Type
                         _______ _______ _______ _____ _____    ______ ____

>  <TORSDO>
F 17

$$$$
=
 OpenBabel11032419533D

 48 52  0  0  1  0  0  0  0  0999 V2000
  192.3180  177.1560  141.3610 F   0  0  0  0  0  0  0  0  0  0  0  0
  187.8040  177.7760  146.6260 C   0  0  0  0  0  3  0  0  0  0  0  0
  191.0130  177.3590  141.0490 C   0  0  0  0  0  0  0  0  0  0  0  0
  190.6020  177.3840  139.7070 C   0  0  0  0  0  0  0  0  0  0  0  0
  187.3290  177.9080  145.3200 C   0  0  0  0  0  0  0  0  0  0  0  0
  188.3170  177.7710  140.4160 C   0  0  0  0  0  2  0  0  0  0  0  0
  190.0720  177.5250  142.0720 C   0  0  0  0  0  0  0  0  0  0  0  0
  190.4840  177.4700  143.4020 O   0  0  0  0  0  0  0  0  0  0  0  0
  189.1570  177.5490  146.8650 C   0  0  0  0  0  3  0  0  0  0  0  0
  188.7190  177.7320  141.7550 C   0  0  0  0  0  0  0  0  0  0  0  0
  189.5940  177.5660  144.4770 C   0  0  0  0  0  0  0  0  0  0  0  0
  190.0630  177.4360  145.8060 C   0  0  0  0  0  0  0  0  0  0  0  0
  189.2550  177.5970  139.3940 C   0  0  0  0  0  3  0  0  0  0  0  0
  188.2220  177.7990  144.2350 C   0  0  0  0  0  0  0  0  0  0  0  0
  187.6920  177.9200  142.8270 C   0  0  0  0  0  3  0  0  0  0  0  0
  183.7690  179.0240  145.8560 O   0  0  0  0  0  0  0  0  0  0  0  0
  185.1140  178.7730  146.1040 C   0  0  0  0  0  0  0  0  0  0  0  0
  185.9280  178.1320  145.1090 N   0  0  0  0  0  0  0  0  0  0  0  0
  185.6090  179.1070  147.2150 O   0  0  0  0  0  1  0  0  0  0  0  0
  185.3370  177.7010  143.8490 C   0  0  0  0  0  2  0  0  0  0  0  0
  184.6300  178.8760  143.1780 C   0  0  0  0  0  2  0  0  0  0  0  0
  181.8160  178.3910  140.5430 C   0  0  0  0  0  2  0  0  0  0  0  0
  182.5080  178.9100  141.8100 C   0  0  0  0  0  2  0  0  0  0  0  0
  183.9770  178.4800  141.8590 C   0  0  0  0  0  3  0  0  0  0  0  0
  182.7570  178.2520  139.3380 C   0  0  0  0  0  2  0  0  0  0  0  0
  184.7780  178.9950  140.6510 C   0  0  0  0  0  2  0  0  0  0  0  0
  183.9110  179.2480  139.4110 C   0  0  0  0  0  2  0  0  0  0  0  0
  191.4080  177.2010  146.1360 O   0  0  0  0  0  0  0  0  0  0  0  0
  192.3280  175.2770  147.2590 C   0  0  0  0  0  1  0  0  0  0  0  0
  191.8700  176.7180  147.3920 C   0  0  0  0  0  2  0  0  0  0  0  0
  191.5890  177.1880  138.6040 C   0  0  0  0  0  2  0  0  0  0  0  0
  190.7410  175.0100  138.0740 O   0  0  0  0  0  1  0  0  0  0  0  0
  191.9060  175.7060  138.4090 C   0  0  1  0  0  3  0  0  0  0  0  0
  193.8480  176.6450  137.2330 N   0  0  0  0  0  1  0  0  0  0  0  0
  192.9660  175.4920  137.3260 C   0  0  1  0  0  3  0  0  0  0  0  0
  193.7960  174.2470  137.5920 C   0  0  0  0  0  2  0  0  0  0  0  0
  195.0600  174.2190  136.7350 C   0  0  1  0  0  3  0  0  0  0  0  0
  196.2970  173.8560  137.5690 C   0  0  2  0  0  3  0  0  0  0  0  0
  196.6740  174.9000  138.4230 O   0  0  0  0  0  1  0  0  0  0  0  0
  197.4740  173.3800  136.7070 C   0  0  1  0  0  3  0  0  0  0  0  0
  198.4250  174.5220  136.3540 C   0  0  0  0  0  2  0  0  0  0  0  0
  197.6940  175.5850  135.0690 S   0  0  0  0  0  1  0  0  0  0  0  0
  198.1690  172.3660  137.3740 O   0  0  0  0  0  0  0  0  0  0  0  0
  198.9040  170.1270  137.1090 C   0  0  0  0  0  2  0  0  0  0  0  0
  197.4150  170.1760  136.8310 C   0  0  0  0  0  2  0  0  0  0  0  0
  198.3000  171.3420  136.4340 C   0  0  0  0  0  3  0  0  0  0  0  0
  194.1160  172.2770  136.2290 C   0  0  0  0  0  1  0  0  0  0  0  0
  194.9050  173.3000  135.6940 O   0  0  0  0  0  0  0  0  0  0  0  0
  2  9  1  0  0  0  0
  3  1  1  0  0  0  0
  3  7  2  0  0  0  0
  4  3  1  0  0  0  0
  5  2  2  0  0  0  0
  6 10  1  0  0  0  0
  7  8  1  0  0  0  0
  8 11  1  0  0  0  0
 10  7  1  0  0  0  0
 10 15  2  0  0  0  0
 11 12  1  0  0  0  0
 12 28  1  0  0  0  0
 12  9  2  0  0  0  0
 13  4  2  0  0  0  0
 13  6  1  0  0  0  0
 14 11  2  0  0  0  0
 14  5  1  0  0  0  0
 15 14  1  0  0  0  0
 16 17  2  0  0  0  0
 17 19  1  0  0  0  0
 18  5  1  0  0  0  0
 18 17  1  0  0  0  0
 20 18  1  0  0  0  0
 21 20  1  0  0  0  0
 22 23  1  0  0  0  0
 23 24  1  0  0  0  0
 24 21  1  0  0  0  0
 25 27  1  0  0  0  0
 25 22  1  0  0  0  0
 26 24  1  0  0  0  0
 27 26  1  0  0  0  0
 28 30  1  0  0  0  0
 29 30  1  0  0  0  0
 31  4  1  0  0  0  0
 33 32  1  6  0  0  0
 33 31  1  0  0  0  0
 35 34  1  1  0  0  0
 35 36  1  0  0  0  0
 35 33  1  0  0  0  0
 37 38  1  0  0  0  0
 37 36  1  1  0  0  0
 38 39  1  6  0  0  0
 40 41  1  1  0  0  0
 40 43  1  0  0  0  0
 40 38  1  0  0  0  0
 42 41  1  0  0  0  0
 45 44  1  0  0  0  0
 46 45  1  0  0  0  0
 46 44  1  0  0  0  0
 46 43  1  0  0  0  0
 48 47  1  0  0  0  0
 48 37  1  0  0  0  0
M  END
>  <MODEL>
8

>  <REMARK>
 VINA RESULT:      -6.7      4.941      8.460
  Name = 
  17 active torsions:
  status: ('A' for Active; 'I' for Inactive)
    1  A    between atoms: C_1  and  C_6
    2  A    between atoms: C_1  and  C_22
    3  A    between atoms: C_3  and  C_22
    4  A    between atoms: C_6  and  C_9
    5  A    between atoms: C_6  and  O_48
    6  A    between atoms: C_7  and  C_26
    7  A    between atoms: O_8  and  C_22
    8  A    between atoms: O_8  and  C_41
    9  A    between atoms: C_9  and  C_45
   10  A    between atoms: C_15  and  C_18
   11  A    between atoms: C_15  and  C_47
   12  A    between atoms: O_20  and  C_24
   13  A    between atoms: O_20  and  C_39
   14  A    between atoms: C_21  and  N_34
   15  A    between atoms: C_26  and  C_44
   16  A    between atoms: N_34  and  C_44
   17  A    between atoms: C_45  and  C_47
                            x       y       z     vdW  Elec       q    Type
                         _______ _______ _______ _____ _____    ______ ____

>  <TORSDO>
F 17

$$$$
=
 OpenBabel11032419533D

 48 52  0  0  1  0  0  0  0  0999 V2000
  188.0080  177.0790  138.0990 F   0  0  0  0  0  0  0  0  0  0  0  0
  181.3840  178.4170  136.4240 C   0  0  0  0  0  3  0  0  0  0  0  0
  187.2480  177.7280  139.0160 C   0  0  0  0  0  0  0  0  0  0  0  0
  187.8110  178.1540  140.2300 C   0  0  0  0  0  0  0  0  0  0  0  0
  181.8410  178.7900  137.6890 C   0  0  0  0  0  0  0  0  0  0  0  0
  185.6710  179.0720  140.8990 C   0  0  0  0  0  3  0  0  0  0  0  0
  185.9010  177.9890  138.7410 C   0  0  2  0  0  3  0  0  0  0  0  0
  185.3560  177.5880  137.5220 O   0  0  0  0  0  0  0  0  0  0  0  0
  182.2330  177.7700  135.5300 C   0  0  0  0  0  3  0  0  0  0  0  0
  185.1090  178.6630  139.6860 C   0  0  0  0  0  0  0  0  0  0  0  0
  184.0360  177.8670  137.1520 C   0  0  0  0  0  0  0  0  0  0  0  0
  183.5590  177.4930  135.8720 C   0  0  0  0  0  0  0  0  0  0  0  0
  187.0190  178.8200  141.1710 C   0  0  0  0  0  3  0  0  0  0  0  0
  183.1740  178.5210  138.0600 C   0  0  0  0  0  0  0  0  0  0  0  0
  183.6630  178.9500  139.4220 C   0  0  0  0  0  3  0  0  0  0  0  0
  180.1430  181.5100  139.6710 O   0  0  0  0  0  1  0  0  0  0  0  0
  181.0570  180.8710  138.8390 C   0  0  0  0  0  0  0  0  0  0  0  0
  180.9430  179.4630  138.5830 N   0  0  0  0  0  0  0  0  0  0  0  0
  181.9900  181.5410  138.3190 O   0  0  0  0  0  0  0  0  0  0  0  0
  179.8940  178.6850  139.2280 C   0  0  0  0  0  2  0  0  0  0  0  0
  180.4980  177.7900  140.3070 C   0  0  0  0  0  2  0  0  0  0  0  0
  179.6580  178.5760  144.0190 C   0  0  0  0  0  2  0  0  0  0  0  0
  179.6880  177.7940  142.6990 C   0  0  0  0  0  2  0  0  0  0  0  0
  180.5750  178.4880  141.6600 C   0  0  0  0  0  3  0  0  0  0  0  0
  180.9530  179.3480  144.3080 C   0  0  0  0  0  2  0  0  0  0  0  0
  182.0290  178.6390  142.1400 C   0  0  0  0  0  2  0  0  0  0  0  0
  182.1630  178.6740  143.6680 C   0  0  0  0  0  2  0  0  0  0  0  0
  184.3480  176.8440  134.9090 O   0  0  0  0  0  0  0  0  0  0  0  0
  184.4740  174.6410  135.8790 C   0  0  0  0  0  1  0  0  0  0  0  0
  184.2950  175.4540  134.6100 C   0  0  0  0  0  2  0  0  0  0  0  0
  189.2520  177.9020  140.5310 C   0  0  0  0  0  2  0  0  0  0  0  0
  188.5730  176.2360  142.1130 O   0  0  0  0  0  1  0  0  0  0  0  0
  189.4270  177.3270  141.9350 C   0  0  1  0  0  3  0  0  0  0  0  0
  191.7700  177.4880  141.2110 N   0  0  0  0  0  1  0  0  0  0  0  0
  190.8730  176.9000  142.1950 C   0  0  1  0  0  3  0  0  0  0  0  0
  191.3320  177.2940  143.5890 C   0  0  0  0  0  2  0  0  0  0  0  0
  190.2750  178.1210  144.3180 C   0  0  1  0  0  3  0  0  0  0  0  0
  190.0270  177.5920  145.7380 C   0  0  2  0  0  3  0  0  0  0  0  0
  190.9490  176.6000  146.0930 O   0  0  0  0  0  1  0  0  0  0  0  0
  188.5830  177.1220  145.9510 C   0  0  1  0  0  3  0  0  0  0  0  0
  188.2140  177.0570  147.4320 C   0  0  0  0  0  2  0  0  0  0  0  0
  189.0590  178.3780  148.3570 S   0  0  0  0  0  1  0  0  0  0  0  0
  187.7020  177.9720  145.2740 O   0  0  0  0  0  0  0  0  0  0  0  0
  185.7190  178.9120  146.1720 C   0  0  0  0  0  2  0  0  0  0  0  0
  185.3740  178.2380  144.8590 C   0  0  0  0  0  2  0  0  0  0  0  0
  186.4370  177.6420  145.7620 C   0  0  0  0  0  3  0  0  0  0  0  0
  192.0730  179.4180  144.3440 C   0  0  0  0  0  1  0  0  0  0  0  0
  190.6760  179.4580  144.3740 O   0  0  0  0  0  0  0  0  0  0  0  0
  1  3  1  0  0  0  0
  2  5  1  0  0  0  0
  3  4  2  0  0  0  0
  4 31  1  0  0  0  0
  4 13  1  0  0  0  0
  5 14  2  0  0  0  0
  5 18  1  0  0  0  0
  6 13  2  0  0  0  0
  7  8  1  6  0  0  0
  7  3  1  0  0  0  0
  7 10  1  0  0  0  0
  9 12  1  0  0  0  0
  9  2  2  0  0  0  0
 10  6  1  0  0  0  0
 11  8  1  0  0  0  0
 11 14  1  0  0  0  0
 12 11  2  0  0  0  0
 14 15  1  0  0  0  0
 15 10  2  0  0  0  0
 17 16  1  0  0  0  0
 18 17  1  0  0  0  0
 18 20  1  0  0  0  0
 19 17  2  0  0  0  0
 20 21  1  0  0  0  0
 21 24  1  0  0  0  0
 22 25  1  0  0  0  0
 23 22  1  0  0  0  0
 24 26  1  0  0  0  0
 24 23  1  0  0  0  0
 26 27  1  0  0  0  0
 27 25  1  0  0  0  0
 28 12  1  0  0  0  0
 30 28  1  0  0  0  0
 30 29  1  0  0  0  0
 31 33  1  0  0  0  0
 33 32  1  6  0  0  0
 33 35  1  0  0  0  0
 35 34  1  6  0  0  0
 35 36  1  0  0  0  0
 37 36  1  1  0  0  0
 37 48  1  0  0  0  0
 37 38  1  0  0  0  0
 38 40  1  0  0  0  0
 38 39  1  6  0  0  0
 40 41  1  1  0  0  0
 41 42  1  0  0  0  0
 43 46  1  0  0  0  0
 43 40  1  0  0  0  0
 45 46  1  0  0  0  0
 45 44  1  0  0  0  0
 46 44  1  0  0  0  0
 47 48  1  0  0  0  0
M  END
>  <MODEL>
9

>  <REMARK>
 VINA RESULT:      -6.7      2.398      4.950
  Name = 
  17 active torsions:
  status: ('A' for Active; 'I' for Inactive)
    1  A    between atoms: C_1  and  C_6
    2  A    between atoms: C_1  and  C_22
    3  A    between atoms: C_3  and  C_22
    4  A    between atoms: C_6  and  C_9
    5  A    between atoms: C_6  and  O_48
    6  A    between atoms: C_7  and  C_26
    7  A    between atoms: O_8  and  C_22
    8  A    between atoms: O_8  and  C_41
    9  A    between atoms: C_9  and  C_45
   10  A    between atoms: C_15  and  C_18
   11  A    between atoms: C_15  and  C_47
   12  A    between atoms: O_20  and  C_24
   13  A    between atoms: O_20  and  C_39
   14  A    between atoms: C_21  and  N_34
   15  A    between atoms: C_26  and  C_44
   16  A    between atoms: N_34  and  C_44
   17  A    between atoms: C_45  and  C_47
                            x       y       z     vdW  Elec       q    Type
                         _______ _______ _______ _____ _____    ______ ____

>  <TORSDO>
F 17

$$$$
