=
 OpenBabel11042412113D

 37 38  0  0  1  0  0  0  0  0999 V2000
  186.1750  178.5870  140.1930 N   0  0  0  0  0  0  0  0  0  0  0  0
  185.7270  178.8040  138.8420 C   0  0  0  0  0  0  0  0  0  0  0  0
  184.9390  179.7600  138.6020 O   0  0  0  0  0  0  0  0  0  0  0  0
  185.8300  175.7760  136.3910 C   0  0  0  0  0  3  0  0  0  0  0  0
  186.1490  177.9170  137.7310 C   0  0  0  0  0  0  0  0  0  0  0  0
  187.2510  178.1880  137.0010 C   0  0  0  0  0  0  0  0  0  0  0  0
  187.6540  177.2960  135.9020 C   0  0  0  0  0  0  0  0  0  0  0  0
  185.2400  176.7600  137.3650 C   0  0  0  0  0  2  0  0  0  0  0  0
  188.6360  177.5930  135.1710 O   0  0  0  0  0  0  0  0  0  0  0  0
  188.0470  179.2930  137.2950 O   0  0  0  0  0  1  0  0  0  0  0  0
  186.9280  176.0390  135.6860 C   0  0  0  0  0  0  0  0  0  0  0  0
  187.3910  175.1110  134.7600 O   0  0  0  0  0  1  0  0  0  0  0  0
  185.6100  179.3360  141.2400 N   0  0  0  0  0  2  0  0  0  0  0  0
  184.9670  178.4040  142.1560 C   0  0  1  0  0  3  0  0  0  0  0  0
  184.7550  179.0820  143.5000 C   0  0  0  0  0  2  0  0  0  0  0  0
  185.4130  178.2960  144.6230 C   0  0  0  0  0  3  0  0  0  0  0  0
  185.5390  179.1510  145.8840 C   0  0  0  0  0  2  0  0  0  0  0  0
  186.7950  177.8370  144.1660 C   0  0  0  0  0  2  0  0  0  0  0  0
  186.2270  178.3620  146.9940 C   0  0  0  0  0  2  0  0  0  0  0  0
  187.6070  177.9050  146.5340 C   0  0  0  0  0  2  0  0  0  0  0  0
  187.4850  177.0480  145.2770 C   0  0  0  0  0  2  0  0  0  0  0  0
  183.6250  177.9640  141.5870 C   0  0  0  0  0  2  0  0  0  0  0  0
  182.8050  179.0730  141.3740 O   0  0  0  0  0  0  0  0  0  0  0  0
  181.5140  178.6260  141.6590 C   0  0  0  0  0  2  0  0  0  0  0  0
  181.0300  179.2720  142.9080 C   0  0  0  0  0  0  0  0  0  0  0  0
  180.2910  180.4450  142.8410 O   0  0  0  0  0  0  0  0  0  0  0  0
  181.2580  178.7370  144.0270 O   0  0  0  0  0  1  0  0  0  0  0  0
  187.3340  177.7440  140.4690 C   0  0  0  0  0  2  0  0  0  0  0  0
  188.5320  178.6000  140.8410 C   0  0  0  0  0  2  0  0  0  0  0  0
  189.8180  177.9090  140.4070 C   0  0  2  0  0  3  0  0  0  0  0  0
  190.4650  176.9650  138.5040 C   0  0  0  0  0  1  0  0  0  0  0  0
  189.5110  176.8720  139.5190 O   0  0  0  0  0  0  0  0  0  0  0  0
  190.5500  177.3570  141.6290 C   0  0  2  0  0  3  0  0  0  0  0  0
  190.1620  176.0330  141.8530 O   0  0  0  0  0  1  0  0  0  0  0  0
  190.2200  178.1920  142.8620 C   0  0  0  0  0  2  0  0  0  0  0  0
  191.3600  177.5670  144.8690 O   0  0  0  0  0  1  0  0  0  0  0  0
  191.4450  178.3820  143.7400 C   0  0  0  0  0  2  0  0  0  0  0  0
  1 28  1  0  0  0  0
  1 13  1  0  0  0  0
  2  1  1  0  0  0  0
  3  2  2  0  0  0  0
  4  8  1  0  0  0  0
  5  2  1  0  0  0  0
  6 10  1  0  0  0  0
  6  5  2  0  0  0  0
  7  6  1  0  0  0  0
  8  5  1  0  0  0  0
  9  7  2  0  0  0  0
 11  7  1  0  0  0  0
 11  4  2  0  0  0  0
 12 11  1  0  0  0  0
 13 14  1  0  0  0  0
 14 22  1  6  0  0  0
 14 15  1  0  0  0  0
 15 16  1  0  0  0  0
 16 17  1  0  0  0  0
 17 19  1  0  0  0  0
 18 16  1  0  0  0  0
 18 21  1  0  0  0  0
 20 19  1  0  0  0  0
 21 20  1  0  0  0  0
 23 22  1  0  0  0  0
 23 24  1  0  0  0  0
 24 25  1  0  0  0  0
 25 27  1  0  0  0  0
 26 25  2  0  0  0  0
 28 29  1  0  0  0  0
 30 29  1  1  0  0  0
 30 33  1  0  0  0  0
 31 32  1  0  0  0  0
 32 30  1  0  0  0  0
 33 34  1  1  0  0  0
 33 35  1  0  0  0  0
 35 37  1  0  0  0  0
 37 36  1  0  0  0  0
M  END
>  <MODEL>
1

>  <REMARK>
 VINA RESULT:      -6.6      0.000      0.000
  Name = 
  16 active torsions:
  status: ('A' for Active; 'I' for Inactive)
    1  A    between atoms: C_1  and  C_22
    2  A    between atoms: C_1  and  C_25
    3  A    between atoms: C_2  and  C_37
    4  A    between atoms: N_3  and  C_4
    5  A    between atoms: N_3  and  N_31
    6  A    between atoms: C_4  and  C_28
    7  A    between atoms: C_5  and  C_19
    8  A    between atoms: C_9  and  C_20
    9  A    between atoms: C_11  and  C_22
   10  A    between atoms: C_11  and  C_28
   11  A    between atoms: C_11  and  O_35
   12  A    between atoms: O_15  and  C_19
   13  A    between atoms: O_15  and  C_21
   14  A    between atoms: C_21  and  C_32
   15  A    between atoms: N_31  and  C_32
   16  A    between atoms: C_32  and  C_37
                            x       y       z     vdW  Elec       q    Type
                         _______ _______ _______ _____ _____    ______ ____

>  <TORSDO>
F 16

$$$$
=
 OpenBabel11042412113D

 37 38  0  0  1  0  0  0  0  0999 V2000
  186.7690  178.4440  142.2770 N   0  0  0  0  0  0  0  0  0  0  0  0
  185.6210  179.0030  141.6130 C   0  0  0  0  0  0  0  0  0  0  0  0
  185.7700  179.5600  140.4910 O   0  0  0  0  0  0  0  0  0  0  0  0
  182.7750  179.2810  144.2620 C   0  0  0  0  0  3  0  0  0  0  0  0
  184.2710  178.9600  142.2270 C   0  0  0  0  0  0  0  0  0  0  0  0
  183.2050  178.5020  141.5380 C   0  0  0  0  0  0  0  0  0  0  0  0
  181.8730  178.4670  142.1640 C   0  0  0  0  0  0  0  0  0  0  0  0
  184.1050  179.5560  143.6100 C   0  0  0  0  0  2  0  0  0  0  0  0
  180.8660  178.1150  141.4950 O   0  0  0  0  0  0  0  0  0  0  0  0
  183.3490  178.0190  140.2400 O   0  0  0  0  0  1  0  0  0  0  0  0
  181.7310  178.8100  143.5850 C   0  0  0  0  0  0  0  0  0  0  0  0
  180.5140  178.6310  144.2320 O   0  0  0  0  0  1  0  0  0  0  0  0
  188.0530  178.6650  141.7470 N   0  0  0  0  0  2  0  0  0  0  0  0
  188.2330  177.7540  140.6250 C   0  0  1  0  0  3  0  0  0  0  0  0
  188.6540  178.5440  139.3960 C   0  0  0  0  0  2  0  0  0  0  0  0
  188.3770  177.7640  138.1200 C   0  0  0  0  0  3  0  0  0  0  0  0
  189.4060  178.1050  137.0420 C   0  0  0  0  0  2  0  0  0  0  0  0
  186.9740  178.1030  137.6240 C   0  0  0  0  0  2  0  0  0  0  0  0
  189.1010  177.3410  135.7570 C   0  0  0  0  0  2  0  0  0  0  0  0
  187.6980  177.6810  135.2650 C   0  0  0  0  0  2  0  0  0  0  0  0
  186.6680  177.3390  136.3380 C   0  0  0  0  0  2  0  0  0  0  0  0
  189.3010  176.7240  140.9630 C   0  0  0  0  0  2  0  0  0  0  0  0
  190.0270  177.1320  142.0840 O   0  0  0  0  0  0  0  0  0  0  0  0
  190.3360  175.9530  142.7630 C   0  0  0  0  0  2  0  0  0  0  0  0
  191.5280  176.1750  143.6240 C   0  0  0  0  0  0  0  0  0  0  0  0
  191.9940  177.4650  143.8430 O   0  0  0  0  0  0  0  0  0  0  0  0
  192.0930  175.2000  144.1870 O   0  0  0  0  0  1  0  0  0  0  0  0
  186.6090  177.4970  143.3760 C   0  0  0  0  0  2  0  0  0  0  0  0
  187.5990  177.8070  144.4860 C   0  0  0  0  0  2  0  0  0  0  0  0
  186.9320  177.6170  145.8420 C   0  0  2  0  0  3  0  0  0  0  0  0
  185.0590  178.3240  146.8060 C   0  0  0  0  0  1  0  0  0  0  0  0
  186.2210  178.7760  146.1770 O   0  0  0  0  0  0  0  0  0  0  0  0
  187.9890  177.3220  146.9060 C   0  0  2  0  0  3  0  0  0  0  0  0
  188.0090  178.3540  147.8480 O   0  0  0  0  0  1  0  0  0  0  0  0
  189.3650  177.2040  146.2610 C   0  0  0  0  0  2  0  0  0  0  0  0
  191.6200  177.1030  147.0520 O   0  0  0  0  0  1  0  0  0  0  0  0
  190.3550  176.5340  147.1980 C   0  0  0  0  0  2  0  0  0  0  0  0
  1 28  1  0  0  0  0
  2  5  1  0  0  0  0
  2  1  1  0  0  0  0
  3  2  2  0  0  0  0
  5  8  1  0  0  0  0
  6  7  1  0  0  0  0
  6  5  2  0  0  0  0
  7 11  1  0  0  0  0
  8  4  1  0  0  0  0
  9  7  2  0  0  0  0
 10  6  1  0  0  0  0
 11 12  1  0  0  0  0
 11  4  2  0  0  0  0
 13  1  1  0  0  0  0
 14 15  1  6  0  0  0
 14 22  1  0  0  0  0
 14 13  1  0  0  0  0
 16 15  1  0  0  0  0
 17 16  1  0  0  0  0
 18 16  1  0  0  0  0
 19 17  1  0  0  0  0
 20 19  1  0  0  0  0
 20 21  1  0  0  0  0
 21 18  1  0  0  0  0
 22 23  1  0  0  0  0
 23 24  1  0  0  0  0
 24 25  1  0  0  0  0
 25 26  2  0  0  0  0
 25 27  1  0  0  0  0
 28 29  1  0  0  0  0
 30 29  1  6  0  0  0
 30 32  1  0  0  0  0
 30 33  1  0  0  0  0
 32 31  1  0  0  0  0
 33 34  1  1  0  0  0
 35 33  1  0  0  0  0
 35 37  1  0  0  0  0
 36 37  1  0  0  0  0
M  END
>  <MODEL>
2

>  <REMARK>
 VINA RESULT:      -6.4      2.256      7.636
  Name = 
  16 active torsions:
  status: ('A' for Active; 'I' for Inactive)
    1  A    between atoms: C_1  and  C_22
    2  A    between atoms: C_1  and  C_25
    3  A    between atoms: C_2  and  C_37
    4  A    between atoms: N_3  and  C_4
    5  A    between atoms: N_3  and  N_31
    6  A    between atoms: C_4  and  C_28
    7  A    between atoms: C_5  and  C_19
    8  A    between atoms: C_9  and  C_20
    9  A    between atoms: C_11  and  C_22
   10  A    between atoms: C_11  and  C_28
   11  A    between atoms: C_11  and  O_35
   12  A    between atoms: O_15  and  C_19
   13  A    between atoms: O_15  and  C_21
   14  A    between atoms: C_21  and  C_32
   15  A    between atoms: N_31  and  C_32
   16  A    between atoms: C_32  and  C_37
                            x       y       z     vdW  Elec       q    Type
                         _______ _______ _______ _____ _____    ______ ____

>  <TORSDO>
F 16

$$$$
=
 OpenBabel11042412113D

 37 38  0  0  1  0  0  0  0  0999 V2000
  186.4180  178.5390  140.1610 N   0  0  0  0  0  0  0  0  0  0  0  0
  186.0890  178.6080  138.7620 C   0  0  0  0  0  0  0  0  0  0  0  0
  185.2550  179.4680  138.3680 O   0  0  0  0  0  0  0  0  0  0  0  0
  186.6210  175.4530  136.5350 C   0  0  0  0  0  3  0  0  0  0  0  0
  186.6880  177.6750  137.7760 C   0  0  0  0  0  0  0  0  0  0  0  0
  187.8750  177.9440  137.1930 C   0  0  0  0  0  0  0  0  0  0  0  0
  188.4550  177.0070  136.2170 C   0  0  0  0  0  0  0  0  0  0  0  0
  185.8720  176.4690  137.3560 C   0  0  0  0  0  2  0  0  0  0  0  0
  189.5220  177.2960  135.6150 O   0  0  0  0  0  0  0  0  0  0  0  0
  188.5920  179.0900  137.5290 O   0  0  0  0  0  1  0  0  0  0  0  0
  187.8000  175.7150  135.9770 C   0  0  0  0  0  0  0  0  0  0  0  0
  188.4150  174.7540  135.1820 O   0  0  0  0  0  1  0  0  0  0  0  0
  185.6940  179.3170  141.0830 N   0  0  0  0  0  2  0  0  0  0  0  0
  184.9180  178.4090  141.9180 C   0  0  1  0  0  3  0  0  0  0  0  0
  184.5430  179.1100  143.2130 C   0  0  0  0  0  2  0  0  0  0  0  0
  184.9990  178.3120  144.4230 C   0  0  0  0  0  3  0  0  0  0  0  0
  184.6600  179.0490  145.7190 C   0  0  0  0  0  2  0  0  0  0  0  0
  186.5060  178.0870  144.3330 C   0  0  0  0  0  2  0  0  0  0  0  0
  185.1500  178.2530  146.9260 C   0  0  0  0  0  2  0  0  0  0  0  0
  186.6550  178.0300  146.8310 C   0  0  0  0  0  2  0  0  0  0  0  0
  186.9970  177.2910  145.5400 C   0  0  0  0  0  2  0  0  0  0  0  0
  183.6560  177.9820  141.1810 C   0  0  0  0  0  2  0  0  0  0  0  0
  182.6350  178.9090  141.3960 O   0  0  0  0  0  0  0  0  0  0  0  0
  181.6430  178.5730  140.4740 C   0  0  0  0  0  2  0  0  0  0  0  0
  180.4820  179.4860  140.6410 C   0  0  0  0  0  0  0  0  0  0  0  0
  180.3640  180.2530  141.7930 O   0  0  0  0  0  1  0  0  0  0  0  0
  179.6230  179.5930  139.7250 O   0  0  0  0  0  0  0  0  0  0  0  0
  187.6080  177.8260  140.6150 C   0  0  0  0  0  2  0  0  0  0  0  0
  188.4750  178.7380  141.4650 C   0  0  0  0  0  2  0  0  0  0  0  0
  189.3950  177.9030  142.3470 C   0  0  2  0  0  3  0  0  0  0  0  0
  190.3080  178.5420  144.2690 C   0  0  0  0  0  1  0  0  0  0  0  0
  190.3920  178.7250  142.8870 O   0  0  0  0  0  0  0  0  0  0  0  0
  190.0270  176.7800  141.5260 C   0  0  2  0  0  3  0  0  0  0  0  0
  190.3380  175.7040  142.3610 O   0  0  0  0  0  1  0  0  0  0  0  0
  191.3010  177.2760  140.8500 C   0  0  0  0  0  2  0  0  0  0  0  0
  190.3770  175.9530  139.0840 O   0  0  0  0  0  1  0  0  0  0  0  0
  191.2840  176.9760  139.3600 C   0  0  0  0  0  2  0  0  0  0  0  0
  1 28  1  0  0  0  0
  1 13  1  0  0  0  0
  2  1  1  0  0  0  0
  3  2  2  0  0  0  0
  4  8  1  0  0  0  0
  5  2  1  0  0  0  0
  6 10  1  0  0  0  0
  6  5  2  0  0  0  0
  7  6  1  0  0  0  0
  8  5  1  0  0  0  0
  9  7  2  0  0  0  0
 11  7  1  0  0  0  0
 11  4  2  0  0  0  0
 12 11  1  0  0  0  0
 13 14  1  0  0  0  0
 14 22  1  6  0  0  0
 14 15  1  0  0  0  0
 15 16  1  0  0  0  0
 16 17  1  0  0  0  0
 17 19  1  0  0  0  0
 18 16  1  0  0  0  0
 18 21  1  0  0  0  0
 20 19  1  0  0  0  0
 21 20  1  0  0  0  0
 22 23  1  0  0  0  0
 24 25  1  0  0  0  0
 24 23  1  0  0  0  0
 25 26  1  0  0  0  0
 27 25  2  0  0  0  0
 28 29  1  0  0  0  0
 30 29  1  6  0  0  0
 30 32  1  0  0  0  0
 32 31  1  0  0  0  0
 33 30  1  0  0  0  0
 33 34  1  1  0  0  0
 35 33  1  0  0  0  0
 36 37  1  0  0  0  0
 37 35  1  0  0  0  0
M  END
>  <MODEL>
3

>  <REMARK>
 VINA RESULT:      -6.3      1.075      2.095
  Name = 
  16 active torsions:
  status: ('A' for Active; 'I' for Inactive)
    1  A    between atoms: C_1  and  C_22
    2  A    between atoms: C_1  and  C_25
    3  A    between atoms: C_2  and  C_37
    4  A    between atoms: N_3  and  C_4
    5  A    between atoms: N_3  and  N_31
    6  A    between atoms: C_4  and  C_28
    7  A    between atoms: C_5  and  C_19
    8  A    between atoms: C_9  and  C_20
    9  A    between atoms: C_11  and  C_22
   10  A    between atoms: C_11  and  C_28
   11  A    between atoms: C_11  and  O_35
   12  A    between atoms: O_15  and  C_19
   13  A    between atoms: O_15  and  C_21
   14  A    between atoms: C_21  and  C_32
   15  A    between atoms: N_31  and  C_32
   16  A    between atoms: C_32  and  C_37
                            x       y       z     vdW  Elec       q    Type
                         _______ _______ _______ _____ _____    ______ ____

>  <TORSDO>
F 16

$$$$
=
 OpenBabel11042412113D

 37 38  0  0  1  0  0  0  0  0999 V2000
  187.6330  178.0550  139.8700 N   0  0  0  0  0  0  0  0  0  0  0  0
  187.5850  177.9230  138.4380 C   0  0  0  0  0  0  0  0  0  0  0  0
  187.0960  178.8620  137.7500 O   0  0  0  0  0  0  0  0  0  0  0  0
  187.6410  174.3410  136.9030 C   0  0  0  0  0  3  0  0  0  0  0  0
  188.0740  176.7020  137.7520 C   0  0  0  0  0  0  0  0  0  0  0  0
  189.3630  176.5830  137.3740 C   0  0  0  0  0  0  0  0  0  0  0  0
  189.8300  175.3620  136.6950 C   0  0  0  0  0  0  0  0  0  0  0  0
  187.0550  175.6410  137.3870 C   0  0  0  0  0  2  0  0  0  0  0  0
  191.0130  175.2850  136.2710 O   0  0  0  0  0  0  0  0  0  0  0  0
  190.2840  177.5910  137.6490 O   0  0  0  0  0  1  0  0  0  0  0  0
  188.9180  174.2210  136.5480 C   0  0  0  0  0  0  0  0  0  0  0  0
  189.3860  173.0080  136.0560 O   0  0  0  0  0  1  0  0  0  0  0  0
  186.9960  179.1460  140.4880 N   0  0  0  0  0  2  0  0  0  0  0  0
  185.8570  178.6300  141.2350 C   0  0  1  0  0  3  0  0  0  0  0  0
  185.5990  179.5190  142.4410 C   0  0  0  0  0  2  0  0  0  0  0  0
  185.2330  178.6950  143.6640 C   0  0  0  0  0  3  0  0  0  0  0  0
  184.2290  179.4420  144.5420 C   0  0  0  0  0  2  0  0  0  0  0  0
  186.5000  178.3980  144.4620 C   0  0  0  0  0  2  0  0  0  0  0  0
  183.8920  178.6180  145.7820 C   0  0  0  0  0  2  0  0  0  0  0  0
  185.1600  178.3230  146.5760 C   0  0  0  0  0  2  0  0  0  0  0  0
  186.1640  177.5740  145.7030 C   0  0  0  0  0  2  0  0  0  0  0  0
  184.6230  178.6060  140.3420 C   0  0  0  0  0  2  0  0  0  0  0  0
  184.5100  179.8090  139.6430 O   0  0  0  0  0  0  0  0  0  0  0  0
  183.6280  179.5360  138.5970 C   0  0  0  0  0  2  0  0  0  0  0  0
  182.3200  180.1890  138.8690 C   0  0  0  0  0  0  0  0  0  0  0  0
  182.1300  181.5250  138.5410 O   0  0  0  0  0  0  0  0  0  0  0  0
  181.3710  179.5230  139.3630 O   0  0  0  0  0  1  0  0  0  0  0  0
  188.4880  177.1860  140.6720 C   0  0  0  0  0  2  0  0  0  0  0  0
  189.1240  177.9720  141.8050 C   0  0  0  0  0  2  0  0  0  0  0  0
  190.5700  177.5340  141.9920 C   0  0  2  0  0  3  0  0  0  0  0  0
  192.2520  177.4530  140.5430 C   0  0  0  0  0  1  0  0  0  0  0  0
  191.0120  176.8820  140.8350 O   0  0  0  0  0  0  0  0  0  0  0  0
  190.6810  176.6000  143.1970 C   0  0  2  0  0  3  0  0  0  0  0  0
  190.4010  175.2890  142.8030 O   0  0  0  0  0  1  0  0  0  0  0  0
  189.6940  177.0210  144.2800 C   0  0  0  0  0  2  0  0  0  0  0  0
  191.7350  176.8330  145.5130 O   0  0  0  0  0  1  0  0  0  0  0  0
  190.3830  177.1590  145.6270 C   0  0  0  0  0  2  0  0  0  0  0  0
  1 13  1  0  0  0  0
  1 28  1  0  0  0  0
  2  1  1  0  0  0  0
  3  2  2  0  0  0  0
  4  8  1  0  0  0  0
  5  2  1  0  0  0  0
  6 10  1  0  0  0  0
  6  5  2  0  0  0  0
  7  6  1  0  0  0  0
  8  5  1  0  0  0  0
  9  7  2  0  0  0  0
 11  7  1  0  0  0  0
 11  4  2  0  0  0  0
 12 11  1  0  0  0  0
 13 14  1  0  0  0  0
 14 22  1  6  0  0  0
 14 15  1  0  0  0  0
 15 16  1  0  0  0  0
 16 18  1  0  0  0  0
 16 17  1  0  0  0  0
 17 19  1  0  0  0  0
 18 21  1  0  0  0  0
 19 20  1  0  0  0  0
 21 20  1  0  0  0  0
 23 22  1  0  0  0  0
 24 25  1  0  0  0  0
 24 23  1  0  0  0  0
 25 27  1  0  0  0  0
 26 25  2  0  0  0  0
 28 29  1  0  0  0  0
 30 29  1  6  0  0  0
 30 33  1  0  0  0  0
 31 32  1  0  0  0  0
 32 30  1  0  0  0  0
 33 34  1  6  0  0  0
 33 35  1  0  0  0  0
 35 37  1  0  0  0  0
 36 37  1  0  0  0  0
M  END
>  <MODEL>
4

>  <REMARK>
 VINA RESULT:      -6.2      2.006      2.503
  Name = 
  16 active torsions:
  status: ('A' for Active; 'I' for Inactive)
    1  A    between atoms: C_1  and  C_22
    2  A    between atoms: C_1  and  C_25
    3  A    between atoms: C_2  and  C_37
    4  A    between atoms: N_3  and  C_4
    5  A    between atoms: N_3  and  N_31
    6  A    between atoms: C_4  and  C_28
    7  A    between atoms: C_5  and  C_19
    8  A    between atoms: C_9  and  C_20
    9  A    between atoms: C_11  and  C_22
   10  A    between atoms: C_11  and  C_28
   11  A    between atoms: C_11  and  O_35
   12  A    between atoms: O_15  and  C_19
   13  A    between atoms: O_15  and  C_21
   14  A    between atoms: C_21  and  C_32
   15  A    between atoms: N_31  and  C_32
   16  A    between atoms: C_32  and  C_37
                            x       y       z     vdW  Elec       q    Type
                         _______ _______ _______ _____ _____    ______ ____

>  <TORSDO>
F 16

$$$$
=
 OpenBabel11042412113D

 37 38  0  0  1  0  0  0  0  0999 V2000
  189.3450  177.9270  140.6990 N   0  0  0  0  0  0  0  0  0  0  0  0
  190.1360  176.7300  140.5970 C   0  0  0  0  0  0  0  0  0  0  0  0
  190.2520  175.9810  141.6060 O   0  0  0  0  0  0  0  0  0  0  0  0
  190.8930  175.0590  137.1570 C   0  0  0  0  0  3  0  0  0  0  0  0
  190.8390  176.3660  139.3410 C   0  0  0  0  0  0  0  0  0  0  0  0
  192.0910  176.8020  139.0910 C   0  0  0  0  0  0  0  0  0  0  0  0
  192.7710  176.4310  137.8390 C   0  0  0  0  0  0  0  0  0  0  0  0
  190.0640  175.5870  138.2980 C   0  0  0  0  0  2  0  0  0  0  0  0
  193.9080  176.9030  137.5700 O   0  0  0  0  0  0  0  0  0  0  0  0
  192.7760  177.5780  140.0220 O   0  0  0  0  0  1  0  0  0  0  0  0
  192.1340  175.4770  136.9230 C   0  0  0  0  0  0  0  0  0  0  0  0
  192.8280  174.9930  135.8200 O   0  0  0  0  0  1  0  0  0  0  0  0
  188.8490  178.3260  141.9520 N   0  0  0  0  0  2  0  0  0  0  0  0
  187.5040  177.7810  142.0910 C   0  0  1  0  0  3  0  0  0  0  0  0
  187.4600  176.8430  143.2870 C   0  0  0  0  0  2  0  0  0  0  0  0
  187.9890  177.5230  144.5390 C   0  0  0  0  0  3  0  0  0  0  0  0
  189.3110  176.8950  144.9820 C   0  0  0  0  0  2  0  0  0  0  0  0
  186.9530  177.3910  145.6530 C   0  0  0  0  0  2  0  0  0  0  0  0
  189.8160  177.5650  146.2560 C   0  0  0  0  0  2  0  0  0  0  0  0
  188.7780  177.4320  147.3660 C   0  0  0  0  0  2  0  0  0  0  0  0
  187.4580  178.0610  146.9280 C   0  0  0  0  0  2  0  0  0  0  0  0
  186.5070  178.9140  142.2910 C   0  0  0  0  0  2  0  0  0  0  0  0
  185.3070  178.4160  142.8010 O   0  0  0  0  0  0  0  0  0  0  0  0
  184.6680  179.5210  143.3640 C   0  0  0  0  0  2  0  0  0  0  0  0
  183.6140  179.0580  144.3050 C   0  0  0  0  0  0  0  0  0  0  0  0
  183.8770  179.0050  145.6680 O   0  0  0  0  0  1  0  0  0  0  0  0
  182.4720  178.7480  143.8740 O   0  0  0  0  0  0  0  0  0  0  0  0
  188.8920  178.6270  139.5010 C   0  0  0  0  0  2  0  0  0  0  0  0
  187.6780  177.9300  138.9110 C   0  0  0  0  0  2  0  0  0  0  0  0
  187.3550  178.5200  137.5440 C   0  0  2  0  0  3  0  0  0  0  0  0
  185.4520  178.3310  138.6740 C   0  0  0  0  0  1  0  0  0  0  0  0
  185.9710  178.7000  137.4320 O   0  0  0  0  0  0  0  0  0  0  0  0
  187.8560  177.5870  136.4430 C   0  0  2  0  0  3  0  0  0  0  0  0
  189.0680  178.0630  135.9370 O   0  0  0  0  0  1  0  0  0  0  0  0
  186.8350  177.5130  135.3130 C   0  0  0  0  0  2  0  0  0  0  0  0
  186.8340  175.2600  136.1170 O   0  0  0  0  0  1  0  0  0  0  0  0
  186.3510  176.0880  135.1040 C   0  0  0  0  0  2  0  0  0  0  0  0
  1 13  1  0  0  0  0
  2  1  1  0  0  0  0
  2  3  2  0  0  0  0
  4  8  1  0  0  0  0
  5  2  1  0  0  0  0
  6  5  2  0  0  0  0
  6 10  1  0  0  0  0
  7  6  1  0  0  0  0
  8  5  1  0  0  0  0
  9  7  2  0  0  0  0
 11  4  2  0  0  0  0
 11  7  1  0  0  0  0
 12 11  1  0  0  0  0
 13 14  1  0  0  0  0
 14 22  1  1  0  0  0
 14 15  1  0  0  0  0
 15 16  1  0  0  0  0
 16 17  1  0  0  0  0
 16 18  1  0  0  0  0
 17 19  1  0  0  0  0
 18 21  1  0  0  0  0
 19 20  1  0  0  0  0
 21 20  1  0  0  0  0
 22 23  1  0  0  0  0
 23 24  1  0  0  0  0
 24 25  1  0  0  0  0
 25 26  1  0  0  0  0
 27 25  2  0  0  0  0
 28  1  1  0  0  0  0
 29 28  1  0  0  0  0
 30 29  1  1  0  0  0
 32 30  1  0  0  0  0
 32 31  1  0  0  0  0
 33 34  1  6  0  0  0
 33 30  1  0  0  0  0
 35 33  1  0  0  0  0
 37 35  1  0  0  0  0
 37 36  1  0  0  0  0
M  END
>  <MODEL>
5

>  <REMARK>
 VINA RESULT:      -6.2      2.103      4.997
  Name = 
  16 active torsions:
  status: ('A' for Active; 'I' for Inactive)
    1  A    between atoms: C_1  and  C_22
    2  A    between atoms: C_1  and  C_25
    3  A    between atoms: C_2  and  C_37
    4  A    between atoms: N_3  and  C_4
    5  A    between atoms: N_3  and  N_31
    6  A    between atoms: C_4  and  C_28
    7  A    between atoms: C_5  and  C_19
    8  A    between atoms: C_9  and  C_20
    9  A    between atoms: C_11  and  C_22
   10  A    between atoms: C_11  and  C_28
   11  A    between atoms: C_11  and  O_35
   12  A    between atoms: O_15  and  C_19
   13  A    between atoms: O_15  and  C_21
   14  A    between atoms: C_21  and  C_32
   15  A    between atoms: N_31  and  C_32
   16  A    between atoms: C_32  and  C_37
                            x       y       z     vdW  Elec       q    Type
                         _______ _______ _______ _____ _____    ______ ____

>  <TORSDO>
F 16

$$$$
=
 OpenBabel11042412113D

 37 38  0  0  1  0  0  0  0  0999 V2000
  187.1650  178.3410  142.0540 N   0  0  0  0  0  0  0  0  0  0  0  0
  185.9960  178.9760  141.5040 C   0  0  0  0  0  0  0  0  0  0  0  0
  186.0900  179.5940  140.4080 O   0  0  0  0  0  0  0  0  0  0  0  0
  183.3490  179.1770  144.3580 C   0  0  0  0  0  3  0  0  0  0  0  0
  184.6900  178.9420  142.2060 C   0  0  0  0  0  0  0  0  0  0  0  0
  183.5620  178.5730  141.5640 C   0  0  0  0  0  0  0  0  0  0  0  0
  182.2750  178.5450  142.2780 C   0  0  0  0  0  0  0  0  0  0  0  0
  184.6420  179.4460  143.6340 C   0  0  0  0  0  2  0  0  0  0  0  0
  181.2110  178.2780  141.6590 O   0  0  0  0  0  0  0  0  0  0  0  0
  183.5980  178.1760  140.2300 O   0  0  0  0  0  1  0  0  0  0  0  0
  182.2430  178.7940  143.7250 C   0  0  0  0  0  0  0  0  0  0  0  0
  181.0650  178.6150  144.4410 O   0  0  0  0  0  1  0  0  0  0  0  0
  188.4170  178.5520  141.4500 N   0  0  0  0  0  2  0  0  0  0  0  0
  188.6100  177.5080  140.4520 C   0  0  1  0  0  3  0  0  0  0  0  0
  188.4890  178.1100  139.0610 C   0  0  0  0  0  2  0  0  0  0  0  0
  187.5250  177.3120  138.1980 C   0  0  0  0  0  3  0  0  0  0  0  0
  188.2420  176.1460  137.5180 C   0  0  0  0  0  2  0  0  0  0  0  0
  186.9190  178.2360  137.1440 C   0  0  0  0  0  2  0  0  0  0  0  0
  187.2720  175.3710  136.6310 C   0  0  0  0  0  2  0  0  0  0  0  0
  186.6690  176.2970  135.5800 C   0  0  0  0  0  2  0  0  0  0  0  0
  185.9490  177.4610  136.2560 C   0  0  0  0  0  2  0  0  0  0  0  0
  189.9860  176.8800  140.6210 C   0  0  0  0  0  2  0  0  0  0  0  0
  190.9210  177.5450  139.8260 O   0  0  0  0  0  0  0  0  0  0  0  0
  191.5170  176.5440  139.0570 C   0  0  0  0  0  2  0  0  0  0  0  0
  192.9510  176.8730  138.8410 C   0  0  0  0  0  0  0  0  0  0  0  0
  193.7470  177.2420  139.9170 O   0  0  0  0  0  1  0  0  0  0  0  0
  193.4540  176.7830  137.6890 O   0  0  0  0  0  0  0  0  0  0  0  0
  187.0440  177.3370  143.1060 C   0  0  0  0  0  2  0  0  0  0  0  0
  188.3740  177.1570  143.8170 C   0  0  0  0  0  2  0  0  0  0  0  0
  188.4160  178.0310  145.0640 C   0  0  2  0  0  3  0  0  0  0  0  0
  190.5340  178.0620  144.3940 C   0  0  0  0  0  1  0  0  0  0  0  0
  189.7320  178.1030  145.5360 O   0  0  0  0  0  0  0  0  0  0  0  0
  187.5020  177.4480  146.1410 C   0  0  2  0  0  3  0  0  0  0  0  0
  186.6150  178.4310  146.5890 O   0  0  0  0  0  1  0  0  0  0  0  0
  188.3300  176.9460  147.3180 C   0  0  0  0  0  2  0  0  0  0  0  0
  189.3310  178.5540  148.7790 O   0  0  0  0  0  1  0  0  0  0  0  0
  188.1570  177.8410  148.5330 C   0  0  0  0  0  2  0  0  0  0  0  0
  1 28  1  0  0  0  0
  2  1  1  0  0  0  0
  2  5  1  0  0  0  0
  3  2  2  0  0  0  0
  5  8  1  0  0  0  0
  6  5  2  0  0  0  0
  6  7  1  0  0  0  0
  7 11  1  0  0  0  0
  8  4  1  0  0  0  0
  9  7  2  0  0  0  0
 10  6  1  0  0  0  0
 11  4  2  0  0  0  0
 11 12  1  0  0  0  0
 13  1  1  0  0  0  0
 14 15  1  6  0  0  0
 14 22  1  0  0  0  0
 14 13  1  0  0  0  0
 16 15  1  0  0  0  0
 17 16  1  0  0  0  0
 18 16  1  0  0  0  0
 19 17  1  0  0  0  0
 20 21  1  0  0  0  0
 20 19  1  0  0  0  0
 21 18  1  0  0  0  0
 23 22  1  0  0  0  0
 24 23  1  0  0  0  0
 25 24  1  0  0  0  0
 25 26  1  0  0  0  0
 27 25  2  0  0  0  0
 28 29  1  0  0  0  0
 30 29  1  6  0  0  0
 30 32  1  0  0  0  0
 30 33  1  0  0  0  0
 31 32  1  0  0  0  0
 33 34  1  1  0  0  0
 33 35  1  0  0  0  0
 35 37  1  0  0  0  0
 37 36  1  0  0  0  0
M  END
>  <MODEL>
6

>  <REMARK>
 VINA RESULT:      -6.1      2.093      7.807
  Name = 
  16 active torsions:
  status: ('A' for Active; 'I' for Inactive)
    1  A    between atoms: C_1  and  C_22
    2  A    between atoms: C_1  and  C_25
    3  A    between atoms: C_2  and  C_37
    4  A    between atoms: N_3  and  C_4
    5  A    between atoms: N_3  and  N_31
    6  A    between atoms: C_4  and  C_28
    7  A    between atoms: C_5  and  C_19
    8  A    between atoms: C_9  and  C_20
    9  A    between atoms: C_11  and  C_22
   10  A    between atoms: C_11  and  C_28
   11  A    between atoms: C_11  and  O_35
   12  A    between atoms: O_15  and  C_19
   13  A    between atoms: O_15  and  C_21
   14  A    between atoms: C_21  and  C_32
   15  A    between atoms: N_31  and  C_32
   16  A    between atoms: C_32  and  C_37
                            x       y       z     vdW  Elec       q    Type
                         _______ _______ _______ _____ _____    ______ ____

>  <TORSDO>
F 16

$$$$
=
 OpenBabel11042412113D

 37 38  0  0  1  0  0  0  0  0999 V2000
  183.6660  177.9180  139.4300 N   0  0  0  0  0  0  0  0  0  0  0  0
  184.1660  178.9760  140.2670 C   0  0  0  0  0  0  0  0  0  0  0  0
  184.5710  180.0450  139.7320 O   0  0  0  0  0  0  0  0  0  0  0  0
  183.1160  178.9930  144.0210 C   0  0  0  0  0  3  0  0  0  0  0  0
  184.2400  178.8320  141.7420 C   0  0  0  0  0  0  0  0  0  0  0  0
  185.4020  178.5280  142.3560 C   0  0  0  0  0  0  0  0  0  0  0  0
  185.4560  178.3890  143.8210 C   0  0  0  0  0  0  0  0  0  0  0  0
  182.9470  178.9210  142.5270 C   0  0  0  0  0  2  0  0  0  0  0  0
  186.5220  178.0280  144.3860 O   0  0  0  0  0  0  0  0  0  0  0  0
  186.5780  178.3770  141.6250 O   0  0  0  0  0  1  0  0  0  0  0  0
  184.2690  178.7110  144.6230 C   0  0  0  0  0  0  0  0  0  0  0  0
  184.3470  178.7400  146.0110 O   0  0  0  0  0  1  0  0  0  0  0  0
  183.7830  178.0250  138.0330 N   0  0  0  0  0  2  0  0  0  0  0  0
  184.9070  177.1970  137.6160 C   0  0  1  0  0  3  0  0  0  0  0  0
  184.4490  176.2320  136.5340 C   0  0  0  0  0  2  0  0  0  0  0  0
  184.1450  174.8600  137.1140 C   0  0  0  0  0  3  0  0  0  0  0  0
  185.4180  174.0200  137.2170 C   0  0  0  0  0  2  0  0  0  0  0  0
  183.1290  174.1550  136.2180 C   0  0  0  0  0  2  0  0  0  0  0  0
  185.0960  172.6350  137.7720 C   0  0  0  0  0  2  0  0  0  0  0  0
  184.0810  171.9350  136.8750 C   0  0  0  0  0  2  0  0  0  0  0  0
  182.8070  172.7690  136.7710 C   0  0  0  0  0  2  0  0  0  0  0  0
  186.0250  178.0790  137.0780 C   0  0  0  0  0  2  0  0  0  0  0  0
  187.1830  177.3240  136.8850 O   0  0  0  0  0  0  0  0  0  0  0  0
  187.7600  177.2180  138.1510 C   0  0  0  0  0  2  0  0  0  0  0  0
  189.0140  178.0150  138.1930 C   0  0  0  0  0  0  0  0  0  0  0  0
  190.1640  177.5300  137.5840 O   0  0  0  0  0  0  0  0  0  0  0  0
  189.0270  179.1460  138.7480 O   0  0  0  0  0  1  0  0  0  0  0  0
  182.8730  176.8300  139.9940 C   0  0  0  0  0  2  0  0  0  0  0  0
  181.4520  176.8840  139.4620 C   0  0  0  0  0  2  0  0  0  0  0  0
  180.5900  177.7480  140.3730 C   0  0  2  0  0  3  0  0  0  0  0  0
  179.1810  176.1060  139.8700 C   0  0  0  0  0  1  0  0  0  0  0  0
  179.5500  176.9740  140.9000 O   0  0  0  0  0  0  0  0  0  0  0  0
  180.0210  178.9290  139.5860 C   0  0  2  0  0  3  0  0  0  0  0  0
  180.4600  178.8660  138.2610 O   0  0  0  0  0  1  0  0  0  0  0  0
  180.4810  180.2430  140.2060 C   0  0  0  0  0  2  0  0  0  0  0  0
  179.9040  180.8040  142.4590 O   0  0  0  0  0  1  0  0  0  0  0  0
  179.4280  180.8040  141.1480 C   0  0  0  0  0  2  0  0  0  0  0  0
  1 28  1  0  0  0  0
  1  2  1  0  0  0  0
  2  5  1  0  0  0  0
  3  2  2  0  0  0  0
  4 11  2  0  0  0  0
  5  6  2  0  0  0  0
  5  8  1  0  0  0  0
  6  7  1  0  0  0  0
  7  9  2  0  0  0  0
  7 11  1  0  0  0  0
  8  4  1  0  0  0  0
 10  6  1  0  0  0  0
 11 12  1  0  0  0  0
 13  1  1  0  0  0  0
 14 15  1  6  0  0  0
 14 13  1  0  0  0  0
 15 16  1  0  0  0  0
 16 17  1  0  0  0  0
 17 19  1  0  0  0  0
 18 21  1  0  0  0  0
 18 16  1  0  0  0  0
 20 19  1  0  0  0  0
 21 20  1  0  0  0  0
 22 14  1  0  0  0  0
 23 22  1  0  0  0  0
 23 24  1  0  0  0  0
 24 25  1  0  0  0  0
 25 27  1  0  0  0  0
 26 25  2  0  0  0  0
 29 28  1  0  0  0  0
 30 29  1  6  0  0  0
 30 32  1  0  0  0  0
 31 32  1  0  0  0  0
 33 34  1  6  0  0  0
 33 35  1  0  0  0  0
 33 30  1  0  0  0  0
 35 37  1  0  0  0  0
 37 36  1  0  0  0  0
M  END
>  <MODEL>
7

>  <REMARK>
 VINA RESULT:      -5.8      2.648      8.695
  Name = 
  16 active torsions:
  status: ('A' for Active; 'I' for Inactive)
    1  A    between atoms: C_1  and  C_22
    2  A    between atoms: C_1  and  C_25
    3  A    between atoms: C_2  and  C_37
    4  A    between atoms: N_3  and  C_4
    5  A    between atoms: N_3  and  N_31
    6  A    between atoms: C_4  and  C_28
    7  A    between atoms: C_5  and  C_19
    8  A    between atoms: C_9  and  C_20
    9  A    between atoms: C_11  and  C_22
   10  A    between atoms: C_11  and  C_28
   11  A    between atoms: C_11  and  O_35
   12  A    between atoms: O_15  and  C_19
   13  A    between atoms: O_15  and  C_21
   14  A    between atoms: C_21  and  C_32
   15  A    between atoms: N_31  and  C_32
   16  A    between atoms: C_32  and  C_37
                            x       y       z     vdW  Elec       q    Type
                         _______ _______ _______ _____ _____    ______ ____

>  <TORSDO>
F 16

$$$$
=
 OpenBabel11042412113D

 37 38  0  0  1  0  0  0  0  0999 V2000
  189.4230  177.2700  140.9210 N   0  0  0  0  0  0  0  0  0  0  0  0
  190.0780  177.2150  139.6410 C   0  0  0  0  0  0  0  0  0  0  0  0
  191.3170  176.9810  139.5930 O   0  0  0  0  0  0  0  0  0  0  0  0
  188.1090  179.0440  136.8170 C   0  0  0  0  0  3  0  0  0  0  0  0
  189.3370  177.4490  138.3770 C   0  0  0  0  0  0  0  0  0  0  0  0
  189.0160  176.4280  137.5560 C   0  0  0  0  0  0  0  0  0  0  0  0
  188.2800  176.6800  136.3060 C   0  0  0  0  0  0  0  0  0  0  0  0
  189.0520  178.8840  137.9800 C   0  0  0  0  0  2  0  0  0  0  0  0
  188.0520  175.7380  135.5020 O   0  0  0  0  0  0  0  0  0  0  0  0
  189.3420  175.1150  137.8890 O   0  0  0  0  0  1  0  0  0  0  0  0
  187.7800  178.0300  136.0200 C   0  0  0  0  0  0  0  0  0  0  0  0
  186.9490  178.2540  134.9290 O   0  0  0  0  0  1  0  0  0  0  0  0
  190.1940  177.2230  142.0970 N   0  0  0  0  0  2  0  0  0  0  0  0
  189.5060  178.0110  143.1100 C   0  0  1  0  0  3  0  0  0  0  0  0
  188.6710  177.0900  143.9860 C   0  0  0  0  0  2  0  0  0  0  0  0
  188.0620  177.8460  145.1560 C   0  0  0  0  0  3  0  0  0  0  0  0
  188.3920  177.1560  146.4790 C   0  0  0  0  0  2  0  0  0  0  0  0
  186.5480  177.9170  144.9700 C   0  0  0  0  0  2  0  0  0  0  0  0
  187.7510  177.9060  147.6430 C   0  0  0  0  0  2  0  0  0  0  0  0
  186.2390  177.9740  147.4540 C   0  0  0  0  0  2  0  0  0  0  0  0
  185.9060  178.6660  146.1340 C   0  0  0  0  0  2  0  0  0  0  0  0
  190.5240  178.7500  143.9680 C   0  0  0  0  0  2  0  0  0  0  0  0
  191.6790  177.9810  144.1150 O   0  0  0  0  0  0  0  0  0  0  0  0
  191.6560  177.5460  145.4410 C   0  0  0  0  0  2  0  0  0  0  0  0
  191.9470  176.0890  145.4900 C   0  0  0  0  0  0  0  0  0  0  0  0
  192.0650  175.4460  146.7150 O   0  0  0  0  0  1  0  0  0  0  0  0
  192.0510  175.4280  144.4220 O   0  0  0  0  0  0  0  0  0  0  0  0
  187.9700  177.1820  141.0210 C   0  0  0  0  0  2  0  0  0  0  0  0
  187.3480  178.5610  140.8880 C   0  0  0  0  0  2  0  0  0  0  0  0
  185.9120  178.4370  140.3960 C   0  0  2  0  0  3  0  0  0  0  0  0
  185.1170  178.0620  138.3570 C   0  0  0  0  0  1  0  0  0  0  0  0
  185.8080  179.0040  139.1210 O   0  0  0  0  0  0  0  0  0  0  0  0
  184.9660  179.1440  141.3660 C   0  0  2  0  0  3  0  0  0  0  0  0
  185.7050  179.7790  142.3670 O   0  0  0  0  0  1  0  0  0  0  0  0
  184.0180  178.1340  142.0050 C   0  0  0  0  0  2  0  0  0  0  0  0
  182.2600  179.2500  143.1810 O   0  0  0  0  0  1  0  0  0  0  0  0
  183.5020  178.6360  143.3430 C   0  0  0  0  0  2  0  0  0  0  0  0
  1 28  1  0  0  0  0
  1 13  1  0  0  0  0
  2  1  1  0  0  0  0
  3  2  2  0  0  0  0
  4  8  1  0  0  0  0
  5  2  1  0  0  0  0
  6 10  1  0  0  0  0
  6  5  2  0  0  0  0
  7  6  1  0  0  0  0
  8  5  1  0  0  0  0
  9  7  2  0  0  0  0
 11  7  1  0  0  0  0
 11  4  2  0  0  0  0
 12 11  1  0  0  0  0
 13 14  1  0  0  0  0
 14 22  1  1  0  0  0
 14 15  1  0  0  0  0
 15 16  1  0  0  0  0
 16 17  1  0  0  0  0
 17 19  1  0  0  0  0
 18 16  1  0  0  0  0
 18 21  1  0  0  0  0
 20 19  1  0  0  0  0
 21 20  1  0  0  0  0
 22 23  1  0  0  0  0
 23 24  1  0  0  0  0
 24 25  1  0  0  0  0
 25 26  1  0  0  0  0
 27 25  2  0  0  0  0
 29 28  1  0  0  0  0
 30 29  1  1  0  0  0
 30 33  1  0  0  0  0
 31 32  1  0  0  0  0
 32 30  1  0  0  0  0
 33 35  1  0  0  0  0
 33 34  1  1  0  0  0
 35 37  1  0  0  0  0
 36 37  1  0  0  0  0
M  END
>  <MODEL>
8

>  <REMARK>
 VINA RESULT:      -5.8      1.805      5.936
  Name = 
  16 active torsions:
  status: ('A' for Active; 'I' for Inactive)
    1  A    between atoms: C_1  and  C_22
    2  A    between atoms: C_1  and  C_25
    3  A    between atoms: C_2  and  C_37
    4  A    between atoms: N_3  and  C_4
    5  A    between atoms: N_3  and  N_31
    6  A    between atoms: C_4  and  C_28
    7  A    between atoms: C_5  and  C_19
    8  A    between atoms: C_9  and  C_20
    9  A    between atoms: C_11  and  C_22
   10  A    between atoms: C_11  and  C_28
   11  A    between atoms: C_11  and  O_35
   12  A    between atoms: O_15  and  C_19
   13  A    between atoms: O_15  and  C_21
   14  A    between atoms: C_21  and  C_32
   15  A    between atoms: N_31  and  C_32
   16  A    between atoms: C_32  and  C_37
                            x       y       z     vdW  Elec       q    Type
                         _______ _______ _______ _____ _____    ______ ____

>  <TORSDO>
F 16

$$$$
=
 OpenBabel11042412113D

 37 38  0  0  1  0  0  0  0  0999 V2000
  185.6150  178.7960  141.2410 N   0  0  0  0  0  0  0  0  0  0  0  0
  184.6110  178.8620  140.2120 C   0  0  0  0  0  0  0  0  0  0  0  0
  184.9280  179.2940  139.0700 O   0  0  0  0  0  0  0  0  0  0  0  0
  181.0290  178.7790  141.7480 C   0  0  0  0  0  3  0  0  0  0  0  0
  183.2070  178.4560  140.4690 C   0  0  0  0  0  0  0  0  0  0  0  0
  182.6690  177.3790  139.8610 C   0  0  0  0  0  0  0  0  0  0  0  0
  181.2740  176.9920  140.1280 C   0  0  0  0  0  0  0  0  0  0  0  0
  182.3600  179.3570  141.3460 C   0  0  0  0  0  2  0  0  0  0  0  0
  180.7490  176.0350  139.5000 O   0  0  0  0  0  0  0  0  0  0  0  0
  183.4300  176.5920  139.0000 O   0  0  0  0  0  1  0  0  0  0  0  0
  180.5090  177.7050  141.1590 C   0  0  0  0  0  0  0  0  0  0  0  0
  179.2500  177.2540  141.5360 O   0  0  0  0  0  1  0  0  0  0  0  0
  186.8830  179.3580  141.0100 N   0  0  0  0  0  2  0  0  0  0  0  0
  187.8230  178.2640  140.8060 C   0  0  1  0  0  3  0  0  0  0  0  0
  188.4700  178.4020  139.4380 C   0  0  0  0  0  2  0  0  0  0  0  0
  188.3230  177.1230  138.6280 C   0  0  0  0  0  3  0  0  0  0  0  0
  189.6690  176.6910  138.0460 C   0  0  0  0  0  2  0  0  0  0  0  0
  187.3220  177.3600  137.5000 C   0  0  0  0  0  2  0  0  0  0  0  0
  189.5040  175.4250  137.2110 C   0  0  0  0  0  2  0  0  0  0  0  0
  188.5030  175.6650  136.0860 C   0  0  0  0  0  2  0  0  0  0  0  0
  187.1570  176.0940  136.6640 C   0  0  0  0  0  2  0  0  0  0  0  0
  188.8950  178.2970  141.8860 C   0  0  0  0  0  2  0  0  0  0  0  0
  190.0050  177.5500  141.4870 O   0  0  0  0  0  0  0  0  0  0  0  0
  190.9240  177.6870  142.5280 C   0  0  0  0  0  2  0  0  0  0  0  0
  190.8710  176.4810  143.3970 C   0  0  0  0  0  0  0  0  0  0  0  0
  190.4690  175.2620  142.8670 O   0  0  0  0  0  0  0  0  0  0  0  0
  191.2250  176.5540  144.6040 O   0  0  0  0  0  1  0  0  0  0  0  0
  185.4030  177.9930  142.4420 C   0  0  0  0  0  2  0  0  0  0  0  0
  185.2430  178.8920  143.6550 C   0  0  0  0  0  2  0  0  0  0  0  0
  185.4280  178.0790  144.9300 C   0  0  2  0  0  3  0  0  0  0  0  0
  183.3950  178.9380  145.1760 C   0  0  0  0  0  1  0  0  0  0  0  0
  184.5140  178.5160  145.8960 O   0  0  0  0  0  0  0  0  0  0  0  0
  186.8570  178.2380  145.4470 C   0  0  2  0  0  3  0  0  0  0  0  0
  187.6300  177.1480  145.0370 O   0  0  0  0  0  1  0  0  0  0  0  0
  186.8600  178.3120  146.9700 C   0  0  0  0  0  2  0  0  0  0  0  0
  188.5440  178.1220  148.6580 O   0  0  0  0  0  1  0  0  0  0  0  0
  187.9820  177.4740  147.5580 C   0  0  0  0  0  2  0  0  0  0  0  0
  1 28  1  0  0  0  0
  2  5  1  0  0  0  0
  2  1  1  0  0  0  0
  3  2  2  0  0  0  0
  5  8  1  0  0  0  0
  6  7  1  0  0  0  0
  6  5  2  0  0  0  0
  7 11  1  0  0  0  0
  8  4  1  0  0  0  0
  9  7  2  0  0  0  0
 10  6  1  0  0  0  0
 11 12  1  0  0  0  0
 11  4  2  0  0  0  0
 13  1  1  0  0  0  0
 14 15  1  6  0  0  0
 14 13  1  0  0  0  0
 14 22  1  0  0  0  0
 16 15  1  0  0  0  0
 17 16  1  0  0  0  0
 18 16  1  0  0  0  0
 19 17  1  0  0  0  0
 20 21  1  0  0  0  0
 20 19  1  0  0  0  0
 21 18  1  0  0  0  0
 23 22  1  0  0  0  0
 23 24  1  0  0  0  0
 24 25  1  0  0  0  0
 25 27  1  0  0  0  0
 26 25  2  0  0  0  0
 28 29  1  0  0  0  0
 30 29  1  6  0  0  0
 30 33  1  0  0  0  0
 30 32  1  0  0  0  0
 31 32  1  0  0  0  0
 33 34  1  1  0  0  0
 33 35  1  0  0  0  0
 35 37  1  0  0  0  0
 37 36  1  0  0  0  0
M  END
>  <MODEL>
9

>  <REMARK>
 VINA RESULT:      -5.8      2.091      7.166
  Name = 
  16 active torsions:
  status: ('A' for Active; 'I' for Inactive)
    1  A    between atoms: C_1  and  C_22
    2  A    between atoms: C_1  and  C_25
    3  A    between atoms: C_2  and  C_37
    4  A    between atoms: N_3  and  C_4
    5  A    between atoms: N_3  and  N_31
    6  A    between atoms: C_4  and  C_28
    7  A    between atoms: C_5  and  C_19
    8  A    between atoms: C_9  and  C_20
    9  A    between atoms: C_11  and  C_22
   10  A    between atoms: C_11  and  C_28
   11  A    between atoms: C_11  and  O_35
   12  A    between atoms: O_15  and  C_19
   13  A    between atoms: O_15  and  C_21
   14  A    between atoms: C_21  and  C_32
   15  A    between atoms: N_31  and  C_32
   16  A    between atoms: C_32  and  C_37
                            x       y       z     vdW  Elec       q    Type
                         _______ _______ _______ _____ _____    ______ ____

>  <TORSDO>
F 16

$$$$
