=
 OpenBabel11032419253D

 51 54  0  0  1  0  0  0  0  0999 V2000
  191.2730  177.2760  142.9960 C   0  0  1  0  0  3  0  0  0  0  0  0
  189.3830  178.8510  146.3440 O   0  0  0  0  0  0  0  0  0  0  0  0
  190.1080  179.1990  144.1370 C   0  0  0  0  0  2  0  0  0  0  0  0
  192.1770  174.7050  143.8460 Cl  0  0  0  0  0  0  0  0  0  0  0  0
  188.9530  177.0030  144.9510 C   0  0  2  0  0  3  0  0  0  0  0  0
  189.4640  178.3900  145.2180 C   0  0  0  0  0  0  0  0  0  0  0  0
  191.0800  176.0780  143.9090 C   0  0  0  0  0  0  0  0  0  0  0  0
  191.4520  178.6090  143.7400 C   0  0  0  0  0  2  0  0  0  0  0  0
  190.0470  175.9840  144.7630 C   0  0  0  0  0  3  0  0  0  0  0  0
  187.9140  176.9560  143.8730 C   0  0  0  0  0  0  0  0  0  0  0  0
  186.9550  178.0090  143.7450 N   0  0  0  0  0  2  0  0  0  0  0  0
  187.8940  175.9790  143.0800 O   0  0  0  0  0  0  0  0  0  0  0  0
  185.8820  177.9810  142.7620 C   0  0  2  0  0  3  0  0  0  0  0  0
  186.0780  179.1120  141.7550 C   0  0  1  0  0  3  0  0  0  0  0  0
  187.0690  178.7330  140.7570 N   0  0  0  0  0  2  0  0  0  0  0  0
  184.8210  179.3410  140.9810 C   0  0  0  0  0  2  0  0  0  0  0  0
  185.1440  178.7060  139.6550 C   0  0  1  0  0  3  0  0  0  0  0  0
  186.4140  178.1060  139.7370 O   0  0  0  0  0  0  0  0  0  0  0  0
  184.1270  177.7210  139.2830 N   0  0  0  0  0  2  0  0  0  0  0  0
  183.3390  178.2480  138.2420 N   0  0  0  0  0  0  0  0  0  0  0  0
  183.7650  177.6800  137.0890 O   0  0  0  0  0  1  0  0  0  0  0  0
  181.9490  177.8470  138.4670 C   0  0  0  0  0  2  0  0  0  0  0  0
  181.0880  179.0020  138.7160 N   0  0  0  0  0  0  0  0  0  0  0  0
  181.3080  179.3980  140.0990 C   0  0  0  0  0  3  0  0  0  0  0  0
  179.9820  179.4290  140.8400 C   0  0  0  0  0  2  0  0  0  0  0  0
  180.9210  178.2600  141.0260 C   0  0  0  0  0  2  0  0  0  0  0  0
  181.6030  180.0810  137.8840 C   0  0  0  0  0  2  0  0  0  0  0  0
  180.5600  180.5030  136.8620 C   0  0  0  0  0  2  0  0  0  0  0  0
  180.0890  182.5700  137.1710 O   0  0  0  0  0  1  0  0  0  0  0  0
  180.8300  181.7940  136.4100 O   0  0  0  0  0  0  0  0  0  0  0  0
  184.5420  178.1430  143.4700 C   0  0  0  0  0  2  0  0  0  0  0  0
  184.7200  178.8560  144.7980 C   0  0  0  0  0  1  0  0  0  0  0  0
  192.2080  177.0600  141.9570 O   0  0  0  0  0  0  0  0  0  0  0  0
  191.8150  177.7840  140.8150 C   0  0  0  0  0  2  0  0  0  0  0  0
  191.5130  176.8350  139.6700 C   0  0  0  0  0  2  0  0  0  0  0  0
  192.7600  176.5940  138.8410 C   0  0  0  0  0  2  0  0  0  0  0  0
  191.5960  174.3390  137.9870 O   0  0  0  0  0  0  0  0  0  0  0  0
  192.3800  175.5150  137.4770 S   0  0  0  0  0  0  0  0  0  0  0  0
  191.5640  176.2580  136.4570 O   0  0  0  0  0  0  0  0  0  0  0  0
  193.8570  174.9770  136.7510 N   0  0  0  0  0  2  0  0  0  0  0  0
  195.3000  172.9730  136.4690 C   0  0  0  0  0  0  0  0  0  0  0  0
  195.1730  171.4890  136.1800 C   0  0  0  0  0  1  0  0  0  0  0  0
  195.3400  173.3920  137.9330 C   0  0  2  0  0  0  0  0  0  0  0  0
  195.2550  172.3530  138.8620 O   0  0  0  0  0  1  0  0  0  0  0  0
  196.0510  173.8290  135.4550 C   0  0  0  0  0  1  0  0  0  0  0  0
  194.0510  173.5810  137.1250 C   0  0  1  0  0  3  0  0  0  0  0  0
  196.1540  174.6280  138.3310 C   0  0  2  0  0  3  0  0  0  0  0  0
  198.3140  175.4020  137.6760 O   0  0  0  0  0  1  0  0  0  0  0  0
  197.6410  174.3280  138.2570 C   0  0  0  0  0  2  0  0  0  0  0  0
  196.8650  175.7160  140.1710 O   0  0  0  0  0  1  0  0  0  0  0  0
  195.7980  175.0450  139.6770 N   0  0  0  0  0  2  0  0  0  0  0  0
  1 33  1  1  0  0  0
  1  8  1  0  0  0  0
  1  7  1  0  0  0  0
  3  6  1  0  0  0  0
  4  7  1  0  0  0  0
  5 10  1  6  0  0  0
  5  6  1  0  0  0  0
  6  2  2  0  0  0  0
  7  9  2  0  0  0  0
  8  3  1  0  0  0  0
  9  5  1  0  0  0  0
 11 10  1  0  0  0  0
 12 10  2  0  0  0  0
 13 31  1  1  0  0  0
 13 11  1  0  0  0  0
 14 13  1  1  0  0  0
 15 14  1  0  0  0  0
 16 14  1  0  0  0  0
 17 19  1  1  0  0  0
 17 18  1  0  0  0  0
 17 16  1  0  0  0  0
 18 15  1  0  0  0  0
 20 22  1  0  0  0  0
 20 19  1  0  0  0  0
 21 20  1  0  0  0  0
 22 23  1  0  0  0  0
 23 24  1  0  0  0  0
 24 25  1  0  0  0  0
 24 26  1  0  0  0  0
 25 26  1  0  0  0  0
 27 23  1  0  0  0  0
 28 27  1  0  0  0  0
 30 28  1  0  0  0  0
 30 29  1  0  0  0  0
 31 32  1  0  0  0  0
 34 33  1  0  0  0  0
 35 34  1  0  0  0  0
 36 35  1  0  0  0  0
 38 37  2  0  0  0  0
 38 36  1  0  0  0  0
 39 38  2  0  0  0  0
 40 38  1  0  0  0  0
 41 46  1  0  0  0  0
 41 43  1  0  0  0  0
 42 41  1  0  0  0  0
 43 47  1  0  0  0  0
 43 44  1  1  0  0  0
 45 41  1  0  0  0  0
 46 40  1  6  0  0  0
 46 43  1  0  0  0  0
 47 49  1  1  0  0  0
 47 51  1  0  0  0  0
 48 49  1  0  0  0  0
 51 50  1  0  0  0  0
M  END
>  <MODEL>
1

>  <REMARK>
 VINA RESULT:      -5.6      0.000      0.000
  Name = 
  22 active torsions:
  status: ('A' for Active; 'I' for Inactive)
    1  A    between atoms: C_2  and  C_14
    2  A    between atoms: C_2  and  N_21
    3  A    between atoms: C_2  and  C_40
    4  A    between atoms: C_3  and  C_28
    5  A    between atoms: C_5  and  N_23
    6  A    between atoms: O_7  and  C_8
    7  A    between atoms: O_7  and  C_19
    8  A    between atoms: O_11  and  C_37
    9  A    between atoms: C_12  and  C_24
   10  A    between atoms: C_12  and  S_36
   11  A    between atoms: C_15  and  C_42
   12  A    between atoms: C_18  and  N_23
   13  A    between atoms: C_18  and  N_31
   14  A    between atoms: C_19  and  C_24
   15  A    between atoms: N_20  and  N_31
   16  A    between atoms: N_20  and  C_38
   17  A    between atoms: N_23  and  C_27
   18  A    between atoms: C_27  and  C_37
   19  A    between atoms: C_29  and  C_42
   20  A    between atoms: N_35  and  C_42
   21  A    between atoms: S_36  and  N_44
   22  A    between atoms: N_44  and  C_51
                            x       y       z     vdW  Elec       q    Type
                         _______ _______ _______ _____ _____    ______ ____

>  <TORSDO>
F 22

$$$$
=
 OpenBabel11032419253D

 51 54  0  0  1  0  0  0  0  0999 V2000
  189.6770  177.9120  144.6940 C   0  0  1  0  0  3  0  0  0  0  0  0
  192.5470  174.9740  144.0710 O   0  0  0  0  0  0  0  0  0  0  0  0
  190.3160  175.4750  144.6080 C   0  0  0  0  0  2  0  0  0  0  0  0
  191.1290  180.3620  144.5030 Cl  0  0  0  0  0  0  0  0  0  0  0  0
  191.6590  176.6930  142.7290 C   0  0  2  0  0  3  0  0  0  0  0  0
  191.5690  175.6570  143.8120 C   0  0  0  0  0  0  0  0  0  0  0  0
  190.8600  178.6680  144.1160 C   0  0  0  0  0  0  0  0  0  0  0  0
  190.0650  176.6710  145.5140 C   0  0  0  0  0  2  0  0  0  0  0  0
  191.7190  178.1050  143.2510 C   0  0  0  0  0  3  0  0  0  0  0  0
  190.6360  176.5070  141.6510 C   0  0  0  0  0  0  0  0  0  0  0  0
  190.8910  176.9680  140.3220 N   0  0  0  0  0  2  0  0  0  0  0  0
  189.5470  175.9380  141.9280 O   0  0  0  0  0  0  0  0  0  0  0  0
  189.9060  176.8750  139.2550 C   0  0  2  0  0  3  0  0  0  0  0  0
  190.5960  176.4770  137.9520 C   0  0  1  0  0  3  0  0  0  0  0  0
  191.3190  175.2250  138.1270 N   0  0  0  0  0  2  0  0  0  0  0  0
  189.5810  176.1900  136.8940 C   0  0  0  0  0  2  0  0  0  0  0  0
  189.5950  174.6850  136.8400 C   0  0  1  0  0  3  0  0  0  0  0  0
  190.4600  174.2040  137.8400 O   0  0  0  0  0  0  0  0  0  0  0  0
  188.2460  174.1420  137.0130 N   0  0  0  0  0  2  0  0  0  0  0  0
  187.4130  174.6580  136.0030 N   0  0  0  0  0  0  0  0  0  0  0  0
  187.2340  173.6760  135.0880 O   0  0  0  0  0  1  0  0  0  0  0  0
  186.1120  174.9760  136.5970 C   0  0  0  0  0  2  0  0  0  0  0  0
  185.0130  174.3830  135.8380 N   0  0  0  0  0  0  0  0  0  0  0  0
  184.1270  173.7540  136.8060 C   0  0  0  0  0  3  0  0  0  0  0  0
  184.1710  172.2450  136.6360 C   0  0  0  0  0  2  0  0  0  0  0  0
  184.9370  172.8990  137.7630 C   0  0  0  0  0  2  0  0  0  0  0  0
  184.2750  175.4950  135.2530 C   0  0  0  0  0  2  0  0  0  0  0  0
  182.7850  175.2020  135.2660 C   0  0  0  0  0  2  0  0  0  0  0  0
  181.0970  175.7770  136.4550 O   0  0  0  0  0  1  0  0  0  0  0  0
  182.0870  176.3020  135.7670 O   0  0  0  0  0  0  0  0  0  0  0  0
  189.2160  178.2240  139.0850 C   0  0  0  0  0  2  0  0  0  0  0  0
  187.8940  178.2480  139.8290 C   0  0  0  0  0  1  0  0  0  0  0  0
  188.7150  178.7420  145.3170 O   0  0  0  0  0  0  0  0  0  0  0  0
  187.4430  178.1480  145.2090 C   0  0  0  0  0  2  0  0  0  0  0  0
  187.0750  177.9610  143.7490 C   0  0  0  0  0  2  0  0  0  0  0  0
  185.6010  177.6280  143.6140 C   0  0  0  0  0  2  0  0  0  0  0  0
  184.0960  179.8200  143.9230 O   0  0  0  0  0  0  0  0  0  0  0  0
  184.7400  178.9860  142.8510 S   0  0  0  0  0  0  0  0  0  0  0  0
  185.7120  179.8290  142.0750 O   0  0  0  0  0  0  0  0  0  0  0  0
  183.5340  178.3620  141.7770 N   0  0  0  0  0  2  0  0  0  0  0  0
  183.3240  177.9050  139.3430 C   0  0  0  0  0  0  0  0  0  0  0  0
  184.1780  177.9070  138.0890 C   0  0  0  0  0  1  0  0  0  0  0  0
  182.5580  179.1820  139.6600 C   0  0  2  0  0  0  0  0  0  0  0  0
  182.7260  180.2300  138.7510 O   0  0  0  0  0  1  0  0  0  0  0  0
  182.7220  176.5760  139.7860 C   0  0  0  0  0  1  0  0  0  0  0  0
  183.8370  178.8530  140.4370 C   0  0  1  0  0  3  0  0  0  0  0  0
  181.2070  179.0820  140.3770 C   0  0  2  0  0  3  0  0  0  0  0  0
  179.4840  179.6810  138.8380 O   0  0  0  0  0  1  0  0  0  0  0  0
  180.1350  178.5930  139.4170 C   0  0  0  0  0  2  0  0  0  0  0  0
  180.3910  180.1580  142.1800 O   0  0  0  0  0  1  0  0  0  0  0  0
  180.8340  180.3770  140.9190 N   0  0  0  0  0  2  0  0  0  0  0  0
  1 33  1  1  0  0  0
  1  8  1  0  0  0  0
  3  8  1  0  0  0  0
  5 10  1  6  0  0  0
  5  9  1  0  0  0  0
  5  6  1  0  0  0  0
  6  2  2  0  0  0  0
  6  3  1  0  0  0  0
  7  4  1  0  0  0  0
  7  1  1  0  0  0  0
  9  7  2  0  0  0  0
 10 12  2  0  0  0  0
 11 10  1  0  0  0  0
 13 31  1  6  0  0  0
 13 11  1  0  0  0  0
 14 15  1  0  0  0  0
 14 13  1  1  0  0  0
 16 14  1  0  0  0  0
 17 16  1  0  0  0  0
 17 19  1  1  0  0  0
 17 18  1  0  0  0  0
 18 15  1  0  0  0  0
 20 22  1  0  0  0  0
 20 19  1  0  0  0  0
 21 20  1  0  0  0  0
 23 22  1  0  0  0  0
 23 24  1  0  0  0  0
 24 26  1  0  0  0  0
 25 24  1  0  0  0  0
 25 26  1  0  0  0  0
 27 28  1  0  0  0  0
 27 23  1  0  0  0  0
 28 30  1  0  0  0  0
 30 29  1  0  0  0  0
 31 32  1  0  0  0  0
 34 33  1  0  0  0  0
 35 34  1  0  0  0  0
 36 35  1  0  0  0  0
 38 36  1  0  0  0  0
 38 37  2  0  0  0  0
 39 38  2  0  0  0  0
 40 38  1  0  0  0  0
 41 43  1  0  0  0  0
 41 45  1  0  0  0  0
 41 46  1  0  0  0  0
 42 41  1  0  0  0  0
 43 44  1  6  0  0  0
 43 47  1  0  0  0  0
 43 46  1  0  0  0  0
 46 40  1  1  0  0  0
 47 49  1  6  0  0  0
 47 51  1  0  0  0  0
 48 49  1  0  0  0  0
 51 50  1  0  0  0  0
M  END
>  <MODEL>
2

>  <REMARK>
 VINA RESULT:      -5.1      3.765      9.115
  Name = 
  22 active torsions:
  status: ('A' for Active; 'I' for Inactive)
    1  A    between atoms: C_2  and  C_14
    2  A    between atoms: C_2  and  N_21
    3  A    between atoms: C_2  and  C_40
    4  A    between atoms: C_3  and  C_28
    5  A    between atoms: C_5  and  N_23
    6  A    between atoms: O_7  and  C_8
    7  A    between atoms: O_7  and  C_19
    8  A    between atoms: O_11  and  C_37
    9  A    between atoms: C_12  and  C_24
   10  A    between atoms: C_12  and  S_36
   11  A    between atoms: C_15  and  C_42
   12  A    between atoms: C_18  and  N_23
   13  A    between atoms: C_18  and  N_31
   14  A    between atoms: C_19  and  C_24
   15  A    between atoms: N_20  and  N_31
   16  A    between atoms: N_20  and  C_38
   17  A    between atoms: N_23  and  C_27
   18  A    between atoms: C_27  and  C_37
   19  A    between atoms: C_29  and  C_42
   20  A    between atoms: N_35  and  C_42
   21  A    between atoms: S_36  and  N_44
   22  A    between atoms: N_44  and  C_51
                            x       y       z     vdW  Elec       q    Type
                         _______ _______ _______ _____ _____    ______ ____

>  <TORSDO>
F 22

$$$$
=
 OpenBabel11032419253D

 51 54  0  0  1  0  0  0  0  0999 V2000
  190.2470  176.8230  138.3730 C   0  0  1  0  0  3  0  0  0  0  0  0
  192.7950  175.3590  135.4370 O   0  0  0  0  0  0  0  0  0  0  0  0
  192.0040  175.1700  137.6400 C   0  0  0  0  0  2  0  0  0  0  0  0
  189.0720  179.1400  137.1900 Cl  0  0  0  0  0  0  0  0  0  0  0  0
  190.4600  175.6210  135.5830 C   0  0  2  0  0  3  0  0  0  0  0  0
  191.8190  175.3680  136.1690 C   0  0  0  0  0  0  0  0  0  0  0  0
  189.8100  177.5460  137.1110 C   0  0  0  0  0  0  0  0  0  0  0  0
  191.7400  176.4590  138.4030 C   0  0  0  0  0  2  0  0  0  0  0  0
  189.9160  176.9910  135.8920 C   0  0  0  0  0  3  0  0  0  0  0  0
  189.4830  174.5210  135.8680 C   0  0  0  0  0  0  0  0  0  0  0  0
  188.1180  174.6420  135.4620 N   0  0  0  0  0  2  0  0  0  0  0  0
  189.8790  173.4890  136.4700 O   0  0  0  0  0  0  0  0  0  0  0  0
  187.1130  173.6360  135.7740 C   0  0  2  0  0  3  0  0  0  0  0  0
  186.5020  173.9280  137.1430 C   0  0  1  0  0  3  0  0  0  0  0  0
  186.7640  175.3080  137.5280 N   0  0  0  0  0  2  0  0  0  0  0  0
  185.0130  173.8230  137.0790 C   0  0  0  0  0  2  0  0  0  0  0  0
  184.5930  175.2690  137.0790 C   0  0  1  0  0  3  0  0  0  0  0  0
  185.7450  176.0760  137.0470 O   0  0  0  0  0  0  0  0  0  0  0  0
  183.7200  175.5620  135.9410 N   0  0  0  0  0  2  0  0  0  0  0  0
  182.6860  176.4170  136.3660 N   0  0  0  0  0  0  0  0  0  0  0  0
  181.5140  175.7870  136.1130 O   0  0  0  0  0  1  0  0  0  0  0  0
  182.8070  176.6010  137.8140 C   0  0  0  0  0  2  0  0  0  0  0  0
  181.9040  177.6420  138.3030 N   0  0  0  0  0  0  0  0  0  0  0  0
  181.7120  177.3960  139.7250 C   0  0  0  0  0  3  0  0  0  0  0  0
  180.2600  177.6430  140.0960 C   0  0  0  0  0  2  0  0  0  0  0  0
  180.7620  176.2290  139.9200 C   0  0  0  0  0  2  0  0  0  0  0  0
  182.6320  178.8990  138.1890 C   0  0  0  0  0  2  0  0  0  0  0  0
  184.0220  178.7600  138.7840 C   0  0  0  0  0  2  0  0  0  0  0  0
  185.0500  179.6030  140.4650 O   0  0  0  0  0  1  0  0  0  0  0  0
  184.4110  179.9630  139.3730 O   0  0  0  0  0  0  0  0  0  0  0  0
  187.7630  172.2570  135.7800 C   0  0  0  0  0  2  0  0  0  0  0  0
  186.8520  171.2320  135.1300 C   0  0  0  0  0  1  0  0  0  0  0  0
  189.7690  177.4130  139.5670 O   0  0  0  0  0  0  0  0  0  0  0  0
  190.2690  176.7020  140.6740 C   0  0  0  0  0  2  0  0  0  0  0  0
  190.2900  177.5910  141.9030 C   0  0  0  0  0  2  0  0  0  0  0  0
  190.7990  176.8200  143.1060 C   0  0  0  0  0  2  0  0  0  0  0  0
  191.7020  177.1970  145.5970 O   0  0  0  0  0  0  0  0  0  0  0  0
  190.9620  177.9120  144.5020 S   0  0  0  0  0  0  0  0  0  0  0  0
  191.7290  179.1390  144.0960 O   0  0  0  0  0  0  0  0  0  0  0  0
  189.3860  178.3740  145.0490 N   0  0  0  0  0  2  0  0  0  0  0  0
  188.2120  177.5670  147.0860 C   0  0  0  0  0  0  0  0  0  0  0  0
  188.2770  176.4230  148.0810 C   0  0  0  0  0  1  0  0  0  0  0  0
  187.2790  177.3970  145.8950 C   0  0  2  0  0  0  0  0  0  0  0  0
  186.5740  176.1920  145.8460 O   0  0  0  0  0  1  0  0  0  0  0  0
  188.4550  178.9770  147.6140 C   0  0  0  0  0  1  0  0  0  0  0  0
  188.7890  177.2160  145.7070 C   0  0  1  0  0  3  0  0  0  0  0  0
  186.6000  178.6350  145.2990 C   0  0  2  0  0  3  0  0  0  0  0  0
  184.8150  178.3380  146.8540 O   0  0  0  0  0  1  0  0  0  0  0  0
  185.6910  179.2860  146.3270 C   0  0  0  0  0  2  0  0  0  0  0  0
  186.7220  178.0640  143.1230 O   0  0  0  0  0  1  0  0  0  0  0  0
  185.8310  178.2620  144.1230 N   0  0  0  0  0  2  0  0  0  0  0  0
  1  8  1  0  0  0  0
  1 33  1  1  0  0  0
  2  6  2  0  0  0  0
  3  8  1  0  0  0  0
  5 10  1  1  0  0  0
  5  9  1  0  0  0  0
  5  6  1  0  0  0  0
  6  3  1  0  0  0  0
  7  4  1  0  0  0  0
  7  1  1  0  0  0  0
  9  7  2  0  0  0  0
 10 12  2  0  0  0  0
 11 13  1  0  0  0  0
 11 10  1  0  0  0  0
 13 31  1  1  0  0  0
 14 13  1  6  0  0  0
 14 15  1  0  0  0  0
 16 17  1  0  0  0  0
 16 14  1  0  0  0  0
 17 19  1  6  0  0  0
 18 17  1  0  0  0  0
 18 15  1  0  0  0  0
 19 20  1  0  0  0  0
 20 22  1  0  0  0  0
 21 20  1  0  0  0  0
 22 23  1  0  0  0  0
 23 24  1  0  0  0  0
 24 26  1  0  0  0  0
 24 25  1  0  0  0  0
 26 25  1  0  0  0  0
 27 23  1  0  0  0  0
 27 28  1  0  0  0  0
 28 30  1  0  0  0  0
 30 29  1  0  0  0  0
 32 31  1  0  0  0  0
 33 34  1  0  0  0  0
 34 35  1  0  0  0  0
 35 36  1  0  0  0  0
 36 38  1  0  0  0  0
 38 40  1  0  0  0  0
 38 37  2  0  0  0  0
 39 38  2  0  0  0  0
 41 45  1  0  0  0  0
 41 42  1  0  0  0  0
 43 44  1  6  0  0  0
 43 41  1  0  0  0  0
 46 40  1  6  0  0  0
 46 43  1  0  0  0  0
 46 41  1  0  0  0  0
 47 43  1  0  0  0  0
 47 49  1  1  0  0  0
 49 48  1  0  0  0  0
 50 51  1  0  0  0  0
 51 47  1  0  0  0  0
M  END
>  <MODEL>
3

>  <REMARK>
 VINA RESULT:      -5.0      3.696      8.576
  Name = 
  22 active torsions:
  status: ('A' for Active; 'I' for Inactive)
    1  A    between atoms: C_2  and  C_14
    2  A    between atoms: C_2  and  N_21
    3  A    between atoms: C_2  and  C_40
    4  A    between atoms: C_3  and  C_28
    5  A    between atoms: C_5  and  N_23
    6  A    between atoms: O_7  and  C_8
    7  A    between atoms: O_7  and  C_19
    8  A    between atoms: O_11  and  C_37
    9  A    between atoms: C_12  and  C_24
   10  A    between atoms: C_12  and  S_36
   11  A    between atoms: C_15  and  C_42
   12  A    between atoms: C_18  and  N_23
   13  A    between atoms: C_18  and  N_31
   14  A    between atoms: C_19  and  C_24
   15  A    between atoms: N_20  and  N_31
   16  A    between atoms: N_20  and  C_38
   17  A    between atoms: N_23  and  C_27
   18  A    between atoms: C_27  and  C_37
   19  A    between atoms: C_29  and  C_42
   20  A    between atoms: N_35  and  C_42
   21  A    between atoms: S_36  and  N_44
   22  A    between atoms: N_44  and  C_51
                            x       y       z     vdW  Elec       q    Type
                         _______ _______ _______ _____ _____    ______ ____

>  <TORSDO>
F 22

$$$$
=
 OpenBabel11032419253D

 51 54  0  0  1  0  0  0  0  0999 V2000
  190.0910  176.8730  138.4310 C   0  0  1  0  0  3  0  0  0  0  0  0
  192.3440  175.1010  135.4240 O   0  0  0  0  0  0  0  0  0  0  0  0
  191.5960  175.0080  137.6480 C   0  0  0  0  0  2  0  0  0  0  0  0
  189.1950  179.3280  137.2820 Cl  0  0  0  0  0  0  0  0  0  0  0  0
  190.0680  175.6650  135.6360 C   0  0  2  0  0  3  0  0  0  0  0  0
  191.3980  175.2350  136.1830 C   0  0  0  0  0  0  0  0  0  0  0  0
  189.7170  177.6520  137.1820 C   0  0  0  0  0  0  0  0  0  0  0  0
  191.5240  176.3170  138.4190 C   0  0  0  0  0  2  0  0  0  0  0  0
  189.7160  177.0930  135.9610 C   0  0  0  0  0  3  0  0  0  0  0  0
  188.9640  174.7010  135.9470 C   0  0  0  0  0  0  0  0  0  0  0  0
  187.6610  174.8870  135.3910 N   0  0  0  0  0  2  0  0  0  0  0  0
  189.1980  173.7230  136.7050 O   0  0  0  0  0  0  0  0  0  0  0  0
  186.5360  174.0210  135.7160 C   0  0  2  0  0  3  0  0  0  0  0  0
  186.1200  174.2430  137.1680 C   0  0  1  0  0  3  0  0  0  0  0  0
  186.3970  175.6150  137.5680 N   0  0  0  0  0  2  0  0  0  0  0  0
  184.6410  174.0920  137.3120 C   0  0  0  0  0  2  0  0  0  0  0  0
  184.1850  175.5220  137.4320 C   0  0  1  0  0  3  0  0  0  0  0  0
  185.2980  176.3670  137.2690 O   0  0  0  0  0  0  0  0  0  0  0  0
  183.1510  175.8280  136.4420 N   0  0  0  0  0  2  0  0  0  0  0  0
  182.9890  177.2240  136.3650 N   0  0  0  0  0  0  0  0  0  0  0  0
  182.7220  177.5270  135.0730 O   0  0  0  0  0  1  0  0  0  0  0  0
  181.8280  177.5980  137.1760 C   0  0  0  0  0  2  0  0  0  0  0  0
  182.1580  178.6500  138.1360 N   0  0  0  0  0  0  0  0  0  0  0  0
  181.0110  179.5460  138.1850 C   0  0  0  0  0  3  0  0  0  0  0  0
  181.4690  180.9770  137.9620 C   0  0  0  0  0  2  0  0  0  0  0  0
  180.8200  180.2090  136.8330 C   0  0  0  0  0  2  0  0  0  0  0  0
  182.2400  178.0020  139.4380 C   0  0  0  0  0  2  0  0  0  0  0  0
  183.6300  178.1770  140.0260 C   0  0  0  0  0  2  0  0  0  0  0  0
  185.1030  179.6270  139.4600 O   0  0  0  0  0  1  0  0  0  0  0  0
  183.9540  179.5320  140.0930 O   0  0  0  0  0  0  0  0  0  0  0  0
  186.9420  172.5660  135.5080 C   0  0  0  0  0  2  0  0  0  0  0  0
  185.8900  171.8260  134.7040 C   0  0  0  0  0  1  0  0  0  0  0  0
  189.7270  177.5160  139.6380 O   0  0  0  0  0  0  0  0  0  0  0  0
  190.1530  176.7360  140.7300 C   0  0  0  0  0  2  0  0  0  0  0  0
  190.9850  177.5760  141.6810 C   0  0  0  0  0  2  0  0  0  0  0  0
  191.1460  176.8660  143.0110 C   0  0  0  0  0  2  0  0  0  0  0  0
  191.9830  177.8060  145.3740 O   0  0  0  0  0  0  0  0  0  0  0  0
  190.9070  178.0180  144.3470 S   0  0  0  0  0  0  0  0  0  0  0  0
  190.9840  179.4240  143.8210 O   0  0  0  0  0  0  0  0  0  0  0  0
  189.3480  177.7530  145.0520 N   0  0  0  0  0  2  0  0  0  0  0  0
  187.3680  177.4520  143.5800 C   0  0  0  0  0  0  0  0  0  0  0  0
  186.8570  177.9020  142.2240 C   0  0  0  0  0  1  0  0  0  0  0  0
  186.9480  178.2800  144.7870 C   0  0  2  0  0  0  0  0  0  0  0  0
  186.1280  179.3770  144.5120 O   0  0  0  0  0  1  0  0  0  0  0  0
  187.6180  175.9620  143.7830 C   0  0  0  0  0  1  0  0  0  0  0  0
  188.3630  178.4330  144.2180 C   0  0  1  0  0  3  0  0  0  0  0  0
  186.7630  177.5840  146.1400 C   0  0  2  0  0  3  0  0  0  0  0  0
  185.5350  179.2880  147.2720 O   0  0  0  0  0  1  0  0  0  0  0  0
  185.4410  177.9920  146.7670 C   0  0  0  0  0  2  0  0  0  0  0  0
  187.7180  177.1580  148.1350 O   0  0  0  0  0  1  0  0  0  0  0  0
  187.8610  177.9250  147.0290 N   0  0  0  0  0  2  0  0  0  0  0  0
  1 33  1  1  0  0  0
  2  6  2  0  0  0  0
  3  8  1  0  0  0  0
  5 10  1  1  0  0  0
  5  9  1  0  0  0  0
  5  6  1  0  0  0  0
  6  3  1  0  0  0  0
  7  4  1  0  0  0  0
  7  1  1  0  0  0  0
  8  1  1  0  0  0  0
  9  7  2  0  0  0  0
 10 12  2  0  0  0  0
 11 13  1  0  0  0  0
 11 10  1  0  0  0  0
 13 31  1  1  0  0  0
 14 13  1  6  0  0  0
 14 16  1  0  0  0  0
 14 15  1  0  0  0  0
 16 17  1  0  0  0  0
 17 19  1  6  0  0  0
 18 17  1  0  0  0  0
 18 15  1  0  0  0  0
 20 19  1  0  0  0  0
 20 22  1  0  0  0  0
 21 20  1  0  0  0  0
 22 23  1  0  0  0  0
 23 24  1  0  0  0  0
 23 27  1  0  0  0  0
 25 24  1  0  0  0  0
 26 25  1  0  0  0  0
 26 24  1  0  0  0  0
 27 28  1  0  0  0  0
 28 30  1  0  0  0  0
 29 30  1  0  0  0  0
 32 31  1  0  0  0  0
 33 34  1  0  0  0  0
 34 35  1  0  0  0  0
 35 36  1  0  0  0  0
 36 38  1  0  0  0  0
 38 40  1  0  0  0  0
 38 37  2  0  0  0  0
 39 38  2  0  0  0  0
 41 45  1  0  0  0  0
 41 46  1  0  0  0  0
 41 43  1  0  0  0  0
 42 41  1  0  0  0  0
 43 44  1  6  0  0  0
 43 47  1  0  0  0  0
 46 43  1  0  0  0  0
 46 40  1  1  0  0  0
 47 49  1  1  0  0  0
 47 51  1  0  0  0  0
 49 48  1  0  0  0  0
 51 50  1  0  0  0  0
M  END
>  <MODEL>
4

>  <REMARK>
 VINA RESULT:      -4.9      3.774      8.352
  Name = 
  22 active torsions:
  status: ('A' for Active; 'I' for Inactive)
    1  A    between atoms: C_2  and  C_14
    2  A    between atoms: C_2  and  N_21
    3  A    between atoms: C_2  and  C_40
    4  A    between atoms: C_3  and  C_28
    5  A    between atoms: C_5  and  N_23
    6  A    between atoms: O_7  and  C_8
    7  A    between atoms: O_7  and  C_19
    8  A    between atoms: O_11  and  C_37
    9  A    between atoms: C_12  and  C_24
   10  A    between atoms: C_12  and  S_36
   11  A    between atoms: C_15  and  C_42
   12  A    between atoms: C_18  and  N_23
   13  A    between atoms: C_18  and  N_31
   14  A    between atoms: C_19  and  C_24
   15  A    between atoms: N_20  and  N_31
   16  A    between atoms: N_20  and  C_38
   17  A    between atoms: N_23  and  C_27
   18  A    between atoms: C_27  and  C_37
   19  A    between atoms: C_29  and  C_42
   20  A    between atoms: N_35  and  C_42
   21  A    between atoms: S_36  and  N_44
   22  A    between atoms: N_44  and  C_51
                            x       y       z     vdW  Elec       q    Type
                         _______ _______ _______ _____ _____    ______ ____

>  <TORSDO>
F 22

$$$$
=
 OpenBabel11032419253D

 51 54  0  0  1  0  0  0  0  0999 V2000
  189.7630  176.1350  136.8720 C   0  0  1  0  0  3  0  0  0  0  0  0
  189.6460  172.3080  135.2600 O   0  0  0  0  0  0  0  0  0  0  0  0
  189.7800  173.6340  137.1940 C   0  0  0  0  0  2  0  0  0  0  0  0
  189.8460  177.8530  134.5940 Cl  0  0  0  0  0  0  0  0  0  0  0  0
  188.1770  174.1460  135.1980 C   0  0  2  0  0  3  0  0  0  0  0  0
  189.2210  173.2870  135.8510 C   0  0  0  0  0  0  0  0  0  0  0  0
  189.4080  176.3590  135.4130 C   0  0  0  0  0  0  0  0  0  0  0  0
  190.6320  174.8930  137.1230 C   0  0  0  0  0  2  0  0  0  0  0  0
  188.7070  175.4640  134.6980 C   0  0  0  0  0  3  0  0  0  0  0  0
  186.9320  174.2860  136.0200 C   0  0  0  0  0  0  0  0  0  0  0  0
  186.0340  175.3760  135.7950 N   0  0  0  0  0  2  0  0  0  0  0  0
  186.6850  173.4330  136.9120 O   0  0  0  0  0  0  0  0  0  0  0  0
  184.8490  175.5980  136.6100 C   0  0  2  0  0  3  0  0  0  0  0  0
  183.6010  175.2150  135.8170 C   0  0  1  0  0  3  0  0  0  0  0  0
  183.3270  173.7920  135.9650 N   0  0  0  0  0  2  0  0  0  0  0  0
  182.3980  175.8980  136.3800 C   0  0  0  0  0  2  0  0  0  0  0  0
  181.7200  174.7820  137.1300 C   0  0  1  0  0  3  0  0  0  0  0  0
  182.5290  173.6330  137.0610 O   0  0  0  0  0  0  0  0  0  0  0  0
  181.4720  175.1610  138.5230 N   0  0  0  0  0  2  0  0  0  0  0  0
  181.3990  176.5640  138.6090 N   0  0  0  0  0  0  0  0  0  0  0  0
  180.1630  176.9280  138.1920 O   0  0  0  0  0  1  0  0  0  0  0  0
  181.5420  176.9470  140.0150 C   0  0  0  0  0  2  0  0  0  0  0  0
  181.2990  178.3750  140.2130 N   0  0  0  0  0  0  0  0  0  0  0  0
  180.9690  178.5520  141.6200 C   0  0  0  0  0  3  0  0  0  0  0  0
  179.7350  179.4280  141.7500 C   0  0  0  0  0  2  0  0  0  0  0  0
  179.6160  177.9300  141.9120 C   0  0  0  0  0  2  0  0  0  0  0  0
  182.5760  179.0400  139.9930 C   0  0  0  0  0  2  0  0  0  0  0  0
  183.6380  178.4590  140.9110 C   0  0  0  0  0  2  0  0  0  0  0  0
  185.4120  179.4360  140.2080 O   0  0  0  0  0  1  0  0  0  0  0  0
  184.5810  179.4370  141.2280 O   0  0  0  0  0  0  0  0  0  0  0  0
  184.7780  177.0680  137.0100 C   0  0  0  0  0  2  0  0  0  0  0  0
  186.0960  177.5260  137.6050 C   0  0  0  0  0  1  0  0  0  0  0  0
  190.2080  177.3000  137.5400 O   0  0  0  0  0  0  0  0  0  0  0  0
  190.4130  177.0100  138.9020 C   0  0  0  0  0  2  0  0  0  0  0  0
  189.0820  176.9260  139.6260 C   0  0  0  0  0  2  0  0  0  0  0  0
  189.0590  177.8840  140.8020 C   0  0  0  0  0  2  0  0  0  0  0  0
  190.1390  175.7200  141.9480 O   0  0  0  0  0  0  0  0  0  0  0  0
  189.9850  177.2000  142.1590 S   0  0  0  0  0  0  0  0  0  0  0  0
  191.3410  177.8430  142.2220 O   0  0  0  0  0  0  0  0  0  0  0  0
  189.1350  177.5050  143.6360 N   0  0  0  0  0  2  0  0  0  0  0  0
  190.6270  177.5060  145.6240 C   0  0  0  0  0  0  0  0  0  0  0  0
  191.8030  176.7290  146.1870 C   0  0  0  0  0  1  0  0  0  0  0  0
  189.2360  177.0740  146.0680 C   0  0  2  0  0  0  0  0  0  0  0  0
  189.1920  175.9970  146.9570 O   0  0  0  0  0  1  0  0  0  0  0  0
  190.8500  178.9760  145.2830 C   0  0  0  0  0  1  0  0  0  0  0  0
  189.7440  176.6820  144.6760 C   0  0  1  0  0  3  0  0  0  0  0  0
  188.1310  178.1300  146.1860 C   0  0  2  0  0  3  0  0  0  0  0  0
  188.5150  177.8010  148.5180 O   0  0  0  0  0  1  0  0  0  0  0  0
  188.1420  178.7530  147.5710 C   0  0  0  0  0  2  0  0  0  0  0  0
  185.9300  178.2110  146.6580 O   0  0  0  0  0  1  0  0  0  0  0  0
  186.8360  177.5250  145.9230 N   0  0  0  0  0  2  0  0  0  0  0  0
  1  8  1  0  0  0  0
  1 33  1  6  0  0  0
  2  6  2  0  0  0  0
  4  7  1  0  0  0  0
  5  6  1  0  0  0  0
  5 10  1  1  0  0  0
  6  3  1  0  0  0  0
  7  1  1  0  0  0  0
  8  3  1  0  0  0  0
  9  5  1  0  0  0  0
  9  7  2  0  0  0  0
 10 12  2  0  0  0  0
 11 10  1  0  0  0  0
 11 13  1  0  0  0  0
 13 31  1  6  0  0  0
 14 15  1  0  0  0  0
 14 16  1  0  0  0  0
 14 13  1  1  0  0  0
 15 18  1  0  0  0  0
 16 17  1  0  0  0  0
 17 19  1  1  0  0  0
 18 17  1  0  0  0  0
 19 20  1  0  0  0  0
 20 22  1  0  0  0  0
 21 20  1  0  0  0  0
 22 23  1  0  0  0  0
 23 24  1  0  0  0  0
 24 25  1  0  0  0  0
 24 26  1  0  0  0  0
 25 26  1  0  0  0  0
 27 23  1  0  0  0  0
 27 28  1  0  0  0  0
 28 30  1  0  0  0  0
 29 30  1  0  0  0  0
 31 32  1  0  0  0  0
 33 34  1  0  0  0  0
 34 35  1  0  0  0  0
 35 36  1  0  0  0  0
 36 38  1  0  0  0  0
 37 38  2  0  0  0  0
 38 39  2  0  0  0  0
 38 40  1  0  0  0  0
 41 43  1  0  0  0  0
 41 42  1  0  0  0  0
 43 47  1  0  0  0  0
 43 44  1  1  0  0  0
 45 41  1  0  0  0  0
 46 40  1  6  0  0  0
 46 41  1  0  0  0  0
 46 43  1  0  0  0  0
 47 49  1  1  0  0  0
 49 48  1  0  0  0  0
 51 47  1  0  0  0  0
 51 50  1  0  0  0  0
M  END
>  <MODEL>
5

>  <REMARK>
 VINA RESULT:      -4.7      4.150      8.137
  Name = 
  22 active torsions:
  status: ('A' for Active; 'I' for Inactive)
    1  A    between atoms: C_2  and  C_14
    2  A    between atoms: C_2  and  N_21
    3  A    between atoms: C_2  and  C_40
    4  A    between atoms: C_3  and  C_28
    5  A    between atoms: C_5  and  N_23
    6  A    between atoms: O_7  and  C_8
    7  A    between atoms: O_7  and  C_19
    8  A    between atoms: O_11  and  C_37
    9  A    between atoms: C_12  and  C_24
   10  A    between atoms: C_12  and  S_36
   11  A    between atoms: C_15  and  C_42
   12  A    between atoms: C_18  and  N_23
   13  A    between atoms: C_18  and  N_31
   14  A    between atoms: C_19  and  C_24
   15  A    between atoms: N_20  and  N_31
   16  A    between atoms: N_20  and  C_38
   17  A    between atoms: N_23  and  C_27
   18  A    between atoms: C_27  and  C_37
   19  A    between atoms: C_29  and  C_42
   20  A    between atoms: N_35  and  C_42
   21  A    between atoms: S_36  and  N_44
   22  A    between atoms: N_44  and  C_51
                            x       y       z     vdW  Elec       q    Type
                         _______ _______ _______ _____ _____    ______ ____

>  <TORSDO>
F 22

$$$$
=
 OpenBabel11032419253D

 51 54  0  0  1  0  0  0  0  0999 V2000
  189.7960  178.2300  141.6180 C   0  0  1  0  0  3  0  0  0  0  0  0
  190.9290  177.3920  145.5270 O   0  0  0  0  0  0  0  0  0  0  0  0
  190.0090  178.9470  144.0260 C   0  0  0  0  0  2  0  0  0  0  0  0
  190.6470  175.9430  140.1370 Cl  0  0  0  0  0  0  0  0  0  0  0  0
  189.4050  176.4070  144.0270 C   0  0  2  0  0  3  0  0  0  0  0  0
  190.1570  177.5740  144.5990 C   0  0  0  0  0  0  0  0  0  0  0  0
  190.0990  176.7420  141.6040 C   0  0  0  0  0  0  0  0  0  0  0  0
  190.6240  179.0290  142.6370 C   0  0  0  0  0  2  0  0  0  0  0  0
  189.9170  175.9610  142.6820 C   0  0  0  0  0  3  0  0  0  0  0  0
  187.9180  176.5930  144.0580 C   0  0  0  0  0  0  0  0  0  0  0  0
  187.3440  177.7230  144.7180 N   0  0  0  0  0  2  0  0  0  0  0  0
  187.1810  175.7420  143.4960 O   0  0  0  0  0  0  0  0  0  0  0  0
  185.9060  177.9160  144.8380 C   0  0  2  0  0  3  0  0  0  0  0  0
  185.4460  178.9850  143.8480 C   0  0  1  0  0  3  0  0  0  0  0  0
  185.0940  178.3740  142.5740 N   0  0  0  0  0  2  0  0  0  0  0  0
  184.1860  179.6280  144.3270 C   0  0  0  0  0  2  0  0  0  0  0  0
  183.1480  178.9940  143.4390 C   0  0  1  0  0  3  0  0  0  0  0  0
  183.7740  178.0310  142.6270 O   0  0  0  0  0  0  0  0  0  0  0  0
  182.0770  178.3890  144.2320 N   0  0  0  0  0  2  0  0  0  0  0  0
  180.8690  178.4850  143.5160 N   0  0  0  0  0  0  0  0  0  0  0  0
  179.8790  178.6770  144.4210 O   0  0  0  0  0  1  0  0  0  0  0  0
  180.9380  179.6640  142.6510 C   0  0  0  0  0  2  0  0  0  0  0  0
  180.3680  179.3990  141.3310 N   0  0  0  0  0  0  0  0  0  0  0  0
  180.2660  177.9530  141.2020 C   0  0  0  0  0  3  0  0  0  0  0  0
  180.0690  177.5820  139.7430 C   0  0  0  0  0  2  0  0  0  0  0  0
  181.4300  177.4280  140.3810 C   0  0  0  0  0  2  0  0  0  0  0  0
  179.0060  179.9150  141.3630 C   0  0  0  0  0  2  0  0  0  0  0  0
  178.9310  181.2510  140.6440 C   0  0  0  0  0  2  0  0  0  0  0  0
  179.7180  182.4820  139.0760 O   0  0  0  0  0  1  0  0  0  0  0  0
  179.8770  181.2950  139.6200 O   0  0  0  0  0  0  0  0  0  0  0  0
  185.5710  178.3490  146.2610 C   0  0  0  0  0  2  0  0  0  0  0  0
  186.8100  178.3230  147.1360 C   0  0  0  0  0  1  0  0  0  0  0  0
  189.7360  178.8150  140.3320 O   0  0  0  0  0  0  0  0  0  0  0  0
  188.4480  178.6310  139.7930 C   0  0  0  0  0  2  0  0  0  0  0  0
  188.5430  178.2630  138.3240 C   0  0  0  0  0  2  0  0  0  0  0  0
  187.9250  176.9000  138.0790 C   0  0  0  0  0  2  0  0  0  0  0  0
  188.7270  177.6020  135.6240 O   0  0  0  0  0  0  0  0  0  0  0  0
  187.9910  176.5070  136.3440 S   0  0  0  0  0  0  0  0  0  0  0  0
  188.7120  175.2040  136.1480 O   0  0  0  0  0  0  0  0  0  0  0  0
  186.3780  176.3700  135.7320 N   0  0  0  0  0  2  0  0  0  0  0  0
  184.0430  176.9520  136.3540 C   0  0  0  0  0  0  0  0  0  0  0  0
  183.2930  177.8980  137.2740 C   0  0  0  0  0  1  0  0  0  0  0  0
  184.3510  175.5620  136.8930 C   0  0  2  0  0  0  0  0  0  0  0  0
  183.9050  175.3040  138.1920 O   0  0  0  0  0  1  0  0  0  0  0  0
  183.8300  177.1100  134.8530 C   0  0  0  0  0  1  0  0  0  0  0  0
  185.4610  176.6180  136.8390 C   0  0  1  0  0  3  0  0  0  0  0  0
  184.4030  174.3800  135.9190 C   0  0  2  0  0  3  0  0  0  0  0  0
  182.2590  173.5100  136.5000 O   0  0  0  0  0  1  0  0  0  0  0  0
  183.0050  174.0270  135.4420 C   0  0  0  0  0  2  0  0  0  0  0  0
  185.8220  172.6520  135.6460 O   0  0  0  0  0  1  0  0  0  0  0  0
  185.0130  173.2300  136.5640 N   0  0  0  0  0  2  0  0  0  0  0  0
  1 33  1  6  0  0  0
  1  8  1  0  0  0  0
  3  6  1  0  0  0  0
  4  7  1  0  0  0  0
  5 10  1  6  0  0  0
  5  6  1  0  0  0  0
  6  2  2  0  0  0  0
  7  1  1  0  0  0  0
  7  9  2  0  0  0  0
  8  3  1  0  0  0  0
  9  5  1  0  0  0  0
 10 11  1  0  0  0  0
 11 13  1  0  0  0  0
 12 10  2  0  0  0  0
 13 31  1  1  0  0  0
 14 16  1  0  0  0  0
 14 13  1  1  0  0  0
 15 18  1  0  0  0  0
 15 14  1  0  0  0  0
 17 19  1  1  0  0  0
 17 16  1  0  0  0  0
 18 17  1  0  0  0  0
 20 19  1  0  0  0  0
 20 21  1  0  0  0  0
 22 20  1  0  0  0  0
 23 27  1  0  0  0  0
 23 22  1  0  0  0  0
 24 23  1  0  0  0  0
 25 26  1  0  0  0  0
 25 24  1  0  0  0  0
 26 24  1  0  0  0  0
 28 27  1  0  0  0  0
 29 30  1  0  0  0  0
 30 28  1  0  0  0  0
 31 32  1  0  0  0  0
 34 33  1  0  0  0  0
 35 34  1  0  0  0  0
 36 35  1  0  0  0  0
 37 38  2  0  0  0  0
 38 36  1  0  0  0  0
 39 38  2  0  0  0  0
 40 38  1  0  0  0  0
 41 46  1  0  0  0  0
 41 43  1  0  0  0  0
 41 42  1  0  0  0  0
 43 44  1  1  0  0  0
 45 41  1  0  0  0  0
 46 40  1  6  0  0  0
 46 43  1  0  0  0  0
 47 49  1  1  0  0  0
 47 51  1  0  0  0  0
 47 43  1  0  0  0  0
 49 48  1  0  0  0  0
 50 51  1  0  0  0  0
M  END
>  <MODEL>
6

>  <REMARK>
 VINA RESULT:      -4.6      4.613      6.673
  Name = 
  22 active torsions:
  status: ('A' for Active; 'I' for Inactive)
    1  A    between atoms: C_2  and  C_14
    2  A    between atoms: C_2  and  N_21
    3  A    between atoms: C_2  and  C_40
    4  A    between atoms: C_3  and  C_28
    5  A    between atoms: C_5  and  N_23
    6  A    between atoms: O_7  and  C_8
    7  A    between atoms: O_7  and  C_19
    8  A    between atoms: O_11  and  C_37
    9  A    between atoms: C_12  and  C_24
   10  A    between atoms: C_12  and  S_36
   11  A    between atoms: C_15  and  C_42
   12  A    between atoms: C_18  and  N_23
   13  A    between atoms: C_18  and  N_31
   14  A    between atoms: C_19  and  C_24
   15  A    between atoms: N_20  and  N_31
   16  A    between atoms: N_20  and  C_38
   17  A    between atoms: N_23  and  C_27
   18  A    between atoms: C_27  and  C_37
   19  A    between atoms: C_29  and  C_42
   20  A    between atoms: N_35  and  C_42
   21  A    between atoms: S_36  and  N_44
   22  A    between atoms: N_44  and  C_51
                            x       y       z     vdW  Elec       q    Type
                         _______ _______ _______ _____ _____    ______ ____

>  <TORSDO>
F 22

$$$$
=
 OpenBabel11032419253D

 51 54  0  0  1  0  0  0  0  0999 V2000
  189.3420  175.9260  137.1080 C   0  0  1  0  0  3  0  0  0  0  0  0
  188.5940  172.3090  135.2040 O   0  0  0  0  0  0  0  0  0  0  0  0
  189.0630  173.4220  137.2190 C   0  0  0  0  0  2  0  0  0  0  0  0
  189.4520  177.8270  134.9810 Cl  0  0  0  0  0  0  0  0  0  0  0  0
  187.3750  174.3100  135.4350 C   0  0  2  0  0  3  0  0  0  0  0  0
  188.3510  173.2730  135.9120 C   0  0  0  0  0  0  0  0  0  0  0  0
  188.8970  176.3270  135.7120 C   0  0  0  0  0  0  0  0  0  0  0  0
  190.0620  174.5690  137.1700 C   0  0  0  0  0  2  0  0  0  0  0  0
  188.0270  175.5950  134.9970 C   0  0  0  0  0  3  0  0  0  0  0  0
  186.2340  174.5220  136.3830 C   0  0  0  0  0  0  0  0  0  0  0  0
  185.5360  175.7690  136.4080 N   0  0  0  0  0  2  0  0  0  0  0  0
  185.8960  173.5890  137.1570 O   0  0  0  0  0  0  0  0  0  0  0  0
  184.4670  176.0530  137.3550 C   0  0  2  0  0  3  0  0  0  0  0  0
  183.1130  175.8270  136.6850 C   0  0  1  0  0  3  0  0  0  0  0  0
  182.5330  174.5680  137.1310 N   0  0  0  0  0  2  0  0  0  0  0  0
  182.1390  176.8730  137.1170 C   0  0  0  0  0  2  0  0  0  0  0  0
  181.2780  176.1210  138.0960 C   0  0  1  0  0  3  0  0  0  0  0  0
  181.7970  174.8220  138.2510 O   0  0  0  0  0  0  0  0  0  0  0  0
  181.2180  176.8150  139.3840 N   0  0  0  0  0  2  0  0  0  0  0  0
  179.8700  176.9450  139.7700 N   0  0  0  0  0  0  0  0  0  0  0  0
  179.7120  176.2430  140.9180 O   0  0  0  0  0  1  0  0  0  0  0  0
  179.6070  178.3570  140.0550 C   0  0  0  0  0  2  0  0  0  0  0  0
  180.8440  179.0960  140.3030 N   0  0  0  0  0  0  0  0  0  0  0  0
  180.7500  180.3360  139.5470 C   0  0  0  0  0  3  0  0  0  0  0  0
  182.0170  180.5380  138.7340 C   0  0  0  0  0  2  0  0  0  0  0  0
  180.7630  180.0330  138.0590 C   0  0  0  0  0  2  0  0  0  0  0  0
  180.8250  179.4620  141.7130 C   0  0  0  0  0  2  0  0  0  0  0  0
  181.9760  178.7960  142.4460 C   0  0  0  0  0  2  0  0  0  0  0  0
  182.8870  178.6470  144.3800 O   0  0  0  0  0  1  0  0  0  0  0  0
  181.7040  178.7430  143.8140 O   0  0  0  0  0  0  0  0  0  0  0  0
  184.5780  177.4990  137.8250 C   0  0  0  0  0  2  0  0  0  0  0  0
  185.9800  178.0310  137.5980 C   0  0  0  0  0  1  0  0  0  0  0  0
  189.9910  176.9600  137.8230 O   0  0  0  0  0  0  0  0  0  0  0  0
  189.3030  177.1970  139.0280 C   0  0  0  0  0  2  0  0  0  0  0  0
  190.1520  176.7690  140.2100 C   0  0  0  0  0  2  0  0  0  0  0  0
  189.7120  177.4920  141.4680 C   0  0  0  0  0  2  0  0  0  0  0  0
  190.5080  175.2640  142.7180 O   0  0  0  0  0  0  0  0  0  0  0  0
  190.4850  176.7560  142.8930 S   0  0  0  0  0  0  0  0  0  0  0  0
  191.8900  177.2690  143.0260 O   0  0  0  0  0  0  0  0  0  0  0  0
  189.5820  177.1770  144.3090 N   0  0  0  0  0  2  0  0  0  0  0  0
  187.1600  177.3180  143.7640 C   0  0  0  0  0  0  0  0  0  0  0  0
  186.2470  177.8940  142.6980 C   0  0  0  0  0  1  0  0  0  0  0  0
  187.4280  178.1830  144.9880 C   0  0  2  0  0  0  0  0  0  0  0  0
  186.7970  179.4300  144.9980 O   0  0  0  0  0  1  0  0  0  0  0  0
  187.1760  175.8030  143.9370 C   0  0  0  0  0  1  0  0  0  0  0  0
  188.4980  178.0620  143.8960 C   0  0  1  0  0  3  0  0  0  0  0  0
  187.6690  177.5050  146.3410 C   0  0  2  0  0  3  0  0  0  0  0  0
  185.3830  177.7760  146.9660 O   0  0  0  0  0  1  0  0  0  0  0  0
  186.6900  178.0310  147.3770 C   0  0  0  0  0  2  0  0  0  0  0  0
  189.3710  176.7080  147.5840 O   0  0  0  0  0  1  0  0  0  0  0  0
  189.0330  177.7450  146.7810 N   0  0  0  0  0  2  0  0  0  0  0  0
  1  8  1  0  0  0  0
  1 33  1  6  0  0  0
  2  6  2  0  0  0  0
  4  7  1  0  0  0  0
  5  6  1  0  0  0  0
  5 10  1  1  0  0  0
  6  3  1  0  0  0  0
  7  1  1  0  0  0  0
  8  3  1  0  0  0  0
  9  5  1  0  0  0  0
  9  7  2  0  0  0  0
 10 11  1  0  0  0  0
 10 12  2  0  0  0  0
 11 13  1  0  0  0  0
 13 31  1  6  0  0  0
 14 16  1  0  0  0  0
 14 15  1  0  0  0  0
 14 13  1  1  0  0  0
 15 18  1  0  0  0  0
 16 17  1  0  0  0  0
 17 18  1  0  0  0  0
 17 19  1  1  0  0  0
 19 20  1  0  0  0  0
 20 22  1  0  0  0  0
 20 21  1  0  0  0  0
 22 23  1  0  0  0  0
 23 27  1  0  0  0  0
 24 23  1  0  0  0  0
 25 24  1  0  0  0  0
 26 25  1  0  0  0  0
 26 24  1  0  0  0  0
 27 28  1  0  0  0  0
 28 30  1  0  0  0  0
 30 29  1  0  0  0  0
 32 31  1  0  0  0  0
 33 34  1  0  0  0  0
 34 35  1  0  0  0  0
 35 36  1  0  0  0  0
 36 38  1  0  0  0  0
 37 38  2  0  0  0  0
 38 39  2  0  0  0  0
 38 40  1  0  0  0  0
 41 46  1  0  0  0  0
 41 45  1  0  0  0  0
 41 43  1  0  0  0  0
 42 41  1  0  0  0  0
 43 44  1  1  0  0  0
 43 47  1  0  0  0  0
 46 40  1  1  0  0  0
 46 43  1  0  0  0  0
 47 51  1  0  0  0  0
 47 49  1  1  0  0  0
 48 49  1  0  0  0  0
 51 50  1  0  0  0  0
M  END
>  <MODEL>
7

>  <REMARK>
 VINA RESULT:      -4.4      4.375      8.296
  Name = 
  22 active torsions:
  status: ('A' for Active; 'I' for Inactive)
    1  A    between atoms: C_2  and  C_14
    2  A    between atoms: C_2  and  N_21
    3  A    between atoms: C_2  and  C_40
    4  A    between atoms: C_3  and  C_28
    5  A    between atoms: C_5  and  N_23
    6  A    between atoms: O_7  and  C_8
    7  A    between atoms: O_7  and  C_19
    8  A    between atoms: O_11  and  C_37
    9  A    between atoms: C_12  and  C_24
   10  A    between atoms: C_12  and  S_36
   11  A    between atoms: C_15  and  C_42
   12  A    between atoms: C_18  and  N_23
   13  A    between atoms: C_18  and  N_31
   14  A    between atoms: C_19  and  C_24
   15  A    between atoms: N_20  and  N_31
   16  A    between atoms: N_20  and  C_38
   17  A    between atoms: N_23  and  C_27
   18  A    between atoms: C_27  and  C_37
   19  A    between atoms: C_29  and  C_42
   20  A    between atoms: N_35  and  C_42
   21  A    between atoms: S_36  and  N_44
   22  A    between atoms: N_44  and  C_51
                            x       y       z     vdW  Elec       q    Type
                         _______ _______ _______ _____ _____    ______ ____

>  <TORSDO>
F 22

$$$$
=
 OpenBabel11032419253D

 51 54  0  0  1  0  0  0  0  0999 V2000
  190.7810  177.4540  142.9270 C   0  0  1  0  0  3  0  0  0  0  0  0
  189.8930  178.9450  146.7020 O   0  0  0  0  0  0  0  0  0  0  0  0
  190.0080  179.3550  144.3920 C   0  0  0  0  0  2  0  0  0  0  0  0
  191.8180  174.8430  143.4320 Cl  0  0  0  0  0  0  0  0  0  0  0  0
  189.0620  177.1510  145.4240 C   0  0  2  0  0  3  0  0  0  0  0  0
  189.6580  178.5200  145.5830 C   0  0  0  0  0  0  0  0  0  0  0  0
  190.8110  176.2290  143.8250 C   0  0  0  0  0  0  0  0  0  0  0  0
  191.1830  178.7590  143.6330 C   0  0  0  0  0  2  0  0  0  0  0  0
  190.0420  176.1220  144.9210 C   0  0  0  0  0  3  0  0  0  0  0  0
  187.7720  177.1560  144.6640 C   0  0  0  0  0  0  0  0  0  0  0  0
  186.7570  178.1170  144.9660 N   0  0  0  0  0  2  0  0  0  0  0  0
  187.5910  176.3050  143.7540 O   0  0  0  0  0  0  0  0  0  0  0  0
  185.4590  178.1230  144.3060 C   0  0  2  0  0  3  0  0  0  0  0  0
  185.3980  179.2730  143.3030 C   0  0  1  0  0  3  0  0  0  0  0  0
  186.0970  178.9110  142.0780 N   0  0  0  0  0  2  0  0  0  0  0  0
  183.9860  179.5190  142.8820 C   0  0  0  0  0  2  0  0  0  0  0  0
  183.9540  178.9080  141.5060 C   0  0  1  0  0  3  0  0  0  0  0  0
  185.1980  178.3040  141.2490 O   0  0  0  0  0  0  0  0  0  0  0  0
  182.8680  177.9320  141.3900 N   0  0  0  0  0  2  0  0  0  0  0  0
  182.9350  177.3230  140.1230 N   0  0  0  0  0  0  0  0  0  0  0  0
  182.2660  176.1480  140.2060 O   0  0  0  0  0  1  0  0  0  0  0  0
  182.2400  178.1820  139.1620 C   0  0  0  0  0  2  0  0  0  0  0  0
  182.4590  177.7390  137.7860 N   0  0  0  0  0  0  0  0  0  0  0  0
  182.0820  178.8490  136.9240 C   0  0  0  0  0  3  0  0  0  0  0  0
  180.7480  178.5520  136.2590 C   0  0  0  0  0  2  0  0  0  0  0  0
  180.8070  179.4910  137.4410 C   0  0  0  0  0  2  0  0  0  0  0  0
  183.8970  177.5620  137.6380 C   0  0  0  0  0  2  0  0  0  0  0  0
  184.2270  177.0660  136.2410 C   0  0  0  0  0  2  0  0  0  0  0  0
  184.3580  175.2050  137.2940 O   0  0  0  0  0  1  0  0  0  0  0  0
  183.9580  175.7010  136.1430 O   0  0  0  0  0  0  0  0  0  0  0  0
  184.3620  178.2870  145.3520 C   0  0  0  0  0  2  0  0  0  0  0  0
  184.9510  178.3100  146.7490 C   0  0  0  0  0  1  0  0  0  0  0  0
  191.3980  177.2590  141.6700 O   0  0  0  0  0  0  0  0  0  0  0  0
  190.4620  176.7200  140.7670 C   0  0  0  0  0  2  0  0  0  0  0  0
  189.8610  177.8220  139.9150 C   0  0  0  0  0  2  0  0  0  0  0  0
  190.0040  177.4890  138.4420 C   0  0  0  0  0  2  0  0  0  0  0  0
  187.3750  177.9690  138.5980 O   0  0  0  0  0  0  0  0  0  0  0  0
  188.4830  177.8480  137.5900 S   0  0  0  0  0  0  0  0  0  0  0  0
  188.6190  179.1410  136.8360 O   0  0  0  0  0  0  0  0  0  0  0  0
  188.1390  176.5670  136.4780 N   0  0  0  0  0  2  0  0  0  0  0  0
  187.6370  174.1330  136.4040 C   0  0  0  0  0  0  0  0  0  0  0  0
  186.9800  173.0620  137.2550 C   0  0  0  0  0  1  0  0  0  0  0  0
  189.1430  174.3090  136.5540 C   0  0  2  0  0  0  0  0  0  0  0  0
  189.7630  173.4550  137.4700 O   0  0  0  0  0  1  0  0  0  0  0  0
  187.0080  174.4460  135.0510 C   0  0  0  0  0  1  0  0  0  0  0  0
  188.1920  175.3110  137.2190 C   0  0  1  0  0  3  0  0  0  0  0  0
  189.9640  174.7580  135.3410 C   0  0  2  0  0  3  0  0  0  0  0  0
  189.9620  172.3820  135.1240 O   0  0  0  0  0  1  0  0  0  0  0  0
  190.5050  173.5510  134.5940 C   0  0  0  0  0  2  0  0  0  0  0  0
  191.0770  176.6750  134.9370 O   0  0  0  0  0  1  0  0  0  0  0  0
  191.0610  175.6090  135.7710 N   0  0  0  0  0  2  0  0  0  0  0  0
  1 33  1  6  0  0  0
  1  8  1  0  0  0  0
  1  7  1  0  0  0  0
  3  6  1  0  0  0  0
  4  7  1  0  0  0  0
  5 10  1  6  0  0  0
  5  6  1  0  0  0  0
  6  2  2  0  0  0  0
  7  9  2  0  0  0  0
  8  3  1  0  0  0  0
  9  5  1  0  0  0  0
 10 11  1  0  0  0  0
 12 10  2  0  0  0  0
 13 11  1  0  0  0  0
 13 31  1  1  0  0  0
 14 13  1  1  0  0  0
 15 14  1  0  0  0  0
 16 14  1  0  0  0  0
 17 19  1  1  0  0  0
 17 16  1  0  0  0  0
 18 17  1  0  0  0  0
 18 15  1  0  0  0  0
 20 21  1  0  0  0  0
 20 19  1  0  0  0  0
 22 20  1  0  0  0  0
 23 22  1  0  0  0  0
 24 26  1  0  0  0  0
 24 23  1  0  0  0  0
 25 24  1  0  0  0  0
 25 26  1  0  0  0  0
 27 23  1  0  0  0  0
 28 27  1  0  0  0  0
 30 28  1  0  0  0  0
 30 29  1  0  0  0  0
 31 32  1  0  0  0  0
 34 33  1  0  0  0  0
 35 34  1  0  0  0  0
 36 35  1  0  0  0  0
 38 36  1  0  0  0  0
 38 37  2  0  0  0  0
 39 38  2  0  0  0  0
 40 38  1  0  0  0  0
 41 43  1  0  0  0  0
 41 46  1  0  0  0  0
 41 42  1  0  0  0  0
 43 46  1  0  0  0  0
 43 44  1  1  0  0  0
 45 41  1  0  0  0  0
 46 40  1  6  0  0  0
 47 49  1  1  0  0  0
 47 51  1  0  0  0  0
 47 43  1  0  0  0  0
 49 48  1  0  0  0  0
 50 51  1  0  0  0  0
M  END
>  <MODEL>
8

>  <REMARK>
 VINA RESULT:      -4.2      3.500      4.452
  Name = 
  22 active torsions:
  status: ('A' for Active; 'I' for Inactive)
    1  A    between atoms: C_2  and  C_14
    2  A    between atoms: C_2  and  N_21
    3  A    between atoms: C_2  and  C_40
    4  A    between atoms: C_3  and  C_28
    5  A    between atoms: C_5  and  N_23
    6  A    between atoms: O_7  and  C_8
    7  A    between atoms: O_7  and  C_19
    8  A    between atoms: O_11  and  C_37
    9  A    between atoms: C_12  and  C_24
   10  A    between atoms: C_12  and  S_36
   11  A    between atoms: C_15  and  C_42
   12  A    between atoms: C_18  and  N_23
   13  A    between atoms: C_18  and  N_31
   14  A    between atoms: C_19  and  C_24
   15  A    between atoms: N_20  and  N_31
   16  A    between atoms: N_20  and  C_38
   17  A    between atoms: N_23  and  C_27
   18  A    between atoms: C_27  and  C_37
   19  A    between atoms: C_29  and  C_42
   20  A    between atoms: N_35  and  C_42
   21  A    between atoms: S_36  and  N_44
   22  A    between atoms: N_44  and  C_51
                            x       y       z     vdW  Elec       q    Type
                         _______ _______ _______ _____ _____    ______ ____

>  <TORSDO>
F 22

$$$$
=
 OpenBabel11032419253D

 51 54  0  0  1  0  0  0  0  0999 V2000
  189.5580  177.8320  144.5320 C   0  0  1  0  0  3  0  0  0  0  0  0
  192.4630  174.9140  143.9760 O   0  0  0  0  0  0  0  0  0  0  0  0
  190.2010  175.3980  144.3890 C   0  0  0  0  0  2  0  0  0  0  0  0
  191.0200  180.2840  144.5340 Cl  0  0  0  0  0  0  0  0  0  0  0  0
  191.6630  176.6880  142.6510 C   0  0  2  0  0  3  0  0  0  0  0  0
  191.5030  175.6090  143.6830 C   0  0  0  0  0  0  0  0  0  0  0  0
  190.7760  178.6080  144.0620 C   0  0  0  0  0  0  0  0  0  0  0  0
  189.8920  176.5580  145.3230 C   0  0  0  0  0  2  0  0  0  0  0  0
  191.6900  178.0780  143.2320 C   0  0  0  0  0  3  0  0  0  0  0  0
  190.7120  176.5480  141.5020 C   0  0  0  0  0  0  0  0  0  0  0  0
  191.0360  177.0970  140.2230 N   0  0  0  0  0  2  0  0  0  0  0  0
  189.6230  175.9400  141.6760 O   0  0  0  0  0  0  0  0  0  0  0  0
  190.1200  177.0500  139.0920 C   0  0  2  0  0  3  0  0  0  0  0  0
  190.8940  176.7280  137.8160 C   0  0  1  0  0  3  0  0  0  0  0  0
  191.9230  175.7330  138.0880 N   0  0  0  0  0  2  0  0  0  0  0  0
  189.9940  176.0860  136.8120 C   0  0  0  0  0  2  0  0  0  0  0  0
  190.4070  174.6400  136.8940 C   0  0  1  0  0  3  0  0  0  0  0  0
  191.3660  174.5000  137.9140 O   0  0  0  0  0  0  0  0  0  0  0  0
  189.2500  173.7780  137.1460 N   0  0  0  0  0  2  0  0  0  0  0  0
  188.4070  173.8050  136.0190 N   0  0  0  0  0  0  0  0  0  0  0  0
  188.9660  173.0060  135.0790 O   0  0  0  0  0  1  0  0  0  0  0  0
  187.1130  173.2330  136.3990 C   0  0  0  0  0  2  0  0  0  0  0  0
  186.0040  173.9340  135.7540 N   0  0  0  0  0  0  0  0  0  0  0  0
  184.8870  173.9000  136.6880 C   0  0  0  0  0  3  0  0  0  0  0  0
  184.1640  172.5690  136.5740 C   0  0  0  0  0  2  0  0  0  0  0  0
  185.1160  172.8120  137.7220 C   0  0  0  0  0  2  0  0  0  0  0  0
  186.4120  175.3270  135.6390 C   0  0  0  0  0  2  0  0  0  0  0  0
  185.6790  176.1780  136.6610 C   0  0  0  0  0  2  0  0  0  0  0  0
  185.9340  177.9510  137.8380 O   0  0  0  0  0  1  0  0  0  0  0  0
  186.5950  176.8860  137.4380 O   0  0  0  0  0  0  0  0  0  0  0  0
  189.4230  178.3990  138.9500 C   0  0  0  0  0  2  0  0  0  0  0  0
  188.3300  178.5500  139.9910 C   0  0  0  0  0  1  0  0  0  0  0  0
  188.5580  178.6390  145.1240 O   0  0  0  0  0  0  0  0  0  0  0  0
  187.3090  178.0010  145.0010 C   0  0  0  0  0  2  0  0  0  0  0  0
  186.7300  178.2430  143.6190 C   0  0  0  0  0  2  0  0  0  0  0  0
  185.2150  178.2540  143.6750 C   0  0  0  0  0  2  0  0  0  0  0  0
  185.4700  179.7540  141.4720 O   0  0  0  0  0  0  0  0  0  0  0  0
  184.5540  178.7380  142.0950 S   0  0  0  0  0  0  0  0  0  0  0  0
  184.4550  177.5350  141.1990 O   0  0  0  0  0  0  0  0  0  0  0  0
  182.9770  179.4160  142.3220 N   0  0  0  0  0  2  0  0  0  0  0  0
  180.5560  178.9080  142.0810 C   0  0  0  0  0  0  0  0  0  0  0  0
  179.5570  177.8310  142.4630 C   0  0  0  0  0  1  0  0  0  0  0  0
  181.2110  178.7890  140.7110 C   0  0  2  0  0  0  0  0  0  0  0  0
  180.8170  177.6890  139.9450 O   0  0  0  0  0  1  0  0  0  0  0  0
  180.3480  180.3030  142.6600 C   0  0  0  0  0  1  0  0  0  0  0  0
  181.9990  178.3940  141.9650 C   0  0  1  0  0  3  0  0  0  0  0  0
  181.6020  180.0660  139.9600 C   0  0  2  0  0  3  0  0  0  0  0  0
  180.0020  181.6890  139.2550 O   0  0  0  0  0  1  0  0  0  0  0  0
  180.5290  180.4350  138.9510 C   0  0  0  0  0  2  0  0  0  0  0  0
  183.1070  181.0000  138.5670 O   0  0  0  0  0  1  0  0  0  0  0  0
  182.8740  179.8750  139.2840 N   0  0  0  0  0  2  0  0  0  0  0  0
  1 33  1  1  0  0  0
  1  8  1  0  0  0  0
  3  8  1  0  0  0  0
  5 10  1  6  0  0  0
  5  9  1  0  0  0  0
  5  6  1  0  0  0  0
  6  2  2  0  0  0  0
  6  3  1  0  0  0  0
  7  1  1  0  0  0  0
  7  4  1  0  0  0  0
  9  7  2  0  0  0  0
 10 12  2  0  0  0  0
 11 10  1  0  0  0  0
 13 31  1  6  0  0  0
 13 11  1  0  0  0  0
 14 15  1  0  0  0  0
 14 13  1  1  0  0  0
 16 17  1  0  0  0  0
 16 14  1  0  0  0  0
 17 19  1  1  0  0  0
 17 18  1  0  0  0  0
 18 15  1  0  0  0  0
 20 22  1  0  0  0  0
 20 19  1  0  0  0  0
 21 20  1  0  0  0  0
 23 22  1  0  0  0  0
 23 24  1  0  0  0  0
 24 26  1  0  0  0  0
 25 24  1  0  0  0  0
 25 26  1  0  0  0  0
 27 23  1  0  0  0  0
 27 28  1  0  0  0  0
 28 30  1  0  0  0  0
 30 29  1  0  0  0  0
 31 32  1  0  0  0  0
 34 33  1  0  0  0  0
 35 36  1  0  0  0  0
 35 34  1  0  0  0  0
 37 38  2  0  0  0  0
 38 40  1  0  0  0  0
 38 36  1  0  0  0  0
 39 38  2  0  0  0  0
 41 42  1  0  0  0  0
 41 45  1  0  0  0  0
 43 44  1  6  0  0  0
 43 46  1  0  0  0  0
 43 41  1  0  0  0  0
 46 41  1  0  0  0  0
 46 40  1  1  0  0  0
 47 49  1  6  0  0  0
 47 43  1  0  0  0  0
 49 48  1  0  0  0  0
 50 51  1  0  0  0  0
 51 47  1  0  0  0  0
M  END
>  <MODEL>
9

>  <REMARK>
 VINA RESULT:      -4.2      3.520      9.676
  Name = 
  22 active torsions:
  status: ('A' for Active; 'I' for Inactive)
    1  A    between atoms: C_2  and  C_14
    2  A    between atoms: C_2  and  N_21
    3  A    between atoms: C_2  and  C_40
    4  A    between atoms: C_3  and  C_28
    5  A    between atoms: C_5  and  N_23
    6  A    between atoms: O_7  and  C_8
    7  A    between atoms: O_7  and  C_19
    8  A    between atoms: O_11  and  C_37
    9  A    between atoms: C_12  and  C_24
   10  A    between atoms: C_12  and  S_36
   11  A    between atoms: C_15  and  C_42
   12  A    between atoms: C_18  and  N_23
   13  A    between atoms: C_18  and  N_31
   14  A    between atoms: C_19  and  C_24
   15  A    between atoms: N_20  and  N_31
   16  A    between atoms: N_20  and  C_38
   17  A    between atoms: N_23  and  C_27
   18  A    between atoms: C_27  and  C_37
   19  A    between atoms: C_29  and  C_42
   20  A    between atoms: N_35  and  C_42
   21  A    between atoms: S_36  and  N_44
   22  A    between atoms: N_44  and  C_51
                            x       y       z     vdW  Elec       q    Type
                         _______ _______ _______ _____ _____    ______ ____

>  <TORSDO>
F 22

$$$$
