=
 OpenBabel11032419333D

 31 33  0  0  1  0  0  0  0  0999 V2000
  182.5950  177.5660  139.3010 C   0  0  0  0  0  0  0  0  0  0  0  0
  187.2960  177.8230  137.3990 C   0  0  0  0  0  3  0  0  0  0  0  0
  184.2750  175.6840  136.4410 C   0  0  2  0  0  3  0  0  0  0  0  0
  182.8750  178.6600  141.5560 C   0  0  0  0  0  2  0  0  0  0  0  0
  182.3130  175.1590  137.8970 C   0  0  0  0  0  3  0  0  0  0  0  0
  189.9130  175.9160  136.1620 O   0  0  0  0  0  0  0  0  0  0  0  0
  183.3430  176.0440  137.5580 C   0  0  0  0  0  0  0  0  0  0  0  0
  185.7460  175.9450  136.7940 C   0  0  1  0  0  3  0  0  0  0  0  0
  184.1180  177.8780  141.9590 C   0  0  0  0  0  2  0  0  0  0  0  0
  186.5800  178.0210  142.3490 C   0  0  1  0  0  3  0  0  0  0  0  0
  181.4260  175.4720  138.9320 C   0  0  0  0  0  3  0  0  0  0  0  0
  183.4710  177.2530  138.2560 C   0  0  0  0  0  3  0  0  0  0  0  0
  185.3720  178.7050  141.7290 C   0  0  0  0  0  2  0  0  0  0  0  0
  186.6480  174.9710  136.0550 C   0  0  0  0  0  2  0  0  0  0  0  0
  188.2440  177.7710  140.5200 C   0  0  0  0  0  2  0  0  0  0  0  0
  187.8420  178.5920  141.7280 C   0  0  0  0  0  2  0  0  0  0  0  0
  188.8220  175.9810  136.7860 C   0  0  0  0  0  0  0  0  0  0  0  0
  183.8330  176.2970  135.1170 C   0  0  0  0  0  1  0  0  0  0  0  0
  181.5670  176.6720  139.6330 C   0  0  0  0  0  3  0  0  0  0  0  0
  182.7820  178.8570  140.0410 C   0  0  2  0  0  3  0  0  0  0  0  0
  186.1830  177.3790  136.5010 C   0  0  0  0  0  2  0  0  0  0  0  0
  188.4810  177.2080  137.5320 C   0  0  0  0  0  0  0  0  0  0  0  0
  189.5630  177.8310  138.3750 C   0  0  0  0  0  2  0  0  0  0  0  0
  189.0560  178.6350  139.5730 C   0  0  0  0  0  2  0  0  0  0  0  0
  187.9410  174.7690  136.8280 C   0  0  0  0  0  2  0  0  0  0  0  0
  181.7150  179.8420  139.6880 C   0  0  0  0  0  0  0  0  0  0  0  0
  180.6000  179.9680  140.5070 O   0  0  0  0  0  1  0  0  0  0  0  0
  181.8340  180.5850  138.6750 O   0  0  0  0  0  0  0  0  0  0  0  0
  186.5870  178.2640  143.8520 C   0  0  0  0  0  2  0  0  0  0  0  0
  188.5080  177.8690  145.1680 O   0  0  0  0  0  0  0  0  0  0  0  0
  187.5850  177.3850  144.5340 C   0  0  0  0  0  3  0  0  0  0  0  0
  1 19  1  0  0  0  0
  1 20  1  0  0  0  0
  2 22  2  0  0  0  0
  3 18  1  6  0  0  0
  3  8  1  0  0  0  0
  3  7  1  0  0  0  0
  4  9  1  0  0  0  0
  5 11  1  0  0  0  0
  6 17  2  0  0  0  0
  7  5  2  0  0  0  0
  7 12  1  0  0  0  0
  8 14  1  6  0  0  0
 10 29  1  1  0  0  0
 11 19  2  0  0  0  0
 12  1  2  0  0  0  0
 13  9  1  0  0  0  0
 13 10  1  0  0  0  0
 14 25  1  0  0  0  0
 15 16  1  0  0  0  0
 16 10  1  0  0  0  0
 17 25  1  0  0  0  0
 17 22  1  0  0  0  0
 20 26  1  1  0  0  0
 20  4  1  0  0  0  0
 21  8  1  0  0  0  0
 21  2  1  0  0  0  0
 22 23  1  0  0  0  0
 23 24  1  0  0  0  0
 24 15  1  0  0  0  0
 26 27  1  0  0  0  0
 28 26  2  0  0  0  0
 29 31  1  0  0  0  0
 31 30  2  0  0  0  0
M  END
>  <MODEL>
1

>  <REMARK>
 VINA RESULT:      -6.7      0.000      0.000
  Name = 
  3 active torsions:
  status: ('A' for Active; 'I' for Inactive)
    1  A    between atoms: C_9  and  C_26
    2  A    between atoms: C_11  and  C_23
    3  A    between atoms: C_23  and  C_24
                            x       y       z     vdW  Elec       q    Type
                         _______ _______ _______ _____ _____    ______ ____

>  <TORSDO>
F 3

$$$$
=
 OpenBabel11032419333D

 31 33  0  0  1  0  0  0  0  0999 V2000
  189.0610  177.8950  143.7160 C   0  0  0  0  0  0  0  0  0  0  0  0
  185.8790  179.1810  139.9730 C   0  0  0  0  0  3  0  0  0  0  0  0
  185.2630  178.2260  143.6240 C   0  0  2  0  0  3  0  0  0  0  0  0
  191.1550  177.2910  142.4460 C   0  0  0  0  0  2  0  0  0  0  0  0
  186.8190  176.9450  145.1010 C   0  0  0  0  0  3  0  0  0  0  0  0
  182.8140  178.4340  138.5370 O   0  0  0  0  0  0  0  0  0  0  0  0
  186.6490  177.8150  144.0180 C   0  0  0  0  0  0  0  0  0  0  0  0
  185.0380  178.1630  142.1070 C   0  0  1  0  0  3  0  0  0  0  0  0
  190.4680  176.3990  141.4210 C   0  0  0  0  0  2  0  0  0  0  0  0
  189.7840  176.1950  139.0290 C   0  0  1  0  0  3  0  0  0  0  0  0
  188.1020  176.5490  145.4930 C   0  0  0  0  0  3  0  0  0  0  0  0
  187.7760  178.2970  143.3360 C   0  0  0  0  0  3  0  0  0  0  0  0
  190.2470  177.1490  140.1180 C   0  0  0  0  0  2  0  0  0  0  0  0
  183.5810  177.8610  141.8000 C   0  0  0  0  0  2  0  0  0  0  0  0
  187.6490  177.1250  138.1610 C   0  0  0  0  0  2  0  0  0  0  0  0
  189.1380  176.9970  137.9130 C   0  0  0  0  0  2  0  0  0  0  0  0
  183.7520  178.1150  139.3130 C   0  0  0  0  0  0  0  0  0  0  0  0
  184.8660  179.5540  144.2590 C   0  0  0  0  0  1  0  0  0  0  0  0
  189.2200  177.0220  144.8010 C   0  0  0  0  0  3  0  0  0  0  0  0
  190.2390  178.4110  142.9440 C   0  0  2  0  0  3  0  0  0  0  0  0
  185.4640  179.4420  141.3880 C   0  0  0  0  0  2  0  0  0  0  0  0
  185.1210  178.5920  139.0360 C   0  0  0  0  0  0  0  0  0  0  0  0
  185.6130  178.5050  137.6140 C   0  0  0  0  0  2  0  0  0  0  0  0
  187.1300  178.3740  137.4710 C   0  0  0  0  0  2  0  0  0  0  0  0
  183.4650  177.1780  140.4470 C   0  0  0  0  0  2  0  0  0  0  0  0
  191.0030  179.4240  143.7370 C   0  0  0  0  0  0  0  0  0  0  0  0
  192.2110  179.0660  144.3210 O   0  0  0  0  0  1  0  0  0  0  0  0
  190.5790  180.6060  143.8490 O   0  0  0  0  0  0  0  0  0  0  0  0
  190.9790  175.4240  138.4860 C   0  0  0  0  0  2  0  0  0  0  0  0
  193.0150  176.5430  138.0590 O   0  0  0  0  0  0  0  0  0  0  0  0
  191.8750  176.3150  137.6880 C   0  0  0  0  0  3  0  0  0  0  0  0
  1 19  1  0  0  0  0
  2 21  1  0  0  0  0
  3  7  1  0  0  0  0
  3 18  1  6  0  0  0
  4 20  1  0  0  0  0
  5 11  1  0  0  0  0
  6 17  2  0  0  0  0
  7  5  2  0  0  0  0
  8 21  1  6  0  0  0
  8  3  1  0  0  0  0
  9  4  1  0  0  0  0
 10 29  1  6  0  0  0
 10 13  1  0  0  0  0
 12  1  2  0  0  0  0
 12  7  1  0  0  0  0
 13  9  1  0  0  0  0
 14  8  1  0  0  0  0
 16 15  1  0  0  0  0
 16 10  1  0  0  0  0
 17 25  1  0  0  0  0
 19 11  2  0  0  0  0
 20  1  1  0  0  0  0
 20 26  1  1  0  0  0
 22 17  1  0  0  0  0
 22  2  2  0  0  0  0
 23 22  1  0  0  0  0
 24 23  1  0  0  0  0
 24 15  1  0  0  0  0
 25 14  1  0  0  0  0
 26 28  2  0  0  0  0
 26 27  1  0  0  0  0
 31 30  2  0  0  0  0
 31 29  1  0  0  0  0
M  END
>  <MODEL>
2

>  <REMARK>
 VINA RESULT:      -6.1      2.301      7.354
  Name = 
  3 active torsions:
  status: ('A' for Active; 'I' for Inactive)
    1  A    between atoms: C_9  and  C_26
    2  A    between atoms: C_11  and  C_23
    3  A    between atoms: C_23  and  C_24
                            x       y       z     vdW  Elec       q    Type
                         _______ _______ _______ _____ _____    ______ ____

>  <TORSDO>
F 3

$$$$
=
 OpenBabel11032419333D

 31 33  0  0  1  0  0  0  0  0999 V2000
  188.3950  177.8680  139.0100 C   0  0  0  0  0  0  0  0  0  0  0  0
  183.8580  175.7600  138.1400 C   0  0  0  0  0  3  0  0  0  0  0  0
  186.5000  177.1860  135.7720 C   0  0  2  0  0  3  0  0  0  0  0  0
  188.2410  178.4640  141.4560 C   0  0  0  0  0  2  0  0  0  0  0  0
  188.3050  178.8060  136.3720 C   0  0  0  0  0  3  0  0  0  0  0  0
  180.9910  176.0070  136.2060 O   0  0  0  0  0  0  0  0  0  0  0  0
  187.4480  177.7740  136.7710 C   0  0  0  0  0  0  0  0  0  0  0  0
  185.0850  177.0030  136.3380 C   0  0  1  0  0  3  0  0  0  0  0  0
  186.8740  179.1290  141.3720 C   0  0  0  0  0  2  0  0  0  0  0  0
  184.4620  178.9130  141.9790 C   0  0  1  0  0  3  0  0  0  0  0  0
  189.2030  179.3700  137.2840 C   0  0  0  0  0  3  0  0  0  0  0  0
  187.5070  177.3000  138.0900 C   0  0  0  0  0  3  0  0  0  0  0  0
  185.7840  178.1770  141.8380 C   0  0  0  0  0  2  0  0  0  0  0  0
  184.0520  177.1230  135.2300 C   0  0  0  0  0  2  0  0  0  0  0  0
  182.8300  177.6760  140.5710 C   0  0  0  0  0  2  0  0  0  0  0  0
  183.3310  177.9000  141.9830 C   0  0  0  0  0  2  0  0  0  0  0  0
  182.0600  176.5210  136.6270 C   0  0  0  0  0  0  0  0  0  0  0  0
  187.0750  175.9360  135.1150 C   0  0  0  0  0  1  0  0  0  0  0  0
  189.2470  178.9030  138.6000 C   0  0  0  0  0  3  0  0  0  0  0  0
  188.4080  177.3520  140.4180 C   0  0  2  0  0  3  0  0  0  0  0  0
  184.9040  175.6750  137.0720 C   0  0  0  0  0  2  0  0  0  0  0  0
  182.5830  176.1330  137.9520 C   0  0  0  0  0  0  0  0  0  0  0  0
  181.5990  176.0530  139.0900 C   0  0  0  0  0  2  0  0  0  0  0  0
  182.2020  176.2980  140.4740 C   0  0  0  0  0  2  0  0  0  0  0  0
  182.7230  177.5850  135.8050 C   0  0  0  0  0  2  0  0  0  0  0  0
  189.6360  176.5410  140.6850 C   0  0  0  0  0  0  0  0  0  0  0  0
  190.3620  176.0280  139.6180 O   0  0  0  0  0  0  0  0  0  0  0  0
  190.0370  176.3500  141.8650 O   0  0  0  0  0  1  0  0  0  0  0  0
  184.4550  179.7000  143.2820 C   0  0  0  0  0  2  0  0  0  0  0  0
  183.6460  179.0990  145.4190 O   0  0  0  0  0  0  0  0  0  0  0  0
  183.4180  179.1740  144.2220 C   0  0  0  0  0  3  0  0  0  0  0  0
  1 20  1  0  0  0  0
  3 18  1  1  0  0  0
  3  8  1  0  0  0  0
  3  7  1  0  0  0  0
  5  7  2  0  0  0  0
  5 11  1  0  0  0  0
  6 17  2  0  0  0  0
  7 12  1  0  0  0  0
  8 14  1  6  0  0  0
  8 21  1  0  0  0  0
  9  4  1  0  0  0  0
  9 13  1  0  0  0  0
 10 16  1  0  0  0  0
 10 29  1  1  0  0  0
 11 19  2  0  0  0  0
 12  1  2  0  0  0  0
 13 10  1  0  0  0  0
 14 25  1  0  0  0  0
 15 16  1  0  0  0  0
 17 22  1  0  0  0  0
 19  1  1  0  0  0  0
 20 26  1  1  0  0  0
 20  4  1  0  0  0  0
 21  2  1  0  0  0  0
 22  2  2  0  0  0  0
 22 23  1  0  0  0  0
 23 24  1  0  0  0  0
 24 15  1  0  0  0  0
 25 17  1  0  0  0  0
 26 28  1  0  0  0  0
 27 26  2  0  0  0  0
 29 31  1  0  0  0  0
 31 30  2  0  0  0  0
M  END
>  <MODEL>
3

>  <REMARK>
 VINA RESULT:      -6.0      2.148      5.958
  Name = 
  3 active torsions:
  status: ('A' for Active; 'I' for Inactive)
    1  A    between atoms: C_9  and  C_26
    2  A    between atoms: C_11  and  C_23
    3  A    between atoms: C_23  and  C_24
                            x       y       z     vdW  Elec       q    Type
                         _______ _______ _______ _____ _____    ______ ____

>  <TORSDO>
F 3

$$$$
=
 OpenBabel11032419333D

 31 33  0  0  1  0  0  0  0  0999 V2000
  187.7580  176.7560  136.9660 C   0  0  0  0  0  0  0  0  0  0  0  0
  186.8350  178.7390  141.5480 C   0  0  0  0  0  3  0  0  0  0  0  0
  189.7900  176.7260  140.1920 C   0  0  2  0  0  3  0  0  0  0  0  0
  185.4620  176.7470  135.9200 C   0  0  0  0  0  2  0  0  0  0  0  0
  189.7690  175.2350  138.1870 C   0  0  0  0  0  3  0  0  0  0  0  0
  187.0930  178.1360  144.9520 O   0  0  0  0  0  0  0  0  0  0  0  0
  189.2510  176.3580  138.8440 C   0  0  0  0  0  0  0  0  0  0  0  0
  188.6820  177.0770  141.1950 C   0  0  1  0  0  3  0  0  0  0  0  0
  184.7480  176.1220  137.1110 C   0  0  0  0  0  2  0  0  0  0  0  0
  183.1440  176.5440  138.9770 C   0  0  1  0  0  3  0  0  0  0  0  0
  189.2870  174.8720  136.9260 C   0  0  0  0  0  3  0  0  0  0  0  0
  188.2520  177.1220  138.2220 C   0  0  0  0  0  3  0  0  0  0  0  0
  184.0460  177.1880  137.9370 C   0  0  0  0  0  2  0  0  0  0  0  0
  189.1190  176.7340  142.6090 C   0  0  0  0  0  2  0  0  0  0  0  0
  183.8540  177.4690  141.1720 C   0  0  0  0  0  2  0  0  0  0  0  0
  182.8320  177.5640  140.0580 C   0  0  0  0  0  2  0  0  0  0  0  0
  187.1210  177.7020  143.7710 C   0  0  0  0  0  0  0  0  0  0  0  0
  190.8940  177.7720  140.0920 C   0  0  0  0  0  1  0  0  0  0  0  0
  188.2830  175.6290  136.3160 C   0  0  0  0  0  3  0  0  0  0  0  0
  186.6710  177.5840  136.3460 C   0  0  2  0  0  3  0  0  0  0  0  0
  188.2590  178.5430  141.1250 C   0  0  0  0  0  2  0  0  0  0  0  0
  186.3170  178.3700  142.7300 C   0  0  0  0  0  0  0  0  0  0  0  0
  184.8990  178.7410  143.0790 C   0  0  0  0  0  2  0  0  0  0  0  0
  183.9440  178.8050  141.8860 C   0  0  0  0  0  2  0  0  0  0  0  0
  187.9030  176.4570  143.4780 C   0  0  0  0  0  2  0  0  0  0  0  0
  187.1960  178.3970  135.2060 C   0  0  0  0  0  0  0  0  0  0  0  0
  188.5110  178.2310  134.7940 O   0  0  0  0  0  1  0  0  0  0  0  0
  186.4450  179.2050  134.5940 O   0  0  0  0  0  0  0  0  0  0  0  0
  181.8540  176.0810  138.3150 C   0  0  0  0  0  2  0  0  0  0  0  0
  180.2350  174.8820  139.5500 O   0  0  0  0  0  0  0  0  0  0  0  0
  180.7490  175.9640  139.3160 C   0  0  0  0  0  3  0  0  0  0  0  0
  1 12  1  0  0  0  0
  2 22  2  0  0  0  0
  3 18  1  6  0  0  0
  3  8  1  0  0  0  0
  4 20  1  0  0  0  0
  4  9  1  0  0  0  0
  5  7  1  0  0  0  0
  7  3  1  0  0  0  0
  8 21  1  1  0  0  0
  8 14  1  0  0  0  0
  9 13  1  0  0  0  0
 10 29  1  6  0  0  0
 10 16  1  0  0  0  0
 11  5  2  0  0  0  0
 12  7  2  0  0  0  0
 13 10  1  0  0  0  0
 14 25  1  0  0  0  0
 15 24  1  0  0  0  0
 16 15  1  0  0  0  0
 17  6  2  0  0  0  0
 19 11  1  0  0  0  0
 19  1  2  0  0  0  0
 20 26  1  6  0  0  0
 20  1  1  0  0  0  0
 21  2  1  0  0  0  0
 22 23  1  0  0  0  0
 22 17  1  0  0  0  0
 24 23  1  0  0  0  0
 25 17  1  0  0  0  0
 27 26  1  0  0  0  0
 28 26  2  0  0  0  0
 29 31  1  0  0  0  0
 31 30  2  0  0  0  0
M  END
>  <MODEL>
4

>  <REMARK>
 VINA RESULT:      -5.7      1.920      6.831
  Name = 
  3 active torsions:
  status: ('A' for Active; 'I' for Inactive)
    1  A    between atoms: C_9  and  C_26
    2  A    between atoms: C_11  and  C_23
    3  A    between atoms: C_23  and  C_24
                            x       y       z     vdW  Elec       q    Type
                         _______ _______ _______ _____ _____    ______ ____

>  <TORSDO>
F 3

$$$$
=
 OpenBabel11032419333D

 31 33  0  0  1  0  0  0  0  0999 V2000
  188.7210  177.5110  138.7510 C   0  0  0  0  0  0  0  0  0  0  0  0
  185.5370  179.2420  142.3080 C   0  0  0  0  0  3  0  0  0  0  0  0
  189.0820  177.8260  142.5340 C   0  0  2  0  0  3  0  0  0  0  0  0
  187.1660  177.0870  136.8100 C   0  0  0  0  0  2  0  0  0  0  0  0
  190.2080  176.3780  140.8370 C   0  0  0  0  0  3  0  0  0  0  0  0
  184.3560  178.6630  145.5150 O   0  0  0  0  0  0  0  0  0  0  0  0
  189.2690  177.3780  141.1160 C   0  0  0  0  0  0  0  0  0  0  0  0
  187.6020  177.9550  142.9210 C   0  0  1  0  0  3  0  0  0  0  0  0
  186.1170  176.3280  137.6100 C   0  0  0  0  0  2  0  0  0  0  0  0
  183.8060  176.4260  138.5500 C   0  0  1  0  0  3  0  0  0  0  0  0
  190.4050  175.9440  139.5230 C   0  0  0  0  0  3  0  0  0  0  0  0
  188.5360  177.9500  140.0660 C   0  0  0  0  0  3  0  0  0  0  0  0
  184.9510  177.2370  137.9640 C   0  0  0  0  0  2  0  0  0  0  0  0
  187.4180  177.6850  144.4050 C   0  0  0  0  0  2  0  0  0  0  0  0
  183.2980  177.4450  140.7590 C   0  0  0  0  0  2  0  0  0  0  0  0
  182.8770  177.3590  139.3060 C   0  0  0  0  0  2  0  0  0  0  0  0
  184.9800  178.2540  144.5010 C   0  0  0  0  0  0  0  0  0  0  0  0
  189.9190  179.0600  142.8500 C   0  0  0  0  0  1  0  0  0  0  0  0
  189.6630  176.5080  138.4810 C   0  0  0  0  0  3  0  0  0  0  0  0
  187.8990  178.1290  137.6590 C   0  0  2  0  0  3  0  0  0  0  0  0
  187.0110  179.3180  142.5660 C   0  0  0  0  0  2  0  0  0  0  0  0
  184.6200  178.7720  143.1660 C   0  0  0  0  0  0  0  0  0  0  0  0
  183.1540  178.8700  142.8320 C   0  0  0  0  0  2  0  0  0  0  0  0
  182.8320  178.7670  141.3390 C   0  0  0  0  0  2  0  0  0  0  0  0
  186.0100  177.1790  144.6720 C   0  0  0  0  0  2  0  0  0  0  0  0
  188.7270  179.0370  136.8070 C   0  0  0  0  0  0  0  0  0  0  0  0
  189.1020  178.6280  135.5340 O   0  0  0  0  0  0  0  0  0  0  0  0
  189.0560  180.1820  137.2180 O   0  0  0  0  0  1  0  0  0  0  0  0
  183.0430  175.7380  137.4260 C   0  0  0  0  0  2  0  0  0  0  0  0
  184.1230  173.6490  137.6570 O   0  0  0  0  0  0  0  0  0  0  0  0
  183.0640  174.2520  137.5930 C   0  0  0  0  0  3  0  0  0  0  0  0
  1 12  1  0  0  0  0
  2 21  1  0  0  0  0
  2 22  2  0  0  0  0
  3 18  1  6  0  0  0
  3  8  1  0  0  0  0
  4  9  1  0  0  0  0
  4 20  1  0  0  0  0
  5  7  1  0  0  0  0
  7  3  1  0  0  0  0
  8 21  1  1  0  0  0
  8 14  1  0  0  0  0
  9 13  1  0  0  0  0
 10 29  1  6  0  0  0
 10 16  1  0  0  0  0
 11  5  2  0  0  0  0
 12  7  2  0  0  0  0
 13 10  1  0  0  0  0
 14 25  1  0  0  0  0
 15 24  1  0  0  0  0
 16 15  1  0  0  0  0
 17 25  1  0  0  0  0
 17  6  2  0  0  0  0
 19  1  2  0  0  0  0
 19 11  1  0  0  0  0
 20 26  1  6  0  0  0
 20  1  1  0  0  0  0
 22 17  1  0  0  0  0
 23 22  1  0  0  0  0
 24 23  1  0  0  0  0
 26 28  1  0  0  0  0
 27 26  2  0  0  0  0
 29 31  1  0  0  0  0
 31 30  2  0  0  0  0
M  END
>  <MODEL>
5

>  <REMARK>
 VINA RESULT:      -5.1      2.376      7.560
  Name = 
  3 active torsions:
  status: ('A' for Active; 'I' for Inactive)
    1  A    between atoms: C_9  and  C_26
    2  A    between atoms: C_11  and  C_23
    3  A    between atoms: C_23  and  C_24
                            x       y       z     vdW  Elec       q    Type
                         _______ _______ _______ _____ _____    ______ ____

>  <TORSDO>
F 3

$$$$
=
 OpenBabel11032419333D

 31 33  0  0  1  0  0  0  0  0999 V2000
  182.9150  173.9170  136.1320 C   0  0  0  0  0  0  0  0  0  0  0  0
  182.5280  176.9090  140.2170 C   0  0  0  0  0  3  0  0  0  0  0  0
  179.8800  175.3660  137.9300 C   0  0  2  0  0  3  0  0  0  0  0  0
  185.3230  174.2500  135.4580 C   0  0  0  0  0  2  0  0  0  0  0  0
  180.2370  174.5420  135.5980 C   0  0  0  0  0  3  0  0  0  0  0  0
  180.8060  179.6090  141.5440 O   0  0  0  0  0  0  0  0  0  0  0  0
  180.7660  174.7820  136.8720 C   0  0  0  0  0  0  0  0  0  0  0  0
  180.5630  176.4970  138.7120 C   0  0  1  0  0  3  0  0  0  0  0  0
  185.3010  175.7700  135.5360 C   0  0  0  0  0  2  0  0  0  0  0  0
  186.1020  177.7570  136.8180 C   0  0  1  0  0  3  0  0  0  0  0  0
  181.0400  173.9940  134.5940 C   0  0  0  0  0  3  0  0  0  0  0  0
  182.1040  174.4550  137.1370 C   0  0  0  0  0  3  0  0  0  0  0  0
  185.9080  176.2500  136.8450 C   0  0  0  0  0  2  0  0  0  0  0  0
  179.5310  177.5000  139.2010 C   0  0  0  0  0  2  0  0  0  0  0  0
  184.9040  178.6430  138.8070 C   0  0  0  0  0  2  0  0  0  0  0  0
  186.2570  178.2600  138.2420 C   0  0  0  0  0  2  0  0  0  0  0  0
  181.1110  178.9040  140.5470 C   0  0  0  0  0  0  0  0  0  0  0  0
  179.2620  174.2840  138.8100 C   0  0  0  0  0  1  0  0  0  0  0  0
  182.3760  173.6830  134.8590 C   0  0  0  0  0  3  0  0  0  0  0  0
  184.3480  173.6060  136.4480 C   0  0  2  0  0  3  0  0  0  0  0  0
  181.3910  175.9900  139.8910 C   0  0  0  0  0  2  0  0  0  0  0  0
  182.4140  178.2120  140.5150 C   0  0  0  0  0  0  0  0  0  0  0  0
  183.6260  178.9940  140.9490 C   0  0  0  0  0  2  0  0  0  0  0  0
  184.9430  178.5340  140.3200 C   0  0  0  0  0  2  0  0  0  0  0  0
  180.1760  178.8650  139.3770 C   0  0  0  0  0  2  0  0  0  0  0  0
  184.5720  172.1310  136.5470 C   0  0  0  0  0  0  0  0  0  0  0  0
  185.6780  171.5630  135.9300 O   0  0  0  0  0  0  0  0  0  0  0  0
  183.7870  171.4050  137.2160 O   0  0  0  0  0  1  0  0  0  0  0  0
  187.3490  178.0950  136.0120 C   0  0  0  0  0  2  0  0  0  0  0  0
  189.4920  177.8700  136.9810 O   0  0  0  0  0  0  0  0  0  0  0  0
  188.4660  178.5260  136.9080 C   0  0  0  0  0  3  0  0  0  0  0  0
  1 20  1  0  0  0  0
  1 12  1  0  0  0  0
  2 22  2  0  0  0  0
  3  8  1  0  0  0  0
  3 18  1  1  0  0  0
  4  9  1  0  0  0  0
  4 20  1  0  0  0  0
  5  7  1  0  0  0  0
  7 12  2  0  0  0  0
  7  3  1  0  0  0  0
  8 14  1  1  0  0  0
  8 21  1  0  0  0  0
  9 13  1  0  0  0  0
 10 29  1  6  0  0  0
 10 13  1  0  0  0  0
 10 16  1  0  0  0  0
 11 19  1  0  0  0  0
 11  5  2  0  0  0  0
 14 25  1  0  0  0  0
 15 24  1  0  0  0  0
 16 15  1  0  0  0  0
 17  6  2  0  0  0  0
 19  1  2  0  0  0  0
 20 26  1  6  0  0  0
 21  2  1  0  0  0  0
 22 17  1  0  0  0  0
 22 23  1  0  0  0  0
 24 23  1  0  0  0  0
 25 17  1  0  0  0  0
 26 28  1  0  0  0  0
 27 26  2  0  0  0  0
 29 31  1  0  0  0  0
 31 30  2  0  0  0  0
M  END
>  <MODEL>
6

>  <REMARK>
 VINA RESULT:      -5.1      2.597      6.839
  Name = 
  3 active torsions:
  status: ('A' for Active; 'I' for Inactive)
    1  A    between atoms: C_9  and  C_26
    2  A    between atoms: C_11  and  C_23
    3  A    between atoms: C_23  and  C_24
                            x       y       z     vdW  Elec       q    Type
                         _______ _______ _______ _____ _____    ______ ____

>  <TORSDO>
F 3

$$$$
=
 OpenBabel11032419333D

 31 33  0  0  1  0  0  0  0  0999 V2000
  183.3750  177.8400  138.4600 C   0  0  0  0  0  0  0  0  0  0  0  0
  185.3060  177.4780  143.1420 C   0  0  0  0  0  3  0  0  0  0  0  0
  182.0950  179.0850  141.8280 C   0  0  2  0  0  3  0  0  0  0  0  0
  185.3880  177.3550  137.0180 C   0  0  0  0  0  2  0  0  0  0  0  0
  181.6550  179.8030  139.4760 C   0  0  0  0  0  3  0  0  0  0  0  0
  185.7860  179.2140  146.1040 O   0  0  0  0  0  0  0  0  0  0  0  0
  182.3210  178.9410  140.3550 C   0  0  0  0  0  0  0  0  0  0  0  0
  183.4000  179.0290  142.6350 C   0  0  1  0  0  3  0  0  0  0  0  0
  186.3340  178.3030  137.7430 C   0  0  0  0  0  2  0  0  0  0  0  0
  188.3120  178.4430  139.2600 C   0  0  1  0  0  3  0  0  0  0  0  0
  181.8450  179.6870  138.0950 C   0  0  0  0  0  3  0  0  0  0  0  0
  183.1720  177.9520  139.8390 C   0  0  0  0  0  3  0  0  0  0  0  0
  187.2160  177.5400  138.7180 C   0  0  0  0  0  2  0  0  0  0  0  0
  183.2760  179.8570  143.9020 C   0  0  0  0  0  2  0  0  0  0  0  0
  188.1120  178.3620  141.7350 C   0  0  0  0  0  2  0  0  0  0  0  0
  188.8690  177.8340  140.5340 C   0  0  0  0  0  2  0  0  0  0  0  0
  185.4940  179.2220  144.8800 C   0  0  0  0  0  0  0  0  0  0  0  0
  181.0120  178.1360  142.3290 C   0  0  0  0  0  1  0  0  0  0  0  0
  182.7040  178.7090  137.5880 C   0  0  0  0  0  3  0  0  0  0  0  0
  184.3140  176.7870  137.9500 C   0  0  2  0  0  3  0  0  0  0  0  0
  183.8210  177.6040  142.9870 C   0  0  0  0  0  2  0  0  0  0  0  0
  186.0630  178.1930  143.9880 C   0  0  0  0  0  0  0  0  0  0  0  0
  187.5280  177.8780  144.1380 C   0  0  0  0  0  2  0  0  0  0  0  0
  188.2020  177.3550  142.8670 C   0  0  0  0  0  2  0  0  0  0  0  0
  184.6470  180.3380  144.3470 C   0  0  0  0  0  2  0  0  0  0  0  0
  183.5670  175.6680  137.2960 C   0  0  0  0  0  0  0  0  0  0  0  0
  183.7360  175.4330  135.9380 O   0  0  0  0  0  0  0  0  0  0  0  0
  182.8160  174.9150  137.9730 O   0  0  0  0  0  1  0  0  0  0  0  0
  189.4200  178.5760  138.2240 C   0  0  0  0  0  2  0  0  0  0  0  0
  191.0260  176.8790  137.8740 O   0  0  0  0  0  0  0  0  0  0  0  0
  189.8670  177.2330  137.7400 C   0  0  0  0  0  3  0  0  0  0  0  0
  1 12  1  0  0  0  0
  2 22  2  0  0  0  0
  3 18  1  1  0  0  0
  3  8  1  0  0  0  0
  4  9  1  0  0  0  0
  4 20  1  0  0  0  0
  5  7  1  0  0  0  0
  7  3  1  0  0  0  0
  8 21  1  1  0  0  0
  8 14  1  0  0  0  0
  9 13  1  0  0  0  0
 10 29  1  6  0  0  0
 10 16  1  0  0  0  0
 11  5  2  0  0  0  0
 12  7  2  0  0  0  0
 13 10  1  0  0  0  0
 14 25  1  0  0  0  0
 15 24  1  0  0  0  0
 16 15  1  0  0  0  0
 17  6  2  0  0  0  0
 19 11  1  0  0  0  0
 19  1  2  0  0  0  0
 20 26  1  6  0  0  0
 20  1  1  0  0  0  0
 21  2  1  0  0  0  0
 22 23  1  0  0  0  0
 22 17  1  0  0  0  0
 24 23  1  0  0  0  0
 25 17  1  0  0  0  0
 26 28  1  0  0  0  0
 27 26  2  0  0  0  0
 31 30  2  0  0  0  0
 31 29  1  0  0  0  0
M  END
>  <MODEL>
7

>  <REMARK>
 VINA RESULT:      -5.1      2.177      6.176
  Name = 
  3 active torsions:
  status: ('A' for Active; 'I' for Inactive)
    1  A    between atoms: C_9  and  C_26
    2  A    between atoms: C_11  and  C_23
    3  A    between atoms: C_23  and  C_24
                            x       y       z     vdW  Elec       q    Type
                         _______ _______ _______ _____ _____    ______ ____

>  <TORSDO>
F 3

$$$$
=
 OpenBabel11032419333D

 31 33  0  0  1  0  0  0  0  0999 V2000
  187.3690  177.8920  138.5100 C   0  0  0  0  0  0  0  0  0  0  0  0
  182.8700  176.2790  136.7950 C   0  0  0  0  0  3  0  0  0  0  0  0
  183.8080  178.6550  139.6400 C   0  0  2  0  0  3  0  0  0  0  0  0
  188.9500  176.1880  137.5320 C   0  0  0  0  0  2  0  0  0  0  0  0
  186.0190  178.7760  140.7990 C   0  0  0  0  0  3  0  0  0  0  0  0
  179.7220  175.2200  137.7890 O   0  0  0  0  0  0  0  0  0  0  0  0
  185.2960  178.4830  139.6360 C   0  0  0  0  0  0  0  0  0  0  0  0
  183.0760  177.4710  138.9930 C   0  0  1  0  0  3  0  0  0  0  0  0
  188.1450  174.9650  137.9510 C   0  0  0  0  0  2  0  0  0  0  0  0
  186.7120  173.0900  137.1360 C   0  0  1  0  0  3  0  0  0  0  0  0
  187.4090  178.6280  140.8220 C   0  0  0  0  0  3  0  0  0  0  0  0
  185.9800  178.0530  138.4890 C   0  0  0  0  0  3  0  0  0  0  0  0
  187.3240  174.4370  136.7860 C   0  0  0  0  0  2  0  0  0  0  0  0
  181.7020  177.2930  139.6180 C   0  0  0  0  0  2  0  0  0  0  0  0
  184.2640  173.3310  136.7790 C   0  0  0  0  0  2  0  0  0  0  0  0
  185.5590  172.8110  136.1880 C   0  0  0  0  0  2  0  0  0  0  0  0
  180.9190  175.4770  138.0790 C   0  0  0  0  0  0  0  0  0  0  0  0
  183.3950  180.0170  139.0940 C   0  0  0  0  0  1  0  0  0  0  0  0
  188.0830  178.1860  139.6800 C   0  0  0  0  0  3  0  0  0  0  0  0
  188.0590  177.4050  137.2710 C   0  0  2  0  0  3  0  0  0  0  0  0
  182.9410  177.6100  137.4780 C   0  0  0  0  0  2  0  0  0  0  0  0
  181.9680  175.3200  137.0530 C   0  0  0  0  0  0  0  0  0  0  0  0
  181.9280  174.0760  136.2040 C   0  0  0  0  0  2  0  0  0  0  0  0
  183.2860  173.6310  135.6580 C   0  0  0  0  0  2  0  0  0  0  0  0
  181.2570  175.8450  139.4920 C   0  0  0  0  0  2  0  0  0  0  0  0
  188.8260  178.5060  136.6100 C   0  0  0  0  0  0  0  0  0  0  0  0
  188.8960  179.7520  137.2190 O   0  0  0  0  0  1  0  0  0  0  0  0
  189.4390  178.3030  135.5270 O   0  0  0  0  0  0  0  0  0  0  0  0
  187.7680  172.0020  137.0000 C   0  0  0  0  0  2  0  0  0  0  0  0
  187.8780  170.2190  135.4540 O   0  0  0  0  0  0  0  0  0  0  0  0
  187.7680  171.4230  135.6220 C   0  0  0  0  0  3  0  0  0  0  0  0
  1 19  1  0  0  0  0
  2 22  2  0  0  0  0
  2 21  1  0  0  0  0
  3 18  1  6  0  0  0
  4  9  1  0  0  0  0
  5 11  1  0  0  0  0
  6 17  2  0  0  0  0
  7  3  1  0  0  0  0
  7  5  2  0  0  0  0
  8 21  1  6  0  0  0
  8 14  1  0  0  0  0
  8  3  1  0  0  0  0
 10 29  1  6  0  0  0
 12  1  2  0  0  0  0
 12  7  1  0  0  0  0
 13 10  1  0  0  0  0
 13  9  1  0  0  0  0
 16 15  1  0  0  0  0
 16 10  1  0  0  0  0
 17 25  1  0  0  0  0
 19 11  2  0  0  0  0
 20 26  1  1  0  0  0
 20  4  1  0  0  0  0
 20  1  1  0  0  0  0
 22 17  1  0  0  0  0
 23 22  1  0  0  0  0
 24 23  1  0  0  0  0
 24 15  1  0  0  0  0
 25 14  1  0  0  0  0
 26 27  1  0  0  0  0
 28 26  2  0  0  0  0
 30 31  2  0  0  0  0
 31 29  1  0  0  0  0
M  END
>  <MODEL>
8

>  <REMARK>
 VINA RESULT:      -5.0      2.612      7.317
  Name = 
  3 active torsions:
  status: ('A' for Active; 'I' for Inactive)
    1  A    between atoms: C_9  and  C_26
    2  A    between atoms: C_11  and  C_23
    3  A    between atoms: C_23  and  C_24
                            x       y       z     vdW  Elec       q    Type
                         _______ _______ _______ _____ _____    ______ ____

>  <TORSDO>
F 3

$$$$
=
 OpenBabel11032419333D

 31 33  0  0  1  0  0  0  0  0999 V2000
  188.7820  177.1520  138.3640 C   0  0  0  0  0  0  0  0  0  0  0  0
  184.9280  179.0060  141.1010 C   0  0  0  0  0  3  0  0  0  0  0  0
  188.5500  178.2010  142.0230 C   0  0  2  0  0  3  0  0  0  0  0  0
  187.5890  176.1530  136.3790 C   0  0  0  0  0  2  0  0  0  0  0  0
  190.0800  176.6530  140.7960 C   0  0  0  0  0  3  0  0  0  0  0  0
  183.3760  178.8520  144.1980 O   0  0  0  0  0  0  0  0  0  0  0  0
  188.9940  177.5350  140.7570 C   0  0  0  0  0  0  0  0  0  0  0  0
  187.0260  178.1760  142.2000 C   0  0  1  0  0  3  0  0  0  0  0  0
  186.5360  175.4050  137.1850 C   0  0  0  0  0  2  0  0  0  0  0  0
  184.1200  175.3260  137.8070 C   0  0  1  0  0  3  0  0  0  0  0  0
  190.5180  176.0210  139.6280 C   0  0  0  0  0  3  0  0  0  0  0  0
  188.3560  177.7900  139.5340 C   0  0  0  0  0  3  0  0  0  0  0  0
  185.2280  176.1780  137.2100 C   0  0  0  0  0  2  0  0  0  0  0  0
  186.6640  178.1570  143.6750 C   0  0  0  0  0  2  0  0  0  0  0  0
  183.1760  176.6430  139.6920 C   0  0  0  0  0  2  0  0  0  0  0  0
  182.9830  176.2320  138.2460 C   0  0  0  0  0  2  0  0  0  0  0  0
  184.1860  178.3630  143.3670 C   0  0  0  0  0  0  0  0  0  0  0  0
  189.1740  179.5830  142.1820 C   0  0  0  0  0  1  0  0  0  0  0  0
  189.8700  176.2680  138.4150 C   0  0  0  0  0  3  0  0  0  0  0  0
  188.0560  177.4300  137.0820 C   0  0  2  0  0  3  0  0  0  0  0  0
  186.3270  179.3480  141.5110 C   0  0  0  0  0  2  0  0  0  0  0  0
  183.9610  178.5690  141.9230 C   0  0  0  0  0  0  0  0  0  0  0  0
  182.5590  178.3840  141.4050 C   0  0  0  0  0  2  0  0  0  0  0  0
  182.4710  177.9640  139.9360 C   0  0  0  0  0  2  0  0  0  0  0  0
  185.3060  177.5030  143.8700 C   0  0  0  0  0  2  0  0  0  0  0  0
  188.8790  178.2820  136.1690 C   0  0  0  0  0  0  0  0  0  0  0  0
  189.0830  177.8780  134.8560 O   0  0  0  0  0  0  0  0  0  0  0  0
  189.3580  179.3770  136.5680 O   0  0  0  0  0  1  0  0  0  0  0  0
  183.6190  174.3390  136.7620 C   0  0  0  0  0  2  0  0  0  0  0  0
  184.7570  172.6310  137.9330 O   0  0  0  0  0  0  0  0  0  0  0  0
  183.8140  172.9280  137.2190 C   0  0  0  0  0  3  0  0  0  0  0  0
  1 19  2  0  0  0  0
  1 12  1  0  0  0  0
  2 21  1  0  0  0  0
  2 22  2  0  0  0  0
  3 18  1  6  0  0  0
  3  8  1  0  0  0  0
  4 20  1  0  0  0  0
  4  9  1  0  0  0  0
  7  5  1  0  0  0  0
  7  3  1  0  0  0  0
  8 21  1  1  0  0  0
  8 14  1  0  0  0  0
  9 13  1  0  0  0  0
 10 29  1  6  0  0  0
 10 16  1  0  0  0  0
 11  5  2  0  0  0  0
 12  7  2  0  0  0  0
 13 10  1  0  0  0  0
 14 25  1  0  0  0  0
 15 24  1  0  0  0  0
 16 15  1  0  0  0  0
 17 25  1  0  0  0  0
 17  6  2  0  0  0  0
 19 11  1  0  0  0  0
 20 26  1  6  0  0  0
 20  1  1  0  0  0  0
 22 17  1  0  0  0  0
 23 22  1  0  0  0  0
 24 23  1  0  0  0  0
 26 28  1  0  0  0  0
 27 26  2  0  0  0  0
 29 31  1  0  0  0  0
 31 30  2  0  0  0  0
M  END
>  <MODEL>
9

>  <REMARK>
 VINA RESULT:      -4.9      2.079      7.575
  Name = 
  3 active torsions:
  status: ('A' for Active; 'I' for Inactive)
    1  A    between atoms: C_9  and  C_26
    2  A    between atoms: C_11  and  C_23
    3  A    between atoms: C_23  and  C_24
                            x       y       z     vdW  Elec       q    Type
                         _______ _______ _______ _____ _____    ______ ____

>  <TORSDO>
F 3

$$$$
