=
 OpenBabel11042410383D

 44 47  0  0  1  0  0  0  0  0999 V2000
  181.9390  178.2470  141.9280 O   0  0  0  0  0  0  0  0  0  0  0  0
  183.8750  178.2590  137.9080 C   0  0  1  0  0  3  0  0  0  0  0  0
  180.8660  177.1020  139.4030 C   0  0  0  0  0  0  0  0  0  0  0  0
  186.1860  177.6580  137.9850 C   0  0  1  0  0  3  0  0  0  0  0  0
  181.9190  178.1310  139.5850 C   0  0  0  0  0  0  0  0  0  0  0  0
  180.9180  176.5850  138.2080 N   0  0  0  0  0  0  0  0  0  0  0  0
  181.9610  177.2670  137.5180 C   0  0  2  0  0  3  0  0  0  0  0  0
  185.1080  178.4890  138.7280 C   0  0  0  0  0  2  0  0  0  0  0  0
  185.8460  176.0730  136.1490 O   0  0  0  0  0  0  0  0  0  0  0  0
  184.0570  177.3950  136.9160 N   0  0  0  0  0  0  0  0  0  0  0  0
  185.4010  176.9740  136.9090 C   0  0  0  0  0  0  0  0  0  0  0  0
  182.9290  176.6810  136.7120 C   0  0  0  0  0  2  0  0  0  0  0  0
  182.4360  178.5760  140.6880 N   0  0  0  0  0  0  0  0  0  0  0  0
  182.5530  178.2250  138.2880 C   0  0  2  0  0  3  0  0  0  0  0  0
  179.7940  175.5110  140.8050 O   0  0  0  0  0  0  0  0  0  0  0  0
  178.9320  177.6260  140.8510 O   0  0  0  0  0  1  0  0  0  0  0  0
  179.8370  176.6910  140.3700 C   0  0  0  0  0  0  0  0  0  0  0  0
  187.1340  178.5240  137.4080 O   0  0  0  0  0  0  0  0  0  0  0  0
  189.0800  179.5030  138.0880 O   0  0  0  0  0  1  0  0  0  0  0  0
  188.2770  177.7540  139.2750 O   0  0  0  0  0  1  0  0  0  0  0  0
  188.4050  178.2860  137.9850 C   0  0  0  0  0  0  0  0  0  0  0  0
  188.7690  177.7610  135.3720 C   0  0  0  0  0  1  0  0  0  0  0  0
  189.4120  177.1440  136.9610 S   0  0  0  0  0  0  0  0  0  0  0  0
  182.2690  179.0290  143.0630 C   0  0  1  0  0  3  0  0  0  0  0  0
  179.8650  178.9990  143.7450 C   0  0  0  0  0  1  0  0  0  0  0  0
  181.2890  178.7090  144.1810 C   0  0  0  0  0  2  0  0  0  0  0  0
  183.6940  178.7120  143.4990 C   0  0  0  0  0  2  0  0  0  0  0  0
  183.8190  178.8220  145.0050 C   0  0  0  0  0  2  0  0  0  0  0  0
  185.2610  179.1010  145.3770 C   0  0  0  0  0  2  0  0  0  0  0  0
  185.3530  179.3390  146.8060 N   0  0  0  0  0  2  0  0  0  0  0  0
  186.7040  178.9800  147.2080 C   0  0  0  0  0  2  0  0  0  0  0  0
  187.0380  177.5890  146.7080 C   0  0  0  0  0  2  0  0  0  0  0  0
  188.5390  177.3610  146.7870 C   0  0  0  0  0  2  0  0  0  0  0  0
  187.9970  177.1540  144.3550 C   0  0  0  0  0  2  0  0  0  0  0  0
  190.8030  176.9190  142.7640 C   0  0  1  0  0  3  0  0  0  0  0  0
  190.5750  178.1660  143.6420 C   0  0  0  0  0  2  0  0  0  0  0  0
  191.5070  177.2890  145.7370 N   0  0  0  0  0  1  0  0  0  0  0  0
  190.3240  177.8760  145.1300 C   0  0  2  0  0  3  0  0  0  0  0  0
  188.2940  176.4100  143.0420 C   0  0  0  0  0  2  0  0  0  0  0  0
  189.0930  177.0010  145.4190 C   0  0  1  0  0  3  0  0  0  0  0  0
  189.7160  175.8450  142.9440 C   0  0  0  0  0  2  0  0  0  0  0  0
  192.1920  177.7100  141.1370 O   0  0  0  0  0  1  0  0  0  0  0  0
  190.9140  177.3110  141.3540 N   0  0  0  0  0  0  0  0  0  0  0  0
  190.7340  176.1960  140.6010 O   0  0  0  0  0  1  0  0  0  0  0  0
  1 24  1  0  0  0  0
  2 14  1  0  0  0  0
  2  8  1  1  0  0  0
  3  5  1  0  0  0  0
  3 17  1  0  0  0  0
  4 18  1  6  0  0  0
  4  8  1  0  0  0  0
  5 13  2  0  0  0  0
  6  3  2  0  0  0  0
  7 12  1  1  0  0  0
  7  6  1  0  0  0  0
  7 14  1  0  0  0  0
  9 11  2  0  0  0  0
 10  2  1  0  0  0  0
 11 10  1  0  0  0  0
 11  4  1  0  0  0  0
 12 10  1  0  0  0  0
 13  1  1  0  0  0  0
 14  5  1  1  0  0  0
 17 15  2  0  0  0  0
 17 16  1  0  0  0  0
 18 21  1  0  0  0  0
 21 19  1  0  0  0  0
 21 20  1  0  0  0  0
 22 23  1  0  0  0  0
 23 21  1  0  0  0  0
 24 27  1  1  0  0  0
 24 26  1  0  0  0  0
 25 26  1  0  0  0  0
 27 28  1  0  0  0  0
 28 29  1  0  0  0  0
 29 30  1  0  0  0  0
 30 31  1  0  0  0  0
 32 33  1  0  0  0  0
 32 31  1  0  0  0  0
 34 40  1  0  0  0  0
 35 43  1  6  0  0  0
 35 41  1  0  0  0  0
 35 36  1  0  0  0  0
 36 38  1  0  0  0  0
 38 40  1  0  0  0  0
 38 37  1  6  0  0  0
 39 34  1  0  0  0  0
 40 33  1  1  0  0  0
 41 39  1  0  0  0  0
 42 43  1  0  0  0  0
 44 43  1  0  0  0  0
M  END
>  <MODEL>
1

>  <REMARK>
 VINA RESULT:      -7.9      0.000      0.000
  Name = 
  16 active torsions:
  status: ('A' for Active; 'I' for Inactive)
    1  A    between atoms: O_1  and  C_10
    2  A    between atoms: O_1  and  C_33
    3  A    between atoms: O_3  and  C_12
    4  A    between atoms: O_3  and  N_42
    5  A    between atoms: C_5  and  C_17
    6  A    between atoms: C_5  and  C_41
    7  A    between atoms: C_6  and  N_14
    8  A    between atoms: C_6  and  C_25
    9  A    between atoms: C_8  and  C_12
   10  A    between atoms: C_8  and  C_25
   11  A    between atoms: CA_9  and  C_38
   12  A    between atoms: C_12  and  C_26
   13  A    between atoms: N_14  and  C_37
   14  A    between atoms: C_15  and  N_39
   15  A    between atoms: C_17  and  C_37
   16  A    between atoms: S_28  and  C_33
                            x       y       z     vdW  Elec       q    Type
                         _______ _______ _______ _____ _____    ______ ____

>  <TORSDO>
F 16

$$$$
=
 OpenBabel11042410383D

 44 47  0  0  1  0  0  0  0  0999 V2000
  182.5710  178.8860  143.0170 O   0  0  0  0  0  0  0  0  0  0  0  0
  181.4970  177.2410  139.0120 C   0  0  1  0  0  3  0  0  0  0  0  0
  179.8640  178.1510  142.0340 C   0  0  0  0  0  0  0  0  0  0  0  0
  182.9630  175.4960  138.2970 C   0  0  1  0  0  3  0  0  0  0  0  0
  181.0880  178.4530  141.2520 C   0  0  0  0  0  0  0  0  0  0  0  0
  178.9870  177.5190  141.3060 N   0  0  0  0  0  0  0  0  0  0  0  0
  179.5490  177.4090  140.0020 C   0  0  2  0  0  3  0  0  0  0  0  0
  182.9500  176.8810  138.9960 C   0  0  0  0  0  2  0  0  0  0  0  0
  181.0370  174.1020  137.7130 O   0  0  0  0  0  0  0  0  0  0  0  0
  180.7110  176.2820  138.5350 N   0  0  0  0  0  0  0  0  0  0  0  0
  181.5070  175.2000  138.1100 C   0  0  0  0  0  0  0  0  0  0  0  0
  179.5330  176.2780  139.1950 C   0  0  0  0  0  2  0  0  0  0  0  0
  182.2850  178.7020  141.6840 N   0  0  0  0  0  0  0  0  0  0  0  0
  180.7800  177.9910  139.9160 C   0  0  2  0  0  3  0  0  0  0  0  0
  179.1950  179.6780  143.7280 O   0  0  0  0  0  0  0  0  0  0  0  0
  179.6790  177.5580  144.4270 O   0  0  0  0  0  1  0  0  0  0  0  0
  179.5780  178.5170  143.4290 C   0  0  0  0  0  0  0  0  0  0  0  0
  183.5930  175.6080  137.0420 O   0  0  0  0  0  0  0  0  0  0  0  0
  184.5540  173.7790  138.0120 O   0  0  0  0  0  1  0  0  0  0  0  0
  183.7310  173.5840  135.9150 O   0  0  0  0  0  1  0  0  0  0  0  0
  184.3780  174.4540  136.8030 C   0  0  0  0  0  0  0  0  0  0  0  0
  186.1530  176.4610  137.0320 C   0  0  0  0  0  1  0  0  0  0  0  0
  186.0290  174.8850  136.1280 S   0  0  0  0  0  0  0  0  0  0  0  0
  183.8980  179.1620  143.4340 C   0  0  1  0  0  3  0  0  0  0  0  0
  185.4380  179.0960  145.4010 C   0  0  0  0  0  1  0  0  0  0  0  0
  184.0280  178.8230  144.9110 C   0  0  0  0  0  2  0  0  0  0  0  0
  184.8710  178.3290  142.6100 C   0  0  0  0  0  2  0  0  0  0  0  0
  185.6500  179.2170  141.6610 C   0  0  0  0  0  2  0  0  0  0  0  0
  186.9920  178.5810  141.3560 C   0  0  0  0  0  2  0  0  0  0  0  0
  187.2270  178.6170  139.9240 N   0  0  0  0  0  2  0  0  0  0  0  0
  188.6420  178.3520  139.7210 C   0  0  0  0  0  2  0  0  0  0  0  0
  189.0600  177.1390  140.5290 C   0  0  0  0  0  2  0  0  0  0  0  0
  190.3190  177.4550  141.3180 C   0  0  0  0  0  2  0  0  0  0  0  0
  189.0030  176.4340  143.1830 C   0  0  0  0  0  2  0  0  0  0  0  0
  190.2400  177.5510  145.9540 C   0  0  1  0  0  3  0  0  0  0  0  0
  191.1850  176.8010  144.9940 C   0  0  0  0  0  2  0  0  0  0  0  0
  191.9540  178.7330  143.6880 N   0  0  0  0  0  1  0  0  0  0  0  0
  191.3220  177.4270  143.5970 C   0  0  2  0  0  3  0  0  0  0  0  0
  188.2860  176.6820  144.5210 C   0  0  0  0  0  2  0  0  0  0  0  0
  190.0100  177.5300  142.8030 C   0  0  1  0  0  3  0  0  0  0  0  0
  188.8600  177.8430  145.3390 C   0  0  0  0  0  2  0  0  0  0  0  0
  191.3230  176.7390  147.7890 O   0  0  0  0  0  1  0  0  0  0  0  0
  190.1000  176.8020  147.2070 N   0  0  0  0  0  0  0  0  0  0  0  0
  189.3220  177.5370  148.0430 O   0  0  0  0  0  1  0  0  0  0  0  0
  1 24  1  0  0  0  0
  2  8  1  1  0  0  0
  2 14  1  0  0  0  0
  3 17  1  0  0  0  0
  4 18  1  6  0  0  0
  4  8  1  0  0  0  0
  5 13  2  0  0  0  0
  5  3  1  0  0  0  0
  6  3  2  0  0  0  0
  7 12  1  1  0  0  0
  7  6  1  0  0  0  0
  9 11  2  0  0  0  0
 10  2  1  0  0  0  0
 10 12  1  0  0  0  0
 11  4  1  0  0  0  0
 11 10  1  0  0  0  0
 13  1  1  0  0  0  0
 14  7  1  0  0  0  0
 14  5  1  1  0  0  0
 17 15  2  0  0  0  0
 17 16  1  0  0  0  0
 20 21  1  0  0  0  0
 21 18  1  0  0  0  0
 21 19  1  0  0  0  0
 23 21  1  0  0  0  0
 23 22  1  0  0  0  0
 24 27  1  6  0  0  0
 24 26  1  0  0  0  0
 26 25  1  0  0  0  0
 28 27  1  0  0  0  0
 29 28  1  0  0  0  0
 30 29  1  0  0  0  0
 31 30  1  0  0  0  0
 31 32  1  0  0  0  0
 32 33  1  0  0  0  0
 34 39  1  0  0  0  0
 35 43  1  1  0  0  0
 36 35  1  0  0  0  0
 38 37  1  1  0  0  0
 38 36  1  0  0  0  0
 39 41  1  0  0  0  0
 40 33  1  6  0  0  0
 40 34  1  0  0  0  0
 40 38  1  0  0  0  0
 41 35  1  0  0  0  0
 43 42  1  0  0  0  0
 43 44  1  0  0  0  0
M  END
>  <MODEL>
2

>  <REMARK>
 VINA RESULT:      -7.8      2.901      4.406
  Name = 
  16 active torsions:
  status: ('A' for Active; 'I' for Inactive)
    1  A    between atoms: O_1  and  C_10
    2  A    between atoms: O_1  and  C_33
    3  A    between atoms: O_3  and  C_12
    4  A    between atoms: O_3  and  N_42
    5  A    between atoms: C_5  and  C_17
    6  A    between atoms: C_5  and  C_41
    7  A    between atoms: C_6  and  N_14
    8  A    between atoms: C_6  and  C_25
    9  A    between atoms: C_8  and  C_12
   10  A    between atoms: C_8  and  C_25
   11  A    between atoms: CA_9  and  C_38
   12  A    between atoms: C_12  and  C_26
   13  A    between atoms: N_14  and  C_37
   14  A    between atoms: C_15  and  N_39
   15  A    between atoms: C_17  and  C_37
   16  A    between atoms: S_28  and  C_33
                            x       y       z     vdW  Elec       q    Type
                         _______ _______ _______ _____ _____    ______ ____

>  <TORSDO>
F 16

$$$$
=
 OpenBabel11042410383D

 44 47  0  0  1  0  0  0  0  0999 V2000
  182.8740  178.7320  142.5430 O   0  0  0  0  0  0  0  0  0  0  0  0
  181.3920  176.8690  138.7700 C   0  0  1  0  0  3  0  0  0  0  0  0
  180.0790  177.9630  141.8860 C   0  0  0  0  0  0  0  0  0  0  0  0
  182.7750  175.0750  138.0110 C   0  0  1  0  0  3  0  0  0  0  0  0
  181.2170  178.2100  140.9670 C   0  0  0  0  0  0  0  0  0  0  0  0
  179.1310  177.2960  141.2890 N   0  0  0  0  0  0  0  0  0  0  0  0
  179.5560  177.1080  139.9420 C   0  0  2  0  0  3  0  0  0  0  0  0
  182.8360  176.4980  138.6260 C   0  0  0  0  0  2  0  0  0  0  0  0
  180.7960  173.6640  137.7080 O   0  0  0  0  0  0  0  0  0  0  0  0
  180.5600  175.8900  138.4320 N   0  0  0  0  0  0  0  0  0  0  0  0
  181.3070  174.7800  137.9910 C   0  0  0  0  0  0  0  0  0  0  0  0
  179.4560  175.9330  139.2090 C   0  0  0  0  0  2  0  0  0  0  0  0
  182.4520  178.4740  141.2590 N   0  0  0  0  0  0  0  0  0  0  0  0
  180.7730  177.6740  139.6980 C   0  0  2  0  0  3  0  0  0  0  0  0
  180.0010  179.6310  143.5770 O   0  0  0  0  0  0  0  0  0  0  0  0
  179.6800  177.4810  144.2770 O   0  0  0  0  0  1  0  0  0  0  0  0
  179.9380  178.4100  143.2800 C   0  0  0  0  0  0  0  0  0  0  0  0
  183.2720  175.1100  136.6940 O   0  0  0  0  0  0  0  0  0  0  0  0
  184.5780  173.6050  137.8080 O   0  0  0  0  0  1  0  0  0  0  0  0
  183.8960  173.1020  135.7120 O   0  0  0  0  0  1  0  0  0  0  0  0
  184.3010  174.1470  136.5520 C   0  0  0  0  0  0  0  0  0  0  0  0
  185.0480  176.4560  135.3920 C   0  0  0  0  0  1  0  0  0  0  0  0
  185.8390  174.8920  135.8850 S   0  0  0  0  0  0  0  0  0  0  0  0
  184.1440  178.2820  142.9840 C   0  0  1  0  0  3  0  0  0  0  0  0
  186.1280  179.3170  141.8710 C   0  0  0  0  0  1  0  0  0  0  0  0
  185.0840  178.2190  141.7900 C   0  0  0  0  0  2  0  0  0  0  0  0
  184.6850  179.2440  144.0350 C   0  0  0  0  0  2  0  0  0  0  0  0
  183.9890  179.0170  145.3620 C   0  0  0  0  0  2  0  0  0  0  0  0
  184.8860  178.2050  146.2740 C   0  0  0  0  0  2  0  0  0  0  0  0
  185.5460  179.0920  147.2150 N   0  0  0  0  0  2  0  0  0  0  0  0
  186.7320  178.3990  147.6900 C   0  0  0  0  0  2  0  0  0  0  0  0
  187.8720  178.6000  146.7110 C   0  0  0  0  0  2  0  0  0  0  0  0
  188.8060  177.4020  146.7550 C   0  0  0  0  0  2  0  0  0  0  0  0
  188.1120  177.2180  144.3600 C   0  0  0  0  0  2  0  0  0  0  0  0
  190.8090  176.9350  142.5980 C   0  0  1  0  0  3  0  0  0  0  0  0
  190.6610  178.1810  143.4930 C   0  0  0  0  0  2  0  0  0  0  0  0
  191.7020  177.2760  145.5240 N   0  0  0  0  0  1  0  0  0  0  0  0
  190.4960  177.8890  144.9930 C   0  0  2  0  0  3  0  0  0  0  0  0
  188.3120  176.4750  143.0280 C   0  0  0  0  0  2  0  0  0  0  0  0
  189.2680  177.0380  145.3540 C   0  0  1  0  0  3  0  0  0  0  0  0
  189.7140  175.8820  142.8410 C   0  0  0  0  0  2  0  0  0  0  0  0
  192.1340  177.5760  140.8570 O   0  0  0  0  0  1  0  0  0  0  0  0
  190.8420  177.3310  141.1860 N   0  0  0  0  0  0  0  0  0  0  0  0
  190.4610  176.2580  140.4480 O   0  0  0  0  0  1  0  0  0  0  0  0
  1 24  1  0  0  0  0
  2  8  1  1  0  0  0
  2 14  1  0  0  0  0
  3 17  1  0  0  0  0
  4 18  1  6  0  0  0
  4  8  1  0  0  0  0
  5 13  2  0  0  0  0
  5  3  1  0  0  0  0
  6  3  2  0  0  0  0
  7 12  1  1  0  0  0
  7  6  1  0  0  0  0
  9 11  2  0  0  0  0
 10  2  1  0  0  0  0
 10 12  1  0  0  0  0
 11  4  1  0  0  0  0
 11 10  1  0  0  0  0
 13  1  1  0  0  0  0
 14  7  1  0  0  0  0
 14  5  1  1  0  0  0
 17 15  2  0  0  0  0
 17 16  1  0  0  0  0
 20 21  1  0  0  0  0
 21 18  1  0  0  0  0
 21 19  1  0  0  0  0
 22 23  1  0  0  0  0
 23 21  1  0  0  0  0
 24 26  1  6  0  0  0
 24 27  1  0  0  0  0
 26 25  1  0  0  0  0
 27 28  1  0  0  0  0
 28 29  1  0  0  0  0
 29 30  1  0  0  0  0
 30 31  1  0  0  0  0
 32 33  1  0  0  0  0
 32 31  1  0  0  0  0
 34 40  1  0  0  0  0
 35 43  1  6  0  0  0
 35 41  1  0  0  0  0
 35 36  1  0  0  0  0
 36 38  1  0  0  0  0
 38 40  1  0  0  0  0
 38 37  1  6  0  0  0
 39 34  1  0  0  0  0
 40 33  1  1  0  0  0
 41 39  1  0  0  0  0
 42 43  1  0  0  0  0
 44 43  1  0  0  0  0
M  END
>  <MODEL>
3

>  <REMARK>
 VINA RESULT:      -7.7      2.192      3.368
  Name = 
  16 active torsions:
  status: ('A' for Active; 'I' for Inactive)
    1  A    between atoms: O_1  and  C_10
    2  A    between atoms: O_1  and  C_33
    3  A    between atoms: O_3  and  C_12
    4  A    between atoms: O_3  and  N_42
    5  A    between atoms: C_5  and  C_17
    6  A    between atoms: C_5  and  C_41
    7  A    between atoms: C_6  and  N_14
    8  A    between atoms: C_6  and  C_25
    9  A    between atoms: C_8  and  C_12
   10  A    between atoms: C_8  and  C_25
   11  A    between atoms: CA_9  and  C_38
   12  A    between atoms: C_12  and  C_26
   13  A    between atoms: N_14  and  C_37
   14  A    between atoms: C_15  and  N_39
   15  A    between atoms: C_17  and  C_37
   16  A    between atoms: S_28  and  C_33
                            x       y       z     vdW  Elec       q    Type
                         _______ _______ _______ _____ _____    ______ ____

>  <TORSDO>
F 16

$$$$
=
 OpenBabel11042410383D

 44 47  0  0  1  0  0  0  0  0999 V2000
  186.4490  178.7240  139.6910 O   0  0  0  0  0  0  0  0  0  0  0  0
  188.7610  177.1700  136.2070 C   0  0  1  0  0  3  0  0  0  0  0  0
  185.3740  177.4010  137.2560 C   0  0  0  0  0  0  0  0  0  0  0  0
  190.6890  175.9160  136.8520 C   0  0  1  0  0  3  0  0  0  0  0  0
  186.6870  178.0630  137.4540 C   0  0  0  0  0  0  0  0  0  0  0  0
  185.3940  176.6240  136.2100 N   0  0  0  0  0  0  0  0  0  0  0  0
  186.6880  176.7600  135.6300 C   0  0  2  0  0  3  0  0  0  0  0  0
  189.8820  177.1940  137.1990 C   0  0  0  0  0  2  0  0  0  0  0  0
  190.0550  174.1260  135.3060 O   0  0  0  0  0  0  0  0  0  0  0  0
  188.7560  176.0820  135.4460 N   0  0  0  0  0  0  0  0  0  0  0  0
  189.8590  175.2740  135.7840 C   0  0  0  0  0  0  0  0  0  0  0  0
  187.4850  175.7280  135.1540 C   0  0  0  0  0  2  0  0  0  0  0  0
  187.1820  178.5750  138.5370 N   0  0  0  0  0  0  0  0  0  0  0  0
  187.4730  177.6410  136.3140 C   0  0  2  0  0  3  0  0  0  0  0  0
  183.5910  176.5890  138.6010 O   0  0  0  0  0  1  0  0  0  0  0  0
  183.6380  178.8470  138.2600 O   0  0  0  0  0  0  0  0  0  0  0  0
  184.1520  177.5750  138.0570 C   0  0  0  0  0  0  0  0  0  0  0  0
  191.9440  176.2800  136.3270 O   0  0  0  0  0  0  0  0  0  0  0  0
  193.4210  176.8020  137.9870 O   0  0  0  0  0  1  0  0  0  0  0  0
  192.4860  174.7440  137.9800 O   0  0  0  0  0  1  0  0  0  0  0  0
  192.9700  175.7720  137.1610 C   0  0  0  0  0  0  0  0  0  0  0  0
  193.8480  173.4060  136.2300 C   0  0  0  0  0  1  0  0  0  0  0  0
  194.3900  175.1440  136.1830 S   0  0  0  0  0  0  0  0  0  0  0  0
  187.0690  178.5780  140.9580 C   0  0  1  0  0  3  0  0  0  0  0  0
  185.1930  179.3410  142.4210 C   0  0  0  0  0  1  0  0  0  0  0  0
  186.0190  178.1510  141.9720 C   0  0  0  0  0  2  0  0  0  0  0  0
  188.1720  177.5320  140.8630 C   0  0  0  0  0  2  0  0  0  0  0  0
  189.4610  178.0730  141.4500 C   0  0  0  0  0  2  0  0  0  0  0  0
  190.5720  177.0610  141.2550 C   0  0  0  0  0  2  0  0  0  0  0  0
  191.3770  176.9910  142.4620 N   0  0  0  0  0  2  0  0  0  0  0  0
  191.3030  178.2960  143.0960 C   0  0  0  0  0  2  0  0  0  0  0  0
  191.4240  178.1460  144.6000 C   0  0  0  0  0  2  0  0  0  0  0  0
  190.8350  176.8140  145.0330 C   0  0  0  0  0  2  0  0  0  0  0  0
  189.7480  178.0390  146.9220 C   0  0  0  0  0  2  0  0  0  0  0  0
  186.5490  177.7370  146.5470 C   0  0  1  0  0  3  0  0  0  0  0  0
  187.3530  178.3730  145.3960 C   0  0  0  0  0  2  0  0  0  0  0  0
  187.8530  176.3200  144.1470 N   0  0  0  0  0  1  0  0  0  0  0  0
  188.4470  177.4770  144.7940 C   0  0  2  0  0  3  0  0  0  0  0  0
  188.6560  178.0010  148.0050 C   0  0  0  0  0  2  0  0  0  0  0  0
  189.5330  177.0290  145.7850 C   0  0  1  0  0  3  0  0  0  0  0  0
  187.4420  177.1360  147.6470 C   0  0  0  0  0  2  0  0  0  0  0  0
  185.7500  179.8670  146.4040 O   0  0  0  0  0  1  0  0  0  0  0  0
  185.6200  178.7200  147.1150 N   0  0  0  0  0  0  0  0  0  0  0  0
  184.3590  178.2750  146.8860 O   0  0  0  0  0  1  0  0  0  0  0  0
  1 24  1  0  0  0  0
  2 14  1  0  0  0  0
  2  8  1  1  0  0  0
  3  5  1  0  0  0  0
  3 17  1  0  0  0  0
  4 18  1  6  0  0  0
  4  8  1  0  0  0  0
  5 13  2  0  0  0  0
  6  3  2  0  0  0  0
  7 12  1  1  0  0  0
  7  6  1  0  0  0  0
  7 14  1  0  0  0  0
  9 11  2  0  0  0  0
 10 11  1  0  0  0  0
 10  2  1  0  0  0  0
 11  4  1  0  0  0  0
 12 10  1  0  0  0  0
 13  1  1  0  0  0  0
 14  5  1  1  0  0  0
 17 16  2  0  0  0  0
 17 15  1  0  0  0  0
 18 21  1  0  0  0  0
 21 20  1  0  0  0  0
 21 19  1  0  0  0  0
 23 22  1  0  0  0  0
 23 21  1  0  0  0  0
 24 27  1  6  0  0  0
 24 26  1  0  0  0  0
 26 25  1  0  0  0  0
 27 28  1  0  0  0  0
 29 28  1  0  0  0  0
 29 30  1  0  0  0  0
 30 31  1  0  0  0  0
 31 32  1  0  0  0  0
 32 33  1  0  0  0  0
 34 39  1  0  0  0  0
 35 43  1  1  0  0  0
 35 41  1  0  0  0  0
 36 35  1  0  0  0  0
 38 37  1  1  0  0  0
 38 36  1  0  0  0  0
 38 40  1  0  0  0  0
 40 33  1  6  0  0  0
 40 34  1  0  0  0  0
 41 39  1  0  0  0  0
 42 43  1  0  0  0  0
 44 43  1  0  0  0  0
M  END
>  <MODEL>
4

>  <REMARK>
 VINA RESULT:      -7.5      3.036      5.472
  Name = 
  16 active torsions:
  status: ('A' for Active; 'I' for Inactive)
    1  A    between atoms: O_1  and  C_10
    2  A    between atoms: O_1  and  C_33
    3  A    between atoms: O_3  and  C_12
    4  A    between atoms: O_3  and  N_42
    5  A    between atoms: C_5  and  C_17
    6  A    between atoms: C_5  and  C_41
    7  A    between atoms: C_6  and  N_14
    8  A    between atoms: C_6  and  C_25
    9  A    between atoms: C_8  and  C_12
   10  A    between atoms: C_8  and  C_25
   11  A    between atoms: CA_9  and  C_38
   12  A    between atoms: C_12  and  C_26
   13  A    between atoms: N_14  and  C_37
   14  A    between atoms: C_15  and  N_39
   15  A    between atoms: C_17  and  C_37
   16  A    between atoms: S_28  and  C_33
                            x       y       z     vdW  Elec       q    Type
                         _______ _______ _______ _____ _____    ______ ____

>  <TORSDO>
F 16

$$$$
=
 OpenBabel11042410383D

 44 47  0  0  1  0  0  0  0  0999 V2000
  186.7770  178.0120  145.2370 O   0  0  0  0  0  0  0  0  0  0  0  0
  189.6900  176.4470  142.2430 C   0  0  1  0  0  3  0  0  0  0  0  0
  189.5470  177.0580  145.7410 C   0  0  0  0  0  0  0  0  0  0  0  0
  189.7910  177.7740  140.2590 C   0  0  1  0  0  3  0  0  0  0  0  0
  188.6600  176.7760  144.5850 C   0  0  0  0  0  0  0  0  0  0  0  0
  190.7900  176.7910  145.4550 N   0  0  0  0  0  0  0  0  0  0  0  0
  190.7960  176.2740  144.1270 C   0  0  2  0  0  3  0  0  0  0  0  0
  188.7970  177.1820  141.2920 C   0  0  0  0  0  2  0  0  0  0  0  0
  192.2370  177.8000  140.3880 O   0  0  0  0  0  0  0  0  0  0  0  0
  190.9830  176.5990  141.9750 N   0  0  0  0  0  0  0  0  0  0  0  0
  191.1260  177.3950  140.8220 C   0  0  0  0  0  0  0  0  0  0  0  0
  191.6950  176.6070  143.1220 C   0  0  0  0  0  2  0  0  0  0  0  0
  187.4810  177.2510  144.3330 N   0  0  0  0  0  0  0  0  0  0  0  0
  189.5440  176.2080  143.5900 C   0  0  2  0  0  3  0  0  0  0  0  0
  189.5430  178.6540  147.5020 O   0  0  0  0  0  0  0  0  0  0  0  0
  188.3050  176.7680  147.8590 O   0  0  0  0  0  1  0  0  0  0  0  0
  189.1550  177.5350  147.0760 C   0  0  0  0  0  0  0  0  0  0  0  0
  189.6030  177.1490  139.0120 O   0  0  0  0  0  0  0  0  0  0  0  0
  187.4990  177.7100  138.3310 O   0  0  0  0  0  1  0  0  0  0  0  0
  189.0510  179.3440  138.5040 O   0  0  0  0  0  1  0  0  0  0  0  0
  188.8540  178.0000  138.1640 C   0  0  0  0  0  0  0  0  0  0  0  0
  187.7260  176.9270  135.9700 C   0  0  0  0  0  1  0  0  0  0  0  0
  189.2910  177.7550  136.3990 S   0  0  0  0  0  0  0  0  0  0  0  0
  185.3620  177.9370  145.2900 C   0  0  1  0  0  3  0  0  0  0  0  0
  186.0160  179.3610  147.2370 C   0  0  0  0  0  1  0  0  0  0  0  0
  184.8840  178.6000  146.5730 C   0  0  0  0  0  2  0  0  0  0  0  0
  184.7710  178.6420  144.0760 C   0  0  0  0  0  2  0  0  0  0  0  0
  183.4920  179.3590  144.4570 C   0  0  0  0  0  2  0  0  0  0  0  0
  182.2980  178.5630  143.9700 C   0  0  0  0  0  2  0  0  0  0  0  0
  181.3100  179.4690  143.4130 N   0  0  0  0  0  2  0  0  0  0  0  0
  180.1260  178.6760  143.1220 C   0  0  0  0  0  2  0  0  0  0  0  0
  180.2390  178.0710  141.7360 C   0  0  0  0  0  2  0  0  0  0  0  0
  180.6980  179.1300  140.7480 C   0  0  0  0  0  2  0  0  0  0  0  0
  183.0870  178.4590  140.4370 C   0  0  0  0  0  2  0  0  0  0  0  0
  183.2320  176.6420  137.7650 C   0  0  1  0  0  3  0  0  0  0  0  0
  182.2990  176.1780  138.9020 C   0  0  0  0  0  2  0  0  0  0  0  0
  180.2680  177.3540  138.1830 N   0  0  0  0  0  1  0  0  0  0  0  0
  181.1970  177.1770  139.2860 C   0  0  2  0  0  3  0  0  0  0  0  0
  184.2500  178.3110  139.4410 C   0  0  0  0  0  2  0  0  0  0  0  0
  181.7050  178.5440  139.7720 C   0  0  1  0  0  3  0  0  0  0  0  0
  183.8130  178.0480  137.9960 C   0  0  0  0  0  2  0  0  0  0  0  0
  183.8600  174.4640  138.0120 O   0  0  0  0  0  1  0  0  0  0  0  0
  184.3070  175.6640  137.5670 N   0  0  0  0  0  0  0  0  0  0  0  0
  184.4960  175.5240  136.2300 O   0  0  0  0  0  1  0  0  0  0  0  0
  1 24  1  0  0  0  0
  2  8  1  1  0  0  0
  2 14  1  0  0  0  0
  3 17  1  0  0  0  0
  4 18  1  6  0  0  0
  4 11  1  0  0  0  0
  4  8  1  0  0  0  0
  5  3  1  0  0  0  0
  6  3  2  0  0  0  0
  7 12  1  6  0  0  0
  7  6  1  0  0  0  0
  9 11  2  0  0  0  0
 10  2  1  0  0  0  0
 10 12  1  0  0  0  0
 11 10  1  0  0  0  0
 13  5  2  0  0  0  0
 13  1  1  0  0  0  0
 14  7  1  0  0  0  0
 14  5  1  1  0  0  0
 17 15  2  0  0  0  0
 17 16  1  0  0  0  0
 21 19  1  0  0  0  0
 21 20  1  0  0  0  0
 21 18  1  0  0  0  0
 22 23  1  0  0  0  0
 23 21  1  0  0  0  0
 24 27  1  6  0  0  0
 24 26  1  0  0  0  0
 26 25  1  0  0  0  0
 27 28  1  0  0  0  0
 29 28  1  0  0  0  0
 30 29  1  0  0  0  0
 31 30  1  0  0  0  0
 32 31  1  0  0  0  0
 33 32  1  0  0  0  0
 35 43  1  1  0  0  0
 35 41  1  0  0  0  0
 35 36  1  0  0  0  0
 36 38  1  0  0  0  0
 38 37  1  6  0  0  0
 38 40  1  0  0  0  0
 39 34  1  0  0  0  0
 40 34  1  0  0  0  0
 40 33  1  1  0  0  0
 41 39  1  0  0  0  0
 43 42  1  0  0  0  0
 44 43  1  0  0  0  0
M  END
>  <MODEL>
5

>  <REMARK>
 VINA RESULT:      -7.3      2.323      7.878
  Name = 
  16 active torsions:
  status: ('A' for Active; 'I' for Inactive)
    1  A    between atoms: O_1  and  C_10
    2  A    between atoms: O_1  and  C_33
    3  A    between atoms: O_3  and  C_12
    4  A    between atoms: O_3  and  N_42
    5  A    between atoms: C_5  and  C_17
    6  A    between atoms: C_5  and  C_41
    7  A    between atoms: C_6  and  N_14
    8  A    between atoms: C_6  and  C_25
    9  A    between atoms: C_8  and  C_12
   10  A    between atoms: C_8  and  C_25
   11  A    between atoms: CA_9  and  C_38
   12  A    between atoms: C_12  and  C_26
   13  A    between atoms: N_14  and  C_37
   14  A    between atoms: C_15  and  N_39
   15  A    between atoms: C_17  and  C_37
   16  A    between atoms: S_28  and  C_33
                            x       y       z     vdW  Elec       q    Type
                         _______ _______ _______ _____ _____    ______ ____

>  <TORSDO>
F 16

$$$$
=
 OpenBabel11042410383D

 44 47  0  0  1  0  0  0  0  0999 V2000
  186.6490  178.0760  144.9490 O   0  0  0  0  0  0  0  0  0  0  0  0
  189.6490  176.5120  142.0410 C   0  0  1  0  0  3  0  0  0  0  0  0
  189.4020  177.1200  145.5330 C   0  0  0  0  0  0  0  0  0  0  0  0
  189.8090  177.8410  140.0620 C   0  0  1  0  0  3  0  0  0  0  0  0
  188.5500  176.8400  144.3520 C   0  0  0  0  0  0  0  0  0  0  0  0
  190.6530  176.8520  145.2840 N   0  0  0  0  0  0  0  0  0  0  0  0
  190.6980  176.3370  143.9560 C   0  0  2  0  0  3  0  0  0  0  0  0
  188.7850  177.2490  141.0640 C   0  0  0  0  0  2  0  0  0  0  0  0
  192.2500  177.8650  140.2630 O   0  0  0  0  0  0  0  0  0  0  0  0
  190.9490  176.6640  141.8110 N   0  0  0  0  0  0  0  0  0  0  0  0
  191.1270  177.4600  140.6630 C   0  0  0  0  0  0  0  0  0  0  0  0
  191.6270  176.6700  142.9790 C   0  0  0  0  0  2  0  0  0  0  0  0
  187.3790  177.3150  144.0650 N   0  0  0  0  0  0  0  0  0  0  0  0
  189.4630  176.2710  143.3820 C   0  0  2  0  0  3  0  0  0  0  0  0
  189.1820  178.7830  147.2170 O   0  0  0  0  0  0  0  0  0  0  0  0
  188.2780  176.7420  147.7020 O   0  0  0  0  0  1  0  0  0  0  0  0
  188.9720  177.5960  146.8570 C   0  0  0  0  0  0  0  0  0  0  0  0
  189.6580  177.2170  138.8090 O   0  0  0  0  0  0  0  0  0  0  0  0
  187.5190  177.7310  138.2050 O   0  0  0  0  0  1  0  0  0  0  0  0
  189.0560  179.3880  138.2550 O   0  0  0  0  0  1  0  0  0  0  0  0
  188.8610  178.0310  137.9680 C   0  0  0  0  0  0  0  0  0  0  0  0
  187.5130  177.2700  135.7690 C   0  0  0  0  0  1  0  0  0  0  0  0
  189.2220  177.7330  136.1950 S   0  0  0  0  0  0  0  0  0  0  0  0
  185.2570  178.2590  144.7570 C   0  0  1  0  0  3  0  0  0  0  0  0
  185.6770  179.1100  147.0690 C   0  0  0  0  0  1  0  0  0  0  0  0
  184.6230  178.6310  146.0880 C   0  0  0  0  0  2  0  0  0  0  0  0
  185.0280  179.3640  143.7330 C   0  0  0  0  0  2  0  0  0  0  0  0
  184.3470  178.8050  142.5000 C   0  0  0  0  0  2  0  0  0  0  0  0
  185.3590  178.6630  141.3810 C   0  0  0  0  0  2  0  0  0  0  0  0
  184.9320  179.4560  140.2420 N   0  0  0  0  0  2  0  0  0  0  0  0
  183.6910  178.8700  139.7610 C   0  0  0  0  0  2  0  0  0  0  0  0
  183.9900  177.8320  138.6970 C   0  0  0  0  0  2  0  0  0  0  0  0
  182.8140  177.7210  137.7420 C   0  0  0  0  0  2  0  0  0  0  0  0
  183.4450  175.3420  138.1830 C   0  0  0  0  0  2  0  0  0  0  0  0
  181.4380  173.4810  136.4590 C   0  0  1  0  0  3  0  0  0  0  0  0
  180.8180  174.4590  137.4770 C   0  0  0  0  0  2  0  0  0  0  0  0
  180.5610  176.3930  135.9860 N   0  0  0  0  0  1  0  0  0  0  0  0
  181.1460  175.9410  137.2370 C   0  0  2  0  0  3  0  0  0  0  0  0
  183.7140  173.9590  137.5650 C   0  0  0  0  0  2  0  0  0  0  0  0
  182.6440  176.2850  137.2730 C   0  0  1  0  0  3  0  0  0  0  0  0
  182.9500  173.6900  136.2640 C   0  0  0  0  0  2  0  0  0  0  0  0
  180.4340  172.1380  138.0040 O   0  0  0  0  0  1  0  0  0  0  0  0
  181.1540  172.0980  136.8560 N   0  0  0  0  0  0  0  0  0  0  0  0
  180.3360  171.5590  135.9160 O   0  0  0  0  0  1  0  0  0  0  0  0
  2  8  1  1  0  0  0
  2 14  1  0  0  0  0
  3 17  1  0  0  0  0
  4 18  1  6  0  0  0
  4 11  1  0  0  0  0
  4  8  1  0  0  0  0
  5  3  1  0  0  0  0
  6  3  2  0  0  0  0
  7 12  1  6  0  0  0
  7  6  1  0  0  0  0
  9 11  2  0  0  0  0
 10  2  1  0  0  0  0
 10 12  1  0  0  0  0
 11 10  1  0  0  0  0
 13  5  2  0  0  0  0
 13  1  1  0  0  0  0
 14  7  1  0  0  0  0
 14  5  1  1  0  0  0
 17 15  2  0  0  0  0
 17 16  1  0  0  0  0
 21 19  1  0  0  0  0
 21 20  1  0  0  0  0
 21 18  1  0  0  0  0
 22 23  1  0  0  0  0
 23 21  1  0  0  0  0
 24 27  1  6  0  0  0
 24  1  1  0  0  0  0
 24 26  1  0  0  0  0
 26 25  1  0  0  0  0
 28 27  1  0  0  0  0
 29 28  1  0  0  0  0
 30 29  1  0  0  0  0
 31 30  1  0  0  0  0
 32 31  1  0  0  0  0
 33 32  1  0  0  0  0
 35 43  1  1  0  0  0
 35 36  1  0  0  0  0
 38 37  1  6  0  0  0
 38 40  1  0  0  0  0
 38 36  1  0  0  0  0
 39 34  1  0  0  0  0
 40 33  1  1  0  0  0
 40 34  1  0  0  0  0
 41 35  1  0  0  0  0
 41 39  1  0  0  0  0
 43 42  1  0  0  0  0
 44 43  1  0  0  0  0
M  END
>  <MODEL>
6

>  <REMARK>
 VINA RESULT:      -7.1      2.785      8.583
  Name = 
  16 active torsions:
  status: ('A' for Active; 'I' for Inactive)
    1  A    between atoms: O_1  and  C_10
    2  A    between atoms: O_1  and  C_33
    3  A    between atoms: O_3  and  C_12
    4  A    between atoms: O_3  and  N_42
    5  A    between atoms: C_5  and  C_17
    6  A    between atoms: C_5  and  C_41
    7  A    between atoms: C_6  and  N_14
    8  A    between atoms: C_6  and  C_25
    9  A    between atoms: C_8  and  C_12
   10  A    between atoms: C_8  and  C_25
   11  A    between atoms: CA_9  and  C_38
   12  A    between atoms: C_12  and  C_26
   13  A    between atoms: N_14  and  C_37
   14  A    between atoms: C_15  and  N_39
   15  A    between atoms: C_17  and  C_37
   16  A    between atoms: S_28  and  C_33
                            x       y       z     vdW  Elec       q    Type
                         _______ _______ _______ _____ _____    ______ ____

>  <TORSDO>
F 16

$$$$
=
 OpenBabel11042410383D

 44 47  0  0  1  0  0  0  0  0999 V2000
  185.2290  179.2620  139.5100 O   0  0  0  0  0  0  0  0  0  0  0  0
  187.1000  176.5400  136.5110 C   0  0  1  0  0  3  0  0  0  0  0  0
  183.8970  177.1200  137.9360 C   0  0  0  0  0  0  0  0  0  0  0  0
  189.1820  175.6310  137.2490 C   0  0  1  0  0  3  0  0  0  0  0  0
  185.1770  177.8180  137.6630 C   0  0  0  0  0  0  0  0  0  0  0  0
  183.8140  176.0100  137.2600 N   0  0  0  0  0  0  0  0  0  0  0  0
  184.9960  175.9300  136.4680 C   0  0  2  0  0  3  0  0  0  0  0  0
  188.3510  176.9400  137.2300 C   0  0  0  0  0  2  0  0  0  0  0  0
  188.4480  173.3890  136.5910 O   0  0  0  0  0  0  0  0  0  0  0  0
  187.0550  175.2470  136.2130 N   0  0  0  0  0  0  0  0  0  0  0  0
  188.2480  174.6310  136.6400 C   0  0  0  0  0  0  0  0  0  0  0  0
  185.7820  174.8010  136.2810 C   0  0  0  0  0  2  0  0  0  0  0  0
  185.7920  178.7000  138.3870 N   0  0  0  0  0  0  0  0  0  0  0  0
  185.8130  177.0080  136.6450 C   0  0  2  0  0  3  0  0  0  0  0  0
  182.5140  176.9500  139.8620 O   0  0  0  0  0  1  0  0  0  0  0  0
  182.0970  178.7240  138.4840 O   0  0  0  0  0  0  0  0  0  0  0  0
  182.7980  177.5710  138.8050 C   0  0  0  0  0  0  0  0  0  0  0  0
  190.3180  175.7820  136.4320 O   0  0  0  0  0  0  0  0  0  0  0  0
  192.4520  176.3480  137.0110 O   0  0  0  0  0  1  0  0  0  0  0  0
  191.1900  175.2150  138.5060 O   0  0  0  0  0  1  0  0  0  0  0  0
  191.4700  175.3640  137.1420 C   0  0  0  0  0  0  0  0  0  0  0  0
  193.4180  174.5740  135.4640 C   0  0  0  0  0  1  0  0  0  0  0  0
  192.1350  173.7850  136.4870 S   0  0  0  0  0  0  0  0  0  0  0  0
  185.5370  178.7540  140.7970 C   0  0  1  0  0  3  0  0  0  0  0  0
  188.0060  178.4880  140.5120 C   0  0  0  0  0  1  0  0  0  0  0  0
  186.9070  179.2670  141.2110 C   0  0  0  0  0  2  0  0  0  0  0  0
  184.4760  179.2130  141.7890 C   0  0  0  0  0  2  0  0  0  0  0  0
  184.2630  178.1580  142.8560 C   0  0  0  0  0  2  0  0  0  0  0  0
  183.2650  178.6630  143.8780 C   0  0  0  0  0  2  0  0  0  0  0  0
  183.9480  179.5040  144.8450 N   0  0  0  0  0  2  0  0  0  0  0  0
  184.4900  178.6210  145.8640 C   0  0  0  0  0  2  0  0  0  0  0  0
  185.8790  179.0840  146.2610 C   0  0  0  0  0  2  0  0  0  0  0  0
  186.6850  177.9050  146.7810 C   0  0  0  0  0  2  0  0  0  0  0  0
  186.9830  177.5750  144.3200 C   0  0  0  0  0  2  0  0  0  0  0  0
  190.1110  176.9260  143.8120 C   0  0  1  0  0  3  0  0  0  0  0  0
  189.7550  178.2520  144.5130 C   0  0  0  0  0  2  0  0  0  0  0  0
  189.7990  177.4410  146.8300 N   0  0  0  0  0  1  0  0  0  0  0  0
  188.9780  178.1020  145.8310 C   0  0  2  0  0  3  0  0  0  0  0  0
  187.6140  176.7080  143.2180 C   0  0  0  0  0  2  0  0  0  0  0  0
  187.6230  177.3870  145.7040 C   0  0  1  0  0  3  0  0  0  0  0  0
  188.9020  175.9900  143.6390 C   0  0  0  0  0  2  0  0  0  0  0  0
  192.0490  177.4820  142.7470 O   0  0  0  0  0  1  0  0  0  0  0  0
  190.7430  177.1970  142.5160 N   0  0  0  0  0  0  0  0  0  0  0  0
  190.7290  176.0440  141.8010 O   0  0  0  0  0  1  0  0  0  0  0  0
  1 24  1  0  0  0  0
  2 14  1  0  0  0  0
  2  8  1  1  0  0  0
  3 17  1  0  0  0  0
  4 18  1  6  0  0  0
  5  3  1  0  0  0  0
  5 13  2  0  0  0  0
  6  3  2  0  0  0  0
  7 12  1  1  0  0  0
  7 14  1  0  0  0  0
  7  6  1  0  0  0  0
  8  4  1  0  0  0  0
  9 11  2  0  0  0  0
 10 12  1  0  0  0  0
 10  2  1  0  0  0  0
 10 11  1  0  0  0  0
 11  4  1  0  0  0  0
 13  1  1  0  0  0  0
 14  5  1  1  0  0  0
 16 17  2  0  0  0  0
 17 15  1  0  0  0  0
 18 21  1  0  0  0  0
 19 21  1  0  0  0  0
 21 20  1  0  0  0  0
 22 23  1  0  0  0  0
 23 21  1  0  0  0  0
 24 26  1  1  0  0  0
 24 27  1  0  0  0  0
 25 26  1  0  0  0  0
 27 28  1  0  0  0  0
 28 29  1  0  0  0  0
 29 30  1  0  0  0  0
 30 31  1  0  0  0  0
 31 32  1  0  0  0  0
 32 33  1  0  0  0  0
 34 40  1  0  0  0  0
 35 43  1  6  0  0  0
 35 36  1  0  0  0  0
 36 38  1  0  0  0  0
 38 37  1  1  0  0  0
 39 41  1  0  0  0  0
 39 34  1  0  0  0  0
 40 38  1  0  0  0  0
 40 33  1  1  0  0  0
 41 35  1  0  0  0  0
 43 42  1  0  0  0  0
 44 43  1  0  0  0  0
M  END
>  <MODEL>
7

>  <REMARK>
 VINA RESULT:      -7.1      2.414      3.533
  Name = 
  16 active torsions:
  status: ('A' for Active; 'I' for Inactive)
    1  A    between atoms: O_1  and  C_10
    2  A    between atoms: O_1  and  C_33
    3  A    between atoms: O_3  and  C_12
    4  A    between atoms: O_3  and  N_42
    5  A    between atoms: C_5  and  C_17
    6  A    between atoms: C_5  and  C_41
    7  A    between atoms: C_6  and  N_14
    8  A    between atoms: C_6  and  C_25
    9  A    between atoms: C_8  and  C_12
   10  A    between atoms: C_8  and  C_25
   11  A    between atoms: CA_9  and  C_38
   12  A    between atoms: C_12  and  C_26
   13  A    between atoms: N_14  and  C_37
   14  A    between atoms: C_15  and  N_39
   15  A    between atoms: C_17  and  C_37
   16  A    between atoms: S_28  and  C_33
                            x       y       z     vdW  Elec       q    Type
                         _______ _______ _______ _____ _____    ______ ____

>  <TORSDO>
F 16

$$$$
=
 OpenBabel11042410383D

 44 47  0  0  1  0  0  0  0  0999 V2000
  181.3810  178.0200  140.6310 O   0  0  0  0  0  0  0  0  0  0  0  0
  184.2270  177.2010  137.2950 C   0  0  1  0  0  3  0  0  0  0  0  0
  181.2890  175.7700  138.6900 C   0  0  0  0  0  0  0  0  0  0  0  0
  186.5150  177.4300  137.9440 C   0  0  1  0  0  3  0  0  0  0  0  0
  181.9910  177.0720  138.5740 C   0  0  0  0  0  0  0  0  0  0  0  0
  181.7650  174.9040  137.8410 N   0  0  0  0  0  0  0  0  0  0  0  0
  182.7630  175.5850  137.0860 C   0  0  2  0  0  3  0  0  0  0  0  0
  185.1190  178.0860  138.1090 C   0  0  0  0  0  2  0  0  0  0  0  0
  187.0360  175.2720  136.9100 O   0  0  0  0  0  0  0  0  0  0  0  0
  184.8540  176.1430  136.7910 N   0  0  0  0  0  0  0  0  0  0  0  0
  186.2140  176.1960  137.1520 C   0  0  0  0  0  0  0  0  0  0  0  0
  184.0130  175.0870  136.7450 C   0  0  0  0  0  2  0  0  0  0  0  0
  182.0890  178.0220  139.4510 N   0  0  0  0  0  0  0  0  0  0  0  0
  182.8980  176.8890  137.4610 C   0  0  2  0  0  3  0  0  0  0  0  0
  179.0330  175.1600  139.1200 O   0  0  0  0  0  0  0  0  0  0  0  0
  180.3820  175.3560  140.9520 O   0  0  0  0  0  1  0  0  0  0  0  0
  180.1710  175.4310  139.5830 C   0  0  0  0  0  0  0  0  0  0  0  0
  187.3510  178.2830  137.2000 O   0  0  0  0  0  0  0  0  0  0  0  0
  189.0480  179.7760  137.5130 O   0  0  0  0  0  1  0  0  0  0  0  0
  188.2500  178.6560  139.3060 O   0  0  0  0  0  1  0  0  0  0  0  0
  188.5290  178.5530  137.9380 C   0  0  0  0  0  0  0  0  0  0  0  0
  189.8320  176.7270  139.4220 C   0  0  0  0  0  1  0  0  0  0  0  0
  189.8020  177.2570  137.6800 S   0  0  0  0  0  0  0  0  0  0  0  0
  181.2710  179.2040  141.4020 C   0  0  1  0  0  3  0  0  0  0  0  0
  179.3010  180.4250  142.3380 C   0  0  0  0  0  1  0  0  0  0  0  0
  179.9470  179.8790  141.0780 C   0  0  0  0  0  2  0  0  0  0  0  0
  181.3380  178.8520  142.8830 C   0  0  0  0  0  2  0  0  0  0  0  0
  182.7320  178.3830  143.2470 C   0  0  0  0  0  2  0  0  0  0  0  0
  183.7530  179.3890  142.7540 C   0  0  0  0  0  2  0  0  0  0  0  0
  184.6400  179.7510  143.8450 N   0  0  0  0  0  2  0  0  0  0  0  0
  184.2900  178.9040  144.9730 C   0  0  0  0  0  2  0  0  0  0  0  0
  185.4760  178.7750  145.9080 C   0  0  0  0  0  2  0  0  0  0  0  0
  186.1700  177.4430  145.6800 C   0  0  0  0  0  2  0  0  0  0  0  0
  188.5880  177.2950  146.2980 C   0  0  0  0  0  2  0  0  0  0  0  0
  190.2940  177.5220  143.5590 C   0  0  1  0  0  3  0  0  0  0  0  0
  189.2570  176.3860  143.6710 C   0  0  0  0  0  2  0  0  0  0  0  0
  187.3240  177.5890  142.7540 N   0  0  0  0  0  1  0  0  0  0  0  0
  187.8100  176.8470  143.9040 C   0  0  2  0  0  3  0  0  0  0  0  0
  189.9950  177.8830  146.0910 C   0  0  0  0  0  2  0  0  0  0  0  0
  187.5910  177.6620  145.1890 C   0  0  1  0  0  3  0  0  0  0  0  0
  190.2130  178.5300  144.7180 C   0  0  0  0  0  2  0  0  0  0  0  0
  191.5490  175.6200  143.6340 O   0  0  0  0  0  1  0  0  0  0  0  0
  191.6450  176.9610  143.4550 N   0  0  0  0  0  0  0  0  0  0  0  0
  192.0690  177.1410  142.1780 O   0  0  0  0  0  1  0  0  0  0  0  0
  1 24  1  0  0  0  0
  2 14  1  0  0  0  0
  2  8  1  1  0  0  0
  3 17  1  0  0  0  0
  4 18  1  6  0  0  0
  4  8  1  0  0  0  0
  5  3  1  0  0  0  0
  5 13  2  0  0  0  0
  6  3  2  0  0  0  0
  7 12  1  1  0  0  0
  7 14  1  0  0  0  0
  7  6  1  0  0  0  0
  9 11  2  0  0  0  0
 10 11  1  0  0  0  0
 10  2  1  0  0  0  0
 11  4  1  0  0  0  0
 12 10  1  0  0  0  0
 13  1  1  0  0  0  0
 14  5  1  1  0  0  0
 15 17  2  0  0  0  0
 17 16  1  0  0  0  0
 18 21  1  0  0  0  0
 19 21  1  0  0  0  0
 21 20  1  0  0  0  0
 23 21  1  0  0  0  0
 23 22  1  0  0  0  0
 24 26  1  1  0  0  0
 24 27  1  0  0  0  0
 26 25  1  0  0  0  0
 27 28  1  0  0  0  0
 29 28  1  0  0  0  0
 29 30  1  0  0  0  0
 30 31  1  0  0  0  0
 31 32  1  0  0  0  0
 33 32  1  0  0  0  0
 35 43  1  1  0  0  0
 35 36  1  0  0  0  0
 35 41  1  0  0  0  0
 36 38  1  0  0  0  0
 38 37  1  6  0  0  0
 38 40  1  0  0  0  0
 39 34  1  0  0  0  0
 40 33  1  1  0  0  0
 40 34  1  0  0  0  0
 41 39  1  0  0  0  0
 43 42  1  0  0  0  0
 44 43  1  0  0  0  0
M  END
>  <MODEL>
8

>  <REMARK>
 VINA RESULT:      -7.1      1.563      2.293
  Name = 
  16 active torsions:
  status: ('A' for Active; 'I' for Inactive)
    1  A    between atoms: O_1  and  C_10
    2  A    between atoms: O_1  and  C_33
    3  A    between atoms: O_3  and  C_12
    4  A    between atoms: O_3  and  N_42
    5  A    between atoms: C_5  and  C_17
    6  A    between atoms: C_5  and  C_41
    7  A    between atoms: C_6  and  N_14
    8  A    between atoms: C_6  and  C_25
    9  A    between atoms: C_8  and  C_12
   10  A    between atoms: C_8  and  C_25
   11  A    between atoms: CA_9  and  C_38
   12  A    between atoms: C_12  and  C_26
   13  A    between atoms: N_14  and  C_37
   14  A    between atoms: C_15  and  N_39
   15  A    between atoms: C_17  and  C_37
   16  A    between atoms: S_28  and  C_33
                            x       y       z     vdW  Elec       q    Type
                         _______ _______ _______ _____ _____    ______ ____

>  <TORSDO>
F 16

$$$$
=
 OpenBabel11042410383D

 44 47  0  0  1  0  0  0  0  0999 V2000
  189.3630  177.2450  139.3720 O   0  0  0  0  0  0  0  0  0  0  0  0
  192.5870  176.0080  136.5480 C   0  0  1  0  0  3  0  0  0  0  0  0
  189.0440  176.2730  136.5810 C   0  0  0  0  0  0  0  0  0  0  0  0
  194.2250  174.5960  137.5640 C   0  0  1  0  0  3  0  0  0  0  0  0
  190.2460  176.8440  137.2360 C   0  0  0  0  0  0  0  0  0  0  0  0
  189.3640  175.6250  135.4970 N   0  0  0  0  0  0  0  0  0  0  0  0
  190.7730  175.7680  135.3420 C   0  0  2  0  0  3  0  0  0  0  0  0
  193.3640  175.8610  137.8200 C   0  0  0  0  0  2  0  0  0  0  0  0
  194.0580  173.0330  135.6850 O   0  0  0  0  0  0  0  0  0  0  0  0
  192.7960  175.0180  135.6860 N   0  0  0  0  0  0  0  0  0  0  0  0
  193.7410  174.1250  136.2270 C   0  0  0  0  0  0  0  0  0  0  0  0
  191.6650  174.7630  134.9930 C   0  0  0  0  0  2  0  0  0  0  0  0
  190.4030  177.2000  138.4730 N   0  0  0  0  0  0  0  0  0  0  0  0
  191.3300  176.5230  136.3330 C   0  0  2  0  0  3  0  0  0  0  0  0
  186.9720  177.4300  136.7060 O   0  0  0  0  0  0  0  0  0  0  0  0
  187.0300  175.3740  137.6990 O   0  0  0  0  0  1  0  0  0  0  0  0
  187.6420  176.4080  137.0050 C   0  0  0  0  0  0  0  0  0  0  0  0
  195.5820  174.9590  137.4800 O   0  0  0  0  0  0  0  0  0  0  0  0
  197.1600  174.8410  139.1240 O   0  0  0  0  0  1  0  0  0  0  0  0
  195.5360  173.2700  139.0710 O   0  0  0  0  0  1  0  0  0  0  0  0
  196.3570  174.0790  138.2750 C   0  0  0  0  0  0  0  0  0  0  0  0
  198.8540  174.1590  137.2800 C   0  0  0  0  0  1  0  0  0  0  0  0
  197.4400  173.0130  137.2480 S   0  0  0  0  0  0  0  0  0  0  0  0
  189.5490  177.8190  140.6550 C   0  0  1  0  0  3  0  0  0  0  0  0
  187.1490  178.2710  140.1230 C   0  0  0  0  0  1  0  0  0  0  0  0
  188.3270  178.6570  140.9980 C   0  0  0  0  0  2  0  0  0  0  0  0
  189.7370  176.7110  141.6830 C   0  0  0  0  0  2  0  0  0  0  0  0
  191.0540  176.8900  142.4120 C   0  0  0  0  0  2  0  0  0  0  0  0
  190.8670  177.8500  143.5700 C   0  0  0  0  0  2  0  0  0  0  0  0
  191.4580  177.2800  144.7680 N   0  0  0  0  0  2  0  0  0  0  0  0
  190.3640  176.9830  145.6780 C   0  0  0  0  0  2  0  0  0  0  0  0
  189.4220  178.1680  145.7570 C   0  0  0  0  0  2  0  0  0  0  0  0
  188.1100  177.7410  146.3920 C   0  0  0  0  0  2  0  0  0  0  0  0
  186.6930  177.1320  144.4240 C   0  0  0  0  0  2  0  0  0  0  0  0
  184.0710  179.0250  144.5070 C   0  0  1  0  0  3  0  0  0  0  0  0
  184.3550  178.1320  145.7320 C   0  0  0  0  0  2  0  0  0  0  0  0
  185.7340  179.7160  147.0030 N   0  0  0  0  0  1  0  0  0  0  0  0
  185.7050  178.3850  146.4220 C   0  0  2  0  0  3  0  0  0  0  0  0
  185.8530  177.6570  143.2470 C   0  0  0  0  0  2  0  0  0  0  0  0
  186.9370  178.1720  145.5280 C   0  0  1  0  0  3  0  0  0  0  0  0
  185.2230  179.0340  143.4870 C   0  0  0  0  0  2  0  0  0  0  0  0
  181.8020  178.9270  144.7120 O   0  0  0  0  0  1  0  0  0  0  0  0
  182.8160  178.6150  143.8670 N   0  0  0  0  0  0  0  0  0  0  0  0
  182.6420  179.3900  142.7670 O   0  0  0  0  0  1  0  0  0  0  0  0
  1 24  1  0  0  0  0
  2  8  1  1  0  0  0
  3 17  1  0  0  0  0
  3  5  1  0  0  0  0
  4 18  1  6  0  0  0
  4  8  1  0  0  0  0
  5 13  2  0  0  0  0
  6  3  2  0  0  0  0
  7 12  1  1  0  0  0
  7  6  1  0  0  0  0
  7 14  1  0  0  0  0
  9 11  2  0  0  0  0
 10 11  1  0  0  0  0
 10  2  1  0  0  0  0
 11  4  1  0  0  0  0
 12 10  1  0  0  0  0
 13  1  1  0  0  0  0
 14  2  1  0  0  0  0
 14  5  1  1  0  0  0
 15 17  2  0  0  0  0
 17 16  1  0  0  0  0
 18 21  1  0  0  0  0
 21 20  1  0  0  0  0
 21 19  1  0  0  0  0
 23 22  1  0  0  0  0
 23 21  1  0  0  0  0
 24 26  1  1  0  0  0
 24 27  1  0  0  0  0
 25 26  1  0  0  0  0
 27 28  1  0  0  0  0
 28 29  1  0  0  0  0
 29 30  1  0  0  0  0
 30 31  1  0  0  0  0
 31 32  1  0  0  0  0
 32 33  1  0  0  0  0
 34 40  1  0  0  0  0
 35 43  1  6  0  0  0
 35 36  1  0  0  0  0
 36 38  1  0  0  0  0
 38 37  1  6  0  0  0
 39 41  1  0  0  0  0
 39 34  1  0  0  0  0
 40 33  1  1  0  0  0
 40 38  1  0  0  0  0
 41 35  1  0  0  0  0
 43 42  1  0  0  0  0
 44 43  1  0  0  0  0
M  END
>  <MODEL>
9

>  <REMARK>
 VINA RESULT:      -7.1      4.068      7.866
  Name = 
  16 active torsions:
  status: ('A' for Active; 'I' for Inactive)
    1  A    between atoms: O_1  and  C_10
    2  A    between atoms: O_1  and  C_33
    3  A    between atoms: O_3  and  C_12
    4  A    between atoms: O_3  and  N_42
    5  A    between atoms: C_5  and  C_17
    6  A    between atoms: C_5  and  C_41
    7  A    between atoms: C_6  and  N_14
    8  A    between atoms: C_6  and  C_25
    9  A    between atoms: C_8  and  C_12
   10  A    between atoms: C_8  and  C_25
   11  A    between atoms: CA_9  and  C_38
   12  A    between atoms: C_12  and  C_26
   13  A    between atoms: N_14  and  C_37
   14  A    between atoms: C_15  and  N_39
   15  A    between atoms: C_17  and  C_37
   16  A    between atoms: S_28  and  C_33
                            x       y       z     vdW  Elec       q    Type
                         _______ _______ _______ _____ _____    ______ ____

>  <TORSDO>
F 16

$$$$
