=
 OpenBabel11042410473D

 49 54  0  0  1  0  0  0  0  0999 V2000
  192.4960  175.7600  137.2740 C   0  0  1  0  0  3  0  0  0  0  0  0
  187.1260  177.0520  136.8370 C   0  0  0  0  0  0  0  0  0  0  0  0
  184.7740  177.8730  138.1760 C   0  0  0  0  0  0  0  0  0  0  0  0
  192.0200  176.5010  138.5240 C   0  0  0  0  0  2  0  0  0  0  0  0
  187.2110  177.7370  138.0820 C   0  0  0  0  0  0  0  0  0  0  0  0
  190.8370  177.3830  138.1030 C   0  0  2  0  0  3  0  0  0  0  0  0
  188.3300  176.4570  136.1400 C   0  0  2  0  0  3  0  0  0  0  0  0
  184.6950  177.2060  136.9500 C   0  0  0  0  0  3  0  0  0  0  0  0
  191.5120  175.6320  134.9530 O   0  0  0  0  0  1  0  0  0  0  0  0
  189.5730  177.1190  138.9520 C   0  0  2  0  0  3  0  0  0  0  0  0
  189.4370  177.4590  135.8830 C   0  0  0  0  0  2  0  0  0  0  0  0
  185.8560  176.7960  136.2960 C   0  0  0  0  0  3  0  0  0  0  0  0
  190.6240  177.0250  136.6760 C   0  0  0  0  0  0  0  0  0  0  0  0
  186.0330  178.1400  138.7240 C   0  0  0  0  0  3  0  0  0  0  0  0
  191.5150  176.1550  136.2410 C   0  0  0  0  0  0  0  0  0  0  0  0
  188.9650  179.3750  138.1650 O   0  0  0  0  0  1  0  0  0  0  0  0
  187.9880  175.8290  134.9400 O   0  0  0  0  0  1  0  0  0  0  0  0
  188.4870  178.1910  138.7350 C   0  0  1  0  0  3  0  0  0  0  0  0
  196.0290  171.4940  137.2360 C   0  0  0  0  0  2  0  0  0  0  0  0
  194.7420  171.2420  136.7250 O   0  0  0  0  0  0  0  0  0  0  0  0
  193.4910  173.1850  136.2150 C   0  0  0  0  0  2  0  0  0  0  0  0
  196.0520  173.4510  135.5740 C   0  0  2  0  0  3  0  0  0  0  0  0
  194.8370  175.4350  136.2790 C   0  0  0  0  0  0  0  0  0  0  0  0
  196.0110  175.9330  136.0860 N   0  0  0  0  0  0  0  0  0  0  0  0
  196.5630  172.8900  136.9020 C   0  0  0  0  0  2  0  0  0  0  0  0
  197.1130  174.8800  135.1870 S   0  0  0  0  0  0  0  0  0  0  0  0
  194.6470  174.0650  135.7000 C   0  0  2  0  0  3  0  0  0  0  0  0
  193.8850  172.1870  137.2930 C   0  0  0  0  0  2  0  0  0  0  0  0
  193.8210  176.2320  136.9030 N   0  0  0  0  0  2  0  0  0  0  0  0
  183.5800  178.2670  138.8710 N   0  0  0  0  0  0  0  0  0  0  0  0
  183.2930  177.8100  140.1650 N   0  0  0  0  0  2  0  0  0  0  0  0
  181.4740  179.1500  139.3170 C   0  0  0  0  0  2  0  0  0  0  0  0
  181.8820  178.1210  140.3620 C   0  0  2  0  0  3  0  0  0  0  0  0
  182.5210  179.0340  138.2490 C   0  0  0  0  0  2  0  0  0  0  0  0
  181.6540  178.6410  141.7720 C   0  0  0  0  0  2  0  0  0  0  0  0
  182.9660  178.6810  142.5350 C   0  0  0  0  0  2  0  0  0  0  0  0
  182.7640  179.2570  143.8150 O   0  0  0  0  0  0  0  0  0  0  0  0
  183.4830  178.7840  144.9090 C   0  0  0  0  0  3  0  0  0  0  0  0
  184.2820  179.5430  145.5140 O   0  0  0  0  0  0  0  0  0  0  0  0
  189.9190  177.0940  140.4340 C   0  0  0  0  0  2  0  0  0  0  0  0
  188.7780  177.6490  141.2650 C   0  0  0  0  0  2  0  0  0  0  0  0
  188.6130  176.8210  142.5240 C   0  0  0  0  0  2  0  0  0  0  0  0
  189.0960  177.6020  143.7410 C   0  0  0  0  0  2  0  0  0  0  0  0
  188.5760  177.0280  145.0600 C   0  0  2  0  0  3  0  0  0  0  0  0
  187.1090  177.3630  145.2980 C   0  0  0  0  0  1  0  0  0  0  0  0
  188.8450  177.9620  147.4850 C   0  0  0  0  0  1  0  0  0  0  0  0
  191.9100  176.8200  146.1900 O   0  0  0  0  0  0  0  0  0  0  0  0
  190.7020  177.0920  146.2170 C   0  0  0  0  0  0  0  0  0  0  0  0
  189.4310  177.3780  146.2450 C   0  0  0  0  0  0  0  0  0  0  0  0
  1 29  1  6  0  0  0
  1  4  1  0  0  0  0
  2  5  1  0  0  0  0
  3 14  1  0  0  0  0
  3 30  1  0  0  0  0
  5 14  2  0  0  0  0
  5 18  1  0  0  0  0
  6  4  1  1  0  0  0
  6 10  1  0  0  0  0
  7 17  1  6  0  0  0
  7  2  1  0  0  0  0
  8  3  2  0  0  0  0
  9 15  1  0  0  0  0
 10 40  1  1  0  0  0
 11  7  1  0  0  0  0
 11 13  1  0  0  0  0
 12  2  2  0  0  0  0
 12  8  1  0  0  0  0
 13  6  1  0  0  0  0
 15 13  2  0  0  0  0
 15  1  1  0  0  0  0
 18 16  1  6  0  0  0
 18 10  1  0  0  0  0
 20 19  1  0  0  0  0
 20 28  1  0  0  0  0
 21 28  1  0  0  0  0
 22 27  1  0  0  0  0
 22 25  1  1  0  0  0
 23 29  1  0  0  0  0
 24 23  2  0  0  0  0
 25 19  1  0  0  0  0
 26 22  1  0  0  0  0
 26 24  1  0  0  0  0
 27 21  1  1  0  0  0
 27 23  1  0  0  0  0
 30 31  1  0  0  0  0
 31 33  1  0  0  0  0
 32 33  1  0  0  0  0
 33 35  1  1  0  0  0
 34 30  1  0  0  0  0
 34 32  1  0  0  0  0
 35 36  1  0  0  0  0
 36 37  1  0  0  0  0
 37 38  1  0  0  0  0
 38 39  2  0  0  0  0
 40 41  1  0  0  0  0
 41 42  1  0  0  0  0
 42 43  1  0  0  0  0
 43 44  1  0  0  0  0
 44 45  1  1  0  0  0
 44 49  1  0  0  0  0
 47 48  2  0  0  0  0
 48 49  2  0  0  0  0
 49 46  1  0  0  0  0
M  END
>  <MODEL>
1

>  <REMARK>
 VINA RESULT:      -8.4      0.000      0.000
  Name = 
  12 active torsions:
  status: ('A' for Active; 'I' for Inactive)
    1  A    between atoms: C_1  and  C_24
    2  A    between atoms: C_1  and  C_27
    3  A    between atoms: N_2  and  C_14
    4  A    between atoms: O_4  and  C_13
    5  A    between atoms: O_4  and  C_29
    6  A    between atoms: C_7  and  C_9
    7  A    between atoms: C_9  and  C_29
    8  A    between atoms: C_11  and  N_48
    9  A    between atoms: C_27  and  C_40
   10  A    between atoms: C_32  and  C_38
   11  A    between atoms: C_32  and  C_41
   12  A    between atoms: C_40  and  C_41
                            x       y       z     vdW  Elec       q    Type
                         _______ _______ _______ _____ _____    ______ ____

>  <TORSDO>
F 12

$$$$
=
 OpenBabel11042410473D

 49 54  0  0  1  0  0  0  0  0999 V2000
  192.5170  175.8300  137.1470 C   0  0  1  0  0  3  0  0  0  0  0  0
  187.0970  176.9260  136.7980 C   0  0  0  0  0  0  0  0  0  0  0  0
  184.7510  177.7220  138.1640 C   0  0  0  0  0  0  0  0  0  0  0  0
  192.0460  176.6040  138.3800 C   0  0  0  0  0  2  0  0  0  0  0  0
  187.1890  177.6630  138.0130 C   0  0  0  0  0  0  0  0  0  0  0  0
  190.8240  177.4290  137.9560 C   0  0  2  0  0  3  0  0  0  0  0  0
  188.3030  176.3440  136.0940 C   0  0  2  0  0  3  0  0  0  0  0  0
  184.6660  177.0040  136.9670 C   0  0  0  0  0  3  0  0  0  0  0  0
  191.4820  175.5780  134.8590 O   0  0  0  0  0  1  0  0  0  0  0  0
  189.5910  177.1580  138.8450 C   0  0  2  0  0  3  0  0  0  0  0  0
  189.3690  177.3710  135.7710 C   0  0  0  0  0  2  0  0  0  0  0  0
  185.8230  176.6070  136.3000 C   0  0  0  0  0  3  0  0  0  0  0  0
  190.5890  177.0080  136.5490 C   0  0  0  0  0  0  0  0  0  0  0  0
  186.0140  178.0510  138.6690 C   0  0  0  0  0  3  0  0  0  0  0  0
  191.4980  176.1520  136.1250 C   0  0  0  0  0  0  0  0  0  0  0  0
  188.8880  179.3590  137.9880 O   0  0  0  0  0  1  0  0  0  0  0  0
  187.9540  175.6580  134.9280 O   0  0  0  0  0  1  0  0  0  0  0  0
  188.4650  178.1840  138.6160 C   0  0  1  0  0  3  0  0  0  0  0  0
  196.2720  171.7780  137.5460 C   0  0  0  0  0  2  0  0  0  0  0  0
  195.0020  171.4050  137.0690 O   0  0  0  0  0  0  0  0  0  0  0  0
  193.6510  173.2150  136.3620 C   0  0  0  0  0  2  0  0  0  0  0  0
  196.1950  173.5480  135.6880 C   0  0  2  0  0  3  0  0  0  0  0  0
  194.8740  175.5280  136.1850 C   0  0  0  0  0  0  0  0  0  0  0  0
  196.0210  176.0650  135.9360 N   0  0  0  0  0  0  0  0  0  0  0  0
  196.7310  173.1570  137.0660 C   0  0  0  0  0  2  0  0  0  0  0  0
  197.1790  174.9830  135.1500 S   0  0  0  0  0  0  0  0  0  0  0  0
  194.7590  174.0960  135.7540 C   0  0  2  0  0  3  0  0  0  0  0  0
  194.0940  172.3580  137.5370 C   0  0  0  0  0  2  0  0  0  0  0  0
  193.8160  176.3300  136.7250 N   0  0  0  0  0  2  0  0  0  0  0  0
  183.5620  178.1030  138.8730 N   0  0  0  0  0  0  0  0  0  0  0  0
  182.5960  177.1620  139.2570 N   0  0  0  0  0  2  0  0  0  0  0  0
  181.8740  179.3940  139.8200 C   0  0  0  0  0  2  0  0  0  0  0  0
  181.4240  177.9560  139.6050 C   0  0  2  0  0  3  0  0  0  0  0  0
  183.1950  179.4830  139.1150 C   0  0  0  0  0  2  0  0  0  0  0  0
  180.7600  177.3890  140.8480 C   0  0  0  0  0  2  0  0  0  0  0  0
  179.3270  177.8820  140.9490 C   0  0  0  0  0  2  0  0  0  0  0  0
  179.2000  178.7840  142.0350 O   0  0  0  0  0  0  0  0  0  0  0  0
  179.9950  178.6250  143.1650 C   0  0  0  0  0  3  0  0  0  0  0  0
  179.6070  177.8920  144.1100 O   0  0  0  0  0  0  0  0  0  0  0  0
  189.9730  177.2030  140.3190 C   0  0  0  0  0  2  0  0  0  0  0  0
  188.7380  177.1910  141.1990 C   0  0  0  0  0  2  0  0  0  0  0  0
  189.0860  176.6210  142.5600 C   0  0  0  0  0  2  0  0  0  0  0  0
  187.8300  176.4780  143.4120 C   0  0  0  0  0  2  0  0  0  0  0  0
  187.5090  177.7420  144.2120 C   0  0  2  0  0  3  0  0  0  0  0  0
  188.1690  177.7410  145.5850 C   0  0  0  0  0  1  0  0  0  0  0  0
  185.3770  178.3370  145.6000 C   0  0  0  0  0  1  0  0  0  0  0  0
  184.6810  178.1910  142.1540 O   0  0  0  0  0  0  0  0  0  0  0  0
  185.3420  178.1170  143.1990 C   0  0  0  0  0  0  0  0  0  0  0  0
  186.0390  178.0400  144.2970 C   0  0  0  0  0  0  0  0  0  0  0  0
  1 29  1  6  0  0  0
  1  4  1  0  0  0  0
  2  5  1  0  0  0  0
  3 14  1  0  0  0  0
  3 30  1  0  0  0  0
  5 18  1  0  0  0  0
  5 14  2  0  0  0  0
  6  4  1  1  0  0  0
  6 10  1  0  0  0  0
  7 17  1  6  0  0  0
  7  2  1  0  0  0  0
  8  3  2  0  0  0  0
  9 15  1  0  0  0  0
 10 40  1  1  0  0  0
 11  7  1  0  0  0  0
 11 13  1  0  0  0  0
 12  2  2  0  0  0  0
 12  8  1  0  0  0  0
 13  6  1  0  0  0  0
 15 13  2  0  0  0  0
 15  1  1  0  0  0  0
 18 16  1  6  0  0  0
 18 10  1  0  0  0  0
 20 28  1  0  0  0  0
 20 19  1  0  0  0  0
 21 28  1  0  0  0  0
 22 27  1  0  0  0  0
 22 25  1  1  0  0  0
 23 29  1  0  0  0  0
 24 23  2  0  0  0  0
 25 19  1  0  0  0  0
 26 22  1  0  0  0  0
 26 24  1  0  0  0  0
 27 23  1  0  0  0  0
 27 21  1  1  0  0  0
 30 34  1  0  0  0  0
 30 31  1  0  0  0  0
 31 33  1  0  0  0  0
 33 32  1  0  0  0  0
 33 35  1  1  0  0  0
 34 32  1  0  0  0  0
 35 36  1  0  0  0  0
 36 37  1  0  0  0  0
 37 38  1  0  0  0  0
 38 39  2  0  0  0  0
 40 41  1  0  0  0  0
 41 42  1  0  0  0  0
 42 43  1  0  0  0  0
 43 44  1  0  0  0  0
 44 49  1  0  0  0  0
 44 45  1  1  0  0  0
 47 48  2  0  0  0  0
 48 49  2  0  0  0  0
 49 46  1  0  0  0  0
M  END
>  <MODEL>
2

>  <REMARK>
 VINA RESULT:      -8.1      1.626      2.172
  Name = 
  12 active torsions:
  status: ('A' for Active; 'I' for Inactive)
    1  A    between atoms: C_1  and  C_24
    2  A    between atoms: C_1  and  C_27
    3  A    between atoms: N_2  and  C_14
    4  A    between atoms: O_4  and  C_13
    5  A    between atoms: O_4  and  C_29
    6  A    between atoms: C_7  and  C_9
    7  A    between atoms: C_9  and  C_29
    8  A    between atoms: C_11  and  N_48
    9  A    between atoms: C_27  and  C_40
   10  A    between atoms: C_32  and  C_38
   11  A    between atoms: C_32  and  C_41
   12  A    between atoms: C_40  and  C_41
                            x       y       z     vdW  Elec       q    Type
                         _______ _______ _______ _____ _____    ______ ____

>  <TORSDO>
F 12

$$$$
=
 OpenBabel11042410473D

 49 54  0  0  1  0  0  0  0  0999 V2000
  192.4000  175.7900  137.2260 C   0  0  1  0  0  3  0  0  0  0  0  0
  187.0500  177.1970  136.9350 C   0  0  0  0  0  0  0  0  0  0  0  0
  184.7180  177.9400  138.3550 C   0  0  0  0  0  0  0  0  0  0  0  0
  191.9430  176.4300  138.5370 C   0  0  0  0  0  2  0  0  0  0  0  0
  187.1520  177.7740  138.2330 C   0  0  0  0  0  0  0  0  0  0  0  0
  190.7720  177.3630  138.2000 C   0  0  2  0  0  3  0  0  0  0  0  0
  188.2390  176.6430  136.1830 C   0  0  2  0  0  3  0  0  0  0  0  0
  184.6220  177.3780  137.0780 C   0  0  0  0  0  3  0  0  0  0  0  0
  191.4020  175.8710  134.9090 O   0  0  0  0  0  1  0  0  0  0  0  0
  189.5090  177.0490  139.0320 C   0  0  2  0  0  3  0  0  0  0  0  0
  189.3610  177.6460  136.0040 C   0  0  0  0  0  2  0  0  0  0  0  0
  185.7720  177.0060  136.3840 C   0  0  0  0  0  3  0  0  0  0  0  0
  190.5460  177.1290  136.7490 C   0  0  0  0  0  0  0  0  0  0  0  0
  185.9850  178.1400  138.9140 C   0  0  0  0  0  3  0  0  0  0  0  0
  191.4200  176.2850  136.2360 C   0  0  0  0  0  0  0  0  0  0  0  0
  188.9330  179.3720  138.4400 O   0  0  0  0  0  1  0  0  0  0  0  0
  187.8810  176.1240  134.9370 O   0  0  0  0  0  1  0  0  0  0  0  0
  188.4390  178.1520  138.9130 C   0  0  1  0  0  3  0  0  0  0  0  0
  195.8310  171.4770  136.6630 C   0  0  0  0  0  2  0  0  0  0  0  0
  194.5310  171.3100  136.1490 O   0  0  0  0  0  0  0  0  0  0  0  0
  193.3200  173.3250  135.8760 C   0  0  0  0  0  2  0  0  0  0  0  0
  195.8770  173.6040  135.2250 C   0  0  2  0  0  3  0  0  0  0  0  0
  194.7180  175.5250  136.1630 C   0  0  0  0  0  0  0  0  0  0  0  0
  195.9020  176.0150  136.0050 N   0  0  0  0  0  0  0  0  0  0  0  0
  196.3920  172.8890  136.4750 C   0  0  0  0  0  2  0  0  0  0  0  0
  196.9650  175.0430  134.9790 S   0  0  0  0  0  0  0  0  0  0  0  0
  194.4880  174.2300  135.4410 C   0  0  2  0  0  3  0  0  0  0  0  0
  193.7050  172.2060  136.8310 C   0  0  0  0  0  2  0  0  0  0  0  0
  193.7310  176.2700  136.8870 N   0  0  0  0  0  2  0  0  0  0  0  0
  183.5350  178.2920  139.0880 N   0  0  0  0  0  0  0  0  0  0  0  0
  182.4280  178.8870  138.4640 N   0  0  0  0  0  2  0  0  0  0  0  0
  182.0720  178.7240  140.8460 C   0  0  0  0  0  2  0  0  0  0  0  0
  181.6200  179.4060  139.5610 C   0  0  2  0  0  3  0  0  0  0  0  0
  183.4430  178.2040  140.5300 C   0  0  0  0  0  2  0  0  0  0  0  0
  180.1470  179.1570  139.2880 C   0  0  0  0  0  2  0  0  0  0  0  0
  179.5540  180.3140  138.5040 C   0  0  0  0  0  2  0  0  0  0  0  0
  180.2790  181.5020  138.7720 O   0  0  0  0  0  0  0  0  0  0  0  0
  180.4240  182.4660  137.7790 C   0  0  0  0  0  3  0  0  0  0  0  0
  181.4730  183.1560  137.7180 O   0  0  0  0  0  0  0  0  0  0  0  0
  189.8630  176.8940  140.5050 C   0  0  0  0  0  2  0  0  0  0  0  0
  188.8470  177.6020  141.3820 C   0  0  0  0  0  2  0  0  0  0  0  0
  188.5130  176.7330  142.5790 C   0  0  0  0  0  2  0  0  0  0  0  0
  189.2790  177.2070  143.8080 C   0  0  0  0  0  2  0  0  0  0  0  0
  188.4920  177.0190  145.1070 C   0  0  2  0  0  3  0  0  0  0  0  0
  187.2440  177.8900  145.1580 C   0  0  0  0  0  1  0  0  0  0  0  0
  188.7140  177.2950  147.6950 C   0  0  0  0  0  1  0  0  0  0  0  0
  191.8630  177.0510  146.1430 O   0  0  0  0  0  0  0  0  0  0  0  0
  190.6290  177.1090  146.2420 C   0  0  0  0  0  0  0  0  0  0  0  0
  189.3310  177.1690  146.3440 C   0  0  0  0  0  0  0  0  0  0  0  0
  1 29  1  6  0  0  0
  1  4  1  0  0  0  0
  2  5  1  0  0  0  0
  3 14  1  0  0  0  0
  3 30  1  0  0  0  0
  5 18  1  0  0  0  0
  5 14  2  0  0  0  0
  6  4  1  1  0  0  0
  6 10  1  0  0  0  0
  7 17  1  6  0  0  0
  7  2  1  0  0  0  0
  8  3  2  0  0  0  0
  9 15  1  0  0  0  0
 10 40  1  1  0  0  0
 11  7  1  0  0  0  0
 11 13  1  0  0  0  0
 12  2  2  0  0  0  0
 12  8  1  0  0  0  0
 13  6  1  0  0  0  0
 15 13  2  0  0  0  0
 15  1  1  0  0  0  0
 18 16  1  6  0  0  0
 18 10  1  0  0  0  0
 20 19  1  0  0  0  0
 20 28  1  0  0  0  0
 21 28  1  0  0  0  0
 22 27  1  0  0  0  0
 22 25  1  1  0  0  0
 23 29  1  0  0  0  0
 24 23  2  0  0  0  0
 25 19  1  0  0  0  0
 26 22  1  0  0  0  0
 26 24  1  0  0  0  0
 27 21  1  1  0  0  0
 27 23  1  0  0  0  0
 30 34  1  0  0  0  0
 31 30  1  0  0  0  0
 31 33  1  0  0  0  0
 33 35  1  6  0  0  0
 33 32  1  0  0  0  0
 34 32  1  0  0  0  0
 36 37  1  0  0  0  0
 36 35  1  0  0  0  0
 38 37  1  0  0  0  0
 39 38  2  0  0  0  0
 40 41  1  0  0  0  0
 41 42  1  0  0  0  0
 42 43  1  0  0  0  0
 43 44  1  0  0  0  0
 44 45  1  1  0  0  0
 44 49  1  0  0  0  0
 47 48  2  0  0  0  0
 48 49  2  0  0  0  0
 49 46  1  0  0  0  0
M  END
>  <MODEL>
3

>  <REMARK>
 VINA RESULT:      -7.9      1.624      2.268
  Name = 
  12 active torsions:
  status: ('A' for Active; 'I' for Inactive)
    1  A    between atoms: C_1  and  C_24
    2  A    between atoms: C_1  and  C_27
    3  A    between atoms: N_2  and  C_14
    4  A    between atoms: O_4  and  C_13
    5  A    between atoms: O_4  and  C_29
    6  A    between atoms: C_7  and  C_9
    7  A    between atoms: C_9  and  C_29
    8  A    between atoms: C_11  and  N_48
    9  A    between atoms: C_27  and  C_40
   10  A    between atoms: C_32  and  C_38
   11  A    between atoms: C_32  and  C_41
   12  A    between atoms: C_40  and  C_41
                            x       y       z     vdW  Elec       q    Type
                         _______ _______ _______ _____ _____    ______ ____

>  <TORSDO>
F 12

$$$$
=
 OpenBabel11042410473D

 49 54  0  0  1  0  0  0  0  0999 V2000
  192.4500  175.8570  137.2090 C   0  0  1  0  0  3  0  0  0  0  0  0
  187.0220  176.8800  136.7890 C   0  0  0  0  0  0  0  0  0  0  0  0
  184.6580  177.6940  138.1130 C   0  0  0  0  0  0  0  0  0  0  0  0
  191.9620  176.6650  138.4120 C   0  0  0  0  0  2  0  0  0  0  0  0
  187.0970  177.6570  137.9790 C   0  0  0  0  0  0  0  0  0  0  0  0
  190.7350  177.4620  137.9530 C   0  0  2  0  0  3  0  0  0  0  0  0
  188.2380  176.2880  136.1120 C   0  0  2  0  0  3  0  0  0  0  0  0
  184.5880  176.9360  136.9400 C   0  0  0  0  0  3  0  0  0  0  0  0
  191.4330  175.5170  134.9230 O   0  0  0  0  0  1  0  0  0  0  0  0
  189.4980  177.2060  138.8430 C   0  0  2  0  0  3  0  0  0  0  0  0
  189.2950  177.3160  135.7620 C   0  0  0  0  0  2  0  0  0  0  0  0
  185.7540  176.5300  136.2940 C   0  0  0  0  0  3  0  0  0  0  0  0
  190.5140  176.9920  136.5590 C   0  0  0  0  0  0  0  0  0  0  0  0
  185.9130  178.0540  138.6140 C   0  0  0  0  0  3  0  0  0  0  0  0
  191.4340  176.1330  136.1700 C   0  0  0  0  0  0  0  0  0  0  0  0
  188.7780  179.3710  137.9090 O   0  0  0  0  0  1  0  0  0  0  0  0
  187.9040  175.5610  134.9670 O   0  0  0  0  0  1  0  0  0  0  0  0
  188.3630  178.2120  138.5730 C   0  0  1  0  0  3  0  0  0  0  0  0
  196.2170  171.8160  137.6230 C   0  0  0  0  0  2  0  0  0  0  0  0
  194.9460  171.4370  137.1530 O   0  0  0  0  0  0  0  0  0  0  0  0
  193.5880  173.2380  136.4380 C   0  0  0  0  0  2  0  0  0  0  0  0
  196.1290  173.5730  135.7530 C   0  0  2  0  0  3  0  0  0  0  0  0
  194.8040  175.5530  136.2400 C   0  0  0  0  0  0  0  0  0  0  0  0
  195.9490  176.0910  135.9840 N   0  0  0  0  0  0  0  0  0  0  0  0
  196.6710  173.1930  137.1320 C   0  0  0  0  0  2  0  0  0  0  0  0
  197.1080  175.0060  135.2010 S   0  0  0  0  0  0  0  0  0  0  0  0
  194.6920  174.1180  135.8200 C   0  0  2  0  0  3  0  0  0  0  0  0
  194.0370  172.3910  137.6170 C   0  0  0  0  0  2  0  0  0  0  0  0
  193.7460  176.3570  136.7790 N   0  0  0  0  0  2  0  0  0  0  0  0
  183.4600  178.0850  138.8010 N   0  0  0  0  0  0  0  0  0  0  0  0
  182.2040  178.0520  138.1770 N   0  0  0  0  0  2  0  0  0  0  0  0
  182.0210  178.9720  140.4010 C   0  0  0  0  0  2  0  0  0  0  0  0
  181.3390  178.8400  139.0460 C   0  0  2  0  0  3  0  0  0  0  0  0
  183.4660  178.6780  140.1220 C   0  0  0  0  0  2  0  0  0  0  0  0
  179.9780  178.1750  139.1710 C   0  0  0  0  0  2  0  0  0  0  0  0
  180.0360  176.7570  138.6330 C   0  0  0  0  0  2  0  0  0  0  0  0
  180.0520  175.8310  139.7070 O   0  0  0  0  0  0  0  0  0  0  0  0
  180.0010  174.4660  139.4460 C   0  0  0  0  0  3  0  0  0  0  0  0
  179.3590  174.0380  138.4530 O   0  0  0  0  0  0  0  0  0  0  0  0
  189.8700  177.3040  140.3170 C   0  0  0  0  0  2  0  0  0  0  0  0
  188.6280  177.3760  141.1840 C   0  0  0  0  0  2  0  0  0  0  0  0
  188.9730  178.0100  142.5180 C   0  0  0  0  0  2  0  0  0  0  0  0
  189.1550  176.9360  143.5840 C   0  0  0  0  0  2  0  0  0  0  0  0
  190.4530  177.1010  144.3770 C   0  0  2  0  0  3  0  0  0  0  0  0
  191.5090  176.0790  143.9760 C   0  0  0  0  0  1  0  0  0  0  0  0
  188.9230  177.4780  146.4610 C   0  0  0  0  0  1  0  0  0  0  0  0
  192.1610  176.4670  147.3960 O   0  0  0  0  0  0  0  0  0  0  0  0
  191.2280  176.7960  146.6500 C   0  0  0  0  0  0  0  0  0  0  0  0
  190.2470  177.1400  145.8640 C   0  0  0  0  0  0  0  0  0  0  0  0
  1 29  1  6  0  0  0
  1  4  1  0  0  0  0
  2  5  1  0  0  0  0
  3 14  1  0  0  0  0
  3 30  1  0  0  0  0
  5 18  1  0  0  0  0
  5 14  2  0  0  0  0
  6  4  1  1  0  0  0
  6 10  1  0  0  0  0
  7 17  1  6  0  0  0
  7  2  1  0  0  0  0
  8  3  2  0  0  0  0
  9 15  1  0  0  0  0
 10 40  1  1  0  0  0
 11  7  1  0  0  0  0
 11 13  1  0  0  0  0
 12  2  2  0  0  0  0
 12  8  1  0  0  0  0
 13  6  1  0  0  0  0
 15 13  2  0  0  0  0
 15  1  1  0  0  0  0
 18 16  1  6  0  0  0
 18 10  1  0  0  0  0
 20 28  1  0  0  0  0
 20 19  1  0  0  0  0
 21 28  1  0  0  0  0
 22 27  1  0  0  0  0
 22 25  1  1  0  0  0
 23 29  1  0  0  0  0
 24 23  2  0  0  0  0
 25 19  1  0  0  0  0
 26 22  1  0  0  0  0
 26 24  1  0  0  0  0
 27 23  1  0  0  0  0
 27 21  1  1  0  0  0
 30 34  1  0  0  0  0
 31 30  1  0  0  0  0
 31 33  1  0  0  0  0
 33 35  1  1  0  0  0
 33 32  1  0  0  0  0
 34 32  1  0  0  0  0
 36 35  1  0  0  0  0
 36 37  1  0  0  0  0
 38 37  1  0  0  0  0
 39 38  2  0  0  0  0
 40 41  1  0  0  0  0
 41 42  1  0  0  0  0
 42 43  1  0  0  0  0
 43 44  1  0  0  0  0
 44 45  1  1  0  0  0
 44 49  1  0  0  0  0
 48 47  2  0  0  0  0
 49 46  1  0  0  0  0
 49 48  2  0  0  0  0
M  END
>  <MODEL>
4

>  <REMARK>
 VINA RESULT:      -7.5      1.780      2.422
  Name = 
  12 active torsions:
  status: ('A' for Active; 'I' for Inactive)
    1  A    between atoms: C_1  and  C_24
    2  A    between atoms: C_1  and  C_27
    3  A    between atoms: N_2  and  C_14
    4  A    between atoms: O_4  and  C_13
    5  A    between atoms: O_4  and  C_29
    6  A    between atoms: C_7  and  C_9
    7  A    between atoms: C_9  and  C_29
    8  A    between atoms: C_11  and  N_48
    9  A    between atoms: C_27  and  C_40
   10  A    between atoms: C_32  and  C_38
   11  A    between atoms: C_32  and  C_41
   12  A    between atoms: C_40  and  C_41
                            x       y       z     vdW  Elec       q    Type
                         _______ _______ _______ _____ _____    ______ ____

>  <TORSDO>
F 12

$$$$
=
 OpenBabel11042410473D

 49 54  0  0  1  0  0  0  0  0999 V2000
  181.6050  178.2850  139.5700 C   0  0  1  0  0  3  0  0  0  0  0  0
  184.1130  178.4950  144.5050 C   0  0  0  0  0  0  0  0  0  0  0  0
  186.5120  178.1240  145.9590 C   0  0  0  0  0  0  0  0  0  0  0  0
  183.1250  178.2700  139.4000 C   0  0  0  0  0  2  0  0  0  0  0  0
  185.3710  178.5510  143.8410 C   0  0  0  0  0  0  0  0  0  0  0  0
  183.7230  178.9820  140.6210 C   0  0  2  0  0  3  0  0  0  0  0  0
  182.7910  178.5380  143.7720 C   0  0  2  0  0  3  0  0  0  0  0  0
  185.2750  178.0760  146.6080 C   0  0  0  0  0  3  0  0  0  0  0  0
  180.1660  179.0100  141.5120 O   0  0  0  0  0  1  0  0  0  0  0  0
  184.7630  178.1120  141.3600 C   0  0  2  0  0  3  0  0  0  0  0  0
  182.6330  179.7540  142.8810 C   0  0  0  0  0  2  0  0  0  0  0  0
  184.0940  178.2520  145.8890 C   0  0  0  0  0  3  0  0  0  0  0  0
  182.5390  179.2660  141.4740 C   0  0  0  0  0  0  0  0  0  0  0  0
  186.5460  178.3710  144.5820 C   0  0  0  0  0  3  0  0  0  0  0  0
  181.4110  178.8890  140.9060 C   0  0  0  0  0  0  0  0  0  0  0  0
  185.5200  180.3010  142.2030 O   0  0  0  0  0  1  0  0  0  0  0  0
  181.7010  178.4600  144.6430 O   0  0  0  0  0  1  0  0  0  0  0  0
  185.5710  178.9170  142.3960 C   0  0  1  0  0  3  0  0  0  0  0  0
  181.9800  175.7920  134.6370 C   0  0  0  0  0  2  0  0  0  0  0  0
  181.6710  174.9630  135.7320 O   0  0  0  0  0  0  0  0  0  0  0  0
  180.9460  176.1220  137.6650 C   0  0  0  0  0  2  0  0  0  0  0  0
  179.9880  177.2010  135.4380 C   0  0  2  0  0  3  0  0  0  0  0  0
  180.4380  178.6720  137.3210 C   0  0  0  0  0  0  0  0  0  0  0  0
  180.0260  179.5260  136.4450 N   0  0  0  0  0  0  0  0  0  0  0  0
  181.3330  177.1780  134.7100 C   0  0  0  0  0  2  0  0  0  0  0  0
  179.2250  178.8060  135.0410 S   0  0  0  0  0  0  0  0  0  0  0  0
  180.1510  177.2430  136.9670 C   0  0  2  0  0  3  0  0  0  0  0  0
  182.1420  175.6080  136.8780 C   0  0  0  0  0  2  0  0  0  0  0  0
  181.0090  179.1350  138.5510 N   0  0  0  0  0  2  0  0  0  0  0  0
  187.7290  177.9090  146.6900 N   0  0  0  0  0  0  0  0  0  0  0  0
  188.7540  177.0900  146.1940 N   0  0  0  0  0  2  0  0  0  0  0  0
  189.2980  177.8840  148.4070 C   0  0  0  0  0  2  0  0  0  0  0  0
  189.6180  176.8430  147.3420 C   0  0  2  0  0  3  0  0  0  0  0  0
  187.9350  178.3880  148.0410 C   0  0  0  0  0  2  0  0  0  0  0  0
  191.0760  176.9060  146.9230 C   0  0  0  0  0  2  0  0  0  0  0  0
  191.1960  176.7660  145.4150 C   0  0  0  0  0  2  0  0  0  0  0  0
  191.9120  177.8670  144.8820 O   0  0  0  0  0  0  0  0  0  0  0  0
  191.2310  178.8750  144.2060 C   0  0  0  0  0  3  0  0  0  0  0  0
  190.2000  178.6010  143.5390 O   0  0  0  0  0  0  0  0  0  0  0  0
  185.7460  177.4970  140.3730 C   0  0  0  0  0  2  0  0  0  0  0  0
  187.0150  178.3240  140.2870 C   0  0  0  0  0  2  0  0  0  0  0  0
  187.5760  178.2530  138.8800 C   0  0  0  0  0  2  0  0  0  0  0  0
  189.0540  178.6280  138.8790 C   0  0  0  0  0  2  0  0  0  0  0  0
  189.9470  177.5150  138.3270 C   0  0  2  0  0  3  0  0  0  0  0  0
  189.1410  176.3720  137.7240 C   0  0  0  0  0  1  0  0  0  0  0  0
  190.6150  176.7510  140.7340 C   0  0  0  0  0  1  0  0  0  0  0  0
  193.3170  176.4910  138.4960 O   0  0  0  0  0  0  0  0  0  0  0  0
  192.1730  176.7500  138.8940 C   0  0  0  0  0  0  0  0  0  0  0  0
  190.9690  177.0220  139.3120 C   0  0  0  0  0  0  0  0  0  0  0  0
  1 29  1  6  0  0  0
  1 15  1  0  0  0  0
  2 12  1  0  0  0  0
  3  8  1  0  0  0  0
  3 30  1  0  0  0  0
  4  1  1  0  0  0  0
  5  2  2  0  0  0  0
  5 14  1  0  0  0  0
  6  4  1  6  0  0  0
  6 10  1  0  0  0  0
  6 13  1  0  0  0  0
  7  2  1  0  0  0  0
  7 17  1  1  0  0  0
 10 40  1  6  0  0  0
 10 18  1  0  0  0  0
 11  7  1  0  0  0  0
 12  8  2  0  0  0  0
 13 11  1  0  0  0  0
 14  3  2  0  0  0  0
 15 13  2  0  0  0  0
 15  9  1  0  0  0  0
 18 16  1  1  0  0  0
 18  5  1  0  0  0  0
 19 25  1  0  0  0  0
 19 20  1  0  0  0  0
 20 28  1  0  0  0  0
 22 25  1  6  0  0  0
 22 27  1  0  0  0  0
 23 29  1  0  0  0  0
 24 23  2  0  0  0  0
 26 22  1  0  0  0  0
 26 24  1  0  0  0  0
 27 23  1  0  0  0  0
 27 21  1  6  0  0  0
 28 21  1  0  0  0  0
 30 34  1  0  0  0  0
 31 30  1  0  0  0  0
 31 33  1  0  0  0  0
 33 35  1  6  0  0  0
 33 32  1  0  0  0  0
 34 32  1  0  0  0  0
 36 35  1  0  0  0  0
 37 36  1  0  0  0  0
 38 37  1  0  0  0  0
 39 38  2  0  0  0  0
 41 40  1  0  0  0  0
 42 41  1  0  0  0  0
 43 42  1  0  0  0  0
 44 45  1  1  0  0  0
 44 43  1  0  0  0  0
 44 49  1  0  0  0  0
 47 48  2  0  0  0  0
 48 49  2  0  0  0  0
 49 46  1  0  0  0  0
M  END
>  <MODEL>
5

>  <REMARK>
 VINA RESULT:      -6.2      4.642     10.370
  Name = 
  12 active torsions:
  status: ('A' for Active; 'I' for Inactive)
    1  A    between atoms: C_1  and  C_24
    2  A    between atoms: C_1  and  C_27
    3  A    between atoms: N_2  and  C_14
    4  A    between atoms: O_4  and  C_13
    5  A    between atoms: O_4  and  C_29
    6  A    between atoms: C_7  and  C_9
    7  A    between atoms: C_9  and  C_29
    8  A    between atoms: C_11  and  N_48
    9  A    between atoms: C_27  and  C_40
   10  A    between atoms: C_32  and  C_38
   11  A    between atoms: C_32  and  C_41
   12  A    between atoms: C_40  and  C_41
                            x       y       z     vdW  Elec       q    Type
                         _______ _______ _______ _____ _____    ______ ____

>  <TORSDO>
F 12

$$$$
=
 OpenBabel11042410473D

 49 54  0  0  1  0  0  0  0  0999 V2000
  189.3390  176.5110  143.4980 C   0  0  1  0  0  3  0  0  0  0  0  0
  186.1360  178.2000  139.3050 C   0  0  0  0  0  0  0  0  0  0  0  0
  183.6110  179.1980  138.5100 C   0  0  0  0  0  0  0  0  0  0  0  0
  188.1320  177.2870  144.0250 C   0  0  0  0  0  2  0  0  0  0  0  0
  185.3050  178.8790  140.2410 C   0  0  0  0  0  0  0  0  0  0  0  0
  187.6970  178.2550  142.9170 C   0  0  2  0  0  3  0  0  0  0  0  0
  187.4270  177.5150  139.6950 C   0  0  2  0  0  3  0  0  0  0  0  0
  184.4330  178.5360  137.5930 C   0  0  0  0  0  3  0  0  0  0  0  0
  190.3940  176.4520  141.2060 O   0  0  0  0  0  1  0  0  0  0  0  0
  186.2090  178.0870  142.5370 C   0  0  2  0  0  3  0  0  0  0  0  0
  188.4100  178.4320  140.3960 C   0  0  0  0  0  2  0  0  0  0  0  0
  185.6730  178.0390  137.9890 C   0  0  0  0  0  3  0  0  0  0  0  0
  188.5950  177.9110  141.7820 C   0  0  0  0  0  0  0  0  0  0  0  0
  184.0610  179.3700  139.8230 C   0  0  0  0  0  3  0  0  0  0  0  0
  189.4680  176.9770  142.1000 C   0  0  0  0  0  0  0  0  0  0  0  0
  186.5020  180.3810  141.6830 O   0  0  0  0  0  1  0  0  0  0  0  0
  188.0560  176.9130  138.6030 O   0  0  0  0  0  1  0  0  0  0  0  0
  185.6980  179.2370  141.6480 C   0  0  1  0  0  3  0  0  0  0  0  0
  187.8210  178.6310  148.3850 C   0  0  0  0  0  2  0  0  0  0  0  0
  187.0790  177.5260  147.9280 O   0  0  0  0  0  0  0  0  0  0  0  0
  188.1100  176.3090  146.1790 C   0  0  0  0  0  2  0  0  0  0  0  0
  189.8640  177.1270  147.9940 C   0  0  2  0  0  3  0  0  0  0  0  0
  190.6040  176.9480  145.6850 C   0  0  0  0  0  0  0  0  0  0  0  0
  191.6810  177.3860  146.2450 N   0  0  0  0  0  0  0  0  0  0  0  0
  189.3130  178.5520  148.0530 C   0  0  0  0  0  2  0  0  0  0  0  0
  191.6780  177.2840  148.0120 S   0  0  0  0  0  0  0  0  0  0  0  0
  189.5720  176.4420  146.6470 C   0  0  2  0  0  3  0  0  0  0  0  0
  187.2180  177.4870  146.5390 C   0  0  0  0  0  2  0  0  0  0  0  0
  190.5250  176.8810  144.2540 N   0  0  0  0  0  2  0  0  0  0  0  0
  182.3170  179.6810  138.1150 N   0  0  0  0  0  0  0  0  0  0  0  0
  181.8290  180.9230  138.5460 N   0  0  0  0  0  2  0  0  0  0  0  0
  180.1590  179.7600  137.2490 C   0  0  0  0  0  2  0  0  0  0  0  0
  180.4030  180.8830  138.2470 C   0  0  2  0  0  3  0  0  0  0  0  0
  181.3650  178.8770  137.3770 C   0  0  0  0  0  2  0  0  0  0  0  0
  179.9460  182.2240  137.6980 C   0  0  0  0  0  2  0  0  0  0  0  0
  180.6690  182.5330  136.3990 C   0  0  0  0  0  2  0  0  0  0  0  0
  180.6810  183.9320  136.1720 O   0  0  0  0  0  0  0  0  0  0  0  0
  181.1650  184.7900  137.1540 C   0  0  0  0  0  3  0  0  0  0  0  0
  182.3350  184.6480  137.5930 O   0  0  0  0  0  0  0  0  0  0  0  0
  185.3400  178.0390  143.7870 C   0  0  0  0  0  2  0  0  0  0  0  0
  184.7310  179.3980  144.0750 C   0  0  0  0  0  2  0  0  0  0  0  0
  183.3490  179.2220  144.6740 C   0  0  0  0  0  2  0  0  0  0  0  0
  182.4580  178.4280  143.7260 C   0  0  0  0  0  2  0  0  0  0  0  0
  181.0610  179.0360  143.5780 C   0  0  2  0  0  3  0  0  0  0  0  0
  180.0050  178.2510  144.3460 C   0  0  0  0  0  1  0  0  0  0  0  0
  180.9460  178.2700  141.0830 C   0  0  0  0  0  1  0  0  0  0  0  0
  179.3170  181.3500  141.5690 O   0  0  0  0  0  0  0  0  0  0  0  0
  179.9700  180.3360  141.8510 C   0  0  0  0  0  0  0  0  0  0  0  0
  180.6570  179.2700  142.1500 C   0  0  0  0  0  0  0  0  0  0  0  0
  1  4  1  0  0  0  0
  1 29  1  1  0  0  0
  2  7  1  0  0  0  0
  2  5  1  0  0  0  0
  3 14  1  0  0  0  0
  5 18  1  0  0  0  0
  6  4  1  1  0  0  0
  7 17  1  6  0  0  0
  7 11  1  0  0  0  0
  8 12  1  0  0  0  0
  8  3  2  0  0  0  0
  9 15  1  0  0  0  0
 10  6  1  0  0  0  0
 10 40  1  1  0  0  0
 11 13  1  0  0  0  0
 12  2  2  0  0  0  0
 13 15  2  0  0  0  0
 13  6  1  0  0  0  0
 14  5  2  0  0  0  0
 15  1  1  0  0  0  0
 18 16  1  6  0  0  0
 18 10  1  0  0  0  0
 20 19  1  0  0  0  0
 21 28  1  0  0  0  0
 22 26  1  0  0  0  0
 22 25  1  6  0  0  0
 23 24  2  0  0  0  0
 23 27  1  0  0  0  0
 24 26  1  0  0  0  0
 25 19  1  0  0  0  0
 27 21  1  6  0  0  0
 27 22  1  0  0  0  0
 28 20  1  0  0  0  0
 29 23  1  0  0  0  0
 30  3  1  0  0  0  0
 30 31  1  0  0  0  0
 32 34  1  0  0  0  0
 32 33  1  0  0  0  0
 33 35  1  6  0  0  0
 33 31  1  0  0  0  0
 34 30  1  0  0  0  0
 36 35  1  0  0  0  0
 37 36  1  0  0  0  0
 37 38  1  0  0  0  0
 38 39  2  0  0  0  0
 40 41  1  0  0  0  0
 41 42  1  0  0  0  0
 43 42  1  0  0  0  0
 44 43  1  0  0  0  0
 44 45  1  6  0  0  0
 46 49  1  0  0  0  0
 47 48  2  0  0  0  0
 48 49  2  0  0  0  0
 49 44  1  0  0  0  0
M  END
>  <MODEL>
6

>  <REMARK>
 VINA RESULT:      -5.5      5.162      8.366
  Name = 
  12 active torsions:
  status: ('A' for Active; 'I' for Inactive)
    1  A    between atoms: C_1  and  C_24
    2  A    between atoms: C_1  and  C_27
    3  A    between atoms: N_2  and  C_14
    4  A    between atoms: O_4  and  C_13
    5  A    between atoms: O_4  and  C_29
    6  A    between atoms: C_7  and  C_9
    7  A    between atoms: C_9  and  C_29
    8  A    between atoms: C_11  and  N_48
    9  A    between atoms: C_27  and  C_40
   10  A    between atoms: C_32  and  C_38
   11  A    between atoms: C_32  and  C_41
   12  A    between atoms: C_40  and  C_41
                            x       y       z     vdW  Elec       q    Type
                         _______ _______ _______ _____ _____    ______ ____

>  <TORSDO>
F 12

$$$$
=
 OpenBabel11042410473D

 49 54  0  0  1  0  0  0  0  0999 V2000
  183.0080  178.5180  138.7320 C   0  0  1  0  0  3  0  0  0  0  0  0
  186.0380  177.9860  143.3390 C   0  0  0  0  0  0  0  0  0  0  0  0
  188.5410  177.2840  144.4580 C   0  0  0  0  0  0  0  0  0  0  0  0
  184.4950  178.4180  138.3870 C   0  0  0  0  0  2  0  0  0  0  0  0
  187.2180  178.0300  142.5440 C   0  0  0  0  0  0  0  0  0  0  0  0
  185.2760  178.9420  139.5990 C   0  0  2  0  0  3  0  0  0  0  0  0
  184.6530  178.2040  142.7720 C   0  0  2  0  0  3  0  0  0  0  0  0
  187.3800  177.2480  145.2370 C   0  0  0  0  0  3  0  0  0  0  0  0
  181.8490  179.1130  140.8930 O   0  0  0  0  0  1  0  0  0  0  0  0
  186.3150  177.9220  140.1170 C   0  0  2  0  0  3  0  0  0  0  0  0
  184.5010  179.5220  142.0390 C   0  0  0  0  0  2  0  0  0  0  0  0
  186.1480  177.5870  144.6810 C   0  0  0  0  0  3  0  0  0  0  0  0
  184.2180  179.2070  140.6090 C   0  0  0  0  0  0  0  0  0  0  0  0
  188.4470  177.6850  143.1200 C   0  0  0  0  0  3  0  0  0  0  0  0
  183.0080  178.9770  140.1380 C   0  0  0  0  0  0  0  0  0  0  0  0
  187.3350  179.9420  141.0950 O   0  0  0  0  0  1  0  0  0  0  0  0
  183.6610  178.1020  143.7490 O   0  0  0  0  0  1  0  0  0  0  0  0
  187.2920  178.5450  141.1320 C   0  0  1  0  0  3  0  0  0  0  0  0
  179.3390  176.0600  135.3880 C   0  0  0  0  0  2  0  0  0  0  0  0
  179.3970  175.5800  136.7100 O   0  0  0  0  0  0  0  0  0  0  0  0
  180.5130  177.0150  138.2260 C   0  0  0  0  0  2  0  0  0  0  0  0
  179.0360  178.3630  136.4820 C   0  0  2  0  0  3  0  0  0  0  0  0
  181.0720  179.4060  137.3050 C   0  0  0  0  0  0  0  0  0  0  0  0
  180.6540  180.3130  136.4880 N   0  0  0  0  0  0  0  0  0  0  0  0
  179.5370  177.5730  135.2720 C   0  0  0  0  0  2  0  0  0  0  0  0
  178.9770  180.1060  135.9610 S   0  0  0  0  0  0  0  0  0  0  0  0
  180.0480  178.3620  137.6400 C   0  0  2  0  0  3  0  0  0  0  0  0
  180.6630  175.8980  137.2050 C   0  0  0  0  0  2  0  0  0  0  0  0
  182.3780  179.5190  137.8850 N   0  0  0  0  0  2  0  0  0  0  0  0
  189.8070  176.9030  145.0160 N   0  0  0  0  0  0  0  0  0  0  0  0
  189.9480  176.5730  146.3720 N   0  0  0  0  0  2  0  0  0  0  0  0
  192.0920  176.5420  145.2650 C   0  0  0  0  0  2  0  0  0  0  0  0
  191.3860  176.6040  146.6120 C   0  0  2  0  0  3  0  0  0  0  0  0
  191.0500  176.9700  144.2750 C   0  0  0  0  0  2  0  0  0  0  0  0
  191.7910  175.4440  147.5060 C   0  0  0  0  0  2  0  0  0  0  0  0
  192.9550  175.8480  148.3950 C   0  0  0  0  0  2  0  0  0  0  0  0
  192.5690  176.9170  149.2420 O   0  0  0  0  0  0  0  0  0  0  0  0
  193.5370  177.6260  149.9470 C   0  0  0  0  0  3  0  0  0  0  0  0
  194.6250  177.0740  150.2520 O   0  0  0  0  0  0  0  0  0  0  0  0
  187.1330  177.3580  138.9630 C   0  0  0  0  0  2  0  0  0  0  0  0
  188.0910  178.4010  138.4190 C   0  0  0  0  0  2  0  0  0  0  0  0
  187.9910  178.4470  136.9070 C   0  0  0  0  0  2  0  0  0  0  0  0
  188.7540  177.2810  136.2890 C   0  0  0  0  0  2  0  0  0  0  0  0
  187.8650  176.3770  135.4320 C   0  0  2  0  0  3  0  0  0  0  0  0
  186.4450  176.9150  135.3060 C   0  0  0  0  0  1  0  0  0  0  0  0
  188.9270  174.4120  136.7870 C   0  0  0  0  0  1  0  0  0  0  0  0
  186.0030  173.4000  135.1120 O   0  0  0  0  0  0  0  0  0  0  0  0
  186.9200  174.1490  135.4770 C   0  0  0  0  0  0  0  0  0  0  0  0
  187.8830  174.9380  135.8610 C   0  0  0  0  0  0  0  0  0  0  0  0
  1 29  1  6  0  0  0
  1 15  1  0  0  0  0
  2 12  1  0  0  0  0
  3 30  1  0  0  0  0
  3  8  1  0  0  0  0
  4  1  1  0  0  0  0
  5 14  1  0  0  0  0
  5  2  2  0  0  0  0
  6  4  1  6  0  0  0
  6 10  1  0  0  0  0
  6 13  1  0  0  0  0
  7  2  1  0  0  0  0
  7 17  1  1  0  0  0
 10 40  1  6  0  0  0
 10 18  1  0  0  0  0
 11  7  1  0  0  0  0
 12  8  2  0  0  0  0
 13 11  1  0  0  0  0
 14  3  2  0  0  0  0
 15 13  2  0  0  0  0
 15  9  1  0  0  0  0
 18 16  1  1  0  0  0
 18  5  1  0  0  0  0
 19 20  1  0  0  0  0
 20 28  1  0  0  0  0
 22 25  1  6  0  0  0
 22 27  1  0  0  0  0
 23 27  1  0  0  0  0
 23 29  1  0  0  0  0
 24 23  2  0  0  0  0
 25 19  1  0  0  0  0
 26 22  1  0  0  0  0
 26 24  1  0  0  0  0
 27 21  1  6  0  0  0
 28 21  1  0  0  0  0
 30 31  1  0  0  0  0
 31 33  1  0  0  0  0
 32 33  1  0  0  0  0
 33 35  1  1  0  0  0
 34 30  1  0  0  0  0
 34 32  1  0  0  0  0
 35 36  1  0  0  0  0
 36 37  1  0  0  0  0
 37 38  1  0  0  0  0
 38 39  2  0  0  0  0
 41 40  1  0  0  0  0
 42 41  1  0  0  0  0
 43 42  1  0  0  0  0
 44 45  1  1  0  0  0
 44 49  1  0  0  0  0
 44 43  1  0  0  0  0
 47 48  2  0  0  0  0
 48 49  2  0  0  0  0
 49 46  1  0  0  0  0
M  END
>  <MODEL>
7

>  <REMARK>
 VINA RESULT:      -5.5      4.823     10.975
  Name = 
  12 active torsions:
  status: ('A' for Active; 'I' for Inactive)
    1  A    between atoms: C_1  and  C_24
    2  A    between atoms: C_1  and  C_27
    3  A    between atoms: N_2  and  C_14
    4  A    between atoms: O_4  and  C_13
    5  A    between atoms: O_4  and  C_29
    6  A    between atoms: C_7  and  C_9
    7  A    between atoms: C_9  and  C_29
    8  A    between atoms: C_11  and  N_48
    9  A    between atoms: C_27  and  C_40
   10  A    between atoms: C_32  and  C_38
   11  A    between atoms: C_32  and  C_41
   12  A    between atoms: C_40  and  C_41
                            x       y       z     vdW  Elec       q    Type
                         _______ _______ _______ _____ _____    ______ ____

>  <TORSDO>
F 12

$$$$
