=
 OpenBabel11032420133D

 36 38  0  0  1  0  0  0  0  0999 V2000
  189.2160  176.8950  138.9810 C   0  0  2  0  0  3  0  0  0  0  0  0
  189.2780  175.8870  137.8420 C   0  0  0  0  0  0  0  0  0  0  0  0
  186.8560  176.3460  137.6160 C   0  0  0  0  0  2  0  0  0  0  0  0
  188.3020  178.1130  138.7060 C   0  0  2  0  0  3  0  0  0  0  0  0
  187.1530  177.8360  137.7050 C   0  0  2  0  0  3  0  0  0  0  0  0
  188.1100  175.6140  137.2140 C   0  0  0  0  0  0  0  0  0  0  0  0
  188.0320  174.7330  136.1940 F   0  0  0  0  0  0  0  0  0  0  0  0
  190.5700  175.1690  137.4970 C   0  0  0  0  0  0  0  0  0  0  0  0
  191.4390  175.1430  138.5630 F   0  0  0  0  0  0  0  0  0  0  0  0
  190.2870  173.8660  137.1610 F   0  0  0  0  0  0  0  0  0  0  0  0
  191.2400  175.8350  136.3120 C   0  0  0  0  0  3  0  0  0  0  0  0
  192.5040  176.2720  136.6350 F   0  0  0  0  0  0  0  0  0  0  0  0
  190.4880  176.9040  135.8710 F   0  0  0  0  0  0  0  0  0  0  0  0
  188.9890  179.3120  138.4230 O   0  0  0  0  0  0  0  0  0  0  0  0
  189.1020  179.4540  137.0360 C   0  0  0  0  0  1  0  0  0  0  0  0
  190.4640  177.1600  139.7720 C   0  0  0  0  0  0  0  0  0  0  0  0
  191.4840  177.6500  139.2120 O   0  0  0  0  0  0  0  0  0  0  0  0
  190.5230  176.8370  141.1940 C   0  0  0  0  0  0  0  0  0  0  0  0
  191.2740  176.6290  143.3880 N   0  0  0  0  0  0  0  0  0  0  0  0
  190.1150  175.8960  143.0930 N   0  0  0  0  0  0  0  0  0  0  0  0
  189.7290  176.0110  141.7650 N   0  0  0  0  0  0  0  0  0  0  0  0
  191.5520  177.3520  142.1370 C   0  0  0  0  0  2  0  0  0  0  0  0
  186.0060  178.5390  138.0800 O   0  0  0  0  0  0  0  0  0  0  0  0
  184.9700  177.5910  138.0800 C   0  0  0  0  0  2  0  0  0  0  0  0
  184.1260  177.7660  139.3310 C   0  0  0  0  0  2  0  0  0  0  0  0
  184.0260  179.2390  139.7080 C   0  0  0  0  0  2  0  0  0  0  0  0
  185.1400  179.6550  140.5000 O   0  0  0  0  0  0  0  0  0  0  0  0
  186.9790  177.8540  143.1780 C   0  0  0  0  0  3  0  0  0  0  0  0
  186.0800  177.9840  144.2510 C   0  0  0  0  0  0  0  0  0  0  0  0
  185.4800  179.0960  141.7360 C   0  0  0  0  0  0  0  0  0  0  0  0
  183.8920  178.8530  145.1660 C   0  0  0  0  0  1  0  0  0  0  0  0
  184.5910  179.2380  142.8050 C   0  0  0  0  0  3  0  0  0  0  0  0
  184.8800  178.6870  144.0550 C   0  0  0  0  0  0  0  0  0  0  0  0
  186.6770  178.4040  141.9320 C   0  0  0  0  0  3  0  0  0  0  0  0
  186.3240  177.3940  145.4920 O   0  0  0  0  0  0  0  0  0  0  0  0
  187.5590  177.5450  146.1790 C   0  0  0  0  0  1  0  0  0  0  0  0
  1 16  1  6  0  0  0
  2  1  1  0  0  0  0
  3  5  1  0  0  0  0
  4 14  1  6  0  0  0
  4  1  1  0  0  0  0
  5 23  1  1  0  0  0
  5  4  1  0  0  0  0
  6  3  1  0  0  0  0
  6  2  2  0  0  0  0
  7  6  1  0  0  0  0
  8  2  1  0  0  0  0
  8  9  1  0  0  0  0
 10  8  1  0  0  0  0
 11 12  1  0  0  0  0
 11  8  1  0  0  0  0
 13 11  1  0  0  0  0
 15 14  1  0  0  0  0
 16 18  1  0  0  0  0
 17 16  2  0  0  0  0
 18 21  2  0  0  0  0
 18 22  1  0  0  0  0
 20 19  2  0  0  0  0
 21 20  1  0  0  0  0
 22 19  1  0  0  0  0
 24 23  1  0  0  0  0
 24 25  1  0  0  0  0
 25 26  1  0  0  0  0
 26 27  1  0  0  0  0
 27 30  1  0  0  0  0
 28 29  1  0  0  0  0
 29 35  1  0  0  0  0
 30 34  1  0  0  0  0
 30 32  2  0  0  0  0
 32 33  1  0  0  0  0
 33 29  2  0  0  0  0
 33 31  1  0  0  0  0
 34 28  2  0  0  0  0
 35 36  1  0  0  0  0
M  END
>  <MODEL>
1

>  <REMARK>
 VINA RESULT:      -7.2      0.000      0.000
  Name = 
  12 active torsions:
  status: ('A' for Active; 'I' for Inactive)
    1  A    between atoms: C_2  and  O_22
    2  A    between atoms: C_3  and  C_18
    3  A    between atoms: C_4  and  C_6
    4  A    between atoms: C_5  and  C_18
    5  A    between atoms: C_6  and  C_8
    6  A    between atoms: O_7  and  C_9
    7  A    between atoms: O_7  and  C_14
    8  A    between atoms: C_9  and  C_16
    9  A    between atoms: O_10  and  C_19
   10  A    between atoms: C_16  and  C_30
   11  A    between atoms: C_23  and  O_36
   12  A    between atoms: C_30  and  O_36
                            x       y       z     vdW  Elec       q    Type
                         _______ _______ _______ _____ _____    ______ ____

>  <TORSDO>
F 12

$$$$
=
 OpenBabel11032420133D

 36 38  0  0  1  0  0  0  0  0999 V2000
  189.1800  176.3900  138.3220 C   0  0  2  0  0  3  0  0  0  0  0  0
  188.1880  177.4710  138.7330 C   0  0  0  0  0  0  0  0  0  0  0  0
  189.3560  177.3820  140.9140 C   0  0  0  0  0  2  0  0  0  0  0  0
  190.6140  176.6020  138.8620 C   0  0  2  0  0  3  0  0  0  0  0  0
  190.6880  177.4170  140.1770 C   0  0  2  0  0  3  0  0  0  0  0  0
  188.2760  177.9140  140.0100 C   0  0  0  0  0  0  0  0  0  0  0  0
  187.4490  178.8630  140.4970 F   0  0  0  0  0  0  0  0  0  0  0  0
  187.1100  177.9520  137.7800 C   0  0  0  0  0  0  0  0  0  0  0  0
  186.6300  176.9290  136.9950 F   0  0  0  0  0  0  0  0  0  0  0  0
  186.0530  178.4470  138.5070 F   0  0  0  0  0  0  0  0  0  0  0  0
  187.6460  179.0610  136.8970 C   0  0  0  0  0  3  0  0  0  0  0  0
  187.4440  178.7790  135.5650 F   0  0  0  0  0  0  0  0  0  0  0  0
  188.9950  179.2470  137.1230 F   0  0  0  0  0  0  0  0  0  0  0  0
  191.5470  177.0440  137.9000 O   0  0  0  0  0  0  0  0  0  0  0  0
  192.5760  176.1030  137.7990 C   0  0  0  0  0  1  0  0  0  0  0  0
  189.0640  175.7960  136.9480 C   0  0  0  0  0  0  0  0  0  0  0  0
  189.4360  176.4510  135.9350 O   0  0  0  0  0  0  0  0  0  0  0  0
  188.4990  174.4630  136.7620 C   0  0  0  0  0  0  0  0  0  0  0  0
  188.3060  172.1600  136.4820 N   0  0  0  0  0  0  0  0  0  0  0  0
  187.1270  172.8810  136.2420 N   0  0  0  0  0  0  0  0  0  0  0  0
  187.2980  174.2530  136.3750 N   0  0  0  0  0  0  0  0  0  0  0  0
  189.2600  173.1940  136.9160 C   0  0  0  0  0  2  0  0  0  0  0  0
  191.7090  176.9260  140.9940 O   0  0  0  0  0  0  0  0  0  0  0  0
  191.6140  177.6550  142.1900 C   0  0  0  0  0  2  0  0  0  0  0  0
  191.5920  176.6940  143.3660 C   0  0  0  0  0  2  0  0  0  0  0  0
  191.1370  177.4070  144.6340 C   0  0  0  0  0  2  0  0  0  0  0  0
  190.0110  176.7560  145.2260 O   0  0  0  0  0  0  0  0  0  0  0  0
  186.7100  177.3740  143.6390 C   0  0  0  0  0  3  0  0  0  0  0  0
  186.0130  177.9730  144.7020 C   0  0  0  0  0  0  0  0  0  0  0  0
  188.6830  177.1450  145.0260 C   0  0  0  0  0  0  0  0  0  0  0  0
  185.9630  178.7750  147.0980 C   0  0  0  0  0  1  0  0  0  0  0  0
  187.9870  177.7280  146.0890 C   0  0  0  0  0  3  0  0  0  0  0  0
  186.6630  178.1440  145.9360 C   0  0  0  0  0  0  0  0  0  0  0  0
  188.0350  176.9680  143.8020 C   0  0  0  0  0  3  0  0  0  0  0  0
  184.7080  178.4450  144.5540 O   0  0  0  0  0  0  0  0  0  0  0  0
  184.2770  179.1490  143.3970 C   0  0  0  0  0  1  0  0  0  0  0  0
  1 16  1  6  0  0  0
  1  2  1  0  0  0  0
  1  4  1  0  0  0  0
  2  6  2  0  0  0  0
  4 14  1  6  0  0  0
  4  5  1  0  0  0  0
  5  3  1  0  0  0  0
  5 23  1  1  0  0  0
  6  7  1  0  0  0  0
  6  3  1  0  0  0  0
  8 10  1  0  0  0  0
  8  2  1  0  0  0  0
  9  8  1  0  0  0  0
 11 13  1  0  0  0  0
 11  8  1  0  0  0  0
 12 11  1  0  0  0  0
 15 14  1  0  0  0  0
 17 16  2  0  0  0  0
 18 22  1  0  0  0  0
 18 16  1  0  0  0  0
 19 22  1  0  0  0  0
 20 21  1  0  0  0  0
 20 19  2  0  0  0  0
 21 18  2  0  0  0  0
 23 24  1  0  0  0  0
 24 25  1  0  0  0  0
 25 26  1  0  0  0  0
 26 27  1  0  0  0  0
 28 34  2  0  0  0  0
 28 29  1  0  0  0  0
 29 33  2  0  0  0  0
 30 27  1  0  0  0  0
 30 32  2  0  0  0  0
 33 32  1  0  0  0  0
 33 31  1  0  0  0  0
 34 30  1  0  0  0  0
 35 29  1  0  0  0  0
 36 35  1  0  0  0  0
M  END
>  <MODEL>
2

>  <REMARK>
 VINA RESULT:      -7.0      3.197      5.232
  Name = 
  12 active torsions:
  status: ('A' for Active; 'I' for Inactive)
    1  A    between atoms: C_2  and  O_22
    2  A    between atoms: C_3  and  C_18
    3  A    between atoms: C_4  and  C_6
    4  A    between atoms: C_5  and  C_18
    5  A    between atoms: C_6  and  C_8
    6  A    between atoms: O_7  and  C_9
    7  A    between atoms: O_7  and  C_14
    8  A    between atoms: C_9  and  C_16
    9  A    between atoms: O_10  and  C_19
   10  A    between atoms: C_16  and  C_30
   11  A    between atoms: C_23  and  O_36
   12  A    between atoms: C_30  and  O_36
                            x       y       z     vdW  Elec       q    Type
                         _______ _______ _______ _____ _____    ______ ____

>  <TORSDO>
F 12

$$$$
=
 OpenBabel11032420133D

 36 38  0  0  1  0  0  0  0  0999 V2000
  181.7510  177.8660  140.1500 C   0  0  2  0  0  3  0  0  0  0  0  0
  181.5430  178.4660  141.5340 C   0  0  0  0  0  0  0  0  0  0  0  0
  184.0160  178.4960  141.6350 C   0  0  0  0  0  2  0  0  0  0  0  0
  182.9220  178.4900  139.3540 C   0  0  2  0  0  3  0  0  0  0  0  0
  184.0440  179.0930  140.2350 C   0  0  2  0  0  3  0  0  0  0  0  0
  182.6610  178.7340  142.2490 C   0  0  0  0  0  0  0  0  0  0  0  0
  182.6100  179.2600  143.4910 F   0  0  0  0  0  0  0  0  0  0  0  0
  180.1510  178.6640  142.1040 C   0  0  0  0  0  0  0  0  0  0  0  0
  179.2550  177.7530  141.5910 F   0  0  0  0  0  0  0  0  0  0  0  0
  180.1900  178.4860  143.4660 F   0  0  0  0  0  0  0  0  0  0  0  0
  179.6620  180.0710  141.8180 C   0  0  0  0  0  3  0  0  0  0  0  0
  180.4000  180.6610  140.8180 F   0  0  0  0  0  0  0  0  0  0  0  0
  179.7370  180.8470  142.9570 F   0  0  0  0  0  0  0  0  0  0  0  0
  182.5300  179.3550  138.3110 O   0  0  0  0  0  0  0  0  0  0  0  0
  182.6500  180.6780  138.7480 C   0  0  0  0  0  1  0  0  0  0  0  0
  180.5440  177.4610  139.3560 C   0  0  0  0  0  0  0  0  0  0  0  0
  179.8210  178.3340  138.8000 O   0  0  0  0  0  0  0  0  0  0  0  0
  180.1760  176.0540  139.2320 C   0  0  0  0  0  0  0  0  0  0  0  0
  179.1370  174.0900  138.5350 N   0  0  0  0  0  0  0  0  0  0  0  0
  179.9100  173.9640  139.6990 N   0  0  0  0  0  0  0  0  0  0  0  0
  180.4720  175.1660  140.1050 N   0  0  0  0  0  2  0  0  0  0  0  0
  179.3470  175.4900  138.1320 C   0  0  0  0  0  3  0  0  0  0  0  0
  185.2900  178.8830  139.6420 O   0  0  0  0  0  0  0  0  0  0  0  0
  186.1790  178.6620  140.7060 C   0  0  0  0  0  2  0  0  0  0  0  0
  187.5240  178.2190  140.1570 C   0  0  0  0  0  2  0  0  0  0  0  0
  188.5840  178.2390  141.2510 C   0  0  0  0  0  2  0  0  0  0  0  0
  188.3640  177.2050  142.2130 O   0  0  0  0  0  0  0  0  0  0  0  0
  188.8270  177.5340  145.8840 C   0  0  0  0  0  3  0  0  0  0  0  0
  187.5270  177.8920  146.2840 C   0  0  0  0  0  0  0  0  0  0  0  0
  188.1150  177.4330  143.5700 C   0  0  0  0  0  0  0  0  0  0  0  0
  185.1290  178.4120  145.6840 C   0  0  0  0  0  1  0  0  0  0  0  0
  186.8260  177.8030  143.9640 C   0  0  0  0  0  3  0  0  0  0  0  0
  186.5260  178.0310  145.3090 C   0  0  0  0  0  0  0  0  0  0  0  0
  189.1130  177.3030  144.5380 C   0  0  0  0  0  3  0  0  0  0  0  0
  187.1930  178.0700  147.6270 O   0  0  0  0  0  0  0  0  0  0  0  0
  188.0250  177.6180  148.6870 C   0  0  0  0  0  1  0  0  0  0  0  0
  1 16  1  6  0  0  0
  1  2  1  0  0  0  0
  2  8  1  0  0  0  0
  2  6  2  0  0  0  0
  3  6  1  0  0  0  0
  4 14  1  6  0  0  0
  4  1  1  0  0  0  0
  4  5  1  0  0  0  0
  5 23  1  6  0  0  0
  5  3  1  0  0  0  0
  6  7  1  0  0  0  0
  8 10  1  0  0  0  0
  9  8  1  0  0  0  0
 11  8  1  0  0  0  0
 11 13  1  0  0  0  0
 12 11  1  0  0  0  0
 14 15  1  0  0  0  0
 17 16  2  0  0  0  0
 18 16  1  0  0  0  0
 18 21  1  0  0  0  0
 19 20  2  0  0  0  0
 20 21  1  0  0  0  0
 22 19  1  0  0  0  0
 22 18  2  0  0  0  0
 23 24  1  0  0  0  0
 25 24  1  0  0  0  0
 25 26  1  0  0  0  0
 26 27  1  0  0  0  0
 27 30  1  0  0  0  0
 28 29  1  0  0  0  0
 29 35  1  0  0  0  0
 30 32  2  0  0  0  0
 30 34  1  0  0  0  0
 32 33  1  0  0  0  0
 33 31  1  0  0  0  0
 33 29  2  0  0  0  0
 34 28  2  0  0  0  0
 35 36  1  0  0  0  0
M  END
>  <MODEL>
3

>  <REMARK>
 VINA RESULT:      -7.0      5.697      8.379
  Name = 
  12 active torsions:
  status: ('A' for Active; 'I' for Inactive)
    1  A    between atoms: C_2  and  O_22
    2  A    between atoms: C_3  and  C_18
    3  A    between atoms: C_4  and  C_6
    4  A    between atoms: C_5  and  C_18
    5  A    between atoms: C_6  and  C_8
    6  A    between atoms: O_7  and  C_9
    7  A    between atoms: O_7  and  C_14
    8  A    between atoms: C_9  and  C_16
    9  A    between atoms: O_10  and  C_19
   10  A    between atoms: C_16  and  C_30
   11  A    between atoms: C_23  and  O_36
   12  A    between atoms: C_30  and  O_36
                            x       y       z     vdW  Elec       q    Type
                         _______ _______ _______ _____ _____    ______ ____

>  <TORSDO>
F 12

$$$$
=
 OpenBabel11032420133D

 36 38  0  0  1  0  0  0  0  0999 V2000
  182.8140  179.1900  139.6030 C   0  0  2  0  0  3  0  0  0  0  0  0
  183.8990  178.4170  138.8650 C   0  0  0  0  0  0  0  0  0  0  0  0
  185.3520  179.1320  140.7370 C   0  0  0  0  0  2  0  0  0  0  0  0
  182.8570  179.0380  141.1420 C   0  0  2  0  0  3  0  0  0  0  0  0
  184.2600  178.7180  141.7130 C   0  0  2  0  0  3  0  0  0  0  0  0
  185.1330  178.4310  139.4220 C   0  0  0  0  0  0  0  0  0  0  0  0
  186.1810  177.7900  138.8610 F   0  0  0  0  0  0  0  0  0  0  0  0
  183.6190  177.7470  137.5330 C   0  0  0  0  0  0  0  0  0  0  0  0
  182.6030  178.3750  136.8490 F   0  0  0  0  0  0  0  0  0  0  0  0
  184.7470  177.8100  136.7490 F   0  0  0  0  0  0  0  0  0  0  0  0
  183.2620  176.2890  137.7430 C   0  0  0  0  0  3  0  0  0  0  0  0
  182.9670  176.0340  139.0630 F   0  0  0  0  0  0  0  0  0  0  0  0
  184.3040  175.4760  137.3460 F   0  0  0  0  0  0  0  0  0  0  0  0
  181.8520  178.2050  141.6790 O   0  0  0  0  0  0  0  0  0  0  0  0
  181.0710  178.9500  142.5670 C   0  0  0  0  0  1  0  0  0  0  0  0
  181.4530  179.2870  138.9780 C   0  0  0  0  0  0  0  0  0  0  0  0
  180.6890  178.2820  138.9490 O   0  0  0  0  0  0  0  0  0  0  0  0
  181.0010  180.5370  138.3760 C   0  0  0  0  0  0  0  0  0  0  0  0
  179.8060  182.0760  137.1010 N   0  0  0  0  0  0  0  0  0  0  0  0
  180.9920  182.5730  137.6600 N   0  0  0  0  0  0  0  0  0  0  0  0
  181.6970  181.6120  138.3720 N   0  0  0  0  0  2  0  0  0  0  0  0
  179.7270  180.7030  137.6250 C   0  0  0  0  0  3  0  0  0  0  0  0
  184.4390  179.3570  142.9420 O   0  0  0  0  0  0  0  0  0  0  0  0
  184.5930  178.3240  143.8810 C   0  0  0  0  0  2  0  0  0  0  0  0
  184.4940  178.8990  145.2840 C   0  0  0  0  0  2  0  0  0  0  0  0
  185.8300  178.7830  146.0070 C   0  0  0  0  0  2  0  0  0  0  0  0
  186.8170  178.1560  145.1860 O   0  0  0  0  0  0  0  0  0  0  0  0
  189.6140  177.0340  147.3580 C   0  0  0  0  0  3  0  0  0  0  0  0
  190.6870  177.0720  146.4490 C   0  0  0  0  0  0  0  0  0  0  0  0
  188.0900  177.7850  145.6310 C   0  0  0  0  0  0  0  0  0  0  0  0
  191.5520  177.5140  144.1180 C   0  0  0  0  0  1  0  0  0  0  0  0
  189.1520  177.8100  144.7220 C   0  0  0  0  0  3  0  0  0  0  0  0
  190.4440  177.4600  145.1210 C   0  0  0  0  0  0  0  0  0  0  0  0
  188.3300  177.3920  146.9490 C   0  0  0  0  0  3  0  0  0  0  0  0
  191.9940  176.7790  146.8410 O   0  0  0  0  0  0  0  0  0  0  0  0
  192.3050  175.7120  147.7270 C   0  0  0  0  0  1  0  0  0  0  0  0
  1 16  1  6  0  0  0
  1  4  1  0  0  0  0
  2  6  2  0  0  0  0
  2  1  1  0  0  0  0
  3  5  1  0  0  0  0
  4 14  1  6  0  0  0
  4  5  1  0  0  0  0
  5 23  1  1  0  0  0
  6  3  1  0  0  0  0
  7  6  1  0  0  0  0
  8 11  1  0  0  0  0
  8  2  1  0  0  0  0
  9  8  1  0  0  0  0
 10  8  1  0  0  0  0
 11 12  1  0  0  0  0
 13 11  1  0  0  0  0
 14 15  1  0  0  0  0
 17 16  2  0  0  0  0
 18 16  1  0  0  0  0
 19 22  1  0  0  0  0
 19 20  2  0  0  0  0
 20 21  1  0  0  0  0
 21 18  1  0  0  0  0
 22 18  2  0  0  0  0
 23 24  1  0  0  0  0
 24 25  1  0  0  0  0
 25 26  1  0  0  0  0
 27 30  1  0  0  0  0
 27 26  1  0  0  0  0
 29 35  1  0  0  0  0
 29 28  2  0  0  0  0
 30 34  2  0  0  0  0
 31 33  1  0  0  0  0
 32 33  2  0  0  0  0
 32 30  1  0  0  0  0
 33 29  1  0  0  0  0
 34 28  1  0  0  0  0
 35 36  1  0  0  0  0
M  END
>  <MODEL>
4

>  <REMARK>
 VINA RESULT:      -6.9      5.110      7.767
  Name = 
  12 active torsions:
  status: ('A' for Active; 'I' for Inactive)
    1  A    between atoms: C_2  and  O_22
    2  A    between atoms: C_3  and  C_18
    3  A    between atoms: C_4  and  C_6
    4  A    between atoms: C_5  and  C_18
    5  A    between atoms: C_6  and  C_8
    6  A    between atoms: O_7  and  C_9
    7  A    between atoms: O_7  and  C_14
    8  A    between atoms: C_9  and  C_16
    9  A    between atoms: O_10  and  C_19
   10  A    between atoms: C_16  and  C_30
   11  A    between atoms: C_23  and  O_36
   12  A    between atoms: C_30  and  O_36
                            x       y       z     vdW  Elec       q    Type
                         _______ _______ _______ _____ _____    ______ ____

>  <TORSDO>
F 12

$$$$
=
 OpenBabel11032420133D

 36 38  0  0  1  0  0  0  0  0999 V2000
  183.4140  178.4440  140.4960 C   0  0  2  0  0  3  0  0  0  0  0  0
  182.0880  179.1610  140.7110 C   0  0  0  0  0  0  0  0  0  0  0  0
  182.3300  178.4050  143.0560 C   0  0  0  0  0  2  0  0  0  0  0  0
  184.4260  178.6110  141.6550 C   0  0  2  0  0  3  0  0  0  0  0  0
  183.7770  178.8760  143.0360 C   0  0  2  0  0  3  0  0  0  0  0  0
  181.5670  179.1000  141.9600 C   0  0  0  0  0  0  0  0  0  0  0  0
  180.3940  179.6890  142.2760 F   0  0  0  0  0  0  0  0  0  0  0  0
  181.3590  179.8290  139.5600 C   0  0  0  0  0  0  0  0  0  0  0  0
  180.5460  180.8500  139.9950 F   0  0  0  0  0  0  0  0  0  0  0  0
  182.2800  180.3720  138.6960 F   0  0  0  0  0  0  0  0  0  0  0  0
  180.5330  178.8100  138.8010 C   0  0  0  0  0  3  0  0  0  0  0  0
  179.2650  179.2840  138.5500 F   0  0  0  0  0  0  0  0  0  0  0  0
  180.4440  177.6330  139.5160 F   0  0  0  0  0  0  0  0  0  0  0  0
  185.4940  179.4920  141.3820 O   0  0  0  0  0  0  0  0  0  0  0  0
  186.6970  178.7840  141.4560 C   0  0  0  0  0  1  0  0  0  0  0  0
  183.9870  178.3990  139.1090 C   0  0  0  0  0  0  0  0  0  0  0  0
  184.6880  179.3550  138.6750 O   0  0  0  0  0  0  0  0  0  0  0  0
  183.7250  177.2600  138.2350 C   0  0  0  0  0  0  0  0  0  0  0  0
  183.3700  175.9630  136.3350 N   0  0  0  0  0  0  0  0  0  0  0  0
  183.0640  175.3250  137.5460 N   0  0  0  0  0  0  0  0  0  0  0  0
  183.2450  176.1470  138.6490 N   0  0  0  0  0  2  0  0  0  0  0  0
  183.9000  177.2690  136.7580 C   0  0  0  0  0  3  0  0  0  0  0  0
  184.5090  178.2430  144.0430 O   0  0  0  0  0  0  0  0  0  0  0  0
  184.2240  178.9590  145.2170 C   0  0  0  0  0  2  0  0  0  0  0  0
  185.5220  179.2770  145.9400 C   0  0  0  0  0  2  0  0  0  0  0  0
  186.0800  178.0310  146.6160 C   0  0  0  0  0  2  0  0  0  0  0  0
  187.5040  177.9750  146.5180 O   0  0  0  0  0  0  0  0  0  0  0  0
  188.3790  176.3220  143.3080 C   0  0  0  0  0  3  0  0  0  0  0  0
  189.6730  176.8280  143.0930 C   0  0  0  0  0  0  0  0  0  0  0  0
  188.2000  177.5820  145.3700 C   0  0  0  0  0  0  0  0  0  0  0  0
  191.5910  178.2940  143.8400 C   0  0  0  0  0  1  0  0  0  0  0  0
  189.4800  178.0970  145.1510 C   0  0  0  0  0  3  0  0  0  0  0  0
  190.2190  177.7270  144.0250 C   0  0  0  0  0  0  0  0  0  0  0  0
  187.6530  176.6960  144.4390 C   0  0  0  0  0  3  0  0  0  0  0  0
  190.4490  176.4280  142.0040 O   0  0  0  0  0  0  0  0  0  0  0  0
  190.2160  176.9040  140.6850 C   0  0  0  0  0  1  0  0  0  0  0  0
  1 16  1  6  0  0  0
  1  2  1  0  0  0  0
  1  4  1  0  0  0  0
  2  6  2  0  0  0  0
  4 14  1  6  0  0  0
  4  5  1  0  0  0  0
  5  3  1  0  0  0  0
  5 23  1  1  0  0  0
  6  7  1  0  0  0  0
  6  3  1  0  0  0  0
  8  9  1  0  0  0  0
  8  2  1  0  0  0  0
 10  8  1  0  0  0  0
 11 13  1  0  0  0  0
 11  8  1  0  0  0  0
 12 11  1  0  0  0  0
 14 15  1  0  0  0  0
 17 16  2  0  0  0  0
 18 21  1  0  0  0  0
 18 16  1  0  0  0  0
 19 22  1  0  0  0  0
 19 20  2  0  0  0  0
 20 21  1  0  0  0  0
 22 18  2  0  0  0  0
 23 24  1  0  0  0  0
 24 25  1  0  0  0  0
 25 26  1  0  0  0  0
 27 26  1  0  0  0  0
 28 34  1  0  0  0  0
 29 28  2  0  0  0  0
 29 33  1  0  0  0  0
 30 27  1  0  0  0  0
 31 33  1  0  0  0  0
 32 30  1  0  0  0  0
 33 32  2  0  0  0  0
 34 30  2  0  0  0  0
 35 29  1  0  0  0  0
 36 35  1  0  0  0  0
M  END
>  <MODEL>
5

>  <REMARK>
 VINA RESULT:      -6.9      4.961      7.885
  Name = 
  12 active torsions:
  status: ('A' for Active; 'I' for Inactive)
    1  A    between atoms: C_2  and  O_22
    2  A    between atoms: C_3  and  C_18
    3  A    between atoms: C_4  and  C_6
    4  A    between atoms: C_5  and  C_18
    5  A    between atoms: C_6  and  C_8
    6  A    between atoms: O_7  and  C_9
    7  A    between atoms: O_7  and  C_14
    8  A    between atoms: C_9  and  C_16
    9  A    between atoms: O_10  and  C_19
   10  A    between atoms: C_16  and  C_30
   11  A    between atoms: C_23  and  O_36
   12  A    between atoms: C_30  and  O_36
                            x       y       z     vdW  Elec       q    Type
                         _______ _______ _______ _____ _____    ______ ____

>  <TORSDO>
F 12

$$$$
=
 OpenBabel11032420133D

 36 38  0  0  1  0  0  0  0  0999 V2000
  185.0850  177.8700  138.9200 C   0  0  2  0  0  3  0  0  0  0  0  0
  184.2070  176.8680  138.1840 C   0  0  0  0  0  0  0  0  0  0  0  0
  182.8430  176.9020  140.2500 C   0  0  0  0  0  2  0  0  0  0  0  0
  184.3030  178.9090  139.7590 C   0  0  2  0  0  3  0  0  0  0  0  0
  182.9160  178.4230  140.2460 C   0  0  2  0  0  3  0  0  0  0  0  0
  183.1390  176.3880  138.8660 C   0  0  0  0  0  0  0  0  0  0  0  0
  182.2880  175.4890  138.3270 F   0  0  0  0  0  0  0  0  0  0  0  0
  184.5690  176.3740  136.7960 C   0  0  0  0  0  0  0  0  0  0  0  0
  185.9100  176.5380  136.5310 F   0  0  0  0  0  0  0  0  0  0  0  0
  184.2900  175.0310  136.7060 F   0  0  0  0  0  0  0  0  0  0  0  0
  183.7520  177.1060  135.7490 C   0  0  0  0  0  3  0  0  0  0  0  0
  183.1190  178.2020  136.2880 F   0  0  0  0  0  0  0  0  0  0  0  0
  182.8100  176.2620  135.1980 F   0  0  0  0  0  0  0  0  0  0  0  0
  184.2550  180.2030  139.1980 O   0  0  0  0  0  0  0  0  0  0  0  0
  182.9680  180.4380  138.7060 C   0  0  0  0  0  1  0  0  0  0  0  0
  186.3340  178.3590  138.2460 C   0  0  0  0  0  0  0  0  0  0  0  0
  186.2630  179.0770  137.2100 O   0  0  0  0  0  0  0  0  0  0  0  0
  187.6480  177.9940  138.7650 C   0  0  0  0  0  0  0  0  0  0  0  0
  189.7850  177.0860  138.9420 N   0  0  0  0  0  0  0  0  0  0  0  0
  189.2580  177.5840  140.1430 N   0  0  0  0  0  0  0  0  0  0  0  0
  187.9660  178.0730  140.0030 N   0  0  0  0  0  2  0  0  0  0  0  0
  188.7480  177.4120  137.9500 C   0  0  0  0  0  3  0  0  0  0  0  0
  182.6470  178.9260  141.5210 O   0  0  0  0  0  0  0  0  0  0  0  0
  183.7880  178.6330  142.2860 C   0  0  0  0  0  2  0  0  0  0  0  0
  183.7230  179.3930  143.5990 C   0  0  0  0  0  2  0  0  0  0  0  0
  184.5280  178.6760  144.6750 C   0  0  0  0  0  2  0  0  0  0  0  0
  185.5800  177.8920  144.1080 O   0  0  0  0  0  0  0  0  0  0  0  0
  189.1710  177.1110  144.6460 C   0  0  0  0  0  3  0  0  0  0  0  0
  189.2580  177.2130  146.0460 C   0  0  0  0  0  0  0  0  0  0  0  0
  186.8150  177.6670  144.7250 C   0  0  0  0  0  0  0  0  0  0  0  0
  188.1520  177.6800  148.2680 C   0  0  0  0  0  1  0  0  0  0  0  0
  186.9020  177.7830  146.1150 C   0  0  0  0  0  3  0  0  0  0  0  0
  188.1100  177.5570  146.7780 C   0  0  0  0  0  0  0  0  0  0  0  0
  187.9570  177.3330  143.9950 C   0  0  0  0  0  3  0  0  0  0  0  0
  190.4410  176.9380  146.7320 O   0  0  0  0  0  0  0  0  0  0  0  0
  191.6380  176.5540  146.0680 C   0  0  0  0  0  1  0  0  0  0  0  0
  1 16  1  6  0  0  0
  1  4  1  0  0  0  0
  2  6  2  0  0  0  0
  2  1  1  0  0  0  0
  4 14  1  6  0  0  0
  4  5  1  0  0  0  0
  5  3  1  0  0  0  0
  5 23  1  1  0  0  0
  6  3  1  0  0  0  0
  7  6  1  0  0  0  0
  8  2  1  0  0  0  0
  9  8  1  0  0  0  0
 10  8  1  0  0  0  0
 11 12  1  0  0  0  0
 11  8  1  0  0  0  0
 13 11  1  0  0  0  0
 15 14  1  0  0  0  0
 16 18  1  0  0  0  0
 17 16  2  0  0  0  0
 18 21  1  0  0  0  0
 19 20  2  0  0  0  0
 21 20  1  0  0  0  0
 22 18  2  0  0  0  0
 22 19  1  0  0  0  0
 23 24  1  0  0  0  0
 24 25  1  0  0  0  0
 25 26  1  0  0  0  0
 27 26  1  0  0  0  0
 27 30  1  0  0  0  0
 28 29  1  0  0  0  0
 29 35  1  0  0  0  0
 29 33  2  0  0  0  0
 30 32  2  0  0  0  0
 32 33  1  0  0  0  0
 33 31  1  0  0  0  0
 34 28  2  0  0  0  0
 34 30  1  0  0  0  0
 36 35  1  0  0  0  0
M  END
>  <MODEL>
6

>  <REMARK>
 VINA RESULT:      -6.9      2.927      5.148
  Name = 
  12 active torsions:
  status: ('A' for Active; 'I' for Inactive)
    1  A    between atoms: C_2  and  O_22
    2  A    between atoms: C_3  and  C_18
    3  A    between atoms: C_4  and  C_6
    4  A    between atoms: C_5  and  C_18
    5  A    between atoms: C_6  and  C_8
    6  A    between atoms: O_7  and  C_9
    7  A    between atoms: O_7  and  C_14
    8  A    between atoms: C_9  and  C_16
    9  A    between atoms: O_10  and  C_19
   10  A    between atoms: C_16  and  C_30
   11  A    between atoms: C_23  and  O_36
   12  A    between atoms: C_30  and  O_36
                            x       y       z     vdW  Elec       q    Type
                         _______ _______ _______ _____ _____    ______ ____

>  <TORSDO>
F 12

$$$$
=
 OpenBabel11032420133D

 36 38  0  0  1  0  0  0  0  0999 V2000
  183.0790  178.1820  140.0570 C   0  0  2  0  0  3  0  0  0  0  0  0
  181.7910  178.9950  140.0590 C   0  0  0  0  0  0  0  0  0  0  0  0
  181.7930  178.5540  142.4950 C   0  0  0  0  0  2  0  0  0  0  0  0
  184.0040  178.4490  141.2680 C   0  0  2  0  0  3  0  0  0  0  0  0
  183.2660  178.9360  142.5400 C   0  0  2  0  0  3  0  0  0  0  0  0
  181.1690  179.1340  141.2540 C   0  0  0  0  0  0  0  0  0  0  0  0
  180.0160  179.8250  141.3860 F   0  0  0  0  0  0  0  0  0  0  0  0
  181.2020  179.5380  138.7710 C   0  0  0  0  0  0  0  0  0  0  0  0
  181.6220  178.8190  137.6750 F   0  0  0  0  0  0  0  0  0  0  0  0
  179.8310  179.4450  138.8260 F   0  0  0  0  0  0  0  0  0  0  0  0
  181.5780  180.9960  138.5950 C   0  0  0  0  0  3  0  0  0  0  0  0
  181.2720  181.4410  137.3290 F   0  0  0  0  0  0  0  0  0  0  0  0
  182.9260  181.1770  138.8270 F   0  0  0  0  0  0  0  0  0  0  0  0
  185.1460  179.2240  140.9760 O   0  0  0  0  0  0  0  0  0  0  0  0
  186.2800  178.5570  141.4510 C   0  0  0  0  0  1  0  0  0  0  0  0
  183.7560  177.9150  138.7440 C   0  0  0  0  0  0  0  0  0  0  0  0
  184.4270  178.8210  138.1760 O   0  0  0  0  0  0  0  0  0  0  0  0
  183.6300  176.6140  138.0960 C   0  0  0  0  0  0  0  0  0  0  0  0
  182.8620  174.4950  137.5150 N   0  0  0  0  0  0  0  0  0  0  0  0
  184.1290  174.8180  137.0090 N   0  0  0  0  0  0  0  0  0  0  0  0
  184.5690  176.0700  137.4170 N   0  0  0  0  0  0  0  0  0  0  0  0
  182.4430  175.7250  138.2060 C   0  0  0  0  0  2  0  0  0  0  0  0
  183.8720  178.4080  143.6820 O   0  0  0  0  0  0  0  0  0  0  0  0
  184.3410  179.5170  144.4040 C   0  0  0  0  0  2  0  0  0  0  0  0
  184.8000  179.0660  145.7800 C   0  0  0  0  0  2  0  0  0  0  0  0
  185.6470  177.8040  145.6750 C   0  0  0  0  0  2  0  0  0  0  0  0
  186.8770  178.0530  144.9910 O   0  0  0  0  0  0  0  0  0  0  0  0
  189.6310  177.1540  147.3160 C   0  0  0  0  0  3  0  0  0  0  0  0
  190.7130  177.0630  146.4230 C   0  0  0  0  0  0  0  0  0  0  0  0
  188.1380  177.7170  145.4930 C   0  0  0  0  0  0  0  0  0  0  0  0
  191.6080  177.2020  144.0650 C   0  0  0  0  0  1  0  0  0  0  0  0
  189.2090  177.6120  144.6010 C   0  0  0  0  0  3  0  0  0  0  0  0
  190.4900  177.2900  145.0540 C   0  0  0  0  0  0  0  0  0  0  0  0
  188.3570  177.4830  146.8520 C   0  0  0  0  0  3  0  0  0  0  0  0
  192.0110  176.7970  146.8620 O   0  0  0  0  0  0  0  0  0  0  0  0
  192.4280  175.5000  147.2690 C   0  0  0  0  0  1  0  0  0  0  0  0
  1 16  1  6  0  0  0
  1  2  1  0  0  0  0
  1  4  1  0  0  0  0
  2  6  2  0  0  0  0
  3  5  1  0  0  0  0
  4 14  1  6  0  0  0
  4  5  1  0  0  0  0
  5 23  1  1  0  0  0
  6  7  1  0  0  0  0
  6  3  1  0  0  0  0
  8 10  1  0  0  0  0
  8  2  1  0  0  0  0
  9  8  1  0  0  0  0
 11  8  1  0  0  0  0
 11 13  1  0  0  0  0
 12 11  1  0  0  0  0
 14 15  1  0  0  0  0
 17 16  2  0  0  0  0
 18 22  1  0  0  0  0
 18 16  1  0  0  0  0
 19 22  1  0  0  0  0
 20 21  1  0  0  0  0
 20 19  2  0  0  0  0
 21 18  2  0  0  0  0
 23 24  1  0  0  0  0
 24 25  1  0  0  0  0
 26 25  1  0  0  0  0
 27 30  1  0  0  0  0
 27 26  1  0  0  0  0
 29 35  1  0  0  0  0
 29 28  2  0  0  0  0
 30 34  2  0  0  0  0
 31 33  1  0  0  0  0
 32 33  2  0  0  0  0
 32 30  1  0  0  0  0
 33 29  1  0  0  0  0
 34 28  1  0  0  0  0
 35 36  1  0  0  0  0
M  END
>  <MODEL>
7

>  <REMARK>
 VINA RESULT:      -6.7      5.323      7.758
  Name = 
  12 active torsions:
  status: ('A' for Active; 'I' for Inactive)
    1  A    between atoms: C_2  and  O_22
    2  A    between atoms: C_3  and  C_18
    3  A    between atoms: C_4  and  C_6
    4  A    between atoms: C_5  and  C_18
    5  A    between atoms: C_6  and  C_8
    6  A    between atoms: O_7  and  C_9
    7  A    between atoms: O_7  and  C_14
    8  A    between atoms: C_9  and  C_16
    9  A    between atoms: O_10  and  C_19
   10  A    between atoms: C_16  and  C_30
   11  A    between atoms: C_23  and  O_36
   12  A    between atoms: C_30  and  O_36
                            x       y       z     vdW  Elec       q    Type
                         _______ _______ _______ _____ _____    ______ ____

>  <TORSDO>
F 12

$$$$
=
 OpenBabel11032420133D

 36 38  0  0  1  0  0  0  0  0999 V2000
  183.1230  179.0280  138.2720 C   0  0  2  0  0  3  0  0  0  0  0  0
  182.7690  177.5520  138.1490 C   0  0  0  0  0  0  0  0  0  0  0  0
  185.1160  177.2940  137.4060 C   0  0  0  0  0  2  0  0  0  0  0  0
  184.5380  179.3000  138.8340 C   0  0  2  0  0  3  0  0  0  0  0  0
  185.5580  178.1640  138.5730 C   0  0  2  0  0  3  0  0  0  0  0  0
  183.7480  176.7340  137.6950 C   0  0  0  0  0  0  0  0  0  0  0  0
  183.5570  175.4070  137.5350 F   0  0  0  0  0  0  0  0  0  0  0  0
  181.3650  177.0530  138.4380 C   0  0  0  0  0  0  0  0  0  0  0  0
  180.4290  178.0510  138.2920 F   0  0  0  0  0  0  0  0  0  0  0  0
  181.0480  176.0540  137.5480 F   0  0  0  0  0  0  0  0  0  0  0  0
  181.2880  176.4870  139.8420 C   0  0  0  0  0  3  0  0  0  0  0  0
  181.9850  177.2700  140.7340 F   0  0  0  0  0  0  0  0  0  0  0  0
  181.7940  175.2030  139.8730 F   0  0  0  0  0  0  0  0  0  0  0  0
  184.5640  179.7530  140.1700 O   0  0  0  0  0  0  0  0  0  0  0  0
  184.8100  178.6660  141.0150 C   0  0  0  0  0  1  0  0  0  0  0  0
  182.0460  179.9920  138.6780 C   0  0  0  0  0  0  0  0  0  0  0  0
  181.6220  180.0140  139.8680 O   0  0  0  0  0  0  0  0  0  0  0  0
  181.4570  180.9010  137.7000 C   0  0  0  0  0  0  0  0  0  0  0  0
  180.4170  182.7510  136.7420 N   0  0  0  0  0  0  0  0  0  0  0  0
  180.5350  181.6390  135.8940 N   0  0  0  0  0  0  0  0  0  0  0  0
  181.1180  180.5450  136.5190 N   0  0  0  0  0  0  0  0  0  0  0  0
  181.1030  182.3210  137.9710 C   0  0  0  0  0  2  0  0  0  0  0  0
  186.8250  178.6990  138.3290 O   0  0  0  0  0  0  0  0  0  0  0  0
  187.7340  177.7360  138.8000 C   0  0  0  0  0  2  0  0  0  0  0  0
  188.6590  178.3740  139.8220 C   0  0  0  0  0  2  0  0  0  0  0  0
  188.9400  177.4090  140.9670 C   0  0  0  0  0  2  0  0  0  0  0  0
  187.9460  177.5050  141.9890 O   0  0  0  0  0  0  0  0  0  0  0  0
  187.5390  177.6720  145.6770 C   0  0  0  0  0  3  0  0  0  0  0  0
  188.8700  177.4990  146.0990 C   0  0  0  0  0  0  0  0  0  0  0  0
  188.2230  177.5010  143.3600 C   0  0  0  0  0  0  0  0  0  0  0  0
  191.3030  177.1250  145.5320 C   0  0  0  0  0  1  0  0  0  0  0  0
  189.5440  177.3150  143.7760 C   0  0  0  0  0  3  0  0  0  0  0  0
  189.8740  177.3150  145.1340 C   0  0  0  0  0  0  0  0  0  0  0  0
  187.2240  177.6760  144.3190 C   0  0  0  0  0  3  0  0  0  0  0  0
  189.2280  177.5510  147.4470 O   0  0  0  0  0  0  0  0  0  0  0  0
  188.2990  177.8780  148.4710 C   0  0  0  0  0  1  0  0  0  0  0  0
  1 16  1  1  0  0  0
  1  4  1  0  0  0  0
  2  1  1  0  0  0  0
  2  8  1  0  0  0  0
  3  6  1  0  0  0  0
  3  5  1  0  0  0  0
  4 14  1  1  0  0  0
  5 23  1  6  0  0  0
  5  4  1  0  0  0  0
  6  2  2  0  0  0  0
  7  6  1  0  0  0  0
  8 11  1  0  0  0  0
  9  8  1  0  0  0  0
 10  8  1  0  0  0  0
 11 13  1  0  0  0  0
 11 12  1  0  0  0  0
 14 15  1  0  0  0  0
 16 17  2  0  0  0  0
 18 22  1  0  0  0  0
 18 16  1  0  0  0  0
 19 22  1  0  0  0  0
 20 21  1  0  0  0  0
 20 19  2  0  0  0  0
 21 18  2  0  0  0  0
 23 24  1  0  0  0  0
 24 25  1  0  0  0  0
 25 26  1  0  0  0  0
 26 27  1  0  0  0  0
 27 30  1  0  0  0  0
 28 29  1  0  0  0  0
 29 35  1  0  0  0  0
 30 32  2  0  0  0  0
 30 34  1  0  0  0  0
 32 33  1  0  0  0  0
 33 31  1  0  0  0  0
 33 29  2  0  0  0  0
 34 28  2  0  0  0  0
 35 36  1  0  0  0  0
M  END
>  <MODEL>
8

>  <REMARK>
 VINA RESULT:      -6.6      4.886      7.534
  Name = 
  12 active torsions:
  status: ('A' for Active; 'I' for Inactive)
    1  A    between atoms: C_2  and  O_22
    2  A    between atoms: C_3  and  C_18
    3  A    between atoms: C_4  and  C_6
    4  A    between atoms: C_5  and  C_18
    5  A    between atoms: C_6  and  C_8
    6  A    between atoms: O_7  and  C_9
    7  A    between atoms: O_7  and  C_14
    8  A    between atoms: C_9  and  C_16
    9  A    between atoms: O_10  and  C_19
   10  A    between atoms: C_16  and  C_30
   11  A    between atoms: C_23  and  O_36
   12  A    between atoms: C_30  and  O_36
                            x       y       z     vdW  Elec       q    Type
                         _______ _______ _______ _____ _____    ______ ____

>  <TORSDO>
F 12

$$$$
=
 OpenBabel11032420133D

 36 38  0  0  1  0  0  0  0  0999 V2000
  181.5030  179.0290  141.4810 C   0  0  2  0  0  3  0  0  0  0  0  0
  182.6150  178.2230  140.8220 C   0  0  0  0  0  0  0  0  0  0  0  0
  183.9920  179.0120  142.7220 C   0  0  0  0  0  2  0  0  0  0  0  0
  181.4810  178.9420  143.0250 C   0  0  2  0  0  3  0  0  0  0  0  0
  182.8580  178.6430  143.6680 C   0  0  2  0  0  3  0  0  0  0  0  0
  183.8240  178.2570  141.4300 C   0  0  0  0  0  0  0  0  0  0  0  0
  184.8920  177.5900  140.9410 F   0  0  0  0  0  0  0  0  0  0  0  0
  182.3880  177.4970  139.5090 C   0  0  0  0  0  0  0  0  0  0  0  0
  183.0540  176.2940  139.4700 F   0  0  0  0  0  0  0  0  0  0  0  0
  181.0460  177.2330  139.3640 F   0  0  0  0  0  0  0  0  0  0  0  0
  182.8350  178.3620  138.3470 C   0  0  0  0  0  3  0  0  0  0  0  0
  184.0620  177.9620  137.8710 F   0  0  0  0  0  0  0  0  0  0  0  0
  182.9060  179.6860  138.7320 F   0  0  0  0  0  0  0  0  0  0  0  0
  180.4510  178.1350  143.5540 O   0  0  0  0  0  0  0  0  0  0  0  0
  179.6080  178.9300  144.3370 C   0  0  0  0  0  1  0  0  0  0  0  0
  180.1700  179.1030  140.7950 C   0  0  0  0  0  0  0  0  0  0  0  0
  179.3610  178.1360  140.8640 O   0  0  0  0  0  0  0  0  0  0  0  0
  179.7980  180.2840  140.0230 C   0  0  0  0  0  0  0  0  0  0  0  0
  178.9330  182.3650  139.4390 N   0  0  0  0  0  0  0  0  0  0  0  0
  179.3190  181.5650  138.3530 N   0  0  0  0  0  0  0  0  0  0  0  0
  179.7840  180.3160  138.7430 N   0  0  0  0  0  0  0  0  0  0  0  0
  179.3120  181.5620  140.6120 C   0  0  0  0  0  2  0  0  0  0  0  0
  182.9870  179.3330  144.8750 O   0  0  0  0  0  0  0  0  0  0  0  0
  184.3670  179.3800  145.1330 C   0  0  0  0  0  2  0  0  0  0  0  0
  184.6710  178.5950  146.3970 C   0  0  0  0  0  2  0  0  0  0  0  0
  186.0590  178.9390  146.9220 C   0  0  0  0  0  2  0  0  0  0  0  0
  186.9180  177.7980  146.9200 O   0  0  0  0  0  0  0  0  0  0  0  0
  188.3360  176.9430  143.5950 C   0  0  0  0  0  3  0  0  0  0  0  0
  189.7070  176.8760  143.9000 C   0  0  0  0  0  0  0  0  0  0  0  0
  187.8230  177.4950  145.8970 C   0  0  0  0  0  0  0  0  0  0  0  0
  191.5750  177.0780  145.5890 C   0  0  0  0  0  1  0  0  0  0  0  0
  189.1860  177.4440  146.2000 C   0  0  0  0  0  3  0  0  0  0  0  0
  190.1280  177.1350  145.2160 C   0  0  0  0  0  0  0  0  0  0  0  0
  187.4050  177.2460  144.5880 C   0  0  0  0  0  3  0  0  0  0  0  0
  190.6580  176.5150  142.9440 O   0  0  0  0  0  0  0  0  0  0  0  0
  191.2150  177.4510  142.0310 C   0  0  0  0  0  1  0  0  0  0  0  0
  1 16  1  6  0  0  0
  1  4  1  0  0  0  0
  2  6  2  0  0  0  0
  2  1  1  0  0  0  0
  3  5  1  0  0  0  0
  4 14  1  6  0  0  0
  4  5  1  0  0  0  0
  5 23  1  1  0  0  0
  6  3  1  0  0  0  0
  7  6  1  0  0  0  0
  8  2  1  0  0  0  0
  9  8  1  0  0  0  0
 10  8  1  0  0  0  0
 11 13  1  0  0  0  0
 11  8  1  0  0  0  0
 12 11  1  0  0  0  0
 14 15  1  0  0  0  0
 16 17  2  0  0  0  0
 18 22  1  0  0  0  0
 18 16  1  0  0  0  0
 19 22  1  0  0  0  0
 20 21  1  0  0  0  0
 20 19  2  0  0  0  0
 21 18  2  0  0  0  0
 23 24  1  0  0  0  0
 24 25  1  0  0  0  0
 25 26  1  0  0  0  0
 27 26  1  0  0  0  0
 28 29  2  0  0  0  0
 28 34  1  0  0  0  0
 29 33  1  0  0  0  0
 30 32  1  0  0  0  0
 30 27  1  0  0  0  0
 33 31  1  0  0  0  0
 33 32  2  0  0  0  0
 34 30  2  0  0  0  0
 35 29  1  0  0  0  0
 36 35  1  0  0  0  0
M  END
>  <MODEL>
9

>  <REMARK>
 VINA RESULT:      -6.6      5.503      8.594
  Name = 
  12 active torsions:
  status: ('A' for Active; 'I' for Inactive)
    1  A    between atoms: C_2  and  O_22
    2  A    between atoms: C_3  and  C_18
    3  A    between atoms: C_4  and  C_6
    4  A    between atoms: C_5  and  C_18
    5  A    between atoms: C_6  and  C_8
    6  A    between atoms: O_7  and  C_9
    7  A    between atoms: O_7  and  C_14
    8  A    between atoms: C_9  and  C_16
    9  A    between atoms: O_10  and  C_19
   10  A    between atoms: C_16  and  C_30
   11  A    between atoms: C_23  and  O_36
   12  A    between atoms: C_30  and  O_36
                            x       y       z     vdW  Elec       q    Type
                         _______ _______ _______ _____ _____    ______ ____

>  <TORSDO>
F 12

$$$$
