=
 OpenBabel11042411333D

 36 40  0  0  1  0  0  0  0  0999 V2000
  187.6210  178.1860  138.0860 C   0  0  0  0  0  1  0  0  0  0  0  0
  188.7190  177.2380  140.0270 C   0  0  2  0  0  3  0  0  0  0  0  0
  189.5700  176.9290  138.8350 N   0  0  1  0  0  0  0  0  0  0  0  0
  189.0980  177.6510  142.4830 C   0  0  0  0  0  3  0  0  0  0  0  0
  188.8600  178.2170  138.9590 C   0  0  1  0  0  3  0  0  0  0  0  0
  190.3280  177.5660  143.3410 C   0  0  2  0  0  0  0  0  0  0  0  0
  189.5420  177.5320  141.2370 C   0  0  0  0  0  0  0  0  0  0  0  0
  191.6400  176.6950  145.3840 C   0  0  0  0  0  1  0  0  0  0  0  0
  191.0020  177.3130  138.8630 C   0  0  1  0  0  3  0  0  0  0  0  0
  190.9600  177.3120  141.2470 C   0  0  0  0  0  0  0  0  0  0  0  0
  190.3540  177.2900  144.8290 C   0  0  1  0  0  0  0  0  0  0  0  0
  190.5170  178.7170  144.3120 C   0  0  0  0  0  2  0  0  0  0  0  0
  191.6410  177.1220  140.1700 N   0  0  0  0  0  0  0  0  0  0  0  0
  191.4650  177.3110  142.5310 O   0  0  0  0  0  0  0  0  0  0  0  0
  191.7550  176.5350  137.7990 C   0  0  0  0  0  2  0  0  0  0  0  0
  193.1690  176.2410  138.2600 C   0  0  0  0  0  2  0  0  0  0  0  0
  194.0380  176.3230  137.1720 O   0  0  0  0  0  0  0  0  0  0  0  0
  195.0180  174.5340  138.4000 C   0  0  0  0  0  2  0  0  0  0  0  0
  196.2400  173.6900  138.1230 C   0  0  0  0  0  2  0  0  0  0  0  0
  195.8200  175.0800  136.1750 C   0  0  0  0  0  2  0  0  0  0  0  0
  196.9080  174.3320  136.9260 C   0  0  0  0  0  2  0  0  0  0  0  0
  194.5750  175.0410  137.0440 C   0  0  0  0  0  3  0  0  0  0  0  0
  189.0050  177.0230  145.5060 C   0  0  2  0  0  3  0  0  0  0  0  0
  187.9800  178.1210  145.2320 C   0  0  0  0  0  2  0  0  0  0  0  0
  186.5790  177.6030  145.4910 C   0  0  0  0  0  2  0  0  0  0  0  0
  185.6720  178.7630  145.8450 C   0  0  0  0  0  2  0  0  0  0  0  0
  184.3380  178.5900  145.1480 C   0  0  0  0  0  2  0  0  0  0  0  0
  183.0990  179.8560  143.7560 O   0  0  0  0  0  1  0  0  0  0  0  0
  184.3410  179.3360  143.9010 N   0  0  0  0  0  0  0  0  0  0  0  0
  184.5200  178.3620  142.8340 C   0  0  0  0  0  2  0  0  0  0  0  0
  185.1420  179.0240  141.6120 C   0  0  0  0  0  2  0  0  0  0  0  0
  184.6060  179.8880  139.3940 N   0  0  0  0  0  1  0  0  0  0  0  0
  184.2310  178.9060  140.3990 C   0  0  0  0  0  2  0  0  0  0  0  0
  189.1430  176.7190  146.9350 N   0  0  0  0  0  2  0  0  0  0  0  0
  189.2640  177.9420  147.7230 C   0  0  0  0  0  2  0  0  0  0  0  0
  188.2140  177.9440  148.8140 C   0  0  0  0  0  1  0  0  0  0  0  0
  1  5  1  0  0  0  0
  2  7  1  1  0  0  0
  3  9  1  0  0  0  0
  3  5  1  0  0  0  0
  3  2  1  0  0  0  0
  4  6  1  0  0  0  0
  5  2  1  0  0  0  0
  6 12  1  0  0  0  0
  6 11  1  0  0  0  0
  7 10  1  0  0  0  0
  7  4  2  0  0  0  0
  9 13  1  0  0  0  0
 10 14  1  0  0  0  0
 11  8  1  0  0  0  0
 11 23  1  0  0  0  0
 12 11  1  0  0  0  0
 13 10  2  0  0  0  0
 14  6  1  0  0  0  0
 15 16  1  0  0  0  0
 15  9  1  0  0  0  0
 17 16  1  0  0  0  0
 19 18  1  0  0  0  0
 20 21  1  0  0  0  0
 20 22  1  0  0  0  0
 21 19  1  0  0  0  0
 22 17  1  0  0  0  0
 22 18  1  0  0  0  0
 23 34  1  0  0  0  0
 24 25  1  0  0  0  0
 24 23  1  0  0  0  0
 25 26  1  0  0  0  0
 27 26  1  0  0  0  0
 28 29  1  0  0  0  0
 29 27  1  0  0  0  0
 30 29  1  0  0  0  0
 31 30  1  0  0  0  0
 32 33  1  0  0  0  0
 33 31  1  0  0  0  0
 34 35  1  0  0  0  0
 35 36  1  0  0  0  0
M  END
>  <MODEL>
1

>  <REMARK>
 VINA RESULT:      -7.8      0.000      0.000
  Name = 
  15 active torsions:
  status: ('A' for Active; 'I' for Inactive)
    1  A    between atoms: C_1  and  C_16
    2  A    between atoms: C_1  and  C_29
    3  A    between atoms: C_2  and  C_12
    4  A    between atoms: C_2  and  N_17
    5  A    between atoms: C_4  and  C_24
    6  A    between atoms: C_4  and  C_28
    7  A    between atoms: C_8  and  C_14
    8  A    between atoms: C_8  and  N_17
    9  A    between atoms: C_10  and  N_33
   10  A    between atoms: C_12  and  C_29
   11  A    between atoms: C_14  and  C_35
   12  A    between atoms: C_16  and  C_27
   13  A    between atoms: C_16  and  N_33
   14  A    between atoms: O_26  and  C_28
   15  A    between atoms: O_26  and  C_31
                            x       y       z     vdW  Elec       q    Type
                         _______ _______ _______ _____ _____    ______ ____

>  <TORSDO>
F 15

$$$$
=
 OpenBabel11042411333D

 36 40  0  0  1  0  0  0  0  0999 V2000
  187.8770  178.0860  138.1600 C   0  0  0  0  0  1  0  0  0  0  0  0
  188.9160  177.1860  140.1560 C   0  0  2  0  0  3  0  0  0  0  0  0
  189.8040  176.8500  138.9990 N   0  0  1  0  0  0  0  0  0  0  0  0
  189.2200  177.6600  142.6110 C   0  0  0  0  0  3  0  0  0  0  0  0
  189.0890  178.1390  139.0690 C   0  0  1  0  0  3  0  0  0  0  0  0
  190.4240  177.5970  143.5090 C   0  0  2  0  0  0  0  0  0  0  0  0
  189.7020  177.5110  141.3830 C   0  0  0  0  0  0  0  0  0  0  0  0
  191.6720  176.7770  145.6110 C   0  0  0  0  0  1  0  0  0  0  0  0
  191.2340  177.2350  139.0610 C   0  0  1  0  0  3  0  0  0  0  0  0
  191.1190  177.2920  141.4410 C   0  0  0  0  0  0  0  0  0  0  0  0
  190.4050  177.3580  145.0030 C   0  0  1  0  0  0  0  0  0  0  0  0
  190.5830  178.7710  144.4560 C   0  0  0  0  0  2  0  0  0  0  0  0
  191.8320  177.0760  140.3910 N   0  0  0  0  0  0  0  0  0  0  0  0
  191.5850  177.3230  142.7400 O   0  0  0  0  0  0  0  0  0  0  0  0
  192.0180  176.4310  138.0390 C   0  0  0  0  0  2  0  0  0  0  0  0
  191.2010  176.2390  136.7770 C   0  0  0  0  0  2  0  0  0  0  0  0
  191.5150  175.0060  136.2060 O   0  0  0  0  0  0  0  0  0  0  0  0
  189.4580  175.6290  135.1800 C   0  0  0  0  0  2  0  0  0  0  0  0
  188.0310  175.2590  135.5080 C   0  0  0  0  0  2  0  0  0  0  0  0
  189.5030  173.9170  136.9010 C   0  0  0  0  0  2  0  0  0  0  0  0
  188.1040  174.5030  136.8180 C   0  0  0  0  0  2  0  0  0  0  0  0
  190.2960  174.5030  135.7460 C   0  0  0  0  0  3  0  0  0  0  0  0
  189.0350  177.1060  145.6450 C   0  0  2  0  0  3  0  0  0  0  0  0
  188.0580  178.2580  145.4220 C   0  0  0  0  0  2  0  0  0  0  0  0
  186.6370  177.7350  145.3700 C   0  0  0  0  0  2  0  0  0  0  0  0
  185.6890  178.8030  145.8730 C   0  0  0  0  0  2  0  0  0  0  0  0
  184.3630  178.6820  145.1510 C   0  0  0  0  0  2  0  0  0  0  0  0
  183.3200  180.2050  143.8590 O   0  0  0  0  0  1  0  0  0  0  0  0
  184.4220  179.4190  143.9010 N   0  0  0  0  0  0  0  0  0  0  0  0
  184.2860  178.4400  142.8320 C   0  0  0  0  0  2  0  0  0  0  0  0
  185.0110  178.9160  141.5810 C   0  0  0  0  0  2  0  0  0  0  0  0
  184.6640  179.7180  139.3020 N   0  0  0  0  0  1  0  0  0  0  0  0
  184.0790  178.9330  140.3780 C   0  0  0  0  0  2  0  0  0  0  0  0
  189.1390  176.7140  147.0560 N   0  0  0  0  0  2  0  0  0  0  0  0
  189.2330  177.8860  147.9210 C   0  0  0  0  0  2  0  0  0  0  0  0
  188.0740  177.8850  148.8960 C   0  0  0  0  0  1  0  0  0  0  0  0
  1  5  1  0  0  0  0
  2  7  1  1  0  0  0
  3  9  1  0  0  0  0
  3  5  1  0  0  0  0
  3  2  1  0  0  0  0
  4  6  1  0  0  0  0
  5  2  1  0  0  0  0
  6 12  1  0  0  0  0
  6 11  1  0  0  0  0
  7 10  1  0  0  0  0
  7  4  2  0  0  0  0
  9 13  1  0  0  0  0
 10 14  1  0  0  0  0
 11  8  1  0  0  0  0
 11 23  1  0  0  0  0
 12 11  1  0  0  0  0
 13 10  2  0  0  0  0
 14  6  1  0  0  0  0
 15  9  1  0  0  0  0
 16 15  1  0  0  0  0
 17 16  1  0  0  0  0
 18 19  1  0  0  0  0
 18 22  1  0  0  0  0
 19 21  1  0  0  0  0
 21 20  1  0  0  0  0
 22 17  1  0  0  0  0
 22 20  1  0  0  0  0
 23 34  1  0  0  0  0
 24 23  1  0  0  0  0
 25 24  1  0  0  0  0
 25 26  1  0  0  0  0
 27 26  1  0  0  0  0
 28 29  1  0  0  0  0
 29 27  1  0  0  0  0
 30 29  1  0  0  0  0
 31 30  1  0  0  0  0
 32 33  1  0  0  0  0
 33 31  1  0  0  0  0
 34 35  1  0  0  0  0
 35 36  1  0  0  0  0
M  END
>  <MODEL>
2

>  <REMARK>
 VINA RESULT:      -7.6      1.739      2.766
  Name = 
  15 active torsions:
  status: ('A' for Active; 'I' for Inactive)
    1  A    between atoms: C_1  and  C_16
    2  A    between atoms: C_1  and  C_29
    3  A    between atoms: C_2  and  C_12
    4  A    between atoms: C_2  and  N_17
    5  A    between atoms: C_4  and  C_24
    6  A    between atoms: C_4  and  C_28
    7  A    between atoms: C_8  and  C_14
    8  A    between atoms: C_8  and  N_17
    9  A    between atoms: C_10  and  N_33
   10  A    between atoms: C_12  and  C_29
   11  A    between atoms: C_14  and  C_35
   12  A    between atoms: C_16  and  C_27
   13  A    between atoms: C_16  and  N_33
   14  A    between atoms: O_26  and  C_28
   15  A    between atoms: O_26  and  C_31
                            x       y       z     vdW  Elec       q    Type
                         _______ _______ _______ _____ _____    ______ ____

>  <TORSDO>
F 15

$$$$
=
 OpenBabel11042411333D

 36 40  0  0  1  0  0  0  0  0999 V2000
  185.4210  178.5340  146.4880 C   0  0  0  0  0  1  0  0  0  0  0  0
  185.9580  177.8360  144.2310 C   0  0  2  0  0  3  0  0  0  0  0  0
  184.4950  178.1450  144.2670 N   0  0  1  0  0  0  0  0  0  0  0  0
  187.8020  177.9340  142.5170 C   0  0  0  0  0  3  0  0  0  0  0  0
  185.4680  178.9490  145.0310 C   0  0  1  0  0  3  0  0  0  0  0  0
  187.7960  178.2440  141.0470 C   0  0  2  0  0  0  0  0  0  0  0  0
  186.5800  178.2420  142.9360 C   0  0  0  0  0  0  0  0  0  0  0  0
  188.3340  177.6880  138.5870 C   0  0  0  0  0  1  0  0  0  0  0  0
  183.9430  179.1030  143.2800 C   0  0  1  0  0  3  0  0  0  0  0  0
  185.7790  178.6640  141.8230 C   0  0  0  0  0  0  0  0  0  0  0  0
  188.8050  177.7510  140.0320 C   0  0  1  0  0  0  0  0  0  0  0  0
  188.9040  179.1720  140.5810 C   0  0  0  0  0  2  0  0  0  0  0  0
  184.5370  178.9830  141.9430 N   0  0  0  0  0  0  0  0  0  0  0  0
  186.4990  178.6580  140.6460 O   0  0  0  0  0  0  0  0  0  0  0  0
  182.4370  178.9320  143.1960 C   0  0  0  0  0  2  0  0  0  0  0  0
  181.9980  178.8180  141.7490 C   0  0  0  0  0  2  0  0  0  0  0  0
  180.8570  179.5950  141.5490 O   0  0  0  0  0  0  0  0  0  0  0  0
  182.0320  179.5150  139.4800 C   0  0  0  0  0  2  0  0  0  0  0  0
  181.9150  180.3650  138.2360 C   0  0  0  0  0  2  0  0  0  0  0  0
  180.1100  180.9750  139.7450 C   0  0  0  0  0  2  0  0  0  0  0  0
  180.9740  181.4910  138.6080 C   0  0  0  0  0  2  0  0  0  0  0  0
  180.6870  179.6340  140.1640 C   0  0  0  0  0  3  0  0  0  0  0  0
  189.8980  176.8070  140.5470 C   0  0  2  0  0  3  0  0  0  0  0  0
  190.9500  177.5260  141.3890 C   0  0  0  0  0  2  0  0  0  0  0  0
  191.2680  176.7160  142.6300 C   0  0  0  0  0  2  0  0  0  0  0  0
  191.6290  177.6530  143.7630 C   0  0  0  0  0  2  0  0  0  0  0  0
  190.7500  177.3580  144.9610 C   0  0  0  0  0  2  0  0  0  0  0  0
  192.1110  175.8190  145.8870 O   0  0  0  0  0  1  0  0  0  0  0  0
  191.5830  177.0470  146.1100 N   0  0  0  0  0  0  0  0  0  0  0  0
  190.6890  176.9220  147.2520 C   0  0  0  0  0  2  0  0  0  0  0  0
  189.2520  177.1960  146.8320 C   0  0  0  0  0  2  0  0  0  0  0  0
  188.2150  178.1560  148.8220 N   0  0  0  0  0  1  0  0  0  0  0  0
  188.2880  176.9670  147.9870 C   0  0  0  0  0  2  0  0  0  0  0  0
  190.4870  175.9920  139.4780 N   0  0  0  0  0  2  0  0  0  0  0  0
  191.6910  176.6200  138.9410 C   0  0  0  0  0  2  0  0  0  0  0  0
  192.1250  175.8860  137.6890 C   0  0  0  0  0  1  0  0  0  0  0  0
  2  7  1  6  0  0  0
  2  3  1  0  0  0  0
  2  5  1  0  0  0  0
  3  5  1  0  0  0  0
  4  7  2  0  0  0  0
  5  1  1  0  0  0  0
  6  4  1  0  0  0  0
  8 11  1  0  0  0  0
  9  3  1  0  0  0  0
 10 13  2  0  0  0  0
 10  7  1  0  0  0  0
 11 23  1  0  0  0  0
 11 12  1  0  0  0  0
 11  6  1  0  0  0  0
 12  6  1  0  0  0  0
 13  9  1  0  0  0  0
 14  6  1  0  0  0  0
 14 10  1  0  0  0  0
 15  9  1  0  0  0  0
 16 15  1  0  0  0  0
 17 16  1  0  0  0  0
 18 22  1  0  0  0  0
 19 21  1  0  0  0  0
 19 18  1  0  0  0  0
 20 22  1  0  0  0  0
 21 20  1  0  0  0  0
 22 17  1  0  0  0  0
 23 24  1  0  0  0  0
 24 25  1  0  0  0  0
 25 26  1  0  0  0  0
 26 27  1  0  0  0  0
 27 29  1  0  0  0  0
 28 29  1  0  0  0  0
 29 30  1  0  0  0  0
 31 30  1  0  0  0  0
 31 33  1  0  0  0  0
 33 32  1  0  0  0  0
 34 23  1  0  0  0  0
 35 34  1  0  0  0  0
 36 35  1  0  0  0  0
M  END
>  <MODEL>
3

>  <REMARK>
 VINA RESULT:      -7.4      2.554      9.378
  Name = 
  15 active torsions:
  status: ('A' for Active; 'I' for Inactive)
    1  A    between atoms: C_1  and  C_16
    2  A    between atoms: C_1  and  C_29
    3  A    between atoms: C_2  and  C_12
    4  A    between atoms: C_2  and  N_17
    5  A    between atoms: C_4  and  C_24
    6  A    between atoms: C_4  and  C_28
    7  A    between atoms: C_8  and  C_14
    8  A    between atoms: C_8  and  N_17
    9  A    between atoms: C_10  and  N_33
   10  A    between atoms: C_12  and  C_29
   11  A    between atoms: C_14  and  C_35
   12  A    between atoms: C_16  and  C_27
   13  A    between atoms: C_16  and  N_33
   14  A    between atoms: O_26  and  C_28
   15  A    between atoms: O_26  and  C_31
                            x       y       z     vdW  Elec       q    Type
                         _______ _______ _______ _____ _____    ______ ____

>  <TORSDO>
F 15

$$$$
=
 OpenBabel11042411333D

 36 40  0  0  1  0  0  0  0  0999 V2000
  191.7780  175.7090  144.0840 C   0  0  0  0  0  1  0  0  0  0  0  0
  190.0740  176.0130  142.3880 C   0  0  2  0  0  3  0  0  0  0  0  0
  189.4590  176.3600  143.7080 N   0  0  1  0  0  0  0  0  0  0  0  0
  189.7750  176.7290  139.9920 C   0  0  0  0  0  3  0  0  0  0  0  0
  190.8610  176.7030  143.4000 C   0  0  1  0  0  3  0  0  0  0  0  0
  188.7800  177.6380  139.3280 C   0  0  2  0  0  0  0  0  0  0  0  0
  189.5760  176.8970  141.2940 C   0  0  0  0  0  0  0  0  0  0  0  0
  186.9770  178.1580  137.5580 C   0  0  0  0  0  1  0  0  0  0  0  0
  188.7990  177.6770  143.8640 C   0  0  1  0  0  3  0  0  0  0  0  0
  188.4800  177.8000  141.5040 C   0  0  0  0  0  0  0  0  0  0  0  0
  188.3430  177.5690  137.8800 C   0  0  1  0  0  0  0  0  0  0  0  0
  189.3670  178.6110  138.3230 C   0  0  0  0  0  2  0  0  0  0  0  0
  188.0480  178.1070  142.6770 N   0  0  0  0  0  0  0  0  0  0  0  0
  187.9610  178.2560  140.3090 O   0  0  0  0  0  0  0  0  0  0  0  0
  187.8820  177.6450  145.0740 C   0  0  0  0  0  2  0  0  0  0  0  0
  186.4340  177.7640  144.6430 C   0  0  0  0  0  2  0  0  0  0  0  0
  185.7380  178.5400  145.5690 O   0  0  0  0  0  0  0  0  0  0  0  0
  183.4180  178.8870  145.1570 C   0  0  0  0  0  2  0  0  0  0  0  0
  182.6460  179.0130  143.8650 C   0  0  0  0  0  2  0  0  0  0  0  0
  185.0170  178.9760  143.3320 C   0  0  0  0  0  2  0  0  0  0  0  0
  183.6370  178.6770  142.7710 C   0  0  0  0  0  2  0  0  0  0  0  0
  184.8360  179.2860  144.8080 C   0  0  0  0  0  3  0  0  0  0  0  0
  188.9330  176.4360  137.0340 C   0  0  2  0  0  3  0  0  0  0  0  0
  189.1580  176.8420  135.5790 C   0  0  0  0  0  2  0  0  0  0  0  0
  190.5610  176.4670  135.1440 C   0  0  0  0  0  2  0  0  0  0  0  0
  191.4160  176.2130  136.3670 C   0  0  0  0  0  2  0  0  0  0  0  0
  192.8220  175.8530  135.9330 C   0  0  0  0  0  2  0  0  0  0  0  0
  194.8310  176.8030  136.3060 O   0  0  0  0  0  1  0  0  0  0  0  0
  193.7670  176.2700  136.9540 N   0  0  0  0  0  0  0  0  0  0  0  0
  194.2350  175.0580  137.6100 C   0  0  0  0  0  2  0  0  0  0  0  0
  195.5790  174.6300  137.0370 C   0  0  0  0  0  2  0  0  0  0  0  0
  195.8730  173.9500  139.3620 N   0  0  0  0  0  1  0  0  0  0  0  0
  196.3190  173.7120  137.9980 C   0  0  0  0  0  2  0  0  0  0  0  0
  188.1770  175.1850  137.1640 N   0  0  0  0  0  2  0  0  0  0  0  0
  187.4830  174.8580  135.9220 C   0  0  0  0  0  2  0  0  0  0  0  0
  185.9890  174.8520  136.1670 C   0  0  0  0  0  1  0  0  0  0  0  0
  2  7  1  6  0  0  0
  2  5  1  0  0  0  0
  2  3  1  0  0  0  0
  3  9  1  0  0  0  0
  4  7  2  0  0  0  0
  5  3  1  0  0  0  0
  5  1  1  0  0  0  0
  6  4  1  0  0  0  0
  6 14  1  0  0  0  0
  7 10  1  0  0  0  0
  8 11  1  0  0  0  0
  9 15  1  0  0  0  0
 10 13  2  0  0  0  0
 11 12  1  0  0  0  0
 11  6  1  0  0  0  0
 12  6  1  0  0  0  0
 13  9  1  0  0  0  0
 14 10  1  0  0  0  0
 16 15  1  0  0  0  0
 16 17  1  0  0  0  0
 19 18  1  0  0  0  0
 20 22  1  0  0  0  0
 21 20  1  0  0  0  0
 21 19  1  0  0  0  0
 22 18  1  0  0  0  0
 22 17  1  0  0  0  0
 23 34  1  0  0  0  0
 23 11  1  0  0  0  0
 24 23  1  0  0  0  0
 25 24  1  0  0  0  0
 25 26  1  0  0  0  0
 27 26  1  0  0  0  0
 27 29  1  0  0  0  0
 28 29  1  0  0  0  0
 29 30  1  0  0  0  0
 31 30  1  0  0  0  0
 31 33  1  0  0  0  0
 33 32  1  0  0  0  0
 35 36  1  0  0  0  0
 35 34  1  0  0  0  0
M  END
>  <MODEL>
4

>  <REMARK>
 VINA RESULT:      -7.4      2.370     10.152
  Name = 
  15 active torsions:
  status: ('A' for Active; 'I' for Inactive)
    1  A    between atoms: C_1  and  C_16
    2  A    between atoms: C_1  and  C_29
    3  A    between atoms: C_2  and  C_12
    4  A    between atoms: C_2  and  N_17
    5  A    between atoms: C_4  and  C_24
    6  A    between atoms: C_4  and  C_28
    7  A    between atoms: C_8  and  C_14
    8  A    between atoms: C_8  and  N_17
    9  A    between atoms: C_10  and  N_33
   10  A    between atoms: C_12  and  C_29
   11  A    between atoms: C_14  and  C_35
   12  A    between atoms: C_16  and  C_27
   13  A    between atoms: C_16  and  N_33
   14  A    between atoms: O_26  and  C_28
   15  A    between atoms: O_26  and  C_31
                            x       y       z     vdW  Elec       q    Type
                         _______ _______ _______ _____ _____    ______ ____

>  <TORSDO>
F 15

$$$$
=
 OpenBabel11042411333D

 36 40  0  0  1  0  0  0  0  0999 V2000
  190.9700  176.8080  143.2060 C   0  0  0  0  0  1  0  0  0  0  0  0
  189.5200  176.6710  141.2690 C   0  0  2  0  0  3  0  0  0  0  0  0
  188.6660  177.0370  142.4420 N   0  0  1  0  0  0  0  0  0  0  0  0
  189.4920  177.1000  138.7870 C   0  0  0  0  0  3  0  0  0  0  0  0
  190.0340  177.5720  142.2910 C   0  0  1  0  0  3  0  0  0  0  0  0
  188.4890  177.7700  137.8910 C   0  0  2  0  0  0  0  0  0  0  0  0
  189.0730  177.3560  140.0210 C   0  0  0  0  0  0  0  0  0  0  0  0
  186.9250  177.8220  135.8410 C   0  0  0  0  0  1  0  0  0  0  0  0
  187.8050  178.2400  142.3500 C   0  0  1  0  0  3  0  0  0  0  0  0
  187.8390  178.0860  139.9710 C   0  0  0  0  0  0  0  0  0  0  0  0
  188.2950  177.4950  136.4150 C   0  0  1  0  0  0  0  0  0  0  0  0
  189.0760  178.7250  136.8680 C   0  0  0  0  0  2  0  0  0  0  0  0
  187.1920  178.4290  141.0300 N   0  0  0  0  0  0  0  0  0  0  0  0
  187.4490  178.3380  138.6710 O   0  0  0  0  0  0  0  0  0  0  0  0
  186.7290  178.1750  143.4180 C   0  0  0  0  0  2  0  0  0  0  0  0
  186.9810  177.0070  144.3510 C   0  0  0  0  0  2  0  0  0  0  0  0
  186.4780  177.3080  145.6170 O   0  0  0  0  0  0  0  0  0  0  0  0
  188.7710  177.1980  146.2500 C   0  0  0  0  0  2  0  0  0  0  0  0
  189.4630  177.5480  147.5470 C   0  0  0  0  0  2  0  0  0  0  0  0
  187.1440  178.2620  147.7050 C   0  0  0  0  0  2  0  0  0  0  0  0
  188.3480  177.8380  148.5300 C   0  0  0  0  0  2  0  0  0  0  0  0
  187.5000  178.0200  146.2490 C   0  0  0  0  0  3  0  0  0  0  0  0
  189.1670  176.3960  135.7960 C   0  0  2  0  0  3  0  0  0  0  0  0
  190.0540  176.9140  134.6660 C   0  0  0  0  0  2  0  0  0  0  0  0
  191.3340  176.1040  134.5940 C   0  0  0  0  0  2  0  0  0  0  0  0
  192.1110  176.2760  135.8810 C   0  0  0  0  0  2  0  0  0  0  0  0
  192.9680  175.0500  136.1200 C   0  0  0  0  0  2  0  0  0  0  0  0
  193.7160  176.5940  137.5820 O   0  0  0  0  0  1  0  0  0  0  0  0
  193.8510  175.2880  137.2500 N   0  0  0  0  0  0  0  0  0  0  0  0
  195.2110  175.1130  136.7610 C   0  0  0  0  0  2  0  0  0  0  0  0
  195.8770  173.9350  137.4580 C   0  0  0  0  0  2  0  0  0  0  0  0
  197.7920  175.3550  136.9330 N   0  0  0  0  0  1  0  0  0  0  0  0
  197.3510  174.2110  137.7160 C   0  0  0  0  0  2  0  0  0  0  0  0
  188.3910  175.2120  135.4120 N   0  0  0  0  0  2  0  0  0  0  0  0
  188.2490  174.2900  136.5360 C   0  0  0  0  0  2  0  0  0  0  0  0
  189.6200  173.8340  136.9890 C   0  0  0  0  0  1  0  0  0  0  0  0
  2  7  1  6  0  0  0
  2  5  1  0  0  0  0
  2  3  1  0  0  0  0
  4  7  2  0  0  0  0
  5  3  1  0  0  0  0
  5  1  1  0  0  0  0
  6 14  1  0  0  0  0
  6  4  1  0  0  0  0
  8 11  1  0  0  0  0
  9  3  1  0  0  0  0
  9 15  1  0  0  0  0
 10  7  1  0  0  0  0
 10 13  2  0  0  0  0
 11 12  1  0  0  0  0
 11  6  1  0  0  0  0
 12  6  1  0  0  0  0
 13  9  1  0  0  0  0
 14 10  1  0  0  0  0
 15 16  1  0  0  0  0
 16 17  1  0  0  0  0
 17 22  1  0  0  0  0
 18 19  1  0  0  0  0
 19 21  1  0  0  0  0
 20 21  1  0  0  0  0
 22 18  1  0  0  0  0
 22 20  1  0  0  0  0
 23 11  1  0  0  0  0
 24 23  1  0  0  0  0
 25 24  1  0  0  0  0
 25 26  1  0  0  0  0
 26 27  1  0  0  0  0
 27 29  1  0  0  0  0
 29 28  1  0  0  0  0
 30 29  1  0  0  0  0
 30 31  1  0  0  0  0
 31 33  1  0  0  0  0
 32 33  1  0  0  0  0
 34 23  1  0  0  0  0
 34 35  1  0  0  0  0
 35 36  1  0  0  0  0
M  END
>  <MODEL>
5

>  <REMARK>
 VINA RESULT:      -7.3      2.743     10.136
  Name = 
  15 active torsions:
  status: ('A' for Active; 'I' for Inactive)
    1  A    between atoms: C_1  and  C_16
    2  A    between atoms: C_1  and  C_29
    3  A    between atoms: C_2  and  C_12
    4  A    between atoms: C_2  and  N_17
    5  A    between atoms: C_4  and  C_24
    6  A    between atoms: C_4  and  C_28
    7  A    between atoms: C_8  and  C_14
    8  A    between atoms: C_8  and  N_17
    9  A    between atoms: C_10  and  N_33
   10  A    between atoms: C_12  and  C_29
   11  A    between atoms: C_14  and  C_35
   12  A    between atoms: C_16  and  C_27
   13  A    between atoms: C_16  and  N_33
   14  A    between atoms: O_26  and  C_28
   15  A    between atoms: O_26  and  C_31
                            x       y       z     vdW  Elec       q    Type
                         _______ _______ _______ _____ _____    ______ ____

>  <TORSDO>
F 15

$$$$
=
 OpenBabel11042411333D

 36 40  0  0  1  0  0  0  0  0999 V2000
  184.3310  177.9940  140.7670 C   0  0  0  0  0  1  0  0  0  0  0  0
  185.4580  178.6440  142.8120 C   0  0  2  0  0  3  0  0  0  0  0  0
  184.0610  179.1750  142.8820 N   0  0  1  0  0  0  0  0  0  0  0  0
  187.1920  177.8430  144.4540 C   0  0  0  0  0  3  0  0  0  0  0  0
  184.3540  177.8620  142.2770 C   0  0  1  0  0  3  0  0  0  0  0  0
  187.2250  177.8260  145.9560 C   0  0  2  0  0  0  0  0  0  0  0  0
  185.9460  178.1820  144.1440 C   0  0  0  0  0  0  0  0  0  0  0  0
  188.3060  178.3910  148.2290 C   0  0  0  0  0  1  0  0  0  0  0  0
  183.2300  178.8420  144.0640 C   0  0  1  0  0  3  0  0  0  0  0  0
  185.2030  178.4460  145.3430 C   0  0  0  0  0  0  0  0  0  0  0  0
  188.4710  177.8520  146.8160 C   0  0  1  0  0  0  0  0  0  0  0  0
  187.7340  176.5370  146.5750 C   0  0  0  0  0  2  0  0  0  0  0  0
  183.9760  178.8350  145.3280 N   0  0  0  0  0  0  0  0  0  0  0  0
  185.9730  178.2510  146.4720 O   0  0  0  0  0  0  0  0  0  0  0  0
  182.0650  179.8120  144.1530 C   0  0  0  0  0  2  0  0  0  0  0  0
  180.8840  179.2920  143.3590 C   0  0  0  0  0  2  0  0  0  0  0  0
  180.3100  180.3420  142.6410 O   0  0  0  0  0  0  0  0  0  0  0  0
  180.4030  178.3550  141.3320 C   0  0  0  0  0  2  0  0  0  0  0  0
  180.6200  178.1490  139.8510 C   0  0  0  0  0  2  0  0  0  0  0  0
  180.3790  180.5330  140.2590 C   0  0  0  0  0  2  0  0  0  0  0  0
  180.9800  179.5150  139.3050 C   0  0  0  0  0  2  0  0  0  0  0  0
  179.8540  179.7600  141.4570 C   0  0  0  0  0  3  0  0  0  0  0  0
  189.8140  177.9560  146.0840 C   0  0  2  0  0  3  0  0  0  0  0  0
  189.6580  178.3730  144.6230 C   0  0  0  0  0  2  0  0  0  0  0  0
  191.0000  178.7870  144.0530 C   0  0  0  0  0  2  0  0  0  0  0  0
  191.4310  177.7860  143.0030 C   0  0  0  0  0  2  0  0  0  0  0  0
  190.2590  176.8940  142.6460 C   0  0  0  0  0  2  0  0  0  0  0  0
  191.1650  177.4730  140.6650 O   0  0  0  0  0  1  0  0  0  0  0  0
  190.0590  176.9090  141.2070 N   0  0  0  0  0  0  0  0  0  0  0  0
  188.9510  177.8180  140.9490 C   0  0  0  0  0  2  0  0  0  0  0  0
  189.0000  178.3190  139.5130 C   0  0  0  0  0  2  0  0  0  0  0  0
  187.5430  178.8140  137.6180 N   0  0  0  0  0  1  0  0  0  0  0  0
  187.7470  177.9200  138.7480 C   0  0  0  0  0  2  0  0  0  0  0  0
  190.6380  176.7530  146.2470 N   0  0  0  0  0  2  0  0  0  0  0  0
  191.3710  176.7850  147.5090 C   0  0  0  0  0  2  0  0  0  0  0  0
  192.3620  175.6410  147.5450 C   0  0  0  0  0  1  0  0  0  0  0  0
  1  5  1  0  0  0  0
  2  3  1  0  0  0  0
  2  7  1  1  0  0  0
  3  9  1  0  0  0  0
  4  6  1  0  0  0  0
  5  2  1  0  0  0  0
  5  3  1  0  0  0  0
  6 14  1  0  0  0  0
  6 12  1  0  0  0  0
  6 11  1  0  0  0  0
  7  4  2  0  0  0  0
  7 10  1  0  0  0  0
  9 15  1  0  0  0  0
  9 13  1  0  0  0  0
 10 14  1  0  0  0  0
 11  8  1  0  0  0  0
 12 11  1  0  0  0  0
 13 10  2  0  0  0  0
 16 15  1  0  0  0  0
 17 16  1  0  0  0  0
 18 22  1  0  0  0  0
 19 18  1  0  0  0  0
 20 22  1  0  0  0  0
 21 19  1  0  0  0  0
 21 20  1  0  0  0  0
 22 17  1  0  0  0  0
 23 34  1  0  0  0  0
 23 11  1  0  0  0  0
 24 23  1  0  0  0  0
 25 24  1  0  0  0  0
 26 25  1  0  0  0  0
 27 26  1  0  0  0  0
 28 29  1  0  0  0  0
 29 27  1  0  0  0  0
 30 29  1  0  0  0  0
 31 30  1  0  0  0  0
 32 33  1  0  0  0  0
 33 31  1  0  0  0  0
 34 35  1  0  0  0  0
 35 36  1  0  0  0  0
M  END
>  <MODEL>
6

>  <REMARK>
 VINA RESULT:      -7.0      3.462      8.717
  Name = 
  15 active torsions:
  status: ('A' for Active; 'I' for Inactive)
    1  A    between atoms: C_1  and  C_16
    2  A    between atoms: C_1  and  C_29
    3  A    between atoms: C_2  and  C_12
    4  A    between atoms: C_2  and  N_17
    5  A    between atoms: C_4  and  C_24
    6  A    between atoms: C_4  and  C_28
    7  A    between atoms: C_8  and  C_14
    8  A    between atoms: C_8  and  N_17
    9  A    between atoms: C_10  and  N_33
   10  A    between atoms: C_12  and  C_29
   11  A    between atoms: C_14  and  C_35
   12  A    between atoms: C_16  and  C_27
   13  A    between atoms: C_16  and  N_33
   14  A    between atoms: O_26  and  C_28
   15  A    between atoms: O_26  and  C_31
                            x       y       z     vdW  Elec       q    Type
                         _______ _______ _______ _____ _____    ______ ____

>  <TORSDO>
F 15

$$$$
=
 OpenBabel11042411333D

 36 40  0  0  1  0  0  0  0  0999 V2000
  187.4360  178.4400  141.9120 C   0  0  0  0  0  1  0  0  0  0  0  0
  185.0730  177.9330  142.1020 C   0  0  2  0  0  3  0  0  0  0  0  0
  185.5930  178.1710  143.4850 N   0  0  1  0  0  0  0  0  0  0  0  0
  182.8830  178.2400  140.8970 C   0  0  0  0  0  3  0  0  0  0  0  0
  186.0770  178.9610  142.3360 C   0  0  1  0  0  3  0  0  0  0  0  0
  181.5200  178.6570  141.3730 C   0  0  2  0  0  0  0  0  0  0  0  0
  183.6880  178.4610  141.9290 C   0  0  0  0  0  0  0  0  0  0  0  0
  178.9780  178.3070  141.6290 C   0  0  0  0  0  1  0  0  0  0  0  0
  184.9120  179.1730  144.3400 C   0  0  1  0  0  3  0  0  0  0  0  0
  182.9220  178.9260  143.0500 C   0  0  0  0  0  0  0  0  0  0  0  0
  180.2020  178.2850  140.7270 C   0  0  1  0  0  0  0  0  0  0  0  0
  180.8100  179.6660  140.4890 C   0  0  0  0  0  2  0  0  0  0  0  0
  183.4510  179.1780  144.1960 N   0  0  0  0  0  0  0  0  0  0  0  0
  181.5820  179.0390  142.7390 O   0  0  0  0  0  0  0  0  0  0  0  0
  185.2910  178.9400  145.7920 C   0  0  0  0  0  2  0  0  0  0  0  0
  186.2930  177.8080  145.9010 C   0  0  0  0  0  2  0  0  0  0  0  0
  187.4990  178.3030  146.3970 O   0  0  0  0  0  0  0  0  0  0  0  0
  189.3260  177.1270  147.3700 C   0  0  0  0  0  2  0  0  0  0  0  0
  190.6750  176.7440  146.8070 C   0  0  0  0  0  2  0  0  0  0  0  0
  189.3340  177.6680  145.0030 C   0  0  0  0  0  2  0  0  0  0  0  0
  190.7630  177.4430  145.4660 C   0  0  0  0  0  2  0  0  0  0  0  0
  188.4280  177.2890  146.1620 C   0  0  0  0  0  3  0  0  0  0  0  0
  180.2680  177.3580  139.5080 C   0  0  2  0  0  3  0  0  0  0  0  0
  180.4270  178.1200  138.1950 C   0  0  0  0  0  2  0  0  0  0  0  0
  181.1000  177.2410  137.1590 C   0  0  0  0  0  2  0  0  0  0  0  0
  182.3790  177.9020  136.6930 C   0  0  0  0  0  2  0  0  0  0  0  0
  183.5630  177.2400  137.3660 C   0  0  0  0  0  2  0  0  0  0  0  0
  184.4160  176.1330  135.5980 O   0  0  0  0  0  1  0  0  0  0  0  0
  184.6740  177.1680  136.4330 N   0  0  0  0  0  0  0  0  0  0  0  0
  185.8490  176.8010  137.2110 C   0  0  0  0  0  2  0  0  0  0  0  0
  186.5130  178.0440  137.7870 C   0  0  0  0  0  2  0  0  0  0  0  0
  188.6880  179.0040  138.3350 N   0  0  0  0  0  1  0  0  0  0  0  0
  187.9490  177.7590  138.2010 C   0  0  0  0  0  2  0  0  0  0  0  0
  179.1620  176.3940  139.4760 N   0  0  0  0  0  2  0  0  0  0  0  0
  179.6470  175.0310  139.6710 C   0  0  0  0  0  2  0  0  0  0  0  0
  179.3080  174.5720  141.0730 C   0  0  0  0  0  1  0  0  0  0  0  0
  1  5  1  0  0  0  0
  2  7  1  1  0  0  0
  2  5  1  0  0  0  0
  2  3  1  0  0  0  0
  3  9  1  0  0  0  0
  4  6  1  0  0  0  0
  4  7  2  0  0  0  0
  5  3  1  0  0  0  0
  6 14  1  0  0  0  0
  7 10  1  0  0  0  0
  9 15  1  0  0  0  0
 10 13  2  0  0  0  0
 11  6  1  0  0  0  0
 11  8  1  0  0  0  0
 12 11  1  0  0  0  0
 12  6  1  0  0  0  0
 13  9  1  0  0  0  0
 14 10  1  0  0  0  0
 15 16  1  0  0  0  0
 16 17  1  0  0  0  0
 19 18  1  0  0  0  0
 20 21  1  0  0  0  0
 20 22  1  0  0  0  0
 21 19  1  0  0  0  0
 22 17  1  0  0  0  0
 22 18  1  0  0  0  0
 23 11  1  0  0  0  0
 24 23  1  0  0  0  0
 25 24  1  0  0  0  0
 26 25  1  0  0  0  0
 26 27  1  0  0  0  0
 28 29  1  0  0  0  0
 29 30  1  0  0  0  0
 29 27  1  0  0  0  0
 30 31  1  0  0  0  0
 31 33  1  0  0  0  0
 33 32  1  0  0  0  0
 34 23  1  0  0  0  0
 34 35  1  0  0  0  0
 35 36  1  0  0  0  0
M  END
>  <MODEL>
7

>  <REMARK>
 VINA RESULT:      -6.9      4.310      9.326
  Name = 
  15 active torsions:
  status: ('A' for Active; 'I' for Inactive)
    1  A    between atoms: C_1  and  C_16
    2  A    between atoms: C_1  and  C_29
    3  A    between atoms: C_2  and  C_12
    4  A    between atoms: C_2  and  N_17
    5  A    between atoms: C_4  and  C_24
    6  A    between atoms: C_4  and  C_28
    7  A    between atoms: C_8  and  C_14
    8  A    between atoms: C_8  and  N_17
    9  A    between atoms: C_10  and  N_33
   10  A    between atoms: C_12  and  C_29
   11  A    between atoms: C_14  and  C_35
   12  A    between atoms: C_16  and  C_27
   13  A    between atoms: C_16  and  N_33
   14  A    between atoms: O_26  and  C_28
   15  A    between atoms: O_26  and  C_31
                            x       y       z     vdW  Elec       q    Type
                         _______ _______ _______ _____ _____    ______ ____

>  <TORSDO>
F 15

$$$$
=
 OpenBabel11042411333D

 36 40  0  0  1  0  0  0  0  0999 V2000
  183.1080  178.5570  139.2290 C   0  0  0  0  0  1  0  0  0  0  0  0
  184.5560  178.9050  141.1400 C   0  0  2  0  0  3  0  0  0  0  0  0
  183.1770  179.3270  141.5400 N   0  0  1  0  0  0  0  0  0  0  0  0
  186.5750  177.9360  142.2940 C   0  0  0  0  0  3  0  0  0  0  0  0
  183.3990  178.1610  140.6630 C   0  0  1  0  0  3  0  0  0  0  0  0
  186.8730  177.6570  143.7400 C   0  0  2  0  0  0  0  0  0  0  0  0
  185.2840  178.2460  142.2640 C   0  0  0  0  0  0  0  0  0  0  0  0
  188.3180  177.8790  145.8640 C   0  0  0  0  0  1  0  0  0  0  0  0
  182.5780  178.7400  142.7620 C   0  0  1  0  0  3  0  0  0  0  0  0
  184.7560  178.2490  143.5980 C   0  0  0  0  0  0  0  0  0  0  0  0
  188.2490  177.6090  144.3690 C   0  0  1  0  0  0  0  0  0  0  0  0
  187.5210  176.3140  144.0160 C   0  0  0  0  0  2  0  0  0  0  0  0
  183.5340  178.5570  143.8610 N   0  0  0  0  0  0  0  0  0  0  0  0
  185.7180  177.9060  144.5270 O   0  0  0  0  0  0  0  0  0  0  0  0
  181.4180  179.6040  143.2220 C   0  0  0  0  0  2  0  0  0  0  0  0
  180.1510  179.2260  142.4800 C   0  0  0  0  0  2  0  0  0  0  0  0
  180.1190  177.8440  142.2920 O   0  0  0  0  0  0  0  0  0  0  0  0
  179.9760  176.6610  140.2310 C   0  0  0  0  0  2  0  0  0  0  0  0
  179.6040  177.1240  138.8420 C   0  0  0  0  0  2  0  0  0  0  0  0
  179.1890  178.9520  140.3890 C   0  0  0  0  0  2  0  0  0  0  0  0
  179.5000  178.6320  138.9370 C   0  0  0  0  0  2  0  0  0  0  0  0
  179.3170  177.6530  141.1650 C   0  0  0  0  0  3  0  0  0  0  0  0
  189.4380  177.9240  143.4540 C   0  0  2  0  0  3  0  0  0  0  0  0
  189.8850  176.7180  142.6310 C   0  0  0  0  0  2  0  0  0  0  0  0
  189.8330  177.0480  141.1520 C   0  0  0  0  0  2  0  0  0  0  0  0
  191.2410  177.2290  140.6280 C   0  0  0  0  0  2  0  0  0  0  0  0
  191.2380  177.0960  139.1190 C   0  0  0  0  0  2  0  0  0  0  0  0
  190.9370  174.9950  138.3600 O   0  0  0  0  0  1  0  0  0  0  0  0
  190.2520  176.1060  138.7200 N   0  0  0  0  0  0  0  0  0  0  0  0
  189.6110  176.6170  137.5170 C   0  0  0  0  0  2  0  0  0  0  0  0
  189.4210  178.1240  137.6170 C   0  0  0  0  0  2  0  0  0  0  0  0
  187.2250  178.2860  138.6700 N   0  0  0  0  0  1  0  0  0  0  0  0
  187.9600  178.5080  137.4340 C   0  0  0  0  0  2  0  0  0  0  0  0
  190.5460  178.5630  144.1740 N   0  0  0  0  0  2  0  0  0  0  0  0
  191.6860  177.6590  144.2920 C   0  0  0  0  0  2  0  0  0  0  0  0
  191.6730  177.0080  145.6590 C   0  0  0  0  0  1  0  0  0  0  0  0
  1  5  1  0  0  0  0
  2  3  1  0  0  0  0
  2  7  1  1  0  0  0
  3  9  1  0  0  0  0
  4  6  1  0  0  0  0
  5  2  1  0  0  0  0
  5  3  1  0  0  0  0
  6 12  1  0  0  0  0
  6 11  1  0  0  0  0
  6 14  1  0  0  0  0
  7  4  2  0  0  0  0
  7 10  1  0  0  0  0
  9 15  1  0  0  0  0
  9 13  1  0  0  0  0
 10 13  2  0  0  0  0
 10 14  1  0  0  0  0
 11  8  1  0  0  0  0
 12 11  1  0  0  0  0
 16 15  1  0  0  0  0
 17 16  1  0  0  0  0
 18 22  1  0  0  0  0
 19 21  1  0  0  0  0
 19 18  1  0  0  0  0
 20 22  1  0  0  0  0
 21 20  1  0  0  0  0
 22 17  1  0  0  0  0
 23 34  1  0  0  0  0
 23 11  1  0  0  0  0
 24 23  1  0  0  0  0
 25 24  1  0  0  0  0
 26 25  1  0  0  0  0
 27 26  1  0  0  0  0
 28 29  1  0  0  0  0
 29 27  1  0  0  0  0
 30 31  1  0  0  0  0
 30 29  1  0  0  0  0
 33 31  1  0  0  0  0
 33 32  1  0  0  0  0
 34 35  1  0  0  0  0
 35 36  1  0  0  0  0
M  END
>  <MODEL>
8

>  <REMARK>
 VINA RESULT:      -6.8      2.794      9.114
  Name = 
  15 active torsions:
  status: ('A' for Active; 'I' for Inactive)
    1  A    between atoms: C_1  and  C_16
    2  A    between atoms: C_1  and  C_29
    3  A    between atoms: C_2  and  C_12
    4  A    between atoms: C_2  and  N_17
    5  A    between atoms: C_4  and  C_24
    6  A    between atoms: C_4  and  C_28
    7  A    between atoms: C_8  and  C_14
    8  A    between atoms: C_8  and  N_17
    9  A    between atoms: C_10  and  N_33
   10  A    between atoms: C_12  and  C_29
   11  A    between atoms: C_14  and  C_35
   12  A    between atoms: C_16  and  C_27
   13  A    between atoms: C_16  and  N_33
   14  A    between atoms: O_26  and  C_28
   15  A    between atoms: O_26  and  C_31
                            x       y       z     vdW  Elec       q    Type
                         _______ _______ _______ _____ _____    ______ ____

>  <TORSDO>
F 15

$$$$
=
 OpenBabel11042411333D

 36 40  0  0  1  0  0  0  0  0999 V2000
  186.7390  177.8420  143.1800 C   0  0  0  0  0  1  0  0  0  0  0  0
  188.3790  177.9510  141.3990 C   0  0  2  0  0  3  0  0  0  0  0  0
  189.0860  178.2710  142.6790 N   0  0  1  0  0  0  0  0  0  0  0  0
  188.9820  176.8820  139.1990 C   0  0  0  0  0  3  0  0  0  0  0  0
  188.0200  177.2520  142.6240 C   0  0  1  0  0  3  0  0  0  0  0  0
  190.2910  176.4060  138.6350 C   0  0  2  0  0  0  0  0  0  0  0  0
  189.2390  177.1570  140.4730 C   0  0  0  0  0  0  0  0  0  0  0  0
  192.1190  176.3590  136.8170 C   0  0  0  0  0  1  0  0  0  0  0  0
  190.2970  177.4970  143.0380 C   0  0  1  0  0  3  0  0  0  0  0  0
  190.6330  176.9510  140.7410 C   0  0  0  0  0  0  0  0  0  0  0  0
  190.6400  176.3050  137.1660 C   0  0  1  0  0  0  0  0  0  0  0  0
  190.2410  175.0550  137.9450 C   0  0  0  0  0  2  0  0  0  0  0  0
  191.1600  177.1840  141.8930 N   0  0  0  0  0  0  0  0  0  0  0  0
  191.3060  176.5050  139.6220 O   0  0  0  0  0  0  0  0  0  0  0  0
  191.0870  178.2520  144.0920 C   0  0  0  0  0  2  0  0  0  0  0  0
  191.2580  177.4010  145.3350 C   0  0  0  0  0  2  0  0  0  0  0  0
  190.0210  176.8780  145.7120 O   0  0  0  0  0  0  0  0  0  0  0  0
  189.6540  177.5450  147.9680 C   0  0  0  0  0  2  0  0  0  0  0  0
  188.4120  178.0470  148.6670 C   0  0  0  0  0  2  0  0  0  0  0  0
  187.9360  177.8950  146.2890 C   0  0  0  0  0  2  0  0  0  0  0  0
  187.2910  177.8770  147.6640 C   0  0  0  0  0  2  0  0  0  0  0  0
  189.4390  177.8690  146.5050 C   0  0  0  0  0  3  0  0  0  0  0  0
  189.5770  176.7830  136.1690 C   0  0  2  0  0  3  0  0  0  0  0  0
  189.8330  176.2830  134.7490 C   0  0  0  0  0  2  0  0  0  0  0  0
  189.3170  174.8660  134.5940 C   0  0  0  0  0  2  0  0  0  0  0  0
  187.8140  174.8560  134.7690 C   0  0  0  0  0  2  0  0  0  0  0  0
  187.4320  173.8060  135.7920 C   0  0  0  0  0  2  0  0  0  0  0  0
  186.1470  173.4060  137.6000 O   0  0  0  0  0  1  0  0  0  0  0  0
  186.6330  174.4170  136.8400 N   0  0  0  0  0  0  0  0  0  0  0  0
  185.4920  175.0390  136.1850 C   0  0  0  0  0  2  0  0  0  0  0  0
  184.5520  175.6450  137.2180 C   0  0  0  0  0  2  0  0  0  0  0  0
  183.8160  176.8140  135.2060 N   0  0  0  0  0  1  0  0  0  0  0  0
  183.8320  176.8630  136.6600 C   0  0  0  0  0  2  0  0  0  0  0  0
  189.3610  178.2340  136.2310 N   0  0  0  0  0  2  0  0  0  0  0  0
  187.9940  178.5440  136.6380 C   0  0  0  0  0  2  0  0  0  0  0  0
  187.0580  178.3300  135.4670 C   0  0  0  0  0  1  0  0  0  0  0  0
  2  7  1  6  0  0  0
  2  5  1  0  0  0  0
  2  3  1  0  0  0  0
  3  9  1  0  0  0  0
  4  7  2  0  0  0  0
  5  3  1  0  0  0  0
  5  1  1  0  0  0  0
  6  4  1  0  0  0  0
  6 14  1  0  0  0  0
  7 10  1  0  0  0  0
  8 11  1  0  0  0  0
  9 15  1  0  0  0  0
 10 13  2  0  0  0  0
 11 12  1  0  0  0  0
 11  6  1  0  0  0  0
 12  6  1  0  0  0  0
 13  9  1  0  0  0  0
 14 10  1  0  0  0  0
 15 16  1  0  0  0  0
 16 17  1  0  0  0  0
 17 22  1  0  0  0  0
 18 19  1  0  0  0  0
 20 22  1  0  0  0  0
 20 21  1  0  0  0  0
 21 19  1  0  0  0  0
 22 18  1  0  0  0  0
 23 34  1  0  0  0  0
 23 11  1  0  0  0  0
 24 23  1  0  0  0  0
 25 24  1  0  0  0  0
 25 26  1  0  0  0  0
 26 27  1  0  0  0  0
 27 29  1  0  0  0  0
 29 28  1  0  0  0  0
 30 29  1  0  0  0  0
 30 31  1  0  0  0  0
 32 33  1  0  0  0  0
 33 31  1  0  0  0  0
 34 35  1  0  0  0  0
 36 35  1  0  0  0  0
M  END
>  <MODEL>
9

>  <REMARK>
 VINA RESULT:      -6.7      3.054      8.601
  Name = 
  15 active torsions:
  status: ('A' for Active; 'I' for Inactive)
    1  A    between atoms: C_1  and  C_16
    2  A    between atoms: C_1  and  C_29
    3  A    between atoms: C_2  and  C_12
    4  A    between atoms: C_2  and  N_17
    5  A    between atoms: C_4  and  C_24
    6  A    between atoms: C_4  and  C_28
    7  A    between atoms: C_8  and  C_14
    8  A    between atoms: C_8  and  N_17
    9  A    between atoms: C_10  and  N_33
   10  A    between atoms: C_12  and  C_29
   11  A    between atoms: C_14  and  C_35
   12  A    between atoms: C_16  and  C_27
   13  A    between atoms: C_16  and  N_33
   14  A    between atoms: O_26  and  C_28
   15  A    between atoms: O_26  and  C_31
                            x       y       z     vdW  Elec       q    Type
                         _______ _______ _______ _____ _____    ______ ____

>  <TORSDO>
F 15

$$$$
