=
 OpenBabel11042410583D

 56 61  0  0  1  0  0  0  0  0999 V2000
  192.4380  178.1540  142.5480 O   0  0  0  0  0  1  0  0  0  0  0  0
  192.8570  175.8390  135.7870 C   0  0  0  0  0  3  0  0  0  0  0  0
  190.4070  175.6100  139.1750 O   0  0  0  0  0  0  0  0  0  0  0  0
  190.0640  177.9240  142.8660 C   0  0  1  0  0  3  0  0  0  0  0  0
  188.7450  178.3920  142.2550 C   0  0  0  0  0  2  0  0  0  0  0  0
  189.0550  177.5370  139.9260 C   0  0  1  0  0  3  0  0  0  0  0  0
  191.2180  178.1070  141.8730 C   0  0  2  0  0  3  0  0  0  0  0  0
  190.8240  176.5530  136.9300 C   0  0  0  0  0  0  0  0  0  0  0  0
  188.2640  177.0820  138.7970 N   0  0  0  0  0  2  0  0  0  0  0  0
  193.1750  174.9740  136.8390 C   0  0  0  0  0  0  0  0  0  0  0  0
  188.4840  177.5810  137.4800 C   0  0  0  0  0  0  0  0  0  0  0  0
  189.5830  177.3490  136.7450 C   0  0  0  0  0  3  0  0  0  0  0  0
  191.1610  175.6980  138.0120 C   0  0  0  0  0  0  0  0  0  0  0  0
  188.2300  177.4220  141.1980 C   0  0  0  0  0  2  0  0  0  0  0  0
  191.2590  176.9710  140.8980 C   0  0  0  0  0  3  0  0  0  0  0  0
  191.6950  176.6090  135.8350 C   0  0  0  0  0  3  0  0  0  0  0  0
  190.2850  176.7050  140.0230 C   0  0  0  0  0  0  0  0  0  0  0  0
  192.3170  174.9110  137.9440 C   0  0  0  0  0  3  0  0  0  0  0  0
  199.1570  172.5820  136.4490 C   0  0  0  0  0  3  0  0  0  0  0  0
  195.5200  172.0080  136.9100 C   0  0  0  0  0  3  0  0  0  0  0  0
  199.1770  173.9710  136.2820 C   0  0  0  0  0  3  0  0  0  0  0  0
  197.9480  170.5310  136.8040 O   0  0  0  0  0  1  0  0  0  0  0  0
  194.4050  174.1550  136.7820 C   0  0  0  0  0  0  0  0  0  0  0  0
  194.3470  172.7640  136.9540 C   0  0  0  0  0  3  0  0  0  0  0  0
  195.6120  174.7530  136.5760 N   0  0  0  0  0  0  0  0  0  0  0  0
  196.7480  172.6410  136.6930 C   0  0  0  0  0  0  0  0  0  0  0  0
  197.9860  174.7010  136.3190 C   0  0  0  0  0  3  0  0  0  0  0  0
  196.7710  174.0440  136.5220 C   0  0  0  0  0  0  0  0  0  0  0  0
  197.9470  171.9130  136.6530 C   0  0  0  0  0  0  0  0  0  0  0  0
  190.3030  178.6600  144.0330 O   0  0  0  0  0  0  0  0  0  0  0  0
  189.1280  178.1820  146.4890 O   0  0  0  0  0  1  0  0  0  0  0  0
  189.5680  176.2680  144.7600 O   0  0  0  0  0  0  0  0  0  0  0  0
  190.1640  177.5470  145.3060 P   0  0  1  0  0  0  0  0  0  0  0  0
  191.7230  177.2350  145.9460 O   0  0  0  0  0  0  0  0  0  0  0  0
  192.0950  177.1170  148.2210 F   0  0  0  0  0  0  0  0  0  0  0  0
  190.3210  176.0140  147.3260 F   0  0  0  0  0  0  0  0  0  0  0  0
  191.6230  176.4370  147.1080 C   0  0  0  0  0  0  0  0  0  0  0  0
  192.4090  175.3140  146.9300 F   0  0  0  0  0  0  0  0  0  0  0  0
  187.3910  178.3650  136.8450 C   0  0  0  0  0  2  0  0  0  0  0  0
  186.0450  177.7350  137.1610 C   0  0  0  0  0  2  0  0  0  0  0  0
  185.2520  178.6370  138.0900 C   0  0  0  0  0  2  0  0  0  0  0  0
  185.0170  177.9870  139.3030 O   0  0  0  0  0  0  0  0  0  0  0  0
  184.7490  179.0170  140.2040 C   0  0  0  0  0  2  0  0  0  0  0  0
  183.5150  178.6720  141.0230 C   0  0  0  0  0  2  0  0  0  0  0  0
  184.6480  178.7730  145.2940 C   0  0  0  0  0  2  0  0  0  0  0  0
  182.9300  179.1680  143.5090 C   0  0  0  0  0  0  0  0  0  0  0  0
  183.3130  179.2540  144.7890 C   0  0  0  0  0  3  0  0  0  0  0  0
  185.4390  178.0430  144.2460 C   0  0  0  0  0  0  0  0  0  0  0  0
  185.0210  178.0670  142.8390 C   0  0  0  0  0  3  0  0  0  0  0  0
  186.4940  177.4410  144.5710 O   0  0  0  0  0  0  0  0  0  0  0  0
  183.8470  178.5960  142.4810 C   0  0  0  0  0  0  0  0  0  0  0  0
  181.6470  179.7030  143.1570 N   0  0  0  0  0  2  0  0  0  0  0  0
  180.3370  177.9570  144.0010 O   0  0  0  0  0  0  0  0  0  0  0  0
  180.4050  178.9990  143.2950 C   0  0  0  0  0  0  0  0  0  0  0  0
  179.2390  180.7050  141.9590 C   0  0  0  0  0  1  0  0  0  0  0  0
  179.2480  179.4830  142.6860 O   0  0  0  0  0  0  0  0  0  0  0  0
  2 16  2  0  0  0  0
  2 10  1  0  0  0  0
  3 17  1  0  0  0  0
  4 30  1  1  0  0  0
  5  4  1  0  0  0  0
  6 17  1  0  0  0  0
  6 14  1  1  0  0  0
  7  1  1  1  0  0  0
  7  4  1  0  0  0  0
  8 13  2  0  0  0  0
  9  6  1  0  0  0  0
 10 18  2  0  0  0  0
 11  9  1  0  0  0  0
 12  8  1  0  0  0  0
 12 11  2  0  0  0  0
 13  3  1  0  0  0  0
 14  5  1  0  0  0  0
 15  7  1  0  0  0  0
 16  8  1  0  0  0  0
 17 15  2  0  0  0  0
 18 13  1  0  0  0  0
 19 29  1  0  0  0  0
 20 24  2  0  0  0  0
 21 27  1  0  0  0  0
 21 19  2  0  0  0  0
 23 10  1  0  0  0  0
 23 24  1  0  0  0  0
 25 23  2  0  0  0  0
 26 20  1  0  0  0  0
 27 28  2  0  0  0  0
 28 25  1  0  0  0  0
 28 26  1  0  0  0  0
 29 26  2  0  0  0  0
 29 22  1  0  0  0  0
 30 33  1  0  0  0  0
 33 32  2  6  0  0  0
 33 34  1  0  0  0  0
 33 31  1  0  0  0  0
 34 37  1  0  0  0  0
 37 36  1  0  0  0  0
 37 35  1  0  0  0  0
 38 37  1  0  0  0  0
 39 40  1  0  0  0  0
 39 11  1  0  0  0  0
 40 41  1  0  0  0  0
 41 42  1  0  0  0  0
 42 43  1  0  0  0  0
 43 44  1  0  0  0  0
 44 51  1  0  0  0  0
 46 47  2  0  0  0  0
 47 45  1  0  0  0  0
 48 50  2  0  0  0  0
 48 45  1  0  0  0  0
 49 48  1  0  0  0  0
 51 49  2  0  0  0  0
 51 46  1  0  0  0  0
 52 54  1  0  0  0  0
 52 46  1  0  0  0  0
 54 53  2  0  0  0  0
 55 56  1  0  0  0  0
 56 54  1  0  0  0  0
M  END
>  <MODEL>
1

>  <REMARK>
 VINA RESULT:      -8.7      0.000      0.000
  Name = 
  14 active torsions:
  status: ('A' for Active; 'I' for Inactive)
    1  A    between atoms: O_11  and  C_12
    2  A    between atoms: O_11  and  P_36
    3  A    between atoms: C_13  and  O_24
    4  A    between atoms: C_15  and  C_35
    5  A    between atoms: C_17  and  C_31
    6  A    between atoms: C_17  and  C_56
    7  A    between atoms: O_19  and  C_31
    8  A    between atoms: O_19  and  C_38
    9  A    between atoms: N_21  and  C_25
   10  A    between atoms: O_24  and  P_36
   11  A    between atoms: C_27  and  C_37
   12  A    between atoms: C_27  and  C_55
   13  A    between atoms: C_38  and  C_55
   14  A    between atoms: O_50  and  C_51
                            x       y       z     vdW  Elec       q    Type
                         _______ _______ _______ _____ _____    ______ ____

>  <TORSDO>
F 14

$$$$
=
 OpenBabel11042410583D

 56 61  0  0  1  0  0  0  0  0999 V2000
  192.4400  178.2080  142.7220 O   0  0  0  0  0  1  0  0  0  0  0  0
  192.8790  175.8670  135.9720 C   0  0  0  0  0  3  0  0  0  0  0  0
  190.4080  175.6700  139.3460 O   0  0  0  0  0  0  0  0  0  0  0  0
  190.0630  177.9980  143.0280 C   0  0  1  0  0  3  0  0  0  0  0  0
  188.7520  178.4750  142.4080 C   0  0  0  0  0  2  0  0  0  0  0  0
  189.0670  177.6090  140.0830 C   0  0  1  0  0  3  0  0  0  0  0  0
  191.2240  178.1690  142.0410 C   0  0  2  0  0  3  0  0  0  0  0  0
  190.8450  176.6010  137.1000 C   0  0  0  0  0  0  0  0  0  0  0  0
  188.2790  177.1580  138.9510 N   0  0  0  0  0  2  0  0  0  0  0  0
  193.1840  175.0030  137.0280 C   0  0  0  0  0  0  0  0  0  0  0  0
  188.5110  177.6500  137.6340 C   0  0  0  0  0  0  0  0  0  0  0  0
  189.6110  177.4070  136.9060 C   0  0  0  0  0  3  0  0  0  0  0  0
  191.1690  175.7470  138.1880 C   0  0  0  0  0  0  0  0  0  0  0  0
  188.2340  177.5070  141.3510 C   0  0  0  0  0  2  0  0  0  0  0  0
  191.2610  177.0290  141.0690 C   0  0  0  0  0  3  0  0  0  0  0  0
  191.7220  176.6460  136.0100 C   0  0  0  0  0  3  0  0  0  0  0  0
  190.2900  176.7680  140.1900 C   0  0  0  0  0  0  0  0  0  0  0  0
  192.3190  174.9510  138.1280 C   0  0  0  0  0  3  0  0  0  0  0  0
  199.1410  172.5220  137.1620 C   0  0  0  0  0  3  0  0  0  0  0  0
  195.4930  172.0270  136.6930 C   0  0  0  0  0  3  0  0  0  0  0  0
  199.1800  173.8970  137.4180 C   0  0  0  0  0  3  0  0  0  0  0  0
  197.9060  170.5220  136.6470 O   0  0  0  0  0  1  0  0  0  0  0  0
  194.4070  174.1730  136.9810 C   0  0  0  0  0  0  0  0  0  0  0  0
  194.3280  172.7960  136.7210 C   0  0  0  0  0  3  0  0  0  0  0  0
  195.6240  174.7420  137.2070 N   0  0  0  0  0  0  0  0  0  0  0  0
  196.7320  172.6310  136.9230 C   0  0  0  0  0  0  0  0  0  0  0  0
  198.0000  174.6450  137.4280 C   0  0  0  0  0  3  0  0  0  0  0  0
  196.7760  174.0210  137.1800 C   0  0  0  0  0  0  0  0  0  0  0  0
  197.9220  171.8860  136.9120 C   0  0  0  0  0  0  0  0  0  0  0  0
  190.3010  178.7370  144.1930 O   0  0  0  0  0  0  0  0  0  0  0  0
  189.2000  178.2930  146.6890 O   0  0  0  0  0  1  0  0  0  0  0  0
  189.5030  176.3710  144.9410 O   0  0  0  0  0  0  0  0  0  0  0  0
  190.1670  177.6240  145.4680 P   0  0  1  0  0  0  0  0  0  0  0  0
  191.7350  177.2510  146.0500 O   0  0  0  0  0  0  0  0  0  0  0  0
  190.3390  175.9870  147.3840 F   0  0  0  0  0  0  0  0  0  0  0  0
  192.3230  175.1110  146.7060 F   0  0  0  0  0  0  0  0  0  0  0  0
  191.6590  176.2730  147.0670 C   0  0  0  0  0  0  0  0  0  0  0  0
  192.2690  176.7760  148.1990 F   0  0  0  0  0  0  0  0  0  0  0  0
  187.4280  178.4420  136.9900 C   0  0  0  0  0  2  0  0  0  0  0  0
  186.0890  177.7490  137.1850 C   0  0  0  0  0  2  0  0  0  0  0  0
  185.1510  178.6420  137.9770 C   0  0  0  0  0  2  0  0  0  0  0  0
  185.5220  178.6530  139.3230 O   0  0  0  0  0  0  0  0  0  0  0  0
  184.3290  178.4490  140.0150 C   0  0  0  0  0  2  0  0  0  0  0  0
  184.4740  178.9510  141.4430 C   0  0  0  0  0  2  0  0  0  0  0  0
  180.6720  178.4540  143.6420 C   0  0  0  0  0  2  0  0  0  0  0  0
  183.0750  179.1720  143.6260 C   0  0  0  0  0  0  0  0  0  0  0  0
  181.9350  178.9530  144.2920 C   0  0  0  0  0  3  0  0  0  0  0  0
  180.7760  178.3810  142.1450 C   0  0  0  0  0  0  0  0  0  0  0  0
  182.0740  178.5320  141.4760 C   0  0  0  0  0  3  0  0  0  0  0  0
  179.7480  178.1460  141.4610 O   0  0  0  0  0  0  0  0  0  0  0  0
  183.1610  178.8990  142.1610 C   0  0  0  0  0  0  0  0  0  0  0  0
  184.2160  179.6070  144.3770 N   0  0  0  0  0  2  0  0  0  0  0  0
  185.2190  177.5130  144.6660 O   0  0  0  0  0  0  0  0  0  0  0  0
  185.1720  178.7310  144.9890 C   0  0  0  0  0  0  0  0  0  0  0  0
  185.8850  179.0900  147.3160 C   0  0  0  0  0  1  0  0  0  0  0  0
  186.0900  179.2230  145.9160 O   0  0  0  0  0  0  0  0  0  0  0  0
  2 16  2  0  0  0  0
  2 10  1  0  0  0  0
  3 17  1  0  0  0  0
  4 30  1  1  0  0  0
  5  4  1  0  0  0  0
  6 17  1  0  0  0  0
  6 14  1  1  0  0  0
  7  1  1  1  0  0  0
  7  4  1  0  0  0  0
  8 13  2  0  0  0  0
  9  6  1  0  0  0  0
 10 18  2  0  0  0  0
 11  9  1  0  0  0  0
 12  8  1  0  0  0  0
 12 11  2  0  0  0  0
 13  3  1  0  0  0  0
 14  5  1  0  0  0  0
 15  7  1  0  0  0  0
 16  8  1  0  0  0  0
 17 15  2  0  0  0  0
 18 13  1  0  0  0  0
 19 21  1  0  0  0  0
 20 24  2  0  0  0  0
 20 26  1  0  0  0  0
 21 27  2  0  0  0  0
 22 29  1  0  0  0  0
 23 10  1  0  0  0  0
 23 25  2  0  0  0  0
 24 23  1  0  0  0  0
 26 28  2  0  0  0  0
 28 25  1  0  0  0  0
 28 27  1  0  0  0  0
 29 26  1  0  0  0  0
 29 19  2  0  0  0  0
 30 33  1  0  0  0  0
 33 32  2  6  0  0  0
 33 34  1  0  0  0  0
 33 31  1  0  0  0  0
 34 37  1  0  0  0  0
 36 37  1  0  0  0  0
 37 35  1  0  0  0  0
 37 38  1  0  0  0  0
 39 40  1  0  0  0  0
 39 11  1  0  0  0  0
 40 41  1  0  0  0  0
 41 42  1  0  0  0  0
 42 43  1  0  0  0  0
 43 44  1  0  0  0  0
 44 51  1  0  0  0  0
 45 47  1  0  0  0  0
 46 47  2  0  0  0  0
 46 52  1  0  0  0  0
 48 45  1  0  0  0  0
 49 48  1  0  0  0  0
 49 51  2  0  0  0  0
 50 48  2  0  0  0  0
 51 46  1  0  0  0  0
 52 54  1  0  0  0  0
 53 54  2  0  0  0  0
 54 56  1  0  0  0  0
 56 55  1  0  0  0  0
M  END
>  <MODEL>
2

>  <REMARK>
 VINA RESULT:      -8.0      0.873      2.415
  Name = 
  14 active torsions:
  status: ('A' for Active; 'I' for Inactive)
    1  A    between atoms: O_11  and  C_12
    2  A    between atoms: O_11  and  P_36
    3  A    between atoms: C_13  and  O_24
    4  A    between atoms: C_15  and  C_35
    5  A    between atoms: C_17  and  C_31
    6  A    between atoms: C_17  and  C_56
    7  A    between atoms: O_19  and  C_31
    8  A    between atoms: O_19  and  C_38
    9  A    between atoms: N_21  and  C_25
   10  A    between atoms: O_24  and  P_36
   11  A    between atoms: C_27  and  C_37
   12  A    between atoms: C_27  and  C_55
   13  A    between atoms: C_38  and  C_55
   14  A    between atoms: O_50  and  C_51
                            x       y       z     vdW  Elec       q    Type
                         _______ _______ _______ _____ _____    ______ ____

>  <TORSDO>
F 14

$$$$
=
 OpenBabel11042410583D

 56 61  0  0  1  0  0  0  0  0999 V2000
  192.3430  178.0450  142.6160 O   0  0  0  0  0  1  0  0  0  0  0  0
  192.8700  175.8190  135.8330 C   0  0  0  0  0  3  0  0  0  0  0  0
  190.3330  175.6020  139.1570 O   0  0  0  0  0  0  0  0  0  0  0  0
  189.9570  177.8700  142.8730 C   0  0  1  0  0  3  0  0  0  0  0  0
  188.6660  178.3790  142.2380 C   0  0  0  0  0  2  0  0  0  0  0  0
  189.0110  177.5510  139.9040 C   0  0  1  0  0  3  0  0  0  0  0  0
  191.1390  178.0390  141.9110 C   0  0  2  0  0  3  0  0  0  0  0  0
  190.8280  176.5670  136.9370 C   0  0  0  0  0  0  0  0  0  0  0  0
  188.2370  177.1320  138.7490 N   0  0  0  0  0  2  0  0  0  0  0  0
  193.1410  174.9310  136.8780 C   0  0  0  0  0  0  0  0  0  0  0  0
  188.5020  177.6440  137.4460 C   0  0  0  0  0  0  0  0  0  0  0  0
  189.6110  177.3960  136.7340 C   0  0  0  0  0  3  0  0  0  0  0  0
  191.1170  175.6880  138.0140 C   0  0  0  0  0  0  0  0  0  0  0  0
  188.1530  177.4390  141.1540 C   0  0  0  0  0  2  0  0  0  0  0  0
  191.1760  176.9160  140.9200 C   0  0  0  0  0  3  0  0  0  0  0  0
  191.7260  176.6170  135.8640 C   0  0  0  0  0  3  0  0  0  0  0  0
  190.2180  176.6870  140.0180 C   0  0  0  0  0  0  0  0  0  0  0  0
  192.2550  174.8740  137.9610 C   0  0  0  0  0  3  0  0  0  0  0  0
  197.7890  170.6100  135.6990 C   0  0  0  0  0  3  0  0  0  0  0  0
  196.5750  173.5380  137.6300 C   0  0  0  0  0  3  0  0  0  0  0  0
  196.6880  170.3810  134.8660 C   0  0  0  0  0  3  0  0  0  0  0  0
  198.8630  171.8560  137.4560 O   0  0  0  0  0  1  0  0  0  0  0  0
  194.3510  174.0830  136.8390 C   0  0  0  0  0  0  0  0  0  0  0  0
  195.4360  174.3430  137.6900 C   0  0  0  0  0  3  0  0  0  0  0  0
  194.4270  173.0450  135.9590 N   0  0  0  0  0  0  0  0  0  0  0  0
  196.6300  172.4760  136.7230 C   0  0  0  0  0  0  0  0  0  0  0  0
  195.5560  171.1950  134.9560 C   0  0  0  0  0  3  0  0  0  0  0  0
  195.5200  172.2400  135.8810 C   0  0  0  0  0  0  0  0  0  0  0  0
  197.7650  171.6530  136.6290 C   0  0  0  0  0  0  0  0  0  0  0  0
  190.1860  178.5830  144.0560 O   0  0  0  0  0  0  0  0  0  0  0  0
  191.3240  176.4330  145.3670 O   0  0  0  0  0  0  0  0  0  0  0  0
  189.8710  178.2130  146.6170 O   0  0  0  0  0  1  0  0  0  0  0  0
  189.9760  177.4580  145.3100 P   0  0  1  0  0  0  0  0  0  0  0  0
  188.5340  176.5760  145.0310 O   0  0  0  0  0  0  0  0  0  0  0  0
  187.2630  177.0380  146.9010 F   0  0  0  0  0  0  0  0  0  0  0  0
  187.5330  178.6440  145.3150 F   0  0  0  0  0  0  0  0  0  0  0  0
  187.4220  177.2810  145.5450 C   0  0  0  0  0  0  0  0  0  0  0  0
  186.2880  176.8320  144.8960 F   0  0  0  0  0  0  0  0  0  0  0  0
  187.4440  178.4650  136.7970 C   0  0  0  0  0  2  0  0  0  0  0  0
  186.1660  177.6550  136.6580 C   0  0  0  0  0  2  0  0  0  0  0  0
  185.2680  177.8870  137.8600 C   0  0  0  0  0  2  0  0  0  0  0  0
  185.5330  179.1370  138.4220 O   0  0  0  0  0  0  0  0  0  0  0  0
  185.1360  179.0120  139.7530 C   0  0  0  0  0  2  0  0  0  0  0  0
  183.8710  178.1730  139.8330 C   0  0  0  0  0  2  0  0  0  0  0  0
  181.8740  179.0750  143.6710 C   0  0  0  0  0  2  0  0  0  0  0  0
  181.7050  178.4500  141.2480 C   0  0  0  0  0  0  0  0  0  0  0  0
  181.1170  178.7910  142.4010 C   0  0  0  0  0  3  0  0  0  0  0  0
  183.3430  178.7820  143.5530 C   0  0  0  0  0  0  0  0  0  0  0  0
  183.9500  178.5120  142.2440 C   0  0  0  0  0  3  0  0  0  0  0  0
  184.0670  178.8110  144.5800 O   0  0  0  0  0  0  0  0  0  0  0  0
  183.1920  178.3580  141.1540 C   0  0  0  0  0  0  0  0  0  0  0  0
  180.8670  178.2470  140.1030 N   0  0  0  0  0  2  0  0  0  0  0  0
  180.9090  175.9080  140.0940 O   0  0  0  0  0  0  0  0  0  0  0  0
  180.6200  176.9750  139.4890 C   0  0  0  0  0  0  0  0  0  0  0  0
  180.1980  175.7790  137.3810 C   0  0  0  0  0  1  0  0  0  0  0  0
  180.0170  176.9010  138.2340 O   0  0  0  0  0  0  0  0  0  0  0  0
  2 16  2  0  0  0  0
  2 10  1  0  0  0  0
  3 17  1  0  0  0  0
  4 30  1  1  0  0  0
  5  4  1  0  0  0  0
  6 17  1  0  0  0  0
  6 14  1  1  0  0  0
  7  1  1  1  0  0  0
  7  4  1  0  0  0  0
  8 13  2  0  0  0  0
  9  6  1  0  0  0  0
 10 18  2  0  0  0  0
 11  9  1  0  0  0  0
 12  8  1  0  0  0  0
 12 11  2  0  0  0  0
 13  3  1  0  0  0  0
 14  5  1  0  0  0  0
 15  7  1  0  0  0  0
 16  8  1  0  0  0  0
 17 15  2  0  0  0  0
 18 13  1  0  0  0  0
 19 29  1  0  0  0  0
 20 24  2  0  0  0  0
 21 27  1  0  0  0  0
 21 19  2  0  0  0  0
 23 10  1  0  0  0  0
 23 24  1  0  0  0  0
 25 23  2  0  0  0  0
 26 20  1  0  0  0  0
 27 28  2  0  0  0  0
 28 25  1  0  0  0  0
 28 26  1  0  0  0  0
 29 26  2  0  0  0  0
 29 22  1  0  0  0  0
 30 33  1  0  0  0  0
 33 31  2  1  0  0  0
 33 32  1  0  0  0  0
 34 33  1  0  0  0  0
 34 37  1  0  0  0  0
 36 37  1  0  0  0  0
 37 35  1  0  0  0  0
 38 37  1  0  0  0  0
 39 11  1  0  0  0  0
 40 39  1  0  0  0  0
 40 41  1  0  0  0  0
 41 42  1  0  0  0  0
 42 43  1  0  0  0  0
 43 44  1  0  0  0  0
 44 51  1  0  0  0  0
 46 47  2  0  0  0  0
 47 45  1  0  0  0  0
 48 45  1  0  0  0  0
 48 50  2  0  0  0  0
 49 48  1  0  0  0  0
 51 46  1  0  0  0  0
 51 49  2  0  0  0  0
 52 46  1  0  0  0  0
 54 53  2  0  0  0  0
 54 52  1  0  0  0  0
 55 56  1  0  0  0  0
 56 54  1  0  0  0  0
M  END
>  <MODEL>
3

>  <REMARK>
 VINA RESULT:      -7.7      1.949      2.605
  Name = 
  14 active torsions:
  status: ('A' for Active; 'I' for Inactive)
    1  A    between atoms: O_11  and  C_12
    2  A    between atoms: O_11  and  P_36
    3  A    between atoms: C_13  and  O_24
    4  A    between atoms: C_15  and  C_35
    5  A    between atoms: C_17  and  C_31
    6  A    between atoms: C_17  and  C_56
    7  A    between atoms: O_19  and  C_31
    8  A    between atoms: O_19  and  C_38
    9  A    between atoms: N_21  and  C_25
   10  A    between atoms: O_24  and  P_36
   11  A    between atoms: C_27  and  C_37
   12  A    between atoms: C_27  and  C_55
   13  A    between atoms: C_38  and  C_55
   14  A    between atoms: O_50  and  C_51
                            x       y       z     vdW  Elec       q    Type
                         _______ _______ _______ _____ _____    ______ ____

>  <TORSDO>
F 14

$$$$
=
 OpenBabel11042410583D

 56 61  0  0  1  0  0  0  0  0999 V2000
  192.1860  177.8280  142.2420 O   0  0  0  0  0  1  0  0  0  0  0  0
  193.0300  175.3750  135.5710 C   0  0  0  0  0  3  0  0  0  0  0  0
  190.2590  175.4230  138.7100 O   0  0  0  0  0  0  0  0  0  0  0  0
  189.7810  177.8180  142.3340 C   0  0  1  0  0  3  0  0  0  0  0  0
  188.5750  178.3930  141.5960 C   0  0  0  0  0  2  0  0  0  0  0  0
  189.0240  177.4760  139.3130 C   0  0  1  0  0  3  0  0  0  0  0  0
  191.0360  177.8800  141.4540 C   0  0  2  0  0  3  0  0  0  0  0  0
  190.9710  176.2880  136.5080 C   0  0  0  0  0  0  0  0  0  0  0  0
  188.3050  177.0760  138.1170 N   0  0  0  0  0  2  0  0  0  0  0  0
  193.1660  174.5020  136.6540 C   0  0  0  0  0  0  0  0  0  0  0  0
  188.6940  177.5320  136.8230 C   0  0  0  0  0  0  0  0  0  0  0  0
  189.8310  177.1890  136.1990 C   0  0  0  0  0  3  0  0  0  0  0  0
  191.1240  175.4230  137.6240 C   0  0  0  0  0  0  0  0  0  0  0  0
  188.0750  177.4570  140.5020 C   0  0  0  0  0  2  0  0  0  0  0  0
  191.0650  176.7290  140.4960 C   0  0  0  0  0  3  0  0  0  0  0  0
  191.9430  176.2470  135.5010 C   0  0  0  0  0  3  0  0  0  0  0  0
  190.1580  176.5380  139.5340 C   0  0  0  0  0  0  0  0  0  0  0  0
  192.2050  174.5340  137.6720 C   0  0  0  0  0  3  0  0  0  0  0  0
  198.9100  171.5780  136.9960 C   0  0  0  0  0  3  0  0  0  0  0  0
  195.2100  171.3260  136.8490 C   0  0  0  0  0  3  0  0  0  0  0  0
  199.0730  172.9660  136.9430 C   0  0  0  0  0  3  0  0  0  0  0  0
  197.4910  169.6340  137.0000 O   0  0  0  0  0  1  0  0  0  0  0  0
  194.3150  173.5740  136.7220 C   0  0  0  0  0  0  0  0  0  0  0  0
  194.1130  172.1860  136.7730 C   0  0  0  0  0  3  0  0  0  0  0  0
  195.5860  174.0650  136.7500 N   0  0  0  0  0  0  0  0  0  0  0  0
  196.5060  171.8510  136.8730 C   0  0  0  0  0  0  0  0  0  0  0  0
  197.9570  173.8030  136.8560 C   0  0  0  0  0  3  0  0  0  0  0  0
  196.6740  173.2530  136.8180 C   0  0  0  0  0  0  0  0  0  0  0  0
  197.6310  171.0150  136.9590 C   0  0  0  0  0  0  0  0  0  0  0  0
  189.9750  178.5490  143.5120 O   0  0  0  0  0  0  0  0  0  0  0  0
  188.3140  176.5390  144.4290 O   0  0  0  0  0  0  0  0  0  0  0  0
  190.8930  176.5210  144.8680 O   0  0  0  0  0  1  0  0  0  0  0  0
  189.7010  177.4490  144.7760 P   0  0  1  0  0  0  0  0  0  0  0  0
  189.5260  178.3170  146.2420 O   0  0  0  0  0  0  0  0  0  0  0  0
  189.4260  176.2080  147.1720 F   0  0  0  0  0  0  0  0  0  0  0  0
  189.0950  178.0240  148.4970 F   0  0  0  0  0  0  0  0  0  0  0  0
  188.9240  177.5000  147.2260 C   0  0  0  0  0  0  0  0  0  0  0  0
  187.5680  177.4410  146.9690 F   0  0  0  0  0  0  0  0  0  0  0  0
  187.7420  178.4010  136.0810 C   0  0  0  0  0  2  0  0  0  0  0  0
  187.3500  177.7440  134.7680 C   0  0  0  0  0  2  0  0  0  0  0  0
  186.0460  176.9850  134.9340 C   0  0  0  0  0  2  0  0  0  0  0  0
  186.2910  175.7280  135.4880 O   0  0  0  0  0  0  0  0  0  0  0  0
  185.2190  175.5120  136.3520 C   0  0  0  0  0  2  0  0  0  0  0  0
  184.3800  176.7770  136.4520 C   0  0  0  0  0  2  0  0  0  0  0  0
  183.3990  178.0770  140.5610 C   0  0  0  0  0  2  0  0  0  0  0  0
  183.1290  176.4130  138.7040 C   0  0  0  0  0  0  0  0  0  0  0  0
  182.7920  176.8570  139.9210 C   0  0  0  0  0  3  0  0  0  0  0  0
  184.5340  178.6510  139.7620 C   0  0  0  0  0  0  0  0  0  0  0  0
  184.7940  178.1920  138.3920 C   0  0  0  0  0  3  0  0  0  0  0  0
  185.2430  179.5650  140.2550 O   0  0  0  0  0  0  0  0  0  0  0  0
  184.1380  177.1450  137.8830 C   0  0  0  0  0  0  0  0  0  0  0  0
  182.4420  175.2610  138.1970 N   0  0  0  0  0  2  0  0  0  0  0  0
  180.6370  176.3790  137.2150 O   0  0  0  0  0  0  0  0  0  0  0  0
  181.1420  175.2880  137.5930 C   0  0  0  0  0  0  0  0  0  0  0  0
  181.1060  172.8700  137.1420 C   0  0  0  0  0  1  0  0  0  0  0  0
  180.4400  174.1040  137.3740 O   0  0  0  0  0  0  0  0  0  0  0  0
  2 10  1  0  0  0  0
  3 17  1  0  0  0  0
  4 30  1  1  0  0  0
  5  4  1  0  0  0  0
  6 17  1  0  0  0  0
  6 14  1  1  0  0  0
  7  1  1  1  0  0  0
  7  4  1  0  0  0  0
  8 13  2  0  0  0  0
  9  6  1  0  0  0  0
 10 23  1  0  0  0  0
 10 18  2  0  0  0  0
 11  9  1  0  0  0  0
 12  8  1  0  0  0  0
 12 11  2  0  0  0  0
 13 18  1  0  0  0  0
 13  3  1  0  0  0  0
 14  5  1  0  0  0  0
 15  7  1  0  0  0  0
 16  2  2  0  0  0  0
 16  8  1  0  0  0  0
 17 15  2  0  0  0  0
 20 26  1  0  0  0  0
 21 19  2  0  0  0  0
 23 25  2  0  0  0  0
 23 24  1  0  0  0  0
 24 20  2  0  0  0  0
 25 28  1  0  0  0  0
 26 29  2  0  0  0  0
 27 21  1  0  0  0  0
 28 27  2  0  0  0  0
 28 26  1  0  0  0  0
 29 19  1  0  0  0  0
 29 22  1  0  0  0  0
 30 33  1  0  0  0  0
 33 31  2  6  0  0  0
 33 32  1  0  0  0  0
 33 34  1  0  0  0  0
 34 37  1  0  0  0  0
 35 37  1  0  0  0  0
 37 36  1  0  0  0  0
 38 37  1  0  0  0  0
 39 11  1  0  0  0  0
 40 41  1  0  0  0  0
 40 39  1  0  0  0  0
 41 42  1  0  0  0  0
 42 43  1  0  0  0  0
 43 44  1  0  0  0  0
 44 51  1  0  0  0  0
 46 47  2  0  0  0  0
 47 45  1  0  0  0  0
 48 50  2  0  0  0  0
 48 45  1  0  0  0  0
 49 48  1  0  0  0  0
 51 49  2  0  0  0  0
 51 46  1  0  0  0  0
 52 46  1  0  0  0  0
 53 54  2  0  0  0  0
 54 52  1  0  0  0  0
 55 56  1  0  0  0  0
 56 54  1  0  0  0  0
M  END
>  <MODEL>
4

>  <REMARK>
 VINA RESULT:      -7.7      2.364      3.382
  Name = 
  14 active torsions:
  status: ('A' for Active; 'I' for Inactive)
    1  A    between atoms: O_11  and  C_12
    2  A    between atoms: O_11  and  P_36
    3  A    between atoms: C_13  and  O_24
    4  A    between atoms: C_15  and  C_35
    5  A    between atoms: C_17  and  C_31
    6  A    between atoms: C_17  and  C_56
    7  A    between atoms: O_19  and  C_31
    8  A    between atoms: O_19  and  C_38
    9  A    between atoms: N_21  and  C_25
   10  A    between atoms: O_24  and  P_36
   11  A    between atoms: C_27  and  C_37
   12  A    between atoms: C_27  and  C_55
   13  A    between atoms: C_38  and  C_55
   14  A    between atoms: O_50  and  C_51
                            x       y       z     vdW  Elec       q    Type
                         _______ _______ _______ _____ _____    ______ ____

>  <TORSDO>
F 14

$$$$
=
 OpenBabel11042410583D

 56 61  0  0  1  0  0  0  0  0999 V2000
  192.3580  177.8650  142.1960 O   0  0  0  0  0  1  0  0  0  0  0  0
  192.8710  175.5410  135.4450 C   0  0  0  0  0  3  0  0  0  0  0  0
  190.3130  175.4220  138.7570 O   0  0  0  0  0  0  0  0  0  0  0  0
  189.9680  177.7450  142.4430 C   0  0  1  0  0  3  0  0  0  0  0  0
  188.6910  178.2740  141.7940 C   0  0  0  0  0  2  0  0  0  0  0  0
  189.0300  177.4080  139.4730 C   0  0  1  0  0  3  0  0  0  0  0  0
  191.1580  177.8750  141.4850 C   0  0  2  0  0  3  0  0  0  0  0  0
  190.8400  176.3470  136.5280 C   0  0  0  0  0  0  0  0  0  0  0  0
  188.2530  176.9920  138.3200 N   0  0  0  0  0  2  0  0  0  0  0  0
  193.1170  174.6610  136.5030 C   0  0  0  0  0  0  0  0  0  0  0  0
  188.5350  177.4810  137.0110 C   0  0  0  0  0  0  0  0  0  0  0  0
  189.6430  177.1990  136.3080 C   0  0  0  0  0  3  0  0  0  0  0  0
  191.1050  175.4760  137.6180 C   0  0  0  0  0  0  0  0  0  0  0  0
  188.1630  177.3310  140.7200 C   0  0  0  0  0  2  0  0  0  0  0  0
  191.1750  176.7400  140.5080 C   0  0  0  0  0  3  0  0  0  0  0  0
  191.7440  176.3630  135.4590 C   0  0  0  0  0  3  0  0  0  0  0  0
  190.2170  176.5200  139.6040 C   0  0  0  0  0  0  0  0  0  0  0  0
  192.2240  174.6360  137.5820 C   0  0  0  0  0  3  0  0  0  0  0  0
  197.5610  170.0260  137.1540 C   0  0  0  0  0  3  0  0  0  0  0  0
  196.5560  173.2980  135.7210 C   0  0  0  0  0  3  0  0  0  0  0  0
  196.4100  169.7020  137.8810 C   0  0  0  0  0  3  0  0  0  0  0  0
  198.7850  171.5310  135.7300 O   0  0  0  0  0  1  0  0  0  0  0  0
  194.3080  173.7860  136.4810 C   0  0  0  0  0  0  0  0  0  0  0  0
  195.4460  174.1430  135.7400 C   0  0  0  0  0  3  0  0  0  0  0  0
  194.3040  172.6110  137.1720 N   0  0  0  0  0  0  0  0  0  0  0  0
  196.5320  172.1000  136.4400 C   0  0  0  0  0  0  0  0  0  0  0  0
  195.3170  170.5720  137.8920 C   0  0  0  0  0  3  0  0  0  0  0  0
  195.3720  171.7710  137.1770 C   0  0  0  0  0  0  0  0  0  0  0  0
  197.6280  171.2220  136.4350 C   0  0  0  0  0  0  0  0  0  0  0  0
  190.2060  178.4680  143.6180 O   0  0  0  0  0  0  0  0  0  0  0  0
  188.3440  176.6040  144.4540 O   0  0  0  0  0  0  0  0  0  0  0  0
  190.8740  176.4280  145.0960 O   0  0  0  0  0  1  0  0  0  0  0  0
  189.7600  177.4310  144.8850 P   0  0  1  0  0  0  0  0  0  0  0  0
  189.5330  178.3560  146.3090 O   0  0  0  0  0  0  0  0  0  0  0  0
  188.8060  178.2160  148.4950 F   0  0  0  0  0  0  0  0  0  0  0  0
  187.4180  177.5630  146.8180 F   0  0  0  0  0  0  0  0  0  0  0  0
  188.7380  177.6420  147.2340 C   0  0  0  0  0  0  0  0  0  0  0  0
  189.2310  176.3550  147.3250 F   0  0  0  0  0  0  0  0  0  0  0  0
  187.4980  178.3170  136.3460 C   0  0  0  0  0  2  0  0  0  0  0  0
  186.1620  178.1480  137.0500 C   0  0  0  0  0  2  0  0  0  0  0  0
  185.2630  177.2240  136.2480 C   0  0  0  0  0  2  0  0  0  0  0  0
  184.6680  176.2850  137.0920 O   0  0  0  0  0  0  0  0  0  0  0  0
  183.3020  176.4050  136.8370 C   0  0  0  0  0  2  0  0  0  0  0  0
  182.5980  176.9560  138.0670 C   0  0  0  0  0  2  0  0  0  0  0  0
  181.2140  181.1380  137.6990 C   0  0  0  0  0  2  0  0  0  0  0  0
  182.6870  179.4450  138.8200 C   0  0  0  0  0  0  0  0  0  0  0  0
  182.2080  180.6920  138.7380 C   0  0  0  0  0  3  0  0  0  0  0  0
  180.9370  180.0820  136.6670 C   0  0  0  0  0  0  0  0  0  0  0  0
  181.4060  178.7040  136.8590 C   0  0  0  0  0  3  0  0  0  0  0  0
  180.2610  180.3710  135.6470 O   0  0  0  0  0  0  0  0  0  0  0  0
  182.2240  178.3920  137.8690 C   0  0  0  0  0  0  0  0  0  0  0  0
  183.5980  179.1450  139.8850 N   0  0  0  0  0  2  0  0  0  0  0  0
  182.0260  178.3680  141.4340 O   0  0  0  0  0  0  0  0  0  0  0  0
  183.2050  178.7500  141.2070 C   0  0  0  0  0  0  0  0  0  0  0  0
  183.7450  178.9290  143.6000 C   0  0  0  0  0  1  0  0  0  0  0  0
  184.1340  178.7390  142.2460 O   0  0  0  0  0  0  0  0  0  0  0  0
  2 16  2  0  0  0  0
  2 10  1  0  0  0  0
  3 17  1  0  0  0  0
  4 30  1  1  0  0  0
  5  4  1  0  0  0  0
  6 17  1  0  0  0  0
  6 14  1  1  0  0  0
  7  1  1  1  0  0  0
  7  4  1  0  0  0  0
  8 13  2  0  0  0  0
  9  6  1  0  0  0  0
 10 18  2  0  0  0  0
 11  9  1  0  0  0  0
 12  8  1  0  0  0  0
 12 11  2  0  0  0  0
 13  3  1  0  0  0  0
 14  5  1  0  0  0  0
 15  7  1  0  0  0  0
 16  8  1  0  0  0  0
 17 15  2  0  0  0  0
 18 13  1  0  0  0  0
 19 21  1  0  0  0  0
 20 24  2  0  0  0  0
 20 26  1  0  0  0  0
 21 27  2  0  0  0  0
 22 29  1  0  0  0  0
 23 10  1  0  0  0  0
 23 25  2  0  0  0  0
 24 23  1  0  0  0  0
 25 28  1  0  0  0  0
 26 28  2  0  0  0  0
 28 27  1  0  0  0  0
 29 26  1  0  0  0  0
 29 19  2  0  0  0  0
 30 33  1  0  0  0  0
 33 31  2  6  0  0  0
 33 32  1  0  0  0  0
 33 34  1  0  0  0  0
 34 37  1  0  0  0  0
 36 37  1  0  0  0  0
 37 38  1  0  0  0  0
 37 35  1  0  0  0  0
 39 11  1  0  0  0  0
 39 40  1  0  0  0  0
 41 40  1  0  0  0  0
 41 42  1  0  0  0  0
 43 42  1  0  0  0  0
 43 44  1  0  0  0  0
 45 47  1  0  0  0  0
 46 52  1  0  0  0  0
 47 46  2  0  0  0  0
 48 49  1  0  0  0  0
 48 45  1  0  0  0  0
 49 51  2  0  0  0  0
 50 48  2  0  0  0  0
 51 44  1  0  0  0  0
 51 46  1  0  0  0  0
 52 54  1  0  0  0  0
 54 53  2  0  0  0  0
 54 56  1  0  0  0  0
 56 55  1  0  0  0  0
M  END
>  <MODEL>
5

>  <REMARK>
 VINA RESULT:      -7.3      2.160      3.558
  Name = 
  14 active torsions:
  status: ('A' for Active; 'I' for Inactive)
    1  A    between atoms: O_11  and  C_12
    2  A    between atoms: O_11  and  P_36
    3  A    between atoms: C_13  and  O_24
    4  A    between atoms: C_15  and  C_35
    5  A    between atoms: C_17  and  C_31
    6  A    between atoms: C_17  and  C_56
    7  A    between atoms: O_19  and  C_31
    8  A    between atoms: O_19  and  C_38
    9  A    between atoms: N_21  and  C_25
   10  A    between atoms: O_24  and  P_36
   11  A    between atoms: C_27  and  C_37
   12  A    between atoms: C_27  and  C_55
   13  A    between atoms: C_38  and  C_55
   14  A    between atoms: O_50  and  C_51
                            x       y       z     vdW  Elec       q    Type
                         _______ _______ _______ _____ _____    ______ ____

>  <TORSDO>
F 14

$$$$
=
 OpenBabel11042410583D

 56 61  0  0  1  0  0  0  0  0999 V2000
  182.8550  176.5960  138.5830 O   0  0  0  0  0  1  0  0  0  0  0  0
  189.0340  176.5490  142.1950 C   0  0  0  0  0  3  0  0  0  0  0  0
  185.8120  179.0550  141.2630 O   0  0  0  0  0  0  0  0  0  0  0  0
  181.7670  178.4020  139.7430 C   0  0  1  0  0  3  0  0  0  0  0  0
  181.3490  178.8100  141.1540 C   0  0  0  0  0  2  0  0  0  0  0  0
  183.5830  178.7260  142.2750 C   0  0  1  0  0  3  0  0  0  0  0  0
  182.8280  177.2950  139.7900 C   0  0  2  0  0  3  0  0  0  0  0  0
  186.9670  177.6260  142.9140 C   0  0  0  0  0  0  0  0  0  0  0  0
  184.2900  179.3370  143.3850 N   0  0  0  0  0  2  0  0  0  0  0  0
  188.9620  177.1830  140.9510 C   0  0  0  0  0  0  0  0  0  0  0  0
  184.9900  178.5540  144.3490 C   0  0  0  0  0  0  0  0  0  0  0  0
  186.0960  177.8370  144.0990 C   0  0  0  0  0  3  0  0  0  0  0  0
  186.8760  178.2460  141.6400 C   0  0  0  0  0  0  0  0  0  0  0  0
  182.4290  179.6240  141.8560 C   0  0  0  0  0  2  0  0  0  0  0  0
  184.1870  177.8780  140.0310 C   0  0  0  0  0  3  0  0  0  0  0  0
  188.0530  176.7770  143.1600 C   0  0  0  0  0  3  0  0  0  0  0  0
  184.5300  178.5290  141.1450 C   0  0  0  0  0  0  0  0  0  0  0  0
  187.8790  178.0310  140.6870 C   0  0  0  0  0  3  0  0  0  0  0  0
  192.4930  175.7810  135.7330 C   0  0  0  0  0  3  0  0  0  0  0  0
  192.3240  177.0190  139.2280 C   0  0  0  0  0  3  0  0  0  0  0  0
  191.1430  175.5000  135.4970 C   0  0  0  0  0  3  0  0  0  0  0  0
  194.2510  176.5430  137.1900 O   0  0  0  0  0  1  0  0  0  0  0  0
  190.0070  176.9450  139.9330 C   0  0  0  0  0  0  0  0  0  0  0  0
  191.3520  177.2390  140.2050 C   0  0  0  0  0  3  0  0  0  0  0  0
  189.6670  176.4480  138.7100 N   0  0  0  0  0  0  0  0  0  0  0  0
  191.9540  176.5060  137.9810 C   0  0  0  0  0  0  0  0  0  0  0  0
  190.1930  175.7180  136.4980 C   0  0  0  0  0  3  0  0  0  0  0  0
  190.5910  176.2180  137.7400 C   0  0  0  0  0  0  0  0  0  0  0  0
  192.9040  176.2820  136.9720 C   0  0  0  0  0  0  0  0  0  0  0  0
  180.6330  177.9610  139.0500 O   0  0  0  0  0  0  0  0  0  0  0  0
  179.9960  178.6080  136.4390 O   0  0  0  0  0  0  0  0  0  0  0  0
  178.9310  179.8510  138.4800 O   0  0  0  0  0  1  0  0  0  0  0  0
  180.2240  179.2300  138.0000 P   0  0  1  0  0  0  0  0  0  0  0  0
  181.4760  180.4000  138.0260 O   0  0  0  0  0  0  0  0  0  0  0  0
  179.9120  181.8530  137.1470 F   0  0  0  0  0  0  0  0  0  0  0  0
  180.4550  182.0030  139.3490 F   0  0  0  0  0  0  0  0  0  0  0  0
  180.9270  181.7020  138.0810 C   0  0  0  0  0  0  0  0  0  0  0  0
  181.9250  182.6050  137.7740 F   0  0  0  0  0  0  0  0  0  0  0  0
  184.4960  178.5800  145.7530 C   0  0  0  0  0  2  0  0  0  0  0  0
  185.6250  178.9610  146.6960 C   0  0  0  0  0  2  0  0  0  0  0  0
  185.8440  177.8610  147.7190 C   0  0  0  0  0  2  0  0  0  0  0  0
  187.1280  177.9550  148.2570 O   0  0  0  0  0  0  0  0  0  0  0  0
  187.9370  177.2750  147.3470 C   0  0  0  0  0  2  0  0  0  0  0  0
  189.3900  177.6800  147.5530 C   0  0  0  0  0  2  0  0  0  0  0  0
  191.7920  177.9960  143.8560 C   0  0  0  0  0  2  0  0  0  0  0  0
  191.2590  176.7790  145.9830 C   0  0  0  0  0  0  0  0  0  0  0  0
  192.0200  176.9280  144.8930 C   0  0  0  0  0  3  0  0  0  0  0  0
  190.5280  178.7750  144.0900 C   0  0  0  0  0  0  0  0  0  0  0  0
  189.7880  178.6410  145.3500 C   0  0  0  0  0  3  0  0  0  0  0  0
  190.1230  179.5800  143.2140 O   0  0  0  0  0  0  0  0  0  0  0  0
  190.1230  177.7100  146.2480 C   0  0  0  0  0  0  0  0  0  0  0  0
  191.6130  175.7450  146.9110 N   0  0  0  0  0  2  0  0  0  0  0  0
  192.6320  177.1030  148.5210 O   0  0  0  0  0  0  0  0  0  0  0  0
  192.4170  175.9410  148.0820 C   0  0  0  0  0  0  0  0  0  0  0  0
  193.0100  174.8290  150.1950 C   0  0  0  0  0  1  0  0  0  0  0  0
  192.9330  174.8470  148.7760 O   0  0  0  0  0  0  0  0  0  0  0  0
  2 16  1  0  0  0  0
  3 13  1  0  0  0  0
  4 30  1  6  0  0  0
  4  7  1  0  0  0  0
  4  5  1  0  0  0  0
  5 14  1  0  0  0  0
  6 14  1  6  0  0  0
  6  9  1  0  0  0  0
  7  1  1  6  0  0  0
  7 15  1  0  0  0  0
  8 16  2  0  0  0  0
  8 12  1  0  0  0  0
  9 11  1  0  0  0  0
 10  2  2  0  0  0  0
 11 39  1  0  0  0  0
 12 11  2  0  0  0  0
 13  8  1  0  0  0  0
 15 17  2  0  0  0  0
 17  3  1  0  0  0  0
 17  6  1  0  0  0  0
 18 10  1  0  0  0  0
 18 13  2  0  0  0  0
 19 29  1  0  0  0  0
 20 24  2  0  0  0  0
 21 19  2  0  0  0  0
 21 27  1  0  0  0  0
 23 24  1  0  0  0  0
 23 10  1  0  0  0  0
 25 23  2  0  0  0  0
 26 20  1  0  0  0  0
 27 28  2  0  0  0  0
 28 26  1  0  0  0  0
 28 25  1  0  0  0  0
 29 22  1  0  0  0  0
 29 26  2  0  0  0  0
 33 31  2  6  0  0  0
 33 34  1  0  0  0  0
 33 32  1  0  0  0  0
 33 30  1  0  0  0  0
 34 37  1  0  0  0  0
 35 37  1  0  0  0  0
 37 36  1  0  0  0  0
 38 37  1  0  0  0  0
 39 40  1  0  0  0  0
 40 41  1  0  0  0  0
 41 42  1  0  0  0  0
 43 44  1  0  0  0  0
 43 42  1  0  0  0  0
 45 48  1  0  0  0  0
 45 47  1  0  0  0  0
 46 51  1  0  0  0  0
 46 52  1  0  0  0  0
 47 46  2  0  0  0  0
 48 49  1  0  0  0  0
 49 51  2  0  0  0  0
 50 48  2  0  0  0  0
 51 44  1  0  0  0  0
 52 54  1  0  0  0  0
 54 53  2  0  0  0  0
 54 56  1  0  0  0  0
 56 55  1  0  0  0  0
M  END
>  <MODEL>
6

>  <REMARK>
 VINA RESULT:      -7.3      5.016      9.570
  Name = 
  14 active torsions:
  status: ('A' for Active; 'I' for Inactive)
    1  A    between atoms: O_11  and  C_12
    2  A    between atoms: O_11  and  P_36
    3  A    between atoms: C_13  and  O_24
    4  A    between atoms: C_15  and  C_35
    5  A    between atoms: C_17  and  C_31
    6  A    between atoms: C_17  and  C_56
    7  A    between atoms: O_19  and  C_31
    8  A    between atoms: O_19  and  C_38
    9  A    between atoms: N_21  and  C_25
   10  A    between atoms: O_24  and  P_36
   11  A    between atoms: C_27  and  C_37
   12  A    between atoms: C_27  and  C_55
   13  A    between atoms: C_38  and  C_55
   14  A    between atoms: O_50  and  C_51
                            x       y       z     vdW  Elec       q    Type
                         _______ _______ _______ _____ _____    ______ ____

>  <TORSDO>
F 14

$$$$
=
 OpenBabel11042410583D

 56 61  0  0  1  0  0  0  0  0999 V2000
  192.3220  177.5680  141.3900 O   0  0  0  0  0  1  0  0  0  0  0  0
  192.4160  175.3040  134.6010 C   0  0  0  0  0  3  0  0  0  0  0  0
  189.9770  175.3320  138.0030 O   0  0  0  0  0  0  0  0  0  0  0  0
  189.9390  177.6240  141.7240 C   0  0  1  0  0  3  0  0  0  0  0  0
  188.6840  178.2560  141.1280 C   0  0  0  0  0  2  0  0  0  0  0  0
  188.8730  177.3980  138.7870 C   0  0  1  0  0  3  0  0  0  0  0  0
  191.1010  177.6780  140.7240 C   0  0  2  0  0  3  0  0  0  0  0  0
  190.4920  176.2450  135.7660 C   0  0  0  0  0  0  0  0  0  0  0  0
  188.0260  177.0570  137.6580 N   0  0  0  0  0  2  0  0  0  0  0  0
  192.6330  174.3930  135.6400 C   0  0  0  0  0  0  0  0  0  0  0  0
  188.2980  177.5420  136.3460 C   0  0  0  0  0  0  0  0  0  0  0  0
  189.3550  177.1870  135.6000 C   0  0  0  0  0  3  0  0  0  0  0  0
  190.7290  175.3410  136.8360 C   0  0  0  0  0  0  0  0  0  0  0  0
  188.0480  177.3690  140.0640 C   0  0  0  0  0  2  0  0  0  0  0  0
  190.9980  176.5570  139.7350 C   0  0  0  0  0  3  0  0  0  0  0  0
  191.3560  176.2080  134.6650 C   0  0  0  0  0  3  0  0  0  0  0  0
  189.9940  176.4220  138.8650 C   0  0  0  0  0  0  0  0  0  0  0  0
  191.7800  174.4210  136.7500 C   0  0  0  0  0  3  0  0  0  0  0  0
  198.0500  170.9450  136.2910 C   0  0  0  0  0  3  0  0  0  0  0  0
  194.7590  171.4290  134.6450 C   0  0  0  0  0  3  0  0  0  0  0  0
  198.0720  172.0520  137.1470 C   0  0  0  0  0  3  0  0  0  0  0  0
  196.9610  169.6290  134.5960 O   0  0  0  0  0  1  0  0  0  0  0  0
  193.7540  173.4320  135.5640 C   0  0  0  0  0  0  0  0  0  0  0  0
  193.6970  172.3330  134.6930 C   0  0  0  0  0  3  0  0  0  0  0  0
  194.8500  173.6000  136.3570 N   0  0  0  0  0  0  0  0  0  0  0  0
  195.8760  171.6220  135.4630 C   0  0  0  0  0  0  0  0  0  0  0  0
  196.9990  172.9470  137.1660 C   0  0  0  0  0  3  0  0  0  0  0  0
  195.9020  172.7400  136.3280 C   0  0  0  0  0  0  0  0  0  0  0  0
  196.9580  170.7270  135.4470 C   0  0  0  0  0  0  0  0  0  0  0  0
  190.2730  178.3110  142.8970 O   0  0  0  0  0  0  0  0  0  0  0  0
  188.8400  176.0330  143.5260 O   0  0  0  0  0  0  0  0  0  0  0  0
  190.9280  176.7890  144.9090 O   0  0  0  0  0  1  0  0  0  0  0  0
  189.7240  177.3290  144.1680 P   0  0  1  0  0  0  0  0  0  0  0  0
  188.7640  178.2740  145.2270 O   0  0  0  0  0  0  0  0  0  0  0  0
  187.2560  178.1700  146.9710 F   0  0  0  0  0  0  0  0  0  0  0  0
  187.0140  176.7580  145.2080 F   0  0  0  0  0  0  0  0  0  0  0  0
  187.9250  177.4400  146.0000 C   0  0  0  0  0  0  0  0  0  0  0  0
  188.7150  176.5040  146.6390 F   0  0  0  0  0  0  0  0  0  0  0  0
  187.3040  178.4610  135.7280 C   0  0  0  0  0  2  0  0  0  0  0  0
  186.4650  177.7120  134.7050 C   0  0  0  0  0  2  0  0  0  0  0  0
  185.2420  177.1100  135.3740 C   0  0  0  0  0  2  0  0  0  0  0  0
  185.4300  175.7420  135.5710 O   0  0  0  0  0  0  0  0  0  0  0  0
  184.4050  175.3720  136.4410 C   0  0  0  0  0  2  0  0  0  0  0  0
  184.3100  176.3780  137.5780 C   0  0  0  0  0  2  0  0  0  0  0  0
  180.1530  176.5610  139.0690 C   0  0  0  0  0  2  0  0  0  0  0  0
  182.5670  177.1930  139.3290 C   0  0  0  0  0  0  0  0  0  0  0  0
  181.3140  177.1820  139.8000 C   0  0  0  0  0  3  0  0  0  0  0  0
  180.5160  176.0980  137.6860 C   0  0  0  0  0  0  0  0  0  0  0  0
  181.9190  176.0390  137.2590 C   0  0  0  0  0  3  0  0  0  0  0  0
  179.6110  175.7160  136.9010 O   0  0  0  0  0  0  0  0  0  0  0  0
  182.8910  176.5460  138.0230 C   0  0  0  0  0  0  0  0  0  0  0  0
  183.5850  177.7820  140.1480 N   0  0  0  0  0  2  0  0  0  0  0  0
  183.6390  179.8830  139.1170 O   0  0  0  0  0  0  0  0  0  0  0  0
  184.1800  179.0660  139.9110 C   0  0  0  0  0  0  0  0  0  0  0  0
  185.4320  179.3720  142.0060 C   0  0  0  0  0  1  0  0  0  0  0  0
  185.3370  179.4440  140.5900 O   0  0  0  0  0  0  0  0  0  0  0  0
  2 16  2  0  0  0  0
  2 10  1  0  0  0  0
  3 17  1  0  0  0  0
  4 30  1  1  0  0  0
  5  4  1  0  0  0  0
  6 17  1  0  0  0  0
  6 14  1  1  0  0  0
  7  1  1  1  0  0  0
  7  4  1  0  0  0  0
  8 13  2  0  0  0  0
  9  6  1  0  0  0  0
 10 18  2  0  0  0  0
 11  9  1  0  0  0  0
 12  8  1  0  0  0  0
 12 11  2  0  0  0  0
 13  3  1  0  0  0  0
 14  5  1  0  0  0  0
 15  7  1  0  0  0  0
 16  8  1  0  0  0  0
 17 15  2  0  0  0  0
 18 13  1  0  0  0  0
 19 21  1  0  0  0  0
 20 24  2  0  0  0  0
 20 26  1  0  0  0  0
 21 27  2  0  0  0  0
 22 29  1  0  0  0  0
 23 10  1  0  0  0  0
 23 25  2  0  0  0  0
 24 23  1  0  0  0  0
 26 28  2  0  0  0  0
 28 25  1  0  0  0  0
 28 27  1  0  0  0  0
 29 26  1  0  0  0  0
 29 19  2  0  0  0  0
 30 33  1  0  0  0  0
 33 31  2  6  0  0  0
 33 32  1  0  0  0  0
 33 34  1  0  0  0  0
 34 37  1  0  0  0  0
 36 37  1  0  0  0  0
 37 38  1  0  0  0  0
 37 35  1  0  0  0  0
 39 11  1  0  0  0  0
 40 41  1  0  0  0  0
 40 39  1  0  0  0  0
 41 42  1  0  0  0  0
 42 43  1  0  0  0  0
 43 44  1  0  0  0  0
 44 51  1  0  0  0  0
 45 47  1  0  0  0  0
 46 47  2  0  0  0  0
 46 52  1  0  0  0  0
 48 45  1  0  0  0  0
 49 48  1  0  0  0  0
 49 51  2  0  0  0  0
 50 48  2  0  0  0  0
 51 46  1  0  0  0  0
 53 54  2  0  0  0  0
 54 52  1  0  0  0  0
 54 56  1  0  0  0  0
 56 55  1  0  0  0  0
M  END
>  <MODEL>
7

>  <REMARK>
 VINA RESULT:      -7.2      2.358      3.755
  Name = 
  14 active torsions:
  status: ('A' for Active; 'I' for Inactive)
    1  A    between atoms: O_11  and  C_12
    2  A    between atoms: O_11  and  P_36
    3  A    between atoms: C_13  and  O_24
    4  A    between atoms: C_15  and  C_35
    5  A    between atoms: C_17  and  C_31
    6  A    between atoms: C_17  and  C_56
    7  A    between atoms: O_19  and  C_31
    8  A    between atoms: O_19  and  C_38
    9  A    between atoms: N_21  and  C_25
   10  A    between atoms: O_24  and  P_36
   11  A    between atoms: C_27  and  C_37
   12  A    between atoms: C_27  and  C_55
   13  A    between atoms: C_38  and  C_55
   14  A    between atoms: O_50  and  C_51
                            x       y       z     vdW  Elec       q    Type
                         _______ _______ _______ _____ _____    ______ ____

>  <TORSDO>
F 14

$$$$
=
 OpenBabel11042410583D

 56 61  0  0  1  0  0  0  0  0999 V2000
  194.7210  173.0270  138.4280 O   0  0  0  0  0  1  0  0  0  0  0  0
  188.9530  176.6190  140.6800 C   0  0  0  0  0  3  0  0  0  0  0  0
  192.3560  177.0720  138.2820 O   0  0  0  0  0  0  0  0  0  0  0  0
  195.1960  174.3050  136.4450 C   0  0  1  0  0  3  0  0  0  0  0  0
  194.5300  174.7460  135.1440 C   0  0  0  0  0  2  0  0  0  0  0  0
  192.5530  175.9490  136.0910 C   0  0  1  0  0  3  0  0  0  0  0  0
  194.1450  173.8610  137.4690 C   0  0  2  0  0  3  0  0  0  0  0  0
  189.9160  176.7200  138.4410 C   0  0  0  0  0  0  0  0  0  0  0  0
  191.6470  177.0320  135.7530 N   0  0  0  0  0  2  0  0  0  0  0  0
  190.2010  176.8770  141.2560 C   0  0  0  0  0  0  0  0  0  0  0  0
  190.2330  176.8820  135.8510 C   0  0  0  0  0  0  0  0  0  0  0  0
  189.5550  176.7340  136.9990 C   0  0  0  0  0  3  0  0  0  0  0  0
  191.1890  176.9520  139.0250 C   0  0  0  0  0  0  0  0  0  0  0  0
  193.8350  176.0950  135.2870 C   0  0  0  0  0  2  0  0  0  0  0  0
  193.5540  175.0480  138.1660 C   0  0  0  0  0  3  0  0  0  0  0  0
  188.8180  176.5500  139.2930 C   0  0  0  0  0  3  0  0  0  0  0  0
  192.8420  175.9950  137.5500 C   0  0  0  0  0  0  0  0  0  0  0  0
  191.3100  177.0440  140.4170 C   0  0  0  0  0  3  0  0  0  0  0  0
  189.4780  177.4120  147.6470 C   0  0  0  0  0  3  0  0  0  0  0  0
  191.6930  176.8160  144.7290 C   0  0  0  0  0  3  0  0  0  0  0  0
  188.2540  177.6120  147.0010 C   0  0  0  0  0  3  0  0  0  0  0  0
  191.8430  176.9700  147.5660 O   0  0  0  0  0  1  0  0  0  0  0  0
  190.3390  176.9560  142.7260 C   0  0  0  0  0  0  0  0  0  0  0  0
  191.5850  176.7500  143.3390 C   0  0  0  0  0  3  0  0  0  0  0  0
  189.2480  177.2170  143.4990 N   0  0  0  0  0  0  0  0  0  0  0  0
  190.5620  177.0890  145.5050 C   0  0  0  0  0  0  0  0  0  0  0  0
  188.1760  177.5520  145.6070 C   0  0  0  0  0  3  0  0  0  0  0  0
  189.3240  177.2930  144.8550 C   0  0  0  0  0  0  0  0  0  0  0  0
  190.6340  177.1530  146.9050 C   0  0  0  0  0  0  0  0  0  0  0  0
  196.0770  173.2540  136.1630 O   0  0  0  0  0  0  0  0  0  0  0  0
  198.6960  172.7180  136.8640 O   0  0  0  0  0  1  0  0  0  0  0  0
  198.0830  174.3860  134.9450 O   0  0  0  0  0  0  0  0  0  0  0  0
  197.6330  173.9160  136.3110 P   0  0  1  0  0  0  0  0  0  0  0  0
  197.5730  175.2440  137.3920 O   0  0  0  0  0  0  0  0  0  0  0  0
  196.9610  174.5000  139.4890 F   0  0  0  0  0  0  0  0  0  0  0  0
  198.9320  173.8070  138.5940 F   0  0  0  0  0  0  0  0  0  0  0  0
  198.0250  174.8520  138.6720 C   0  0  0  0  0  0  0  0  0  0  0  0
  198.6680  175.9290  139.2520 F   0  0  0  0  0  0  0  0  0  0  0  0
  189.4400  176.9580  134.5940 C   0  0  0  0  0  2  0  0  0  0  0  0
  188.0300  176.4430  134.8350 C   0  0  0  0  0  2  0  0  0  0  0  0
  187.0350  177.5860  134.7420 C   0  0  0  0  0  2  0  0  0  0  0  0
  186.8190  178.1370  136.0050 O   0  0  0  0  0  0  0  0  0  0  0  0
  186.0000  177.2120  136.6530 C   0  0  0  0  0  2  0  0  0  0  0  0
  185.3040  177.8800  137.8300 C   0  0  0  0  0  2  0  0  0  0  0  0
  181.3310  176.0200  138.3670 C   0  0  0  0  0  2  0  0  0  0  0  0
  183.2580  177.3050  139.3300 C   0  0  0  0  0  0  0  0  0  0  0  0
  182.0860  176.6790  139.4910 C   0  0  0  0  0  3  0  0  0  0  0  0
  181.9490  176.2740  137.0210 C   0  0  0  0  0  0  0  0  0  0  0  0
  183.2840  176.8760  136.9110 C   0  0  0  0  0  3  0  0  0  0  0  0
  181.3350  175.9300  135.9800 O   0  0  0  0  0  0  0  0  0  0  0  0
  183.9100  177.3590  137.9880 C   0  0  0  0  0  0  0  0  0  0  0  0
  183.8890  177.8540  140.4940 N   0  0  0  0  0  2  0  0  0  0  0  0
  183.9470  180.0870  139.7950 O   0  0  0  0  0  0  0  0  0  0  0  0
  184.3370  179.2110  140.6140 C   0  0  0  0  0  0  0  0  0  0  0  0
  186.4480  178.9940  141.8580 C   0  0  0  0  0  1  0  0  0  0  0  0
  185.1720  179.5890  141.6650 O   0  0  0  0  0  0  0  0  0  0  0  0
  2 10  1  0  0  0  0
  3 13  1  0  0  0  0
  4 30  1  6  0  0  0
  4  7  1  0  0  0  0
  5 14  1  0  0  0  0
  5  4  1  0  0  0  0
  6 14  1  6  0  0  0
  6 17  1  0  0  0  0
  7 15  1  0  0  0  0
  7  1  1  1  0  0  0
  8 13  2  0  0  0  0
  8 16  1  0  0  0  0
  9 11  1  0  0  0  0
  9  6  1  0  0  0  0
 10 23  1  0  0  0  0
 11 12  2  0  0  0  0
 12  8  1  0  0  0  0
 13 18  1  0  0  0  0
 16  2  2  0  0  0  0
 17 15  2  0  0  0  0
 17  3  1  0  0  0  0
 18 10  2  0  0  0  0
 20 26  1  0  0  0  0
 21 19  1  0  0  0  0
 23 24  1  0  0  0  0
 23 25  2  0  0  0  0
 24 20  2  0  0  0  0
 25 28  1  0  0  0  0
 26 29  1  0  0  0  0
 27 21  2  0  0  0  0
 28 26  2  0  0  0  0
 28 27  1  0  0  0  0
 29 22  1  0  0  0  0
 29 19  2  0  0  0  0
 30 33  1  0  0  0  0
 33 32  2  6  0  0  0
 33 31  1  0  0  0  0
 33 34  1  0  0  0  0
 34 37  1  0  0  0  0
 36 37  1  0  0  0  0
 37 38  1  0  0  0  0
 37 35  1  0  0  0  0
 39 40  1  0  0  0  0
 39 11  1  0  0  0  0
 41 40  1  0  0  0  0
 41 42  1  0  0  0  0
 42 43  1  0  0  0  0
 43 44  1  0  0  0  0
 44 51  1  0  0  0  0
 45 47  1  0  0  0  0
 46 47  2  0  0  0  0
 46 52  1  0  0  0  0
 48 45  1  0  0  0  0
 49 48  1  0  0  0  0
 49 51  2  0  0  0  0
 50 48  2  0  0  0  0
 51 46  1  0  0  0  0
 52 54  1  0  0  0  0
 53 54  2  0  0  0  0
 54 56  1  0  0  0  0
 56 55  1  0  0  0  0
M  END
>  <MODEL>
8

>  <REMARK>
 VINA RESULT:      -7.1      3.904      8.497
  Name = 
  14 active torsions:
  status: ('A' for Active; 'I' for Inactive)
    1  A    between atoms: O_11  and  C_12
    2  A    between atoms: O_11  and  P_36
    3  A    between atoms: C_13  and  O_24
    4  A    between atoms: C_15  and  C_35
    5  A    between atoms: C_17  and  C_31
    6  A    between atoms: C_17  and  C_56
    7  A    between atoms: O_19  and  C_31
    8  A    between atoms: O_19  and  C_38
    9  A    between atoms: N_21  and  C_25
   10  A    between atoms: O_24  and  P_36
   11  A    between atoms: C_27  and  C_37
   12  A    between atoms: C_27  and  C_55
   13  A    between atoms: C_38  and  C_55
   14  A    between atoms: O_50  and  C_51
                            x       y       z     vdW  Elec       q    Type
                         _______ _______ _______ _____ _____    ______ ____

>  <TORSDO>
F 14

$$$$
=
 OpenBabel11042410583D

 56 61  0  0  1  0  0  0  0  0999 V2000
  192.3920  177.8270  142.2700 O   0  0  0  0  0  1  0  0  0  0  0  0
  192.6660  175.4700  135.5170 C   0  0  0  0  0  3  0  0  0  0  0  0
  190.1470  175.5230  138.8610 O   0  0  0  0  0  0  0  0  0  0  0  0
  190.0020  177.8660  142.5470 C   0  0  1  0  0  3  0  0  0  0  0  0
  188.7550  178.4780  141.9130 C   0  0  0  0  0  2  0  0  0  0  0  0
  189.0070  177.5900  139.5890 C   0  0  1  0  0  3  0  0  0  0  0  0
  191.1860  177.9160  141.5740 C   0  0  2  0  0  3  0  0  0  0  0  0
  190.7060  176.4100  136.6240 C   0  0  0  0  0  0  0  0  0  0  0  0
  188.1900  177.2260  138.4460 N   0  0  0  0  0  2  0  0  0  0  0  0
  192.8660  174.5760  136.5730 C   0  0  0  0  0  0  0  0  0  0  0  0
  188.4880  177.6950  137.1330 C   0  0  0  0  0  0  0  0  0  0  0  0
  189.5660  177.3400  136.4180 C   0  0  0  0  0  3  0  0  0  0  0  0
  190.9260  175.5230  137.7120 C   0  0  0  0  0  0  0  0  0  0  0  0
  188.1530  177.5710  140.8470 C   0  0  0  0  0  2  0  0  0  0  0  0
  191.1160  176.7810  140.5990 C   0  0  0  0  0  3  0  0  0  0  0  0
  191.5970  176.3650  135.5440 C   0  0  0  0  0  3  0  0  0  0  0  0
  190.1340  176.6250  139.7070 C   0  0  0  0  0  0  0  0  0  0  0  0
  191.9870  174.6120  137.6630 C   0  0  0  0  0  3  0  0  0  0  0  0
  198.5240  171.4790  136.8080 C   0  0  0  0  0  3  0  0  0  0  0  0
  194.8610  171.3840  136.2180 C   0  0  0  0  0  3  0  0  0  0  0  0
  198.6990  172.8340  137.1060 C   0  0  0  0  0  3  0  0  0  0  0  0
  197.1030  169.6330  136.1990 O   0  0  0  0  0  1  0  0  0  0  0  0
  193.9970  173.6240  136.5380 C   0  0  0  0  0  0  0  0  0  0  0  0
  193.7830  172.2700  136.2340 C   0  0  0  0  0  3  0  0  0  0  0  0
  195.2590  174.0550  136.8150 N   0  0  0  0  0  0  0  0  0  0  0  0
  196.1490  171.8470  136.5020 C   0  0  0  0  0  0  0  0  0  0  0  0
  197.6040  173.7020  137.1040 C   0  0  0  0  0  3  0  0  0  0  0  0
  196.3300  173.2170  136.8020 C   0  0  0  0  0  0  0  0  0  0  0  0
  197.2540  170.9810  136.5040 C   0  0  0  0  0  0  0  0  0  0  0  0
  190.3020  178.5720  143.7180 O   0  0  0  0  0  0  0  0  0  0  0  0
  189.0770  178.2520  146.1750 O   0  0  0  0  0  1  0  0  0  0  0  0
  189.2450  176.3020  144.4400 O   0  0  0  0  0  0  0  0  0  0  0  0
  190.0130  177.4840  144.9880 P   0  0  1  0  0  0  0  0  0  0  0  0
  191.5150  176.9580  145.6230 O   0  0  0  0  0  0  0  0  0  0  0  0
  191.2230  177.5520  147.8350 F   0  0  0  0  0  0  0  0  0  0  0  0
  190.2560  175.6480  147.0580 F   0  0  0  0  0  0  0  0  0  0  0  0
  191.3490  176.4930  146.9480 C   0  0  0  0  0  0  0  0  0  0  0  0
  192.4760  175.7750  147.2980 F   0  0  0  0  0  0  0  0  0  0  0  0
  187.5010  178.5970  136.4800 C   0  0  0  0  0  2  0  0  0  0  0  0
  186.9300  177.9320  135.2380 C   0  0  0  0  0  2  0  0  0  0  0  0
  185.7900  177.0050  135.6200 C   0  0  0  0  0  2  0  0  0  0  0  0
  185.1140  177.5110  136.7310 O   0  0  0  0  0  0  0  0  0  0  0  0
  184.3920  176.4240  137.2240 C   0  0  0  0  0  2  0  0  0  0  0  0
  183.6700  175.7280  136.0800 C   0  0  0  0  0  2  0  0  0  0  0  0
  182.4720  171.5450  136.8530 C   0  0  0  0  0  2  0  0  0  0  0  0
  184.2610  173.2010  136.2640 C   0  0  0  0  0  0  0  0  0  0  0  0
  183.8650  171.9340  136.4370 C   0  0  0  0  0  3  0  0  0  0  0  0
  181.6180  172.7280  137.2090 C   0  0  0  0  0  0  0  0  0  0  0  0
  182.0640  174.0930  136.9050 C   0  0  0  0  0  3  0  0  0  0  0  0
  180.4900  172.5450  137.7350 O   0  0  0  0  0  0  0  0  0  0  0  0
  183.3010  174.3270  136.4580 C   0  0  0  0  0  0  0  0  0  0  0  0
  185.6060  173.4290  135.8250 N   0  0  0  0  0  2  0  0  0  0  0  0
  186.6620  173.1580  137.8960 O   0  0  0  0  0  0  0  0  0  0  0  0
  186.7400  173.5370  136.6970 C   0  0  0  0  0  0  0  0  0  0  0  0
  188.9840  173.1480  135.7670 C   0  0  0  0  0  1  0  0  0  0  0  0
  187.9570  174.0210  136.2170 O   0  0  0  0  0  0  0  0  0  0  0  0
  2 16  2  0  0  0  0
  2 10  1  0  0  0  0
  3 17  1  0  0  0  0
  4 30  1  1  0  0  0
  5  4  1  0  0  0  0
  6 17  1  0  0  0  0
  6 14  1  1  0  0  0
  7  1  1  1  0  0  0
  7  4  1  0  0  0  0
  8 13  2  0  0  0  0
  9  6  1  0  0  0  0
 10 18  2  0  0  0  0
 11  9  1  0  0  0  0
 12  8  1  0  0  0  0
 12 11  2  0  0  0  0
 13  3  1  0  0  0  0
 14  5  1  0  0  0  0
 15  7  1  0  0  0  0
 16  8  1  0  0  0  0
 17 15  2  0  0  0  0
 18 13  1  0  0  0  0
 19 21  1  0  0  0  0
 20 24  2  0  0  0  0
 20 26  1  0  0  0  0
 22 29  1  0  0  0  0
 23 10  1  0  0  0  0
 23 25  2  0  0  0  0
 24 23  1  0  0  0  0
 26 29  1  0  0  0  0
 26 28  2  0  0  0  0
 27 21  2  0  0  0  0
 28 25  1  0  0  0  0
 28 27  1  0  0  0  0
 29 19  2  0  0  0  0
 30 33  1  0  0  0  0
 33 32  2  6  0  0  0
 33 34  1  0  0  0  0
 33 31  1  0  0  0  0
 34 37  1  0  0  0  0
 37 36  1  0  0  0  0
 37 38  1  0  0  0  0
 37 35  1  0  0  0  0
 39 11  1  0  0  0  0
 40 41  1  0  0  0  0
 40 39  1  0  0  0  0
 41 42  1  0  0  0  0
 42 43  1  0  0  0  0
 44 51  1  0  0  0  0
 44 43  1  0  0  0  0
 45 48  1  0  0  0  0
 46 47  2  0  0  0  0
 46 51  1  0  0  0  0
 47 45  1  0  0  0  0
 48 50  2  0  0  0  0
 49 48  1  0  0  0  0
 51 49  2  0  0  0  0
 52 46  1  0  0  0  0
 52 54  1  0  0  0  0
 54 53  2  0  0  0  0
 55 56  1  0  0  0  0
 56 54  1  0  0  0  0
M  END
>  <MODEL>
9

>  <REMARK>
 VINA RESULT:      -7.1      3.200      5.010
  Name = 
  14 active torsions:
  status: ('A' for Active; 'I' for Inactive)
    1  A    between atoms: O_11  and  C_12
    2  A    between atoms: O_11  and  P_36
    3  A    between atoms: C_13  and  O_24
    4  A    between atoms: C_15  and  C_35
    5  A    between atoms: C_17  and  C_31
    6  A    between atoms: C_17  and  C_56
    7  A    between atoms: O_19  and  C_31
    8  A    between atoms: O_19  and  C_38
    9  A    between atoms: N_21  and  C_25
   10  A    between atoms: O_24  and  P_36
   11  A    between atoms: C_27  and  C_37
   12  A    between atoms: C_27  and  C_55
   13  A    between atoms: C_38  and  C_55
   14  A    between atoms: O_50  and  C_51
                            x       y       z     vdW  Elec       q    Type
                         _______ _______ _______ _____ _____    ______ ____

>  <TORSDO>
F 14

$$$$
