=
 OpenBabel11042410403D

 44 50  0  0  1  0  0  0  0  0999 V2000
  185.9840  178.2690  139.2300 C   0  0  2  0  0  3  0  0  0  0  0  0
  187.2800  177.9500  138.9770 C   0  0  0  0  0  0  0  0  0  0  0  0
  184.9220  178.0450  138.2720 N   0  0  2  0  0  0  0  0  0  0  0  0
  184.1430  178.8470  140.8560 C   0  0  0  0  0  0  0  0  0  0  0  0
  191.0580  176.6960  136.7340 N   0  0  0  0  0  0  0  0  0  0  0  0
  185.6230  178.9940  140.5230 C   0  0  1  0  0  3  0  0  0  0  0  0
  189.9610  177.3180  138.5140 C   0  0  0  0  0  0  0  0  0  0  0  0
  189.8270  176.8400  136.3570 C   0  0  0  0  0  0  0  0  0  0  0  0
  183.2840  178.7220  139.8880 N   0  0  0  0  0  0  0  0  0  0  0  0
  183.6670  178.7630  138.4780 C   0  0  0  0  0  2  0  0  0  0  0  0
  189.5920  177.6710  139.8060 C   0  0  0  0  0  3  0  0  0  0  0  0
  188.2420  177.9960  140.0370 C   0  0  0  0  0  0  0  0  0  0  0  0
  187.8070  178.2580  141.4150 C   0  0  0  0  0  3  0  0  0  0  0  0
  189.0500  177.2650  137.5000 C   0  0  0  0  0  0  0  0  0  0  0  0
  191.1430  176.9890  138.1090 N   0  0  0  0  0  2  0  0  0  0  0  0
  183.6220  178.9570  142.1890 N   0  0  0  0  0  2  0  0  0  0  0  0
  187.7080  177.5690  137.6830 C   0  0  0  0  0  3  0  0  0  0  0  0
  186.5650  178.6680  141.6520 C   0  0  0  0  0  3  0  0  0  0  0  0
  184.3270  177.2530  136.0060 C   0  0  2  0  0  3  0  0  0  0  0  0
  183.7280  176.1050  135.1780 C   0  0  1  0  0  3  0  0  0  0  0  0
  185.1420  176.5750  134.9170 C   0  0  0  0  0  2  0  0  0  0  0  0
  184.4970  174.5080  137.0950 C   0  0  0  0  0  2  0  0  0  0  0  0
  183.6880  174.6940  135.8120 C   0  0  1  0  0  3  0  0  0  0  0  0
  184.9340  176.8940  137.3680 C   0  0  2  0  0  3  0  0  0  0  0  0
  184.2870  175.6870  138.0200 C   0  0  0  0  0  2  0  0  0  0  0  0
  182.9620  172.3990  134.6350 O   0  0  0  0  0  1  0  0  0  0  0  0
  182.0000  173.0140  135.4480 C   0  0  2  0  0  0  0  0  0  0  0  0
  182.3020  174.2970  136.0430 N   0  0  1  0  0  0  0  0  0  0  0  0
  182.3430  173.0950  136.7530 O   0  0  0  0  0  0  0  0  0  0  0  0
  180.5890  172.7390  135.2200 N   0  0  0  0  0  2  0  0  0  0  0  0
  179.7110  172.2220  136.2230 C   0  0  0  0  0  0  0  0  0  0  0  0
  178.9340  173.2090  137.2780 S   0  0  0  0  0  0  0  0  0  0  0  0
  180.2340  170.0430  135.2010 C   0  0  0  0  0  1  0  0  0  0  0  0
  179.5540  170.7470  136.3600 C   0  0  0  0  0  2  0  0  0  0  0  0
  184.3700  179.3860  143.3610 C   0  0  0  0  0  2  0  0  0  0  0  0
  183.6930  178.9010  144.5960 C   0  0  0  0  0  0  0  0  0  0  0  0
  182.4880  178.6980  144.5920 O   0  0  0  0  0  0  0  0  0  0  0  0
  184.4930  178.6600  145.8320 C   0  0  0  0  0  2  0  0  0  0  0  0
  185.9790  178.7710  145.5330 C   0  0  0  0  0  2  0  0  0  0  0  0
  186.5860  177.3900  145.3600 C   0  0  0  0  0  2  0  0  0  0  0  0
  188.0870  177.4930  145.1500 C   0  0  0  0  0  1  0  0  0  0  0  0
  189.3500  176.6700  134.9520 C   0  0  0  0  0  2  0  0  0  0  0  0
  188.2660  174.5180  135.4120 C   0  0  0  0  0  2  0  0  0  0  0  0
  189.0940  175.2300  134.6510 C   0  0  0  0  0  3  0  0  0  0  0  0
  1  2  1  6  0  0  0
  1  6  1  0  0  0  0
  2 12  1  0  0  0  0
  3 10  1  1  0  0  0
  3  1  1  0  0  0  0
  4 16  1  0  0  0  0
  5 15  1  0  0  0  0
  6  4  1  0  0  0  0
  6 18  1  1  0  0  0
  7 11  1  0  0  0  0
  8  5  2  0  0  0  0
  8 14  1  0  0  0  0
  9  4  2  0  0  0  0
 10  9  1  0  0  0  0
 11 12  2  0  0  0  0
 12 13  1  0  0  0  0
 13 18  2  0  0  0  0
 14 17  1  0  0  0  0
 14  7  2  0  0  0  0
 15  7  1  0  0  0  0
 16 35  1  0  0  0  0
 17  2  2  0  0  0  0
 19 21  1  6  0  0  0
 19 24  1  0  0  0  0
 20 21  1  6  0  0  0
 20 23  1  0  0  0  0
 20 19  1  0  0  0  0
 22 25  1  0  0  0  0
 23 28  1  0  0  0  0
 23 22  1  1  0  0  0
 24 25  1  1  0  0  0
 24  3  1  0  0  0  0
 27 26  1  6  0  0  0
 27 28  1  0  0  0  0
 27 29  1  0  0  0  0
 28 29  1  1  0  0  0
 30 27  1  0  0  0  0
 30 31  1  0  0  0  0
 31 34  1  0  0  0  0
 31 32  2  0  0  0  0
 33 34  1  0  0  0  0
 35 36  1  0  0  0  0
 36 38  1  0  0  0  0
 37 36  2  0  0  0  0
 39 38  1  0  0  0  0
 40 39  1  0  0  0  0
 41 40  1  0  0  0  0
 42  8  1  0  0  0  0
 44 42  1  0  0  0  0
 44 43  2  0  0  0  0
M  END
>  <MODEL>
1

>  <REMARK>
 VINA RESULT:      -6.9      0.000      0.000
  Name = 
  12 active torsions:
  status: ('A' for Active; 'I' for Inactive)
    1  A    between atoms: N_4  and  C_41
    2  A    between atoms: C_5  and  N_9
    3  A    between atoms: C_5  and  C_17
    4  A    between atoms: C_8  and  C_11
    5  A    between atoms: C_8  and  C_14
    6  A    between atoms: N_9  and  C_21
    7  A    between atoms: C_11  and  C_38
    8  A    between atoms: C_12  and  C_38
    9  A    between atoms: C_14  and  N_35
   10  A    between atoms: C_19  and  C_23
   11  A    between atoms: C_23  and  C_40
   12  A    between atoms: N_30  and  C_39
                            x       y       z     vdW  Elec       q    Type
                         _______ _______ _______ _____ _____    ______ ____

>  <TORSDO>
F 12

$$$$
=
 OpenBabel11042410403D

 44 50  0  0  1  0  0  0  0  0999 V2000
  191.5040  175.7760  137.9260 C   0  0  2  0  0  3  0  0  0  0  0  0
  190.4370  175.2260  137.2890 C   0  0  0  0  0  0  0  0  0  0  0  0
  191.3690  176.8030  138.9360 N   0  0  2  0  0  0  0  0  0  0  0  0
  193.9400  175.7090  138.5850 C   0  0  0  0  0  0  0  0  0  0  0  0
  186.1560  174.5360  135.8500 N   0  0  0  0  0  0  0  0  0  0  0  0
  192.9180  175.3910  137.5000 C   0  0  1  0  0  3  0  0  0  0  0  0
  188.2830  174.0620  135.9460 C   0  0  0  0  0  0  0  0  0  0  0  0
  186.6780  175.4170  136.6430 C   0  0  0  0  0  0  0  0  0  0  0  0
  193.7220  176.7100  139.3860 N   0  0  0  0  0  0  0  0  0  0  0  0
  192.5580  177.5850  139.2650 C   0  0  0  0  0  2  0  0  0  0  0  0
  189.5350  173.4800  135.7900 C   0  0  0  0  0  3  0  0  0  0  0  0
  190.6210  174.0720  136.4620 C   0  0  0  0  0  0  0  0  0  0  0  0
  191.9290  173.4070  136.4070 C   0  0  0  0  0  3  0  0  0  0  0  0
  188.0970  175.1580  136.7370 C   0  0  0  0  0  0  0  0  0  0  0  0
  187.1730  173.6660  135.4140 N   0  0  0  0  0  0  0  0  0  0  0  0
  195.1990  175.0320  138.7030 N   0  0  0  0  0  2  0  0  0  0  0  0
  189.1380  175.7690  137.4240 C   0  0  0  0  0  2  0  0  0  0  0  0
  192.9950  173.9930  136.9420 C   0  0  0  0  0  3  0  0  0  0  0  0
  189.6170  178.2280  139.9430 C   0  0  2  0  0  3  0  0  0  0  0  0
  188.8510  178.5840  141.2280 C   0  0  1  0  0  3  0  0  0  0  0  0
  188.1030  178.0900  140.0090 C   0  0  0  0  0  2  0  0  0  0  0  0
  189.3590  176.1550  142.0370 C   0  0  0  0  0  2  0  0  0  0  0  0
  188.8410  177.5520  142.3800 C   0  0  1  0  0  3  0  0  0  0  0  0
  190.2330  176.8260  139.8590 C   0  0  2  0  0  3  0  0  0  0  0  0
  190.6220  176.2540  141.2090 C   0  0  0  0  0  2  0  0  0  0  0  0
  187.9160  176.7790  144.7720 O   0  0  0  0  0  1  0  0  0  0  0  0
  189.0780  177.5630  144.7770 C   0  0  2  0  0  0  0  0  0  0  0  0
  189.5790  178.0820  143.5230 N   0  0  1  0  0  0  0  0  0  0  0  0
  190.1430  176.9850  144.1780 O   0  0  0  0  0  0  0  0  0  0  0  0
  189.4110  178.3410  145.9610 N   0  0  0  0  0  2  0  0  0  0  0  0
  189.7560  177.7580  147.2210 C   0  0  0  0  0  0  0  0  0  0  0  0
  190.9260  176.6170  147.3480 S   0  0  0  0  0  0  0  0  0  0  0  0
  187.5510  177.6620  148.3150 C   0  0  0  0  0  1  0  0  0  0  0  0
  188.9840  178.1450  148.4350 C   0  0  0  0  0  2  0  0  0  0  0  0
  195.7540  174.0960  137.7370 C   0  0  0  0  0  2  0  0  0  0  0  0
  196.8180  174.7680  136.9390 C   0  0  0  0  0  0  0  0  0  0  0  0
  197.7470  175.3230  137.5050 O   0  0  0  0  0  0  0  0  0  0  0  0
  196.7440  174.7540  135.4490 C   0  0  0  0  0  2  0  0  0  0  0  0
  196.8520  176.1660  134.8980 C   0  0  0  0  0  2  0  0  0  0  0  0
  195.6450  176.9880  135.3160 C   0  0  0  0  0  2  0  0  0  0  0  0
  194.3990  176.5040  134.5940 C   0  0  0  0  0  1  0  0  0  0  0  0
  185.9220  176.5440  137.2670 C   0  0  0  0  0  2  0  0  0  0  0  0
  187.0660  178.5630  136.4720 C   0  0  0  0  0  2  0  0  0  0  0  0
  186.0000  177.7690  136.4160 C   0  0  0  0  0  3  0  0  0  0  0  0
  1  2  1  6  0  0  0
  1  3  1  0  0  0  0
  2 17  1  0  0  0  0
  3 10  1  1  0  0  0
  3 24  1  0  0  0  0
  4 16  1  0  0  0  0
  4  9  2  0  0  0  0
  5  8  1  0  0  0  0
  6 18  1  1  0  0  0
  6  1  1  0  0  0  0
  6  4  1  0  0  0  0
  7 14  1  0  0  0  0
  8 14  2  0  0  0  0
  8 42  1  0  0  0  0
 10  9  1  0  0  0  0
 11  7  2  0  0  0  0
 11 12  1  0  0  0  0
 12  2  2  0  0  0  0
 13 12  1  0  0  0  0
 13 18  2  0  0  0  0
 14 17  1  0  0  0  0
 15  5  2  0  0  0  0
 15  7  1  0  0  0  0
 19 21  1  6  0  0  0
 19 20  1  0  0  0  0
 20 21  1  6  0  0  0
 20 23  1  0  0  0  0
 23 22  1  6  0  0  0
 23 28  1  0  0  0  0
 24 19  1  0  0  0  0
 24 25  1  1  0  0  0
 25 22  1  0  0  0  0
 27 26  1  6  0  0  0
 27 30  1  0  0  0  0
 28 29  1  6  0  0  0
 28 27  1  0  0  0  0
 29 27  1  0  0  0  0
 30 31  1  0  0  0  0
 31 32  2  0  0  0  0
 31 34  1  0  0  0  0
 33 34  1  0  0  0  0
 35 16  1  0  0  0  0
 36 37  2  0  0  0  0
 36 35  1  0  0  0  0
 38 36  1  0  0  0  0
 39 40  1  0  0  0  0
 39 38  1  0  0  0  0
 41 40  1  0  0  0  0
 44 43  2  0  0  0  0
 44 42  1  0  0  0  0
M  END
>  <MODEL>
2

>  <REMARK>
 VINA RESULT:      -6.6      5.121     10.480
  Name = 
  12 active torsions:
  status: ('A' for Active; 'I' for Inactive)
    1  A    between atoms: N_4  and  C_41
    2  A    between atoms: C_5  and  N_9
    3  A    between atoms: C_5  and  C_17
    4  A    between atoms: C_8  and  C_11
    5  A    between atoms: C_8  and  C_14
    6  A    between atoms: N_9  and  C_21
    7  A    between atoms: C_11  and  C_38
    8  A    between atoms: C_12  and  C_38
    9  A    between atoms: C_14  and  N_35
   10  A    between atoms: C_19  and  C_23
   11  A    between atoms: C_23  and  C_40
   12  A    between atoms: N_30  and  C_39
                            x       y       z     vdW  Elec       q    Type
                         _______ _______ _______ _____ _____    ______ ____

>  <TORSDO>
F 12

$$$$
=
 OpenBabel11042410403D

 44 50  0  0  1  0  0  0  0  0999 V2000
  186.7280  178.3590  140.5600 C   0  0  2  0  0  3  0  0  0  0  0  0
  187.0860  178.0750  141.8400 C   0  0  0  0  0  0  0  0  0  0  0  0
  187.6530  178.2700  139.4510 N   0  0  2  0  0  0  0  0  0  0  0  0
  184.9480  178.7160  138.8070 C   0  0  0  0  0  0  0  0  0  0  0  0
  189.6640  177.1290  145.4910 N   0  0  0  0  0  0  0  0  0  0  0  0
  185.3320  178.9020  140.2700 C   0  0  1  0  0  3  0  0  0  0  0  0
  187.7640  177.5050  144.4890 C   0  0  0  0  0  0  0  0  0  0  0  0
  189.9560  177.3260  144.2450 C   0  0  0  0  0  0  0  0  0  0  0  0
  185.8810  178.7250  137.9010 N   0  0  0  0  0  0  0  0  0  0  0  0
  187.2890  178.9570  138.2140 C   0  0  0  0  0  2  0  0  0  0  0  0
  186.4190  177.6800  144.1870 C   0  0  0  0  0  3  0  0  0  0  0  0
  186.0790  177.9740  142.8530 C   0  0  0  0  0  0  0  0  0  0  0  0
  184.6590  178.0470  142.4890 C   0  0  0  0  0  3  0  0  0  0  0  0
  188.7290  177.5930  143.5290 C   0  0  0  0  0  0  0  0  0  0  0  0
  188.2690  177.2320  145.6470 N   0  0  0  0  0  2  0  0  0  0  0  0
  183.5890  178.6440  138.3530 N   0  0  0  0  0  2  0  0  0  0  0  0
  188.4390  177.8730  142.2000 C   0  0  0  0  0  3  0  0  0  0  0  0
  184.3060  178.4240  141.2640 C   0  0  0  0  0  3  0  0  0  0  0  0
  190.0760  177.8610  139.7260 C   0  0  2  0  0  3  0  0  0  0  0  0
  191.3130  177.1340  139.1730 C   0  0  1  0  0  3  0  0  0  0  0  0
  190.8530  176.8810  140.5920 C   0  0  0  0  0  2  0  0  0  0  0  0
  189.6620  175.3570  138.2060 C   0  0  0  0  0  2  0  0  0  0  0  0
  191.0880  175.9070  138.2580 C   0  0  1  0  0  3  0  0  0  0  0  0
  188.7040  177.2530  139.4080 C   0  0  2  0  0  3  0  0  0  0  0  0
  188.6680  176.4920  138.0970 C   0  0  0  0  0  2  0  0  0  0  0  0
  193.5030  174.9250  137.6410 O   0  0  0  0  0  1  0  0  0  0  0  0
  192.8170  175.5860  136.6120 C   0  0  2  0  0  0  0  0  0  0  0  0
  191.5460  176.2110  136.9050 N   0  0  1  0  0  0  0  0  0  0  0  0
  191.6640  174.9890  136.2390 O   0  0  0  0  0  0  0  0  0  0  0  0
  193.5690  176.1690  135.5110 N   0  0  0  0  0  2  0  0  0  0  0  0
  194.7100  175.5460  134.9130 C   0  0  0  0  0  0  0  0  0  0  0  0
  194.7490  173.9360  134.6050 S   0  0  0  0  0  0  0  0  0  0  0  0
  195.6550  177.8200  134.9830 C   0  0  0  0  0  1  0  0  0  0  0  0
  195.9200  176.3680  134.6310 C   0  0  0  0  0  2  0  0  0  0  0  0
  182.4080  178.9080  139.1610 C   0  0  0  0  0  2  0  0  0  0  0  0
  181.4720  177.7520  139.0780 C   0  0  0  0  0  0  0  0  0  0  0  0
  181.3430  177.1460  138.0250 O   0  0  0  0  0  0  0  0  0  0  0  0
  180.7000  177.3370  140.2860 C   0  0  0  0  0  2  0  0  0  0  0  0
  180.9560  178.2970  141.4360 C   0  0  0  0  0  2  0  0  0  0  0  0
  179.7060  178.4480  142.2840 C   0  0  0  0  0  2  0  0  0  0  0  0
  180.0370  178.2550  143.7550 C   0  0  0  0  0  1  0  0  0  0  0  0
  191.3460  177.3500  143.6980 C   0  0  0  0  0  2  0  0  0  0  0  0
  191.2930  179.7700  144.0930 C   0  0  0  0  0  2  0  0  0  0  0  0
  192.0100  178.6530  143.9960 C   0  0  0  0  0  3  0  0  0  0  0  0
  1  2  1  1  0  0  0
  2 17  2  0  0  0  0
  2 12  1  0  0  0  0
  3 10  1  6  0  0  0
  3  1  1  0  0  0  0
  4  6  1  0  0  0  0
  5 15  1  0  0  0  0
  6  1  1  0  0  0  0
  6 18  1  1  0  0  0
  7 15  1  0  0  0  0
  8  5  2  0  0  0  0
  9 10  1  0  0  0  0
  9  4  2  0  0  0  0
 11  7  1  0  0  0  0
 12 11  2  0  0  0  0
 13 12  1  0  0  0  0
 14  8  1  0  0  0  0
 14  7  2  0  0  0  0
 16  4  1  0  0  0  0
 16 35  1  0  0  0  0
 17 14  1  0  0  0  0
 18 13  2  0  0  0  0
 19 21  1  1  0  0  0
 20 19  1  0  0  0  0
 20 21  1  1  0  0  0
 23 22  1  6  0  0  0
 23 20  1  0  0  0  0
 24 25  1  6  0  0  0
 24  3  1  0  0  0  0
 24 19  1  0  0  0  0
 25 22  1  0  0  0  0
 27 28  1  0  0  0  0
 27 26  1  1  0  0  0
 28 29  1  6  0  0  0
 28 23  1  0  0  0  0
 29 27  1  0  0  0  0
 30 27  1  0  0  0  0
 31 30  1  0  0  0  0
 32 31  2  0  0  0  0
 34 31  1  0  0  0  0
 34 33  1  0  0  0  0
 36 35  1  0  0  0  0
 36 38  1  0  0  0  0
 37 36  2  0  0  0  0
 38 39  1  0  0  0  0
 39 40  1  0  0  0  0
 40 41  1  0  0  0  0
 42 44  1  0  0  0  0
 42  8  1  0  0  0  0
 44 43  2  0  0  0  0
M  END
>  <MODEL>
3

>  <REMARK>
 VINA RESULT:      -6.6      4.433      8.354
  Name = 
  12 active torsions:
  status: ('A' for Active; 'I' for Inactive)
    1  A    between atoms: N_4  and  C_41
    2  A    between atoms: C_5  and  N_9
    3  A    between atoms: C_5  and  C_17
    4  A    between atoms: C_8  and  C_11
    5  A    between atoms: C_8  and  C_14
    6  A    between atoms: N_9  and  C_21
    7  A    between atoms: C_11  and  C_38
    8  A    between atoms: C_12  and  C_38
    9  A    between atoms: C_14  and  N_35
   10  A    between atoms: C_19  and  C_23
   11  A    between atoms: C_23  and  C_40
   12  A    between atoms: N_30  and  C_39
                            x       y       z     vdW  Elec       q    Type
                         _______ _______ _______ _____ _____    ______ ____

>  <TORSDO>
F 12

$$$$
=
 OpenBabel11042410403D

 44 50  0  0  1  0  0  0  0  0999 V2000
  186.7760  178.3850  142.2740 C   0  0  2  0  0  3  0  0  0  0  0  0
  187.7460  178.0040  141.4020 C   0  0  0  0  0  0  0  0  0  0  0  0
  185.5540  179.0350  141.8510 N   0  0  2  0  0  0  0  0  0  0  0  0
  185.6970  178.2540  144.5530 C   0  0  0  0  0  0  0  0  0  0  0  0
  190.1430  177.5580  137.5390 N   0  0  0  0  0  0  0  0  0  0  0  0
  187.0080  178.2350  143.7750 C   0  0  1  0  0  3  0  0  0  0  0  0
  189.7730  177.1990  139.6580 C   0  0  0  0  0  0  0  0  0  0  0  0
  189.0370  178.1740  137.8130 C   0  0  0  0  0  0  0  0  0  0  0  0
  184.6950  178.9390  144.0870 N   0  0  0  0  0  0  0  0  0  0  0  0
  184.7780  179.7400  142.8680 C   0  0  0  0  0  2  0  0  0  0  0  0
  189.8440  176.7680  140.9770 C   0  0  0  0  0  3  0  0  0  0  0  0
  188.8250  177.1800  141.8570 C   0  0  0  0  0  0  0  0  0  0  0  0
  188.8150  176.6410  143.2230 C   0  0  0  0  0  3  0  0  0  0  0  0
  188.7450  177.9790  139.2150 C   0  0  0  0  0  0  0  0  0  0  0  0
  190.6070  176.9280  138.7090 N   0  0  0  0  0  2  0  0  0  0  0  0
  185.5390  177.6470  145.8430 N   0  0  0  0  0  2  0  0  0  0  0  0
  187.7150  178.4020  140.0450 C   0  0  0  0  0  3  0  0  0  0  0  0
  187.9290  177.0890  144.1070 C   0  0  0  0  0  3  0  0  0  0  0  0
  183.7870  179.6960  140.2520 C   0  0  2  0  0  3  0  0  0  0  0  0
  182.6610  179.2040  139.3280 C   0  0  1  0  0  3  0  0  0  0  0  0
  183.8210  179.9920  138.7600 C   0  0  0  0  0  2  0  0  0  0  0  0
  183.9690  176.9510  139.1640 C   0  0  0  0  0  2  0  0  0  0  0  0
  182.6820  177.7250  138.8770 C   0  0  1  0  0  3  0  0  0  0  0  0
  184.9100  178.7030  140.5790 C   0  0  2  0  0  3  0  0  0  0  0  0
  184.4600  177.2540  140.5620 C   0  0  0  0  0  2  0  0  0  0  0  0
  181.2440  176.2850  137.1340 O   0  0  0  0  0  1  0  0  0  0  0  0
  180.8610  176.1990  138.4790 C   0  0  2  0  0  0  0  0  0  0  0  0
  181.5440  177.0170  139.4570 N   0  0  1  0  0  0  0  0  0  0  0  0
  181.7940  175.6530  139.2900 O   0  0  0  0  0  0  0  0  0  0  0  0
  179.4940  175.8260  138.8110 N   0  0  0  0  0  2  0  0  0  0  0  0
  179.1110  174.5150  139.2360 C   0  0  0  0  0  0  0  0  0  0  0  0
  178.9420  174.1410  140.8240 S   0  0  0  0  0  0  0  0  0  0  0  0
  180.2490  172.7370  137.9680 C   0  0  0  0  0  1  0  0  0  0  0  0
  178.9310  173.4450  138.2160 C   0  0  0  0  0  2  0  0  0  0  0  0
  186.6090  177.0950  146.6590 C   0  0  0  0  0  2  0  0  0  0  0  0
  187.1840  178.1620  147.5260 C   0  0  0  0  0  0  0  0  0  0  0  0
  186.5420  179.1770  147.7500 O   0  0  0  0  0  0  0  0  0  0  0  0
  188.5400  177.9800  148.1210 C   0  0  0  0  0  2  0  0  0  0  0  0
  189.3530  176.9920  147.3010 C   0  0  0  0  0  2  0  0  0  0  0  0
  190.8210  177.0800  147.6750 C   0  0  0  0  0  2  0  0  0  0  0  0
  191.6530  176.1850  146.7720 C   0  0  0  0  0  1  0  0  0  0  0  0
  188.2700  179.0040  136.8360 C   0  0  0  0  0  2  0  0  0  0  0  0
  186.6520  177.3330  136.0560 C   0  0  0  0  0  2  0  0  0  0  0  0
  186.8780  178.4860  136.6800 C   0  0  0  0  0  3  0  0  0  0  0  0
  1  2  1  1  0  0  0
  1  6  1  0  0  0  0
  2 12  1  0  0  0  0
  3  1  1  0  0  0  0
  3 10  1  1  0  0  0
  4 16  1  0  0  0  0
  5  8  2  0  0  0  0
  5 15  1  0  0  0  0
  6 18  1  6  0  0  0
  6  4  1  0  0  0  0
  7 11  1  0  0  0  0
  8 14  1  0  0  0  0
  9  4  2  0  0  0  0
 10  9  1  0  0  0  0
 11 12  2  0  0  0  0
 12 13  1  0  0  0  0
 13 18  2  0  0  0  0
 14  7  2  0  0  0  0
 14 17  1  0  0  0  0
 15  7  1  0  0  0  0
 16 35  1  0  0  0  0
 17  2  2  0  0  0  0
 19 21  1  6  0  0  0
 19 24  1  0  0  0  0
 20 21  1  6  0  0  0
 20 19  1  0  0  0  0
 22 25  1  0  0  0  0
 23 22  1  1  0  0  0
 23 20  1  0  0  0  0
 23 28  1  0  0  0  0
 24 25  1  1  0  0  0
 24  3  1  0  0  0  0
 27 26  1  6  0  0  0
 27 30  1  0  0  0  0
 27 29  1  0  0  0  0
 27 28  1  0  0  0  0
 28 29  1  1  0  0  0
 30 31  1  0  0  0  0
 31 32  2  0  0  0  0
 33 34  1  0  0  0  0
 34 31  1  0  0  0  0
 35 36  1  0  0  0  0
 36 37  2  0  0  0  0
 36 38  1  0  0  0  0
 39 40  1  0  0  0  0
 39 38  1  0  0  0  0
 41 40  1  0  0  0  0
 42  8  1  0  0  0  0
 43 44  2  0  0  0  0
 44 42  1  0  0  0  0
M  END
>  <MODEL>
4

>  <REMARK>
 VINA RESULT:      -6.5      2.593      3.816
  Name = 
  12 active torsions:
  status: ('A' for Active; 'I' for Inactive)
    1  A    between atoms: N_4  and  C_41
    2  A    between atoms: C_5  and  N_9
    3  A    between atoms: C_5  and  C_17
    4  A    between atoms: C_8  and  C_11
    5  A    between atoms: C_8  and  C_14
    6  A    between atoms: N_9  and  C_21
    7  A    between atoms: C_11  and  C_38
    8  A    between atoms: C_12  and  C_38
    9  A    between atoms: C_14  and  N_35
   10  A    between atoms: C_19  and  C_23
   11  A    between atoms: C_23  and  C_40
   12  A    between atoms: N_30  and  C_39
                            x       y       z     vdW  Elec       q    Type
                         _______ _______ _______ _____ _____    ______ ____

>  <TORSDO>
F 12

$$$$
=
 OpenBabel11042410403D

 44 50  0  0  1  0  0  0  0  0999 V2000
  191.1130  176.1390  137.8230 C   0  0  2  0  0  3  0  0  0  0  0  0
  190.0250  175.6770  137.1530 C   0  0  0  0  0  0  0  0  0  0  0  0
  191.0140  177.0590  138.9350 N   0  0  2  0  0  0  0  0  0  0  0  0
  193.5570  175.9620  138.4270 C   0  0  0  0  0  0  0  0  0  0  0  0
  185.7090  175.2140  135.7290 N   0  0  0  0  0  0  0  0  0  0  0  0
  192.5120  175.7750  137.3340 C   0  0  1  0  0  3  0  0  0  0  0  0
  187.8270  174.6950  135.7370 C   0  0  0  0  0  0  0  0  0  0  0  0
  186.2610  176.0000  136.5990 C   0  0  0  0  0  0  0  0  0  0  0  0
  193.3720  176.8790  139.3310 N   0  0  0  0  0  0  0  0  0  0  0  0
  192.2240  177.7820  139.3210 C   0  0  0  0  0  2  0  0  0  0  0  0
  189.0650  174.1100  135.4990 C   0  0  0  0  0  3  0  0  0  0  0  0
  190.1730  174.6110  136.2080 C   0  0  0  0  0  0  0  0  0  0  0  0
  191.4670  173.9320  136.0620 C   0  0  0  0  0  3  0  0  0  0  0  0
  187.6760  175.7070  136.6400 C   0  0  0  0  0  0  0  0  0  0  0  0
  186.7020  174.3760  135.1880 N   0  0  0  0  0  0  0  0  0  0  0  0
  194.8050  175.2540  138.4520 N   0  0  0  0  0  2  0  0  0  0  0  0
  188.7390  176.2260  137.3670 C   0  0  0  0  0  2  0  0  0  0  0  0
  192.5530  174.4410  136.6350 C   0  0  0  0  0  3  0  0  0  0  0  0
  189.2800  178.3980  140.0820 C   0  0  2  0  0  3  0  0  0  0  0  0
  188.5370  178.6500  141.4040 C   0  0  1  0  0  3  0  0  0  0  0  0
  187.7680  178.2530  140.1630 C   0  0  0  0  0  2  0  0  0  0  0  0
  189.0580  176.1640  142.0090 C   0  0  0  0  0  2  0  0  0  0  0  0
  188.5460  177.5290  142.4700 C   0  0  1  0  0  3  0  0  0  0  0  0
  189.8950  177.0070  139.8770 C   0  0  2  0  0  3  0  0  0  0  0  0
  190.3060  176.3310  141.1700 C   0  0  0  0  0  2  0  0  0  0  0  0
  187.4270  176.9230  144.8280 O   0  0  0  0  0  1  0  0  0  0  0  0
  188.6840  177.5390  144.8750 C   0  0  2  0  0  0  0  0  0  0  0  0
  189.3030  177.9670  143.6390 N   0  0  1  0  0  0  0  0  0  0  0  0
  189.6830  176.8120  144.3260 O   0  0  0  0  0  0  0  0  0  0  0  0
  189.0740  178.2800  146.0660 N   0  0  0  0  0  2  0  0  0  0  0  0
  189.5050  177.6580  147.2800 C   0  0  0  0  0  0  0  0  0  0  0  0
  190.8710  176.7520  147.3440 S   0  0  0  0  0  0  0  0  0  0  0  0
  187.3130  178.3840  148.1360 C   0  0  0  0  0  1  0  0  0  0  0  0
  188.6550  177.7760  148.4970 C   0  0  0  0  0  2  0  0  0  0  0  0
  195.3260  174.4130  137.3850 C   0  0  0  0  0  2  0  0  0  0  0  0
  195.5910  173.0430  137.9070 C   0  0  0  0  0  0  0  0  0  0  0  0
  195.4310  172.8000  139.0930 O   0  0  0  0  0  0  0  0  0  0  0  0
  196.0470  171.9720  136.9740 C   0  0  0  0  0  2  0  0  0  0  0  0
  195.2370  170.7030  137.1850 C   0  0  0  0  0  2  0  0  0  0  0  0
  193.9300  170.7790  136.4160 C   0  0  0  0  0  2  0  0  0  0  0  0
  194.1760  171.2680  134.9990 C   0  0  0  0  0  1  0  0  0  0  0  0
  185.5370  177.0700  137.3480 C   0  0  0  0  0  2  0  0  0  0  0  0
  183.3270  176.6730  138.3360 C   0  0  0  0  0  2  0  0  0  0  0  0
  184.0590  176.8820  137.2450 C   0  0  0  0  0  3  0  0  0  0  0  0
  1  2  1  6  0  0  0
  1  3  1  0  0  0  0
  2 17  1  0  0  0  0
  3 10  1  1  0  0  0
  3 24  1  0  0  0  0
  4 16  1  0  0  0  0
  4  9  2  0  0  0  0
  5  8  1  0  0  0  0
  6 18  1  1  0  0  0
  6  1  1  0  0  0  0
  6  4  1  0  0  0  0
  7 14  1  0  0  0  0
  8 14  2  0  0  0  0
  8 42  1  0  0  0  0
 10  9  1  0  0  0  0
 11  7  2  0  0  0  0
 11 12  1  0  0  0  0
 12  2  2  0  0  0  0
 13 12  1  0  0  0  0
 13 18  2  0  0  0  0
 14 17  1  0  0  0  0
 15  5  2  0  0  0  0
 15  7  1  0  0  0  0
 19 21  1  6  0  0  0
 19 20  1  0  0  0  0
 20 21  1  6  0  0  0
 20 23  1  0  0  0  0
 23 22  1  6  0  0  0
 23 28  1  0  0  0  0
 24 19  1  0  0  0  0
 24 25  1  1  0  0  0
 25 22  1  0  0  0  0
 27 26  1  6  0  0  0
 27 30  1  0  0  0  0
 28 29  1  6  0  0  0
 28 27  1  0  0  0  0
 29 27  1  0  0  0  0
 30 31  1  0  0  0  0
 31 32  2  0  0  0  0
 31 34  1  0  0  0  0
 33 34  1  0  0  0  0
 35 36  1  0  0  0  0
 35 16  1  0  0  0  0
 36 37  2  0  0  0  0
 38 39  1  0  0  0  0
 38 36  1  0  0  0  0
 40 39  1  0  0  0  0
 41 40  1  0  0  0  0
 44 42  1  0  0  0  0
 44 43  2  0  0  0  0
M  END
>  <MODEL>
5

>  <REMARK>
 VINA RESULT:      -6.4      4.931     10.273
  Name = 
  12 active torsions:
  status: ('A' for Active; 'I' for Inactive)
    1  A    between atoms: N_4  and  C_41
    2  A    between atoms: C_5  and  N_9
    3  A    between atoms: C_5  and  C_17
    4  A    between atoms: C_8  and  C_11
    5  A    between atoms: C_8  and  C_14
    6  A    between atoms: N_9  and  C_21
    7  A    between atoms: C_11  and  C_38
    8  A    between atoms: C_12  and  C_38
    9  A    between atoms: C_14  and  N_35
   10  A    between atoms: C_19  and  C_23
   11  A    between atoms: C_23  and  C_40
   12  A    between atoms: N_30  and  C_39
                            x       y       z     vdW  Elec       q    Type
                         _______ _______ _______ _____ _____    ______ ____

>  <TORSDO>
F 12

$$$$
=
 OpenBabel11042410403D

 44 50  0  0  1  0  0  0  0  0999 V2000
  190.7010  176.5410  137.7260 C   0  0  2  0  0  3  0  0  0  0  0  0
  189.5480  176.2900  137.0520 C   0  0  0  0  0  0  0  0  0  0  0  0
  190.7350  177.2690  138.9760 N   0  0  2  0  0  0  0  0  0  0  0  0
  193.1420  176.0610  138.1540 C   0  0  0  0  0  0  0  0  0  0  0  0
  185.1510  176.4340  135.8190 N   0  0  0  0  0  0  0  0  0  0  0  0
  192.0390  176.1470  137.1050 C   0  0  1  0  0  3  0  0  0  0  0  0
  187.2100  175.7450  135.6240 C   0  0  0  0  0  0  0  0  0  0  0  0
  185.8090  177.0160  136.7720 C   0  0  0  0  0  0  0  0  0  0  0  0
  193.0800  176.8280  139.2020 N   0  0  0  0  0  0  0  0  0  0  0  0
  192.0210  177.8130  139.4040 C   0  0  0  0  0  2  0  0  0  0  0  0
  188.3780  175.1050  135.2250 C   0  0  0  0  0  3  0  0  0  0  0  0
  189.5570  175.3860  135.9410 C   0  0  0  0  0  0  0  0  0  0  0  0
  190.7750  174.6350  135.6140 C   0  0  0  0  0  3  0  0  0  0  0  0
  187.1920  176.6020  136.6850 C   0  0  0  0  0  0  0  0  0  0  0  0
  186.0380  175.6170  135.0950 N   0  0  0  0  0  0  0  0  0  0  0  0
  194.3190  175.2560  137.9930 N   0  0  0  0  0  2  0  0  0  0  0  0
  188.3280  176.9020  137.4240 C   0  0  0  0  0  2  0  0  0  0  0  0
  191.9260  174.9490  136.2000 C   0  0  0  0  0  3  0  0  0  0  0  0
  189.0590  178.5310  140.2850 C   0  0  2  0  0  3  0  0  0  0  0  0
  188.3740  178.6940  141.6520 C   0  0  1  0  0  3  0  0  0  0  0  0
  187.5510  178.3870  140.4200 C   0  0  0  0  0  2  0  0  0  0  0  0
  188.9040  176.1700  142.0610 C   0  0  0  0  0  2  0  0  0  0  0  0
  188.4210  177.5010  142.6370 C   0  0  1  0  0  3  0  0  0  0  0  0
  189.6560  177.1560  139.9580 C   0  0  2  0  0  3  0  0  0  0  0  0
  190.1170  176.3900  141.1830 C   0  0  0  0  0  2  0  0  0  0  0  0
  187.2370  177.0780  145.0020 O   0  0  0  0  0  1  0  0  0  0  0  0
  188.5640  177.5280  145.0410 C   0  0  2  0  0  0  0  0  0  0  0  0
  189.2300  177.8550  143.8000 N   0  0  1  0  0  0  0  0  0  0  0  0
  189.4590  176.6700  144.5030 O   0  0  0  0  0  0  0  0  0  0  0  0
  189.0470  178.2280  146.2220 N   0  0  0  0  0  2  0  0  0  0  0  0
  189.1420  177.6270  147.5160 C   0  0  0  0  0  0  0  0  0  0  0  0
  188.3870  178.2720  148.8210 S   0  0  0  0  0  0  0  0  0  0  0  0
  191.4290  176.7450  147.2760 C   0  0  0  0  0  1  0  0  0  0  0  0
  190.0070  176.4280  147.6980 C   0  0  0  0  0  2  0  0  0  0  0  0
  194.7140  174.5630  136.7770 C   0  0  0  0  0  2  0  0  0  0  0  0
  196.1470  174.8450  136.4790 C   0  0  0  0  0  0  0  0  0  0  0  0
  196.9580  174.9080  137.3900 O   0  0  0  0  0  0  0  0  0  0  0  0
  196.5830  175.0440  135.0660 C   0  0  0  0  0  2  0  0  0  0  0  0
  196.9770  176.4930  134.8300 C   0  0  0  0  0  2  0  0  0  0  0  0
  195.7710  177.4000  134.9950 C   0  0  0  0  0  2  0  0  0  0  0  0
  196.1870  178.8580  134.8940 C   0  0  0  0  0  1  0  0  0  0  0  0
  185.2190  178.0040  137.7240 C   0  0  0  0  0  2  0  0  0  0  0  0
  182.7720  178.0480  137.8850 C   0  0  0  0  0  2  0  0  0  0  0  0
  183.9230  177.5030  138.2710 C   0  0  0  0  0  3  0  0  0  0  0  0
  1  2  1  6  0  0  0
  1  3  1  0  0  0  0
  2 17  1  0  0  0  0
  3 10  1  1  0  0  0
  3 24  1  0  0  0  0
  4  9  2  0  0  0  0
  5  8  1  0  0  0  0
  6 18  1  1  0  0  0
  6  1  1  0  0  0  0
  6  4  1  0  0  0  0
  7 14  1  0  0  0  0
  8 42  1  0  0  0  0
  9 10  1  0  0  0  0
 11  7  2  0  0  0  0
 11 12  1  0  0  0  0
 12  2  2  0  0  0  0
 13 12  1  0  0  0  0
 13 18  2  0  0  0  0
 14  8  2  0  0  0  0
 14 17  1  0  0  0  0
 15  7  1  0  0  0  0
 15  5  2  0  0  0  0
 16  4  1  0  0  0  0
 19 21  1  6  0  0  0
 19 20  1  0  0  0  0
 20 21  1  6  0  0  0
 20 23  1  0  0  0  0
 23 22  1  6  0  0  0
 23 28  1  0  0  0  0
 24 19  1  0  0  0  0
 24 25  1  1  0  0  0
 25 22  1  0  0  0  0
 27 26  1  6  0  0  0
 27 30  1  0  0  0  0
 28 29  1  6  0  0  0
 28 27  1  0  0  0  0
 29 27  1  0  0  0  0
 30 31  1  0  0  0  0
 31 34  1  0  0  0  0
 31 32  2  0  0  0  0
 33 34  1  0  0  0  0
 35 16  1  0  0  0  0
 36 35  1  0  0  0  0
 36 37  2  0  0  0  0
 38 36  1  0  0  0  0
 39 40  1  0  0  0  0
 39 38  1  0  0  0  0
 41 40  1  0  0  0  0
 42 44  1  0  0  0  0
 43 44  2  0  0  0  0
M  END
>  <MODEL>
6

>  <REMARK>
 VINA RESULT:      -6.4      4.825     10.369
  Name = 
  12 active torsions:
  status: ('A' for Active; 'I' for Inactive)
    1  A    between atoms: N_4  and  C_41
    2  A    between atoms: C_5  and  N_9
    3  A    between atoms: C_5  and  C_17
    4  A    between atoms: C_8  and  C_11
    5  A    between atoms: C_8  and  C_14
    6  A    between atoms: N_9  and  C_21
    7  A    between atoms: C_11  and  C_38
    8  A    between atoms: C_12  and  C_38
    9  A    between atoms: C_14  and  N_35
   10  A    between atoms: C_19  and  C_23
   11  A    between atoms: C_23  and  C_40
   12  A    between atoms: N_30  and  C_39
                            x       y       z     vdW  Elec       q    Type
                         _______ _______ _______ _____ _____    ______ ____

>  <TORSDO>
F 12

$$$$
=
 OpenBabel11042410403D

 44 50  0  0  1  0  0  0  0  0999 V2000
  191.1330  176.4590  137.8460 C   0  0  2  0  0  3  0  0  0  0  0  0
  190.0040  176.1990  137.1360 C   0  0  0  0  0  0  0  0  0  0  0  0
  191.1220  177.1920  139.0940 N   0  0  2  0  0  0  0  0  0  0  0  0
  193.5610  175.9940  138.3560 C   0  0  0  0  0  0  0  0  0  0  0  0
  185.6500  176.3160  135.7590 N   0  0  0  0  0  0  0  0  0  0  0  0
  192.4930  176.0700  137.2720 C   0  0  1  0  0  3  0  0  0  0  0  0
  187.7180  175.6370  135.6330 C   0  0  0  0  0  0  0  0  0  0  0  0
  186.2740  176.9050  136.7300 C   0  0  0  0  0  0  0  0  0  0  0  0
  193.4620  176.7640  139.3990 N   0  0  0  0  0  0  0  0  0  0  0  0
  192.3910  177.7450  139.5620 C   0  0  0  0  0  2  0  0  0  0  0  0
  188.9010  175.0020  135.2760 C   0  0  0  0  0  3  0  0  0  0  0  0
  190.0540  175.2920  136.0290 C   0  0  0  0  0  0  0  0  0  0  0  0
  191.2870  174.5450  135.7450 C   0  0  0  0  0  3  0  0  0  0  0  0
  187.6600  176.4980  136.6900 C   0  0  0  0  0  0  0  0  0  0  0  0
  186.5650  175.5010  135.0670 N   0  0  0  0  0  0  0  0  0  0  0  0
  194.7470  175.1950  138.2370 N   0  0  0  0  0  2  0  0  0  0  0  0
  188.7700  176.8060  137.4660 C   0  0  0  0  0  2  0  0  0  0  0  0
  192.4160  174.8680  136.3670 C   0  0  0  0  0  3  0  0  0  0  0  0
  189.3630  178.4430  140.3010 C   0  0  2  0  0  3  0  0  0  0  0  0
  188.6250  178.6270  141.6360 C   0  0  1  0  0  3  0  0  0  0  0  0
  187.8560  178.2560  140.3870 C   0  0  0  0  0  2  0  0  0  0  0  0
  189.2150  176.1360  142.1470 C   0  0  0  0  0  2  0  0  0  0  0  0
  188.6710  177.4690  142.6610 C   0  0  1  0  0  3  0  0  0  0  0  0
  190.0120  177.0770  140.0410 C   0  0  2  0  0  3  0  0  0  0  0  0
  190.4510  176.3650  141.3050 C   0  0  0  0  0  2  0  0  0  0  0  0
  187.4020  177.1140  144.9940 O   0  0  0  0  0  1  0  0  0  0  0  0
  188.7180  177.5920  145.0660 C   0  0  2  0  0  0  0  0  0  0  0  0
  189.4270  177.8840  143.8400 N   0  0  1  0  0  0  0  0  0  0  0  0
  189.6500  176.7330  144.5980 O   0  0  0  0  0  0  0  0  0  0  0  0
  189.1400  178.3480  146.2360 N   0  0  0  0  0  2  0  0  0  0  0  0
  189.2510  177.7850  147.5460 C   0  0  0  0  0  0  0  0  0  0  0  0
  187.9300  177.5060  148.4760 S   0  0  0  0  0  0  0  0  0  0  0  0
  191.2640  176.3800  147.3440 C   0  0  0  0  0  1  0  0  0  0  0  0
  190.6040  177.5120  148.1070 C   0  0  0  0  0  2  0  0  0  0  0  0
  195.1860  174.4990  137.0370 C   0  0  0  0  0  2  0  0  0  0  0  0
  196.1620  175.3440  136.2940 C   0  0  0  0  0  0  0  0  0  0  0  0
  195.7780  176.3380  135.6960 O   0  0  0  0  0  0  0  0  0  0  0  0
  197.6070  174.9740  136.2890 C   0  0  0  0  0  2  0  0  0  0  0  0
  197.8990  173.9550  137.3780 C   0  0  0  0  0  2  0  0  0  0  0  0
  198.9330  174.5010  138.3460 C   0  0  0  0  0  2  0  0  0  0  0  0
  198.2520  175.1810  139.5220 C   0  0  0  0  0  1  0  0  0  0  0  0
  185.6480  177.8930  137.6580 C   0  0  0  0  0  2  0  0  0  0  0  0
  183.3720  178.4430  138.3910 C   0  0  0  0  0  2  0  0  0  0  0  0
  184.2280  177.5280  137.9420 C   0  0  0  0  0  3  0  0  0  0  0  0
  1  2  1  6  0  0  0
  1  3  1  0  0  0  0
  2 17  1  0  0  0  0
  3 10  1  1  0  0  0
  3 24  1  0  0  0  0
  4  9  2  0  0  0  0
  5  8  1  0  0  0  0
  6 18  1  1  0  0  0
  6  1  1  0  0  0  0
  6  4  1  0  0  0  0
  7 14  1  0  0  0  0
  8 42  1  0  0  0  0
  9 10  1  0  0  0  0
 11  7  2  0  0  0  0
 11 12  1  0  0  0  0
 12  2  2  0  0  0  0
 13 12  1  0  0  0  0
 13 18  2  0  0  0  0
 14  8  2  0  0  0  0
 14 17  1  0  0  0  0
 15  7  1  0  0  0  0
 15  5  2  0  0  0  0
 16  4  1  0  0  0  0
 19 21  1  6  0  0  0
 19 20  1  0  0  0  0
 20 21  1  6  0  0  0
 20 23  1  0  0  0  0
 23 22  1  6  0  0  0
 23 28  1  0  0  0  0
 24 19  1  0  0  0  0
 24 25  1  1  0  0  0
 25 22  1  0  0  0  0
 27 26  1  6  0  0  0
 27 30  1  0  0  0  0
 28 29  1  1  0  0  0
 28 27  1  0  0  0  0
 29 27  1  0  0  0  0
 30 31  1  0  0  0  0
 31 34  1  0  0  0  0
 31 32  2  0  0  0  0
 33 34  1  0  0  0  0
 35 16  1  0  0  0  0
 36 35  1  0  0  0  0
 37 36  2  0  0  0  0
 38 36  1  0  0  0  0
 38 39  1  0  0  0  0
 39 40  1  0  0  0  0
 40 41  1  0  0  0  0
 42 44  1  0  0  0  0
 44 43  2  0  0  0  0
M  END
>  <MODEL>
7

>  <REMARK>
 VINA RESULT:      -6.3      5.052     10.417
  Name = 
  12 active torsions:
  status: ('A' for Active; 'I' for Inactive)
    1  A    between atoms: N_4  and  C_41
    2  A    between atoms: C_5  and  N_9
    3  A    between atoms: C_5  and  C_17
    4  A    between atoms: C_8  and  C_11
    5  A    between atoms: C_8  and  C_14
    6  A    between atoms: N_9  and  C_21
    7  A    between atoms: C_11  and  C_38
    8  A    between atoms: C_12  and  C_38
    9  A    between atoms: C_14  and  N_35
   10  A    between atoms: C_19  and  C_23
   11  A    between atoms: C_23  and  C_40
   12  A    between atoms: N_30  and  C_39
                            x       y       z     vdW  Elec       q    Type
                         _______ _______ _______ _____ _____    ______ ____

>  <TORSDO>
F 12

$$$$
=
 OpenBabel11042410403D

 44 50  0  0  1  0  0  0  0  0999 V2000
  186.5350  178.4780  140.6140 C   0  0  2  0  0  3  0  0  0  0  0  0
  186.8310  178.2420  141.9190 C   0  0  0  0  0  0  0  0  0  0  0  0
  187.5210  178.3860  139.5590 N   0  0  2  0  0  0  0  0  0  0  0  0
  184.8430  178.7280  138.7580 C   0  0  0  0  0  0  0  0  0  0  0  0
  189.2330  177.4830  145.7310 N   0  0  0  0  0  0  0  0  0  0  0  0
  185.1410  178.9690  140.2330 C   0  0  1  0  0  3  0  0  0  0  0  0
  187.3800  177.7710  144.6170 C   0  0  0  0  0  0  0  0  0  0  0  0
  189.5870  177.6530  144.4960 C   0  0  0  0  0  0  0  0  0  0  0  0
  185.8230  178.7400  137.9030 N   0  0  0  0  0  0  0  0  0  0  0  0
  187.2050  179.0250  138.2840 C   0  0  0  0  0  2  0  0  0  0  0  0
  186.0490  177.8950  144.2390 C   0  0  0  0  0  3  0  0  0  0  0  0
  185.7740  178.1400  142.8800 C   0  0  0  0  0  0  0  0  0  0  0  0
  184.3740  178.1570  142.4380 C   0  0  0  0  0  3  0  0  0  0  0  0
  188.3930  177.8600  143.7070 C   0  0  0  0  0  0  0  0  0  0  0  0
  187.8290  177.5460  145.8080 N   0  0  0  0  0  2  0  0  0  0  0  0
  183.5130  178.6010  138.2340 N   0  0  0  0  0  2  0  0  0  0  0  0
  188.1680  178.0930  142.3570 C   0  0  0  0  0  3  0  0  0  0  0  0
  184.0770  178.4870  141.1850 C   0  0  0  0  0  3  0  0  0  0  0  0
  189.9510  178.0730  139.8900 C   0  0  2  0  0  3  0  0  0  0  0  0
  191.2160  177.3450  139.4060 C   0  0  1  0  0  3  0  0  0  0  0  0
  190.7460  177.1840  140.8350 C   0  0  0  0  0  2  0  0  0  0  0  0
  189.6320  175.4510  138.5570 C   0  0  0  0  0  2  0  0  0  0  0  0
  191.0400  176.0460  138.5830 C   0  0  1  0  0  3  0  0  0  0  0  0
  188.6020  177.4010  139.6040 C   0  0  2  0  0  3  0  0  0  0  0  0
  188.6060  176.5440  138.3520 C   0  0  0  0  0  2  0  0  0  0  0  0
  193.1100  174.5140  137.8440 O   0  0  0  0  0  1  0  0  0  0  0  0
  192.5700  175.3510  136.8580 C   0  0  2  0  0  0  0  0  0  0  0  0
  191.5070  176.2630  137.2160 N   0  0  1  0  0  0  0  0  0  0  0  0
  191.2900  175.0680  136.5260 O   0  0  0  0  0  0  0  0  0  0  0  0
  193.4000  175.7580  135.7330 N   0  0  0  0  0  2  0  0  0  0  0  0
  194.5120  174.9980  135.2530 C   0  0  0  0  0  0  0  0  0  0  0  0
  196.0460  175.5740  135.3340 S   0  0  0  0  0  0  0  0  0  0  0  0
  194.9660  172.5800  135.3670 C   0  0  0  0  0  1  0  0  0  0  0  0
  194.2650  173.6830  134.5980 C   0  0  0  0  0  2  0  0  0  0  0  0
  182.2830  178.8510  138.9700 C   0  0  0  0  0  2  0  0  0  0  0  0
  181.2180  177.9210  138.5020 C   0  0  0  0  0  0  0  0  0  0  0  0
  180.7690  177.0760  139.2620 O   0  0  0  0  0  0  0  0  0  0  0  0
  180.7000  178.0310  137.1070 C   0  0  0  0  0  2  0  0  0  0  0  0
  180.6610  179.4860  136.6680 C   0  0  0  0  0  2  0  0  0  0  0  0
  180.8160  179.5860  135.1620 C   0  0  0  0  0  2  0  0  0  0  0  0
  181.7240  178.4810  134.6470 C   0  0  0  0  0  1  0  0  0  0  0  0
  191.0030  177.7040  144.0240 C   0  0  0  0  0  2  0  0  0  0  0  0
  191.6580  175.3400  143.9570 C   0  0  0  0  0  2  0  0  0  0  0  0
  191.7750  176.5330  144.5370 C   0  0  0  0  0  3  0  0  0  0  0  0
  1  2  1  1  0  0  0
  2 17  2  0  0  0  0
  2 12  1  0  0  0  0
  3 10  1  6  0  0  0
  3 24  1  0  0  0  0
  3  1  1  0  0  0  0
  4  6  1  0  0  0  0
  5 15  1  0  0  0  0
  6  1  1  0  0  0  0
  6 18  1  1  0  0  0
  7 15  1  0  0  0  0
  8  5  2  0  0  0  0
  9 10  1  0  0  0  0
  9  4  2  0  0  0  0
 11  7  1  0  0  0  0
 12 11  2  0  0  0  0
 13 12  1  0  0  0  0
 14  8  1  0  0  0  0
 14  7  2  0  0  0  0
 16  4  1  0  0  0  0
 16 35  1  0  0  0  0
 17 14  1  0  0  0  0
 18 13  2  0  0  0  0
 19 21  1  1  0  0  0
 20 19  1  0  0  0  0
 20 21  1  1  0  0  0
 23 22  1  6  0  0  0
 23 20  1  0  0  0  0
 24 25  1  6  0  0  0
 24 19  1  0  0  0  0
 25 22  1  0  0  0  0
 27 28  1  0  0  0  0
 27 26  1  1  0  0  0
 28 29  1  6  0  0  0
 28 23  1  0  0  0  0
 29 27  1  0  0  0  0
 30 27  1  0  0  0  0
 31 32  2  0  0  0  0
 31 30  1  0  0  0  0
 34 31  1  0  0  0  0
 34 33  1  0  0  0  0
 36 35  1  0  0  0  0
 36 37  2  0  0  0  0
 38 36  1  0  0  0  0
 39 38  1  0  0  0  0
 40 39  1  0  0  0  0
 41 40  1  0  0  0  0
 42  8  1  0  0  0  0
 42 44  1  0  0  0  0
 43 44  2  0  0  0  0
M  END
>  <MODEL>
8

>  <REMARK>
 VINA RESULT:      -5.8      4.444      8.550
  Name = 
  12 active torsions:
  status: ('A' for Active; 'I' for Inactive)
    1  A    between atoms: N_4  and  C_41
    2  A    between atoms: C_5  and  N_9
    3  A    between atoms: C_5  and  C_17
    4  A    between atoms: C_8  and  C_11
    5  A    between atoms: C_8  and  C_14
    6  A    between atoms: N_9  and  C_21
    7  A    between atoms: C_11  and  C_38
    8  A    between atoms: C_12  and  C_38
    9  A    between atoms: C_14  and  N_35
   10  A    between atoms: C_19  and  C_23
   11  A    between atoms: C_23  and  C_40
   12  A    between atoms: N_30  and  C_39
                            x       y       z     vdW  Elec       q    Type
                         _______ _______ _______ _____ _____    ______ ____

>  <TORSDO>
F 12

$$$$
=
 OpenBabel11042410403D

 44 50  0  0  1  0  0  0  0  0999 V2000
  187.8700  177.8830  138.8720 C   0  0  2  0  0  3  0  0  0  0  0  0
  189.1370  177.4250  138.6920 C   0  0  0  0  0  0  0  0  0  0  0  0
  186.8540  177.7990  137.8460 N   0  0  2  0  0  0  0  0  0  0  0  0
  186.0050  178.6370  140.3970 C   0  0  0  0  0  0  0  0  0  0  0  0
  192.8860  175.7920  136.6560 N   0  0  0  0  0  0  0  0  0  0  0  0
  187.5110  178.6210  140.1590 C   0  0  1  0  0  3  0  0  0  0  0  0
  191.7540  176.5010  138.3790 C   0  0  0  0  0  0  0  0  0  0  0  0
  191.7060  176.0820  136.2070 C   0  0  0  0  0  0  0  0  0  0  0  0
  185.2020  178.6270  139.3740 N   0  0  0  0  0  0  0  0  0  0  0  0
  185.6760  178.6510  137.9920 C   0  0  0  0  0  2  0  0  0  0  0  0
  191.3450  176.8710  139.6550 C   0  0  0  0  0  3  0  0  0  0  0  0
  190.0280  177.3430  139.8100 C   0  0  0  0  0  0  0  0  0  0  0  0
  189.5370  177.6260  141.1650 C   0  0  0  0  0  3  0  0  0  0  0  0
  190.9100  176.5700  137.3100 C   0  0  0  0  0  0  0  0  0  0  0  0
  192.9160  176.0480  138.0400 N   0  0  0  0  0  2  0  0  0  0  0  0
  185.4150  178.7810  141.6970 N   0  0  0  0  0  2  0  0  0  0  0  0
  189.6010  177.0210  137.4180 C   0  0  0  0  0  3  0  0  0  0  0  0
  188.3360  178.1700  141.3350 C   0  0  0  0  0  3  0  0  0  0  0  0
  185.5770  176.7790  135.9900 C   0  0  2  0  0  3  0  0  0  0  0  0
  185.0300  175.4740  135.3900 C   0  0  1  0  0  3  0  0  0  0  0  0
  185.9860  176.3340  134.5940 C   0  0  0  0  0  2  0  0  0  0  0  0
  186.9810  174.2540  136.6230 C   0  0  0  0  0  2  0  0  0  0  0  0
  185.6760  174.1400  135.8370 C   0  0  1  0  0  3  0  0  0  0  0  0
  186.7950  176.6700  136.9160 C   0  0  2  0  0  3  0  0  0  0  0  0
  186.8730  175.3510  137.6600 C   0  0  0  0  0  2  0  0  0  0  0  0
  185.1650  171.7050  134.8440 O   0  0  0  0  0  1  0  0  0  0  0  0
  184.5400  172.0270  136.0570 C   0  0  2  0  0  0  0  0  0  0  0  0
  184.7090  173.3570  136.6010 N   0  0  1  0  0  0  0  0  0  0  0  0
  185.3930  172.2390  137.0840 O   0  0  0  0  0  0  0  0  0  0  0  0
  183.3140  171.3410  136.4340 N   0  0  0  0  0  2  0  0  0  0  0  0
  182.0460  171.5870  135.8180 C   0  0  0  0  0  0  0  0  0  0  0  0
  181.4170  170.5590  134.7060 S   0  0  0  0  0  0  0  0  0  0  0  0
  180.3600  173.1930  135.0150 C   0  0  0  0  0  1  0  0  0  0  0  0
  181.3140  172.8430  136.1420 C   0  0  0  0  0  2  0  0  0  0  0  0
  186.1300  179.1010  142.9230 C   0  0  0  0  0  2  0  0  0  0  0  0
  185.1560  179.3980  144.0110 C   0  0  0  0  0  0  0  0  0  0  0  0
  184.4660  180.4040  143.9540 O   0  0  0  0  0  0  0  0  0  0  0  0
  185.0250  178.4590  145.1630 C   0  0  0  0  0  2  0  0  0  0  0  0
  186.2580  178.5290  146.0490 C   0  0  0  0  0  2  0  0  0  0  0  0
  187.2360  177.4280  145.6800 C   0  0  0  0  0  2  0  0  0  0  0  0
  188.4730  177.5010  146.5590 C   0  0  0  0  0  1  0  0  0  0  0  0
  191.3040  175.9920  134.7720 C   0  0  0  0  0  2  0  0  0  0  0  0
  190.3930  173.7140  134.7960 C   0  0  0  0  0  2  0  0  0  0  0  0
  190.1900  175.0140  134.5940 C   0  0  0  0  0  3  0  0  0  0  0  0
  1  2  1  6  0  0  0
  1  6  1  0  0  0  0
  2 12  1  0  0  0  0
  3 10  1  1  0  0  0
  3  1  1  0  0  0  0
  4 16  1  0  0  0  0
  5 15  1  0  0  0  0
  6  4  1  0  0  0  0
  6 18  1  1  0  0  0
  7 11  1  0  0  0  0
  8  5  2  0  0  0  0
  8 14  1  0  0  0  0
  9  4  2  0  0  0  0
 10  9  1  0  0  0  0
 11 12  2  0  0  0  0
 12 13  1  0  0  0  0
 13 18  2  0  0  0  0
 14 17  1  0  0  0  0
 14  7  2  0  0  0  0
 15  7  1  0  0  0  0
 16 35  1  0  0  0  0
 17  2  2  0  0  0  0
 19 21  1  6  0  0  0
 19 24  1  0  0  0  0
 20 21  1  6  0  0  0
 20 23  1  0  0  0  0
 20 19  1  0  0  0  0
 22 25  1  0  0  0  0
 23 28  1  0  0  0  0
 23 22  1  1  0  0  0
 24 25  1  1  0  0  0
 24  3  1  0  0  0  0
 27 26  1  6  0  0  0
 27 30  1  0  0  0  0
 27 28  1  0  0  0  0
 27 29  1  0  0  0  0
 28 29  1  1  0  0  0
 31 34  1  0  0  0  0
 31 30  1  0  0  0  0
 32 31  2  0  0  0  0
 33 34  1  0  0  0  0
 35 36  1  0  0  0  0
 36 38  1  0  0  0  0
 37 36  2  0  0  0  0
 38 39  1  0  0  0  0
 40 39  1  0  0  0  0
 40 41  1  0  0  0  0
 42  8  1  0  0  0  0
 44 42  1  0  0  0  0
 44 43  2  0  0  0  0
M  END
>  <MODEL>
9

>  <REMARK>
 VINA RESULT:      -5.7      1.821      2.176
  Name = 
  12 active torsions:
  status: ('A' for Active; 'I' for Inactive)
    1  A    between atoms: N_4  and  C_41
    2  A    between atoms: C_5  and  N_9
    3  A    between atoms: C_5  and  C_17
    4  A    between atoms: C_8  and  C_11
    5  A    between atoms: C_8  and  C_14
    6  A    between atoms: N_9  and  C_21
    7  A    between atoms: C_11  and  C_38
    8  A    between atoms: C_12  and  C_38
    9  A    between atoms: C_14  and  N_35
   10  A    between atoms: C_19  and  C_23
   11  A    between atoms: C_23  and  C_40
   12  A    between atoms: N_30  and  C_39
                            x       y       z     vdW  Elec       q    Type
                         _______ _______ _______ _____ _____    ______ ____

>  <TORSDO>
F 12

$$$$
