=
 OpenBabel11042411013D

 29 34  0  0  1  0  0  0  0  0999 V2000
  186.1960  178.2800  144.8830 C   0  0  0  0  0  0  0  0  0  0  0  0
  187.3610  177.9380  144.3110 N   0  0  0  0  0  0  0  0  0  0  0  0
  189.9200  175.7710  142.9610 C   0  0  0  0  0  3  0  0  0  0  0  0
  188.2860  176.8630  144.6030 C   0  0  1  0  0  3  0  0  0  0  0  0
  189.4110  178.1860  146.4050 O   0  0  0  0  0  1  0  0  0  0  0  0
  184.5460  178.4790  146.5600 N   0  0  0  0  0  0  0  0  0  0  0  0
  185.8530  178.3580  142.6800 C   0  0  1  0  0  3  0  0  0  0  0  0
  183.9320  178.8260  144.2500 C   0  0  0  0  0  3  0  0  0  0  0  0
  188.6400  176.4280  143.2050 C   0  0  1  0  0  3  0  0  0  0  0  0
  190.7320  176.8120  144.9820 C   0  0  0  0  0  0  0  0  0  0  0  0
  191.8890  177.1540  145.7380 N   0  0  0  0  0  1  0  0  0  0  0  0
  187.9600  177.0270  142.2740 N   0  0  0  0  0  2  0  0  0  0  0  0
  189.5270  177.3170  145.3260 C   0  0  0  0  0  0  0  0  0  0  0  0
  185.2590  178.5740  143.9170 C   0  0  0  0  0  0  0  0  0  0  0  0
  187.1380  177.9330  142.9950 C   0  0  2  0  0  3  0  0  0  0  0  0
  183.6010  178.7900  145.6170 C   0  0  0  0  0  3  0  0  0  0  0  0
  190.8770  175.9540  143.8250 N   0  0  0  0  0  0  0  0  0  0  0  0
  185.8410  178.1990  146.2250 C   0  0  0  0  0  3  0  0  0  0  0  0
  185.1600  178.1990  141.3700 C   0  0  0  0  0  2  0  0  0  0  0  0
  185.3350  179.4020  140.5740 N   0  0  0  0  0  2  0  0  0  0  0  0
  180.7430  179.0340  138.9720 C   0  0  0  0  0  3  0  0  0  0  0  0
  182.0590  179.1930  139.1170 C   0  0  0  0  0  0  0  0  0  0  0  0
  180.5110  181.3710  138.2460 C   0  0  0  0  0  3  0  0  0  0  0  0
  183.9540  180.4950  138.9570 N   0  0  0  0  0  0  0  0  0  0  0  0
  181.9000  181.5360  138.4010 O   0  0  0  0  0  0  0  0  0  0  0  0
  182.6770  180.4530  138.8210 C   0  0  0  0  0  0  0  0  0  0  0  0
  179.9280  180.1860  138.5090 C   0  0  0  0  0  3  0  0  0  0  0  0
  183.2240  177.9750  139.6590 S   0  0  0  0  0  0  0  0  0  0  0  0
  184.5570  179.2210  139.3620 C   0  0  2  0  0  3  0  0  0  0  0  0
  1 18  1  0  0  0  0
  2  4  1  0  0  0  0
  2  1  1  0  0  0  0
  3 17  2  0  0  0  0
  4 13  1  6  0  0  0
  7 19  1  1  0  0  0
  7 15  1  0  0  0  0
  7 14  1  0  0  0  0
  8 16  2  0  0  0  0
  9  3  1  6  0  0  0
  9  4  1  0  0  0  0
 10 13  2  0  0  0  0
 10 11  1  0  0  0  0
 12  9  1  0  0  0  0
 13  5  1  0  0  0  0
 14  8  1  0  0  0  0
 14  1  2  0  0  0  0
 15 12  1  1  0  0  0
 15  2  1  0  0  0  0
 16  6  1  0  0  0  0
 17 10  1  0  0  0  0
 18  6  2  0  0  0  0
 20 19  1  0  0  0  0
 21 22  2  0  0  0  0
 22 28  1  0  0  0  0
 23 25  1  0  0  0  0
 23 27  2  0  0  0  0
 24 29  1  0  0  0  0
 25 26  1  0  0  0  0
 26 24  2  0  0  0  0
 26 22  1  0  0  0  0
 27 21  1  0  0  0  0
 29 28  1  0  0  0  0
 29 20  1  1  0  0  0
M  END
>  <MODEL>
1

>  <REMARK>
 VINA RESULT:      -9.2      0.000      0.000
  Name = 
  3 active torsions:
  status: ('A' for Active; 'I' for Inactive)
    1  A    between atoms: C_9  and  C_13
    2  A    between atoms: C_13  and  N_20
    3  A    between atoms: N_20  and  C_29
                            x       y       z     vdW  Elec       q    Type
                         _______ _______ _______ _____ _____    ______ ____

>  <TORSDO>
F 3

$$$$
=
 OpenBabel11042411013D

 29 34  0  0  1  0  0  0  0  0999 V2000
  186.1880  178.3500  144.4810 C   0  0  0  0  0  0  0  0  0  0  0  0
  187.3970  177.9980  144.0170 N   0  0  0  0  0  0  0  0  0  0  0  0
  190.0420  175.8090  142.8850 C   0  0  0  0  0  3  0  0  0  0  0  0
  188.2750  176.9050  144.3800 C   0  0  1  0  0  3  0  0  0  0  0  0
  189.2440  178.1880  146.2990 O   0  0  0  0  0  1  0  0  0  0  0  0
  184.3900  178.5540  145.9970 N   0  0  0  0  0  0  0  0  0  0  0  0
  186.0570  178.4610  142.2570 C   0  0  1  0  0  3  0  0  0  0  0  0
  184.0020  178.9380  143.6450 C   0  0  0  0  0  3  0  0  0  0  0  0
  188.7540  176.4830  143.0160 C   0  0  1  0  0  3  0  0  0  0  0  0
  190.6730  176.8120  144.9870 C   0  0  0  0  0  0  0  0  0  0  0  0
  191.7590  177.1260  145.8540 N   0  0  0  0  0  1  0  0  0  0  0  0
  188.1730  177.1030  142.0330 N   0  0  0  0  0  2  0  0  0  0  0  0
  189.4490  177.3310  145.2240 C   0  0  0  0  0  0  0  0  0  0  0  0
  185.3510  178.6710  143.4350 C   0  0  0  0  0  0  0  0  0  0  0  0
  187.3000  178.0120  142.6860 C   0  0  2  0  0  3  0  0  0  0  0  0
  183.5420  178.8910  144.9740 C   0  0  0  0  0  3  0  0  0  0  0  0
  190.9150  175.9660  143.8380 N   0  0  0  0  0  0  0  0  0  0  0  0
  185.7060  178.2580  145.7820 C   0  0  0  0  0  3  0  0  0  0  0  0
  185.4880  178.3290  140.8850 C   0  0  0  0  0  2  0  0  0  0  0  0
  184.9470  179.6070  140.4540 N   0  0  0  0  0  2  0  0  0  0  0  0
  182.1120  175.9600  138.8900 C   0  0  0  0  0  3  0  0  0  0  0  0
  182.6690  177.1320  139.1950 C   0  0  0  0  0  0  0  0  0  0  0  0
  180.1810  176.4720  140.3210 C   0  0  0  0  0  3  0  0  0  0  0  0
  182.6040  179.1650  140.2790 N   0  0  0  0  0  0  0  0  0  0  0  0
  180.7730  177.7080  140.6430 O   0  0  0  0  0  0  0  0  0  0  0  0
  182.0040  178.0470  140.0750 C   0  0  0  0  0  0  0  0  0  0  0  0
  180.7960  175.6150  139.4840 C   0  0  0  0  0  3  0  0  0  0  0  0
  184.2240  177.7530  138.6190 S   0  0  0  0  0  0  0  0  0  0  0  0
  183.8610  179.3150  139.5370 C   0  0  2  0  0  3  0  0  0  0  0  0
  1 18  1  0  0  0  0
  2  4  1  0  0  0  0
  2  1  1  0  0  0  0
  3 17  2  0  0  0  0
  4 13  1  1  0  0  0
  7 19  1  6  0  0  0
  7 15  1  0  0  0  0
  7 14  1  0  0  0  0
  8 16  2  0  0  0  0
  9  3  1  1  0  0  0
  9  4  1  0  0  0  0
 10 13  2  0  0  0  0
 10 11  1  0  0  0  0
 12  9  1  0  0  0  0
 13  5  1  0  0  0  0
 14  8  1  0  0  0  0
 14  1  2  0  0  0  0
 15 12  1  1  0  0  0
 15  2  1  0  0  0  0
 16  6  1  0  0  0  0
 17 10  1  0  0  0  0
 18  6  2  0  0  0  0
 20 19  1  0  0  0  0
 21 22  2  0  0  0  0
 21 27  1  0  0  0  0
 22 26  1  0  0  0  0
 23 25  1  0  0  0  0
 26 24  2  0  0  0  0
 26 25  1  0  0  0  0
 27 23  2  0  0  0  0
 28 22  1  0  0  0  0
 28 29  1  0  0  0  0
 29 24  1  0  0  0  0
 29 20  1  1  0  0  0
M  END
>  <MODEL>
2

>  <REMARK>
 VINA RESULT:      -8.9      1.555      1.920
  Name = 
  3 active torsions:
  status: ('A' for Active; 'I' for Inactive)
    1  A    between atoms: C_9  and  C_13
    2  A    between atoms: C_13  and  N_20
    3  A    between atoms: N_20  and  C_29
                            x       y       z     vdW  Elec       q    Type
                         _______ _______ _______ _____ _____    ______ ____

>  <TORSDO>
F 3

$$$$
=
 OpenBabel11042411013D

 29 34  0  0  1  0  0  0  0  0999 V2000
  189.5460  177.1700  142.8300 C   0  0  0  0  0  0  0  0  0  0  0  0
  189.4400  176.9890  144.1560 N   0  0  0  0  0  0  0  0  0  0  0  0
  189.2790  177.8820  147.6550 C   0  0  0  0  0  3  0  0  0  0  0  0
  190.1440  177.6060  145.2600 C   0  0  1  0  0  3  0  0  0  0  0  0
  192.0560  176.0010  145.0660 O   0  0  0  0  0  1  0  0  0  0  0  0
  190.5400  177.7150  140.7590 N   0  0  0  0  0  0  0  0  0  0  0  0
  187.3620  177.1630  143.2830 C   0  0  1  0  0  3  0  0  0  0  0  0
  188.1350  177.5690  140.9140 C   0  0  0  0  0  3  0  0  0  0  0  0
  189.0050  177.8110  146.2230 C   0  0  1  0  0  3  0  0  0  0  0  0
  191.3230  176.6710  147.2280 C   0  0  0  0  0  0  0  0  0  0  0  0
  192.3780  175.9150  147.8120 N   0  0  0  0  0  1  0  0  0  0  0  0
  187.8380  177.5090  145.7380 N   0  0  0  0  0  2  0  0  0  0  0  0
  191.1850  176.7110  145.8840 C   0  0  0  0  0  0  0  0  0  0  0  0
  188.2960  177.2480  142.2580 C   0  0  0  0  0  0  0  0  0  0  0  0
  188.1340  177.0400  144.4310 C   0  0  2  0  0  3  0  0  0  0  0  0
  189.3070  177.7820  140.1650 C   0  0  0  0  0  3  0  0  0  0  0  0
  190.3870  177.3560  148.0930 N   0  0  0  0  0  0  0  0  0  0  0  0
  190.6920  177.4330  142.0880 C   0  0  0  0  0  3  0  0  0  0  0  0
  185.9220  177.5450  143.2170 C   0  0  0  0  0  2  0  0  0  0  0  0
  185.6660  178.6500  144.1250 N   0  0  0  0  0  2  0  0  0  0  0  0
  181.7240  178.4100  141.2650 C   0  0  0  0  0  3  0  0  0  0  0  0
  182.6910  178.7520  142.1170 C   0  0  0  0  0  0  0  0  0  0  0  0
  180.0600  178.5070  143.0720 C   0  0  0  0  0  3  0  0  0  0  0  0
  183.3860  179.3600  144.2280 N   0  0  0  0  0  0  0  0  0  0  0  0
  181.0840  178.8660  143.9690 O   0  0  0  0  0  0  0  0  0  0  0  0
  182.3920  179.0020  143.4960 C   0  0  0  0  0  0  0  0  0  0  0  0
  180.3330  178.2840  141.7720 C   0  0  0  0  0  3  0  0  0  0  0  0
  184.4110  178.9530  141.7470 S   0  0  0  0  0  0  0  0  0  0  0  0
  184.6540  179.4810  143.5000 C   0  0  2  0  0  3  0  0  0  0  0  0
  1  2  1  0  0  0  0
  2 15  1  0  0  0  0
  2  4  1  0  0  0  0
  3 17  2  0  0  0  0
  4 13  1  1  0  0  0
  4  9  1  0  0  0  0
  5 13  1  0  0  0  0
  6 18  1  0  0  0  0
  7 19  1  1  0  0  0
  7 15  1  0  0  0  0
  8 14  2  0  0  0  0
  9  3  1  1  0  0  0
 10 11  1  0  0  0  0
 10 17  1  0  0  0  0
 12  9  1  0  0  0  0
 13 10  2  0  0  0  0
 14  1  1  0  0  0  0
 14  7  1  0  0  0  0
 15 12  1  1  0  0  0
 16  6  2  0  0  0  0
 16  8  1  0  0  0  0
 18  1  2  0  0  0  0
 19 20  1  0  0  0  0
 21 27  1  0  0  0  0
 21 22  2  0  0  0  0
 22 26  1  0  0  0  0
 23 25  1  0  0  0  0
 26 25  1  0  0  0  0
 26 24  2  0  0  0  0
 27 23  2  0  0  0  0
 28 22  1  0  0  0  0
 28 29  1  0  0  0  0
 29 20  1  1  0  0  0
 29 24  1  0  0  0  0
M  END
>  <MODEL>
3

>  <REMARK>
 VINA RESULT:      -8.6      2.799      4.349
  Name = 
  3 active torsions:
  status: ('A' for Active; 'I' for Inactive)
    1  A    between atoms: C_9  and  C_13
    2  A    between atoms: C_13  and  N_20
    3  A    between atoms: N_20  and  C_29
                            x       y       z     vdW  Elec       q    Type
                         _______ _______ _______ _____ _____    ______ ____

>  <TORSDO>
F 3

$$$$
=
 OpenBabel11042411013D

 29 34  0  0  1  0  0  0  0  0999 V2000
  187.0310  178.1270  143.4560 C   0  0  0  0  0  0  0  0  0  0  0  0
  188.3400  177.8300  143.5060 N   0  0  0  0  0  0  0  0  0  0  0  0
  191.3070  175.7660  143.5030 C   0  0  0  0  0  3  0  0  0  0  0  0
  189.0480  176.7640  144.1820 C   0  0  1  0  0  3  0  0  0  0  0  0
  189.1240  178.0420  146.3330 O   0  0  0  0  0  1  0  0  0  0  0  0
  184.7730  178.2320  144.1370 N   0  0  0  0  0  0  0  0  0  0  0  0
  187.7850  178.2800  141.3620 C   0  0  1  0  0  3  0  0  0  0  0  0
  185.3310  178.6510  141.8250 C   0  0  0  0  0  3  0  0  0  0  0  0
  190.0440  176.3880  143.1170 C   0  0  1  0  0  3  0  0  0  0  0  0
  191.0130  176.7480  145.6890 C   0  0  0  0  0  0  0  0  0  0  0  0
  191.6530  177.0840  146.9150 N   0  0  0  0  0  1  0  0  0  0  0  0
  189.8740  177.0070  141.9870 N   0  0  0  0  0  2  0  0  0  0  0  0
  189.7730  177.2150  145.4230 C   0  0  0  0  0  0  0  0  0  0  0  0
  186.6630  178.4390  142.1650 C   0  0  0  0  0  0  0  0  0  0  0  0
  188.7750  177.8690  142.2450 C   0  0  2  0  0  3  0  0  0  0  0  0
  184.3860  178.5590  142.8640 C   0  0  0  0  0  3  0  0  0  0  0  0
  191.7250  175.9360  144.7250 N   0  0  0  0  0  0  0  0  0  0  0  0
  186.0790  177.9900  144.4590 C   0  0  0  0  0  3  0  0  0  0  0  0
  187.8110  178.1550  139.8760 C   0  0  0  0  0  2  0  0  0  0  0  0
  188.8160  179.0510  139.3270 N   0  0  0  0  0  2  0  0  0  0  0  0
  187.4650  175.7360  136.0150 C   0  0  0  0  0  3  0  0  0  0  0  0
  187.9820  176.7670  136.6840 C   0  0  0  0  0  0  0  0  0  0  0  0
  186.1740  177.2700  134.5940 C   0  0  0  0  0  3  0  0  0  0  0  0
  188.2090  179.0360  137.0150 N   0  0  0  0  0  0  0  0  0  0  0  0
  186.7200  178.3560  135.3040 O   0  0  0  0  0  0  0  0  0  0  0  0
  187.6300  178.1120  136.3350 C   0  0  0  0  0  0  0  0  0  0  0  0
  186.5120  176.0050  134.9090 C   0  0  0  0  0  3  0  0  0  0  0  0
  189.1250  176.6920  138.0360 S   0  0  0  0  0  0  0  0  0  0  0  0
  189.1620  178.5390  138.0140 C   0  0  2  0  0  3  0  0  0  0  0  0
  1  2  1  0  0  0  0
  1 18  1  0  0  0  0
  2  4  1  0  0  0  0
  3 17  2  0  0  0  0
  4 13  1  1  0  0  0
  6 18  2  0  0  0  0
  7 19  1  6  0  0  0
  7 14  1  0  0  0  0
  7 15  1  0  0  0  0
  8 14  1  0  0  0  0
  8 16  2  0  0  0  0
  9  3  1  1  0  0  0
  9  4  1  0  0  0  0
 10 11  1  0  0  0  0
 12  9  1  0  0  0  0
 13 10  2  0  0  0  0
 13  5  1  0  0  0  0
 14  1  2  0  0  0  0
 15 12  1  6  0  0  0
 15  2  1  0  0  0  0
 16  6  1  0  0  0  0
 17 10  1  0  0  0  0
 20 19  1  0  0  0  0
 21 22  2  0  0  0  0
 22 28  1  0  0  0  0
 23 27  2  0  0  0  0
 23 25  1  0  0  0  0
 24 29  1  0  0  0  0
 25 26  1  0  0  0  0
 26 22  1  0  0  0  0
 26 24  2  0  0  0  0
 27 21  1  0  0  0  0
 29 28  1  0  0  0  0
 29 20  1  1  0  0  0
M  END
>  <MODEL>
4

>  <REMARK>
 VINA RESULT:      -8.6      3.309      4.121
  Name = 
  3 active torsions:
  status: ('A' for Active; 'I' for Inactive)
    1  A    between atoms: C_9  and  C_13
    2  A    between atoms: C_13  and  N_20
    3  A    between atoms: N_20  and  C_29
                            x       y       z     vdW  Elec       q    Type
                         _______ _______ _______ _____ _____    ______ ____

>  <TORSDO>
F 3

$$$$
=
 OpenBabel11042411013D

 29 34  0  0  1  0  0  0  0  0999 V2000
  186.9280  178.1630  143.3760 C   0  0  0  0  0  0  0  0  0  0  0  0
  188.2370  177.8680  143.3710 N   0  0  0  0  0  0  0  0  0  0  0  0
  191.2040  175.8090  143.2180 C   0  0  0  0  0  3  0  0  0  0  0  0
  188.9720  176.7910  144.0010 C   0  0  1  0  0  3  0  0  0  0  0  0
  189.1300  178.0330  146.1690 O   0  0  0  0  0  1  0  0  0  0  0  0
  184.6980  178.2530  144.1460 N   0  0  0  0  0  0  0  0  0  0  0  0
  187.6000  178.3520  141.2580 C   0  0  1  0  0  3  0  0  0  0  0  0
  185.1650  178.7110  141.8220 C   0  0  0  0  0  3  0  0  0  0  0  0
  189.9270  176.4350  142.8920 C   0  0  1  0  0  3  0  0  0  0  0  0
  190.9940  176.7530  145.4300 C   0  0  0  0  0  0  0  0  0  0  0  0
  191.6800  177.0700  146.6370 N   0  0  0  0  0  1  0  0  0  0  0  0
  189.7120  177.0730  141.7800 N   0  0  0  0  0  2  0  0  0  0  0  0
  189.7450  177.2230  145.2210 C   0  0  0  0  0  0  0  0  0  0  0  0
  186.5090  178.4960  142.1070 C   0  0  0  0  0  0  0  0  0  0  0  0
  188.6240  177.9280  142.0950 C   0  0  2  0  0  3  0  0  0  0  0  0
  184.2610  178.6000  142.8940 C   0  0  0  0  0  3  0  0  0  0  0  0
  191.6690  175.9590  144.4260 N   0  0  0  0  0  0  0  0  0  0  0  0
  186.0150  178.0080  144.4140 C   0  0  0  0  0  3  0  0  0  0  0  0
  187.5690  178.2530  139.7700 C   0  0  0  0  0  2  0  0  0  0  0  0
  188.8230  178.7390  139.2200 N   0  0  0  0  0  2  0  0  0  0  0  0
  190.0340  174.4640  137.2100 C   0  0  0  0  0  3  0  0  0  0  0  0
  189.5870  175.6900  137.4830 C   0  0  0  0  0  0  0  0  0  0  0  0
  187.7390  173.6890  136.7950 C   0  0  0  0  0  3  0  0  0  0  0  0
  187.8600  177.2050  137.6600 N   0  0  0  0  0  0  0  0  0  0  0  0
  187.2700  174.9840  137.0850 O   0  0  0  0  0  0  0  0  0  0  0  0
  188.1870  175.9860  137.4150 C   0  0  0  0  0  0  0  0  0  0  0  0
  189.0550  173.4090  136.8440 C   0  0  0  0  0  3  0  0  0  0  0  0
  190.5580  177.0970  137.9470 S   0  0  0  0  0  0  0  0  0  0  0  0
  188.9980  178.0880  137.9350 C   0  0  2  0  0  3  0  0  0  0  0  0
  1 18  1  0  0  0  0
  2  1  1  0  0  0  0
  2  4  1  0  0  0  0
  3 17  2  0  0  0  0
  4 13  1  1  0  0  0
  6 18  2  0  0  0  0
  7 19  1  6  0  0  0
  7 15  1  0  0  0  0
  7 14  1  0  0  0  0
  8 14  1  0  0  0  0
  8 16  2  0  0  0  0
  9  3  1  1  0  0  0
  9  4  1  0  0  0  0
 10 11  1  0  0  0  0
 12  9  1  0  0  0  0
 13 10  2  0  0  0  0
 13  5  1  0  0  0  0
 14  1  2  0  0  0  0
 15 12  1  6  0  0  0
 15  2  1  0  0  0  0
 16  6  1  0  0  0  0
 17 10  1  0  0  0  0
 20 19  1  0  0  0  0
 21 22  2  0  0  0  0
 22 28  1  0  0  0  0
 23 27  2  0  0  0  0
 23 25  1  0  0  0  0
 24 29  1  0  0  0  0
 25 26  1  0  0  0  0
 26 22  1  0  0  0  0
 26 24  2  0  0  0  0
 27 21  1  0  0  0  0
 29 28  1  0  0  0  0
 29 20  1  1  0  0  0
M  END
>  <MODEL>
5

>  <REMARK>
 VINA RESULT:      -8.5      3.736      5.038
  Name = 
  3 active torsions:
  status: ('A' for Active; 'I' for Inactive)
    1  A    between atoms: C_9  and  C_13
    2  A    between atoms: C_13  and  N_20
    3  A    between atoms: N_20  and  C_29
                            x       y       z     vdW  Elec       q    Type
                         _______ _______ _______ _____ _____    ______ ____

>  <TORSDO>
F 3

$$$$
=
 OpenBabel11042411013D

 29 34  0  0  1  0  0  0  0  0999 V2000
  183.2440  178.5550  141.8210 C   0  0  0  0  0  0  0  0  0  0  0  0
  184.4510  178.2340  141.3270 N   0  0  0  0  0  0  0  0  0  0  0  0
  187.7660  178.7580  139.9850 C   0  0  0  0  0  3  0  0  0  0  0  0
  185.2180  178.8100  140.2430 C   0  0  1  0  0  3  0  0  0  0  0  0
  184.0100  177.4420  138.5290 O   0  0  0  0  0  1  0  0  0  0  0  0
  181.0410  179.4020  141.8650 N   0  0  0  0  0  0  0  0  0  0  0  0
  184.5840  178.2730  143.5830 C   0  0  1  0  0  3  0  0  0  0  0  0
  182.1900  178.9900  143.9480 C   0  0  0  0  0  3  0  0  0  0  0  0
  186.5940  178.7980  140.8540 C   0  0  1  0  0  3  0  0  0  0  0  0
  186.3460  177.8160  138.2750 C   0  0  0  0  0  0  0  0  0  0  0  0
  186.3150  177.1210  137.0330 N   0  0  0  0  0  1  0  0  0  0  0  0
  186.6200  178.4240  142.0990 N   0  0  0  0  0  2  0  0  0  0  0  0
  185.2100  177.9730  138.9890 C   0  0  0  0  0  0  0  0  0  0  0  0
  183.2790  178.5570  143.1980 C   0  0  0  0  0  0  0  0  0  0  0  0
  185.2620  178.1200  142.3810 C   0  0  2  0  0  3  0  0  0  0  0  0
  181.0480  179.3970  143.2350 C   0  0  0  0  0  3  0  0  0  0  0  0
  187.6120  178.3100  138.7710 N   0  0  0  0  0  0  0  0  0  0  0  0
  182.1260  179.0090  141.1320 C   0  0  0  0  0  3  0  0  0  0  0  0
  185.1920  178.5070  144.9240 C   0  0  0  0  0  2  0  0  0  0  0  0
  186.1640  177.4650  145.2090 N   0  0  0  0  0  2  0  0  0  0  0  0
  190.4240  176.6520  147.4400 C   0  0  0  0  0  3  0  0  0  0  0  0
  189.4010  177.1250  146.7280 C   0  0  0  0  0  0  0  0  0  0  0  0
  191.7680  176.4040  145.3970 C   0  0  0  0  0  3  0  0  0  0  0  0
  188.4830  177.7720  144.7160 N   0  0  0  0  0  0  0  0  0  0  0  0
  190.6850  176.9010  144.6480 O   0  0  0  0  0  0  0  0  0  0  0  0
  189.5100  177.2740  145.3070 C   0  0  0  0  0  0  0  0  0  0  0  0
  191.6750  176.2740  146.7350 C   0  0  0  0  0  3  0  0  0  0  0  0
  187.8190  177.6290  147.3450 S   0  0  0  0  0  0  0  0  0  0  0  0
  187.3860  178.1310  145.6200 C   0  0  2  0  0  3  0  0  0  0  0  0
  1 14  1  0  0  0  0
  2  1  1  0  0  0  0
  2 15  1  0  0  0  0
  4 13  1  6  0  0  0
  4  9  1  0  0  0  0
  4  2  1  0  0  0  0
  5 13  1  0  0  0  0
  6 16  2  0  0  0  0
  7 19  1  6  0  0  0
  9  3  1  6  0  0  0
  9 12  1  0  0  0  0
 10 17  1  0  0  0  0
 10 13  2  0  0  0  0
 11 10  1  0  0  0  0
 14  7  1  0  0  0  0
 14  8  2  0  0  0  0
 15 12  1  6  0  0  0
 15  7  1  0  0  0  0
 16  8  1  0  0  0  0
 17  3  2  0  0  0  0
 18  1  2  0  0  0  0
 18  6  1  0  0  0  0
 19 20  1  0  0  0  0
 22 28  1  0  0  0  0
 22 21  2  0  0  0  0
 23 27  2  0  0  0  0
 24 26  2  0  0  0  0
 24 29  1  0  0  0  0
 25 26  1  0  0  0  0
 25 23  1  0  0  0  0
 26 22  1  0  0  0  0
 27 21  1  0  0  0  0
 29 20  1  6  0  0  0
 29 28  1  0  0  0  0
M  END
>  <MODEL>
6

>  <REMARK>
 VINA RESULT:      -8.5      2.850      7.772
  Name = 
  3 active torsions:
  status: ('A' for Active; 'I' for Inactive)
    1  A    between atoms: C_9  and  C_13
    2  A    between atoms: C_13  and  N_20
    3  A    between atoms: N_20  and  C_29
                            x       y       z     vdW  Elec       q    Type
                         _______ _______ _______ _____ _____    ______ ____

>  <TORSDO>
F 3

$$$$
=
 OpenBabel11042411013D

 29 34  0  0  1  0  0  0  0  0999 V2000
  187.2270  177.9050  146.2560 C   0  0  0  0  0  0  0  0  0  0  0  0
  186.4110  177.9220  145.1910 N   0  0  0  0  0  0  0  0  0  0  0  0
  184.7340  179.2560  142.2790 C   0  0  0  0  0  3  0  0  0  0  0  0
  185.5070  178.9420  144.7010 C   0  0  1  0  0  3  0  0  0  0  0  0
  183.6810  178.2050  146.2470 O   0  0  0  0  0  1  0  0  0  0  0  0
  188.0480  178.4390  148.4040 N   0  0  0  0  0  0  0  0  0  0  0  0
  188.4230  177.1200  144.5450 C   0  0  1  0  0  3  0  0  0  0  0  0
  189.5210  177.3920  146.8030 C   0  0  0  0  0  3  0  0  0  0  0  0
  185.7700  178.8430  143.2220 C   0  0  1  0  0  3  0  0  0  0  0  0
  183.1220  178.8880  144.0380 C   0  0  0  0  0  0  0  0  0  0  0  0
  181.7410  178.7150  144.3410 N   0  0  0  0  0  1  0  0  0  0  0  0
  186.7340  178.0310  142.9050 N   0  0  0  0  0  2  0  0  0  0  0  0
  184.0560  178.6450  144.9820 C   0  0  0  0  0  0  0  0  0  0  0  0
  188.4560  177.3900  145.9080 C   0  0  0  0  0  0  0  0  0  0  0  0
  187.1460  177.5040  144.1570 C   0  0  2  0  0  3  0  0  0  0  0  0
  189.2750  177.9180  148.0840 C   0  0  0  0  0  3  0  0  0  0  0  0
  183.5020  179.2870  142.6990 N   0  0  0  0  0  0  0  0  0  0  0  0
  187.0150  178.4670  147.5100 C   0  0  0  0  0  3  0  0  0  0  0  0
  189.5930  176.8910  143.6500 C   0  0  0  0  0  2  0  0  0  0  0  0
  189.1290  176.5300  142.3200 N   0  0  0  0  0  2  0  0  0  0  0  0
  190.1100  177.3030  137.6060 C   0  0  0  0  0  3  0  0  0  0  0  0
  189.8570  177.3970  138.9120 C   0  0  0  0  0  0  0  0  0  0  0  0
  188.0460  178.5320  137.0880 C   0  0  0  0  0  3  0  0  0  0  0  0
  188.5470  178.1430  140.6550 N   0  0  0  0  0  0  0  0  0  0  0  0
  187.7800  178.6270  138.4670 O   0  0  0  0  0  0  0  0  0  0  0  0
  188.6840  178.0760  139.3780 C   0  0  0  0  0  0  0  0  0  0  0  0
  189.1530  177.9070  136.6440 C   0  0  0  0  0  3  0  0  0  0  0  0
  190.8410  176.7530  140.2350 S   0  0  0  0  0  0  0  0  0  0  0  0
  189.6480  177.5340  141.4090 C   0  0  2  0  0  3  0  0  0  0  0  0
  1 18  1  0  0  0  0
  2  1  1  0  0  0  0
  3 17  2  0  0  0  0
  4 13  1  6  0  0  0
  4  2  1  0  0  0  0
  7 19  1  6  0  0  0
  7 14  1  0  0  0  0
  8 16  2  0  0  0  0
  9  3  1  6  0  0  0
  9  4  1  0  0  0  0
 10 11  1  0  0  0  0
 10 13  2  0  0  0  0
 12  9  1  0  0  0  0
 13  5  1  0  0  0  0
 14  1  2  0  0  0  0
 14  8  1  0  0  0  0
 15 12  1  6  0  0  0
 15  7  1  0  0  0  0
 15  2  1  0  0  0  0
 16  6  1  0  0  0  0
 17 10  1  0  0  0  0
 18  6  2  0  0  0  0
 20 19  1  0  0  0  0
 21 22  2  0  0  0  0
 22 26  1  0  0  0  0
 22 28  1  0  0  0  0
 23 25  1  0  0  0  0
 24 29  1  0  0  0  0
 25 26  1  0  0  0  0
 26 24  2  0  0  0  0
 27 23  2  0  0  0  0
 27 21  1  0  0  0  0
 28 29  1  0  0  0  0
 29 20  1  1  0  0  0
M  END
>  <MODEL>
7

>  <REMARK>
 VINA RESULT:      -8.4      3.511      6.097
  Name = 
  3 active torsions:
  status: ('A' for Active; 'I' for Inactive)
    1  A    between atoms: C_9  and  C_13
    2  A    between atoms: C_13  and  N_20
    3  A    between atoms: N_20  and  C_29
                            x       y       z     vdW  Elec       q    Type
                         _______ _______ _______ _____ _____    ______ ____

>  <TORSDO>
F 3

$$$$
=
 OpenBabel11042411013D

 29 34  0  0  1  0  0  0  0  0999 V2000
  188.9240  177.6240  143.5210 C   0  0  0  0  0  0  0  0  0  0  0  0
  189.3480  177.7260  142.2510 N   0  0  0  0  0  0  0  0  0  0  0  0
  190.1150  176.6630  138.8830 C   0  0  0  0  0  3  0  0  0  0  0  0
  190.1410  176.8280  141.4380 C   0  0  1  0  0  3  0  0  0  0  0  0
  192.2870  177.7290  142.3610 O   0  0  0  0  0  1  0  0  0  0  0  0
  188.9010  176.9490  145.7830 N   0  0  0  0  0  0  0  0  0  0  0  0
  187.1660  178.3100  142.3320 C   0  0  1  0  0  3  0  0  0  0  0  0
  186.8920  177.8600  144.8020 C   0  0  0  0  0  3  0  0  0  0  0  0
  189.4050  176.9320  140.1290 C   0  0  1  0  0  3  0  0  0  0  0  0
  192.1650  177.1690  140.0520 C   0  0  0  0  0  0  0  0  0  0  0  0
  193.5450  177.4900  139.9090 N   0  0  0  0  0  1  0  0  0  0  0  0
  188.3140  177.6360  140.1870 N   0  0  0  0  0  2  0  0  0  0  0  0
  191.5680  177.2810  141.2590 C   0  0  0  0  0  0  0  0  0  0  0  0
  187.6040  178.0040  143.6150 C   0  0  0  0  0  0  0  0  0  0  0  0
  188.2800  178.0830  141.5340 C   0  0  2  0  0  3  0  0  0  0  0  0
  187.5920  177.3350  145.9030 C   0  0  0  0  0  3  0  0  0  0  0  0
  191.4140  176.7620  138.8840 N   0  0  0  0  0  0  0  0  0  0  0  0
  189.5860  177.0600  144.6060 C   0  0  0  0  0  3  0  0  0  0  0  0
  185.7520  178.4260  141.8730 C   0  0  0  0  0  2  0  0  0  0  0  0
  185.6430  179.4900  140.8890 N   0  0  0  0  0  2  0  0  0  0  0  0
  180.9480  178.8610  139.7280 C   0  0  0  0  0  3  0  0  0  0  0  0
  182.2740  179.0010  139.7450 C   0  0  0  0  0  0  0  0  0  0  0  0
  180.7220  180.8910  138.3620 C   0  0  0  0  0  3  0  0  0  0  0  0
  184.1830  180.1190  139.1030 N   0  0  0  0  0  0  0  0  0  0  0  0
  182.1220  181.0370  138.3830 O   0  0  0  0  0  0  0  0  0  0  0  0
  182.8990  180.0920  139.0580 C   0  0  0  0  0  0  0  0  0  0  0  0
  180.1300  179.8600  138.9940 C   0  0  0  0  0  3  0  0  0  0  0  0
  183.4440  177.9470  140.5540 S   0  0  0  0  0  0  0  0  0  0  0  0
  184.7820  178.9950  139.8300 C   0  0  2  0  0  3  0  0  0  0  0  0
  1 14  2  0  0  0  0
  1 18  1  0  0  0  0
  2  1  1  0  0  0  0
  3 17  2  0  0  0  0
  4 13  1  6  0  0  0
  4  2  1  0  0  0  0
  6 16  1  0  0  0  0
  7 19  1  6  0  0  0
  7 14  1  0  0  0  0
  8 16  2  0  0  0  0
  9  3  1  6  0  0  0
  9 12  1  0  0  0  0
  9  4  1  0  0  0  0
 10 13  2  0  0  0  0
 11 10  1  0  0  0  0
 13  5  1  0  0  0  0
 14  8  1  0  0  0  0
 15 12  1  6  0  0  0
 15  2  1  0  0  0  0
 15  7  1  0  0  0  0
 17 10  1  0  0  0  0
 18  6  2  0  0  0  0
 20 19  1  0  0  0  0
 21 22  2  0  0  0  0
 22 28  1  0  0  0  0
 23 25  1  0  0  0  0
 23 27  2  0  0  0  0
 24 29  1  0  0  0  0
 25 26  1  0  0  0  0
 26 24  2  0  0  0  0
 26 22  1  0  0  0  0
 27 21  1  0  0  0  0
 29 28  1  0  0  0  0
 29 20  1  1  0  0  0
M  END
>  <MODEL>
8

>  <REMARK>
 VINA RESULT:      -8.3      2.307      3.118
  Name = 
  3 active torsions:
  status: ('A' for Active; 'I' for Inactive)
    1  A    between atoms: C_9  and  C_13
    2  A    between atoms: C_13  and  N_20
    3  A    between atoms: N_20  and  C_29
                            x       y       z     vdW  Elec       q    Type
                         _______ _______ _______ _____ _____    ______ ____

>  <TORSDO>
F 3

$$$$
=
 OpenBabel11042411013D

 29 34  0  0  1  0  0  0  0  0999 V2000
  189.0590  177.0800  144.6990 C   0  0  0  0  0  0  0  0  0  0  0  0
  187.8690  177.3610  144.1450 N   0  0  0  0  0  0  0  0  0  0  0  0
  185.3000  179.3480  142.5580 C   0  0  0  0  0  3  0  0  0  0  0  0
  187.0070  178.5160  144.2770 C   0  0  1  0  0  3  0  0  0  0  0  0
  185.9650  177.6240  146.3710 O   0  0  0  0  0  1  0  0  0  0  0  0
  190.8160  177.1280  146.2750 N   0  0  0  0  0  0  0  0  0  0  0  0
  189.2410  176.5600  142.5380 C   0  0  1  0  0  3  0  0  0  0  0  0
  191.2520  176.3120  144.0460 C   0  0  0  0  0  3  0  0  0  0  0  0
  186.5700  178.6880  142.8470 C   0  0  1  0  0  3  0  0  0  0  0  0
  184.5970  178.7590  144.7910 C   0  0  0  0  0  0  0  0  0  0  0  0
  183.4850  178.6280  145.6710 N   0  0  0  0  0  1  0  0  0  0  0  0
  187.1600  177.8880  142.0100 N   0  0  0  0  0  2  0  0  0  0  0  0
  185.8040  178.2730  145.1520 C   0  0  0  0  0  0  0  0  0  0  0  0
  189.9140  176.5580  143.7530 C   0  0  0  0  0  0  0  0  0  0  0  0
  187.9980  177.1000  142.8420 C   0  0  2  0  0  3  0  0  0  0  0  0
  191.6800  176.5950  145.3550 C   0  0  0  0  0  3  0  0  0  0  0  0
  184.4010  179.3830  143.5000 N   0  0  0  0  0  0  0  0  0  0  0  0
  189.5110  177.4010  145.9740 C   0  0  0  0  0  3  0  0  0  0  0  0
  189.8450  176.4280  141.1810 C   0  0  0  0  0  2  0  0  0  0  0  0
  190.4490  177.6900  140.7880 N   0  0  0  0  0  2  0  0  0  0  0  0
  187.5520  176.0630  137.2190 C   0  0  0  0  0  3  0  0  0  0  0  0
  188.3850  176.7450  138.0050 C   0  0  0  0  0  0  0  0  0  0  0  0
  185.8990  177.8780  137.3500 C   0  0  0  0  0  3  0  0  0  0  0  0
  188.9090  178.6310  139.2210 N   0  0  0  0  0  0  0  0  0  0  0  0
  186.7800  178.5930  138.1820 O   0  0  0  0  0  0  0  0  0  0  0  0
  188.0230  178.0400  138.5000 C   0  0  0  0  0  0  0  0  0  0  0  0
  186.2400  176.6660  136.8710 C   0  0  0  0  0  3  0  0  0  0  0  0
  189.9870  176.2300  138.5560 S   0  0  0  0  0  0  0  0  0  0  0  0
  190.1550  177.8750  139.3790 C   0  0  2  0  0  3  0  0  0  0  0  0
  1 18  1  0  0  0  0
  2  4  1  0  0  0  0
  2  1  1  0  0  0  0
  3 17  2  0  0  0  0
  4 13  1  1  0  0  0
  7 19  1  6  0  0  0
  7 15  1  0  0  0  0
  7 14  1  0  0  0  0
  8 16  2  0  0  0  0
  9  3  1  1  0  0  0
  9  4  1  0  0  0  0
 10 13  2  0  0  0  0
 10 11  1  0  0  0  0
 12  9  1  0  0  0  0
 13  5  1  0  0  0  0
 14  8  1  0  0  0  0
 14  1  2  0  0  0  0
 15 12  1  6  0  0  0
 15  2  1  0  0  0  0
 16  6  1  0  0  0  0
 17 10  1  0  0  0  0
 18  6  2  0  0  0  0
 20 19  1  0  0  0  0
 21 22  2  0  0  0  0
 22 26  1  0  0  0  0
 22 28  1  0  0  0  0
 23 25  1  0  0  0  0
 24 29  1  0  0  0  0
 25 26  1  0  0  0  0
 26 24  2  0  0  0  0
 27 21  1  0  0  0  0
 27 23  2  0  0  0  0
 28 29  1  0  0  0  0
 29 20  1  1  0  0  0
M  END
>  <MODEL>
9

>  <REMARK>
 VINA RESULT:      -8.3      3.281      5.625
  Name = 
  3 active torsions:
  status: ('A' for Active; 'I' for Inactive)
    1  A    between atoms: C_9  and  C_13
    2  A    between atoms: C_13  and  N_20
    3  A    between atoms: N_20  and  C_29
                            x       y       z     vdW  Elec       q    Type
                         _______ _______ _______ _____ _____    ______ ____

>  <TORSDO>
F 3

$$$$
