=
 OpenBabel11042413083D

 32 35  0  0  1  0  0  0  0  0999 V2000
  183.4700  178.6170  142.8670 C   0  0  0  0  0  0  0  0  0  0  0  0
  187.9620  177.7770  146.2340 C   0  0  0  0  0  0  0  0  0  0  0  0
  185.2910  178.4600  145.5140 C   0  0  0  0  0  0  0  0  0  0  0  0
  190.5910  176.0970  143.2720 C   0  0  0  0  0  1  0  0  0  0  0  0
  187.7430  178.1890  144.8000 C   0  0  1  0  0  3  0  0  0  0  0  0
  189.7600  176.8270  144.2720 C   0  0  0  0  0  0  0  0  0  0  0  0
  189.2900  177.2940  146.6340 C   0  0  0  0  0  3  0  0  0  0  0  0
  183.9020  178.8960  145.3550 C   0  0  0  0  0  3  0  0  0  0  0  0
  188.6110  177.3790  143.8650 C   0  0  0  0  0  3  0  0  0  0  0  0
  183.1520  178.9650  144.2610 C   0  0  0  0  0  2  0  0  0  0  0  0
  185.9790  178.2320  143.1170 C   0  0  0  0  0  3  0  0  0  0  0  0
  187.0220  177.8940  147.1200 N   0  0  0  0  0  0  0  0  0  0  0  0
  185.6900  178.3010  146.7800 C   0  0  0  0  0  2  0  0  0  0  0  0
  190.1620  176.8750  145.7050 C   0  0  0  0  0  0  0  0  0  0  0  0
  184.6930  178.3240  142.4190 C   0  0  0  0  0  3  0  0  0  0  0  0
  186.2760  178.2540  144.4200 C   0  0  0  0  0  0  0  0  0  0  0  0
  182.5290  178.7580  140.4780 C   0  0  1  0  0  3  0  0  0  0  0  0
  180.3030  178.7540  140.9340 C   0  0  1  0  0  3  0  0  0  0  0  0
  181.2590  179.0460  139.9350 O   0  0  0  0  0  0  0  0  0  0  0  0
  180.9990  178.6960  142.2730 C   0  0  0  0  0  2  0  0  0  0  0  0
  182.3870  178.6350  141.9160 N   0  0  0  0  0  0  0  0  0  0  0  0
  179.2790  179.7830  140.9580 N   0  0  0  0  0  2  0  0  0  0  0  0
  179.4360  180.5170  142.2010 C   0  0  0  0  0  1  0  0  0  0  0  0
  183.0630  177.4560  139.8930 C   0  0  0  0  0  2  0  0  0  0  0  0
  183.7910  177.7130  138.5850 C   0  0  0  0  0  2  0  0  0  0  0  0
  185.0940  178.4410  138.8500 C   0  0  2  0  0  3  0  0  0  0  0  0
  184.8490  179.8130  138.9230 O   0  0  0  0  0  1  0  0  0  0  0  0
  186.0850  178.1630  137.7310 C   0  0  0  0  0  2  0  0  0  0  0  0
  187.7470  177.8930  138.4150 S   0  0  0  0  0  0  0  0  0  0  0  0
  188.5480  178.6720  136.9840 C   0  0  0  0  0  1  0  0  0  0  0  0
  192.0180  176.7550  147.1990 O   0  0  0  0  0  0  0  0  0  0  0  0
  191.4920  176.3960  146.1120 C   0  0  0  0  0  3  0  0  0  0  0  0
  1 10  1  0  0  0  0
  2  7  1  0  0  0  0
  2 12  2  0  0  0  0
  3 13  1  0  0  0  0
  4  6  1  0  0  0  0
  5  9  1  6  0  0  0
  5  2  1  0  0  0  0
  6 14  1  0  0  0  0
  8  3  2  0  0  0  0
  9  6  2  0  0  0  0
 10  8  1  0  0  0  0
 11 16  2  0  0  0  0
 13 12  1  0  0  0  0
 14 32  1  0  0  0  0
 14  7  2  0  0  0  0
 15  1  2  0  0  0  0
 15 11  1  0  0  0  0
 16  5  1  0  0  0  0
 16  3  1  0  0  0  0
 17 24  1  6  0  0  0
 17 21  1  0  0  0  0
 18 22  1  1  0  0  0
 18 20  1  0  0  0  0
 19 17  1  0  0  0  0
 19 18  1  0  0  0  0
 21 20  1  0  0  0  0
 21  1  1  0  0  0  0
 22 23  1  0  0  0  0
 25 26  1  0  0  0  0
 25 24  1  0  0  0  0
 26 27  1  6  0  0  0
 28 29  1  0  0  0  0
 28 26  1  0  0  0  0
 30 29  1  0  0  0  0
 32 31  2  0  0  0  0
M  END
>  <MODEL>
1

>  <REMARK>
 VINA RESULT:      -9.4      0.000      0.000
  Name = 
  8 active torsions:
  status: ('A' for Active; 'I' for Inactive)
    1  A    between atoms: C_1  and  N_25
    2  A    between atoms: C_5  and  C_31
    3  A    between atoms: S_7  and  C_17
    4  A    between atoms: C_9  and  N_27
    5  A    between atoms: C_14  and  C_28
    6  A    between atoms: C_16  and  C_17
    7  A    between atoms: C_16  and  C_20
    8  A    between atoms: C_20  and  C_31
                            x       y       z     vdW  Elec       q    Type
                         _______ _______ _______ _____ _____    ______ ____

>  <TORSDO>
F 8

$$$$
=
 OpenBabel11042413083D

 32 35  0  0  1  0  0  0  0  0999 V2000
  188.1450  177.4760  145.2650 C   0  0  0  0  0  0  0  0  0  0  0  0
  183.1580  178.8700  142.9390 C   0  0  0  0  0  0  0  0  0  0  0  0
  185.0680  178.3750  144.9950 C   0  0  0  0  0  0  0  0  0  0  0  0
  184.4170  178.8400  138.8260 C   0  0  0  0  0  1  0  0  0  0  0  0
  184.3110  177.9700  142.5740 C   0  0  1  0  0  3  0  0  0  0  0  0
  183.9210  178.6940  140.2230 C   0  0  0  0  0  0  0  0  0  0  0  0
  182.2100  179.2630  141.8870 C   0  0  0  0  0  3  0  0  0  0  0  0
  185.8710  178.1280  146.1940 C   0  0  0  0  0  3  0  0  0  0  0  0
  184.7560  178.2080  141.1490 C   0  0  0  0  0  3  0  0  0  0  0  0
  187.1410  177.7520  146.3040 C   0  0  0  0  0  2  0  0  0  0  0  0
  186.6240  177.5430  143.2190 C   0  0  0  0  0  3  0  0  0  0  0  0
  182.9630  179.2520  144.1630 N   0  0  0  0  0  0  0  0  0  0  0  0
  183.8830  178.9530  145.2200 C   0  0  0  0  0  2  0  0  0  0  0  0
  182.5520  179.1480  140.5960 C   0  0  0  0  0  0  0  0  0  0  0  0
  187.8780  177.3810  143.9600 C   0  0  0  0  0  3  0  0  0  0  0  0
  185.4240  177.9850  143.6050 C   0  0  0  0  0  0  0  0  0  0  0  0
  190.6600  177.1700  144.8280 C   0  0  1  0  0  3  0  0  0  0  0  0
  191.3730  176.7380  146.9420 C   0  0  1  0  0  3  0  0  0  0  0  0
  191.7340  176.6440  145.5790 O   0  0  0  0  0  0  0  0  0  0  0  0
  189.8790  176.9220  147.0410 C   0  0  0  0  0  2  0  0  0  0  0  0
  189.5020  177.2540  145.6970 N   0  0  0  0  0  0  0  0  0  0  0  0
  191.7670  175.5290  147.6440 N   0  0  0  0  0  2  0  0  0  0  0  0
  192.9620  175.8440  148.4060 C   0  0  0  0  0  1  0  0  0  0  0  0
  191.0200  178.5550  144.3040 C   0  0  0  0  0  2  0  0  0  0  0  0
  190.8780  178.6110  142.7920 C   0  0  0  0  0  2  0  0  0  0  0  0
  191.2620  177.2760  142.1850 C   0  0  2  0  0  3  0  0  0  0  0  0
  192.3800  177.4460  141.3670 O   0  0  0  0  0  1  0  0  0  0  0  0
  190.1090  176.7280  141.3590 C   0  0  0  0  0  2  0  0  0  0  0  0
  190.1370  177.4430  139.6890 S   0  0  0  0  0  0  0  0  0  0  0  0
  188.4670  178.1300  139.8700 C   0  0  0  0  0  1  0  0  0  0  0  0
  180.8230  180.5230  139.6950 O   0  0  0  0  0  0  0  0  0  0  0  0
  181.5970  179.5390  139.5480 C   0  0  0  0  0  3  0  0  0  0  0  0
  1 21  1  0  0  0  0
  1 10  1  0  0  0  0
  2 12  2  0  0  0  0
  3 13  1  0  0  0  0
  3  8  2  0  0  0  0
  4  6  1  0  0  0  0
  5  9  1  6  0  0  0
  5  2  1  0  0  0  0
  5 16  1  0  0  0  0
  6 14  1  0  0  0  0
  6  9  2  0  0  0  0
  7  2  1  0  0  0  0
  8 10  1  0  0  0  0
 11 16  2  0  0  0  0
 11 15  1  0  0  0  0
 12 13  1  0  0  0  0
 14  7  2  0  0  0  0
 15  1  2  0  0  0  0
 16  3  1  0  0  0  0
 17 24  1  1  0  0  0
 17 19  1  0  0  0  0
 17 21  1  0  0  0  0
 18 20  1  0  0  0  0
 18 22  1  1  0  0  0
 19 18  1  0  0  0  0
 21 20  1  0  0  0  0
 22 23  1  0  0  0  0
 25 24  1  0  0  0  0
 26 27  1  6  0  0  0
 26 25  1  0  0  0  0
 28 26  1  0  0  0  0
 29 30  1  0  0  0  0
 29 28  1  0  0  0  0
 32 31  2  0  0  0  0
 32 14  1  0  0  0  0
M  END
>  <MODEL>
2

>  <REMARK>
 VINA RESULT:      -9.1      2.099      8.220
  Name = 
  8 active torsions:
  status: ('A' for Active; 'I' for Inactive)
    1  A    between atoms: C_1  and  N_25
    2  A    between atoms: C_5  and  C_31
    3  A    between atoms: S_7  and  C_17
    4  A    between atoms: C_9  and  N_27
    5  A    between atoms: C_14  and  C_28
    6  A    between atoms: C_16  and  C_17
    7  A    between atoms: C_16  and  C_20
    8  A    between atoms: C_20  and  C_31
                            x       y       z     vdW  Elec       q    Type
                         _______ _______ _______ _____ _____    ______ ____

>  <TORSDO>
F 8

$$$$
=
 OpenBabel11042413083D

 32 35  0  0  1  0  0  0  0  0999 V2000
  190.2110  177.4240  143.5470 C   0  0  0  0  0  0  0  0  0  0  0  0
  189.5660  177.6070  137.9100 C   0  0  0  0  0  0  0  0  0  0  0  0
  190.9070  177.3210  140.4080 C   0  0  0  0  0  0  0  0  0  0  0  0
  185.2800  177.9750  137.8360 C   0  0  0  0  0  1  0  0  0  0  0  0
  188.9060  178.2590  139.0990 C   0  0  1  0  0  3  0  0  0  0  0  0
  186.7700  178.0160  137.8410 C   0  0  0  0  0  0  0  0  0  0  0  0
  188.8600  177.6130  136.6220 C   0  0  0  0  0  3  0  0  0  0  0  0
  191.7890  177.1860  141.5690 C   0  0  0  0  0  3  0  0  0  0  0  0
  187.4010  178.1450  139.0140 C   0  0  0  0  0  3  0  0  0  0  0  0
  191.5010  177.2330  142.8650 C   0  0  0  0  0  3  0  0  0  0  0  0
  188.7810  178.0300  141.5240 C   0  0  0  0  0  3  0  0  0  0  0  0
  190.7550  177.0980  137.9950 N   0  0  0  0  0  0  0  0  0  0  0  0
  191.4680  177.0080  139.2350 C   0  0  0  0  0  2  0  0  0  0  0  0
  187.5400  177.8420  136.5780 C   0  0  0  0  0  0  0  0  0  0  0  0
  189.0770  177.7780  142.9370 C   0  0  0  0  0  2  0  0  0  0  0  0
  189.5090  177.8260  140.4220 C   0  0  0  0  0  0  0  0  0  0  0  0
  189.2980  177.9450  145.8940 C   0  0  1  0  0  3  0  0  0  0  0  0
  190.7130  176.6870  147.1500 C   0  0  1  0  0  3  0  0  0  0  0  0
  189.7820  177.7500  147.2050 O   0  0  0  0  0  0  0  0  0  0  0  0
  191.1510  176.4940  145.7190 C   0  0  0  0  0  2  0  0  0  0  0  0
  190.1860  177.2550  144.9780 N   0  0  0  0  0  0  0  0  0  0  0  0
  191.8660  176.9940  147.9790 N   0  0  0  0  0  2  0  0  0  0  0  0
  192.6740  175.7900  148.0520 C   0  0  0  0  0  1  0  0  0  0  0  0
  187.8860  177.3860  145.7710 C   0  0  0  0  0  2  0  0  0  0  0  0
  186.9310  178.1320  146.6880 C   0  0  0  0  0  2  0  0  0  0  0  0
  185.8450  178.8030  145.8710 C   0  0  2  0  0  3  0  0  0  0  0  0
  184.6250  178.6810  146.5370 O   0  0  0  0  0  1  0  0  0  0  0  0
  185.7420  178.1490  144.5020 C   0  0  0  0  0  2  0  0  0  0  0  0
  184.2830  178.7740  143.6150 S   0  0  0  0  0  0  0  0  0  0  0  0
  185.2690  179.2400  142.1630 C   0  0  0  0  0  1  0  0  0  0  0  0
  186.4260  176.7870  134.7510 O   0  0  0  0  0  0  0  0  0  0  0  0
  186.8410  177.8500  135.2840 C   0  0  0  0  0  3  0  0  0  0  0  0
  1 21  1  0  0  0  0
  2 12  2  0  0  0  0
  2  5  1  0  0  0  0
  3 16  1  0  0  0  0
  3  8  2  0  0  0  0
  4  6  1  0  0  0  0
  5  9  1  1  0  0  0
  5 16  1  0  0  0  0
  6  9  2  0  0  0  0
  7  2  1  0  0  0  0
  8 10  1  0  0  0  0
 10  1  2  0  0  0  0
 11 15  1  0  0  0  0
 12 13  1  0  0  0  0
 13  3  1  0  0  0  0
 14  7  2  0  0  0  0
 14  6  1  0  0  0  0
 15  1  1  0  0  0  0
 16 11  2  0  0  0  0
 17 24  1  1  0  0  0
 17 19  1  0  0  0  0
 18 19  1  0  0  0  0
 18 22  1  1  0  0  0
 20 18  1  0  0  0  0
 21 20  1  0  0  0  0
 21 17  1  0  0  0  0
 22 23  1  0  0  0  0
 24 25  1  0  0  0  0
 26 27  1  1  0  0  0
 26 25  1  0  0  0  0
 28 26  1  0  0  0  0
 29 28  1  0  0  0  0
 30 29  1  0  0  0  0
 31 32  2  0  0  0  0
 32 14  1  0  0  0  0
M  END
>  <MODEL>
3

>  <REMARK>
 VINA RESULT:      -8.9      3.931      9.066
  Name = 
  8 active torsions:
  status: ('A' for Active; 'I' for Inactive)
    1  A    between atoms: C_1  and  N_25
    2  A    between atoms: C_5  and  C_31
    3  A    between atoms: S_7  and  C_17
    4  A    between atoms: C_9  and  N_27
    5  A    between atoms: C_14  and  C_28
    6  A    between atoms: C_16  and  C_17
    7  A    between atoms: C_16  and  C_20
    8  A    between atoms: C_20  and  C_31
                            x       y       z     vdW  Elec       q    Type
                         _______ _______ _______ _____ _____    ______ ____

>  <TORSDO>
F 8

$$$$
=
 OpenBabel11042413083D

 32 35  0  0  1  0  0  0  0  0999 V2000
  183.6620  178.6160  143.0080 C   0  0  0  0  0  0  0  0  0  0  0  0
  188.1020  177.7390  146.4360 C   0  0  0  0  0  0  0  0  0  0  0  0
  185.4400  178.4220  145.6820 C   0  0  0  0  0  0  0  0  0  0  0  0
  190.7880  176.1230  143.4900 C   0  0  0  0  0  1  0  0  0  0  0  0
  187.9050  178.1750  145.0050 C   0  0  1  0  0  3  0  0  0  0  0  0
  189.9370  176.8310  144.4870 C   0  0  0  0  0  0  0  0  0  0  0  0
  189.4260  177.2560  146.8490 C   0  0  0  0  0  3  0  0  0  0  0  0
  184.0520  178.8540  145.5080 C   0  0  0  0  0  3  0  0  0  0  0  0
  188.7930  177.3850  144.0700 C   0  0  0  0  0  3  0  0  0  0  0  0
  183.3200  178.9390  144.4020 C   0  0  0  0  0  2  0  0  0  0  0  0
  186.1690  178.2380  143.2940 C   0  0  0  0  0  3  0  0  0  0  0  0
  187.1460  177.8360  147.3070 N   0  0  0  0  0  0  0  0  0  0  0  0
  185.8180  178.2430  146.9520 C   0  0  0  0  0  2  0  0  0  0  0  0
  190.3150  176.8570  145.9280 C   0  0  0  0  0  0  0  0  0  0  0  0
  184.8950  178.3370  142.5760 C   0  0  0  0  0  3  0  0  0  0  0  0
  186.4440  178.2400  144.6010 C   0  0  0  0  0  0  0  0  0  0  0  0
  182.7610  178.5750  140.6000 C   0  0  1  0  0  3  0  0  0  0  0  0
  180.5470  178.8880  141.0080 C   0  0  1  0  0  3  0  0  0  0  0  0
  181.5370  178.9410  140.0000 O   0  0  0  0  0  0  0  0  0  0  0  0
  181.2220  178.9120  142.3580 C   0  0  0  0  0  2  0  0  0  0  0  0
  182.5950  178.6460  142.0400 N   0  0  0  0  0  0  0  0  0  0  0  0
  179.6520  180.0260  140.8860 N   0  0  0  0  0  2  0  0  0  0  0  0
  179.5020  180.5970  142.2130 C   0  0  0  0  0  1  0  0  0  0  0  0
  183.1390  177.1580  140.1880 C   0  0  0  0  0  2  0  0  0  0  0  0
  182.7750  176.9050  138.7350 C   0  0  0  0  0  2  0  0  0  0  0  0
  182.5500  175.4230  138.5070 C   0  0  2  0  0  3  0  0  0  0  0  0
  183.6810  174.8730  137.9030 O   0  0  0  0  0  1  0  0  0  0  0  0
  181.3420  175.2110  137.6070 C   0  0  0  0  0  2  0  0  0  0  0  0
  179.8320  175.7890  138.4370 S   0  0  0  0  0  0  0  0  0  0  0  0
  179.5890  174.1960  139.2740 C   0  0  0  0  0  1  0  0  0  0  0  0
  192.0820  176.5920  147.5090 O   0  0  0  0  0  0  0  0  0  0  0  0
  191.6400  176.3780  146.3490 C   0  0  0  0  0  3  0  0  0  0  0  0
  1 10  1  0  0  0  0
  2  7  1  0  0  0  0
  2 12  2  0  0  0  0
  3 13  1  0  0  0  0
  4  6  1  0  0  0  0
  5  9  1  6  0  0  0
  5  2  1  0  0  0  0
  6 14  1  0  0  0  0
  8  3  2  0  0  0  0
  9  6  2  0  0  0  0
 10  8  1  0  0  0  0
 11 16  2  0  0  0  0
 13 12  1  0  0  0  0
 14 32  1  0  0  0  0
 14  7  2  0  0  0  0
 15  1  2  0  0  0  0
 15 11  1  0  0  0  0
 16  5  1  0  0  0  0
 16  3  1  0  0  0  0
 17 24  1  1  0  0  0
 17 21  1  0  0  0  0
 18 22  1  1  0  0  0
 18 20  1  0  0  0  0
 19 17  1  0  0  0  0
 19 18  1  0  0  0  0
 21 20  1  0  0  0  0
 21  1  1  0  0  0  0
 22 23  1  0  0  0  0
 25 24  1  0  0  0  0
 26 27  1  6  0  0  0
 26 25  1  0  0  0  0
 28 29  1  0  0  0  0
 28 26  1  0  0  0  0
 29 30  1  0  0  0  0
 32 31  2  0  0  0  0
M  END
>  <MODEL>
4

>  <REMARK>
 VINA RESULT:      -8.9      2.122      2.796
  Name = 
  8 active torsions:
  status: ('A' for Active; 'I' for Inactive)
    1  A    between atoms: C_1  and  N_25
    2  A    between atoms: C_5  and  C_31
    3  A    between atoms: S_7  and  C_17
    4  A    between atoms: C_9  and  N_27
    5  A    between atoms: C_14  and  C_28
    6  A    between atoms: C_16  and  C_17
    7  A    between atoms: C_16  and  C_20
    8  A    between atoms: C_20  and  C_31
                            x       y       z     vdW  Elec       q    Type
                         _______ _______ _______ _____ _____    ______ ____

>  <TORSDO>
F 8

$$$$
=
 OpenBabel11042413083D

 32 35  0  0  1  0  0  0  0  0999 V2000
  189.2310  177.4510  139.7010 C   0  0  0  0  0  0  0  0  0  0  0  0
  190.1220  177.4330  145.3080 C   0  0  0  0  0  0  0  0  0  0  0  0
  190.7550  177.3210  142.5310 C   0  0  0  0  0  0  0  0  0  0  0  0
  186.1030  178.3630  146.5280 C   0  0  0  0  0  1  0  0  0  0  0  0
  189.0040  177.0160  144.3850 C   0  0  1  0  0  3  0  0  0  0  0  0
  187.4570  177.8780  146.1370 C   0  0  0  0  0  0  0  0  0  0  0  0
  189.8240  177.6300  146.7320 C   0  0  0  0  0  3  0  0  0  0  0  0
  191.2860  177.1940  141.1730 C   0  0  0  0  0  3  0  0  0  0  0  0
  187.6790  177.5740  144.8530 C   0  0  0  0  0  3  0  0  0  0  0  0
  190.6550  177.2430  140.0050 C   0  0  0  0  0  3  0  0  0  0  0  0
  188.2940  177.2880  142.0680 C   0  0  0  0  0  3  0  0  0  0  0  0
  191.3380  177.5640  144.8760 N   0  0  0  0  0  0  0  0  0  0  0  0
  191.6800  177.4440  143.4890 C   0  0  0  0  0  2  0  0  0  0  0  0
  188.5580  177.8060  147.1380 C   0  0  0  0  0  0  0  0  0  0  0  0
  188.2540  177.4490  140.6110 C   0  0  0  0  0  2  0  0  0  0  0  0
  189.3210  177.2580  142.9220 C   0  0  0  0  0  0  0  0  0  0  0  0
  187.5400  177.4380  137.7630 C   0  0  1  0  0  3  0  0  0  0  0  0
  188.9300  177.9140  136.0300 C   0  0  1  0  0  3  0  0  0  0  0  0
  187.6540  177.4040  136.3570 O   0  0  0  0  0  0  0  0  0  0  0  0
  189.8050  177.8660  137.2590 C   0  0  0  0  0  2  0  0  0  0  0  0
  188.8670  177.6290  138.3180 N   0  0  0  0  0  0  0  0  0  0  0  0
  189.5280  177.1190  134.9710 N   0  0  0  0  0  2  0  0  0  0  0  0
  190.3410  176.0980  135.6080 C   0  0  0  0  0  1  0  0  0  0  0  0
  186.6290  178.5850  138.1840 C   0  0  0  0  0  2  0  0  0  0  0  0
  185.2020  178.0990  138.3670 C   0  0  0  0  0  2  0  0  0  0  0  0
  184.4670  179.0000  139.3400 C   0  0  2  0  0  3  0  0  0  0  0  0
  184.4280  180.2970  138.8280 O   0  0  0  0  0  1  0  0  0  0  0  0
  185.1790  179.0070  140.6830 C   0  0  0  0  0  2  0  0  0  0  0  0
  184.1170  178.2700  141.9610 S   0  0  0  0  0  0  0  0  0  0  0  0
  184.8090  179.3320  143.2600 C   0  0  0  0  0  1  0  0  0  0  0  0
  187.6290  177.1390  149.2310 O   0  0  0  0  0  0  0  0  0  0  0  0
  188.2660  177.9990  148.5660 C   0  0  0  0  0  3  0  0  0  0  0  0
  1 10  2  0  0  0  0
  1 15  1  0  0  0  0
  2  7  1  0  0  0  0
  3 16  1  0  0  0  0
  3 13  1  0  0  0  0
  5  9  1  1  0  0  0
  5  2  1  0  0  0  0
  6  4  1  0  0  0  0
  6 14  1  0  0  0  0
  7 14  2  0  0  0  0
  8  3  2  0  0  0  0
  9  6  2  0  0  0  0
 10  8  1  0  0  0  0
 11 16  2  0  0  0  0
 12  2  2  0  0  0  0
 13 12  1  0  0  0  0
 14 32  1  0  0  0  0
 15 11  1  0  0  0  0
 16  5  1  0  0  0  0
 17 24  1  6  0  0  0
 17 21  1  0  0  0  0
 18 22  1  6  0  0  0
 18 19  1  0  0  0  0
 18 20  1  0  0  0  0
 19 17  1  0  0  0  0
 20 21  1  0  0  0  0
 21  1  1  0  0  0  0
 22 23  1  0  0  0  0
 24 25  1  0  0  0  0
 25 26  1  0  0  0  0
 26 27  1  6  0  0  0
 26 28  1  0  0  0  0
 28 29  1  0  0  0  0
 29 30  1  0  0  0  0
 32 31  2  0  0  0  0
M  END
>  <MODEL>
5

>  <REMARK>
 VINA RESULT:      -8.6      3.339      6.222
  Name = 
  8 active torsions:
  status: ('A' for Active; 'I' for Inactive)
    1  A    between atoms: C_1  and  N_25
    2  A    between atoms: C_5  and  C_31
    3  A    between atoms: S_7  and  C_17
    4  A    between atoms: C_9  and  N_27
    5  A    between atoms: C_14  and  C_28
    6  A    between atoms: C_16  and  C_17
    7  A    between atoms: C_16  and  C_20
    8  A    between atoms: C_20  and  C_31
                            x       y       z     vdW  Elec       q    Type
                         _______ _______ _______ _____ _____    ______ ____

>  <TORSDO>
F 8

$$$$
=
 OpenBabel11042413083D

 32 35  0  0  1  0  0  0  0  0999 V2000
  182.4560  178.4020  141.4660 C   0  0  0  0  0  0  0  0  0  0  0  0
  186.2980  178.2710  145.6430 C   0  0  0  0  0  0  0  0  0  0  0  0
  183.7850  178.7250  144.3780 C   0  0  0  0  0  0  0  0  0  0  0  0
  189.4300  176.2700  143.4770 C   0  0  0  0  0  1  0  0  0  0  0  0
  186.3280  178.4500  144.1460 C   0  0  1  0  0  3  0  0  0  0  0  0
  188.4260  177.1080  144.1920 C   0  0  0  0  0  0  0  0  0  0  0  0
  187.5420  177.9090  146.3350 C   0  0  0  0  0  3  0  0  0  0  0  0
  182.4400  179.0740  143.9170 C   0  0  0  0  0  3  0  0  0  0  0  0
  187.3590  177.5440  143.5120 C   0  0  0  0  0  3  0  0  0  0  0  0
  181.8940  178.9450  142.7130 C   0  0  0  0  0  2  0  0  0  0  0  0
  184.8870  178.1630  142.2000 C   0  0  0  0  0  3  0  0  0  0  0  0
  185.2150  178.4820  146.3250 N   0  0  0  0  0  0  0  0  0  0  0  0
  183.9580  178.7770  145.7020 C   0  0  0  0  0  2  0  0  0  0  0  0
  188.5690  177.3900  145.6470 C   0  0  0  0  0  0  0  0  0  0  0  0
  183.7430  178.0950  141.2860 C   0  0  0  0  0  3  0  0  0  0  0  0
  184.9500  178.3960  143.5140 C   0  0  0  0  0  0  0  0  0  0  0  0
  180.8530  179.2970  139.6650 C   0  0  1  0  0  3  0  0  0  0  0  0
  180.1530  177.3350  138.7570 C   0  0  1  0  0  3  0  0  0  0  0  0
  179.8540  178.7120  138.8580 O   0  0  0  0  0  0  0  0  0  0  0  0
  181.1040  176.9590  139.8680 C   0  0  0  0  0  2  0  0  0  0  0  0
  181.5570  178.2310  140.3530 N   0  0  0  0  0  0  0  0  0  0  0  0
  178.9340  176.5520  138.8690 N   0  0  0  0  0  2  0  0  0  0  0  0
  179.3290  175.1670  139.0560 C   0  0  0  0  0  1  0  0  0  0  0  0
  181.8250  180.0890  138.7990 C   0  0  0  0  0  2  0  0  0  0  0  0
  181.3690  181.5320  138.6610 C   0  0  0  0  0  2  0  0  0  0  0  0
  180.3470  181.6480  137.5470 C   0  0  2  0  0  3  0  0  0  0  0  0
  180.9200  181.2240  136.3490 O   0  0  0  0  0  1  0  0  0  0  0  0
  179.8910  183.0920  137.4060 C   0  0  0  0  0  2  0  0  0  0  0  0
  181.3290  184.1930  137.2590 S   0  0  0  0  0  0  0  0  0  0  0  0
  180.8970  184.6590  135.5580 C   0  0  0  0  0  1  0  0  0  0  0  0
  189.8740  176.9890  147.6040 O   0  0  0  0  0  0  0  0  0  0  0  0
  189.8130  177.0350  146.3460 C   0  0  0  0  0  3  0  0  0  0  0  0
  1 10  1  0  0  0  0
  2 12  2  0  0  0  0
  2  7  1  0  0  0  0
  3 13  1  0  0  0  0
  4  6  1  0  0  0  0
  5  9  1  6  0  0  0
  5  2  1  0  0  0  0
  6 14  1  0  0  0  0
  8  3  2  0  0  0  0
  9  6  2  0  0  0  0
 10  8  1  0  0  0  0
 11 16  2  0  0  0  0
 13 12  1  0  0  0  0
 14  7  2  0  0  0  0
 14 32  1  0  0  0  0
 15  1  2  0  0  0  0
 15 11  1  0  0  0  0
 16  5  1  0  0  0  0
 16  3  1  0  0  0  0
 17 24  1  6  0  0  0
 17 21  1  0  0  0  0
 18 19  1  0  0  0  0
 18 22  1  1  0  0  0
 18 20  1  0  0  0  0
 19 17  1  0  0  0  0
 20 21  1  0  0  0  0
 21  1  1  0  0  0  0
 22 23  1  0  0  0  0
 25 24  1  0  0  0  0
 26 27  1  6  0  0  0
 26 25  1  0  0  0  0
 28 26  1  0  0  0  0
 29 28  1  0  0  0  0
 30 29  1  0  0  0  0
 32 31  2  0  0  0  0
M  END
>  <MODEL>
6

>  <REMARK>
 VINA RESULT:      -8.5      3.074      3.812
  Name = 
  8 active torsions:
  status: ('A' for Active; 'I' for Inactive)
    1  A    between atoms: C_1  and  N_25
    2  A    between atoms: C_5  and  C_31
    3  A    between atoms: S_7  and  C_17
    4  A    between atoms: C_9  and  N_27
    5  A    between atoms: C_14  and  C_28
    6  A    between atoms: C_16  and  C_17
    7  A    between atoms: C_16  and  C_20
    8  A    between atoms: C_20  and  C_31
                            x       y       z     vdW  Elec       q    Type
                         _______ _______ _______ _____ _____    ______ ____

>  <TORSDO>
F 8

$$$$
=
 OpenBabel11042413083D

 32 35  0  0  1  0  0  0  0  0999 V2000
  183.8500  178.6400  141.9450 C   0  0  0  0  0  0  0  0  0  0  0  0
  189.1770  177.7840  143.7120 C   0  0  0  0  0  0  0  0  0  0  0  0
  187.0570  178.3860  141.9050 C   0  0  0  0  0  0  0  0  0  0  0  0
  188.3230  177.3330  147.9040 C   0  0  0  0  0  1  0  0  0  0  0  0
  187.8120  177.2650  144.0890 C   0  0  1  0  0  3  0  0  0  0  0  0
  188.6210  177.3200  146.4440 C   0  0  0  0  0  0  0  0  0  0  0  0
  190.2830  177.6140  144.6630 C   0  0  0  0  0  3  0  0  0  0  0  0
  186.1250  178.6720  140.8120 C   0  0  0  0  0  3  0  0  0  0  0  0
  187.5960  177.3410  145.5830 C   0  0  0  0  0  3  0  0  0  0  0  0
  184.8000  178.7720  140.8290 C   0  0  0  0  0  3  0  0  0  0  0  0
  185.4540  177.7750  143.7290 C   0  0  0  0  0  3  0  0  0  0  0  0
  189.3960  178.3210  142.5520 N   0  0  0  0  0  0  0  0  0  0  0  0
  188.3470  178.5690  141.6070 C   0  0  0  0  0  2  0  0  0  0  0  0
  190.0270  177.3580  145.9540 C   0  0  0  0  0  0  0  0  0  0  0  0
  184.1690  178.1960  143.1630 C   0  0  0  0  0  2  0  0  0  0  0  0
  186.6980  177.8610  143.2490 C   0  0  0  0  0  0  0  0  0  0  0  0
  181.8720  179.1170  140.3730 C   0  0  1  0  0  3  0  0  0  0  0  0
  180.2830  179.6680  141.9010 C   0  0  1  0  0  3  0  0  0  0  0  0
  180.6180  179.7440  140.5300 O   0  0  0  0  0  0  0  0  0  0  0  0
  181.5350  179.3770  142.6940 C   0  0  0  0  0  2  0  0  0  0  0  0
  182.4730  178.9760  141.6850 N   0  0  0  0  0  0  0  0  0  0  0  0
  179.7040  180.9250  142.3420 N   0  0  0  0  0  2  0  0  0  0  0  0
  178.9340  181.4560  141.2320 C   0  0  0  0  0  1  0  0  0  0  0  0
  181.6920  177.7460  139.7310 C   0  0  0  0  0  2  0  0  0  0  0  0
  182.5320  177.6280  138.4710 C   0  0  0  0  0  2  0  0  0  0  0  0
  182.4510  176.2160  137.9240 C   0  0  2  0  0  3  0  0  0  0  0  0
  182.4350  175.3110  138.9860 O   0  0  0  0  0  1  0  0  0  0  0  0
  183.6500  175.9310  137.0340 C   0  0  0  0  0  2  0  0  0  0  0  0
  184.8890  177.2480  137.2090 S   0  0  0  0  0  0  0  0  0  0  0  0
  185.3900  177.1160  135.4690 C   0  0  0  0  0  1  0  0  0  0  0  0
  192.1630  176.5140  146.6000 O   0  0  0  0  0  0  0  0  0  0  0  0
  191.1400  177.1850  146.9010 C   0  0  0  0  0  3  0  0  0  0  0  0
  1 15  1  0  0  0  0
  2  5  1  0  0  0  0
  2  7  1  0  0  0  0
  3 16  1  0  0  0  0
  5  9  1  1  0  0  0
  6  4  1  0  0  0  0
  7 14  2  0  0  0  0
  8 10  1  0  0  0  0
  8  3  2  0  0  0  0
  9  6  2  0  0  0  0
 10  1  2  0  0  0  0
 12  2  2  0  0  0  0
 13  3  1  0  0  0  0
 13 12  1  0  0  0  0
 14  6  1  0  0  0  0
 14 32  1  0  0  0  0
 15 11  1  0  0  0  0
 16 11  2  0  0  0  0
 16  5  1  0  0  0  0
 17 24  1  1  0  0  0
 17 19  1  0  0  0  0
 17 21  1  0  0  0  0
 18 22  1  1  0  0  0
 18 20  1  0  0  0  0
 19 18  1  0  0  0  0
 21  1  1  0  0  0  0
 21 20  1  0  0  0  0
 23 22  1  0  0  0  0
 25 24  1  0  0  0  0
 26 25  1  0  0  0  0
 26 27  1  1  0  0  0
 28 29  1  0  0  0  0
 28 26  1  0  0  0  0
 30 29  1  0  0  0  0
 31 32  2  0  0  0  0
M  END
>  <MODEL>
7

>  <REMARK>
 VINA RESULT:      -8.4      2.000      2.876
  Name = 
  8 active torsions:
  status: ('A' for Active; 'I' for Inactive)
    1  A    between atoms: C_1  and  N_25
    2  A    between atoms: C_5  and  C_31
    3  A    between atoms: S_7  and  C_17
    4  A    between atoms: C_9  and  N_27
    5  A    between atoms: C_14  and  C_28
    6  A    between atoms: C_16  and  C_17
    7  A    between atoms: C_16  and  C_20
    8  A    between atoms: C_20  and  C_31
                            x       y       z     vdW  Elec       q    Type
                         _______ _______ _______ _____ _____    ______ ____

>  <TORSDO>
F 8

$$$$
=
 OpenBabel11042413083D

 32 35  0  0  1  0  0  0  0  0999 V2000
  187.8620  177.6660  144.7460 C   0  0  0  0  0  0  0  0  0  0  0  0
  182.6620  178.9830  142.8860 C   0  0  0  0  0  0  0  0  0  0  0  0
  184.7470  178.4730  144.7610 C   0  0  0  0  0  0  0  0  0  0  0  0
  183.5820  179.1520  138.6880 C   0  0  0  0  0  1  0  0  0  0  0  0
  183.8090  178.1360  142.3940 C   0  0  1  0  0  3  0  0  0  0  0  0
  183.2060  178.9360  140.1140 C   0  0  0  0  0  0  0  0  0  0  0  0
  181.6210  179.3840  141.9320 C   0  0  0  0  0  3  0  0  0  0  0  0
  185.6530  178.2070  145.8810 C   0  0  0  0  0  3  0  0  0  0  0  0
  184.1280  178.4430  140.9490 C   0  0  0  0  0  3  0  0  0  0  0  0
  186.9380  177.8690  145.8730 C   0  0  0  0  0  2  0  0  0  0  0  0
  186.1780  177.7610  142.8330 C   0  0  0  0  0  3  0  0  0  0  0  0
  182.5560  179.3110  144.1370 N   0  0  0  0  0  0  0  0  0  0  0  0
  183.5680  179.0020  145.1030 C   0  0  0  0  0  2  0  0  0  0  0  0
  181.8590  179.3300  140.6130 C   0  0  0  0  0  0  0  0  0  0  0  0
  187.4930  177.6130  143.4640 C   0  0  0  0  0  3  0  0  0  0  0  0
  185.0010  178.1480  143.3320 C   0  0  0  0  0  0  0  0  0  0  0  0
  190.1960  176.6990  144.2710 C   0  0  1  0  0  3  0  0  0  0  0  0
  191.2950  177.4010  146.1320 C   0  0  1  0  0  3  0  0  0  0  0  0
  191.3550  176.4930  145.0500 O   0  0  0  0  0  0  0  0  0  0  0  0
  189.8750  177.8870  146.2840 C   0  0  0  0  0  2  0  0  0  0  0  0
  189.2550  177.4730  145.0590 N   0  0  0  0  0  0  0  0  0  0  0  0
  191.7240  176.7450  147.3550 N   0  0  0  0  0  2  0  0  0  0  0  0
  192.4060  175.5220  146.9700 C   0  0  0  0  0  1  0  0  0  0  0  0
  190.5540  177.4540  142.9960 C   0  0  0  0  0  2  0  0  0  0  0  0
  190.2600  176.6080  141.7690 C   0  0  0  0  0  2  0  0  0  0  0  0
  190.0540  177.5000  140.5610 C   0  0  2  0  0  3  0  0  0  0  0  0
  188.7350  177.3810  140.1200 O   0  0  0  0  0  1  0  0  0  0  0  0
  191.0000  177.0910  139.4430 C   0  0  0  0  0  2  0  0  0  0  0  0
  190.1350  177.1230  137.8450 S   0  0  0  0  0  0  0  0  0  0  0  0
  190.3410  175.3350  137.6090 C   0  0  0  0  0  1  0  0  0  0  0  0
  180.3920  180.9160  139.6020 O   0  0  0  0  0  0  0  0  0  0  0  0
  180.8110  179.7290  139.6630 C   0  0  0  0  0  3  0  0  0  0  0  0
  1 21  1  0  0  0  0
  1 10  1  0  0  0  0
  2 12  2  0  0  0  0
  3 13  1  0  0  0  0
  3  8  2  0  0  0  0
  4  6  1  0  0  0  0
  5  9  1  6  0  0  0
  5  2  1  0  0  0  0
  5 16  1  0  0  0  0
  6 14  1  0  0  0  0
  6  9  2  0  0  0  0
  7  2  1  0  0  0  0
 10  8  1  0  0  0  0
 11 16  2  0  0  0  0
 11 15  1  0  0  0  0
 12 13  1  0  0  0  0
 14  7  2  0  0  0  0
 15  1  2  0  0  0  0
 16  3  1  0  0  0  0
 17 24  1  6  0  0  0
 17 19  1  0  0  0  0
 17 21  1  0  0  0  0
 18 20  1  0  0  0  0
 18 22  1  1  0  0  0
 19 18  1  0  0  0  0
 21 20  1  0  0  0  0
 23 22  1  0  0  0  0
 25 24  1  0  0  0  0
 26 27  1  6  0  0  0
 26 25  1  0  0  0  0
 28 26  1  0  0  0  0
 29 28  1  0  0  0  0
 30 29  1  0  0  0  0
 31 32  2  0  0  0  0
 32 14  1  0  0  0  0
M  END
>  <MODEL>
8

>  <REMARK>
 VINA RESULT:      -8.3      2.103      8.010
  Name = 
  8 active torsions:
  status: ('A' for Active; 'I' for Inactive)
    1  A    between atoms: C_1  and  N_25
    2  A    between atoms: C_5  and  C_31
    3  A    between atoms: S_7  and  C_17
    4  A    between atoms: C_9  and  N_27
    5  A    between atoms: C_14  and  C_28
    6  A    between atoms: C_16  and  C_17
    7  A    between atoms: C_16  and  C_20
    8  A    between atoms: C_20  and  C_31
                            x       y       z     vdW  Elec       q    Type
                         _______ _______ _______ _____ _____    ______ ____

>  <TORSDO>
F 8

$$$$
=
 OpenBabel11042413083D

 32 35  0  0  1  0  0  0  0  0999 V2000
  190.6920  177.1570  139.8370 C   0  0  0  0  0  0  0  0  0  0  0  0
  187.8440  177.8220  144.7040 C   0  0  0  0  0  0  0  0  0  0  0  0
  188.2910  177.7710  141.8890 C   0  0  0  0  0  0  0  0  0  0  0  0
  190.9220  176.4220  147.3630 C   0  0  0  0  0  1  0  0  0  0  0  0
  189.2750  177.9820  144.2520 C   0  0  1  0  0  3  0  0  0  0  0  0
  189.9070  177.0640  146.4800 C   0  0  0  0  0  0  0  0  0  0  0  0
  187.5660  177.7150  146.1410 C   0  0  0  0  0  3  0  0  0  0  0  0
  188.3190  177.8500  140.4270 C   0  0  0  0  0  3  0  0  0  0  0  0
  190.2230  177.2790  145.1970 C   0  0  0  0  0  3  0  0  0  0  0  0
  189.3120  177.6010  139.5810 C   0  0  0  0  0  3  0  0  0  0  0  0
  190.7180  177.3960  142.3760 C   0  0  0  0  0  3  0  0  0  0  0  0
  186.8650  177.8340  143.8530 N   0  0  0  0  0  0  0  0  0  0  0  0
  187.0750  177.8750  142.4360 C   0  0  0  0  0  2  0  0  0  0  0  0
  188.5480  177.3910  146.9950 C   0  0  0  0  0  0  0  0  0  0  0  0
  191.2560  177.0980  141.0460 C   0  0  0  0  0  2  0  0  0  0  0  0
  189.4730  177.6570  142.7840 C   0  0  0  0  0  0  0  0  0  0  0  0
  191.0180  176.1160  137.5080 C   0  0  1  0  0  3  0  0  0  0  0  0
  193.2650  176.3700  137.2800 C   0  0  1  0  0  3  0  0  0  0  0  0
  192.1410  175.6790  136.7740 O   0  0  0  0  0  0  0  0  0  0  0  0
  192.9230  176.9280  138.6400 C   0  0  0  0  0  2  0  0  0  0  0  0
  191.4960  176.8000  138.6960 N   0  0  0  0  0  0  0  0  0  0  0  0
  194.3960  175.4660  137.3910 N   0  0  0  0  0  2  0  0  0  0  0  0
  193.8610  174.1310  137.5910 C   0  0  0  0  0  1  0  0  0  0  0  0
  190.1800  177.0660  136.6620 C   0  0  0  0  0  2  0  0  0  0  0  0
  189.0740  176.3120  135.9430 C   0  0  0  0  0  2  0  0  0  0  0  0
  188.4430  175.3000  136.8800 C   0  0  2  0  0  3  0  0  0  0  0  0
  188.5080  174.0330  136.3010 O   0  0  0  0  0  1  0  0  0  0  0  0
  186.9890  175.6640  137.1380 C   0  0  0  0  0  2  0  0  0  0  0  0
  186.5720  177.2210  136.2980 S   0  0  0  0  0  0  0  0  0  0  0  0
  185.7320  177.8790  137.7660 C   0  0  0  0  0  1  0  0  0  0  0  0
  188.4640  178.2570  149.2160 O   0  0  0  0  0  0  0  0  0  0  0  0
  188.2640  177.2890  148.4340 C   0  0  0  0  0  3  0  0  0  0  0  0
  1 15  1  0  0  0  0
  2  7  1  0  0  0  0
  3 13  1  0  0  0  0
  3 16  1  0  0  0  0
  5  2  1  0  0  0  0
  5  9  1  1  0  0  0
  6 14  1  0  0  0  0
  6  4  1  0  0  0  0
  7 14  2  0  0  0  0
  8  3  2  0  0  0  0
  9  6  2  0  0  0  0
 10  1  2  0  0  0  0
 10  8  1  0  0  0  0
 11 16  2  0  0  0  0
 12  2  2  0  0  0  0
 13 12  1  0  0  0  0
 14 32  1  0  0  0  0
 15 11  1  0  0  0  0
 16  5  1  0  0  0  0
 17 24  1  6  0  0  0
 17 21  1  0  0  0  0
 18 22  1  1  0  0  0
 18 20  1  0  0  0  0
 19 18  1  0  0  0  0
 19 17  1  0  0  0  0
 20 21  1  0  0  0  0
 21  1  1  0  0  0  0
 22 23  1  0  0  0  0
 25 24  1  0  0  0  0
 25 26  1  0  0  0  0
 26 27  1  6  0  0  0
 26 28  1  0  0  0  0
 29 28  1  0  0  0  0
 29 30  1  0  0  0  0
 32 31  2  0  0  0  0
M  END
>  <MODEL>
9

>  <REMARK>
 VINA RESULT:      -8.2      4.383      7.463
  Name = 
  8 active torsions:
  status: ('A' for Active; 'I' for Inactive)
    1  A    between atoms: C_1  and  N_25
    2  A    between atoms: C_5  and  C_31
    3  A    between atoms: S_7  and  C_17
    4  A    between atoms: C_9  and  N_27
    5  A    between atoms: C_14  and  C_28
    6  A    between atoms: C_16  and  C_17
    7  A    between atoms: C_16  and  C_20
    8  A    between atoms: C_20  and  C_31
                            x       y       z     vdW  Elec       q    Type
                         _______ _______ _______ _____ _____    ______ ____

>  <TORSDO>
F 8

$$$$
