=
 OpenBabel11042411543D

 35 39  0  0  1  0  0  0  0  0999 V2000
  185.9810  178.7140  140.8170 C   0  0  0  0  0  0  0  0  0  0  0  0
  187.2020  179.0240  140.7950 O   0  0  0  0  0  0  0  0  0  0  0  0
  184.1970  178.9430  143.7480 C   0  0  0  0  0  3  0  0  0  0  0  0
  183.7240  178.5340  140.2900 N   0  0  0  0  0  0  0  0  0  0  0  0
  185.0380  178.7420  139.6450 C   0  0  2  0  0  3  0  0  0  0  0  0
  185.2690  178.3860  141.9890 N   0  0  0  0  0  0  0  0  0  0  0  0
  183.2270  178.6830  142.7710 C   0  0  0  0  0  3  0  0  0  0  0  0
  183.9940  178.3260  141.6790 C   0  0  0  0  0  0  0  0  0  0  0  0
  185.4380  178.8140  143.2210 N   0  0  0  0  0  0  0  0  0  0  0  0
  180.2290  182.1590  137.2940 C   0  0  0  0  0  1  0  0  0  0  0  0
  181.4790  177.0740  140.2230 O   0  0  0  0  0  1  0  0  0  0  0  0
  179.9900  178.7620  139.3650 C   0  0  1  0  0  0  0  0  0  0  0  0
  179.6680  178.9780  140.7130 O   0  0  0  0  0  1  0  0  0  0  0  0
  178.9310  180.9750  139.3630 O   0  0  0  0  0  1  0  0  0  0  0  0
  180.8480  176.7580  137.6140 C   0  0  0  0  0  2  0  0  0  0  0  0
  179.7050  180.1000  138.5870 C   0  0  1  0  0  3  0  0  0  0  0  0
  182.4970  179.1900  139.8280 C   0  0  2  0  0  3  0  0  0  0  0  0
  181.4460  178.1670  139.3380 C   0  0  1  0  0  0  0  0  0  0  0  0
  179.4560  177.3800  137.5800 C   0  0  0  0  0  2  0  0  0  0  0  0
  180.8140  180.8610  137.8240 C   0  0  0  0  0  0  0  0  0  0  0  0
  181.7850  177.7210  138.0370 O   0  0  0  0  0  0  0  0  0  0  0  0
  181.8720  181.2220  138.6940 O   0  0  0  0  0  0  0  0  0  0  0  0
  181.2340  180.1000  136.5620 C   0  0  0  0  0  1  0  0  0  0  0  0
  182.8470  180.2150  138.7580 C   0  0  0  0  0  2  0  0  0  0  0  0
  179.0840  177.7790  138.8820 O   0  0  0  0  0  0  0  0  0  0  0  0
  185.3400  177.5880  138.7010 C   0  0  0  0  0  2  0  0  0  0  0  0
  186.0230  178.2220  137.1410 S   0  0  0  0  0  0  0  0  0  0  0  0
  186.4900  175.2430  136.7700 O   0  0  0  0  0  1  0  0  0  0  0  0
  188.7060  179.3980  137.9530 O   0  0  0  0  0  1  0  0  0  0  0  0
  188.7350  178.0260  137.7390 C   0  0  0  0  0  0  0  0  0  0  0  0
  187.6270  175.9480  137.1470 C   0  0  0  0  0  0  0  0  0  0  0  0
  189.9350  177.3290  137.9080 C   0  0  0  0  0  3  0  0  0  0  0  0
  189.9870  175.9520  137.6950 C   0  0  0  0  0  3  0  0  0  0  0  0
  187.5710  177.3350  137.3610 C   0  0  0  0  0  0  0  0  0  0  0  0
  188.8330  175.2620  137.3130 C   0  0  0  0  0  3  0  0  0  0  0  0
  1  6  1  0  0  0  0
  2  1  2  0  0  0  0
  4  8  1  0  0  0  0
  5 26  1  6  0  0  0
  5  4  1  0  0  0  0
  5  1  1  0  0  0  0
  6  9  1  0  0  0  0
  7  3  1  0  0  0  0
  8  6  1  0  0  0  0
  8  7  2  0  0  0  0
  9  3  2  0  0  0  0
 10 20  1  0  0  0  0
 12 13  1  1  0  0  0
 15 21  1  0  0  0  0
 16 14  1  1  0  0  0
 16 12  1  0  0  0  0
 17 24  1  6  0  0  0
 17  4  1  0  0  0  0
 18 12  1  0  0  0  0
 18 17  1  0  0  0  0
 18 11  1  1  0  0  0
 19 15  1  0  0  0  0
 19 25  1  0  0  0  0
 20 16  1  0  0  0  0
 20 22  1  0  0  0  0
 21 18  1  0  0  0  0
 22 24  1  0  0  0  0
 23 20  1  0  0  0  0
 25 12  1  0  0  0  0
 27 34  1  0  0  0  0
 27 26  1  0  0  0  0
 28 31  1  0  0  0  0
 30 32  1  0  0  0  0
 30 29  1  0  0  0  0
 31 35  2  0  0  0  0
 31 34  1  0  0  0  0
 33 32  2  0  0  0  0
 34 30  2  0  0  0  0
 35 33  1  0  0  0  0
M  END
>  <MODEL>
1

>  <REMARK>
 VINA RESULT:      -6.1      0.000      0.000
  Name = 
  4 active torsions:
  status: ('A' for Active; 'I' for Inactive)
    1  A    between atoms: C_4  and  C_16
    2  A    between atoms: C_4  and  S_21
    3  A    between atoms: N_15  and  C_17
    4  A    between atoms: S_21  and  C_30
                            x       y       z     vdW  Elec       q    Type
                         _______ _______ _______ _____ _____    ______ ____

>  <TORSDO>
F 4

$$$$
=
 OpenBabel11042411543D

 35 39  0  0  1  0  0  0  0  0999 V2000
  186.0180  178.6640  140.6620 C   0  0  0  0  0  0  0  0  0  0  0  0
  187.2420  178.9570  140.5850 O   0  0  0  0  0  0  0  0  0  0  0  0
  184.3570  178.9780  143.6560 C   0  0  0  0  0  3  0  0  0  0  0  0
  183.7390  178.5050  140.2290 N   0  0  0  0  0  0  0  0  0  0  0  0
  185.0300  178.6820  139.5290 C   0  0  2  0  0  3  0  0  0  0  0  0
  185.3500  178.3700  141.8680 N   0  0  0  0  0  0  0  0  0  0  0  0
  183.3450  178.7120  142.7250 C   0  0  0  0  0  3  0  0  0  0  0  0
  184.0630  178.3210  141.6100 C   0  0  0  0  0  0  0  0  0  0  0  0
  185.5740  178.8210  143.0830 N   0  0  0  0  0  0  0  0  0  0  0  0
  180.1850  182.1750  137.3610 C   0  0  0  0  0  1  0  0  0  0  0  0
  181.4930  177.0480  140.1880 O   0  0  0  0  0  1  0  0  0  0  0  0
  179.9870  178.7480  139.3870 C   0  0  1  0  0  0  0  0  0  0  0  0
  179.6940  178.9450  140.7440 O   0  0  0  0  0  1  0  0  0  0  0  0
  178.9310  180.9610  139.4400 O   0  0  0  0  0  1  0  0  0  0  0  0
  180.8060  176.7700  137.5890 C   0  0  0  0  0  2  0  0  0  0  0  0
  179.6870  180.0980  138.6350 C   0  0  1  0  0  3  0  0  0  0  0  0
  182.5040  179.1680  139.8030 C   0  0  2  0  0  3  0  0  0  0  0  0
  181.4430  178.1530  139.3210 C   0  0  1  0  0  0  0  0  0  0  0  0
  179.4140  177.3930  137.5940 C   0  0  0  0  0  2  0  0  0  0  0  0
  180.7800  180.8700  137.8600 C   0  0  0  0  0  0  0  0  0  0  0  0
  181.7530  177.7260  138.0060 O   0  0  0  0  0  0  0  0  0  0  0  0
  181.8570  181.2170  138.7130 O   0  0  0  0  0  0  0  0  0  0  0  0
  181.1730  180.1270  136.5790 C   0  0  0  0  0  1  0  0  0  0  0  0
  182.8320  180.2090  138.7410 C   0  0  0  0  0  2  0  0  0  0  0  0
  179.0710  177.7730  138.9090 O   0  0  0  0  0  0  0  0  0  0  0  0
  185.2790  177.5050  138.5980 C   0  0  0  0  0  2  0  0  0  0  0  0
  185.9030  178.0980  136.9970 S   0  0  0  0  0  0  0  0  0  0  0  0
  188.5540  179.4520  137.6070 O   0  0  0  0  0  1  0  0  0  0  0  0
  186.4930  175.1190  136.8630 O   0  0  0  0  0  1  0  0  0  0  0  0
  187.6080  175.9010  137.1380 C   0  0  0  0  0  0  0  0  0  0  0  0
  188.6380  178.0680  137.5110 C   0  0  0  0  0  0  0  0  0  0  0  0
  188.8500  175.2870  137.3190 C   0  0  0  0  0  3  0  0  0  0  0  0
  189.9810  176.0540  137.5990 C   0  0  0  0  0  3  0  0  0  0  0  0
  187.4960  177.2990  137.2280 C   0  0  0  0  0  0  0  0  0  0  0  0
  189.8750  177.4430  137.6960 C   0  0  0  0  0  3  0  0  0  0  0  0
  1  6  1  0  0  0  0
  2  1  2  0  0  0  0
  4  8  1  0  0  0  0
  5 26  1  6  0  0  0
  5  4  1  0  0  0  0
  5  1  1  0  0  0  0
  6  9  1  0  0  0  0
  7  3  1  0  0  0  0
  8  6  1  0  0  0  0
  8  7  2  0  0  0  0
  9  3  2  0  0  0  0
 10 20  1  0  0  0  0
 12 13  1  1  0  0  0
 15 19  1  0  0  0  0
 15 21  1  0  0  0  0
 16 12  1  0  0  0  0
 16 14  1  1  0  0  0
 17 24  1  6  0  0  0
 17  4  1  0  0  0  0
 18 12  1  0  0  0  0
 18 17  1  0  0  0  0
 18 11  1  1  0  0  0
 19 25  1  0  0  0  0
 20 16  1  0  0  0  0
 20 22  1  0  0  0  0
 21 18  1  0  0  0  0
 22 24  1  0  0  0  0
 23 20  1  0  0  0  0
 25 12  1  0  0  0  0
 27 34  1  0  0  0  0
 27 26  1  0  0  0  0
 29 30  1  0  0  0  0
 30 34  2  0  0  0  0
 30 32  1  0  0  0  0
 31 28  1  0  0  0  0
 31 35  2  0  0  0  0
 32 33  2  0  0  0  0
 33 35  1  0  0  0  0
 34 31  1  0  0  0  0
M  END
>  <MODEL>
2

>  <REMARK>
 VINA RESULT:      -6.0      0.139      1.423
  Name = 
  4 active torsions:
  status: ('A' for Active; 'I' for Inactive)
    1  A    between atoms: C_4  and  C_16
    2  A    between atoms: C_4  and  S_21
    3  A    between atoms: N_15  and  C_17
    4  A    between atoms: S_21  and  C_30
                            x       y       z     vdW  Elec       q    Type
                         _______ _______ _______ _____ _____    ______ ____

>  <TORSDO>
F 4

$$$$
=
 OpenBabel11042411543D

 35 39  0  0  1  0  0  0  0  0999 V2000
  189.0690  176.9920  138.4000 C   0  0  0  0  0  0  0  0  0  0  0  0
  187.8110  177.0100  138.4730 O   0  0  0  0  0  0  0  0  0  0  0  0
  190.9630  177.2380  141.2600 C   0  0  0  0  0  3  0  0  0  0  0  0
  191.2560  176.4220  137.8540 N   0  0  0  0  0  0  0  0  0  0  0  0
  189.8840  176.3640  137.3040 C   0  0  2  0  0  3  0  0  0  0  0  0
  189.9260  177.4750  139.4100 N   0  0  0  0  0  0  0  0  0  0  0  0
  191.8890  176.9280  140.2560 C   0  0  0  0  0  3  0  0  0  0  0  0
  191.1510  177.1120  139.1030 C   0  0  0  0  0  0  0  0  0  0  0  0
  189.7530  177.5070  140.7130 N   0  0  0  0  0  0  0  0  0  0  0  0
  193.5620  171.3380  136.0750 C   0  0  0  0  0  1  0  0  0  0  0  0
  193.8010  177.1660  137.4820 O   0  0  0  0  0  1  0  0  0  0  0  0
  194.7620  174.9800  137.1650 C   0  0  1  0  0  0  0  0  0  0  0  0
  195.0630  175.0570  138.5330 O   0  0  0  0  0  1  0  0  0  0  0  0
  195.1990  172.6500  137.7970 O   0  0  0  0  0  1  0  0  0  0  0  0
  194.4000  176.5920  134.9090 C   0  0  0  0  0  2  0  0  0  0  0  0
  194.6560  173.4560  136.7860 C   0  0  1  0  0  3  0  0  0  0  0  0
  192.2490  175.3670  137.6320 C   0  0  2  0  0  3  0  0  0  0  0  0
  193.5130  175.9070  136.9250 C   0  0  1  0  0  0  0  0  0  0  0  0
  195.5760  175.6400  135.0960 C   0  0  0  0  0  2  0  0  0  0  0  0
  193.3590  172.8370  136.2150 C   0  0  0  0  0  0  0  0  0  0  0  0
  193.2580  176.0590  135.5400 O   0  0  0  0  0  0  0  0  0  0  0  0
  192.2750  173.0150  137.1100 O   0  0  0  0  0  0  0  0  0  0  0  0
  193.1090  173.3140  134.7800 C   0  0  0  0  0  1  0  0  0  0  0  0
  191.6030  174.2220  136.8640 C   0  0  0  0  0  2  0  0  0  0  0  0
  195.8760  175.5220  136.4710 O   0  0  0  0  0  0  0  0  0  0  0  0
  189.7980  177.2050  136.0390 C   0  0  0  0  0  2  0  0  0  0  0  0
  189.3280  176.1620  134.6280 S   0  0  0  0  0  0  0  0  0  0  0  0
  188.1230  173.6670  135.8740 O   0  0  0  0  0  1  0  0  0  0  0  0
  187.1150  178.2460  134.6130 O   0  0  0  0  0  1  0  0  0  0  0  0
  186.7340  177.0250  135.1570 C   0  0  0  0  0  0  0  0  0  0  0  0
  187.2400  174.7360  135.7880 C   0  0  0  0  0  0  0  0  0  0  0  0
  185.4290  176.8600  135.6280 C   0  0  0  0  0  3  0  0  0  0  0  0
  185.0280  175.6430  136.1810 C   0  0  0  0  0  3  0  0  0  0  0  0
  187.6470  175.9590  135.2310 C   0  0  0  0  0  0  0  0  0  0  0  0
  185.9330  174.5830  136.2620 C   0  0  0  0  0  3  0  0  0  0  0  0
  1  2  2  0  0  0  0
  1  6  1  0  0  0  0
  4  8  1  0  0  0  0
  5 26  1  6  0  0  0
  5  4  1  0  0  0  0
  5  1  1  0  0  0  0
  6  9  1  0  0  0  0
  7  3  1  0  0  0  0
  8  6  1  0  0  0  0
  8  7  2  0  0  0  0
  9  3  2  0  0  0  0
 10 20  1  0  0  0  0
 12 13  1  1  0  0  0
 15 19  1  0  0  0  0
 15 21  1  0  0  0  0
 16 12  1  0  0  0  0
 16 14  1  1  0  0  0
 17 24  1  6  0  0  0
 17  4  1  0  0  0  0
 18 12  1  0  0  0  0
 18 11  1  1  0  0  0
 18 17  1  0  0  0  0
 19 25  1  0  0  0  0
 20 16  1  0  0  0  0
 20 22  1  0  0  0  0
 21 18  1  0  0  0  0
 23 20  1  0  0  0  0
 24 22  1  0  0  0  0
 25 12  1  0  0  0  0
 27 34  1  0  0  0  0
 27 26  1  0  0  0  0
 29 30  1  0  0  0  0
 30 34  2  0  0  0  0
 30 32  1  0  0  0  0
 31 28  1  0  0  0  0
 31 35  2  0  0  0  0
 32 33  2  0  0  0  0
 33 35  1  0  0  0  0
 34 31  1  0  0  0  0
M  END
>  <MODEL>
3

>  <REMARK>
 VINA RESULT:      -5.9      5.587     10.649
  Name = 
  4 active torsions:
  status: ('A' for Active; 'I' for Inactive)
    1  A    between atoms: C_4  and  C_16
    2  A    between atoms: C_4  and  S_21
    3  A    between atoms: N_15  and  C_17
    4  A    between atoms: S_21  and  C_30
                            x       y       z     vdW  Elec       q    Type
                         _______ _______ _______ _____ _____    ______ ____

>  <TORSDO>
F 4

$$$$
=
 OpenBabel11042411543D

 35 39  0  0  1  0  0  0  0  0999 V2000
  192.5030  177.2630  139.7670 C   0  0  0  0  0  0  0  0  0  0  0  0
  193.5880  177.8940  139.8740 O   0  0  0  0  0  0  0  0  0  0  0  0
  189.9720  177.7890  142.0350 C   0  0  0  0  0  3  0  0  0  0  0  0
  190.5710  176.2930  138.9120 N   0  0  0  0  0  0  0  0  0  0  0  0
  191.9370  176.6810  138.5010 C   0  0  2  0  0  3  0  0  0  0  0  0
  191.5810  177.0900  140.8200 N   0  0  0  0  0  0  0  0  0  0  0  0
  189.3880  176.9920  141.0420 C   0  0  0  0  0  3  0  0  0  0  0  0
  190.4840  176.5770  140.3110 C   0  0  0  0  0  0  0  0  0  0  0  0
  191.3080  177.8820  141.8340 N   0  0  0  0  0  0  0  0  0  0  0  0
  186.8620  178.5540  134.9790 C   0  0  0  0  0  1  0  0  0  0  0  0
  189.6210  174.0430  137.8130 O   0  0  0  0  0  1  0  0  0  0  0  0
  187.8290  175.0100  136.5270 C   0  0  1  0  0  0  0  0  0  0  0  0
  187.0290  174.6710  137.6270 O   0  0  0  0  0  1  0  0  0  0  0  0
  185.8180  176.3840  136.2300 O   0  0  0  0  0  1  0  0  0  0  0  0
  190.1350  174.2050  135.1650 C   0  0  0  0  0  2  0  0  0  0  0  0
  187.1400  176.2200  135.7920 C   0  0  1  0  0  3  0  0  0  0  0  0
  189.4090  176.4050  138.0240 C   0  0  2  0  0  3  0  0  0  0  0  0
  189.2940  175.1920  137.0720 C   0  0  1  0  0  0  0  0  0  0  0  0
  188.7250  174.0940  134.5940 C   0  0  0  0  0  2  0  0  0  0  0  0
  187.8430  177.5860  135.6170 C   0  0  0  0  0  0  0  0  0  0  0  0
  190.2150  175.3330  136.0050 O   0  0  0  0  0  0  0  0  0  0  0  0
  188.1980  178.1400  136.8730 O   0  0  0  0  0  0  0  0  0  0  0  0
  188.9850  177.4890  134.5990 C   0  0  0  0  0  1  0  0  0  0  0  0
  189.4780  177.7260  137.2700 C   0  0  0  0  0  2  0  0  0  0  0  0
  187.8030  173.8970  135.6440 O   0  0  0  0  0  0  0  0  0  0  0  0
  192.7260  175.4460  138.0930 C   0  0  0  0  0  2  0  0  0  0  0  0
  193.9060  175.8670  136.7770 S   0  0  0  0  0  0  0  0  0  0  0  0
  195.7400  175.1700  139.0980 O   0  0  0  0  0  1  0  0  0  0  0  0
  193.9480  173.4590  134.9220 O   0  0  0  0  0  1  0  0  0  0  0  0
  194.7430  173.3120  136.0520 C   0  0  0  0  0  0  0  0  0  0  0  0
  195.6380  174.1680  138.1400 C   0  0  0  0  0  0  0  0  0  0  0  0
  195.4640  172.1290  136.2350 C   0  0  0  0  0  3  0  0  0  0  0  0
  196.2660  171.9600  137.3650 C   0  0  0  0  0  3  0  0  0  0  0  0
  194.8300  174.3420  137.0040 C   0  0  0  0  0  0  0  0  0  0  0  0
  196.3510  172.9790  138.3170 C   0  0  0  0  0  3  0  0  0  0  0  0
  1  2  2  0  0  0  0
  1  6  1  0  0  0  0
  4  8  1  0  0  0  0
  5 26  1  1  0  0  0
  5  4  1  0  0  0  0
  5  1  1  0  0  0  0
  6  9  1  0  0  0  0
  7  3  1  0  0  0  0
  8  6  1  0  0  0  0
  8  7  2  0  0  0  0
  9  3  2  0  0  0  0
 10 20  1  0  0  0  0
 12 18  1  0  0  0  0
 12 13  1  1  0  0  0
 15 21  1  0  0  0  0
 16 14  1  1  0  0  0
 16 12  1  0  0  0  0
 17 24  1  6  0  0  0
 17  4  1  0  0  0  0
 18 11  1  1  0  0  0
 18 17  1  0  0  0  0
 19 15  1  0  0  0  0
 19 25  1  0  0  0  0
 20 16  1  0  0  0  0
 20 22  1  0  0  0  0
 21 18  1  0  0  0  0
 22 24  1  0  0  0  0
 23 20  1  0  0  0  0
 25 12  1  0  0  0  0
 27 34  1  0  0  0  0
 27 26  1  0  0  0  0
 29 30  1  0  0  0  0
 30 32  2  0  0  0  0
 30 34  1  0  0  0  0
 31 35  1  0  0  0  0
 31 28  1  0  0  0  0
 32 33  1  0  0  0  0
 33 35  2  0  0  0  0
 34 31  2  0  0  0  0
M  END
>  <MODEL>
4

>  <REMARK>
 VINA RESULT:      -5.6      5.857      8.093
  Name = 
  4 active torsions:
  status: ('A' for Active; 'I' for Inactive)
    1  A    between atoms: C_4  and  C_16
    2  A    between atoms: C_4  and  S_21
    3  A    between atoms: N_15  and  C_17
    4  A    between atoms: S_21  and  C_30
                            x       y       z     vdW  Elec       q    Type
                         _______ _______ _______ _____ _____    ______ ____

>  <TORSDO>
F 4

$$$$
=
 OpenBabel11042411543D

 35 39  0  0  1  0  0  0  0  0999 V2000
  190.0350  177.4650  137.6830 C   0  0  0  0  0  0  0  0  0  0  0  0
  189.7820  178.6890  137.8490 O   0  0  0  0  0  0  0  0  0  0  0  0
  189.4240  175.9770  134.6430 C   0  0  0  0  0  3  0  0  0  0  0  0
  191.0910  175.3940  137.6810 N   0  0  0  0  0  0  0  0  0  0  0  0
  191.0440  176.6570  138.4500 C   0  0  2  0  0  3  0  0  0  0  0  0
  189.4740  176.6740  136.6600 N   0  0  0  0  0  0  0  0  0  0  0  0
  190.1270  175.0070  135.3690 C   0  0  0  0  0  3  0  0  0  0  0  0
  190.1080  175.5230  136.6510 C   0  0  0  0  0  0  0  0  0  0  0  0
  189.0930  177.0150  135.4480 N   0  0  0  0  0  0  0  0  0  0  0  0
  194.6920  171.1800  135.7830 C   0  0  0  0  0  1  0  0  0  0  0  0
  193.4050  176.7410  137.6300 O   0  0  0  0  0  1  0  0  0  0  0  0
  194.8860  174.8790  137.2550 C   0  0  1  0  0  0  0  0  0  0  0  0
  195.0450  174.8930  138.6480 O   0  0  0  0  0  1  0  0  0  0  0  0
  195.8170  172.6650  137.7560 O   0  0  0  0  0  1  0  0  0  0  0  0
  194.3360  176.5710  135.0980 C   0  0  0  0  0  2  0  0  0  0  0  0
  195.1820  173.4160  136.7560 C   0  0  1  0  0  3  0  0  0  0  0  0
  192.3240  174.6250  137.4860 C   0  0  2  0  0  3  0  0  0  0  0  0
  193.4760  175.5090  136.9560 C   0  0  1  0  0  0  0  0  0  0  0  0
  195.6870  175.9050  135.3350 C   0  0  0  0  0  2  0  0  0  0  0  0
  194.1240  172.5700  136.0110 C   0  0  0  0  0  0  0  0  0  0  0  0
  193.3070  175.7300  135.5670 O   0  0  0  0  0  0  0  0  0  0  0  0
  192.9580  172.4050  136.7990 O   0  0  0  0  0  0  0  0  0  0  0  0
  193.8860  173.1110  134.5960 C   0  0  0  0  0  1  0  0  0  0  0  0
  192.0380  173.4400  136.5740 C   0  0  0  0  0  2  0  0  0  0  0  0
  195.8910  175.7290  136.7210 O   0  0  0  0  0  0  0  0  0  0  0  0
  190.5380  176.3870  139.8580 C   0  0  0  0  0  2  0  0  0  0  0  0
  191.3500  177.5060  141.0370 S   0  0  0  0  0  0  0  0  0  0  0  0
  188.5480  178.6160  140.6540 O   0  0  0  0  0  1  0  0  0  0  0  0
  191.3670  176.1970  143.7810 O   0  0  0  0  0  1  0  0  0  0  0  0
  190.1470  176.7640  143.4360 C   0  0  0  0  0  0  0  0  0  0  0  0
  188.7370  177.9730  141.8720 C   0  0  0  0  0  0  0  0  0  0  0  0
  189.0780  176.6930  144.3340 C   0  0  0  0  0  3  0  0  0  0  0  0
  187.8430  177.2540  144.0060 C   0  0  0  0  0  3  0  0  0  0  0  0
  189.9820  177.4100  142.1990 C   0  0  0  0  0  0  0  0  0  0  0  0
  187.6730  177.8920  142.7750 C   0  0  0  0  0  3  0  0  0  0  0  0
  1  2  2  0  0  0  0
  1  5  1  0  0  0  0
  3  7  1  0  0  0  0
  3  9  2  0  0  0  0
  4  5  1  0  0  0  0
  5 26  1  1  0  0  0
  6  1  1  0  0  0  0
  7  8  2  0  0  0  0
  8  6  1  0  0  0  0
  8  4  1  0  0  0  0
  9  6  1  0  0  0  0
 10 20  1  0  0  0  0
 12 13  1  1  0  0  0
 15 19  1  0  0  0  0
 15 21  1  0  0  0  0
 16 12  1  0  0  0  0
 16 14  1  1  0  0  0
 17 24  1  6  0  0  0
 17  4  1  0  0  0  0
 18 12  1  0  0  0  0
 18 17  1  0  0  0  0
 18 11  1  1  0  0  0
 19 25  1  0  0  0  0
 20 16  1  0  0  0  0
 20 22  1  0  0  0  0
 21 18  1  0  0  0  0
 23 20  1  0  0  0  0
 24 22  1  0  0  0  0
 25 12  1  0  0  0  0
 26 27  1  0  0  0  0
 27 34  1  0  0  0  0
 28 31  1  0  0  0  0
 30 29  1  0  0  0  0
 30 32  1  0  0  0  0
 31 34  1  0  0  0  0
 31 35  2  0  0  0  0
 33 32  2  0  0  0  0
 34 30  2  0  0  0  0
 35 33  1  0  0  0  0
M  END
>  <MODEL>
5

>  <REMARK>
 VINA RESULT:      -5.5      6.568     11.417
  Name = 
  4 active torsions:
  status: ('A' for Active; 'I' for Inactive)
    1  A    between atoms: C_4  and  C_16
    2  A    between atoms: C_4  and  S_21
    3  A    between atoms: N_15  and  C_17
    4  A    between atoms: S_21  and  C_30
                            x       y       z     vdW  Elec       q    Type
                         _______ _______ _______ _____ _____    ______ ____

>  <TORSDO>
F 4

$$$$
=
 OpenBabel11042411543D

 35 39  0  0  1  0  0  0  0  0999 V2000
  189.2980  177.0330  139.5830 C   0  0  0  0  0  0  0  0  0  0  0  0
  190.0770  176.0970  139.9060 O   0  0  0  0  0  0  0  0  0  0  0  0
  189.4870  178.4240  136.4430 C   0  0  0  0  0  3  0  0  0  0  0  0
  187.3970  178.3340  139.2680 N   0  0  0  0  0  0  0  0  0  0  0  0
  187.9440  177.3050  140.1780 C   0  0  2  0  0  3  0  0  0  0  0  0
  189.5350  177.9260  138.5180 N   0  0  0  0  0  0  0  0  0  0  0  0
  188.3290  178.9810  137.0010 C   0  0  0  0  0  3  0  0  0  0  0  0
  188.4380  178.6250  138.3310 C   0  0  0  0  0  0  0  0  0  0  0  0
  190.1710  177.7300  137.3840 N   0  0  0  0  0  0  0  0  0  0  0  0
  182.1920  176.6720  137.1520 C   0  0  0  0  0  1  0  0  0  0  0  0
  185.7730  179.8010  140.8100 O   0  0  0  0  0  1  0  0  0  0  0  0
  183.7120  179.3990  139.6300 C   0  0  1  0  0  0  0  0  0  0  0  0
  183.9970  180.6100  138.9830 O   0  0  0  0  0  1  0  0  0  0  0  0
  182.2890  179.3410  137.6330 O   0  0  0  0  0  1  0  0  0  0  0  0
  184.1170  178.0630  142.0530 C   0  0  0  0  0  2  0  0  0  0  0  0
  182.8040  178.5470  138.6670 C   0  0  1  0  0  3  0  0  0  0  0  0
  185.9800  178.3990  138.8980 C   0  0  2  0  0  3  0  0  0  0  0  0
  185.0900  178.8000  140.0960 C   0  0  1  0  0  0  0  0  0  0  0  0
  182.7610  178.5720  141.5770 C   0  0  0  0  0  2  0  0  0  0  0  0
  183.2360  177.1580  138.1430 C   0  0  0  0  0  0  0  0  0  0  0  0
  184.8930  177.6800  140.9410 O   0  0  0  0  0  0  0  0  0  0  0  0
  184.4590  177.2410  137.4310 O   0  0  0  0  0  0  0  0  0  0  0  0
  183.2000  176.1130  139.2630 C   0  0  0  0  0  1  0  0  0  0  0  0
  185.5590  177.0700  138.2850 C   0  0  0  0  0  2  0  0  0  0  0  0
  182.9400  179.7220  140.7790 O   0  0  0  0  0  0  0  0  0  0  0  0
  188.0930  177.8790  141.5780 C   0  0  0  0  0  2  0  0  0  0  0  0
  187.5240  176.6700  142.8110 S   0  0  0  0  0  0  0  0  0  0  0  0
  187.6100  178.4070  145.3020 O   0  0  0  0  0  1  0  0  0  0  0  0
  190.3200  175.5240  142.4890 O   0  0  0  0  0  1  0  0  0  0  0  0
  190.1770  176.3540  143.5940 C   0  0  0  0  0  0  0  0  0  0  0  0
  188.8210  177.7950  145.0000 C   0  0  0  0  0  0  0  0  0  0  0  0
  191.2750  176.5860  144.4260 C   0  0  0  0  0  3  0  0  0  0  0  0
  191.1510  177.4130  145.5430 C   0  0  0  0  0  3  0  0  0  0  0  0
  188.9420  176.9630  143.8750 C   0  0  0  0  0  0  0  0  0  0  0  0
  189.9240  178.0160  145.8300 C   0  0  0  0  0  3  0  0  0  0  0  0
  1  2  2  0  0  0  0
  1  5  1  0  0  0  0
  3  7  1  0  0  0  0
  3  9  2  0  0  0  0
  4  5  1  0  0  0  0
  5 26  1  1  0  0  0
  6  1  1  0  0  0  0
  7  8  2  0  0  0  0
  8  6  1  0  0  0  0
  8  4  1  0  0  0  0
  9  6  1  0  0  0  0
 10 20  1  0  0  0  0
 12 13  1  6  0  0  0
 12 18  1  0  0  0  0
 12 25  1  0  0  0  0
 16 14  1  6  0  0  0
 16 12  1  0  0  0  0
 17 24  1  1  0  0  0
 17  4  1  0  0  0  0
 17 18  1  0  0  0  0
 18 11  1  1  0  0  0
 18 21  1  0  0  0  0
 19 15  1  0  0  0  0
 20 16  1  0  0  0  0
 20 23  1  0  0  0  0
 21 15  1  0  0  0  0
 22 20  1  0  0  0  0
 22 24  1  0  0  0  0
 25 19  1  0  0  0  0
 26 27  1  0  0  0  0
 27 34  1  0  0  0  0
 29 30  1  0  0  0  0
 30 34  2  0  0  0  0
 30 32  1  0  0  0  0
 31 28  1  0  0  0  0
 31 35  2  0  0  0  0
 32 33  2  0  0  0  0
 33 35  1  0  0  0  0
 34 31  1  0  0  0  0
M  END
>  <MODEL>
6

>  <REMARK>
 VINA RESULT:      -5.3      3.670      5.806
  Name = 
  4 active torsions:
  status: ('A' for Active; 'I' for Inactive)
    1  A    between atoms: C_4  and  C_16
    2  A    between atoms: C_4  and  S_21
    3  A    between atoms: N_15  and  C_17
    4  A    between atoms: S_21  and  C_30
                            x       y       z     vdW  Elec       q    Type
                         _______ _______ _______ _____ _____    ______ ____

>  <TORSDO>
F 4

$$$$
=
 OpenBabel11042411543D

 35 39  0  0  1  0  0  0  0  0999 V2000
  189.9640  176.1810  138.1130 C   0  0  0  0  0  0  0  0  0  0  0  0
  190.8130  175.7670  138.9470 O   0  0  0  0  0  0  0  0  0  0  0  0
  190.5190  175.7810  134.7430 C   0  0  0  0  0  3  0  0  0  0  0  0
  187.9660  176.6210  137.0080 N   0  0  0  0  0  0  0  0  0  0  0  0
  188.4930  176.3700  138.3660 C   0  0  2  0  0  3  0  0  0  0  0  0
  190.2470  176.4360  136.7560 N   0  0  0  0  0  0  0  0  0  0  0  0
  189.1970  176.2360  134.8250 C   0  0  0  0  0  3  0  0  0  0  0  0
  189.1040  176.6450  136.1420 C   0  0  0  0  0  0  0  0  0  0  0  0
  191.1160  175.8570  135.9570 N   0  0  0  0  0  0  0  0  0  0  0  0
  183.3350  173.0840  136.4020 C   0  0  0  0  0  1  0  0  0  0  0  0
  186.0440  178.4340  136.5720 O   0  0  0  0  0  1  0  0  0  0  0  0
  184.2810  176.9260  135.9240 C   0  0  1  0  0  0  0  0  0  0  0  0
  184.6890  177.2180  134.6150 O   0  0  0  0  0  1  0  0  0  0  0  0
  183.3120  175.1070  134.5940 O   0  0  0  0  0  1  0  0  0  0  0  0
  184.1740  178.0450  138.4850 C   0  0  0  0  0  2  0  0  0  0  0  0
  183.6020  175.5060  135.9060 C   0  0  1  0  0  3  0  0  0  0  0  0
  186.6590  176.1340  136.5580 C   0  0  2  0  0  3  0  0  0  0  0  0
  185.5340  177.1530  136.8490 C   0  0  1  0  0  0  0  0  0  0  0  0
  182.9460  177.7590  137.6280 C   0  0  0  0  0  2  0  0  0  0  0  0
  184.1430  174.3240  136.7430 C   0  0  0  0  0  0  0  0  0  0  0  0
  185.1700  177.0850  138.2160 O   0  0  0  0  0  0  0  0  0  0  0  0
  185.4880  174.0340  136.4020 O   0  0  0  0  0  0  0  0  0  0  0  0
  183.8780  174.5410  138.2360 C   0  0  0  0  0  1  0  0  0  0  0  0
  186.3840  174.7760  137.1870 C   0  0  0  0  0  2  0  0  0  0  0  0
  183.2830  177.8790  136.2620 O   0  0  0  0  0  0  0  0  0  0  0  0
  188.2650  177.5920  139.2430 C   0  0  0  0  0  2  0  0  0  0  0  0
  189.6250  177.7650  140.4370 S   0  0  0  0  0  0  0  0  0  0  0  0
  190.0340  175.8360  142.7490 O   0  0  0  0  0  1  0  0  0  0  0  0
  186.9990  179.1930  140.9890 O   0  0  0  0  0  1  0  0  0  0  0  0
  187.3480  178.2620  141.9590 C   0  0  0  0  0  0  0  0  0  0  0  0
  188.8660  176.5840  142.8390 C   0  0  0  0  0  0  0  0  0  0  0  0
  186.5040  178.0640  143.0560 C   0  0  0  0  0  3  0  0  0  0  0  0
  186.8370  177.1360  144.0430 C   0  0  0  0  0  3  0  0  0  0  0  0
  188.5340  177.5170  141.8430 C   0  0  0  0  0  0  0  0  0  0  0  0
  188.0180  176.3970  143.9350 C   0  0  0  0  0  3  0  0  0  0  0  0
  1  5  1  0  0  0  0
  1  2  2  0  0  0  0
  3  7  1  0  0  0  0
  3  9  2  0  0  0  0
  4  5  1  0  0  0  0
  5 26  1  1  0  0  0
  6  1  1  0  0  0  0
  7  8  2  0  0  0  0
  8  6  1  0  0  0  0
  8  4  1  0  0  0  0
  9  6  1  0  0  0  0
 10 20  1  0  0  0  0
 12 13  1  6  0  0  0
 12 25  1  0  0  0  0
 12 18  1  0  0  0  0
 16 14  1  6  0  0  0
 16 12  1  0  0  0  0
 16 20  1  0  0  0  0
 17 18  1  0  0  0  0
 17  4  1  1  0  0  0
 17 24  1  0  0  0  0
 18 11  1  6  0  0  0
 18 21  1  0  0  0  0
 19 15  1  0  0  0  0
 20 23  1  0  0  0  0
 21 15  1  0  0  0  0
 22 20  1  0  0  0  0
 22 24  1  0  0  0  0
 25 19  1  0  0  0  0
 26 27  1  0  0  0  0
 27 34  1  0  0  0  0
 28 31  1  0  0  0  0
 29 30  1  0  0  0  0
 30 32  1  0  0  0  0
 31 35  2  0  0  0  0
 32 33  2  0  0  0  0
 34 30  2  0  0  0  0
 34 31  1  0  0  0  0
 35 33  1  0  0  0  0
M  END
>  <MODEL>
7

>  <REMARK>
 VINA RESULT:      -5.3      3.607      6.633
  Name = 
  4 active torsions:
  status: ('A' for Active; 'I' for Inactive)
    1  A    between atoms: C_4  and  C_16
    2  A    between atoms: C_4  and  S_21
    3  A    between atoms: N_15  and  C_17
    4  A    between atoms: S_21  and  C_30
                            x       y       z     vdW  Elec       q    Type
                         _______ _______ _______ _____ _____    ______ ____

>  <TORSDO>
F 4

$$$$
=
 OpenBabel11042411543D

 35 39  0  0  1  0  0  0  0  0999 V2000
  186.1520  178.2760  139.2770 C   0  0  0  0  0  0  0  0  0  0  0  0
  187.2740  178.2870  138.7030 O   0  0  0  0  0  0  0  0  0  0  0  0
  185.8720  179.3400  142.5350 C   0  0  0  0  0  3  0  0  0  0  0  0
  183.8910  178.5510  139.7410 N   0  0  0  0  0  0  0  0  0  0  0  0
  184.8110  178.3510  138.6010 C   0  0  2  0  0  3  0  0  0  0  0  0
  185.9790  178.2970  140.6760 N   0  0  0  0  0  0  0  0  0  0  0  0
  184.5480  179.1730  142.1090 C   0  0  0  0  0  3  0  0  0  0  0  0
  184.7020  178.4910  140.9180 C   0  0  0  0  0  0  0  0  0  0  0  0
  186.7270  178.8500  141.6050 N   0  0  0  0  0  0  0  0  0  0  0  0
  180.3100  182.8440  137.9860 C   0  0  0  0  0  1  0  0  0  0  0  0
  181.5170  177.4100  140.2270 O   0  0  0  0  0  1  0  0  0  0  0  0
  180.1230  179.3450  139.8880 C   0  0  1  0  0  0  0  0  0  0  0  0
  180.2070  179.4880  141.2810 O   0  0  0  0  0  1  0  0  0  0  0  0
  179.4450  181.6710  140.2760 O   0  0  0  0  0  1  0  0  0  0  0  0
  180.1760  177.4000  137.8800 C   0  0  0  0  0  2  0  0  0  0  0  0
  179.8460  180.7700  139.2790 C   0  0  1  0  0  3  0  0  0  0  0  0
  182.6980  179.3990  139.6640 C   0  0  2  0  0  3  0  0  0  0  0  0
  181.4150  178.5690  139.4360 C   0  0  1  0  0  0  0  0  0  0  0  0
  178.9340  178.2020  138.2580 C   0  0  0  0  0  2  0  0  0  0  0  0
  180.8140  181.4400  138.2770 C   0  0  0  0  0  0  0  0  0  0  0  0
  181.3250  178.1930  138.0730 O   0  0  0  0  0  0  0  0  0  0  0  0
  182.1070  181.5840  138.8380 O   0  0  0  0  0  0  0  0  0  0  0  0
  180.7660  180.7390  136.9150 C   0  0  0  0  0  1  0  0  0  0  0  0
  182.9010  180.4550  138.5860 C   0  0  0  0  0  2  0  0  0  0  0  0
  178.9860  178.5350  139.6290 O   0  0  0  0  0  0  0  0  0  0  0  0
  184.4980  177.0330  137.9090 C   0  0  0  0  0  2  0  0  0  0  0  0
  185.1930  177.0310  136.2300 S   0  0  0  0  0  0  0  0  0  0  0  0
  183.1110  175.0330  135.2790 O   0  0  0  0  0  1  0  0  0  0  0  0
  187.5880  175.3870  137.1240 O   0  0  0  0  0  1  0  0  0  0  0  0
  186.5270  174.6240  136.6520 C   0  0  0  0  0  0  0  0  0  0  0  0
  184.2890  174.4480  135.7290 C   0  0  0  0  0  0  0  0  0  0  0  0
  186.6390  173.2310  136.6300 C   0  0  0  0  0  3  0  0  0  0  0  0
  185.5860  172.4470  136.1570 C   0  0  0  0  0  3  0  0  0  0  0  0
  185.3460  175.2410  136.2050 C   0  0  0  0  0  0  0  0  0  0  0  0
  184.4120  173.0560  135.7060 C   0  0  0  0  0  3  0  0  0  0  0  0
  1  6  1  0  0  0  0
  2  1  2  0  0  0  0
  4  8  1  0  0  0  0
  5 26  1  1  0  0  0
  5  1  1  0  0  0  0
  5  4  1  0  0  0  0
  6  8  1  0  0  0  0
  6  9  1  0  0  0  0
  7  3  1  0  0  0  0
  8  7  2  0  0  0  0
  9  3  2  0  0  0  0
 10 20  1  0  0  0  0
 12 13  1  1  0  0  0
 15 21  1  0  0  0  0
 15 19  1  0  0  0  0
 16 12  1  0  0  0  0
 16 14  1  1  0  0  0
 17 24  1  6  0  0  0
 17  4  1  0  0  0  0
 18 17  1  0  0  0  0
 18 12  1  0  0  0  0
 18 11  1  1  0  0  0
 19 25  1  0  0  0  0
 20 22  1  0  0  0  0
 20 16  1  0  0  0  0
 21 18  1  0  0  0  0
 23 20  1  0  0  0  0
 24 22  1  0  0  0  0
 25 12  1  0  0  0  0
 27 26  1  0  0  0  0
 28 31  1  0  0  0  0
 30 29  1  0  0  0  0
 31 34  1  0  0  0  0
 32 30  1  0  0  0  0
 33 32  2  0  0  0  0
 34 27  1  0  0  0  0
 34 30  2  0  0  0  0
 35 31  2  0  0  0  0
 35 33  1  0  0  0  0
M  END
>  <MODEL>
8

>  <REMARK>
 VINA RESULT:      -5.2      1.845      2.419
  Name = 
  4 active torsions:
  status: ('A' for Active; 'I' for Inactive)
    1  A    between atoms: C_4  and  C_16
    2  A    between atoms: C_4  and  S_21
    3  A    between atoms: N_15  and  C_17
    4  A    between atoms: S_21  and  C_30
                            x       y       z     vdW  Elec       q    Type
                         _______ _______ _______ _____ _____    ______ ____

>  <TORSDO>
F 4

$$$$
=
 OpenBabel11042411543D

 35 39  0  0  1  0  0  0  0  0999 V2000
  181.8780  178.8970  140.2960 C   0  0  0  0  0  0  0  0  0  0  0  0
  180.7340  179.1890  140.7370 O   0  0  0  0  0  0  0  0  0  0  0  0
  184.4610  178.2790  142.4800 C   0  0  0  0  0  3  0  0  0  0  0  0
  183.6150  177.9340  139.0870 N   0  0  0  0  0  0  0  0  0  0  0  0
  182.1800  178.2710  138.9620 C   0  0  2  0  0  3  0  0  0  0  0  0
  183.0680  179.0180  141.0420 N   0  0  0  0  0  0  0  0  0  0  0  0
  184.9730  177.9200  141.2270 C   0  0  0  0  0  3  0  0  0  0  0  0
  184.0280  178.4360  140.3610 C   0  0  0  0  0  0  0  0  0  0  0  0
  183.2620  178.8940  142.3370 N   0  0  0  0  0  0  0  0  0  0  0  0
  183.9950  172.4920  136.9490 C   0  0  0  0  0  1  0  0  0  0  0  0
  185.6430  178.2460  137.3660 O   0  0  0  0  0  1  0  0  0  0  0  0
  186.0180  175.9250  136.8430 C   0  0  1  0  0  0  0  0  0  0  0  0
  187.0060  175.9940  137.8370 O   0  0  0  0  0  1  0  0  0  0  0  0
  186.4400  173.5760  137.4110 O   0  0  0  0  0  1  0  0  0  0  0  0
  184.7120  177.5030  134.9400 C   0  0  0  0  0  2  0  0  0  0  0  0
  185.5450  174.4260  136.7470 C   0  0  1  0  0  3  0  0  0  0  0  0
  184.2030  176.7260  138.5000 C   0  0  2  0  0  3  0  0  0  0  0  0
  184.9550  177.0330  137.1850 C   0  0  1  0  0  0  0  0  0  0  0  0
  185.6840  176.3800  134.5940 C   0  0  0  0  0  2  0  0  0  0  0  0
  184.0790  174.0070  137.0060 C   0  0  0  0  0  0  0  0  0  0  0  0
  184.0250  177.1810  136.1270 O   0  0  0  0  0  0  0  0  0  0  0  0
  183.6650  174.3850  138.3070 O   0  0  0  0  0  0  0  0  0  0  0  0
  183.1660  174.4730  135.8670 C   0  0  0  0  0  1  0  0  0  0  0  0
  183.1160  175.6770  138.3130 C   0  0  0  0  0  2  0  0  0  0  0  0
  186.6500  176.2580  135.6160 O   0  0  0  0  0  0  0  0  0  0  0  0
  181.9830  179.2880  137.8490 C   0  0  0  0  0  2  0  0  0  0  0  0
  180.2130  179.4730  137.4800 S   0  0  0  0  0  0  0  0  0  0  0  0
  180.6710  180.3520  134.6080 O   0  0  0  0  0  1  0  0  0  0  0  0
  180.1850  182.0180  139.1420 O   0  0  0  0  0  1  0  0  0  0  0  0
  180.3860  182.2350  137.7850 C   0  0  0  0  0  0  0  0  0  0  0  0
  180.6280  181.4020  135.5180 C   0  0  0  0  0  0  0  0  0  0  0  0
  180.5530  183.5420  137.3160 C   0  0  0  0  0  3  0  0  0  0  0  0
  180.7520  183.7820  135.9560 C   0  0  0  0  0  3  0  0  0  0  0  0
  180.4270  181.1560  136.8860 C   0  0  0  0  0  0  0  0  0  0  0  0
  180.7890  182.7120  135.0580 C   0  0  0  0  0  3  0  0  0  0  0  0
  1  2  2  0  0  0  0
  1  6  1  0  0  0  0
  4  8  1  0  0  0  0
  5 26  1  6  0  0  0
  5  4  1  0  0  0  0
  5  1  1  0  0  0  0
  6  9  1  0  0  0  0
  7  3  1  0  0  0  0
  8  6  1  0  0  0  0
  8  7  2  0  0  0  0
  9  3  2  0  0  0  0
 10 20  1  0  0  0  0
 12 18  1  0  0  0  0
 12 13  1  1  0  0  0
 15 21  1  0  0  0  0
 16 12  1  0  0  0  0
 16 20  1  0  0  0  0
 16 14  1  1  0  0  0
 17 24  1  6  0  0  0
 17  4  1  0  0  0  0
 18 11  1  1  0  0  0
 18 17  1  0  0  0  0
 19 15  1  0  0  0  0
 19 25  1  0  0  0  0
 20 22  1  0  0  0  0
 21 18  1  0  0  0  0
 22 24  1  0  0  0  0
 23 20  1  0  0  0  0
 25 12  1  0  0  0  0
 27 26  1  0  0  0  0
 28 31  1  0  0  0  0
 30 29  1  0  0  0  0
 31 34  1  0  0  0  0
 32 30  1  0  0  0  0
 33 32  2  0  0  0  0
 34 27  1  0  0  0  0
 34 30  2  0  0  0  0
 35 31  2  0  0  0  0
 35 33  1  0  0  0  0
M  END
>  <MODEL>
9

>  <REMARK>
 VINA RESULT:      -5.2      2.556      6.988
  Name = 
  4 active torsions:
  status: ('A' for Active; 'I' for Inactive)
    1  A    between atoms: C_4  and  C_16
    2  A    between atoms: C_4  and  S_21
    3  A    between atoms: N_15  and  C_17
    4  A    between atoms: S_21  and  C_30
                            x       y       z     vdW  Elec       q    Type
                         _______ _______ _______ _____ _____    ______ ____

>  <TORSDO>
F 4

$$$$
