=
 OpenBabel11042412493D

 66 77  0  0  1  0  0  0  0  0999 V2000
  190.8490  176.2330  138.3770 C   0  0  0  0  0  2  0  0  0  0  0  0
  185.5220  178.4250  138.1700 N   0  0  0  0  0  0  0  0  0  0  0  0
  189.9100  177.0210  136.2530 C   0  0  0  0  0  2  0  0  0  0  0  0
  183.6380  174.7340  137.1130 C   0  0  0  0  0  3  0  0  0  0  0  0
  187.8130  175.1830  136.4830 C   0  0  0  0  0  2  0  0  0  0  0  0
  186.9820  178.5090  138.2170 C   0  0  2  0  0  3  0  0  0  0  0  0
  191.4530  175.2640  137.4400 N   0  0  0  0  0  0  0  0  0  0  0  0
  187.0330  176.3710  136.9860 C   0  0  2  0  0  3  0  0  0  0  0  0
  184.9640  174.8530  137.1130 C   0  0  0  0  0  3  0  0  0  0  0  0
  187.6320  177.5640  137.2410 C   0  0  2  0  0  3  0  0  0  0  0  0
  188.9620  174.8770  137.4500 C   0  0  0  0  0  2  0  0  0  0  0  0
  184.8660  177.1870  137.8500 C   0  0  0  0  0  0  0  0  0  0  0  0
  190.1130  175.8360  137.1960 C   0  0  1  0  0  0  0  0  0  0  0  0
  185.6030  176.1650  137.3550 C   0  0  0  0  0  0  0  0  0  0  0  0
  182.7730  175.9550  137.2540 C   0  0  2  0  0  3  0  0  0  0  0  0
  184.7610  179.5540  138.6790 C   0  0  0  0  0  1  0  0  0  0  0  0
  188.9260  177.9090  136.7900 O   0  0  0  0  0  0  0  0  0  0  0  0
  183.4130  176.9720  138.2030 C   0  0  0  0  0  2  0  0  0  0  0  0
  190.0070  178.0840  142.2330 C   0  0  0  0  0  3  0  0  0  0  0  0
  188.9740  178.0000  141.3130 C   0  0  0  0  0  0  0  0  0  0  0  0
  189.3700  177.8650  143.4670 C   0  0  0  0  0  3  0  0  0  0  0  0
  186.4840  177.8860  140.9580 S   0  0  0  0  0  0  0  0  0  0  0  0
  188.8480  178.2020  139.9550 C   0  0  0  0  0  3  0  0  0  0  0  0
  187.8290  177.7860  141.9590 C   0  0  0  0  0  0  0  0  0  0  0  0
  187.4850  178.1540  139.5870 C   0  0  0  0  0  0  0  0  0  0  0  0
  188.0320  177.6930  143.2760 N   0  0  0  0  0  0  0  0  0  0  0  0
  187.4510  177.5890  145.6350 C   0  0  0  0  0  0  0  0  0  0  0  0
  186.5230  178.3900  146.4950 C   0  0  0  0  0  2  0  0  0  0  0  0
  188.6100  177.1590  146.1200 C   0  0  0  0  0  2  0  0  0  0  0  0
  185.1730  178.8630  144.3000 C   0  0  1  0  0  3  0  0  0  0  0  0
  185.7220  179.3890  145.6480 C   0  0  1  0  0  3  0  0  0  0  0  0
  185.6780  177.4530  143.9520 C   0  0  0  0  0  2  0  0  0  0  0  0
  187.0990  177.3460  144.2650 N   0  0  0  0  0  0  0  0  0  0  0  0
  184.3020  178.8620  145.5460 C   0  0  0  0  0  2  0  0  0  0  0  0
  181.1600  174.5450  138.2500 O   0  0  0  0  0  0  0  0  0  0  0  0
  181.3850  175.5900  137.6610 C   0  0  0  0  0  0  0  0  0  0  0  0
  180.2620  176.5040  137.2950 C   0  0  0  0  0  2  0  0  0  0  0  0
  179.2230  176.5340  138.4000 C   0  0  0  0  0  2  0  0  0  0  0  0
  179.7890  177.9790  140.3810 C   0  0  1  0  0  3  0  0  0  0  0  0
  179.1300  177.9260  138.9980 C   0  0  1  0  0  3  0  0  0  0  0  0
  180.0080  180.1780  138.5890 C   0  0  0  0  0  3  0  0  0  0  0  0
  179.8640  179.3710  140.8550 N   0  0  0  0  0  0  0  0  0  0  0  0
  179.9800  180.8880  142.6350 O   0  0  0  0  0  0  0  0  0  0  0  0
  180.0450  180.4300  139.8990 C   0  0  0  0  0  3  0  0  0  0  0  0
  179.0620  177.1810  141.2790 O   0  0  0  0  0  1  0  0  0  0  0  0
  179.7280  178.8890  138.1340 O   0  0  0  0  0  0  0  0  0  0  0  0
  180.0300  179.6850  142.2500 C   0  0  0  0  0  0  0  0  0  0  0  0
  180.2590  178.6610  143.1750 O   0  0  0  0  0  0  0  0  0  0  0  0
  179.5560  178.5830  144.3980 C   0  0  0  0  0  1  0  0  0  0  0  0
  192.4000  175.9470  136.6450 N   0  0  0  0  0  2  0  0  0  0  0  0
  195.5660  176.3280  136.1340 O   0  0  0  0  0  0  0  0  0  0  0  0
  194.4740  173.0320  136.4650 N   0  0  0  0  0  0  0  0  0  0  0  0
  192.5420  175.2240  135.3880 C   0  0  1  0  0  3  0  0  0  0  0  0
  195.2470  174.1350  137.0310 C   0  0  2  0  0  3  0  0  0  0  0  0
  194.0040  174.8960  135.0220 C   0  0  1  0  0  3  0  0  0  0  0  0
  192.2790  173.7430  135.6470 C   0  0  1  0  0  3  0  0  0  0  0  0
  195.0260  175.2360  136.0610 C   0  0  0  0  0  0  0  0  0  0  0  0
  197.7230  174.7830  137.5280 C   0  0  0  0  0  1  0  0  0  0  0  0
  197.0130  172.4600  137.4280 C   0  0  0  0  0  3  0  0  0  0  0  0
  196.6920  173.7460  137.2500 C   0  0  0  0  0  0  0  0  0  0  0  0
  191.4160  173.2440  134.6700 O   0  0  0  0  0  1  0  0  0  0  0  0
  194.8000  171.6670  136.7720 C   0  0  0  0  0  0  0  0  0  0  0  0
  193.7130  173.4130  135.2750 C   0  0  2  0  0  3  0  0  0  0  0  0
  196.0230  171.3850  137.2370 C   0  0  0  0  0  3  0  0  0  0  0  0
  194.2250  169.7940  135.4530 O   0  0  0  0  0  1  0  0  0  0  0  0
  193.8130  170.5680  136.5370 C   0  0  0  0  0  2  0  0  0  0  0  0
  2  6  1  0  0  0  0
  2 16  1  0  0  0  0
  3 17  1  0  0  0  0
  4  9  2  0  0  0  0
  4 15  1  0  0  0  0
  5 11  1  0  0  0  0
  6 25  1  1  0  0  0
  7  1  1  0  0  0  0
  8  5  1  1  0  0  0
  8 10  1  0  0  0  0
  8 14  1  0  0  0  0
  9 14  1  0  0  0  0
 10 17  1  1  0  0  0
 10  6  1  0  0  0  0
 12  2  1  0  0  0  0
 12 18  1  0  0  0  0
 13  3  1  6  0  0  0
 13  7  1  0  0  0  0
 13 11  1  0  0  0  0
 13  1  1  0  0  0  0
 14 12  2  0  0  0  0
 15 36  1  1  0  0  0
 15 18  1  0  0  0  0
 19 21  2  0  0  0  0
 20 24  2  0  0  0  0
 20 19  1  0  0  0  0
 22 24  1  0  0  0  0
 23 20  1  0  0  0  0
 24 26  1  0  0  0  0
 25 23  2  0  0  0  0
 25 22  1  0  0  0  0
 26 21  1  0  0  0  0
 26 33  1  0  0  0  0
 27 29  2  0  0  0  0
 27 28  1  0  0  0  0
 30 32  1  1  0  0  0
 30 34  1  0  0  0  0
 30 31  1  0  0  0  0
 31 34  1  1  0  0  0
 31 28  1  0  0  0  0
 32 33  1  0  0  0  0
 33 27  1  0  0  0  0
 36 35  2  0  0  0  0
 37 36  1  0  0  0  0
 37 38  1  0  0  0  0
 39 42  1  0  0  0  0
 39 45  1  1  0  0  0
 40 38  1  6  0  0  0
 40 39  1  0  0  0  0
 41 44  2  0  0  0  0
 42 47  1  0  0  0  0
 44 42  1  0  0  0  0
 46 41  1  0  0  0  0
 46 40  1  0  0  0  0
 47 43  2  0  0  0  0
 47 48  1  0  0  0  0
 48 49  1  0  0  0  0
 50  7  1  0  0  0  0
 52 62  1  0  0  0  0
 52 54  1  0  0  0  0
 53 56  1  0  0  0  0
 53 50  1  1  0  0  0
 54 57  1  6  0  0  0
 54 60  1  0  0  0  0
 55 63  1  0  0  0  0
 55 53  1  0  0  0  0
 55 57  1  1  0  0  0
 56 61  1  6  0  0  0
 57 51  2  0  0  0  0
 60 59  2  0  0  0  0
 60 58  1  0  0  0  0
 62 64  2  0  0  0  0
 63 56  1  0  0  0  0
 63 52  1  1  0  0  0
 64 59  1  0  0  0  0
 65 66  1  0  0  0  0
 66 62  1  0  0  0  0
M  END
>  <MODEL>
1

>  <REMARK>
 VINA RESULT:      -8.7      0.000      0.000
  Name = 
  10 active torsions:
  status: ('A' for Active; 'I' for Inactive)
    1  A    between atoms: C_6  and  C_30
    2  A    between atoms: C_6  and  C_51
    3  A    between atoms: O_13  and  C_65
    4  A    between atoms: C_15  and  C_54
    5  A    between atoms: C_17  and  N_60
    6  A    between atoms: N_21  and  N_60
    7  A    between atoms: C_27  and  C_51
    8  A    between atoms: C_30  and  C_56
    9  A    between atoms: N_39  and  N_62
   10  A    between atoms: C_53  and  C_55
                            x       y       z     vdW  Elec       q    Type
                         _______ _______ _______ _____ _____    ______ ____

>  <TORSDO>
F 10

$$$$
=
 OpenBabel11042412493D

 66 77  0  0  1  0  0  0  0  0999 V2000
  190.2880  176.8020  138.3390 C   0  0  0  0  0  2  0  0  0  0  0  0
  184.7650  178.4200  138.0180 N   0  0  0  0  0  0  0  0  0  0  0  0
  189.2390  177.2200  136.1620 C   0  0  0  0  0  2  0  0  0  0  0  0
  183.2440  174.4590  137.4800 C   0  0  0  0  0  3  0  0  0  0  0  0
  187.3420  175.2300  136.6790 C   0  0  0  0  0  2  0  0  0  0  0  0
  186.2090  178.6510  138.0110 C   0  0  2  0  0  3  0  0  0  0  0  0
  190.9700  175.7860  137.5120 N   0  0  0  0  0  0  0  0  0  0  0  0
  186.4550  176.3900  137.0530 C   0  0  2  0  0  3  0  0  0  0  0  0
  184.5510  174.7050  137.4260 C   0  0  0  0  0  3  0  0  0  0  0  0
  186.9350  177.6590  137.1420 C   0  0  2  0  0  3  0  0  0  0  0  0
  188.5320  175.1620  137.6420 C   0  0  0  0  0  2  0  0  0  0  0  0
  184.2320  177.0920  137.8720 C   0  0  0  0  0  0  0  0  0  0  0  0
  189.5760  176.1890  137.2380 C   0  0  1  0  0  0  0  0  0  0  0  0
  185.0590  176.0930  137.4860 C   0  0  0  0  0  0  0  0  0  0  0  0
  182.2640  175.5970  137.4930 C   0  0  2  0  0  3  0  0  0  0  0  0
  183.9030  179.5230  138.4060 C   0  0  0  0  0  1  0  0  0  0  0  0
  188.1800  178.0690  136.6130 O   0  0  0  0  0  0  0  0  0  0  0  0
  182.8140  176.7830  138.2910 C   0  0  0  0  0  2  0  0  0  0  0  0
  186.5100  177.8590  142.9860 C   0  0  0  0  0  3  0  0  0  0  0  0
  186.7500  178.1730  141.6570 C   0  0  0  0  0  0  0  0  0  0  0  0
  187.7850  177.5400  143.4850 C   0  0  0  0  0  3  0  0  0  0  0  0
  188.4090  178.1610  139.7640 S   0  0  0  0  0  0  0  0  0  0  0  0
  185.9690  178.4770  140.5630 C   0  0  0  0  0  3  0  0  0  0  0  0
  188.0470  178.0170  141.3980 C   0  0  0  0  0  0  0  0  0  0  0  0
  186.7690  178.5210  139.4000 C   0  0  0  0  0  0  0  0  0  0  0  0
  188.7120  177.6350  142.4910 N   0  0  0  0  0  0  0  0  0  0  0  0
  190.7380  178.2530  143.6850 C   0  0  0  0  0  0  0  0  0  0  0  0
  191.5910  177.5390  144.6880 C   0  0  0  0  0  2  0  0  0  0  0  0
  190.5310  179.5600  143.7910 C   0  0  0  0  0  2  0  0  0  0  0  0
  190.7150  175.3230  143.5990 C   0  0  1  0  0  3  0  0  0  0  0  0
  191.1100  176.0940  144.8810 C   0  0  1  0  0  3  0  0  0  0  0  0
  190.7100  176.2060  142.3410 C   0  0  0  0  0  2  0  0  0  0  0  0
  190.1000  177.4960  142.6460 N   0  0  0  0  0  0  0  0  0  0  0  0
  192.1100  175.1860  144.1890 C   0  0  0  0  0  2  0  0  0  0  0  0
  180.7420  173.9990  138.3380 O   0  0  0  0  0  0  0  0  0  0  0  0
  180.9250  175.1530  137.9830 C   0  0  0  0  0  0  0  0  0  0  0  0
  179.7980  176.1300  137.9870 C   0  0  0  0  0  2  0  0  0  0  0  0
  179.1010  176.1290  139.3350 C   0  0  0  0  0  2  0  0  0  0  0  0
  179.8910  177.7950  141.0490 C   0  0  1  0  0  3  0  0  0  0  0  0
  178.9590  177.5480  139.8560 C   0  0  1  0  0  3  0  0  0  0  0  0
  179.4250  179.8420  139.1280 C   0  0  0  0  0  3  0  0  0  0  0  0
  179.8840  179.2220  141.4110 N   0  0  0  0  0  0  0  0  0  0  0  0
  180.1850  180.8900  143.0260 O   0  0  0  0  0  0  0  0  0  0  0  0
  179.7120  180.2080  140.3780 C   0  0  0  0  0  3  0  0  0  0  0  0
  179.4880  176.9990  142.1330 O   0  0  0  0  0  1  0  0  0  0  0  0
  179.2240  178.4950  138.8250 O   0  0  0  0  0  0  0  0  0  0  0  0
  180.3070  179.6720  142.7110 C   0  0  0  0  0  0  0  0  0  0  0  0
  180.8640  178.7650  143.6180 O   0  0  0  0  0  0  0  0  0  0  0  0
  182.2250  178.8200  143.9970 C   0  0  0  0  0  1  0  0  0  0  0  0
  191.8310  176.4530  136.6120 N   0  0  0  0  0  2  0  0  0  0  0  0
  194.8460  176.9210  135.5510 O   0  0  0  0  0  0  0  0  0  0  0  0
  193.8860  173.5920  135.9590 N   0  0  0  0  0  0  0  0  0  0  0  0
  191.7550  175.7730  135.3250 C   0  0  1  0  0  3  0  0  0  0  0  0
  194.7300  174.6940  136.4140 C   0  0  2  0  0  3  0  0  0  0  0  0
  193.1320  175.4900  134.6900 C   0  0  1  0  0  3  0  0  0  0  0  0
  191.5670  174.2800  135.5750 C   0  0  1  0  0  3  0  0  0  0  0  0
  194.3190  175.8200  135.5390 C   0  0  0  0  0  0  0  0  0  0  0  0
  197.2440  175.3820  136.4790 C   0  0  0  0  0  1  0  0  0  0  0  0
  196.5660  173.0480  136.4270 C   0  0  0  0  0  3  0  0  0  0  0  0
  196.1970  174.3310  136.3550 C   0  0  0  0  0  0  0  0  0  0  0  0
  190.5500  173.7920  134.7530 O   0  0  0  0  0  1  0  0  0  0  0  0
  194.2840  172.2260  136.1530 C   0  0  0  0  0  0  0  0  0  0  0  0
  192.9160  173.9940  134.9390 C   0  0  2  0  0  3  0  0  0  0  0  0
  195.5750  171.9580  136.3800 C   0  0  0  0  0  3  0  0  0  0  0  0
  193.9460  169.8880  136.1750 O   0  0  0  0  0  1  0  0  0  0  0  0
  193.2890  171.1130  136.0610 C   0  0  0  0  0  2  0  0  0  0  0  0
  2 16  1  0  0  0  0
  3 17  1  0  0  0  0
  4 15  1  0  0  0  0
  5 11  1  0  0  0  0
  6  2  1  0  0  0  0
  6 25  1  1  0  0  0
  7  1  1  0  0  0  0
  8  5  1  1  0  0  0
  8 10  1  0  0  0  0
  8 14  1  0  0  0  0
  9  4  2  0  0  0  0
  9 14  1  0  0  0  0
 10 17  1  1  0  0  0
 10  6  1  0  0  0  0
 12  2  1  0  0  0  0
 12 18  1  0  0  0  0
 13  3  1  6  0  0  0
 13  7  1  0  0  0  0
 13 11  1  0  0  0  0
 13  1  1  0  0  0  0
 14 12  2  0  0  0  0
 15 36  1  1  0  0  0
 15 18  1  0  0  0  0
 19 21  2  0  0  0  0
 20 19  1  0  0  0  0
 22 24  1  0  0  0  0
 23 20  1  0  0  0  0
 24 20  2  0  0  0  0
 24 26  1  0  0  0  0
 25 22  1  0  0  0  0
 25 23  2  0  0  0  0
 26 33  1  0  0  0  0
 26 21  1  0  0  0  0
 27 29  2  0  0  0  0
 27 28  1  0  0  0  0
 28 31  1  0  0  0  0
 30 32  1  6  0  0  0
 30 34  1  0  0  0  0
 30 31  1  0  0  0  0
 31 34  1  6  0  0  0
 32 33  1  0  0  0  0
 33 27  1  0  0  0  0
 36 37  1  0  0  0  0
 36 35  2  0  0  0  0
 37 38  1  0  0  0  0
 39 42  1  0  0  0  0
 39 45  1  1  0  0  0
 40 38  1  6  0  0  0
 40 39  1  0  0  0  0
 41 44  2  0  0  0  0
 42 47  1  0  0  0  0
 44 42  1  0  0  0  0
 46 41  1  0  0  0  0
 46 40  1  0  0  0  0
 47 43  2  0  0  0  0
 47 48  1  0  0  0  0
 48 49  1  0  0  0  0
 50  7  1  0  0  0  0
 52 62  1  0  0  0  0
 52 54  1  0  0  0  0
 53 56  1  0  0  0  0
 53 50  1  1  0  0  0
 54 57  1  6  0  0  0
 55 63  1  0  0  0  0
 55 53  1  0  0  0  0
 55 57  1  1  0  0  0
 56 61  1  6  0  0  0
 57 51  2  0  0  0  0
 60 54  1  0  0  0  0
 60 59  2  0  0  0  0
 60 58  1  0  0  0  0
 62 64  2  0  0  0  0
 63 56  1  0  0  0  0
 63 52  1  1  0  0  0
 64 59  1  0  0  0  0
 66 62  1  0  0  0  0
 66 65  1  0  0  0  0
M  END
>  <MODEL>
2

>  <REMARK>
 VINA RESULT:      -8.0      1.289      2.271
  Name = 
  10 active torsions:
  status: ('A' for Active; 'I' for Inactive)
    1  A    between atoms: C_6  and  C_30
    2  A    between atoms: C_6  and  C_51
    3  A    between atoms: O_13  and  C_65
    4  A    between atoms: C_15  and  C_54
    5  A    between atoms: C_17  and  N_60
    6  A    between atoms: N_21  and  N_60
    7  A    between atoms: C_27  and  C_51
    8  A    between atoms: C_30  and  C_56
    9  A    between atoms: N_39  and  N_62
   10  A    between atoms: C_53  and  C_55
                            x       y       z     vdW  Elec       q    Type
                         _______ _______ _______ _____ _____    ______ ____

>  <TORSDO>
F 10

$$$$
=
 OpenBabel11042412493D

 66 77  0  0  1  0  0  0  0  0999 V2000
  191.7870  175.5500  137.6570 C   0  0  0  0  0  2  0  0  0  0  0  0
  186.3860  176.3190  135.7940 N   0  0  0  0  0  0  0  0  0  0  0  0
  191.1920  175.0600  135.3280 C   0  0  0  0  0  2  0  0  0  0  0  0
  185.1730  172.2760  136.4790 C   0  0  0  0  0  3  0  0  0  0  0  0
  189.3130  173.1750  136.1910 C   0  0  0  0  0  2  0  0  0  0  0  0
  187.7900  176.6950  135.9600 C   0  0  2  0  0  3  0  0  0  0  0  0
  192.6660  174.3930  137.3930 N   0  0  0  0  0  0  0  0  0  0  0  0
  188.3210  174.2850  135.9520 C   0  0  2  0  0  3  0  0  0  0  0  0
  186.4530  172.6330  136.5720 C   0  0  0  0  0  3  0  0  0  0  0  0
  188.7200  175.5500  135.6550 C   0  0  2  0  0  3  0  0  0  0  0  0
  190.2810  173.5830  137.3070 C   0  0  0  0  0  2  0  0  0  0  0  0
  185.9500  174.9740  136.0510 C   0  0  0  0  0  0  0  0  0  0  0  0
  191.3430  174.5140  136.7480 C   0  0  1  0  0  0  0  0  0  0  0  0
  186.8800  174.0030  136.2090 C   0  0  0  0  0  0  0  0  0  0  0  0
  184.1650  173.2280  135.9020 C   0  0  2  0  0  3  0  0  0  0  0  0
  185.4190  177.3840  135.5930 C   0  0  0  0  0  1  0  0  0  0  0  0
  190.0290  175.8870  135.2430 O   0  0  0  0  0  0  0  0  0  0  0  0
  184.4900  174.6720  136.2960 C   0  0  0  0  0  2  0  0  0  0  0  0
  187.1900  178.7970  140.5080 C   0  0  0  0  0  3  0  0  0  0  0  0
  187.6670  178.1570  139.3740 C   0  0  0  0  0  0  0  0  0  0  0  0
  187.9780  178.2640  141.5440 C   0  0  0  0  0  3  0  0  0  0  0  0
  189.1200  176.3160  138.4570 S   0  0  0  0  0  0  0  0  0  0  0  0
  187.3080  178.1160  138.0450 C   0  0  0  0  0  3  0  0  0  0  0  0
  188.6250  177.3010  139.7250 C   0  0  0  0  0  0  0  0  0  0  0  0
  188.0570  177.1230  137.3750 C   0  0  0  0  0  0  0  0  0  0  0  0
  188.8460  177.3420  141.0420 N   0  0  0  0  0  0  0  0  0  0  0  0
  191.1620  177.2840  141.7800 C   0  0  0  0  0  0  0  0  0  0  0  0
  191.8210  177.5550  143.0980 C   0  0  0  0  0  2  0  0  0  0  0  0
  191.7550  177.6430  140.6480 C   0  0  0  0  0  2  0  0  0  0  0  0
  189.5380  176.8730  144.1870 C   0  0  1  0  0  3  0  0  0  0  0  0
  190.7720  177.8060  144.1900 C   0  0  1  0  0  3  0  0  0  0  0  0
  189.4880  175.9440  142.9630 C   0  0  0  0  0  2  0  0  0  0  0  0
  189.8560  176.6870  141.7630 N   0  0  0  0  0  0  0  0  0  0  0  0
  190.7350  176.5740  145.0760 C   0  0  0  0  0  2  0  0  0  0  0  0
  182.5660  172.1060  137.2310 O   0  0  0  0  0  0  0  0  0  0  0  0
  182.7740  172.8350  136.2750 C   0  0  0  0  0  0  0  0  0  0  0  0
  181.6400  173.3100  135.4300 C   0  0  0  0  0  2  0  0  0  0  0  0
  180.5950  174.0010  136.2860 C   0  0  0  0  0  2  0  0  0  0  0  0
  181.0220  176.3750  137.0050 C   0  0  1  0  0  3  0  0  0  0  0  0
  181.2630  174.8930  137.3160 C   0  0  1  0  0  3  0  0  0  0  0  0
  181.0560  175.4480  139.6950 C   0  0  0  0  0  3  0  0  0  0  0  0
  181.5050  177.2120  138.1160 N   0  0  0  0  0  0  0  0  0  0  0  0
  182.3160  179.2720  138.8780 O   0  0  0  0  0  0  0  0  0  0  0  0
  181.4280  176.7080  139.4600 C   0  0  0  0  0  3  0  0  0  0  0  0
  181.6640  176.7130  135.8040 O   0  0  0  0  0  1  0  0  0  0  0  0
  180.7970  174.5870  138.6280 O   0  0  0  0  0  0  0  0  0  0  0  0
  181.7990  178.6090  137.9340 C   0  0  0  0  0  0  0  0  0  0  0  0
  181.5030  179.2340  136.7190 O   0  0  0  0  0  0  0  0  0  0  0  0
  180.3430  180.0230  136.5430 C   0  0  0  0  0  1  0  0  0  0  0  0
  193.6650  174.7950  136.4780 N   0  0  0  0  0  2  0  0  0  0  0  0
  196.6160  175.4250  135.3240 O   0  0  0  0  0  0  0  0  0  0  0  0
  196.1490  172.2170  136.6120 N   0  0  0  0  0  0  0  0  0  0  0  0
  193.7420  173.7950  135.4210 C   0  0  1  0  0  3  0  0  0  0  0  0
  196.8000  173.5170  136.7530 C   0  0  2  0  0  3  0  0  0  0  0  0
  195.1690  173.5690  134.8820 C   0  0  1  0  0  3  0  0  0  0  0  0
  193.7700  172.4110  136.0640 C   0  0  1  0  0  3  0  0  0  0  0  0
  196.2600  174.2920  135.6090 C   0  0  0  0  0  0  0  0  0  0  0  0
  199.1790  174.5770  136.6250 C   0  0  0  0  0  1  0  0  0  0  0  0
  198.8590  172.2370  137.2030 C   0  0  0  0  0  3  0  0  0  0  0  0
  198.3060  173.3820  136.7900 C   0  0  0  0  0  0  0  0  0  0  0  0
  192.8700  171.5720  135.4050 O   0  0  0  0  0  1  0  0  0  0  0  0
  196.7380  171.0300  137.1650 C   0  0  0  0  0  0  0  0  0  0  0  0
  195.1700  172.1790  135.5250 C   0  0  2  0  0  3  0  0  0  0  0  0
  198.0450  171.0340  137.4530 C   0  0  0  0  0  3  0  0  0  0  0  0
  195.3770  169.8080  138.6600 O   0  0  0  0  0  1  0  0  0  0  0  0
  195.9250  169.7930  137.3780 C   0  0  0  0  0  2  0  0  0  0  0  0
  2  6  1  0  0  0  0
  2 12  1  0  0  0  0
  4  9  2  0  0  0  0
  5 11  1  0  0  0  0
  6 25  1  1  0  0  0
  7  1  1  0  0  0  0
  8  5  1  1  0  0  0
  8 14  1  0  0  0  0
 10 17  1  1  0  0  0
 10  8  1  0  0  0  0
 10  6  1  0  0  0  0
 12 14  2  0  0  0  0
 12 18  1  0  0  0  0
 13  3  1  6  0  0  0
 13 11  1  0  0  0  0
 13  7  1  0  0  0  0
 13  1  1  0  0  0  0
 14  9  1  0  0  0  0
 15 36  1  1  0  0  0
 15 18  1  0  0  0  0
 15  4  1  0  0  0  0
 16  2  1  0  0  0  0
 17  3  1  0  0  0  0
 19 21  2  0  0  0  0
 20 24  2  0  0  0  0
 20 19  1  0  0  0  0
 22 24  1  0  0  0  0
 23 20  1  0  0  0  0
 24 26  1  0  0  0  0
 25 23  2  0  0  0  0
 25 22  1  0  0  0  0
 26 21  1  0  0  0  0
 26 33  1  0  0  0  0
 27 28  1  0  0  0  0
 29 27  2  0  0  0  0
 30 32  1  6  0  0  0
 30 31  1  0  0  0  0
 30 34  1  0  0  0  0
 31 28  1  6  0  0  0
 31 34  1  0  0  0  0
 33 27  1  0  0  0  0
 33 32  1  0  0  0  0
 36 35  2  0  0  0  0
 37 36  1  0  0  0  0
 37 38  1  0  0  0  0
 39 45  1  6  0  0  0
 39 40  1  0  0  0  0
 39 42  1  0  0  0  0
 40 38  1  6  0  0  0
 40 46  1  0  0  0  0
 42 44  1  0  0  0  0
 44 41  2  0  0  0  0
 46 41  1  0  0  0  0
 47 42  1  0  0  0  0
 47 43  2  0  0  0  0
 48 47  1  0  0  0  0
 49 48  1  0  0  0  0
 50  7  1  0  0  0  0
 51 57  2  0  0  0  0
 52 54  1  0  0  0  0
 52 62  1  0  0  0  0
 53 56  1  0  0  0  0
 53 50  1  1  0  0  0
 54 57  1  6  0  0  0
 54 60  1  0  0  0  0
 55 53  1  0  0  0  0
 55 63  1  0  0  0  0
 55 57  1  1  0  0  0
 56 61  1  6  0  0  0
 58 60  1  0  0  0  0
 59 64  1  0  0  0  0
 60 59  2  0  0  0  0
 62 66  1  0  0  0  0
 62 64  2  0  0  0  0
 63 56  1  0  0  0  0
 63 52  1  1  0  0  0
 66 65  1  0  0  0  0
M  END
>  <MODEL>
3

>  <REMARK>
 VINA RESULT:      -7.3      2.529      3.599
  Name = 
  10 active torsions:
  status: ('A' for Active; 'I' for Inactive)
    1  A    between atoms: C_6  and  C_30
    2  A    between atoms: C_6  and  C_51
    3  A    between atoms: O_13  and  C_65
    4  A    between atoms: C_15  and  C_54
    5  A    between atoms: C_17  and  N_60
    6  A    between atoms: N_21  and  N_60
    7  A    between atoms: C_27  and  C_51
    8  A    between atoms: C_30  and  C_56
    9  A    between atoms: N_39  and  N_62
   10  A    between atoms: C_53  and  C_55
                            x       y       z     vdW  Elec       q    Type
                         _______ _______ _______ _____ _____    ______ ____

>  <TORSDO>
F 10

$$$$
=
 OpenBabel11042412493D

 66 77  0  0  1  0  0  0  0  0999 V2000
  182.6290  177.7040  140.0720 C   0  0  0  0  0  2  0  0  0  0  0  0
  187.4980  177.8570  136.9900 N   0  0  0  0  0  0  0  0  0  0  0  0
  183.8390  179.8150  139.7610 C   0  0  0  0  0  2  0  0  0  0  0  0
  190.0900  177.3930  140.3590 C   0  0  0  0  0  3  0  0  0  0  0  0
  186.1030  178.7120  140.9810 C   0  0  0  0  0  2  0  0  0  0  0  0
  186.0620  178.0460  137.1980 C   0  0  2  0  0  3  0  0  0  0  0  0
  182.3760  178.3530  141.3750 N   0  0  0  0  0  0  0  0  0  0  0  0
  186.5790  178.5160  139.5640 C   0  0  2  0  0  3  0  0  0  0  0  0
  188.7880  177.6170  140.5210 C   0  0  0  0  0  3  0  0  0  0  0  0
  185.7680  178.7450  138.4980 C   0  0  2  0  0  3  0  0  0  0  0  0
  184.8450  177.8700  141.2210 C   0  0  0  0  0  2  0  0  0  0  0  0
  188.3840  177.6660  138.1050 C   0  0  0  0  0  0  0  0  0  0  0  0
  183.6360  178.5790  140.6360 C   0  0  1  0  0  0  0  0  0  0  0  0
  187.9220  177.9030  139.3560 C   0  0  0  0  0  0  0  0  0  0  0  0
  190.7150  177.5340  139.0000 C   0  0  2  0  0  3  0  0  0  0  0  0
  187.9630  177.6380  135.6310 C   0  0  0  0  0  1  0  0  0  0  0  0
  184.5510  179.4610  138.5730 O   0  0  0  0  0  0  0  0  0  0  0  0
  189.7540  177.0620  137.9050 C   0  0  0  0  0  2  0  0  0  0  0  0
  182.4560  174.5370  136.7940 C   0  0  0  0  0  3  0  0  0  0  0  0
  183.6220  175.2460  137.0430 C   0  0  0  0  0  0  0  0  0  0  0  0
  182.8980  173.2090  136.6690 C   0  0  0  0  0  3  0  0  0  0  0  0
  186.1380  175.1940  137.1030 S   0  0  0  0  0  0  0  0  0  0  0  0
  183.9540  176.5780  137.1720 C   0  0  0  0  0  3  0  0  0  0  0  0
  184.6560  174.4070  137.0290 C   0  0  0  0  0  0  0  0  0  0  0  0
  185.3580  176.7190  137.2340 C   0  0  0  0  0  0  0  0  0  0  0  0
  184.2520  173.1530  136.8080 N   0  0  0  0  0  0  0  0  0  0  0  0
  184.6170  170.8770  136.0330 C   0  0  0  0  0  0  0  0  0  0  0  0
  185.6040  170.2660  135.0870 C   0  0  0  0  0  2  0  0  0  0  0  0
  183.3650  170.4370  136.0710 C   0  0  0  0  0  2  0  0  0  0  0  0
  187.1860  172.2550  135.7240 C   0  0  1  0  0  3  0  0  0  0  0  0
  186.6370  171.3070  134.6320 C   0  0  1  0  0  3  0  0  0  0  0  0
  186.4640  172.1050  137.0720 C   0  0  0  0  0  2  0  0  0  0  0  0
  185.0260  171.9830  136.8510 N   0  0  0  0  0  0  0  0  0  0  0  0
  187.9420  170.9930  135.3420 C   0  0  0  0  0  2  0  0  0  0  0  0
  192.8630  176.9900  139.8220 O   0  0  0  0  0  0  0  0  0  0  0  0
  192.0350  176.8400  138.9370 C   0  0  0  0  0  0  0  0  0  0  0  0
  192.3490  175.9940  137.7480 C   0  0  0  0  0  2  0  0  0  0  0  0
  193.1000  174.7450  138.1710 C   0  0  0  0  0  2  0  0  0  0  0  0
  195.1680  173.4580  137.5390 C   0  0  1  0  0  3  0  0  0  0  0  0
  194.5600  174.8470  137.7710 C   0  0  1  0  0  3  0  0  0  0  0  0
  195.9120  175.6580  135.8940 C   0  0  0  0  0  3  0  0  0  0  0  0
  196.5180  173.5850  136.9630 N   0  0  0  0  0  0  0  0  0  0  0  0
  198.6550  172.6910  136.6300 O   0  0  0  0  0  0  0  0  0  0  0  0
  196.8060  174.6850  136.0830 C   0  0  0  0  0  3  0  0  0  0  0  0
  195.2030  172.7520  138.7510 O   0  0  0  0  0  1  0  0  0  0  0  0
  194.7100  175.6480  136.6020 O   0  0  0  0  0  0  0  0  0  0  0  0
  197.4720  172.5100  137.0350 C   0  0  0  0  0  0  0  0  0  0  0  0
  197.0860  171.2650  137.5420 O   0  0  0  0  0  0  0  0  0  0  0  0
  197.8600  170.1000  137.3410 C   0  0  0  0  0  1  0  0  0  0  0  0
  181.5120  179.4510  141.1620 N   0  0  0  0  0  2  0  0  0  0  0  0
  179.7950  180.9360  138.8650 O   0  0  0  0  0  0  0  0  0  0  0  0
  179.5100  177.4610  138.9570 N   0  0  0  0  0  0  0  0  0  0  0  0
  180.1670  179.0500  141.5530 C   0  0  1  0  0  3  0  0  0  0  0  0
  179.9900  178.6370  138.2360 C   0  0  2  0  0  3  0  0  0  0  0  0
  179.1040  179.2910  140.4610 C   0  0  1  0  0  3  0  0  0  0  0  0
  180.0300  177.5440  141.3480 C   0  0  1  0  0  3  0  0  0  0  0  0
  179.6270  179.7580  139.1380 C   0  0  0  0  0  0  0  0  0  0  0  0
  179.5090  179.9640  136.0440 C   0  0  0  0  0  1  0  0  0  0  0  0
  179.0030  177.5940  136.2320 C   0  0  0  0  0  3  0  0  0  0  0  0
  179.4050  178.7130  136.8440 C   0  0  0  0  0  0  0  0  0  0  0  0
  179.4380  176.9710  142.4750 O   0  0  0  0  0  1  0  0  0  0  0  0
  179.1870  176.2470  138.2600 C   0  0  0  0  0  0  0  0  0  0  0  0
  178.9740  177.7760  140.2820 C   0  0  2  0  0  3  0  0  0  0  0  0
  178.9410  176.3060  136.9450 C   0  0  0  0  0  3  0  0  0  0  0  0
  180.3130  174.6220  139.5530 O   0  0  0  0  0  1  0  0  0  0  0  0
  179.0800  174.9450  138.9870 C   0  0  0  0  0  2  0  0  0  0  0  0
  1 13  1  0  0  0  0
  1  7  1  0  0  0  0
  2  6  1  0  0  0  0
  2 12  1  0  0  0  0
  4  9  2  0  0  0  0
  5 11  1  0  0  0  0
  6 25  1  1  0  0  0
  6 10  1  0  0  0  0
  8  5  1  1  0  0  0
 10 17  1  1  0  0  0
 10  8  1  0  0  0  0
 12 14  2  0  0  0  0
 13  3  1  6  0  0  0
 13 11  1  0  0  0  0
 13  7  1  0  0  0  0
 14  8  1  0  0  0  0
 14  9  1  0  0  0  0
 15 36  1  1  0  0  0
 15  4  1  0  0  0  0
 16  2  1  0  0  0  0
 17  3  1  0  0  0  0
 18 12  1  0  0  0  0
 18 15  1  0  0  0  0
 19 20  1  0  0  0  0
 20 23  1  0  0  0  0
 21 19  2  0  0  0  0
 21 26  1  0  0  0  0
 22 25  1  0  0  0  0
 23 25  2  0  0  0  0
 24 20  2  0  0  0  0
 24 22  1  0  0  0  0
 26 33  1  0  0  0  0
 26 24  1  0  0  0  0
 27 29  2  0  0  0  0
 27 33  1  0  0  0  0
 28 27  1  0  0  0  0
 30 34  1  1  0  0  0
 30 32  1  0  0  0  0
 31 28  1  1  0  0  0
 31 34  1  0  0  0  0
 31 30  1  0  0  0  0
 33 32  1  0  0  0  0
 36 35  2  0  0  0  0
 37 38  1  0  0  0  0
 37 36  1  0  0  0  0
 39 40  1  0  0  0  0
 39 45  1  1  0  0  0
 40 38  1  6  0  0  0
 41 44  2  0  0  0  0
 41 46  1  0  0  0  0
 42 47  1  0  0  0  0
 42 39  1  0  0  0  0
 43 47  2  0  0  0  0
 44 42  1  0  0  0  0
 46 40  1  0  0  0  0
 47 48  1  0  0  0  0
 49 48  1  0  0  0  0
 50  7  1  0  0  0  0
 51 57  2  0  0  0  0
 53 50  1  6  0  0  0
 54 60  1  6  0  0  0
 54 52  1  0  0  0  0
 54 57  1  0  0  0  0
 55 57  1  6  0  0  0
 55 53  1  0  0  0  0
 56 53  1  0  0  0  0
 56 61  1  1  0  0  0
 58 60  1  0  0  0  0
 59 60  2  0  0  0  0
 59 64  1  0  0  0  0
 62 52  1  0  0  0  0
 62 66  1  0  0  0  0
 63 52  1  6  0  0  0
 63 55  1  0  0  0  0
 63 56  1  0  0  0  0
 64 62  2  0  0  0  0
 66 65  1  0  0  0  0
M  END
>  <MODEL>
4

>  <REMARK>
 VINA RESULT:      -7.0      2.767     12.901
  Name = 
  10 active torsions:
  status: ('A' for Active; 'I' for Inactive)
    1  A    between atoms: C_6  and  C_30
    2  A    between atoms: C_6  and  C_51
    3  A    between atoms: O_13  and  C_65
    4  A    between atoms: C_15  and  C_54
    5  A    between atoms: C_17  and  N_60
    6  A    between atoms: N_21  and  N_60
    7  A    between atoms: C_27  and  C_51
    8  A    between atoms: C_30  and  C_56
    9  A    between atoms: N_39  and  N_62
   10  A    between atoms: C_53  and  C_55
                            x       y       z     vdW  Elec       q    Type
                         _______ _______ _______ _____ _____    ______ ____

>  <TORSDO>
F 10

$$$$
=
 OpenBabel11042412493D

 66 77  0  0  1  0  0  0  0  0999 V2000
  191.7990  175.6130  137.9550 C   0  0  0  0  0  2  0  0  0  0  0  0
  186.5140  177.9100  137.8170 N   0  0  0  0  0  0  0  0  0  0  0  0
  190.8300  176.3780  135.8360 C   0  0  0  0  0  2  0  0  0  0  0  0
  184.5340  174.2390  136.8720 C   0  0  0  0  0  3  0  0  0  0  0  0
  188.7020  174.5880  136.1460 C   0  0  0  0  0  2  0  0  0  0  0  0
  187.9760  177.9640  137.8310 C   0  0  2  0  0  3  0  0  0  0  0  0
  192.3630  174.6130  137.0250 N   0  0  0  0  0  0  0  0  0  0  0  0
  187.9580  175.8020  136.6420 C   0  0  2  0  0  3  0  0  0  0  0  0
  185.8620  174.3300  136.8420 C   0  0  0  0  0  3  0  0  0  0  0  0
  188.5860  176.9880  136.8610 C   0  0  2  0  0  3  0  0  0  0  0  0
  189.8660  174.2780  137.0940 C   0  0  0  0  0  2  0  0  0  0  0  0
  185.8270  176.6790  137.5350 C   0  0  0  0  0  0  0  0  0  0  0  0
  191.0300  175.2080  136.7970 C   0  0  1  0  0  0  0  0  0  0  0  0
  186.5320  175.6320  137.0440 C   0  0  0  0  0  0  0  0  0  0  0  0
  183.6970  175.4790  137.0070 C   0  0  2  0  0  3  0  0  0  0  0  0
  185.7870  179.0630  138.3190 C   0  0  0  0  0  1  0  0  0  0  0  0
  189.8770  177.2970  136.3750 O   0  0  0  0  0  0  0  0  0  0  0  0
  184.3780  176.5010  137.9220 C   0  0  0  0  0  2  0  0  0  0  0  0
  191.0260  176.3420  141.5090 C   0  0  0  0  0  3  0  0  0  0  0  0
  189.9670  176.8190  140.7530 C   0  0  0  0  0  0  0  0  0  0  0  0
  190.7730  176.8550  142.7930 C   0  0  0  0  0  3  0  0  0  0  0  0
  187.9930  178.3790  140.6550 S   0  0  0  0  0  0  0  0  0  0  0  0
  189.6210  176.7940  139.4190 C   0  0  0  0  0  3  0  0  0  0  0  0
  189.1850  177.5750  141.5230 C   0  0  0  0  0  0  0  0  0  0  0  0
  188.5010  177.6250  139.1970 C   0  0  0  0  0  0  0  0  0  0  0  0
  189.6430  177.6160  142.7770 N   0  0  0  0  0  0  0  0  0  0  0  0
  187.7640  177.6600  144.3190 C   0  0  0  0  0  0  0  0  0  0  0  0
  187.5990  177.2200  145.7410 C   0  0  0  0  0  2  0  0  0  0  0  0
  186.7720  177.5030  143.4500 C   0  0  0  0  0  2  0  0  0  0  0  0
  190.1750  177.6300  145.9870 C   0  0  1  0  0  3  0  0  0  0  0  0
  188.9410  176.7610  146.3280 C   0  0  1  0  0  3  0  0  0  0  0  0
  189.8710  178.7320  144.9590 C   0  0  0  0  0  2  0  0  0  0  0  0
  189.0260  178.1960  143.8960 N   0  0  0  0  0  0  0  0  0  0  0  0
  189.4120  177.8410  147.2850 C   0  0  0  0  0  2  0  0  0  0  0  0
  182.0950  174.7530  138.5840 O   0  0  0  0  0  0  0  0  0  0  0  0
  182.3100  175.1510  137.4500 C   0  0  0  0  0  0  0  0  0  0  0  0
  181.1920  175.2730  136.4700 C   0  0  0  0  0  2  0  0  0  0  0  0
  179.9240  175.7290  137.1670 C   0  0  0  0  0  2  0  0  0  0  0  0
  179.9230  178.1610  137.8160 C   0  0  1  0  0  3  0  0  0  0  0  0
  180.2540  176.7310  138.2590 C   0  0  1  0  0  3  0  0  0  0  0  0
  179.4820  177.3400  140.5050 C   0  0  0  0  0  3  0  0  0  0  0  0
  180.0620  179.0890  138.9520 N   0  0  0  0  0  0  0  0  0  0  0  0
  180.4590  181.2560  139.7420 O   0  0  0  0  0  0  0  0  0  0  0  0
  179.7560  178.6260  140.2780 C   0  0  0  0  0  3  0  0  0  0  0  0
  180.7660  178.5320  136.7580 O   0  0  0  0  0  1  0  0  0  0  0  0
  179.5550  176.4170  139.4610 O   0  0  0  0  0  0  0  0  0  0  0  0
  180.2330  180.5040  138.7520 C   0  0  0  0  0  0  0  0  0  0  0  0
  180.1360  181.0460  137.4670 O   0  0  0  0  0  0  0  0  0  0  0  0
  179.9200  182.4250  137.2470 C   0  0  0  0  0  1  0  0  0  0  0  0
  193.3060  175.2610  136.1970 N   0  0  0  0  0  2  0  0  0  0  0  0
  196.3880  176.0180  135.5950 O   0  0  0  0  0  0  0  0  0  0  0  0
  195.7760  172.6710  136.3620 N   0  0  0  0  0  0  0  0  0  0  0  0
  193.5550  174.4100  135.0400 C   0  0  1  0  0  3  0  0  0  0  0  0
  196.3810  173.9360  136.7710 C   0  0  2  0  0  3  0  0  0  0  0  0
  195.0500  174.2470  134.6980 C   0  0  1  0  0  3  0  0  0  0  0  0
  193.5040  172.9520  135.4910 C   0  0  1  0  0  3  0  0  0  0  0  0
  196.0090  174.8600  135.6710 C   0  0  0  0  0  0  0  0  0  0  0  0
  198.7380  174.9880  137.1450 C   0  0  0  0  0  1  0  0  0  0  0  0
  198.3660  172.5950  137.3540 C   0  0  0  0  0  3  0  0  0  0  0  0
  197.8660  173.7880  137.0160 C   0  0  0  0  0  0  0  0  0  0  0  0
  192.7250  172.2130  134.5990 O   0  0  0  0  0  1  0  0  0  0  0  0
  196.2910  171.4170  136.8360 C   0  0  0  0  0  0  0  0  0  0  0  0
  194.9730  172.7840  135.1440 C   0  0  2  0  0  3  0  0  0  0  0  0
  197.5400  171.3740  137.3160 C   0  0  0  0  0  3  0  0  0  0  0  0
  194.8300  169.9530  137.9770 O   0  0  0  0  0  1  0  0  0  0  0  0
  195.4720  170.1680  136.7590 C   0  0  0  0  0  2  0  0  0  0  0  0
  2  6  1  0  0  0  0
  2 16  1  0  0  0  0
  3 17  1  0  0  0  0
  4 15  1  0  0  0  0
  5 11  1  0  0  0  0
  6 25  1  1  0  0  0
  7  1  1  0  0  0  0
  8  5  1  1  0  0  0
  8 10  1  0  0  0  0
  8 14  1  0  0  0  0
  9  4  2  0  0  0  0
  9 14  1  0  0  0  0
 10 17  1  1  0  0  0
 10  6  1  0  0  0  0
 12  2  1  0  0  0  0
 12 18  1  0  0  0  0
 13  3  1  6  0  0  0
 13  7  1  0  0  0  0
 13 11  1  0  0  0  0
 13  1  1  0  0  0  0
 14 12  2  0  0  0  0
 15 36  1  1  0  0  0
 15 18  1  0  0  0  0
 19 21  2  0  0  0  0
 20 19  1  0  0  0  0
 20 24  2  0  0  0  0
 22 24  1  0  0  0  0
 23 20  1  0  0  0  0
 24 26  1  0  0  0  0
 25 23  2  0  0  0  0
 25 22  1  0  0  0  0
 26 21  1  0  0  0  0
 26 33  1  0  0  0  0
 27 28  1  0  0  0  0
 29 27  2  0  0  0  0
 30 32  1  6  0  0  0
 30 31  1  0  0  0  0
 30 34  1  0  0  0  0
 31 28  1  6  0  0  0
 31 34  1  0  0  0  0
 33 27  1  0  0  0  0
 33 32  1  0  0  0  0
 36 35  2  0  0  0  0
 37 38  1  0  0  0  0
 37 36  1  0  0  0  0
 39 45  1  6  0  0  0
 39 40  1  0  0  0  0
 39 42  1  0  0  0  0
 40 38  1  6  0  0  0
 40 46  1  0  0  0  0
 42 44  1  0  0  0  0
 44 41  2  0  0  0  0
 46 41  1  0  0  0  0
 47 42  1  0  0  0  0
 47 43  2  0  0  0  0
 48 47  1  0  0  0  0
 49 48  1  0  0  0  0
 50  7  1  0  0  0  0
 51 57  2  0  0  0  0
 52 54  1  0  0  0  0
 52 62  1  0  0  0  0
 53 56  1  0  0  0  0
 53 50  1  1  0  0  0
 54 57  1  6  0  0  0
 54 60  1  0  0  0  0
 55 53  1  0  0  0  0
 55 63  1  0  0  0  0
 55 57  1  1  0  0  0
 56 61  1  6  0  0  0
 60 58  1  0  0  0  0
 60 59  2  0  0  0  0
 62 64  2  0  0  0  0
 63 56  1  0  0  0  0
 63 52  1  1  0  0  0
 64 59  1  0  0  0  0
 66 62  1  0  0  0  0
 66 65  1  0  0  0  0
M  END
>  <MODEL>
5

>  <REMARK>
 VINA RESULT:      -6.9      1.585      2.450
  Name = 
  10 active torsions:
  status: ('A' for Active; 'I' for Inactive)
    1  A    between atoms: C_6  and  C_30
    2  A    between atoms: C_6  and  C_51
    3  A    between atoms: O_13  and  C_65
    4  A    between atoms: C_15  and  C_54
    5  A    between atoms: C_17  and  N_60
    6  A    between atoms: N_21  and  N_60
    7  A    between atoms: C_27  and  C_51
    8  A    between atoms: C_30  and  C_56
    9  A    between atoms: N_39  and  N_62
   10  A    between atoms: C_53  and  C_55
                            x       y       z     vdW  Elec       q    Type
                         _______ _______ _______ _____ _____    ______ ____

>  <TORSDO>
F 10

$$$$
=
 OpenBabel11042412493D

 66 77  0  0  1  0  0  0  0  0999 V2000
  182.6830  177.7450  139.7680 C   0  0  0  0  0  2  0  0  0  0  0  0
  187.6710  177.9230  136.8840 N   0  0  0  0  0  0  0  0  0  0  0  0
  183.9400  179.8430  139.5840 C   0  0  0  0  0  2  0  0  0  0  0  0
  190.1210  177.2860  140.3320 C   0  0  0  0  0  3  0  0  0  0  0  0
  186.1350  178.6550  140.8480 C   0  0  0  0  0  2  0  0  0  0  0  0
  186.2320  178.1300  137.0440 C   0  0  2  0  0  3  0  0  0  0  0  0
  182.3900  178.3500  141.0830 N   0  0  0  0  0  0  0  0  0  0  0  0
  186.6630  178.5020  139.4440 C   0  0  2  0  0  3  0  0  0  0  0  0
  188.8170  177.5280  140.4520 C   0  0  0  0  0  3  0  0  0  0  0  0
  185.8990  178.7860  138.3570 C   0  0  2  0  0  3  0  0  0  0  0  0
  184.8540  177.8280  141.0080 C   0  0  0  0  0  2  0  0  0  0  0  0
  188.5090  177.6740  138.0260 C   0  0  0  0  0  0  0  0  0  0  0  0
  183.6810  178.5800  140.4030 C   0  0  1  0  0  0  0  0  0  0  0  0
  188.0030  177.8730  139.2660 C   0  0  0  0  0  0  0  0  0  0  0  0
  190.8010  177.4650  139.0050 C   0  0  2  0  0  3  0  0  0  0  0  0
  188.1860  177.7460  135.5370 C   0  0  0  0  0  1  0  0  0  0  0  0
  184.6920  179.5210  138.4120 O   0  0  0  0  0  0  0  0  0  0  0  0
  189.8750  177.0530  137.8560 C   0  0  0  0  0  2  0  0  0  0  0  0
  185.1620  173.2390  137.6800 C   0  0  0  0  0  3  0  0  0  0  0  0
  185.1700  174.5790  137.3230 C   0  0  0  0  0  0  0  0  0  0  0  0
  183.8000  172.8930  137.6320 C   0  0  0  0  0  3  0  0  0  0  0  0
  183.7980  176.6460  136.8970 S   0  0  0  0  0  0  0  0  0  0  0  0
  186.1240  175.5720  137.2550 C   0  0  0  0  0  3  0  0  0  0  0  0
  183.9180  174.9860  137.1210 C   0  0  0  0  0  0  0  0  0  0  0  0
  185.5040  176.8160  137.0030 C   0  0  0  0  0  0  0  0  0  0  0  0
  183.0540  173.9820  137.2960 N   0  0  0  0  0  0  0  0  0  0  0  0
  181.2120  173.4360  135.8060 C   0  0  0  0  0  0  0  0  0  0  0  0
  180.1630  172.3660  135.8280 C   0  0  0  0  0  2  0  0  0  0  0  0
  181.7480  173.8250  134.6550 C   0  0  0  0  0  2  0  0  0  0  0  0
  180.4750  172.3530  138.4290 C   0  0  1  0  0  3  0  0  0  0  0  0
  180.2440  171.5510  137.1260 C   0  0  1  0  0  3  0  0  0  0  0  0
  180.7610  173.8420  138.1780 C   0  0  0  0  0  2  0  0  0  0  0  0
  181.6730  173.9870  137.0480 N   0  0  0  0  0  0  0  0  0  0  0  0
  179.0710  171.9640  137.9960 C   0  0  0  0  0  2  0  0  0  0  0  0
  193.0330  177.0990  139.6850 O   0  0  0  0  0  0  0  0  0  0  0  0
  192.1100  176.7510  138.9660 C   0  0  0  0  0  0  0  0  0  0  0  0
  192.2920  175.6280  137.9990 C   0  0  0  0  0  2  0  0  0  0  0  0
  193.1790  176.0600  136.8470 C   0  0  0  0  0  2  0  0  0  0  0  0
  195.3710  174.8240  136.8610 C   0  0  1  0  0  3  0  0  0  0  0  0
  193.9460  174.8710  136.2980 C   0  0  1  0  0  3  0  0  0  0  0  0
  193.9060  172.4230  136.4290 C   0  0  0  0  0  3  0  0  0  0  0  0
  196.0280  173.5640  136.4750 N   0  0  0  0  0  0  0  0  0  0  0  0
  197.9960  172.3700  136.0470 O   0  0  0  0  0  0  0  0  0  0  0  0
  195.2370  172.3710  136.3420 C   0  0  0  0  0  3  0  0  0  0  0  0
  196.0970  175.9320  136.3970 O   0  0  0  0  0  1  0  0  0  0  0  0
  193.2650  173.6530  136.5880 O   0  0  0  0  0  0  0  0  0  0  0  0
  197.4610  173.4260  136.4880 C   0  0  0  0  0  0  0  0  0  0  0  0
  198.2580  174.4550  137.0000 O   0  0  0  0  0  0  0  0  0  0  0  0
  198.6160  174.5190  138.3660 C   0  0  0  0  0  1  0  0  0  0  0  0
  181.5540  179.4700  140.8790 N   0  0  0  0  0  2  0  0  0  0  0  0
  180.0280  181.9580  139.4950 O   0  0  0  0  0  0  0  0  0  0  0  0
  179.5200  178.8500  137.9960 N   0  0  0  0  0  0  0  0  0  0  0  0
  180.1710  179.0380  141.0360 C   0  0  1  0  0  3  0  0  0  0  0  0
  180.1030  180.1850  137.8920 C   0  0  2  0  0  3  0  0  0  0  0  0
  179.1710  179.8260  140.1650 C   0  0  1  0  0  3  0  0  0  0  0  0
  179.9470  177.8030  140.1680 C   0  0  1  0  0  3  0  0  0  0  0  0
  179.7760  180.8000  139.2020 C   0  0  0  0  0  0  0  0  0  0  0  0
  179.7960  182.3930  136.5380 C   0  0  0  0  0  1  0  0  0  0  0  0
  179.1330  180.2390  135.6260 C   0  0  0  0  0  3  0  0  0  0  0  0
  179.5810  180.9260  136.6820 C   0  0  0  0  0  0  0  0  0  0  0  0
  179.2750  176.8280  140.9070 O   0  0  0  0  0  1  0  0  0  0  0  0
  179.1500  178.1110  136.8210 C   0  0  0  0  0  0  0  0  0  0  0  0
  178.9530  178.5700  139.3150 C   0  0  2  0  0  3  0  0  0  0  0  0
  178.9620  178.7760  135.6750 C   0  0  0  0  0  3  0  0  0  0  0  0
  179.0860  176.0880  135.6030 O   0  0  0  0  0  1  0  0  0  0  0  0
  178.9310  176.6330  136.8770 C   0  0  0  0  0  2  0  0  0  0  0  0
  1 13  1  0  0  0  0
  1  7  1  0  0  0  0
  2  6  1  0  0  0  0
  2 12  1  0  0  0  0
  4  9  2  0  0  0  0
  5 11  1  0  0  0  0
  6 25  1  1  0  0  0
  6 10  1  0  0  0  0
  8  5  1  1  0  0  0
 10 17  1  1  0  0  0
 10  8  1  0  0  0  0
 12 14  2  0  0  0  0
 13  3  1  6  0  0  0
 13 11  1  0  0  0  0
 13  7  1  0  0  0  0
 14  8  1  0  0  0  0
 14  9  1  0  0  0  0
 15 36  1  1  0  0  0
 15  4  1  0  0  0  0
 16  2  1  0  0  0  0
 17  3  1  0  0  0  0
 18 12  1  0  0  0  0
 18 15  1  0  0  0  0
 20 19  1  0  0  0  0
 21 19  2  0  0  0  0
 22 25  1  0  0  0  0
 22 24  1  0  0  0  0
 23 20  1  0  0  0  0
 24 26  1  0  0  0  0
 24 20  2  0  0  0  0
 25 23  2  0  0  0  0
 26 21  1  0  0  0  0
 27 28  1  0  0  0  0
 27 33  1  0  0  0  0
 29 27  2  0  0  0  0
 30 34  1  1  0  0  0
 31 28  1  6  0  0  0
 31 34  1  0  0  0  0
 31 30  1  0  0  0  0
 32 30  1  0  0  0  0
 33 26  1  0  0  0  0
 33 32  1  0  0  0  0
 36 35  2  0  0  0  0
 37 36  1  0  0  0  0
 38 37  1  0  0  0  0
 39 45  1  6  0  0  0
 40 46  1  0  0  0  0
 40 38  1  1  0  0  0
 40 39  1  0  0  0  0
 41 46  1  0  0  0  0
 42 47  1  0  0  0  0
 42 39  1  0  0  0  0
 43 47  2  0  0  0  0
 44 41  2  0  0  0  0
 44 42  1  0  0  0  0
 47 48  1  0  0  0  0
 48 49  1  0  0  0  0
 50  7  1  0  0  0  0
 53 50  1  6  0  0  0
 54 60  1  6  0  0  0
 54 52  1  0  0  0  0
 54 57  1  0  0  0  0
 55 57  1  6  0  0  0
 55 53  1  0  0  0  0
 56 61  1  1  0  0  0
 56 53  1  0  0  0  0
 57 51  2  0  0  0  0
 58 60  1  0  0  0  0
 59 64  1  0  0  0  0
 59 60  2  0  0  0  0
 62 66  1  0  0  0  0
 62 52  1  0  0  0  0
 63 52  1  6  0  0  0
 63 55  1  0  0  0  0
 63 56  1  0  0  0  0
 64 62  2  0  0  0  0
 65 66  1  0  0  0  0
M  END
>  <MODEL>
6

>  <REMARK>
 VINA RESULT:      -6.9      2.743     12.846
  Name = 
  10 active torsions:
  status: ('A' for Active; 'I' for Inactive)
    1  A    between atoms: C_6  and  C_30
    2  A    between atoms: C_6  and  C_51
    3  A    between atoms: O_13  and  C_65
    4  A    between atoms: C_15  and  C_54
    5  A    between atoms: C_17  and  N_60
    6  A    between atoms: N_21  and  N_60
    7  A    between atoms: C_27  and  C_51
    8  A    between atoms: C_30  and  C_56
    9  A    between atoms: N_39  and  N_62
   10  A    between atoms: C_53  and  C_55
                            x       y       z     vdW  Elec       q    Type
                         _______ _______ _______ _____ _____    ______ ____

>  <TORSDO>
F 10

$$$$
=
 OpenBabel11042412493D

 66 77  0  0  1  0  0  0  0  0999 V2000
  192.5410  175.7680  138.3740 C   0  0  0  0  0  2  0  0  0  0  0  0
  187.4460  176.4800  135.7750 N   0  0  0  0  0  0  0  0  0  0  0  0
  192.2680  175.2170  136.0000 C   0  0  0  0  0  2  0  0  0  0  0  0
  186.1440  172.4530  136.3910 C   0  0  0  0  0  3  0  0  0  0  0  0
  190.2860  173.3520  136.6460 C   0  0  0  0  0  2  0  0  0  0  0  0
  188.8150  176.8620  136.1200 C   0  0  2  0  0  3  0  0  0  0  0  0
  193.4460  174.6060  138.2620 N   0  0  0  0  0  0  0  0  0  0  0  0
  189.3380  174.4540  136.2470 C   0  0  2  0  0  3  0  0  0  0  0  0
  187.4000  172.8150  136.6480 C   0  0  0  0  0  3  0  0  0  0  0  0
  189.7750  175.7120  135.9740 C   0  0  2  0  0  3  0  0  0  0  0  0
  191.0940  173.7900  137.8730 C   0  0  0  0  0  2  0  0  0  0  0  0
  186.9760  175.1410  136.0040 C   0  0  0  0  0  0  0  0  0  0  0  0
  192.2230  174.7090  137.4400 C   0  0  1  0  0  0  0  0  0  0  0  0
  187.8740  174.1760  136.3120 C   0  0  0  0  0  0  0  0  0  0  0  0
  185.2250  173.3890  135.6580 C   0  0  2  0  0  3  0  0  0  0  0  0
  186.5170  177.5380  135.4170 C   0  0  0  0  0  1  0  0  0  0  0  0
  191.1290  176.0410  135.7360 O   0  0  0  0  0  0  0  0  0  0  0  0
  185.4960  174.8430  136.0550 C   0  0  0  0  0  2  0  0  0  0  0  0
  187.7120  179.2440  140.4310 C   0  0  0  0  0  3  0  0  0  0  0  0
  188.2930  178.4980  139.4170 C   0  0  0  0  0  0  0  0  0  0  0  0
  188.2410  178.6760  141.6030 C   0  0  0  0  0  3  0  0  0  0  0  0
  189.6430  176.4570  138.8220 S   0  0  0  0  0  0  0  0  0  0  0  0
  188.1630  178.4320  138.0460 C   0  0  0  0  0  3  0  0  0  0  0  0
  189.0640  177.5540  139.9550 C   0  0  0  0  0  0  0  0  0  0  0  0
  188.8870  177.3270  137.5470 C   0  0  0  0  0  0  0  0  0  0  0  0
  189.0610  177.6350  141.2880 N   0  0  0  0  0  0  0  0  0  0  0  0
  191.1740  177.3790  142.4640 C   0  0  0  0  0  0  0  0  0  0  0  0
  191.5870  177.6150  143.8850 C   0  0  0  0  0  2  0  0  0  0  0  0
  192.0060  177.6600  141.4690 C   0  0  0  0  0  2  0  0  0  0  0  0
  189.0820  177.1670  144.5080 C   0  0  1  0  0  3  0  0  0  0  0  0
  190.3740  177.9830  144.7500 C   0  0  1  0  0  3  0  0  0  0  0  0
  189.1830  176.2230  143.3000 C   0  0  0  0  0  2  0  0  0  0  0  0
  189.8460  176.9050  142.1930 N   0  0  0  0  0  0  0  0  0  0  0  0
  190.0490  176.7770  145.6140 C   0  0  0  0  0  2  0  0  0  0  0  0
  183.4760  171.8310  135.9620 O   0  0  0  0  0  0  0  0  0  0  0  0
  183.7960  173.0030  135.8480 C   0  0  0  0  0  0  0  0  0  0  0  0
  182.7550  174.0720  135.8490 C   0  0  0  0  0  2  0  0  0  0  0  0
  182.1440  174.2150  137.2300 C   0  0  0  0  0  2  0  0  0  0  0  0
  182.3660  176.3040  138.6160 C   0  0  1  0  0  3  0  0  0  0  0  0
  181.6440  175.6320  137.4420 C   0  0  1  0  0  3  0  0  0  0  0  0
  181.6800  177.7980  136.2930 C   0  0  0  0  0  3  0  0  0  0  0  0
  182.0130  177.7320  138.6790 N   0  0  0  0  0  0  0  0  0  0  0  0
  181.7720  179.6910  139.9370 O   0  0  0  0  0  0  0  0  0  0  0  0
  181.7450  178.4440  137.4580 C   0  0  0  0  0  3  0  0  0  0  0  0
  182.0300  175.6500  139.8110 O   0  0  0  0  0  1  0  0  0  0  0  0
  181.8080  176.4080  136.2580 O   0  0  0  0  0  0  0  0  0  0  0  0
  182.1860  178.4990  139.8840 C   0  0  0  0  0  0  0  0  0  0  0  0
  182.8250  177.9290  140.9900 O   0  0  0  0  0  0  0  0  0  0  0  0
  184.1860  178.1750  141.2820 C   0  0  0  0  0  1  0  0  0  0  0  0
  194.5610  174.9870  137.4820 N   0  0  0  0  0  2  0  0  0  0  0  0
  194.1220  171.8200  137.9420 O   0  0  0  0  0  0  0  0  0  0  0  0
  196.9730  172.7040  136.1390 N   0  0  0  0  0  0  0  0  0  0  0  0
  195.7690  174.6690  138.2330 C   0  0  1  0  0  3  0  0  0  0  0  0
  195.6570  172.0710  136.1260 C   0  0  2  0  0  3  0  0  0  0  0  0
  196.0690  173.1590  138.3190 C   0  0  1  0  0  3  0  0  0  0  0  0
  196.9740  174.8520  137.3140 C   0  0  1  0  0  3  0  0  0  0  0  0
  195.1710  172.2720  137.5140 C   0  0  0  0  0  0  0  0  0  0  0  0
  194.5850  169.7080  135.8660 C   0  0  0  0  0  1  0  0  0  0  0  0
  196.7450  170.2390  134.8850 C   0  0  0  0  0  3  0  0  0  0  0  0
  195.7370  170.6310  135.6720 C   0  0  0  0  0  0  0  0  0  0  0  0
  197.9650  175.5760  137.9790 O   0  0  0  0  0  1  0  0  0  0  0  0
  197.9900  172.3150  135.2020 C   0  0  0  0  0  0  0  0  0  0  0  0
  197.2810  173.3680  137.4060 C   0  0  2  0  0  3  0  0  0  0  0  0
  197.8850  171.1270  134.5940 C   0  0  0  0  0  3  0  0  0  0  0  0
  198.7360  174.4750  134.6060 O   0  0  0  0  0  1  0  0  0  0  0  0
  199.1710  173.1930  134.9370 C   0  0  0  0  0  2  0  0  0  0  0  0
  2 12  1  0  0  0  0
  2  6  1  0  0  0  0
  4  9  2  0  0  0  0
  5 11  1  0  0  0  0
  6 25  1  1  0  0  0
  7  1  1  0  0  0  0
  8 14  1  0  0  0  0
  8  5  1  1  0  0  0
 10 17  1  1  0  0  0
 10  6  1  0  0  0  0
 10  8  1  0  0  0  0
 12 18  1  0  0  0  0
 12 14  2  0  0  0  0
 13  3  1  6  0  0  0
 13 11  1  0  0  0  0
 13  7  1  0  0  0  0
 13  1  1  0  0  0  0
 14  9  1  0  0  0  0
 15 36  1  1  0  0  0
 15 18  1  0  0  0  0
 15  4  1  0  0  0  0
 16  2  1  0  0  0  0
 17  3  1  0  0  0  0
 19 21  2  0  0  0  0
 20 24  2  0  0  0  0
 20 19  1  0  0  0  0
 22 24  1  0  0  0  0
 23 20  1  0  0  0  0
 24 26  1  0  0  0  0
 25 23  2  0  0  0  0
 25 22  1  0  0  0  0
 26 21  1  0  0  0  0
 26 33  1  0  0  0  0
 27 28  1  0  0  0  0
 29 27  2  0  0  0  0
 30 32  1  6  0  0  0
 30 31  1  0  0  0  0
 30 34  1  0  0  0  0
 31 28  1  6  0  0  0
 31 34  1  0  0  0  0
 33 27  1  0  0  0  0
 33 32  1  0  0  0  0
 36 37  1  0  0  0  0
 36 35  2  0  0  0  0
 37 38  1  0  0  0  0
 39 42  1  0  0  0  0
 39 45  1  1  0  0  0
 40 38  1  6  0  0  0
 40 39  1  0  0  0  0
 41 44  2  0  0  0  0
 42 47  1  0  0  0  0
 44 42  1  0  0  0  0
 46 41  1  0  0  0  0
 46 40  1  0  0  0  0
 47 43  2  0  0  0  0
 47 48  1  0  0  0  0
 48 49  1  0  0  0  0
 50  7  1  0  0  0  0
 53 50  1  6  0  0  0
 53 55  1  0  0  0  0
 54 60  1  1  0  0  0
 54 52  1  0  0  0  0
 54 57  1  0  0  0  0
 55 57  1  6  0  0  0
 56 63  1  0  0  0  0
 56 61  1  1  0  0  0
 56 53  1  0  0  0  0
 57 51  2  0  0  0  0
 59 60  2  0  0  0  0
 60 58  1  0  0  0  0
 62 52  1  0  0  0  0
 63 52  1  6  0  0  0
 63 55  1  0  0  0  0
 64 59  1  0  0  0  0
 64 62  2  0  0  0  0
 65 66  1  0  0  0  0
 66 62  1  0  0  0  0
M  END
>  <MODEL>
7

>  <REMARK>
 VINA RESULT:      -6.6      2.441      3.932
  Name = 
  10 active torsions:
  status: ('A' for Active; 'I' for Inactive)
    1  A    between atoms: C_6  and  C_30
    2  A    between atoms: C_6  and  C_51
    3  A    between atoms: O_13  and  C_65
    4  A    between atoms: C_15  and  C_54
    5  A    between atoms: C_17  and  N_60
    6  A    between atoms: N_21  and  N_60
    7  A    between atoms: C_27  and  C_51
    8  A    between atoms: C_30  and  C_56
    9  A    between atoms: N_39  and  N_62
   10  A    between atoms: C_53  and  C_55
                            x       y       z     vdW  Elec       q    Type
                         _______ _______ _______ _____ _____    ______ ____

>  <TORSDO>
F 10

$$$$
=
 OpenBabel11042412493D

 66 77  0  0  1  0  0  0  0  0999 V2000
  192.3950  175.0340  137.7330 C   0  0  0  0  0  2  0  0  0  0  0  0
  187.4030  177.8820  137.2930 N   0  0  0  0  0  0  0  0  0  0  0  0
  191.4680  175.5860  135.5310 C   0  0  0  0  0  2  0  0  0  0  0  0
  184.9960  174.3670  136.9220 C   0  0  0  0  0  3  0  0  0  0  0  0
  189.1590  174.1200  136.1210 C   0  0  0  0  0  2  0  0  0  0  0  0
  188.8610  177.7690  137.2880 C   0  0  2  0  0  3  0  0  0  0  0  0
  192.8190  173.8500  136.9580 N   0  0  0  0  0  0  0  0  0  0  0  0
  188.5690  175.4720  136.4350 C   0  0  2  0  0  3  0  0  0  0  0  0
  186.3250  174.2980  136.8680 C   0  0  0  0  0  3  0  0  0  0  0  0
  189.3320  176.5960  136.4700 C   0  0  2  0  0  3  0  0  0  0  0  0
  190.3020  173.8200  137.0960 C   0  0  0  0  0  2  0  0  0  0  0  0
  186.5740  176.7110  137.2030 C   0  0  0  0  0  0  0  0  0  0  0  0
  191.5570  174.5550  136.6540 C   0  0  1  0  0  0  0  0  0  0  0  0
  187.1440  175.5300  136.8690 C   0  0  0  0  0  0  0  0  0  0  0  0
  184.3100  175.7020  136.8760 C   0  0  2  0  0  3  0  0  0  0  0  0
  186.8250  179.1740  137.6230 C   0  0  0  0  0  1  0  0  0  0  0  0
  190.6380  176.6790  135.9340 O   0  0  0  0  0  0  0  0  0  0  0  0
  185.1240  176.7620  137.6240 C   0  0  0  0  0  2  0  0  0  0  0  0
  192.0020  176.9150  141.1450 C   0  0  0  0  0  3  0  0  0  0  0  0
  190.9040  177.1360  140.3280 C   0  0  0  0  0  0  0  0  0  0  0  0
  191.5790  177.3820  142.4010 C   0  0  0  0  0  3  0  0  0  0  0  0
  188.6450  178.2250  140.0980 S   0  0  0  0  0  0  0  0  0  0  0  0
  190.6400  177.0140  138.9810 C   0  0  0  0  0  3  0  0  0  0  0  0
  189.9390  177.7150  141.0410 C   0  0  0  0  0  0  0  0  0  0  0  0
  189.3790  177.5760  138.6860 C   0  0  0  0  0  0  0  0  0  0  0  0
  190.3130  177.8770  142.3120 N   0  0  0  0  0  0  0  0  0  0  0  0
  188.3620  177.5670  143.7300 C   0  0  0  0  0  0  0  0  0  0  0  0
  188.1900  177.0950  145.1420 C   0  0  0  0  0  2  0  0  0  0  0  0
  187.4750  177.2350  142.8000 C   0  0  0  0  0  2  0  0  0  0  0  0
  190.6250  177.9700  145.5500 C   0  0  1  0  0  3  0  0  0  0  0  0
  189.5530  176.8870  145.8160 C   0  0  1  0  0  3  0  0  0  0  0  0
  190.1910  179.0030  144.4980 C   0  0  0  0  0  2  0  0  0  0  0  0
  189.5300  178.3280  143.3860 N   0  0  0  0  0  0  0  0  0  0  0  0
  189.7550  178.0290  146.7950 C   0  0  0  0  0  2  0  0  0  0  0  0
  182.6300  174.9020  138.3320 O   0  0  0  0  0  0  0  0  0  0  0  0
  182.9060  175.6060  137.3740 C   0  0  0  0  0  0  0  0  0  0  0  0
  181.8320  176.3490  136.6520 C   0  0  0  0  0  2  0  0  0  0  0  0
  180.5230  176.2600  137.4130 C   0  0  0  0  0  2  0  0  0  0  0  0
  180.5240  177.6650  139.5020 C   0  0  1  0  0  3  0  0  0  0  0  0
  180.1670  177.6090  138.0110 C   0  0  1  0  0  3  0  0  0  0  0  0
  180.8730  179.9510  137.8440 C   0  0  0  0  0  3  0  0  0  0  0  0
  180.3570  179.0360  140.0120 N   0  0  0  0  0  0  0  0  0  0  0  0
  179.9540  180.4770  141.8130 O   0  0  0  0  0  0  0  0  0  0  0  0
  180.6180  180.1480  139.1390 C   0  0  0  0  0  3  0  0  0  0  0  0
  179.7170  176.7620  140.2120 O   0  0  0  0  0  1  0  0  0  0  0  0
  180.8260  178.6620  137.3110 O   0  0  0  0  0  0  0  0  0  0  0  0
  180.2050  179.3030  141.4190 C   0  0  0  0  0  0  0  0  0  0  0  0
  180.3460  178.2660  142.3470 O   0  0  0  0  0  0  0  0  0  0  0  0
  180.5910  178.5130  143.7170 C   0  0  0  0  0  1  0  0  0  0  0  0
  193.8090  174.2550  136.0360 N   0  0  0  0  0  2  0  0  0  0  0  0
  194.7660  172.0320  138.1750 O   0  0  0  0  0  0  0  0  0  0  0  0
  197.2330  173.2020  136.0050 N   0  0  0  0  0  0  0  0  0  0  0  0
  194.8180  175.0180  136.7600 C   0  0  1  0  0  3  0  0  0  0  0  0
  196.3920  172.0830  136.4230 C   0  0  2  0  0  3  0  0  0  0  0  0
  195.7430  174.1500  137.6360 C   0  0  1  0  0  3  0  0  0  0  0  0
  195.9830  175.2990  135.8150 C   0  0  1  0  0  3  0  0  0  0  0  0
  195.5620  172.6700  137.5040 C   0  0  0  0  0  0  0  0  0  0  0  0
  196.6060  169.7470  137.5620 C   0  0  0  0  0  1  0  0  0  0  0  0
  198.4480  170.7270  136.3150 C   0  0  0  0  0  3  0  0  0  0  0  0
  197.2220  170.8840  136.8230 C   0  0  0  0  0  0  0  0  0  0  0  0
  196.3510  176.6420  135.9130 O   0  0  0  0  0  1  0  0  0  0  0  0
  198.5010  172.9770  135.3690 C   0  0  0  0  0  0  0  0  0  0  0  0
  196.9010  174.4560  136.6820 C   0  0  2  0  0  3  0  0  0  0  0  0
  199.0920  171.7850  135.5150 C   0  0  0  0  0  3  0  0  0  0  0  0
  199.1080  175.2590  135.3050 O   0  0  0  0  0  1  0  0  0  0  0  0
  199.1780  174.0620  134.5940 C   0  0  0  0  0  2  0  0  0  0  0  0
  2 16  1  0  0  0  0
  3 17  1  0  0  0  0
  5 11  1  0  0  0  0
  6  2  1  0  0  0  0
  6 25  1  1  0  0  0
  7  1  1  0  0  0  0
  8  5  1  1  0  0  0
  8 10  1  0  0  0  0
  8 14  1  0  0  0  0
  9 14  1  0  0  0  0
  9  4  2  0  0  0  0
 10 17  1  1  0  0  0
 10  6  1  0  0  0  0
 12  2  1  0  0  0  0
 12 18  1  0  0  0  0
 13  3  1  6  0  0  0
 13  7  1  0  0  0  0
 13 11  1  0  0  0  0
 13  1  1  0  0  0  0
 14 12  2  0  0  0  0
 15  4  1  0  0  0  0
 15 36  1  1  0  0  0
 15 18  1  0  0  0  0
 19 21  2  0  0  0  0
 20 24  2  0  0  0  0
 20 19  1  0  0  0  0
 22 24  1  0  0  0  0
 23 20  1  0  0  0  0
 24 26  1  0  0  0  0
 25 23  2  0  0  0  0
 25 22  1  0  0  0  0
 26 21  1  0  0  0  0
 26 33  1  0  0  0  0
 27 28  1  0  0  0  0
 29 27  2  0  0  0  0
 30 32  1  6  0  0  0
 30 31  1  0  0  0  0
 30 34  1  0  0  0  0
 31 28  1  6  0  0  0
 31 34  1  0  0  0  0
 33 27  1  0  0  0  0
 33 32  1  0  0  0  0
 36 35  2  0  0  0  0
 37 36  1  0  0  0  0
 37 38  1  0  0  0  0
 39 42  1  0  0  0  0
 39 45  1  1  0  0  0
 40 38  1  6  0  0  0
 40 39  1  0  0  0  0
 41 44  2  0  0  0  0
 42 47  1  0  0  0  0
 44 42  1  0  0  0  0
 46 41  1  0  0  0  0
 46 40  1  0  0  0  0
 47 43  2  0  0  0  0
 47 48  1  0  0  0  0
 48 49  1  0  0  0  0
 50  7  1  0  0  0  0
 52 54  1  0  0  0  0
 53 50  1  6  0  0  0
 53 55  1  0  0  0  0
 54 60  1  1  0  0  0
 54 57  1  0  0  0  0
 55 57  1  6  0  0  0
 56 61  1  1  0  0  0
 56 63  1  0  0  0  0
 56 53  1  0  0  0  0
 57 51  2  0  0  0  0
 59 60  2  0  0  0  0
 60 58  1  0  0  0  0
 62 64  2  0  0  0  0
 62 52  1  0  0  0  0
 63 52  1  6  0  0  0
 63 55  1  0  0  0  0
 64 59  1  0  0  0  0
 66 65  1  0  0  0  0
 66 62  1  0  0  0  0
M  END
>  <MODEL>
8

>  <REMARK>
 VINA RESULT:      -6.5      1.729      2.973
  Name = 
  10 active torsions:
  status: ('A' for Active; 'I' for Inactive)
    1  A    between atoms: C_6  and  C_30
    2  A    between atoms: C_6  and  C_51
    3  A    between atoms: O_13  and  C_65
    4  A    between atoms: C_15  and  C_54
    5  A    between atoms: C_17  and  N_60
    6  A    between atoms: N_21  and  N_60
    7  A    between atoms: C_27  and  C_51
    8  A    between atoms: C_30  and  C_56
    9  A    between atoms: N_39  and  N_62
   10  A    between atoms: C_53  and  C_55
                            x       y       z     vdW  Elec       q    Type
                         _______ _______ _______ _____ _____    ______ ____

>  <TORSDO>
F 10

$$$$
=
 OpenBabel11042412493D

 66 77  0  0  1  0  0  0  0  0999 V2000
  182.7610  176.8300  136.6360 C   0  0  0  0  0  2  0  0  0  0  0  0
  188.5250  176.8860  136.5690 N   0  0  0  0  0  0  0  0  0  0  0  0
  183.9800  178.9260  136.2700 C   0  0  0  0  0  2  0  0  0  0  0  0
  188.9380  177.8950  140.7040 C   0  0  0  0  0  3  0  0  0  0  0  0
  185.2420  178.6400  138.7510 C   0  0  0  0  0  2  0  0  0  0  0  0
  187.1980  176.8800  135.9510 C   0  0  2  0  0  3  0  0  0  0  0  0
  181.8670  177.7840  137.3220 N   0  0  0  0  0  0  0  0  0  0  0  0
  186.3930  178.1140  137.9300 C   0  0  2  0  0  3  0  0  0  0  0  0
  187.7500  177.9320  140.1040 C   0  0  0  0  0  3  0  0  0  0  0  0
  186.2710  177.8740  136.5980 C   0  0  2  0  0  3  0  0  0  0  0  0
  184.0360  177.7060  138.6010 C   0  0  0  0  0  2  0  0  0  0  0  0
  188.6840  177.1900  137.9650 C   0  0  0  0  0  0  0  0  0  0  0  0
  183.3290  177.9910  137.2880 C   0  0  1  0  0  0  0  0  0  0  0  0
  187.6350  177.7060  138.6470 C   0  0  0  0  0  0  0  0  0  0  0  0
  190.1880  177.7290  139.8880 C   0  0  2  0  0  3  0  0  0  0  0  0
  189.6350  176.3550  135.7960 C   0  0  0  0  0  1  0  0  0  0  0  0
  185.2080  178.3610  135.8030 O   0  0  0  0  0  0  0  0  0  0  0  0
  189.9450  176.7970  138.6980 C   0  0  0  0  0  2  0  0  0  0  0  0
  185.4270  172.6100  137.9750 C   0  0  0  0  0  3  0  0  0  0  0  0
  185.8420  173.6260  137.1280 C   0  0  0  0  0  0  0  0  0  0  0  0
  184.4670  171.9190  137.2160 C   0  0  0  0  0  3  0  0  0  0  0  0
  185.4230  174.8680  134.9780 S   0  0  0  0  0  0  0  0  0  0  0  0
  186.6740  174.7200  137.2370 C   0  0  0  0  0  3  0  0  0  0  0  0
  185.1550  173.5530  135.9890 C   0  0  0  0  0  0  0  0  0  0  0  0
  186.5640  175.5250  136.0830 C   0  0  0  0  0  0  0  0  0  0  0  0
  184.3090  172.5200  136.0040 N   0  0  0  0  0  0  0  0  0  0  0  0
  183.4970  170.6290  134.7090 C   0  0  0  0  0  0  0  0  0  0  0  0
  182.1790  169.9180  134.6550 C   0  0  0  0  0  2  0  0  0  0  0  0
  184.6310  169.9480  134.5940 C   0  0  0  0  0  2  0  0  0  0  0  0
  181.1210  172.1790  135.4490 C   0  0  1  0  0  3  0  0  0  0  0  0
  181.1390  170.6340  135.5270 C   0  0  1  0  0  3  0  0  0  0  0  0
  182.2840  172.7550  134.6250 C   0  0  0  0  0  2  0  0  0  0  0  0
  183.5170  172.0440  134.9480 N   0  0  0  0  0  0  0  0  0  0  0  0
  180.1780  171.3480  134.5940 C   0  0  0  0  0  2  0  0  0  0  0  0
  192.4510  177.1600  140.2610 O   0  0  0  0  0  0  0  0  0  0  0  0
  191.3330  177.2840  140.7360 C   0  0  0  0  0  0  0  0  0  0  0  0
  191.0820  176.9460  142.1680 C   0  0  0  0  0  2  0  0  0  0  0  0
  191.9030  177.8420  143.0760 C   0  0  0  0  0  2  0  0  0  0  0  0
  189.7910  177.7660  144.4420 C   0  0  1  0  0  3  0  0  0  0  0  0
  191.3220  177.8470  144.4770 C   0  0  1  0  0  3  0  0  0  0  0  0
  191.2650  176.4090  146.4620 C   0  0  0  0  0  3  0  0  0  0  0  0
  189.2610  177.5730  145.8020 N   0  0  0  0  0  0  0  0  0  0  0  0
  187.5020  177.8090  147.3290 O   0  0  0  0  0  0  0  0  0  0  0  0
  190.0290  176.8160  146.7540 C   0  0  0  0  0  3  0  0  0  0  0  0
  189.2720  178.9340  143.8610 O   0  0  0  0  0  1  0  0  0  0  0  0
  191.8510  176.7710  145.2480 O   0  0  0  0  0  0  0  0  0  0  0  0
  187.8940  177.8820  146.1300 C   0  0  0  0  0  0  0  0  0  0  0  0
  186.9990  178.2500  145.1200 O   0  0  0  0  0  0  0  0  0  0  0  0
  185.6010  178.0960  145.2630 C   0  0  0  0  0  1  0  0  0  0  0  0
  181.2600  178.6040  136.3440 N   0  0  0  0  0  2  0  0  0  0  0  0
  179.1180  176.2310  135.8800 O   0  0  0  0  0  0  0  0  0  0  0  0
  179.7010  177.1130  139.2040 N   0  0  0  0  0  0  0  0  0  0  0  0
  180.0750  179.2130  136.9350 C   0  0  1  0  0  3  0  0  0  0  0  0
  179.8410  176.1050  138.1560 C   0  0  2  0  0  3  0  0  0  0  0  0
  178.9330  178.2130  137.2090 C   0  0  1  0  0  3  0  0  0  0  0  0
  180.3020  179.3590  138.4370 C   0  0  1  0  0  3  0  0  0  0  0  0
  179.2600  176.7730  136.9650 C   0  0  0  0  0  0  0  0  0  0  0  0
  178.9410  173.7380  137.5350 C   0  0  0  0  0  1  0  0  0  0  0  0
  179.0420  174.4950  139.8430 C   0  0  0  0  0  3  0  0  0  0  0  0
  179.1880  174.8000  138.5500 C   0  0  0  0  0  0  0  0  0  0  0  0
  179.9260  180.6400  138.8450 O   0  0  0  0  0  1  0  0  0  0  0  0
  179.6520  176.7370  140.5900 C   0  0  0  0  0  0  0  0  0  0  0  0
  179.1710  178.3850  138.7130 C   0  0  2  0  0  3  0  0  0  0  0  0
  179.3350  175.4750  140.9040 C   0  0  0  0  0  3  0  0  0  0  0  0
  179.3730  177.2770  142.8720 O   0  0  0  0  0  1  0  0  0  0  0  0
  179.9050  177.7400  141.6700 C   0  0  0  0  0  2  0  0  0  0  0  0
  1 13  1  0  0  0  0
  1  7  1  0  0  0  0
  2 12  1  0  0  0  0
  6 25  1  1  0  0  0
  6  2  1  0  0  0  0
  6 10  1  0  0  0  0
  8 14  1  0  0  0  0
  8  5  1  1  0  0  0
  9  4  2  0  0  0  0
 10 17  1  1  0  0  0
 10  8  1  0  0  0  0
 11  5  1  0  0  0  0
 12 14  2  0  0  0  0
 12 18  1  0  0  0  0
 13  3  1  6  0  0  0
 13  7  1  0  0  0  0
 13 11  1  0  0  0  0
 14  9  1  0  0  0  0
 15  4  1  0  0  0  0
 15 36  1  1  0  0  0
 16  2  1  0  0  0  0
 17  3  1  0  0  0  0
 18 15  1  0  0  0  0
 20 23  1  0  0  0  0
 20 19  1  0  0  0  0
 21 19  2  0  0  0  0
 22 24  1  0  0  0  0
 22 25  1  0  0  0  0
 24 26  1  0  0  0  0
 24 20  2  0  0  0  0
 25 23  2  0  0  0  0
 26 21  1  0  0  0  0
 27 33  1  0  0  0  0
 28 27  1  0  0  0  0
 28 31  1  0  0  0  0
 29 27  2  0  0  0  0
 30 34  1  6  0  0  0
 30 31  1  0  0  0  0
 31 34  1  6  0  0  0
 32 33  1  0  0  0  0
 32 30  1  0  0  0  0
 33 26  1  0  0  0  0
 35 36  2  0  0  0  0
 36 37  1  0  0  0  0
 37 38  1  0  0  0  0
 39 45  1  1  0  0  0
 39 40  1  0  0  0  0
 39 42  1  0  0  0  0
 40 38  1  6  0  0  0
 40 46  1  0  0  0  0
 41 44  2  0  0  0  0
 42 47  1  0  0  0  0
 42 44  1  0  0  0  0
 46 41  1  0  0  0  0
 47 43  2  0  0  0  0
 48 49  1  0  0  0  0
 48 47  1  0  0  0  0
 50  7  1  0  0  0  0
 51 57  2  0  0  0  0
 52 62  1  0  0  0  0
 53 50  1  6  0  0  0
 53 55  1  0  0  0  0
 53 56  1  0  0  0  0
 54 57  1  6  0  0  0
 54 60  1  0  0  0  0
 54 52  1  0  0  0  0
 55 57  1  6  0  0  0
 55 63  1  0  0  0  0
 56 63  1  0  0  0  0
 56 61  1  1  0  0  0
 58 60  1  0  0  0  0
 59 64  1  0  0  0  0
 60 59  2  0  0  0  0
 62 64  2  0  0  0  0
 62 66  1  0  0  0  0
 63 52  1  6  0  0  0
 66 65  1  0  0  0  0
M  END
>  <MODEL>
9

>  <REMARK>
 VINA RESULT:      -6.4      3.744     11.514
  Name = 
  10 active torsions:
  status: ('A' for Active; 'I' for Inactive)
    1  A    between atoms: C_6  and  C_30
    2  A    between atoms: C_6  and  C_51
    3  A    between atoms: O_13  and  C_65
    4  A    between atoms: C_15  and  C_54
    5  A    between atoms: C_17  and  N_60
    6  A    between atoms: N_21  and  N_60
    7  A    between atoms: C_27  and  C_51
    8  A    between atoms: C_30  and  C_56
    9  A    between atoms: N_39  and  N_62
   10  A    between atoms: C_53  and  C_55
                            x       y       z     vdW  Elec       q    Type
                         _______ _______ _______ _____ _____    ______ ____

>  <TORSDO>
F 10

$$$$
