=
 OpenBabel11032419123D

 58 63  0  0  1  0  0  0  0  0999 V2000
  184.5160  179.1730  139.8810 C   0  0  0  0  0  0  0  0  0  0  0  0
  185.9410  178.9710  140.2430 C   0  0  1  0  0  3  0  0  0  0  0  0
  184.1730  180.0270  139.0870 O   0  0  0  0  0  0  0  0  0  0  0  0
  185.2030  179.4280  142.6280 C   0  0  2  0  0  3  0  0  0  0  0  0
  184.4710  178.2120  142.0800 C   0  0  1  0  0  3  0  0  0  0  0  0
  183.5880  178.6520  140.9150 C   0  0  2  0  0  3  0  0  0  0  0  0
  185.9140  178.4650  141.6880 C   0  0  1  0  0  3  0  0  0  0  0  0
  186.6210  177.9300  139.3530 C   0  0  2  0  0  3  0  0  0  0  0  0
  188.1020  177.4300  137.6380 C   0  0  2  0  0  3  0  0  0  0  0  0
  188.4280  176.7170  138.8210 O   0  0  0  0  0  0  0  0  0  0  0  0
  187.8990  177.4210  139.8720 N   0  0  0  0  0  0  0  0  0  0  0  0
  185.7890  178.0360  137.1430 O   0  0  0  0  0  1  0  0  0  0  0  0
  186.9030  178.3350  137.9420 C   0  0  1  0  0  3  0  0  0  0  0  0
  187.8960  176.4580  136.4790 C   0  0  0  0  0  2  0  0  0  0  0  0
  189.1570  176.2590  135.7670 N   0  0  0  0  0  2  0  0  0  0  0  0
  189.5130  174.5580  135.8190 S   0  0  0  0  0  0  0  0  0  0  0  0
  188.9600  173.8750  134.5940 O   0  0  0  0  0  0  0  0  0  0  0  0
  188.8840  173.9530  137.0450 O   0  0  0  0  0  0  0  0  0  0  0  0
  191.2750  174.3100  135.9110 C   0  0  0  0  0  2  0  0  0  0  0  0
  191.7670  174.4820  137.3120 C   0  0  0  0  0  0  0  0  0  0  0  0
  191.0860  175.1550  138.1260 O   0  0  0  0  0  0  0  0  0  0  0  0
  192.9610  173.8960  137.7590 O   0  0  0  0  0  0  0  0  0  0  0  0
  194.6000  175.2730  136.6070 C   0  0  0  0  0  1  0  0  0  0  0  0
  194.2190  174.5630  137.8960 C   0  0  2  0  0  3  0  0  0  0  0  0
  195.2990  173.6110  138.3830 C   0  0  0  0  0  2  0  0  0  0  0  0
  197.6470  174.2790  138.3540 N   0  0  0  0  0  1  0  0  0  0  0  0
  196.4120  174.3600  139.1090 C   0  0  0  0  0  2  0  0  0  0  0  0
  188.8620  178.4840  140.2070 C   0  0  0  0  0  2  0  0  0  0  0  0
  189.7330  178.1180  141.4060 C   0  0  0  0  0  2  0  0  0  0  0  0
  190.7580  177.2280  140.9860 O   0  0  0  0  0  0  0  0  0  0  0  0
  192.1100  177.5890  140.9420 C   0  0  0  0  0  3  0  0  0  0  0  0
  192.8380  177.3010  139.9480 O   0  0  0  0  0  0  0  0  0  0  0  0
  185.7120  179.2120  144.0490 C   0  0  0  0  0  2  0  0  0  0  0  0
  184.7200  178.3170  144.7710 C   0  0  0  0  0  2  0  0  0  0  0  0
  185.0100  178.2830  146.2630 C   0  0  0  0  0  2  0  0  0  0  0  0
  189.1660  177.7080  147.1940 C   0  0  0  0  0  3  0  0  0  0  0  0
  188.6810  177.2970  145.9420 C   0  0  0  0  0  0  0  0  0  0  0  0
  188.3150  178.3090  148.1250 C   0  0  0  0  0  3  0  0  0  0  0  0
  187.3270  177.4940  145.6400 C   0  0  0  0  0  3  0  0  0  0  0  0
  186.4710  178.1100  146.5600 C   0  0  0  0  0  0  0  0  0  0  0  0
  186.9690  178.5090  147.8090 C   0  0  0  0  0  3  0  0  0  0  0  0
  189.5050  176.7000  144.9820 O   0  0  0  0  0  0  0  0  0  0  0  0
  191.2070  176.9560  144.9020 P   0  0  0  0  0  0  0  0  0  0  0  0
  191.5400  178.5310  144.3840 O   0  0  0  0  0  1  0  0  0  0  0  0
  191.8310  175.9690  143.9430 O   0  0  0  0  0  0  0  0  0  0  0  0
  191.8680  176.7270  146.4450 O   0  0  0  0  0  1  0  0  0  0  0  0
  182.7600  177.4860  140.4120 C   0  0  0  0  0  2  0  0  0  0  0  0
  181.1900  177.3180  137.9440 N   0  0  0  0  0  0  0  0  0  0  0  0
  180.1800  176.8390  137.0220 C   0  0  0  0  0  2  0  0  0  0  0  0
  180.1330  175.3290  137.1430 C   0  0  0  0  0  2  0  0  0  0  0  0
  182.6260  175.4460  137.2870 C   0  0  0  0  0  2  0  0  0  0  0  0
  182.3180  176.6950  138.0880 C   0  0  0  0  0  0  0  0  0  0  0  0
  183.2470  177.1180  139.0880 N   0  0  0  0  0  2  0  0  0  0  0  0
  181.4380  174.7400  136.7670 N   0  0  1  0  0  0  0  0  0  0  0  0
  182.7080  172.6520  136.2650 C   0  0  2  0  0  3  0  0  0  0  0  0
  181.6050  173.3010  137.0850 C   0  0  2  0  0  3  0  0  0  0  0  0
  181.2560  172.3620  135.9370 C   0  0  0  0  0  2  0  0  0  0  0  0
  183.2780  171.4890  137.0440 C   0  0  0  0  0  1  0  0  0  0  0  0
  1  6  1  0  0  0  0
  2  1  1  6  0  0  0
  2  7  1  0  0  0  0
  3  1  2  0  0  0  0
  4 33  1  1  0  0  0
  5  4  1  0  0  0  0
  6  5  1  0  0  0  0
  7  5  1  0  0  0  0
  7  4  1  0  0  0  0
  8 11  1  0  0  0  0
  8  2  1  0  0  0  0
  9 13  1  0  0  0  0
  9 10  1  0  0  0  0
 10 11  1  0  0  0  0
 11 28  1  0  0  0  0
 12 13  1  0  0  0  0
 13  8  1  0  0  0  0
 14  9  1  0  0  0  0
 15 16  1  0  0  0  0
 15 14  1  0  0  0  0
 16 19  1  0  0  0  0
 16 18  2  0  0  0  0
 17 16  2  0  0  0  0
 19 20  1  0  0  0  0
 20 22  1  0  0  0  0
 20 21  2  0  0  0  0
 22 24  1  0  0  0  0
 23 24  1  0  0  0  0
 24 25  1  0  0  0  0
 25 27  1  0  0  0  0
 26 27  1  0  0  0  0
 28 29  1  0  0  0  0
 30 29  1  0  0  0  0
 31 30  1  0  0  0  0
 32 31  2  0  0  0  0
 33 34  1  0  0  0  0
 34 35  1  0  0  0  0
 35 40  1  0  0  0  0
 36 38  1  0  0  0  0
 37 36  2  0  0  0  0
 39 37  1  0  0  0  0
 39 40  2  0  0  0  0
 40 41  1  0  0  0  0
 41 38  2  0  0  0  0
 42 37  1  0  0  0  0
 43 42  1  0  0  0  0
 43 46  1  0  0  0  0
 44 43  1  0  0  0  0
 45 43  2  0  0  0  0
 47  6  1  0  0  0  0
 48 52  2  0  0  0  0
 49 50  1  0  0  0  0
 49 48  1  0  0  0  0
 51 52  1  0  0  0  0
 52 53  1  0  0  0  0
 53 47  1  0  0  0  0
 54 56  1  0  0  0  0
 54 50  1  0  0  0  0
 54 51  1  0  0  0  0
 55 58  1  0  0  0  0
 55 56  1  0  0  0  0
 57 55  1  0  0  0  0
 57 56  1  0  0  0  0
M  END
>  <MODEL>
1

>  <REMARK>
 VINA RESULT:      -7.4      0.000      0.000
  Name = 
  23 active torsions:
  status: ('A' for Active; 'I' for Inactive)
    1  A    between atoms: C_2  and  C_9
    2  A    between atoms: C_4  and  C_51
    3  A    between atoms: P_5  and  O_49
    4  A    between atoms: N_10  and  S_11
    5  A    between atoms: N_10  and  C_51
    6  A    between atoms: S_11  and  C_15
    7  A    between atoms: C_12  and  O_49
    8  A    between atoms: C_15  and  C_22
    9  A    between atoms: C_16  and  N_30
   10  A    between atoms: C_16  and  C_32
   11  A    between atoms: C_18  and  C_29
   12  A    between atoms: C_18  and  C_48
   13  A    between atoms: C_20  and  O_38
   14  A    between atoms: C_22  and  O_35
   15  A    between atoms: C_24  and  C_42
   16  A    between atoms: C_24  and  C_54
   17  A    between atoms: C_31  and  N_47
   18  A    between atoms: C_32  and  O_38
   19  A    between atoms: C_33  and  C_54
   20  A    between atoms: O_35  and  C_48
   21  A    between atoms: C_42  and  C_55
   22  A    between atoms: N_46  and  C_53
   23  A    between atoms: C_52  and  C_53
                            x       y       z     vdW  Elec       q    Type
                         _______ _______ _______ _____ _____    ______ ____

>  <TORSDO>
F 23

$$$$
=
 OpenBabel11032419123D

 58 63  0  0  1  0  0  0  0  0999 V2000
  188.6390  176.3000  137.8090 C   0  0  0  0  0  0  0  0  0  0  0  0
  189.4590  176.6550  138.9940 C   0  0  1  0  0  3  0  0  0  0  0  0
  187.8610  175.3670  137.8280 O   0  0  0  0  0  0  0  0  0  0  0  0
  191.4630  176.2960  137.4780 C   0  0  2  0  0  3  0  0  0  0  0  0
  190.5780  177.3990  136.9190 C   0  0  1  0  0  3  0  0  0  0  0  0
  189.2240  176.8030  136.5420 C   0  0  2  0  0  3  0  0  0  0  0  0
  190.7460  177.2540  138.4190 C   0  0  1  0  0  3  0  0  0  0  0  0
  188.7710  177.6920  139.8830 C   0  0  2  0  0  3  0  0  0  0  0  0
  187.1560  178.2060  141.4680 C   0  0  2  0  0  3  0  0  0  0  0  0
  188.4470  178.6040  141.9030 O   0  0  0  0  0  0  0  0  0  0  0  0
  189.3550  177.8330  141.2250 N   0  0  0  0  0  0  0  0  0  0  0  0
  186.5960  178.1710  139.0920 O   0  0  0  0  0  1  0  0  0  0  0  0
  187.3040  177.5130  140.1090 C   0  0  1  0  0  3  0  0  0  0  0  0
  186.2060  179.4010  141.4810 C   0  0  0  0  0  2  0  0  0  0  0  0
  184.8660  178.9670  141.8690 N   0  0  0  0  0  2  0  0  0  0  0  0
  184.7730  179.0740  143.6010 S   0  0  0  0  0  0  0  0  0  0  0  0
  183.3680  178.7800  144.0640 O   0  0  0  0  0  0  0  0  0  0  0  0
  185.1530  180.4640  144.0370 O   0  0  0  0  0  0  0  0  0  0  0  0
  185.9120  177.9220  144.3430 C   0  0  0  0  0  2  0  0  0  0  0  0
  186.2590  178.3340  145.7370 C   0  0  0  0  0  0  0  0  0  0  0  0
  185.3710  178.8410  146.4680 O   0  0  0  0  0  0  0  0  0  0  0  0
  187.5440  178.1530  146.2690 O   0  0  0  0  0  0  0  0  0  0  0  0
  187.9520  178.2700  148.6630 C   0  0  0  0  0  1  0  0  0  0  0  0
  187.8650  177.3830  147.4320 C   0  0  2  0  0  3  0  0  0  0  0  0
  189.1230  176.5550  147.2150 C   0  0  0  0  0  2  0  0  0  0  0  0
  191.4730  176.9580  146.6960 N   0  0  0  0  0  1  0  0  0  0  0  0
  190.3770  177.3530  147.5570 C   0  0  0  0  0  2  0  0  0  0  0  0
  189.4650  176.5570  141.9540 C   0  0  0  0  0  2  0  0  0  0  0  0
  190.2240  176.7080  143.2710 C   0  0  0  0  0  2  0  0  0  0  0  0
  191.4230  177.4340  143.0390 O   0  0  0  0  0  0  0  0  0  0  0  0
  191.7760  178.5760  143.7690 C   0  0  0  0  0  3  0  0  0  0  0  0
  190.9790  179.5500  143.8960 O   0  0  0  0  0  0  0  0  0  0  0  0
  192.9450  176.6530  137.4280 C   0  0  0  0  0  2  0  0  0  0  0  0
  193.6770  175.5170  136.7370 C   0  0  0  0  0  2  0  0  0  0  0  0
  192.8970  175.0300  135.5260 C   0  0  0  0  0  2  0  0  0  0  0  0
  192.7530  170.7500  135.1590 C   0  0  0  0  0  3  0  0  0  0  0  0
  193.9210  171.3570  135.6490 C   0  0  0  0  0  0  0  0  0  0  0  0
  191.6440  171.5230  134.8060 C   0  0  0  0  0  3  0  0  0  0  0  0
  193.9600  172.7530  135.7750 C   0  0  0  0  0  3  0  0  0  0  0  0
  192.8470  173.5320  135.4390 C   0  0  0  0  0  0  0  0  0  0  0  0
  191.6910  172.9120  134.9440 C   0  0  0  0  0  3  0  0  0  0  0  0
  195.0470  170.6150  136.0210 O   0  0  0  0  0  0  0  0  0  0  0  0
  196.1250  171.0930  137.2780 P   0  0  0  0  0  0  0  0  0  0  0  0
  195.2570  171.7010  138.5960 O   0  0  0  0  0  1  0  0  0  0  0  0
  197.0710  172.1550  136.7660 O   0  0  0  0  0  0  0  0  0  0  0  0
  197.0180  169.7440  137.7750 O   0  0  0  0  0  1  0  0  0  0  0  0
  188.3520  177.8510  135.8800 C   0  0  0  0  0  2  0  0  0  0  0  0
  185.4560  177.4320  136.0130 N   0  0  0  0  0  0  0  0  0  0  0  0
  184.1910  176.9220  136.5030 C   0  0  0  0  0  2  0  0  0  0  0  0
  184.4090  175.4770  136.9070 C   0  0  0  0  0  2  0  0  0  0  0  0
  185.8200  175.3070  134.8510 C   0  0  0  0  0  2  0  0  0  0  0  0
  186.2240  176.7100  135.2570 C   0  0  0  0  0  0  0  0  0  0  0  0
  187.5170  177.1900  134.8850 N   0  0  0  0  0  2  0  0  0  0  0  0
  184.8250  174.6710  135.7360 N   0  0  1  0  0  0  0  0  0  0  0  0
  184.1920  172.2830  136.0770 C   0  0  2  0  0  3  0  0  0  0  0  0
  185.3150  173.3050  136.0430 C   0  0  2  0  0  3  0  0  0  0  0  0
  184.8240  172.7490  137.3740 C   0  0  0  0  0  2  0  0  0  0  0  0
  184.7530  170.9270  135.7170 C   0  0  0  0  0  1  0  0  0  0  0  0
  1  3  2  0  0  0  0
  2  1  1  6  0  0  0
  2  8  1  0  0  0  0
  4 33  1  6  0  0  0
  4  7  1  0  0  0  0
  5  4  1  0  0  0  0
  5  7  1  0  0  0  0
  6  5  1  0  0  0  0
  6  1  1  0  0  0  0
  7  2  1  0  0  0  0
  8 13  1  0  0  0  0
  8 11  1  0  0  0  0
  9 14  1  0  0  0  0
  9 10  1  0  0  0  0
 11 10  1  0  0  0  0
 11 28  1  0  0  0  0
 12 13  1  0  0  0  0
 13  9  1  0  0  0  0
 14 15  1  0  0  0  0
 15 16  1  0  0  0  0
 16 18  2  0  0  0  0
 16 17  2  0  0  0  0
 16 19  1  0  0  0  0
 19 20  1  0  0  0  0
 20 22  1  0  0  0  0
 20 21  2  0  0  0  0
 22 24  1  0  0  0  0
 24 23  1  0  0  0  0
 25 24  1  0  0  0  0
 25 27  1  0  0  0  0
 26 27  1  0  0  0  0
 28 29  1  0  0  0  0
 30 29  1  0  0  0  0
 30 31  1  0  0  0  0
 31 32  2  0  0  0  0
 34 33  1  0  0  0  0
 35 34  1  0  0  0  0
 36 37  1  0  0  0  0
 37 39  2  0  0  0  0
 37 42  1  0  0  0  0
 38 41  1  0  0  0  0
 38 36  2  0  0  0  0
 40 35  1  0  0  0  0
 40 39  1  0  0  0  0
 41 40  2  0  0  0  0
 42 43  1  0  0  0  0
 43 46  1  0  0  0  0
 43 44  1  0  0  0  0
 45 43  2  0  0  0  0
 47  6  1  0  0  0  0
 48 49  1  0  0  0  0
 49 50  1  0  0  0  0
 51 52  1  0  0  0  0
 51 54  1  0  0  0  0
 52 48  2  0  0  0  0
 53 52  1  0  0  0  0
 53 47  1  0  0  0  0
 54 56  1  0  0  0  0
 54 50  1  0  0  0  0
 55 57  1  0  0  0  0
 56 55  1  0  0  0  0
 56 57  1  0  0  0  0
 58 55  1  0  0  0  0
M  END
>  <MODEL>
2

>  <REMARK>
 VINA RESULT:      -6.0      3.414      8.792
  Name = 
  23 active torsions:
  status: ('A' for Active; 'I' for Inactive)
    1  A    between atoms: C_2  and  C_9
    2  A    between atoms: C_4  and  C_51
    3  A    between atoms: P_5  and  O_49
    4  A    between atoms: N_10  and  S_11
    5  A    between atoms: N_10  and  C_51
    6  A    between atoms: S_11  and  C_15
    7  A    between atoms: C_12  and  O_49
    8  A    between atoms: C_15  and  C_22
    9  A    between atoms: C_16  and  N_30
   10  A    between atoms: C_16  and  C_32
   11  A    between atoms: C_18  and  C_29
   12  A    between atoms: C_18  and  C_48
   13  A    between atoms: C_20  and  O_38
   14  A    between atoms: C_22  and  O_35
   15  A    between atoms: C_24  and  C_42
   16  A    between atoms: C_24  and  C_54
   17  A    between atoms: C_31  and  N_47
   18  A    between atoms: C_32  and  O_38
   19  A    between atoms: C_33  and  C_54
   20  A    between atoms: O_35  and  C_48
   21  A    between atoms: C_42  and  C_55
   22  A    between atoms: N_46  and  C_53
   23  A    between atoms: C_52  and  C_53
                            x       y       z     vdW  Elec       q    Type
                         _______ _______ _______ _____ _____    ______ ____

>  <TORSDO>
F 23

$$$$
=
 OpenBabel11032419123D

 58 63  0  0  1  0  0  0  0  0999 V2000
  187.1130  177.9590  136.7460 C   0  0  0  0  0  0  0  0  0  0  0  0
  187.5340  176.5370  136.7330 C   0  0  1  0  0  3  0  0  0  0  0  0
  187.1160  178.6350  135.7370 O   0  0  0  0  0  0  0  0  0  0  0  0
  189.2740  177.2330  138.4450 C   0  0  2  0  0  3  0  0  0  0  0  0
  187.8770  177.5140  138.9770 C   0  0  1  0  0  3  0  0  0  0  0  0
  187.2160  178.5690  138.0950 C   0  0  2  0  0  3  0  0  0  0  0  0
  188.1270  176.2860  138.1230 C   0  0  1  0  0  3  0  0  0  0  0  0
  186.3570  175.5870  136.5050 C   0  0  2  0  0  3  0  0  0  0  0  0
  184.6930  174.7700  135.1090 C   0  0  2  0  0  3  0  0  0  0  0  0
  185.5210  173.7210  135.5890 O   0  0  0  0  0  0  0  0  0  0  0  0
  186.7230  174.2840  135.9310 N   0  0  0  0  0  0  0  0  0  0  0  0
  184.3140  176.7740  136.4510 O   0  0  0  0  0  1  0  0  0  0  0  0
  185.2430  176.0950  135.6480 C   0  0  1  0  0  3  0  0  0  0  0  0
  183.2340  174.4890  135.4600 C   0  0  0  0  0  2  0  0  0  0  0  0
  183.1620  173.6680  136.6670 N   0  0  0  0  0  2  0  0  0  0  0  0
  182.3200  172.2070  136.2460 S   0  0  0  0  0  0  0  0  0  0  0  0
  183.0550  171.0090  136.7900 O   0  0  0  0  0  0  0  0  0  0  0  0
  182.2360  172.0940  134.7470 O   0  0  0  0  0  0  0  0  0  0  0  0
  180.6620  172.2530  136.8980 C   0  0  0  0  0  2  0  0  0  0  0  0
  179.8910  173.3970  136.3230 C   0  0  0  0  0  0  0  0  0  0  0  0
  179.4630  173.3190  135.1440 O   0  0  0  0  0  0  0  0  0  0  0  0
  179.6080  174.5520  137.0660 O   0  0  0  0  0  0  0  0  0  0  0  0
  179.1270  176.8980  137.4840 C   0  0  0  0  0  1  0  0  0  0  0  0
  179.9370  175.8910  136.6840 C   0  0  2  0  0  3  0  0  0  0  0  0
  179.7990  176.0880  135.1820 C   0  0  0  0  0  2  0  0  0  0  0  0
  180.0700  178.4410  134.5940 N   0  0  0  0  0  1  0  0  0  0  0  0
  180.7520  177.1640  134.6750 C   0  0  0  0  0  2  0  0  0  0  0  0
  187.5160  174.3890  134.6930 C   0  0  0  0  0  2  0  0  0  0  0  0
  188.7210  173.4510  134.6970 C   0  0  0  0  0  2  0  0  0  0  0  0
  189.8440  174.1360  135.2350 O   0  0  0  0  0  0  0  0  0  0  0  0
  190.6010  173.6380  136.3030 C   0  0  0  0  0  3  0  0  0  0  0  0
  190.1270  173.5740  137.4740 O   0  0  0  0  0  0  0  0  0  0  0  0
  190.1790  176.5890  139.4900 C   0  0  0  0  0  2  0  0  0  0  0  0
  190.4730  177.6280  140.5580 C   0  0  0  0  0  2  0  0  0  0  0  0
  190.7580  176.9620  141.8940 C   0  0  0  0  0  2  0  0  0  0  0  0
  187.5690  177.4120  144.7410 C   0  0  0  0  0  3  0  0  0  0  0  0
  188.8600  177.8470  145.0830 C   0  0  0  0  0  0  0  0  0  0  0  0
  187.3160  176.8500  143.4870 C   0  0  0  0  0  3  0  0  0  0  0  0
  189.8950  177.7050  144.1480 C   0  0  0  0  0  3  0  0  0  0  0  0
  189.6460  177.1600  142.8840 C   0  0  0  0  0  0  0  0  0  0  0  0
  188.3540  176.7230  142.5590 C   0  0  0  0  0  3  0  0  0  0  0  0
  189.1480  178.4210  146.3260 O   0  0  0  0  0  0  0  0  0  0  0  0
  189.3900  177.5010  147.7620 P   0  0  0  0  0  0  0  0  0  0  0  0
  188.2820  176.2270  147.8370 O   0  0  0  0  0  1  0  0  0  0  0  0
  189.2190  178.3880  148.9740 O   0  0  0  0  0  1  0  0  0  0  0  0
  190.9620  176.8720  147.7510 O   0  0  0  0  0  0  0  0  0  0  0  0
  185.8620  178.9550  138.6580 C   0  0  0  0  0  2  0  0  0  0  0  0
  183.1430  178.0970  139.3310 N   0  0  0  0  0  0  0  0  0  0  0  0
  181.7830  178.1980  139.8200 C   0  0  0  0  0  2  0  0  0  0  0  0
  181.8100  179.0560  141.0680 C   0  0  0  0  0  2  0  0  0  0  0  0
  183.9150  177.8350  141.6400 C   0  0  0  0  0  2  0  0  0  0  0  0
  184.1390  177.9350  140.1450 C   0  0  0  0  0  0  0  0  0  0  0  0
  185.4790  177.9580  139.6500 N   0  0  0  0  0  2  0  0  0  0  0  0
  182.6450  178.4210  142.1130 N   0  0  1  0  0  0  0  0  0  0  0  0
  184.3350  178.9750  143.8620 C   0  0  2  0  0  3  0  0  0  0  0  0
  182.9620  179.2750  143.2840 C   0  0  2  0  0  3  0  0  0  0  0  0
  183.0920  178.5120  144.5970 C   0  0  0  0  0  2  0  0  0  0  0  0
  184.8670  180.2210  144.5320 C   0  0  0  0  0  1  0  0  0  0  0  0
  1  6  1  0  0  0  0
  2  1  1  1  0  0  0
  2  7  1  0  0  0  0
  3  1  2  0  0  0  0
  4  5  1  0  0  0  0
  4 33  1  1  0  0  0
  6 47  1  0  0  0  0
  6  5  1  0  0  0  0
  7  4  1  0  0  0  0
  7  5  1  0  0  0  0
  8  2  1  0  0  0  0
  9 14  1  0  0  0  0
  9 10  1  0  0  0  0
  9 13  1  0  0  0  0
 10 11  1  0  0  0  0
 11  8  1  0  0  0  0
 13 12  1  0  0  0  0
 13  8  1  0  0  0  0
 14 15  1  0  0  0  0
 16 15  1  0  0  0  0
 16 17  2  0  0  0  0
 16 19  1  0  0  0  0
 18 16  2  0  0  0  0
 20 19  1  0  0  0  0
 20 22  1  0  0  0  0
 21 20  2  0  0  0  0
 24 22  1  0  0  0  0
 24 23  1  0  0  0  0
 25 24  1  0  0  0  0
 26 27  1  0  0  0  0
 27 25  1  0  0  0  0
 28 29  1  0  0  0  0
 28 11  1  0  0  0  0
 29 30  1  0  0  0  0
 30 31  1  0  0  0  0
 31 32  2  0  0  0  0
 33 34  1  0  0  0  0
 34 35  1  0  0  0  0
 35 40  1  0  0  0  0
 36 37  1  0  0  0  0
 37 42  1  0  0  0  0
 38 36  2  0  0  0  0
 39 37  2  0  0  0  0
 40 39  1  0  0  0  0
 41 40  2  0  0  0  0
 41 38  1  0  0  0  0
 42 43  1  0  0  0  0
 43 44  1  0  0  0  0
 43 45  1  0  0  0  0
 46 43  2  0  0  0  0
 47 53  1  0  0  0  0
 48 49  1  0  0  0  0
 48 52  2  0  0  0  0
 49 50  1  0  0  0  0
 50 54  1  0  0  0  0
 51 54  1  0  0  0  0
 52 51  1  0  0  0  0
 53 52  1  0  0  0  0
 54 56  1  0  0  0  0
 55 58  1  0  0  0  0
 55 57  1  0  0  0  0
 56 55  1  0  0  0  0
 56 57  1  0  0  0  0
M  END
>  <MODEL>
3

>  <REMARK>
 VINA RESULT:      -5.7      3.116      7.828
  Name = 
  23 active torsions:
  status: ('A' for Active; 'I' for Inactive)
    1  A    between atoms: C_2  and  C_9
    2  A    between atoms: C_4  and  C_51
    3  A    between atoms: P_5  and  O_49
    4  A    between atoms: N_10  and  S_11
    5  A    between atoms: N_10  and  C_51
    6  A    between atoms: S_11  and  C_15
    7  A    between atoms: C_12  and  O_49
    8  A    between atoms: C_15  and  C_22
    9  A    between atoms: C_16  and  N_30
   10  A    between atoms: C_16  and  C_32
   11  A    between atoms: C_18  and  C_29
   12  A    between atoms: C_18  and  C_48
   13  A    between atoms: C_20  and  O_38
   14  A    between atoms: C_22  and  O_35
   15  A    between atoms: C_24  and  C_42
   16  A    between atoms: C_24  and  C_54
   17  A    between atoms: C_31  and  N_47
   18  A    between atoms: C_32  and  O_38
   19  A    between atoms: C_33  and  C_54
   20  A    between atoms: O_35  and  C_48
   21  A    between atoms: C_42  and  C_55
   22  A    between atoms: N_46  and  C_53
   23  A    between atoms: C_52  and  C_53
                            x       y       z     vdW  Elec       q    Type
                         _______ _______ _______ _____ _____    ______ ____

>  <TORSDO>
F 23

$$$$
=
 OpenBabel11032419123D

 58 63  0  0  1  0  0  0  0  0999 V2000
  186.1810  177.6020  135.8230 C   0  0  0  0  0  0  0  0  0  0  0  0
  186.8460  177.3690  137.1290 C   0  0  1  0  0  3  0  0  0  0  0  0
  186.5970  178.4270  135.0340 O   0  0  0  0  0  0  0  0  0  0  0  0
  184.6060  177.9670  138.1620 C   0  0  2  0  0  3  0  0  0  0  0  0
  184.4560  176.7520  137.2580 C   0  0  1  0  0  3  0  0  0  0  0  0
  184.7630  177.1650  135.8220 C   0  0  2  0  0  3  0  0  0  0  0  0
  185.7210  176.9350  138.0740 C   0  0  1  0  0  3  0  0  0  0  0  0
  187.8990  176.2620  137.0520 C   0  0  2  0  0  3  0  0  0  0  0  0
  190.0770  175.6070  136.5950 C   0  0  2  0  0  3  0  0  0  0  0  0
  189.6930  175.2300  137.9090 O   0  0  0  0  0  0  0  0  0  0  0  0
  188.6760  176.0680  138.2850 N   0  0  0  0  0  0  0  0  0  0  0  0
  188.4230  175.7520  134.8050 O   0  0  0  0  0  1  0  0  0  0  0  0
  188.9140  176.3770  135.9610 C   0  0  1  0  0  3  0  0  0  0  0  0
  190.5400  174.3800  135.8120 C   0  0  0  0  0  2  0  0  0  0  0  0
  191.5310  174.7730  134.8120 N   0  0  0  0  0  2  0  0  0  0  0  0
  193.0940  174.3530  135.4460 S   0  0  0  0  0  0  0  0  0  0  0  0
  194.0990  175.4200  135.0950 O   0  0  0  0  0  0  0  0  0  0  0  0
  193.5380  173.0440  134.8510 O   0  0  0  0  0  0  0  0  0  0  0  0
  193.0000  174.1630  137.2150 C   0  0  0  0  0  2  0  0  0  0  0  0
  194.2120  174.7310  137.8800 C   0  0  0  0  0  0  0  0  0  0  0  0
  194.2840  175.9710  138.0720 O   0  0  0  0  0  0  0  0  0  0  0  0
  195.2690  173.9200  138.3190 O   0  0  0  0  0  0  0  0  0  0  0  0
  195.5810  171.5630  137.8140 C   0  0  0  0  0  1  0  0  0  0  0  0
  196.0000  172.9920  137.5130 C   0  0  2  0  0  3  0  0  0  0  0  0
  197.5000  173.2050  137.6480 C   0  0  0  0  0  2  0  0  0  0  0  0
  198.1590  175.4200  138.4350 N   0  0  0  0  0  1  0  0  0  0  0  0
  197.8960  174.6240  137.2520 C   0  0  0  0  0  2  0  0  0  0  0  0
  189.3010  177.3060  138.7860 C   0  0  0  0  0  2  0  0  0  0  0  0
  190.6780  177.0520  139.3950 C   0  0  0  0  0  2  0  0  0  0  0  0
  190.5310  176.2740  140.5760 O   0  0  0  0  0  0  0  0  0  0  0  0
  190.7620  176.7850  141.8580 C   0  0  0  0  0  3  0  0  0  0  0  0
  190.9470  178.0220  142.0520 O   0  0  0  0  0  0  0  0  0  0  0  0
  183.8720  177.8030  139.4890 C   0  0  0  0  0  2  0  0  0  0  0  0
  184.3340  178.9120  140.4180 C   0  0  0  0  0  2  0  0  0  0  0  0
  185.5210  178.4570  141.2520 C   0  0  0  0  0  2  0  0  0  0  0  0
  184.7250  178.7290  145.4670 C   0  0  0  0  0  3  0  0  0  0  0  0
  185.9870  178.2860  145.0350 C   0  0  0  0  0  0  0  0  0  0  0  0
  183.7420  179.0890  144.5430 C   0  0  0  0  0  3  0  0  0  0  0  0
  186.2440  178.2070  143.6590 C   0  0  0  0  0  3  0  0  0  0  0  0
  185.2700  178.5830  142.7270 C   0  0  0  0  0  0  0  0  0  0  0  0
  184.0130  179.0160  143.1740 C   0  0  0  0  0  3  0  0  0  0  0  0
  186.9980  177.9250  145.9310 O   0  0  0  0  0  0  0  0  0  0  0  0
  188.5640  177.4050  145.4340 P   0  0  0  0  0  0  0  0  0  0  0  0
  189.4530  178.7110  144.8330 O   0  0  0  0  0  1  0  0  0  0  0  0
  188.4370  176.3470  144.3620 O   0  0  0  0  0  0  0  0  0  0  0  0
  189.3720  176.7490  146.7700 O   0  0  0  0  0  1  0  0  0  0  0  0
  184.5190  176.0050  134.8760 C   0  0  0  0  0  2  0  0  0  0  0  0
  182.3000  177.8970  134.5940 N   0  0  0  0  0  0  0  0  0  0  0  0
  181.4250  179.0030  134.9240 C   0  0  0  0  0  2  0  0  0  0  0  0
  181.1910  178.9670  136.4210 C   0  0  0  0  0  2  0  0  0  0  0  0
  181.0440  176.4860  136.1530 C   0  0  0  0  0  2  0  0  0  0  0  0
  182.1490  176.7330  135.1470 C   0  0  0  0  0  0  0  0  0  0  0  0
  183.0960  175.6930  134.8950 N   0  0  0  0  0  2  0  0  0  0  0  0
  180.5250  177.7030  136.8090 N   0  0  1  0  0  0  0  0  0  0  0  0
  180.5730  175.9460  138.5800 C   0  0  2  0  0  3  0  0  0  0  0  0
  180.4700  177.4300  138.2660 C   0  0  2  0  0  3  0  0  0  0  0  0
  179.2370  176.6520  138.7110 C   0  0  0  0  0  2  0  0  0  0  0  0
  181.1770  175.7780  139.9550 C   0  0  0  0  0  1  0  0  0  0  0  0
  2  1  1  6  0  0  0
  2  7  1  0  0  0  0
  3  1  2  0  0  0  0
  4 33  1  1  0  0  0
  5  7  1  0  0  0  0
  5  4  1  0  0  0  0
  6  1  1  0  0  0  0
  6  5  1  0  0  0  0
  7  4  1  0  0  0  0
  8  2  1  0  0  0  0
  8 11  1  0  0  0  0
  9 10  1  0  0  0  0
 10 11  1  0  0  0  0
 11 28  1  0  0  0  0
 12 13  1  0  0  0  0
 13  9  1  0  0  0  0
 13  8  1  0  0  0  0
 14  9  1  0  0  0  0
 15 16  1  0  0  0  0
 15 14  1  0  0  0  0
 16 19  1  0  0  0  0
 17 16  2  0  0  0  0
 18 16  2  0  0  0  0
 19 20  1  0  0  0  0
 20 21  2  0  0  0  0
 20 22  1  0  0  0  0
 24 25  1  0  0  0  0
 24 23  1  0  0  0  0
 24 22  1  0  0  0  0
 27 25  1  0  0  0  0
 27 26  1  0  0  0  0
 28 29  1  0  0  0  0
 29 30  1  0  0  0  0
 30 31  1  0  0  0  0
 31 32  2  0  0  0  0
 33 34  1  0  0  0  0
 34 35  1  0  0  0  0
 35 40  1  0  0  0  0
 37 36  1  0  0  0  0
 37 42  1  0  0  0  0
 38 36  2  0  0  0  0
 39 37  2  0  0  0  0
 40 41  2  0  0  0  0
 40 39  1  0  0  0  0
 41 38  1  0  0  0  0
 43 42  1  0  0  0  0
 43 46  1  0  0  0  0
 44 43  1  0  0  0  0
 45 43  2  0  0  0  0
 47 53  1  0  0  0  0
 47  6  1  0  0  0  0
 48 49  1  0  0  0  0
 48 52  2  0  0  0  0
 49 50  1  0  0  0  0
 50 54  1  0  0  0  0
 51 54  1  0  0  0  0
 52 51  1  0  0  0  0
 53 52  1  0  0  0  0
 54 56  1  0  0  0  0
 55 57  1  0  0  0  0
 55 58  1  0  0  0  0
 56 55  1  0  0  0  0
 56 57  1  0  0  0  0
M  END
>  <MODEL>
4

>  <REMARK>
 VINA RESULT:      -5.7      2.306      3.790
  Name = 
  23 active torsions:
  status: ('A' for Active; 'I' for Inactive)
    1  A    between atoms: C_2  and  C_9
    2  A    between atoms: C_4  and  C_51
    3  A    between atoms: P_5  and  O_49
    4  A    between atoms: N_10  and  S_11
    5  A    between atoms: N_10  and  C_51
    6  A    between atoms: S_11  and  C_15
    7  A    between atoms: C_12  and  O_49
    8  A    between atoms: C_15  and  C_22
    9  A    between atoms: C_16  and  N_30
   10  A    between atoms: C_16  and  C_32
   11  A    between atoms: C_18  and  C_29
   12  A    between atoms: C_18  and  C_48
   13  A    between atoms: C_20  and  O_38
   14  A    between atoms: C_22  and  O_35
   15  A    between atoms: C_24  and  C_42
   16  A    between atoms: C_24  and  C_54
   17  A    between atoms: C_31  and  N_47
   18  A    between atoms: C_32  and  O_38
   19  A    between atoms: C_33  and  C_54
   20  A    between atoms: O_35  and  C_48
   21  A    between atoms: C_42  and  C_55
   22  A    between atoms: N_46  and  C_53
   23  A    between atoms: C_52  and  C_53
                            x       y       z     vdW  Elec       q    Type
                         _______ _______ _______ _____ _____    ______ ____

>  <TORSDO>
F 23

$$$$
=
 OpenBabel11032419123D

 58 63  0  0  1  0  0  0  0  0999 V2000
  187.4620  177.8180  137.3650 C   0  0  0  0  0  0  0  0  0  0  0  0
  186.9470  177.0450  136.2080 C   0  0  1  0  0  3  0  0  0  0  0  0
  187.1200  178.9660  137.5680 O   0  0  0  0  0  0  0  0  0  0  0  0
  189.3810  176.8000  135.5290 C   0  0  2  0  0  3  0  0  0  0  0  0
  189.1580  176.1840  136.9020 C   0  0  1  0  0  3  0  0  0  0  0  0
  188.7490  177.2850  137.8770 C   0  0  2  0  0  3  0  0  0  0  0  0
  188.0780  176.0780  135.8430 C   0  0  1  0  0  3  0  0  0  0  0  0
  185.6920  176.2460  136.5610 C   0  0  2  0  0  3  0  0  0  0  0  0
  183.8180  175.0630  135.8710 C   0  0  2  0  0  3  0  0  0  0  0  0
  184.6290  174.2810  136.7330 O   0  0  0  0  0  0  0  0  0  0  0  0
  185.8980  174.7940  136.6650 N   0  0  0  0  0  0  0  0  0  0  0  0
  183.7390  177.4930  136.0960 O   0  0  0  0  0  1  0  0  0  0  0  0
  184.5150  176.4110  135.6540 C   0  0  1  0  0  3  0  0  0  0  0  0
  182.3980  175.1550  136.4250 C   0  0  0  0  0  2  0  0  0  0  0  0
  182.3660  174.6470  137.7950 N   0  0  0  0  0  2  0  0  0  0  0  0
  180.7100  174.6950  138.3220 S   0  0  0  0  0  0  0  0  0  0  0  0
  180.1500  173.2970  138.4000 O   0  0  0  0  0  0  0  0  0  0  0  0
  179.8970  175.4960  137.3410 O   0  0  0  0  0  0  0  0  0  0  0  0
  180.6030  175.4840  139.9160 C   0  0  0  0  0  2  0  0  0  0  0  0
  181.1820  176.8610  139.8720 C   0  0  0  0  0  0  0  0  0  0  0  0
  180.4190  177.8450  139.6990 O   0  0  0  0  0  0  0  0  0  0  0  0
  182.5540  177.0970  140.0390 O   0  0  0  0  0  0  0  0  0  0  0  0
  182.0650  178.7470  141.7570 C   0  0  0  0  0  1  0  0  0  0  0  0
  183.1380  177.9860  140.9960 C   0  0  2  0  0  3  0  0  0  0  0  0
  184.1590  178.9070  140.3440 C   0  0  0  0  0  2  0  0  0  0  0  0
  185.3420  178.1260  142.3300 N   0  0  0  0  0  1  0  0  0  0  0  0
  185.4580  178.9450  141.1400 C   0  0  0  0  0  2  0  0  0  0  0  0
  186.5370  174.2040  135.4740 C   0  0  0  0  0  2  0  0  0  0  0  0
  186.7920  172.7070  135.6370 C   0  0  0  0  0  2  0  0  0  0  0  0
  185.9190  171.9880  134.7780 O   0  0  0  0  0  0  0  0  0  0  0  0
  185.7350  170.6030  134.8640 C   0  0  0  0  0  3  0  0  0  0  0  0
  184.6610  170.1060  135.3090 O   0  0  0  0  0  0  0  0  0  0  0  0
  190.2380  175.9210  134.6250 C   0  0  0  0  0  2  0  0  0  0  0  0
  191.6880  176.3320  134.8130 C   0  0  0  0  0  2  0  0  0  0  0  0
  192.2040  175.8860  136.1720 C   0  0  0  0  0  2  0  0  0  0  0  0
  194.6590  172.3760  135.8240 C   0  0  0  0  0  3  0  0  0  0  0  0
  195.2250  173.6370  135.5670 C   0  0  0  0  0  0  0  0  0  0  0  0
  193.3190  172.2610  136.2000 C   0  0  0  0  0  3  0  0  0  0  0  0
  194.4220  174.7790  135.6900 C   0  0  0  0  0  3  0  0  0  0  0  0
  193.0830  174.6720  136.0840 C   0  0  0  0  0  0  0  0  0  0  0  0
  192.5310  173.4070  136.3290 C   0  0  0  0  0  3  0  0  0  0  0  0
  196.5650  173.7920  135.1970 O   0  0  0  0  0  0  0  0  0  0  0  0
  197.8290  174.1110  136.3240 P   0  0  0  0  0  0  0  0  0  0  0  0
  197.7100  175.6940  136.9060 O   0  0  0  0  0  1  0  0  0  0  0  0
  199.1710  173.9210  135.6560 O   0  0  0  0  0  0  0  0  0  0  0  0
  197.6930  173.0300  137.6190 O   0  0  0  0  0  1  0  0  0  0  0  0
  188.6230  176.7270  139.2800 C   0  0  0  0  0  2  0  0  0  0  0  0
  190.8020  177.3490  141.1360 N   0  0  0  0  0  0  0  0  0  0  0  0
  191.7120  177.1740  142.2500 C   0  0  0  0  0  2  0  0  0  0  0  0
  190.9190  176.5800  143.3970 C   0  0  0  0  0  2  0  0  0  0  0  0
  189.0950  178.1420  142.7030 C   0  0  0  0  0  2  0  0  0  0  0  0
  189.5950  177.7870  141.3170 C   0  0  0  0  0  0  0  0  0  0  0  0
  188.6800  177.8380  140.2210 N   0  0  0  0  0  2  0  0  0  0  0  0
  189.8360  177.5020  143.8080 N   0  0  1  0  0  0  0  0  0  0  0  0
  188.0680  178.0110  145.4930 C   0  0  2  0  0  3  0  0  0  0  0  0
  188.8330  176.9330  144.7420 C   0  0  2  0  0  3  0  0  0  0  0  0
  189.1280  177.2000  146.2130 C   0  0  0  0  0  2  0  0  0  0  0  0
  186.7040  177.4750  145.8620 C   0  0  0  0  0  1  0  0  0  0  0  0
  1  3  2  0  0  0  0
  1  6  1  0  0  0  0
  2  8  1  0  0  0  0
  2  1  1  1  0  0  0
  4 33  1  6  0  0  0
  4  7  1  0  0  0  0
  4  5  1  0  0  0  0
  5  6  1  0  0  0  0
  6 47  1  0  0  0  0
  7  2  1  0  0  0  0
  7  5  1  0  0  0  0
  8 11  1  0  0  0  0
  9 14  1  0  0  0  0
  9 10  1  0  0  0  0
 11 10  1  0  0  0  0
 13  9  1  0  0  0  0
 13 12  1  0  0  0  0
 13  8  1  0  0  0  0
 14 15  1  0  0  0  0
 15 16  1  0  0  0  0
 16 17  2  0  0  0  0
 16 19  1  0  0  0  0
 18 16  2  0  0  0  0
 20 19  1  0  0  0  0
 20 22  1  0  0  0  0
 21 20  2  0  0  0  0
 22 24  1  0  0  0  0
 24 23  1  0  0  0  0
 25 24  1  0  0  0  0
 25 27  1  0  0  0  0
 27 26  1  0  0  0  0
 28 29  1  0  0  0  0
 28 11  1  0  0  0  0
 30 31  1  0  0  0  0
 30 29  1  0  0  0  0
 31 32  2  0  0  0  0
 33 34  1  0  0  0  0
 34 35  1  0  0  0  0
 36 38  1  0  0  0  0
 37 39  1  0  0  0  0
 37 36  2  0  0  0  0
 38 41  2  0  0  0  0
 39 40  2  0  0  0  0
 40 35  1  0  0  0  0
 40 41  1  0  0  0  0
 42 37  1  0  0  0  0
 42 43  1  0  0  0  0
 43 44  1  0  0  0  0
 43 46  1  0  0  0  0
 45 43  2  0  0  0  0
 47 53  1  0  0  0  0
 48 52  2  0  0  0  0
 48 49  1  0  0  0  0
 49 50  1  0  0  0  0
 50 54  1  0  0  0  0
 51 54  1  0  0  0  0
 52 51  1  0  0  0  0
 53 52  1  0  0  0  0
 54 56  1  0  0  0  0
 55 58  1  0  0  0  0
 55 57  1  0  0  0  0
 56 55  1  0  0  0  0
 56 57  1  0  0  0  0
M  END
>  <MODEL>
5

>  <REMARK>
 VINA RESULT:      -5.7      3.980     10.154
  Name = 
  23 active torsions:
  status: ('A' for Active; 'I' for Inactive)
    1  A    between atoms: C_2  and  C_9
    2  A    between atoms: C_4  and  C_51
    3  A    between atoms: P_5  and  O_49
    4  A    between atoms: N_10  and  S_11
    5  A    between atoms: N_10  and  C_51
    6  A    between atoms: S_11  and  C_15
    7  A    between atoms: C_12  and  O_49
    8  A    between atoms: C_15  and  C_22
    9  A    between atoms: C_16  and  N_30
   10  A    between atoms: C_16  and  C_32
   11  A    between atoms: C_18  and  C_29
   12  A    between atoms: C_18  and  C_48
   13  A    between atoms: C_20  and  O_38
   14  A    between atoms: C_22  and  O_35
   15  A    between atoms: C_24  and  C_42
   16  A    between atoms: C_24  and  C_54
   17  A    between atoms: C_31  and  N_47
   18  A    between atoms: C_32  and  O_38
   19  A    between atoms: C_33  and  C_54
   20  A    between atoms: O_35  and  C_48
   21  A    between atoms: C_42  and  C_55
   22  A    between atoms: N_46  and  C_53
   23  A    between atoms: C_52  and  C_53
                            x       y       z     vdW  Elec       q    Type
                         _______ _______ _______ _____ _____    ______ ____

>  <TORSDO>
F 23

$$$$
=
 OpenBabel11032419123D

 58 63  0  0  1  0  0  0  0  0999 V2000
  187.1050  178.3290  136.8500 C   0  0  0  0  0  0  0  0  0  0  0  0
  187.4140  176.9140  136.5260 C   0  0  1  0  0  3  0  0  0  0  0  0
  187.0470  179.1830  135.9880 O   0  0  0  0  0  0  0  0  0  0  0  0
  189.3810  177.1790  138.1080 C   0  0  2  0  0  3  0  0  0  0  0  0
  188.0770  177.4290  138.8510 C   0  0  1  0  0  3  0  0  0  0  0  0
  187.4030  178.6660  138.2640 C   0  0  2  0  0  3  0  0  0  0  0  0
  188.1360  176.3740  137.7640 C   0  0  1  0  0  3  0  0  0  0  0  0
  186.1500  176.0900  136.2760 C   0  0  2  0  0  3  0  0  0  0  0  0
  184.8980  174.7300  134.8730 C   0  0  2  0  0  3  0  0  0  0  0  0
  185.1320  174.1000  136.1230 O   0  0  0  0  0  0  0  0  0  0  0  0
  186.2560  174.6740  136.6570 N   0  0  0  0  0  0  0  0  0  0  0  0
  184.7400  177.1610  134.7110 O   0  0  0  0  0  1  0  0  0  0  0  0
  185.6210  176.0820  134.8780 C   0  0  1  0  0  3  0  0  0  0  0  0
  183.3990  174.8030  134.5950 C   0  0  0  0  0  2  0  0  0  0  0  0
  182.6680  174.9810  135.8470 N   0  0  0  0  0  2  0  0  0  0  0  0
  180.9750  175.0120  135.4550 S   0  0  0  0  0  0  0  0  0  0  0  0
  180.6040  173.7860  134.6610 O   0  0  0  0  0  0  0  0  0  0  0  0
  180.6750  176.2380  134.6350 O   0  0  0  0  0  0  0  0  0  0  0  0
  180.0080  175.0870  136.9500 C   0  0  0  0  0  2  0  0  0  0  0  0
  180.7070  175.8860  138.0020 C   0  0  0  0  0  0  0  0  0  0  0  0
  181.5840  175.3330  138.7130 O   0  0  0  0  0  0  0  0  0  0  0  0
  180.4330  177.2450  138.2090 O   0  0  0  0  0  0  0  0  0  0  0  0
  182.2650  178.3130  137.0210 C   0  0  0  0  0  1  0  0  0  0  0  0
  180.7750  178.3120  137.3200 C   0  0  2  0  0  3  0  0  0  0  0  0
  180.2810  179.6500  137.8460 C   0  0  0  0  0  2  0  0  0  0  0  0
  181.1110  181.9450  137.8000 N   0  0  0  0  0  1  0  0  0  0  0  0
  181.4450  180.5830  138.1660 C   0  0  0  0  0  2  0  0  0  0  0  0
  187.4160  173.9890  136.0570 C   0  0  0  0  0  2  0  0  0  0  0  0
  187.8210  172.7440  136.8430 C   0  0  0  0  0  2  0  0  0  0  0  0
  189.2360  172.6170  136.8190 O   0  0  0  0  0  0  0  0  0  0  0  0
  190.0880  173.6580  136.4330 C   0  0  0  0  0  3  0  0  0  0  0  0
  190.8550  173.5450  135.4330 O   0  0  0  0  0  0  0  0  0  0  0  0
  190.3450  176.3020  138.8990 C   0  0  0  0  0  2  0  0  0  0  0  0
  190.7520  177.0620  140.1490 C   0  0  0  0  0  2  0  0  0  0  0  0
  190.3050  176.3220  141.4000 C   0  0  0  0  0  2  0  0  0  0  0  0
  190.5350  178.8470  144.8700 C   0  0  0  0  0  3  0  0  0  0  0  0
  189.5300  177.8670  144.8000 C   0  0  0  0  0  0  0  0  0  0  0  0
  191.4590  178.9940  143.8320 C   0  0  0  0  0  3  0  0  0  0  0  0
  189.4650  177.0410  143.6700 C   0  0  0  0  0  3  0  0  0  0  0  0
  190.3970  177.1710  142.6340 C   0  0  0  0  0  0  0  0  0  0  0  0
  191.3900  178.1580  142.7150 C   0  0  0  0  0  3  0  0  0  0  0  0
  188.5940  177.6850  145.8230 O   0  0  0  0  0  0  0  0  0  0  0  0
  189.0260  177.2970  147.4450 P   0  0  0  0  0  0  0  0  0  0  0  0
  190.5100  176.4880  147.4800 O   0  0  0  0  0  0  0  0  0  0  0  0
  187.9610  176.4220  148.0640 O   0  0  0  0  0  1  0  0  0  0  0  0
  189.1540  178.7320  148.3350 O   0  0  0  0  0  1  0  0  0  0  0  0
  186.1540  179.0090  139.0500 C   0  0  0  0  0  2  0  0  0  0  0  0
  183.6240  178.0400  140.1640 N   0  0  0  0  0  0  0  0  0  0  0  0
  182.3580  178.0870  140.8680 C   0  0  0  0  0  2  0  0  0  0  0  0
  182.5480  178.9650  142.0890 C   0  0  0  0  0  2  0  0  0  0  0  0
  184.7720  177.8480  142.3190 C   0  0  0  0  0  2  0  0  0  0  0  0
  184.7460  177.9350  140.8060 C   0  0  0  0  0  0  0  0  0  0  0  0
  185.9850  178.0120  140.0990 N   0  0  0  0  0  2  0  0  0  0  0  0
  183.5710  178.3830  142.9880 N   0  0  1  0  0  0  0  0  0  0  0  0
  184.7230  178.4950  145.1980 C   0  0  2  0  0  3  0  0  0  0  0  0
  184.0340  179.2680  144.0860 C   0  0  2  0  0  3  0  0  0  0  0  0
  183.3240  179.0380  145.4150 C   0  0  0  0  0  2  0  0  0  0  0  0
  185.7160  179.4060  145.8830 C   0  0  0  0  0  1  0  0  0  0  0  0
  1  6  1  0  0  0  0
  2  1  1  1  0  0  0
  2  7  1  0  0  0  0
  3  1  2  0  0  0  0
  4  5  1  0  0  0  0
  4 33  1  1  0  0  0
  6  5  1  0  0  0  0
  6 47  1  0  0  0  0
  7  4  1  0  0  0  0
  7  5  1  0  0  0  0
  8  2  1  0  0  0  0
  8 11  1  0  0  0  0
  9 13  1  0  0  0  0
  9 10  1  0  0  0  0
 10 11  1  0  0  0  0
 12 13  1  0  0  0  0
 13  8  1  0  0  0  0
 14  9  1  0  0  0  0
 14 15  1  0  0  0  0
 16 15  1  0  0  0  0
 16 19  1  0  0  0  0
 17 16  2  0  0  0  0
 18 16  2  0  0  0  0
 19 20  1  0  0  0  0
 20 22  1  0  0  0  0
 20 21  2  0  0  0  0
 23 24  1  0  0  0  0
 24 25  1  0  0  0  0
 24 22  1  0  0  0  0
 25 27  1  0  0  0  0
 26 27  1  0  0  0  0
 28 11  1  0  0  0  0
 28 29  1  0  0  0  0
 30 29  1  0  0  0  0
 31 30  1  0  0  0  0
 32 31  2  0  0  0  0
 33 34  1  0  0  0  0
 34 35  1  0  0  0  0
 35 40  1  0  0  0  0
 37 36  1  0  0  0  0
 37 42  1  0  0  0  0
 38 36  2  0  0  0  0
 39 37  2  0  0  0  0
 40 41  2  0  0  0  0
 40 39  1  0  0  0  0
 41 38  1  0  0  0  0
 42 43  1  0  0  0  0
 43 44  2  0  0  0  0
 43 45  1  0  0  0  0
 43 46  1  0  0  0  0
 47 53  1  0  0  0  0
 48 52  2  0  0  0  0
 48 49  1  0  0  0  0
 49 50  1  0  0  0  0
 50 54  1  0  0  0  0
 51 54  1  0  0  0  0
 52 51  1  0  0  0  0
 53 52  1  0  0  0  0
 54 56  1  0  0  0  0
 55 57  1  0  0  0  0
 55 58  1  0  0  0  0
 56 55  1  0  0  0  0
 56 57  1  0  0  0  0
M  END
>  <MODEL>
6

>  <REMARK>
 VINA RESULT:      -5.7      3.339      7.859
  Name = 
  23 active torsions:
  status: ('A' for Active; 'I' for Inactive)
    1  A    between atoms: C_2  and  C_9
    2  A    between atoms: C_4  and  C_51
    3  A    between atoms: P_5  and  O_49
    4  A    between atoms: N_10  and  S_11
    5  A    between atoms: N_10  and  C_51
    6  A    between atoms: S_11  and  C_15
    7  A    between atoms: C_12  and  O_49
    8  A    between atoms: C_15  and  C_22
    9  A    between atoms: C_16  and  N_30
   10  A    between atoms: C_16  and  C_32
   11  A    between atoms: C_18  and  C_29
   12  A    between atoms: C_18  and  C_48
   13  A    between atoms: C_20  and  O_38
   14  A    between atoms: C_22  and  O_35
   15  A    between atoms: C_24  and  C_42
   16  A    between atoms: C_24  and  C_54
   17  A    between atoms: C_31  and  N_47
   18  A    between atoms: C_32  and  O_38
   19  A    between atoms: C_33  and  C_54
   20  A    between atoms: O_35  and  C_48
   21  A    between atoms: C_42  and  C_55
   22  A    between atoms: N_46  and  C_53
   23  A    between atoms: C_52  and  C_53
                            x       y       z     vdW  Elec       q    Type
                         _______ _______ _______ _____ _____    ______ ____

>  <TORSDO>
F 23

$$$$
=
 OpenBabel11032419123D

 58 63  0  0  1  0  0  0  0  0999 V2000
  188.9800  177.0230  139.5140 C   0  0  0  0  0  0  0  0  0  0  0  0
  189.8310  176.7430  140.6970 C   0  0  1  0  0  3  0  0  0  0  0  0
  188.0320  176.3180  139.2280 O   0  0  0  0  0  0  0  0  0  0  0  0
  191.7530  176.6060  139.0440 C   0  0  2  0  0  3  0  0  0  0  0  0
  191.1140  177.9860  138.9870 C   0  0  1  0  0  3  0  0  0  0  0  0
  189.6770  177.8440  138.4940 C   0  0  2  0  0  3  0  0  0  0  0  0
  191.2220  177.2570  140.3130 C   0  0  1  0  0  3  0  0  0  0  0  0
  189.3450  177.4790  141.9460 C   0  0  2  0  0  3  0  0  0  0  0  0
  188.1160  177.4750  143.9140 C   0  0  2  0  0  3  0  0  0  0  0  0
  189.4660  177.8410  144.1530 O   0  0  0  0  0  0  0  0  0  0  0  0
  190.2100  177.3240  143.1240 N   0  0  0  0  0  0  0  0  0  0  0  0
  187.0430  177.9900  141.7810 O   0  0  0  0  0  1  0  0  0  0  0  0
  187.9670  177.1510  142.4230 C   0  0  1  0  0  3  0  0  0  0  0  0
  187.1780  178.5630  144.4320 C   0  0  0  0  0  2  0  0  0  0  0  0
  185.9530  177.9580  144.9510 N   0  0  0  0  0  2  0  0  0  0  0  0
  184.6180  178.7460  144.1650 S   0  0  0  0  0  0  0  0  0  0  0  0
  184.9720  180.1770  143.8500 O   0  0  0  0  0  0  0  0  0  0  0  0
  183.4200  178.7250  145.0760 O   0  0  0  0  0  0  0  0  0  0  0  0
  184.1990  177.8780  142.6660 C   0  0  0  0  0  2  0  0  0  0  0  0
  183.5970  178.8050  141.6600 C   0  0  0  0  0  0  0  0  0  0  0  0
  184.3420  179.3640  140.8160 O   0  0  0  0  0  0  0  0  0  0  0  0
  182.2190  179.0600  141.6130 O   0  0  0  0  0  0  0  0  0  0  0  0
  181.4460  177.2490  140.1870 C   0  0  0  0  0  1  0  0  0  0  0  0
  181.3450  178.7260  140.5300 C   0  0  2  0  0  3  0  0  0  0  0  0
  181.5860  179.6260  139.3280 C   0  0  0  0  0  2  0  0  0  0  0  0
  180.0170  180.9540  140.6440 N   0  0  0  0  0  1  0  0  0  0  0  0
  180.6620  180.8390  139.3510 C   0  0  0  0  0  2  0  0  0  0  0  0
  190.4950  175.9180  143.4630 C   0  0  0  0  0  2  0  0  0  0  0  0
  191.9310  175.7200  143.9430 C   0  0  0  0  0  2  0  0  0  0  0  0
  191.9230  175.4190  145.3310 O   0  0  0  0  0  0  0  0  0  0  0  0
  191.6810  176.3820  146.3180 C   0  0  0  0  0  3  0  0  0  0  0  0
  190.5490  176.4880  146.8730 O   0  0  0  0  0  0  0  0  0  0  0  0
  193.2770  176.6680  139.0460 C   0  0  0  0  0  2  0  0  0  0  0  0
  193.7570  176.4210  137.6270 C   0  0  0  0  0  2  0  0  0  0  0  0
  192.6050  175.9860  136.7350 C   0  0  0  0  0  2  0  0  0  0  0  0
  192.8300  171.8720  135.5130 C   0  0  0  0  0  3  0  0  0  0  0  0
  194.0050  172.5370  135.9020 C   0  0  0  0  0  0  0  0  0  0  0  0
  191.5990  172.5320  135.5330 C   0  0  0  0  0  3  0  0  0  0  0  0
  193.9250  173.8760  136.3070 C   0  0  0  0  0  3  0  0  0  0  0  0
  192.6920  174.5390  136.3470 C   0  0  0  0  0  0  0  0  0  0  0  0
  191.5300  173.8640  135.9490 C   0  0  0  0  0  3  0  0  0  0  0  0
  195.2530  171.9060  135.9020 O   0  0  0  0  0  0  0  0  0  0  0  0
  196.3130  171.9020  137.2610 P   0  0  0  0  0  0  0  0  0  0  0  0
  195.4240  171.9610  138.6980 O   0  0  0  0  0  1  0  0  0  0  0  0
  197.2390  173.0930  137.1930 O   0  0  0  0  0  0  0  0  0  0  0  0
  197.2310  170.4790  137.2330 O   0  0  0  0  0  1  0  0  0  0  0  0
  189.0420  179.2100  138.3220 C   0  0  0  0  0  2  0  0  0  0  0  0
  186.2450  178.6410  137.6610 N   0  0  0  0  0  0  0  0  0  0  0  0
  185.0290  177.8680  137.5100 C   0  0  0  0  0  2  0  0  0  0  0  0
  185.4200  176.5000  136.9890 C   0  0  0  0  0  2  0  0  0  0  0  0
  187.0490  177.7210  135.5380 C   0  0  0  0  0  2  0  0  0  0  0  0
  187.1890  178.5870  136.7720 C   0  0  0  0  0  0  0  0  0  0  0  0
  188.4260  179.2640  137.0020 N   0  0  0  0  0  2  0  0  0  0  0  0
  186.0740  176.6190  135.6660 N   0  0  1  0  0  0  0  0  0  0  0  0
  187.5220  174.6730  136.2490 C   0  0  2  0  0  3  0  0  0  0  0  0
  186.7320  175.3870  135.1650 C   0  0  2  0  0  3  0  0  0  0  0  0
  188.2550  175.4460  135.1700 C   0  0  0  0  0  2  0  0  0  0  0  0
  187.5780  173.1980  135.9220 C   0  0  0  0  0  1  0  0  0  0  0  0
  2  1  1  6  0  0  0
  2  8  1  0  0  0  0
  3  1  2  0  0  0  0
  4 33  1  1  0  0  0
  4  7  1  0  0  0  0
  5  4  1  0  0  0  0
  5  7  1  0  0  0  0
  6  5  1  0  0  0  0
  6  1  1  0  0  0  0
  7  2  1  0  0  0  0
  8 13  1  0  0  0  0
  8 11  1  0  0  0  0
  9 10  1  0  0  0  0
  9 14  1  0  0  0  0
 11 28  1  0  0  0  0
 11 10  1  0  0  0  0
 12 13  1  0  0  0  0
 13  9  1  0  0  0  0
 14 15  1  0  0  0  0
 16 15  1  0  0  0  0
 16 18  2  0  0  0  0
 17 16  2  0  0  0  0
 19 16  1  0  0  0  0
 20 19  1  0  0  0  0
 21 20  2  0  0  0  0
 22 20  1  0  0  0  0
 23 24  1  0  0  0  0
 24 22  1  0  0  0  0
 25 27  1  0  0  0  0
 25 24  1  0  0  0  0
 27 26  1  0  0  0  0
 28 29  1  0  0  0  0
 29 30  1  0  0  0  0
 30 31  1  0  0  0  0
 31 32  2  0  0  0  0
 34 33  1  0  0  0  0
 35 34  1  0  0  0  0
 36 38  2  0  0  0  0
 36 37  1  0  0  0  0
 37 42  1  0  0  0  0
 37 39  2  0  0  0  0
 38 41  1  0  0  0  0
 39 40  1  0  0  0  0
 40 35  1  0  0  0  0
 41 40  2  0  0  0  0
 42 43  1  0  0  0  0
 43 44  1  0  0  0  0
 45 43  2  0  0  0  0
 46 43  1  0  0  0  0
 47  6  1  0  0  0  0
 49 48  1  0  0  0  0
 50 49  1  0  0  0  0
 51 54  1  0  0  0  0
 51 52  1  0  0  0  0
 52 53  1  0  0  0  0
 52 48  2  0  0  0  0
 53 47  1  0  0  0  0
 54 50  1  0  0  0  0
 56 57  1  0  0  0  0
 56 54  1  0  0  0  0
 56 55  1  0  0  0  0
 57 55  1  0  0  0  0
 58 55  1  0  0  0  0
M  END
>  <MODEL>
7

>  <REMARK>
 VINA RESULT:      -5.5      3.694      9.426
  Name = 
  23 active torsions:
  status: ('A' for Active; 'I' for Inactive)
    1  A    between atoms: C_2  and  C_9
    2  A    between atoms: C_4  and  C_51
    3  A    between atoms: P_5  and  O_49
    4  A    between atoms: N_10  and  S_11
    5  A    between atoms: N_10  and  C_51
    6  A    between atoms: S_11  and  C_15
    7  A    between atoms: C_12  and  O_49
    8  A    between atoms: C_15  and  C_22
    9  A    between atoms: C_16  and  N_30
   10  A    between atoms: C_16  and  C_32
   11  A    between atoms: C_18  and  C_29
   12  A    between atoms: C_18  and  C_48
   13  A    between atoms: C_20  and  O_38
   14  A    between atoms: C_22  and  O_35
   15  A    between atoms: C_24  and  C_42
   16  A    between atoms: C_24  and  C_54
   17  A    between atoms: C_31  and  N_47
   18  A    between atoms: C_32  and  O_38
   19  A    between atoms: C_33  and  C_54
   20  A    between atoms: O_35  and  C_48
   21  A    between atoms: C_42  and  C_55
   22  A    between atoms: N_46  and  C_53
   23  A    between atoms: C_52  and  C_53
                            x       y       z     vdW  Elec       q    Type
                         _______ _______ _______ _____ _____    ______ ____

>  <TORSDO>
F 23

$$$$
=
 OpenBabel11032419123D

 58 63  0  0  1  0  0  0  0  0999 V2000
  188.2020  178.2410  136.8770 C   0  0  0  0  0  0  0  0  0  0  0  0
  187.3690  178.1650  138.1020 C   0  0  1  0  0  3  0  0  0  0  0  0
  188.8440  179.2360  136.6020 O   0  0  0  0  0  0  0  0  0  0  0  0
  185.4270  177.7250  136.5270 C   0  0  2  0  0  3  0  0  0  0  0  0
  186.4860  176.6440  136.3650 C   0  0  1  0  0  3  0  0  0  0  0  0
  187.7660  177.2810  135.8330 C   0  0  2  0  0  3  0  0  0  0  0  0
  186.2100  177.2330  137.7360 C   0  0  1  0  0  3  0  0  0  0  0  0
  188.1360  177.5790  139.2870 C   0  0  2  0  0  3  0  0  0  0  0  0
  189.5800  177.8830  141.0790 C   0  0  2  0  0  3  0  0  0  0  0  0
  188.3620  177.2840  141.4970 O   0  0  0  0  0  0  0  0  0  0  0  0
  187.4120  177.6160  140.5660 N   0  0  0  0  0  0  0  0  0  0  0  0
  190.4540  177.4950  138.8320 O   0  0  0  0  0  1  0  0  0  0  0  0
  189.4770  178.1730  139.5770 C   0  0  1  0  0  3  0  0  0  0  0  0
  190.7620  177.0060  141.4860 C   0  0  0  0  0  2  0  0  0  0  0  0
  191.5450  177.6770  142.5210 N   0  0  0  0  0  2  0  0  0  0  0  0
  191.2220  176.8590  144.0200 S   0  0  0  0  0  0  0  0  0  0  0  0
  191.5800  177.7490  145.1840 O   0  0  0  0  0  0  0  0  0  0  0  0
  192.0460  175.6020  144.0910 O   0  0  0  0  0  0  0  0  0  0  0  0
  189.5000  176.4080  144.1060 C   0  0  0  0  0  2  0  0  0  0  0  0
  188.7380  177.3650  144.9650 C   0  0  0  0  0  0  0  0  0  0  0  0
  188.3230  178.4420  144.4670 O   0  0  0  0  0  0  0  0  0  0  0  0
  188.4490  177.0910  146.3090 O   0  0  0  0  0  0  0  0  0  0  0  0
  189.2990  178.0930  148.3550 C   0  0  0  0  0  1  0  0  0  0  0  0
  188.1850  178.0660  147.3220 C   0  0  2  0  0  3  0  0  0  0  0  0
  186.8130  177.8580  147.9450 C   0  0  0  0  0  2  0  0  0  0  0  0
  185.6790  179.5440  146.5920 N   0  0  0  0  0  1  0  0  0  0  0  0
  185.7000  178.1370  146.9400 C   0  0  0  0  0  2  0  0  0  0  0  0
  186.9140  178.9570  140.9200 C   0  0  0  0  0  2  0  0  0  0  0  0
  185.3890  179.0080  140.9840 C   0  0  0  0  0  2  0  0  0  0  0  0
  184.9330  178.1210  141.9950 O   0  0  0  0  0  0  0  0  0  0  0  0
  184.9500  178.4440  143.3570 C   0  0  0  0  0  3  0  0  0  0  0  0
  183.8790  178.6260  144.0060 O   0  0  0  0  0  0  0  0  0  0  0  0
  184.0130  177.1570  136.5770 C   0  0  0  0  0  2  0  0  0  0  0  0
  183.8690  176.3760  137.8710 C   0  0  0  0  0  2  0  0  0  0  0  0
  182.7290  175.3740  137.7720 C   0  0  0  0  0  2  0  0  0  0  0  0
  179.3770  176.4740  140.2280 C   0  0  0  0  0  3  0  0  0  0  0  0
  180.1880  177.4830  139.6820 C   0  0  0  0  0  0  0  0  0  0  0  0
  179.6460  175.1280  139.9680 C   0  0  0  0  0  3  0  0  0  0  0  0
  181.2750  177.1200  138.8750 C   0  0  0  0  0  3  0  0  0  0  0  0
  181.5400  175.7740  138.5970 C   0  0  0  0  0  0  0  0  0  0  0  0
  180.7260  174.7780  139.1550 C   0  0  0  0  0  3  0  0  0  0  0  0
  179.9450  178.8410  139.9130 O   0  0  0  0  0  0  0  0  0  0  0  0
  180.8160  180.1070  139.1330 P   0  0  0  0  0  0  0  0  0  0  0  0
  180.5280  181.5820  139.9070 O   0  0  0  0  0  1  0  0  0  0  0  0
  180.3890  180.2070  137.6870 O   0  0  0  0  0  0  0  0  0  0  0  0
  182.4710  179.7560  139.2020 O   0  0  0  0  0  1  0  0  0  0  0  0
  188.8090  176.2170  135.5570 C   0  0  0  0  0  2  0  0  0  0  0  0
  189.2630  173.3420  135.2280 N   0  0  0  0  0  0  0  0  0  0  0  0
  189.0520  171.9940  134.7410 C   0  0  0  0  0  2  0  0  0  0  0  0
  187.5570  171.7520  134.7000 C   0  0  0  0  0  2  0  0  0  0  0  0
  187.4850  172.9840  136.8740 C   0  0  0  0  0  2  0  0  0  0  0  0
  188.5540  173.8220  136.2030 C   0  0  0  0  0  0  0  0  0  0  0  0
  188.6980  175.1910  136.5860 N   0  0  0  0  0  2  0  0  0  0  0  0
  186.9790  171.8610  136.0590 N   0  0  1  0  0  0  0  0  0  0  0  0
  184.9380  173.2520  135.7090 C   0  0  2  0  0  3  0  0  0  0  0  0
  185.4980  171.9010  136.1230 C   0  0  2  0  0  3  0  0  0  0  0  0
  184.9430  172.8570  137.1730 C   0  0  0  0  0  2  0  0  0  0  0  0
  183.5480  173.0560  135.1510 C   0  0  0  0  0  1  0  0  0  0  0  0
  2  1  1  6  0  0  0
  2  8  1  0  0  0  0
  3  1  2  0  0  0  0
  4 33  1  1  0  0  0
  4  7  1  0  0  0  0
  5  4  1  0  0  0  0
  5  7  1  0  0  0  0
  6  5  1  0  0  0  0
  6  1  1  0  0  0  0
  7  2  1  0  0  0  0
  8 13  1  0  0  0  0
  8 11  1  0  0  0  0
  9 14  1  0  0  0  0
  9 10  1  0  0  0  0
 11 28  1  0  0  0  0
 11 10  1  0  0  0  0
 12 13  1  0  0  0  0
 13  9  1  0  0  0  0
 14 15  1  0  0  0  0
 15 16  1  0  0  0  0
 16 18  2  0  0  0  0
 16 19  1  0  0  0  0
 16 17  2  0  0  0  0
 19 20  1  0  0  0  0
 20 22  1  0  0  0  0
 21 20  2  0  0  0  0
 22 24  1  0  0  0  0
 24 25  1  0  0  0  0
 24 23  1  0  0  0  0
 26 27  1  0  0  0  0
 27 25  1  0  0  0  0
 28 29  1  0  0  0  0
 29 30  1  0  0  0  0
 30 31  1  0  0  0  0
 31 32  2  0  0  0  0
 33 34  1  0  0  0  0
 35 34  1  0  0  0  0
 35 40  1  0  0  0  0
 37 42  1  0  0  0  0
 37 36  2  0  0  0  0
 38 36  1  0  0  0  0
 39 37  1  0  0  0  0
 40 39  2  0  0  0  0
 40 41  1  0  0  0  0
 41 38  2  0  0  0  0
 43 46  1  0  0  0  0
 43 44  1  0  0  0  0
 43 42  1  0  0  0  0
 45 43  2  0  0  0  0
 47  6  1  0  0  0  0
 47 53  1  0  0  0  0
 48 52  2  0  0  0  0
 49 48  1  0  0  0  0
 50 49  1  0  0  0  0
 50 54  1  0  0  0  0
 52 53  1  0  0  0  0
 52 51  1  0  0  0  0
 54 56  1  0  0  0  0
 54 51  1  0  0  0  0
 55 56  1  0  0  0  0
 55 57  1  0  0  0  0
 56 57  1  0  0  0  0
 58 55  1  0  0  0  0
M  END
>  <MODEL>
8

>  <REMARK>
 VINA RESULT:      -5.5      3.604      8.592
  Name = 
  23 active torsions:
  status: ('A' for Active; 'I' for Inactive)
    1  A    between atoms: C_2  and  C_9
    2  A    between atoms: C_4  and  C_51
    3  A    between atoms: P_5  and  O_49
    4  A    between atoms: N_10  and  S_11
    5  A    between atoms: N_10  and  C_51
    6  A    between atoms: S_11  and  C_15
    7  A    between atoms: C_12  and  O_49
    8  A    between atoms: C_15  and  C_22
    9  A    between atoms: C_16  and  N_30
   10  A    between atoms: C_16  and  C_32
   11  A    between atoms: C_18  and  C_29
   12  A    between atoms: C_18  and  C_48
   13  A    between atoms: C_20  and  O_38
   14  A    between atoms: C_22  and  O_35
   15  A    between atoms: C_24  and  C_42
   16  A    between atoms: C_24  and  C_54
   17  A    between atoms: C_31  and  N_47
   18  A    between atoms: C_32  and  O_38
   19  A    between atoms: C_33  and  C_54
   20  A    between atoms: O_35  and  C_48
   21  A    between atoms: C_42  and  C_55
   22  A    between atoms: N_46  and  C_53
   23  A    between atoms: C_52  and  C_53
                            x       y       z     vdW  Elec       q    Type
                         _______ _______ _______ _____ _____    ______ ____

>  <TORSDO>
F 23

$$$$
=
 OpenBabel11032419123D

 58 63  0  0  1  0  0  0  0  0999 V2000
  187.4420  175.6230  136.9350 C   0  0  0  0  0  0  0  0  0  0  0  0
  186.5330  176.4410  137.7760 C   0  0  1  0  0  3  0  0  0  0  0  0
  187.3570  174.4110  136.8960 O   0  0  0  0  0  0  0  0  0  0  0  0
  188.6450  177.2920  138.8980 C   0  0  2  0  0  3  0  0  0  0  0  0
  188.6710  177.6270  137.4140 C   0  0  1  0  0  3  0  0  0  0  0  0
  188.7070  176.3280  136.6150 C   0  0  2  0  0  3  0  0  0  0  0  0
  187.3600  177.6670  138.1740 C   0  0  1  0  0  3  0  0  0  0  0  0
  185.2900  176.8950  137.0100 C   0  0  2  0  0  3  0  0  0  0  0  0
  183.0750  176.5450  136.4120 C   0  0  2  0  0  3  0  0  0  0  0  0
  183.2520  177.8260  136.9990 O   0  0  0  0  0  0  0  0  0  0  0  0
  184.3790  177.7580  137.7760 N   0  0  0  0  0  0  0  0  0  0  0  0
  184.8820  175.4890  135.1550 O   0  0  0  0  0  1  0  0  0  0  0  0
  184.4230  175.8180  136.4390 C   0  0  1  0  0  3  0  0  0  0  0  0
  182.4480  176.6850  135.0270 C   0  0  0  0  0  2  0  0  0  0  0  0
  181.6940  177.9350  134.9460 N   0  0  0  0  0  2  0  0  0  0  0  0
  180.0520  177.5740  135.3850 S   0  0  0  0  0  0  0  0  0  0  0  0
  179.9670  177.2540  136.8560 O   0  0  0  0  0  0  0  0  0  0  0  0
  179.5730  176.3860  134.5950 O   0  0  0  0  0  0  0  0  0  0  0  0
  179.0030  178.9630  135.0020 C   0  0  0  0  0  2  0  0  0  0  0  0
  179.4300  180.1810  135.7560 C   0  0  0  0  0  0  0  0  0  0  0  0
  179.4760  181.2870  135.1610 O   0  0  0  0  0  0  0  0  0  0  0  0
  179.7620  180.1360  137.1170 O   0  0  0  0  0  0  0  0  0  0  0  0
  181.1520  181.7690  138.2620 C   0  0  0  0  0  1  0  0  0  0  0  0
  179.7460  181.2460  138.0180 C   0  0  2  0  0  3  0  0  0  0  0  0
  179.0160  180.9010  139.3080 C   0  0  0  0  0  2  0  0  0  0  0  0
  179.5790  180.9180  141.6830 N   0  0  0  0  0  1  0  0  0  0  0  0
  179.9870  180.4240  140.3820 C   0  0  0  0  0  2  0  0  0  0  0  0
  183.9740  177.1830  139.0710 C   0  0  0  0  0  2  0  0  0  0  0  0
  183.4390  178.2430  140.0320 C   0  0  0  0  0  2  0  0  0  0  0  0
  184.2050  178.2200  141.2280 O   0  0  0  0  0  0  0  0  0  0  0  0
  185.5550  178.5890  141.2750 C   0  0  0  0  0  3  0  0  0  0  0  0
  185.9050  179.8040  141.3260 O   0  0  0  0  0  0  0  0  0  0  0  0
  189.0920  178.4600  139.7700 C   0  0  0  0  0  2  0  0  0  0  0  0
  190.0880  177.9310  140.7860 C   0  0  0  0  0  2  0  0  0  0  0  0
  189.4550  176.8530  141.6520 C   0  0  0  0  0  2  0  0  0  0  0  0
  191.1880  176.8170  145.5850 C   0  0  0  0  0  3  0  0  0  0  0  0
  190.0320  177.5820  145.3520 C   0  0  0  0  0  0  0  0  0  0  0  0
  191.7630  176.0660  144.5570 C   0  0  0  0  0  3  0  0  0  0  0  0
  189.4660  177.5840  144.0690 C   0  0  0  0  0  3  0  0  0  0  0  0
  190.0270  176.8200  143.0390 C   0  0  0  0  0  0  0  0  0  0  0  0
  191.1840  176.0670  143.2860 C   0  0  0  0  0  3  0  0  0  0  0  0
  189.4240  178.3400  146.3580 O   0  0  0  0  0  0  0  0  0  0  0  0
  187.9560  177.8800  147.1350 P   0  0  0  0  0  0  0  0  0  0  0  0
  187.7150  178.8050  148.5290 O   0  0  0  0  0  1  0  0  0  0  0  0
  188.0090  176.4160  147.5070 O   0  0  0  0  0  1  0  0  0  0  0  0
  186.6680  178.1370  146.0670 O   0  0  0  0  0  0  0  0  0  0  0  0
  188.8430  176.6230  135.1340 C   0  0  0  0  0  2  0  0  0  0  0  0
  190.2580  174.1140  134.6000 N   0  0  0  0  0  0  0  0  0  0  0  0
  190.8320  172.8110  134.8640 C   0  0  0  0  0  2  0  0  0  0  0  0
  191.4660  172.8640  136.2400 C   0  0  0  0  0  2  0  0  0  0  0  0
  192.2430  175.1500  135.5920 C   0  0  0  0  0  2  0  0  0  0  0  0
  190.8820  175.2030  134.9270 C   0  0  0  0  0  0  0  0  0  0  0  0
  190.2450  176.4710  134.7640 N   0  0  0  0  0  2  0  0  0  0  0  0
  192.5480  173.8740  136.2710 N   0  0  1  0  0  0  0  0  0  0  0  0
  194.2750  175.1350  137.5550 C   0  0  2  0  0  3  0  0  0  0  0  0
  193.0740  174.2060  137.6180 C   0  0  2  0  0  3  0  0  0  0  0  0
  194.4750  173.6700  137.8900 C   0  0  0  0  0  2  0  0  0  0  0  0
  194.3350  175.9430  138.8310 C   0  0  0  0  0  1  0  0  0  0  0  0
  2  1  1  6  0  0  0
  2  7  1  0  0  0  0
  3  1  2  0  0  0  0
  4 33  1  1  0  0  0
  5  7  1  0  0  0  0
  5  4  1  0  0  0  0
  6  1  1  0  0  0  0
  6  5  1  0  0  0  0
  7  4  1  0  0  0  0
  8  2  1  0  0  0  0
  8 11  1  0  0  0  0
  9 13  1  0  0  0  0
  9 10  1  0  0  0  0
 10 11  1  0  0  0  0
 11 28  1  0  0  0  0
 12 13  1  0  0  0  0
 13  8  1  0  0  0  0
 14  9  1  0  0  0  0
 15 14  1  0  0  0  0
 15 16  1  0  0  0  0
 16 17  2  0  0  0  0
 18 16  2  0  0  0  0
 19 16  1  0  0  0  0
 19 20  1  0  0  0  0
 20 22  1  0  0  0  0
 21 20  2  0  0  0  0
 22 24  1  0  0  0  0
 24 23  1  0  0  0  0
 24 25  1  0  0  0  0
 25 27  1  0  0  0  0
 27 26  1  0  0  0  0
 28 29  1  0  0  0  0
 29 30  1  0  0  0  0
 30 31  1  0  0  0  0
 31 32  2  0  0  0  0
 33 34  1  0  0  0  0
 34 35  1  0  0  0  0
 35 40  1  0  0  0  0
 37 36  1  0  0  0  0
 37 42  1  0  0  0  0
 38 36  2  0  0  0  0
 39 37  2  0  0  0  0
 40 41  2  0  0  0  0
 40 39  1  0  0  0  0
 41 38  1  0  0  0  0
 42 43  1  0  0  0  0
 43 45  1  0  0  0  0
 43 44  1  0  0  0  0
 46 43  2  0  0  0  0
 47  6  1  0  0  0  0
 48 49  1  0  0  0  0
 48 52  2  0  0  0  0
 49 50  1  0  0  0  0
 50 54  1  0  0  0  0
 51 54  1  0  0  0  0
 52 51  1  0  0  0  0
 53 52  1  0  0  0  0
 53 47  1  0  0  0  0
 54 56  1  0  0  0  0
 55 56  1  0  0  0  0
 55 57  1  0  0  0  0
 55 58  1  0  0  0  0
 56 57  1  0  0  0  0
M  END
>  <MODEL>
9

>  <REMARK>
 VINA RESULT:      -5.4      3.262      9.223
  Name = 
  23 active torsions:
  status: ('A' for Active; 'I' for Inactive)
    1  A    between atoms: C_2  and  C_9
    2  A    between atoms: C_4  and  C_51
    3  A    between atoms: P_5  and  O_49
    4  A    between atoms: N_10  and  S_11
    5  A    between atoms: N_10  and  C_51
    6  A    between atoms: S_11  and  C_15
    7  A    between atoms: C_12  and  O_49
    8  A    between atoms: C_15  and  C_22
    9  A    between atoms: C_16  and  N_30
   10  A    between atoms: C_16  and  C_32
   11  A    between atoms: C_18  and  C_29
   12  A    between atoms: C_18  and  C_48
   13  A    between atoms: C_20  and  O_38
   14  A    between atoms: C_22  and  O_35
   15  A    between atoms: C_24  and  C_42
   16  A    between atoms: C_24  and  C_54
   17  A    between atoms: C_31  and  N_47
   18  A    between atoms: C_32  and  O_38
   19  A    between atoms: C_33  and  C_54
   20  A    between atoms: O_35  and  C_48
   21  A    between atoms: C_42  and  C_55
   22  A    between atoms: N_46  and  C_53
   23  A    between atoms: C_52  and  C_53
                            x       y       z     vdW  Elec       q    Type
                         _______ _______ _______ _____ _____    ______ ____

>  <TORSDO>
F 23

$$$$
