=
 OpenBabel11042412333D

 68 71  0  0  1  0  0  0  0  0999 V2000
  188.2420  177.6780  142.1300 C   0  0  0  0  0  0  0  0  0  0  0  0
  188.8420  178.0320  140.9680 C   0  0  0  0  0  0  0  0  0  0  0  0
  188.1370  178.0960  139.6290 C   0  0  2  0  0  3  0  0  0  0  0  0
  189.0130  179.5690  137.8570 N   0  0  0  0  0  2  0  0  0  0  0  0
  188.0860  175.7230  139.0620 N   0  0  0  0  0  1  0  0  0  0  0  0
  188.6180  177.0170  138.6500 C   0  0  1  0  0  3  0  0  0  0  0  0
  188.0380  179.4760  138.9570 C   0  0  0  0  0  2  0  0  0  0  0  0
  188.7460  178.5640  136.8080 C   0  0  0  0  0  2  0  0  0  0  0  0
  188.1210  177.3280  137.3140 N   0  0  0  0  0  2  0  0  0  0  0  0
  188.9800  177.8540  143.4290 C   0  0  1  0  0  3  0  0  0  0  0  0
  188.4200  178.8850  144.1870 O   0  0  0  0  0  1  0  0  0  0  0  0
  190.5490  177.2780  145.9670 C   0  0  0  0  0  2  0  0  0  0  0  0
  189.1730  176.5580  144.2350 C   0  0  2  0  0  3  0  0  0  0  0  0
  191.6430  176.1090  144.0810 C   0  0  0  0  0  2  0  0  0  0  0  0
  189.2890  176.7330  145.6390 O   0  0  0  0  0  0  0  0  0  0  0  0
  190.2560  175.6380  143.6600 C   0  0  0  0  0  2  0  0  0  0  0  0
  191.6790  176.3280  145.5850 C   0  0  0  0  0  2  0  0  0  0  0  0
  190.1860  178.5160  140.9860 N   0  0  0  0  0  2  0  0  0  0  0  0
  191.2600  177.7270  140.4070 C   0  0  0  0  0  2  0  0  0  0  0  0
  190.8690  176.2690  140.3330 C   0  0  0  0  0  2  0  0  0  0  0  0
  191.5370  175.6450  139.2810 O   0  0  0  0  0  0  0  0  0  0  0  0
  192.3060  176.6540  138.6990 C   0  0  1  0  0  3  0  0  0  0  0  0
  193.5180  176.9350  139.5710 C   0  0  0  0  0  1  0  0  0  0  0  0
  192.7520  176.2110  137.3460 C   0  0  0  0  0  3  0  0  0  0  0  0
  193.9500  176.4240  136.9530 N   0  0  0  0  0  0  0  0  0  0  0  0
  194.3610  175.9930  135.6440 C   0  0  0  0  0  2  0  0  0  0  0  0
  196.9380  173.2650  134.8840 C   0  0  2  0  0  3  0  0  0  0  0  0
  196.3710  174.6840  135.0050 C   0  0  0  0  0  2  0  0  0  0  0  0
  196.0750  172.2930  135.4370 O   0  0  0  0  0  0  0  0  0  0  0  0
  195.0230  174.6320  135.7280 C   0  0  2  0  0  3  0  0  0  0  0  0
  194.1410  173.6380  135.2200 O   0  0  0  0  0  0  0  0  0  0  0  0
  194.8350  172.4700  134.7890 C   0  0  2  0  0  3  0  0  0  0  0  0
  198.9570  174.4870  135.2890 C   0  0  0  0  0  1  0  0  0  0  0  0
  198.2920  173.1920  135.4570 N   0  0  0  0  0  0  0  0  0  0  0  0
  198.8670  173.9840  137.7120 C   0  0  0  0  0  1  0  0  0  0  0  0
  198.2020  172.8900  136.8950 C   0  0  2  0  0  3  0  0  0  0  0  0
  198.8380  171.6810  137.1880 O   0  0  0  0  0  1  0  0  0  0  0  0
  193.9950  171.2840  134.9370 N   0  0  0  0  0  2  0  0  0  0  0  0
  192.7010  171.6650  135.4860 C   0  0  0  0  0  2  0  0  0  0  0  0
  191.6060  171.1290  134.5940 C   0  0  0  0  0  2  0  0  0  0  0  0
  190.4210  172.0770  134.6070 C   0  0  0  0  0  1  0  0  0  0  0  0
  186.8340  177.1460  142.1840 C   0  0  0  0  0  2  0  0  0  0  0  0
  185.3060  178.5230  143.5620 C   0  0  0  0  0  3  0  0  0  0  0  0
  185.7760  178.2220  142.3460 C   0  0  0  0  0  0  0  0  0  0  0  0
  181.9430  179.5560  140.1990 C   0  0  0  0  0  1  0  0  0  0  0  0
  185.3650  179.0360  141.1820 C   0  0  0  0  0  3  0  0  0  0  0  0
  184.2310  178.8660  140.5500 C   0  0  0  0  0  0  0  0  0  0  0  0
  183.1080  178.6580  139.9180 C   0  0  0  0  0  0  0  0  0  0  0  0
  180.9700  176.6770  140.0200 C   0  0  0  0  0  2  0  0  0  0  0  0
  181.8880  176.6170  139.0560 C   0  0  0  0  0  0  0  0  0  0  0  0
  181.1180  174.5010  138.2930 O   0  0  0  0  0  0  0  0  0  0  0  0
  182.9850  177.5590  139.0000 N   0  0  0  0  0  0  0  0  0  0  0  0
  184.1440  177.2290  138.1620 C   0  0  0  0  0  2  0  0  0  0  0  0
  183.6920  176.6530  136.8250 C   0  0  0  0  0  2  0  0  0  0  0  0
  182.8400  175.4860  137.0280 N   0  0  0  0  0  0  0  0  0  0  0  0
  181.8840  175.4860  138.1080 C   0  0  0  0  0  0  0  0  0  0  0  0
  183.0280  174.3580  136.1110 C   0  0  2  0  0  3  0  0  0  0  0  0
  184.4550  173.7940  136.1660 C   0  0  2  0  0  3  0  0  0  0  0  0
  185.0940  173.7210  134.7890 C   0  0  0  0  0  1  0  0  0  0  0  0
  183.5650  171.5680  136.1420 O   0  0  0  0  0  1  0  0  0  0  0  0
  184.4680  172.4100  136.7920 C   0  0  0  0  0  2  0  0  0  0  0  0
  182.6350  174.6790  134.8020 O   0  0  0  0  0  0  0  0  0  0  0  0
  181.2580  174.4220  134.7490 C   0  0  0  0  0  2  0  0  0  0  0  0
  180.4720  175.7170  134.5940 C   0  0  0  0  0  2  0  0  0  0  0  0
  179.4120  175.7430  135.4950 O   0  0  0  0  0  1  0  0  0  0  0  0
  185.6970  177.7960  144.8080 C   0  0  0  0  0  2  0  0  0  0  0  0
  186.0140  178.9960  146.9570 C   0  0  0  0  0  1  0  0  0  0  0  0
  184.9980  178.4100  146.0080 C   0  0  0  0  0  2  0  0  0  0  0  0
  1 42  1  0  0  0  0
  1 10  1  0  0  0  0
  2 18  1  0  0  0  0
  2  1  2  0  0  0  0
  3  2  1  1  0  0  0
  4  7  1  0  0  0  0
  6  5  1  1  0  0  0
  6  3  1  0  0  0  0
  7  3  1  0  0  0  0
  8  9  1  0  0  0  0
  8  4  1  0  0  0  0
  9  6  1  0  0  0  0
 10 11  1  1  0  0  0
 13 10  1  6  0  0  0
 13 15  1  0  0  0  0
 14 17  1  0  0  0  0
 15 12  1  0  0  0  0
 16 14  1  0  0  0  0
 16 13  1  0  0  0  0
 17 12  1  0  0  0  0
 19 18  1  0  0  0  0
 20 19  1  0  0  0  0
 21 20  1  0  0  0  0
 22 21  1  0  0  0  0
 22 23  1  1  0  0  0
 24 22  1  0  0  0  0
 25 24  2  0  0  0  0
 26 25  1  0  0  0  0
 27 28  1  0  0  0  0
 27 29  1  0  0  0  0
 27 34  1  1  0  0  0
 28 30  1  0  0  0  0
 30 26  1  6  0  0  0
 31 30  1  0  0  0  0
 32 38  1  1  0  0  0
 32 31  1  0  0  0  0
 32 29  1  0  0  0  0
 33 34  1  0  0  0  0
 34 36  1  0  0  0  0
 36 37  1  0  0  0  0
 36 35  1  1  0  0  0
 38 39  1  0  0  0  0
 40 41  1  0  0  0  0
 40 39  1  0  0  0  0
 42 44  1  0  0  0  0
 43 66  1  0  0  0  0
 44 43  2  0  0  0  0
 46 44  1  0  0  0  0
 47 46  2  0  0  0  0
 48 45  1  0  0  0  0
 48 47  2  0  0  0  0
 50 49  2  0  0  0  0
 52 50  1  0  0  0  0
 52 48  1  0  0  0  0
 53 52  1  0  0  0  0
 54 55  1  0  0  0  0
 54 53  1  0  0  0  0
 55 56  1  0  0  0  0
 56 51  2  0  0  0  0
 56 50  1  0  0  0  0
 57 62  1  6  0  0  0
 57 58  1  0  0  0  0
 57 55  1  0  0  0  0
 58 59  1  6  0  0  0
 58 61  1  0  0  0  0
 60 61  1  0  0  0  0
 63 62  1  0  0  0  0
 64 63  1  0  0  0  0
 64 65  1  0  0  0  0
 66 68  1  0  0  0  0
 68 67  1  0  0  0  0
M  END
>  <MODEL>
1

>  <REMARK>
 VINA RESULT:      -3.2      0.000      0.000
  Name = 
  28 active torsions:
  status: ('A' for Active; 'I' for Inactive)
    1  A    between atoms: C_1  and  N_53
    2  A    between atoms: C_3  and  C_26
    3  A    between atoms: C_5  and  C_15
    4  A    between atoms: C_5  and  C_18
    5  A    between atoms: O_9  and  C_13
    6  A    between atoms: O_9  and  C_16
    7  A    between atoms: C_11  and  C_66
    8  A    between atoms: C_13  and  C_64
    9  A    between atoms: O_14  and  C_65
   10  A    between atoms: O_14  and  C_66
   11  A    between atoms: C_15  and  C_17
   12  A    between atoms: C_16  and  C_41
   13  A    between atoms: C_17  and  C_33
   14  A    between atoms: C_22  and  C_38
   15  A    between atoms: C_23  and  C_28
   16  A    between atoms: C_23  and  N_39
   17  A    between atoms: C_24  and  C_38
   18  A    between atoms: C_26  and  N_43
   19  A    between atoms: C_29  and  N_53
   20  A    between atoms: C_32  and  C_36
   21  A    between atoms: C_33  and  C_45
   22  A    between atoms: C_34  and  N_42
   23  A    between atoms: C_34  and  C_61
   24  A    between atoms: C_36  and  C_65
   25  A    between atoms: N_37  and  C_59
   26  A    between atoms: N_39  and  C_67
   27  A    between atoms: N_43  and  C_64
   28  A    between atoms: N_58  and  C_65
                            x       y       z     vdW  Elec       q    Type
                         _______ _______ _______ _____ _____    ______ ____

>  <TORSDO>
F 28

$$$$
=
 OpenBabel11042412333D

 68 71  0  0  1  0  0  0  0  0999 V2000
  180.4890  177.1760  137.8100 C   0  0  0  0  0  0  0  0  0  0  0  0
  180.8060  177.6540  139.0380 C   0  0  0  0  0  0  0  0  0  0  0  0
  180.2450  178.9320  139.6270 C   0  0  2  0  0  3  0  0  0  0  0  0
  179.2280  178.8970  141.8720 N   0  0  0  0  0  2  0  0  0  0  0  0
  182.1860  180.3920  139.3990 N   0  0  0  0  0  1  0  0  0  0  0  0
  181.3020  179.7580  140.3700 C   0  0  1  0  0  3  0  0  0  0  0  0
  178.9380  178.8150  140.4310 C   0  0  0  0  0  2  0  0  0  0  0  0
  179.8360  180.1940  142.2320 C   0  0  0  0  0  2  0  0  0  0  0  0
  180.6340  180.7980  141.1490 N   0  0  0  0  0  2  0  0  0  0  0  0
  180.9370  175.7960  137.4140 C   0  0  1  0  0  3  0  0  0  0  0  0
  181.8770  175.2950  138.3170 O   0  0  0  0  0  1  0  0  0  0  0  0
  179.7830  173.5330  139.0810 C   0  0  0  0  0  2  0  0  0  0  0  0
  179.7910  174.8080  137.1360 C   0  0  2  0  0  3  0  0  0  0  0  0
  180.9180  172.5600  137.1110 C   0  0  0  0  0  2  0  0  0  0  0  0
  179.0380  174.4220  138.2770 O   0  0  0  0  0  0  0  0  0  0  0  0
  180.2100  173.6160  136.2690 C   0  0  0  0  0  2  0  0  0  0  0  0
  180.0840  172.2350  138.3400 C   0  0  0  0  0  2  0  0  0  0  0  0
  181.6060  176.8630  139.9180 N   0  0  0  0  0  2  0  0  0  0  0  0
  183.0560  176.9480  139.8710 C   0  0  0  0  0  2  0  0  0  0  0  0
  183.5940  177.5560  141.1470 C   0  0  0  0  0  2  0  0  0  0  0  0
  184.0490  178.8510  140.9060 O   0  0  0  0  0  0  0  0  0  0  0  0
  184.9640  179.1030  141.9290 C   0  0  1  0  0  3  0  0  0  0  0  0
  184.2170  179.3940  143.2190 C   0  0  0  0  0  1  0  0  0  0  0  0
  185.8360  177.9050  142.1130 C   0  0  0  0  0  3  0  0  0  0  0  0
  187.1080  178.0230  142.1320 N   0  0  0  0  0  0  0  0  0  0  0  0
  187.9310  176.8570  142.3070 C   0  0  0  0  0  2  0  0  0  0  0  0
  188.3110  177.8860  145.9760 C   0  0  2  0  0  3  0  0  0  0  0  0
  187.6650  177.8000  144.5880 C   0  0  0  0  0  2  0  0  0  0  0  0
  189.4300  177.0340  146.1010 O   0  0  0  0  0  0  0  0  0  0  0  0
  188.4210  176.7750  143.7400 C   0  0  2  0  0  3  0  0  0  0  0  0
  189.8340  176.9380  143.7720 O   0  0  0  0  0  0  0  0  0  0  0  0
  190.2970  177.3830  145.0450 C   0  0  2  0  0  3  0  0  0  0  0  0
  187.9780  177.6870  148.3380 C   0  0  0  0  0  1  0  0  0  0  0  0
  187.3140  177.6480  147.0330 N   0  0  0  0  0  0  0  0  0  0  0  0
  186.4250  179.6240  148.1950 C   0  0  0  0  0  1  0  0  0  0  0  0
  186.2910  178.7050  146.9920 C   0  0  2  0  0  3  0  0  0  0  0  0
  185.0080  178.1530  147.0080 O   0  0  0  0  0  1  0  0  0  0  0  0
  191.6520  176.9010  145.3010 N   0  0  0  0  0  2  0  0  0  0  0  0
  191.9700  177.0600  146.7130 C   0  0  0  0  0  2  0  0  0  0  0  0
  191.5330  175.8230  147.4630 C   0  0  0  0  0  2  0  0  0  0  0  0
  192.6710  175.3170  148.3290 C   0  0  0  0  0  1  0  0  0  0  0  0
  179.6630  177.9620  136.8250 C   0  0  0  0  0  2  0  0  0  0  0  0
  180.5990  180.1810  136.2510 C   0  0  0  0  0  3  0  0  0  0  0  0
  180.4780  178.8850  135.9390 C   0  0  0  0  0  0  0  0  0  0  0  0
  182.3320  174.9060  134.5940 C   0  0  0  0  0  1  0  0  0  0  0  0
  181.2540  178.3320  134.8090 C   0  0  0  0  0  3  0  0  0  0  0  0
  182.0270  177.2810  134.9130 C   0  0  0  0  0  0  0  0  0  0  0  0
  182.8140  176.2480  135.0490 C   0  0  0  0  0  0  0  0  0  0  0  0
  183.4550  178.2950  137.0250 C   0  0  0  0  0  2  0  0  0  0  0  0
  184.3760  177.4000  136.6710 C   0  0  0  0  0  0  0  0  0  0  0  0
  186.0990  178.5320  137.8560 O   0  0  0  0  0  0  0  0  0  0  0  0
  184.1060  176.3970  135.6640 N   0  0  0  0  0  0  0  0  0  0  0  0
  185.2420  175.6930  135.0580 C   0  0  0  0  0  2  0  0  0  0  0  0
  186.2630  175.3100  136.1220 C   0  0  0  0  0  2  0  0  0  0  0  0
  186.7070  176.4880  136.8600 N   0  0  0  0  0  0  0  0  0  0  0  0
  185.7500  177.5140  137.1970 C   0  0  0  0  0  0  0  0  0  0  0  0
  188.1300  176.5610  137.2020 C   0  0  2  0  0  3  0  0  0  0  0  0
  188.4650  177.8030  138.0410 C   0  0  2  0  0  3  0  0  0  0  0  0
  189.1500  178.8800  137.2170 C   0  0  0  0  0  1  0  0  0  0  0  0
  190.6990  177.5070  138.8590 O   0  0  0  0  0  1  0  0  0  0  0  0
  189.3530  177.4400  139.2190 C   0  0  0  0  0  2  0  0  0  0  0  0
  188.9470  176.4510  136.0670 O   0  0  0  0  0  0  0  0  0  0  0  0
  189.8510  175.4190  136.3510 C   0  0  0  0  0  2  0  0  0  0  0  0
  189.4290  174.1260  135.6660 C   0  0  0  0  0  2  0  0  0  0  0  0
  190.3770  173.1340  135.8940 O   0  0  0  0  0  1  0  0  0  0  0  0
  179.8980  180.8260  137.4030 C   0  0  0  0  0  2  0  0  0  0  0  0
  181.0650  183.0050  137.6320 C   0  0  0  0  0  1  0  0  0  0  0  0
  179.7980  182.3250  137.1750 C   0  0  0  0  0  2  0  0  0  0  0  0
  1  2  2  0  0  0  0
  2 18  1  0  0  0  0
  3  2  1  1  0  0  0
  3  6  1  0  0  0  0
  3  7  1  0  0  0  0
  4  8  1  0  0  0  0
  6  5  1  6  0  0  0
  6  9  1  0  0  0  0
  7  4  1  0  0  0  0
  9  8  1  0  0  0  0
 10  1  1  0  0  0  0
 10 11  1  1  0  0  0
 13 10  1  1  0  0  0
 13 15  1  0  0  0  0
 14 17  1  0  0  0  0
 15 12  1  0  0  0  0
 16 14  1  0  0  0  0
 16 13  1  0  0  0  0
 17 12  1  0  0  0  0
 19 18  1  0  0  0  0
 19 20  1  0  0  0  0
 21 20  1  0  0  0  0
 21 22  1  0  0  0  0
 22 24  1  0  0  0  0
 22 23  1  1  0  0  0
 24 25  2  0  0  0  0
 25 26  1  0  0  0  0
 27 29  1  0  0  0  0
 27 34  1  1  0  0  0
 28 27  1  0  0  0  0
 30 26  1  6  0  0  0
 30 31  1  0  0  0  0
 30 28  1  0  0  0  0
 31 32  1  0  0  0  0
 32 38  1  1  0  0  0
 32 29  1  0  0  0  0
 34 33  1  0  0  0  0
 36 37  1  0  0  0  0
 36 34  1  0  0  0  0
 36 35  1  1  0  0  0
 38 39  1  0  0  0  0
 39 40  1  0  0  0  0
 40 41  1  0  0  0  0
 42  1  1  0  0  0  0
 43 66  1  0  0  0  0
 44 43  2  0  0  0  0
 44 42  1  0  0  0  0
 45 48  1  0  0  0  0
 46 47  2  0  0  0  0
 46 44  1  0  0  0  0
 47 48  2  0  0  0  0
 48 52  1  0  0  0  0
 50 49  2  0  0  0  0
 50 56  1  0  0  0  0
 52 50  1  0  0  0  0
 53 52  1  0  0  0  0
 53 54  1  0  0  0  0
 54 55  1  0  0  0  0
 55 56  1  0  0  0  0
 55 57  1  0  0  0  0
 56 51  2  0  0  0  0
 57 62  1  6  0  0  0
 57 58  1  0  0  0  0
 58 59  1  6  0  0  0
 58 61  1  0  0  0  0
 60 61  1  0  0  0  0
 62 63  1  0  0  0  0
 64 65  1  0  0  0  0
 64 63  1  0  0  0  0
 68 66  1  0  0  0  0
 68 67  1  0  0  0  0
M  END
>  <MODEL>
2

>  <REMARK>
 VINA RESULT:      -2.8      4.032     10.312
  Name = 
  28 active torsions:
  status: ('A' for Active; 'I' for Inactive)
    1  A    between atoms: C_1  and  N_53
    2  A    between atoms: C_3  and  C_26
    3  A    between atoms: C_5  and  C_15
    4  A    between atoms: C_5  and  C_18
    5  A    between atoms: O_9  and  C_13
    6  A    between atoms: O_9  and  C_16
    7  A    between atoms: C_11  and  C_66
    8  A    between atoms: C_13  and  C_64
    9  A    between atoms: O_14  and  C_65
   10  A    between atoms: O_14  and  C_66
   11  A    between atoms: C_15  and  C_17
   12  A    between atoms: C_16  and  C_41
   13  A    between atoms: C_17  and  C_33
   14  A    between atoms: C_22  and  C_38
   15  A    between atoms: C_23  and  C_28
   16  A    between atoms: C_23  and  N_39
   17  A    between atoms: C_24  and  C_38
   18  A    between atoms: C_26  and  N_43
   19  A    between atoms: C_29  and  N_53
   20  A    between atoms: C_32  and  C_36
   21  A    between atoms: C_33  and  C_45
   22  A    between atoms: C_34  and  N_42
   23  A    between atoms: C_34  and  C_61
   24  A    between atoms: C_36  and  C_65
   25  A    between atoms: N_37  and  C_59
   26  A    between atoms: N_39  and  C_67
   27  A    between atoms: N_43  and  C_64
   28  A    between atoms: N_58  and  C_65
                            x       y       z     vdW  Elec       q    Type
                         _______ _______ _______ _____ _____    ______ ____

>  <TORSDO>
F 28

$$$$
=
 OpenBabel11042412333D

 68 71  0  0  1  0  0  0  0  0999 V2000
  188.3120  177.9300  143.6670 C   0  0  0  0  0  0  0  0  0  0  0  0
  187.8550  177.7740  144.9330 C   0  0  0  0  0  0  0  0  0  0  0  0
  188.6120  178.2040  146.1720 C   0  0  2  0  0  3  0  0  0  0  0  0
  187.3750  178.7120  148.2440 N   0  0  0  0  0  2  0  0  0  0  0  0
  190.2090  176.3690  146.3520 N   0  0  0  0  0  1  0  0  0  0  0  0
  189.0880  177.0180  147.0210 C   0  0  1  0  0  3  0  0  0  0  0  0
  187.9710  179.3050  147.0350 C   0  0  0  0  0  2  0  0  0  0  0  0
  188.3940  178.0500  149.0840 C   0  0  0  0  0  2  0  0  0  0  0  0
  189.5340  177.5090  148.3210 N   0  0  0  0  0  2  0  0  0  0  0  0
  187.3910  177.6640  142.5090 C   0  0  1  0  0  3  0  0  0  0  0  0
  186.3610  176.7950  142.8760 O   0  0  0  0  0  1  0  0  0  0  0  0
  184.6170  178.4440  141.5400 C   0  0  0  0  0  2  0  0  0  0  0  0
  186.8780  178.9290  141.7960 C   0  0  2  0  0  3  0  0  0  0  0  0
  186.0680  178.0860  139.5690 C   0  0  0  0  0  2  0  0  0  0  0  0
  185.5540  179.3160  142.1350 O   0  0  0  0  0  0  0  0  0  0  0  0
  187.1260  178.9190  140.2840 C   0  0  0  0  0  2  0  0  0  0  0  0
  184.6810  178.5170  140.0190 C   0  0  0  0  0  2  0  0  0  0  0  0
  186.5220  177.3070  145.1500 N   0  0  0  0  0  2  0  0  0  0  0  0
  185.8780  177.4890  146.4390 C   0  0  0  0  0  2  0  0  0  0  0  0
  184.6500  178.3600  146.3020 C   0  0  0  0  0  2  0  0  0  0  0  0
  184.0510  178.1530  145.0610 O   0  0  0  0  0  0  0  0  0  0  0  0
  183.1330  179.1940  144.9290 C   0  0  1  0  0  3  0  0  0  0  0  0
  183.7380  180.3010  144.0830 C   0  0  0  0  0  1  0  0  0  0  0  0
  181.8960  178.6780  144.2720 C   0  0  0  0  0  3  0  0  0  0  0  0
  181.6760  178.9020  143.0320 N   0  0  0  0  0  0  0  0  0  0  0  0
  180.4770  178.3990  142.4180 C   0  0  0  0  0  2  0  0  0  0  0  0
  180.1330  178.5490  138.6070 C   0  0  2  0  0  3  0  0  0  0  0  0
  180.0600  179.0420  140.0570 C   0  0  0  0  0  2  0  0  0  0  0  0
  180.7810  177.2990  138.4980 O   0  0  0  0  0  0  0  0  0  0  0  0
  180.7490  178.0280  140.9730 C   0  0  2  0  0  3  0  0  0  0  0  0
  180.3470  176.6830  140.7400 O   0  0  0  0  0  0  0  0  0  0  0  0
  180.0850  176.4290  139.3620 C   0  0  2  0  0  3  0  0  0  0  0  0
  181.6390  180.4090  138.5390 C   0  0  0  0  0  1  0  0  0  0  0  0
  180.7460  179.5670  137.7380 N   0  0  0  0  0  0  0  0  0  0  0  0
  180.6430  178.0430  135.8110 C   0  0  0  0  0  1  0  0  0  0  0  0
  181.5360  178.9060  136.6870 C   0  0  2  0  0  3  0  0  0  0  0  0
  182.5180  178.0850  137.2480 O   0  0  0  0  0  1  0  0  0  0  0  0
  180.3590  175.0330  139.0310 N   0  0  0  0  0  2  0  0  0  0  0  0
  181.4020  174.9650  138.0170 C   0  0  0  0  0  2  0  0  0  0  0  0
  181.1040  173.8240  137.0740 C   0  0  0  0  0  2  0  0  0  0  0  0
  181.1660  174.3130  135.6380 C   0  0  0  0  0  1  0  0  0  0  0  0
  189.7100  178.4030  143.3640 C   0  0  0  0  0  2  0  0  0  0  0  0
  190.9680  176.4740  142.4580 C   0  0  0  0  0  3  0  0  0  0  0  0
  190.3790  177.6530  142.2280 C   0  0  0  0  0  0  0  0  0  0  0  0
  188.8250  176.2670  138.1370 C   0  0  0  0  0  1  0  0  0  0  0  0
  190.2640  178.1530  140.8420 C   0  0  0  0  0  3  0  0  0  0  0  0
  190.1910  177.3670  139.7980 C   0  0  0  0  0  0  0  0  0  0  0  0
  190.1480  176.5640  138.7700 C   0  0  0  0  0  0  0  0  0  0  0  0
  190.2030  174.0800  137.2420 C   0  0  0  0  0  2  0  0  0  0  0  0
  191.3380  174.7320  137.4940 C   0  0  0  0  0  0  0  0  0  0  0  0
  192.6810  172.9570  136.6560 O   0  0  0  0  0  0  0  0  0  0  0  0
  191.3520  175.9440  138.2840 N   0  0  0  0  0  0  0  0  0  0  0  0
  192.6330  176.4030  138.8330 C   0  0  0  0  0  2  0  0  0  0  0  0
  193.7390  176.2740  137.7930 C   0  0  0  0  0  2  0  0  0  0  0  0
  193.8360  174.9000  137.3110 N   0  0  0  0  0  0  0  0  0  0  0  0
  192.6300  174.1390  137.0960 C   0  0  0  0  0  0  0  0  0  0  0  0
  195.1830  174.3670  137.0880 C   0  0  2  0  0  3  0  0  0  0  0  0
  195.7060  173.5800  138.2980 C   0  0  2  0  0  3  0  0  0  0  0  0
  196.7890  174.3370  139.0480 C   0  0  0  0  0  1  0  0  0  0  0  0
  195.3940  171.2030  138.2750 O   0  0  0  0  0  1  0  0  0  0  0  0
  196.2510  172.2270  137.8710 C   0  0  0  0  0  2  0  0  0  0  0  0
  196.0780  175.3670  136.6790 O   0  0  0  0  0  0  0  0  0  0  0  0
  196.3840  175.0750  135.3420 C   0  0  0  0  0  2  0  0  0  0  0  0
  197.8310  175.4300  135.0290 C   0  0  0  0  0  2  0  0  0  0  0  0
  198.5710  175.5000  136.2050 O   0  0  0  0  0  1  0  0  0  0  0  0
  191.0920  175.8570  143.8150 C   0  0  0  0  0  2  0  0  0  0  0  0
  192.3620  174.2150  145.1750 C   0  0  0  0  0  1  0  0  0  0  0  0
  192.1040  174.7250  143.7790 C   0  0  0  0  0  2  0  0  0  0  0  0
  1  2  2  0  0  0  0
  2 18  1  0  0  0  0
  3  2  1  6  0  0  0
  3  6  1  0  0  0  0
  3  7  1  0  0  0  0
  4  8  1  0  0  0  0
  6  5  1  6  0  0  0
  6  9  1  0  0  0  0
  7  4  1  0  0  0  0
  9  8  1  0  0  0  0
 10 11  1  1  0  0  0
 10  1  1  0  0  0  0
 12 15  1  0  0  0  0
 13 15  1  0  0  0  0
 13 10  1  6  0  0  0
 14 17  1  0  0  0  0
 14 16  1  0  0  0  0
 16 13  1  0  0  0  0
 17 12  1  0  0  0  0
 18 19  1  0  0  0  0
 20 19  1  0  0  0  0
 21 20  1  0  0  0  0
 22 23  1  6  0  0  0
 22 21  1  0  0  0  0
 24 22  1  0  0  0  0
 25 24  2  0  0  0  0
 26 25  1  0  0  0  0
 27 34  1  6  0  0  0
 27 28  1  0  0  0  0
 28 30  1  0  0  0  0
 29 27  1  0  0  0  0
 29 32  1  0  0  0  0
 30 26  1  1  0  0  0
 31 30  1  0  0  0  0
 32 38  1  6  0  0  0
 32 31  1  0  0  0  0
 34 33  1  0  0  0  0
 36 35  1  1  0  0  0
 36 37  1  0  0  0  0
 36 34  1  0  0  0  0
 39 38  1  0  0  0  0
 40 39  1  0  0  0  0
 41 40  1  0  0  0  0
 42  1  1  0  0  0  0
 43 66  1  0  0  0  0
 44 43  2  0  0  0  0
 44 42  1  0  0  0  0
 45 48  1  0  0  0  0
 46 44  1  0  0  0  0
 47 46  2  0  0  0  0
 48 47  2  0  0  0  0
 49 50  2  0  0  0  0
 50 52  1  0  0  0  0
 51 56  2  0  0  0  0
 52 48  1  0  0  0  0
 52 53  1  0  0  0  0
 54 53  1  0  0  0  0
 55 54  1  0  0  0  0
 56 55  1  0  0  0  0
 56 50  1  0  0  0  0
 57 62  1  1  0  0  0
 57 55  1  0  0  0  0
 57 58  1  0  0  0  0
 58 59  1  6  0  0  0
 61 60  1  0  0  0  0
 61 58  1  0  0  0  0
 63 62  1  0  0  0  0
 64 63  1  0  0  0  0
 64 65  1  0  0  0  0
 68 66  1  0  0  0  0
 68 67  1  0  0  0  0
M  END
>  <MODEL>
3

>  <REMARK>
 VINA RESULT:      -2.6      2.787     11.503
  Name = 
  28 active torsions:
  status: ('A' for Active; 'I' for Inactive)
    1  A    between atoms: C_1  and  N_53
    2  A    between atoms: C_3  and  C_26
    3  A    between atoms: C_5  and  C_15
    4  A    between atoms: C_5  and  C_18
    5  A    between atoms: O_9  and  C_13
    6  A    between atoms: O_9  and  C_16
    7  A    between atoms: C_11  and  C_66
    8  A    between atoms: C_13  and  C_64
    9  A    between atoms: O_14  and  C_65
   10  A    between atoms: O_14  and  C_66
   11  A    between atoms: C_15  and  C_17
   12  A    between atoms: C_16  and  C_41
   13  A    between atoms: C_17  and  C_33
   14  A    between atoms: C_22  and  C_38
   15  A    between atoms: C_23  and  C_28
   16  A    between atoms: C_23  and  N_39
   17  A    between atoms: C_24  and  C_38
   18  A    between atoms: C_26  and  N_43
   19  A    between atoms: C_29  and  N_53
   20  A    between atoms: C_32  and  C_36
   21  A    between atoms: C_33  and  C_45
   22  A    between atoms: C_34  and  N_42
   23  A    between atoms: C_34  and  C_61
   24  A    between atoms: C_36  and  C_65
   25  A    between atoms: N_37  and  C_59
   26  A    between atoms: N_39  and  C_67
   27  A    between atoms: N_43  and  C_64
   28  A    between atoms: N_58  and  C_65
                            x       y       z     vdW  Elec       q    Type
                         _______ _______ _______ _____ _____    ______ ____

>  <TORSDO>
F 28

$$$$
=
 OpenBabel11042412333D

 68 71  0  0  1  0  0  0  0  0999 V2000
  189.1240  178.5620  143.0520 C   0  0  0  0  0  0  0  0  0  0  0  0
  188.7790  178.5200  144.3620 C   0  0  0  0  0  0  0  0  0  0  0  0
  189.7670  178.3750  145.5010 C   0  0  2  0  0  3  0  0  0  0  0  0
  189.7630  176.3230  146.8670 N   0  0  0  0  0  2  0  0  0  0  0  0
  191.8520  178.8130  144.3110 N   0  0  0  0  0  1  0  0  0  0  0  0
  191.1140  177.7950  145.0490 C   0  0  1  0  0  3  0  0  0  0  0  0
  189.2570  177.7030  146.7870 C   0  0  0  0  0  2  0  0  0  0  0  0
  191.2380  176.2870  146.9240 C   0  0  0  0  0  2  0  0  0  0  0  0
  191.8880  177.4120  146.2260 N   0  0  0  0  0  2  0  0  0  0  0  0
  188.0880  178.9210  142.0240 C   0  0  1  0  0  3  0  0  0  0  0  0
  188.6530  179.6530  140.9770 O   0  0  0  0  0  1  0  0  0  0  0  0
  186.9730  178.2470  139.2790 C   0  0  0  0  0  2  0  0  0  0  0  0
  187.2360  177.7370  141.5330 C   0  0  2  0  0  3  0  0  0  0  0  0
  185.0870  178.8030  140.7790 C   0  0  0  0  0  2  0  0  0  0  0  0
  187.4990  177.3180  140.2010 O   0  0  0  0  0  0  0  0  0  0  0  0
  185.7400  177.9010  141.8200 C   0  0  0  0  0  2  0  0  0  0  0  0
  185.4540  178.3300  139.3820 C   0  0  0  0  0  2  0  0  0  0  0  0
  187.4240  178.7650  144.7430 N   0  0  0  0  0  2  0  0  0  0  0  0
  186.5830  177.6770  145.2110 C   0  0  0  0  0  2  0  0  0  0  0  0
  185.3030  178.2140  145.8110 C   0  0  0  0  0  2  0  0  0  0  0  0
  184.2280  177.9480  144.9640 O   0  0  0  0  0  0  0  0  0  0  0  0
  183.4890  179.1310  144.9430 C   0  0  1  0  0  3  0  0  0  0  0  0
  184.1450  180.1220  143.9960 C   0  0  0  0  0  1  0  0  0  0  0  0
  182.1020  178.8350  144.4780 C   0  0  0  0  0  3  0  0  0  0  0  0
  181.7490  179.0910  143.2760 N   0  0  0  0  0  0  0  0  0  0  0  0
  180.4070  178.8010  142.8480 C   0  0  0  0  0  2  0  0  0  0  0  0
  181.5210  178.3980  139.2070 C   0  0  2  0  0  3  0  0  0  0  0  0
  181.4770  178.1210  140.7140 C   0  0  0  0  0  2  0  0  0  0  0  0
  180.5100  179.2940  138.7970 O   0  0  0  0  0  0  0  0  0  0  0  0
  180.3110  178.8910  141.3380 C   0  0  2  0  0  3  0  0  0  0  0  0
  180.2530  180.2560  140.9420 O   0  0  0  0  0  0  0  0  0  0  0  0
  180.6740  180.4460  139.5940 C   0  0  2  0  0  3  0  0  0  0  0  0
  180.1850  177.0120  137.7840 C   0  0  0  0  0  1  0  0  0  0  0  0
  181.4870  177.1400  138.4420 N   0  0  0  0  0  0  0  0  0  0  0  0
  182.0650  177.9230  136.1850 C   0  0  0  0  0  1  0  0  0  0  0  0
  182.5380  177.1620  137.4120 C   0  0  2  0  0  3  0  0  0  0  0  0
  182.8700  175.8640  137.0170 O   0  0  0  0  0  1  0  0  0  0  0  0
  179.9970  181.5950  138.9960 N   0  0  0  0  0  2  0  0  0  0  0  0
  179.7450  181.3370  137.5860 C   0  0  0  0  0  2  0  0  0  0  0  0
  180.7650  182.0810  136.7550 C   0  0  0  0  0  2  0  0  0  0  0  0
  180.8210  183.5340  137.1910 C   0  0  0  0  0  1  0  0  0  0  0  0
  190.5290  178.2980  142.5780 C   0  0  0  0  0  2  0  0  0  0  0  0
  190.5870  176.0260  141.5980 C   0  0  0  0  0  3  0  0  0  0  0  0
  190.6110  177.3490  141.3980 C   0  0  0  0  0  0  0  0  0  0  0  0
  189.4230  176.0040  137.1710 C   0  0  0  0  0  1  0  0  0  0  0  0
  190.5770  177.8780  140.0180 C   0  0  0  0  0  3  0  0  0  0  0  0
  190.6150  177.1170  138.9540 C   0  0  0  0  0  0  0  0  0  0  0  0
  190.6830  176.3380  137.9080 C   0  0  0  0  0  0  0  0  0  0  0  0
  191.6290  176.2870  135.1500 C   0  0  0  0  0  2  0  0  0  0  0  0
  192.3990  175.8100  136.1270 C   0  0  0  0  0  0  0  0  0  0  0  0
  193.9840  174.9110  134.5980 O   0  0  0  0  0  0  0  0  0  0  0  0
  191.9450  175.7810  137.5000 N   0  0  0  0  0  0  0  0  0  0  0  0
  192.6600  174.9250  138.4540 C   0  0  0  0  0  2  0  0  0  0  0  0
  194.1660  175.0430  138.2540 C   0  0  0  0  0  2  0  0  0  0  0  0
  194.5310  174.7180  136.8790 N   0  0  0  0  0  0  0  0  0  0  0  0
  193.6810  175.1560  135.7980 C   0  0  0  0  0  0  0  0  0  0  0  0
  195.7540  173.9350  136.6830 C   0  0  2  0  0  3  0  0  0  0  0  0
  196.9150  174.7900  136.1560 C   0  0  2  0  0  3  0  0  0  0  0  0
  197.5060  174.2260  134.8750 C   0  0  0  0  0  1  0  0  0  0  0  0
  197.7190  174.1390  138.3190 O   0  0  0  0  0  1  0  0  0  0  0  0
  198.0160  174.9130  137.1970 C   0  0  0  0  0  2  0  0  0  0  0  0
  195.5270  172.8010  135.8880 O   0  0  0  0  0  0  0  0  0  0  0  0
  195.8880  171.7050  136.6830 C   0  0  0  0  0  2  0  0  0  0  0  0
  194.6520  171.0120  137.2420 C   0  0  0  0  0  2  0  0  0  0  0  0
  193.7330  170.7830  136.2240 O   0  0  0  0  0  1  0  0  0  0  0  0
  190.5690  175.3900  142.9520 C   0  0  0  0  0  2  0  0  0  0  0  0
  192.0730  174.2190  144.5410 C   0  0  0  0  0  1  0  0  0  0  0  0
  191.9800  175.3150  143.5080 C   0  0  0  0  0  2  0  0  0  0  0  0
  1  2  2  0  0  0  0
  2 18  1  0  0  0  0
  3  2  1  6  0  0  0
  3  7  1  0  0  0  0
  4  8  1  0  0  0  0
  6  5  1  1  0  0  0
  6  3  1  0  0  0  0
  6  9  1  0  0  0  0
  7  4  1  0  0  0  0
  9  8  1  0  0  0  0
 10 11  1  6  0  0  0
 10  1  1  0  0  0  0
 12 17  1  0  0  0  0
 12 15  1  0  0  0  0
 13 16  1  0  0  0  0
 13 10  1  6  0  0  0
 14 16  1  0  0  0  0
 15 13  1  0  0  0  0
 17 14  1  0  0  0  0
 18 19  1  0  0  0  0
 19 20  1  0  0  0  0
 21 20  1  0  0  0  0
 22 23  1  6  0  0  0
 22 21  1  0  0  0  0
 24 22  1  0  0  0  0
 25 24  2  0  0  0  0
 26 25  1  0  0  0  0
 27 34  1  6  0  0  0
 27 28  1  0  0  0  0
 28 30  1  0  0  0  0
 29 27  1  0  0  0  0
 29 32  1  0  0  0  0
 30 26  1  1  0  0  0
 31 30  1  0  0  0  0
 32 38  1  6  0  0  0
 32 31  1  0  0  0  0
 33 34  1  0  0  0  0
 36 35  1  6  0  0  0
 36 34  1  0  0  0  0
 37 36  1  0  0  0  0
 39 38  1  0  0  0  0
 40 41  1  0  0  0  0
 40 39  1  0  0  0  0
 42  1  1  0  0  0  0
 43 66  1  0  0  0  0
 44 43  2  0  0  0  0
 44 42  1  0  0  0  0
 45 48  1  0  0  0  0
 46 44  1  0  0  0  0
 47 46  2  0  0  0  0
 48 47  2  0  0  0  0
 49 50  2  0  0  0  0
 50 52  1  0  0  0  0
 51 56  2  0  0  0  0
 52 48  1  0  0  0  0
 52 53  1  0  0  0  0
 54 53  1  0  0  0  0
 55 54  1  0  0  0  0
 56 50  1  0  0  0  0
 56 55  1  0  0  0  0
 57 62  1  6  0  0  0
 57 55  1  0  0  0  0
 58 59  1  6  0  0  0
 58 57  1  0  0  0  0
 58 61  1  0  0  0  0
 61 60  1  0  0  0  0
 62 63  1  0  0  0  0
 63 64  1  0  0  0  0
 65 64  1  0  0  0  0
 66 68  1  0  0  0  0
 68 67  1  0  0  0  0
M  END
>  <MODEL>
4

>  <REMARK>
 VINA RESULT:      -2.2      2.698     11.707
  Name = 
  28 active torsions:
  status: ('A' for Active; 'I' for Inactive)
    1  A    between atoms: C_1  and  N_53
    2  A    between atoms: C_3  and  C_26
    3  A    between atoms: C_5  and  C_15
    4  A    between atoms: C_5  and  C_18
    5  A    between atoms: O_9  and  C_13
    6  A    between atoms: O_9  and  C_16
    7  A    between atoms: C_11  and  C_66
    8  A    between atoms: C_13  and  C_64
    9  A    between atoms: O_14  and  C_65
   10  A    between atoms: O_14  and  C_66
   11  A    between atoms: C_15  and  C_17
   12  A    between atoms: C_16  and  C_41
   13  A    between atoms: C_17  and  C_33
   14  A    between atoms: C_22  and  C_38
   15  A    between atoms: C_23  and  C_28
   16  A    between atoms: C_23  and  N_39
   17  A    between atoms: C_24  and  C_38
   18  A    between atoms: C_26  and  N_43
   19  A    between atoms: C_29  and  N_53
   20  A    between atoms: C_32  and  C_36
   21  A    between atoms: C_33  and  C_45
   22  A    between atoms: C_34  and  N_42
   23  A    between atoms: C_34  and  C_61
   24  A    between atoms: C_36  and  C_65
   25  A    between atoms: N_37  and  C_59
   26  A    between atoms: N_39  and  C_67
   27  A    between atoms: N_43  and  C_64
   28  A    between atoms: N_58  and  C_65
                            x       y       z     vdW  Elec       q    Type
                         _______ _______ _______ _____ _____    ______ ____

>  <TORSDO>
F 28

$$$$
=
 OpenBabel11042412333D

 68 71  0  0  1  0  0  0  0  0999 V2000
  188.2500  177.6700  142.4270 C   0  0  0  0  0  0  0  0  0  0  0  0
  188.8960  178.0400  141.2940 C   0  0  0  0  0  0  0  0  0  0  0  0
  188.2790  178.0090  139.9120 C   0  0  2  0  0  3  0  0  0  0  0  0
  188.9950  179.6500  138.2180 N   0  0  0  0  0  2  0  0  0  0  0  0
  188.6830  175.6770  139.3200 N   0  0  0  0  0  1  0  0  0  0  0  0
  189.0050  177.0530  138.9570 C   0  0  1  0  0  3  0  0  0  0  0  0
  187.9830  179.3650  139.2480 C   0  0  0  0  0  2  0  0  0  0  0  0
  188.9780  178.6370  137.1430 C   0  0  0  0  0  2  0  0  0  0  0  0
  188.5480  177.3000  137.5930 N   0  0  0  0  0  2  0  0  0  0  0  0
  188.8830  177.9430  143.7640 C   0  0  1  0  0  3  0  0  0  0  0  0
  188.1560  178.8980  144.4770 O   0  0  0  0  0  1  0  0  0  0  0  0
  190.0030  177.6050  146.5690 C   0  0  0  0  0  2  0  0  0  0  0  0
  189.1900  176.6830  144.5940 C   0  0  2  0  0  3  0  0  0  0  0  0
  191.6780  176.7790  144.9470 C   0  0  0  0  0  2  0  0  0  0  0  0
  188.9830  176.8190  145.9920 O   0  0  0  0  0  0  0  0  0  0  0  0
  190.5390  176.0410  144.2520 C   0  0  0  0  0  2  0  0  0  0  0  0
  191.3650  176.9360  146.4270 C   0  0  0  0  0  2  0  0  0  0  0  0
  190.1920  178.6350  141.3840 N   0  0  0  0  0  2  0  0  0  0  0  0
  191.3710  177.8940  140.9690 C   0  0  0  0  0  2  0  0  0  0  0  0
  191.0830  176.4100  140.9370 C   0  0  0  0  0  2  0  0  0  0  0  0
  191.8210  175.7990  139.9240 O   0  0  0  0  0  0  0  0  0  0  0  0
  192.3060  176.8550  139.1510 C   0  0  1  0  0  3  0  0  0  0  0  0
  193.6500  177.3070  139.6960 C   0  0  0  0  0  1  0  0  0  0  0  0
  192.4650  176.3960  137.7400 C   0  0  0  0  0  3  0  0  0  0  0  0
  193.5550  176.6040  137.1060 N   0  0  0  0  0  0  0  0  0  0  0  0
  193.6880  176.1570  135.7460 C   0  0  0  0  0  2  0  0  0  0  0  0
  194.6970  172.6470  134.5940 C   0  0  2  0  0  3  0  0  0  0  0  0
  194.8440  174.1520  134.8480 C   0  0  0  0  0  2  0  0  0  0  0  0
  193.5210  172.1180  135.1710 O   0  0  0  0  0  0  0  0  0  0  0  0
  193.6640  174.6420  135.6900 C   0  0  2  0  0  3  0  0  0  0  0  0
  192.3990  174.2000  135.2120 O   0  0  0  0  0  0  0  0  0  0  0  0
  192.4610  172.8910  134.6530 C   0  0  2  0  0  3  0  0  0  0  0  0
  196.8150  172.8600  135.6900 C   0  0  0  0  0  1  0  0  0  0  0  0
  195.9010  171.9220  135.0330 N   0  0  0  0  0  0  0  0  0  0  0  0
  196.6570  170.6170  136.9750 C   0  0  0  0  0  1  0  0  0  0  0  0
  195.5220  170.8780  135.9980 C   0  0  2  0  0  3  0  0  0  0  0  0
  195.2300  169.6790  135.3420 O   0  0  0  0  0  1  0  0  0  0  0  0
  191.1840  172.1980  134.8120 N   0  0  0  0  0  2  0  0  0  0  0  0
  190.1480  173.1570  135.1710 C   0  0  0  0  0  2  0  0  0  0  0  0
  188.9540  172.4140  135.7240 C   0  0  0  0  0  2  0  0  0  0  0  0
  188.2270  171.6980  134.6000 C   0  0  0  0  0  1  0  0  0  0  0  0
  186.8900  177.0250  142.4080 C   0  0  0  0  0  2  0  0  0  0  0  0
  185.2280  178.1240  143.8760 C   0  0  0  0  0  3  0  0  0  0  0  0
  185.7470  177.9930  142.6500 C   0  0  0  0  0  0  0  0  0  0  0  0
  181.8460  179.4610  140.7250 C   0  0  0  0  0  1  0  0  0  0  0  0
  185.2980  178.8930  141.5670 C   0  0  0  0  0  3  0  0  0  0  0  0
  184.1480  178.7650  140.9550 C   0  0  0  0  0  0  0  0  0  0  0  0
  183.0080  178.5990  140.3410 C   0  0  0  0  0  0  0  0  0  0  0  0
  182.6520  179.1330  137.4960 C   0  0  0  0  0  2  0  0  0  0  0  0
  182.7310  177.8770  137.9330 C   0  0  0  0  0  0  0  0  0  0  0  0
  182.1330  176.9790  135.8140 O   0  0  0  0  0  0  0  0  0  0  0  0
  182.8660  177.5740  139.3410 N   0  0  0  0  0  0  0  0  0  0  0  0
  182.5790  176.2080  139.7910 C   0  0  0  0  0  2  0  0  0  0  0  0
  183.1830  175.1900  138.8320 C   0  0  0  0  0  2  0  0  0  0  0  0
  182.6960  175.4090  137.4740 N   0  0  0  0  0  0  0  0  0  0  0  0
  182.5290  176.7580  136.9910 C   0  0  0  0  0  0  0  0  0  0  0  0
  182.3880  174.2180  136.6780 C   0  0  2  0  0  3  0  0  0  0  0  0
  183.6050  173.7100  135.8930 C   0  0  2  0  0  3  0  0  0  0  0  0
  184.1930  172.4480  136.5020 C   0  0  0  0  0  1  0  0  0  0  0  0
  185.8320  174.2700  135.2020 O   0  0  0  0  0  1  0  0  0  0  0  0
  184.6870  174.7750  135.8190 C   0  0  0  0  0  2  0  0  0  0  0  0
  181.2700  174.4160  135.8530 O   0  0  0  0  0  0  0  0  0  0  0  0
  180.1550  174.1410  136.6570 C   0  0  0  0  0  2  0  0  0  0  0  0
  179.6630  172.7180  136.4300 C   0  0  0  0  0  2  0  0  0  0  0  0
  179.7490  171.9890  137.6120 O   0  0  0  0  0  1  0  0  0  0  0  0
  185.6490  177.2990  145.0500 C   0  0  0  0  0  2  0  0  0  0  0  0
  185.2900  179.5400  146.0560 C   0  0  0  0  0  1  0  0  0  0  0  0
  185.3910  178.0610  146.3390 C   0  0  0  0  0  2  0  0  0  0  0  0
  1 10  1  0  0  0  0
  2 18  1  0  0  0  0
  2  1  2  0  0  0  0
  3  2  1  1  0  0  0
  4  7  1  0  0  0  0
  6  5  1  1  0  0  0
  6  3  1  0  0  0  0
  7  3  1  0  0  0  0
  8  9  1  0  0  0  0
  8  4  1  0  0  0  0
  9  6  1  0  0  0  0
 10 11  1  1  0  0  0
 13 10  1  6  0  0  0
 13 15  1  0  0  0  0
 14 17  1  0  0  0  0
 15 12  1  0  0  0  0
 16 13  1  0  0  0  0
 16 14  1  0  0  0  0
 17 12  1  0  0  0  0
 19 18  1  0  0  0  0
 20 19  1  0  0  0  0
 21 20  1  0  0  0  0
 22 23  1  1  0  0  0
 22 21  1  0  0  0  0
 24 22  1  0  0  0  0
 25 24  2  0  0  0  0
 26 25  1  0  0  0  0
 27 28  1  0  0  0  0
 27 34  1  1  0  0  0
 27 29  1  0  0  0  0
 28 30  1  0  0  0  0
 30 26  1  6  0  0  0
 31 30  1  0  0  0  0
 32 38  1  1  0  0  0
 32 29  1  0  0  0  0
 32 31  1  0  0  0  0
 34 33  1  0  0  0  0
 34 36  1  0  0  0  0
 36 35  1  1  0  0  0
 37 36  1  0  0  0  0
 38 39  1  0  0  0  0
 39 40  1  0  0  0  0
 41 40  1  0  0  0  0
 42  1  1  0  0  0  0
 42 44  1  0  0  0  0
 43 66  1  0  0  0  0
 44 43  2  0  0  0  0
 46 44  1  0  0  0  0
 47 46  2  0  0  0  0
 48 45  1  0  0  0  0
 48 47  2  0  0  0  0
 49 50  2  0  0  0  0
 50 52  1  0  0  0  0
 51 56  2  0  0  0  0
 52 53  1  0  0  0  0
 52 48  1  0  0  0  0
 54 53  1  0  0  0  0
 55 54  1  0  0  0  0
 56 55  1  0  0  0  0
 56 50  1  0  0  0  0
 57 62  1  6  0  0  0
 57 55  1  0  0  0  0
 58 59  1  1  0  0  0
 58 57  1  0  0  0  0
 60 61  1  0  0  0  0
 61 58  1  0  0  0  0
 62 63  1  0  0  0  0
 64 63  1  0  0  0  0
 64 65  1  0  0  0  0
 66 68  1  0  0  0  0
 67 68  1  0  0  0  0
M  END
>  <MODEL>
5

>  <REMARK>
 VINA RESULT:      -1.8      1.435      1.917
  Name = 
  28 active torsions:
  status: ('A' for Active; 'I' for Inactive)
    1  A    between atoms: C_1  and  N_53
    2  A    between atoms: C_3  and  C_26
    3  A    between atoms: C_5  and  C_15
    4  A    between atoms: C_5  and  C_18
    5  A    between atoms: O_9  and  C_13
    6  A    between atoms: O_9  and  C_16
    7  A    between atoms: C_11  and  C_66
    8  A    between atoms: C_13  and  C_64
    9  A    between atoms: O_14  and  C_65
   10  A    between atoms: O_14  and  C_66
   11  A    between atoms: C_15  and  C_17
   12  A    between atoms: C_16  and  C_41
   13  A    between atoms: C_17  and  C_33
   14  A    between atoms: C_22  and  C_38
   15  A    between atoms: C_23  and  C_28
   16  A    between atoms: C_23  and  N_39
   17  A    between atoms: C_24  and  C_38
   18  A    between atoms: C_26  and  N_43
   19  A    between atoms: C_29  and  N_53
   20  A    between atoms: C_32  and  C_36
   21  A    between atoms: C_33  and  C_45
   22  A    between atoms: C_34  and  N_42
   23  A    between atoms: C_34  and  C_61
   24  A    between atoms: C_36  and  C_65
   25  A    between atoms: N_37  and  C_59
   26  A    between atoms: N_39  and  C_67
   27  A    between atoms: N_43  and  C_64
   28  A    between atoms: N_58  and  C_65
                            x       y       z     vdW  Elec       q    Type
                         _______ _______ _______ _____ _____    ______ ____

>  <TORSDO>
F 28

$$$$
=
 OpenBabel11042412333D

 68 71  0  0  1  0  0  0  0  0999 V2000
  188.3970  177.7190  142.2490 C   0  0  0  0  0  0  0  0  0  0  0  0
  188.9480  178.0910  141.0680 C   0  0  0  0  0  0  0  0  0  0  0  0
  188.2020  178.1230  139.7510 C   0  0  2  0  0  3  0  0  0  0  0  0
  189.0610  179.4990  137.8940 N   0  0  0  0  0  2  0  0  0  0  0  0
  188.0650  175.7330  139.2820 N   0  0  0  0  0  1  0  0  0  0  0  0
  188.6200  176.9930  138.8010 C   0  0  1  0  0  3  0  0  0  0  0  0
  188.1210  179.4790  139.0270 C   0  0  0  0  0  2  0  0  0  0  0  0
  188.7320  178.4620  136.8960 C   0  0  0  0  0  2  0  0  0  0  0  0
  188.0880  177.2660  137.4700 N   0  0  0  0  0  2  0  0  0  0  0  0
  189.1660  177.9270  143.5240 C   0  0  1  0  0  3  0  0  0  0  0  0
  188.5700  178.9140  144.3130 O   0  0  0  0  0  1  0  0  0  0  0  0
  189.8240  177.4590  146.4540 C   0  0  0  0  0  2  0  0  0  0  0  0
  189.4660  176.6370  144.3080 C   0  0  2  0  0  3  0  0  0  0  0  0
  191.8320  176.9450  145.1030 C   0  0  0  0  0  2  0  0  0  0  0  0
  189.0110  176.6300  145.6530 O   0  0  0  0  0  0  0  0  0  0  0  0
  190.9160  176.1620  144.1680 C   0  0  0  0  0  2  0  0  0  0  0  0
  191.2570  176.9410  146.5110 C   0  0  0  0  0  2  0  0  0  0  0  0
  190.2730  178.6250  141.0450 N   0  0  0  0  0  2  0  0  0  0  0  0
  191.3790  177.8290  140.5390 C   0  0  0  0  0  2  0  0  0  0  0  0
  191.0240  176.3600  140.5470 C   0  0  0  0  0  2  0  0  0  0  0  0
  191.7820  175.6780  139.5970 O   0  0  0  0  0  0  0  0  0  0  0  0
  192.2300  176.6670  138.7220 C   0  0  1  0  0  3  0  0  0  0  0  0
  193.4280  177.3780  139.3290 C   0  0  0  0  0  1  0  0  0  0  0  0
  192.6250  176.0350  137.4280 C   0  0  0  0  0  3  0  0  0  0  0  0
  193.7980  176.2080  136.9500 N   0  0  0  0  0  0  0  0  0  0  0  0
  194.1580  175.5930  135.7010 C   0  0  0  0  0  2  0  0  0  0  0  0
  194.5580  171.8620  134.9410 C   0  0  2  0  0  3  0  0  0  0  0  0
  194.9820  173.3230  135.1280 C   0  0  0  0  0  2  0  0  0  0  0  0
  193.2230  171.6360  135.3420 O   0  0  0  0  0  0  0  0  0  0  0  0
  193.8210  174.1160  135.7310 C   0  0  2  0  0  3  0  0  0  0  0  0
  192.5780  173.8950  135.0740 O   0  0  0  0  0  0  0  0  0  0  0  0
  192.4430  172.5550  134.6100 C   0  0  2  0  0  3  0  0  0  0  0  0
  196.8610  171.4710  135.4630 C   0  0  0  0  0  1  0  0  0  0  0  0
  195.4990  170.9530  135.6160 N   0  0  0  0  0  0  0  0  0  0  0  0
  195.9280  171.9650  137.8160 C   0  0  0  0  0  1  0  0  0  0  0  0
  195.1770  170.8880  137.0510 C   0  0  2  0  0  3  0  0  0  0  0  0
  195.5350  169.6470  137.5830 O   0  0  0  0  0  1  0  0  0  0  0  0
  191.0380  172.1510  134.5940 N   0  0  0  0  0  2  0  0  0  0  0  0
  190.3240  172.8180  135.6730 C   0  0  0  0  0  2  0  0  0  0  0  0
  188.8960  172.3240  135.7030 C   0  0  0  0  0  2  0  0  0  0  0  0
  188.1460  172.9860  136.8440 C   0  0  0  0  0  1  0  0  0  0  0  0
  187.0120  177.1340  142.3460 C   0  0  0  0  0  2  0  0  0  0  0  0
  185.5170  178.4030  143.8570 C   0  0  0  0  0  3  0  0  0  0  0  0
  185.9280  178.1630  142.6060 C   0  0  0  0  0  0  0  0  0  0  0  0
  181.9340  179.4140  140.7190 C   0  0  0  0  0  1  0  0  0  0  0  0
  185.4220  179.0020  141.4990 C   0  0  0  0  0  3  0  0  0  0  0  0
  184.2630  178.8080  140.9210 C   0  0  0  0  0  0  0  0  0  0  0  0
  183.1160  178.5770  140.3420 C   0  0  0  0  0  0  0  0  0  0  0  0
  180.6770  177.0300  139.9440 C   0  0  0  0  0  2  0  0  0  0  0  0
  181.7480  176.7880  139.1900 C   0  0  0  0  0  0  0  0  0  0  0  0
  180.7780  174.8430  138.2280 O   0  0  0  0  0  0  0  0  0  0  0  0
  182.9880  177.5080  139.3890 N   0  0  0  0  0  0  0  0  0  0  0  0
  184.2150  176.9580  138.8010 C   0  0  0  0  0  2  0  0  0  0  0  0
  183.9540  176.4600  137.3850 C   0  0  0  0  0  2  0  0  0  0  0  0
  182.8790  175.4740  137.3750 N   0  0  0  0  0  0  0  0  0  0  0  0
  181.7350  175.6650  138.2320 C   0  0  0  0  0  0  0  0  0  0  0  0
  183.0430  174.3200  136.4870 C   0  0  2  0  0  3  0  0  0  0  0  0
  183.2010  173.0050  137.2620 C   0  0  2  0  0  3  0  0  0  0  0  0
  184.6590  172.6140  137.4360 C   0  0  0  0  0  1  0  0  0  0  0  0
  181.5440  171.2800  137.4330 O   0  0  0  0  0  1  0  0  0  0  0  0
  182.4640  171.8720  136.5670 C   0  0  0  0  0  2  0  0  0  0  0  0
  184.0800  174.5170  135.5610 O   0  0  0  0  0  0  0  0  0  0  0  0
  184.0120  175.8700  135.2020 C   0  0  0  0  0  2  0  0  0  0  0  0
  185.3400  176.3440  134.6270 C   0  0  0  0  0  2  0  0  0  0  0  0
  186.3920  175.6600  135.2290 O   0  0  0  0  0  1  0  0  0  0  0  0
  186.0050  177.6470  145.0510 C   0  0  0  0  0  2  0  0  0  0  0  0
  184.6290  178.3120  147.0070 C   0  0  0  0  0  1  0  0  0  0  0  0
  185.9360  178.5300  146.2860 C   0  0  0  0  0  2  0  0  0  0  0  0
  1 42  1  0  0  0  0
  1 10  1  0  0  0  0
  2  1  2  0  0  0  0
  3  2  1  1  0  0  0
  4  7  1  0  0  0  0
  6  5  1  1  0  0  0
  6  3  1  0  0  0  0
  7  3  1  0  0  0  0
  8  9  1  0  0  0  0
  8  4  1  0  0  0  0
  9  6  1  0  0  0  0
 10 11  1  1  0  0  0
 12 17  1  0  0  0  0
 13 10  1  1  0  0  0
 13 15  1  0  0  0  0
 14 17  1  0  0  0  0
 15 12  1  0  0  0  0
 16 13  1  0  0  0  0
 16 14  1  0  0  0  0
 18  2  1  0  0  0  0
 19 20  1  0  0  0  0
 19 18  1  0  0  0  0
 21 20  1  0  0  0  0
 22 23  1  1  0  0  0
 22 21  1  0  0  0  0
 24 22  1  0  0  0  0
 25 24  2  0  0  0  0
 26 25  1  0  0  0  0
 27 28  1  0  0  0  0
 27 29  1  0  0  0  0
 27 34  1  1  0  0  0
 28 30  1  0  0  0  0
 30 26  1  6  0  0  0
 31 30  1  0  0  0  0
 32 38  1  1  0  0  0
 32 31  1  0  0  0  0
 32 29  1  0  0  0  0
 33 34  1  0  0  0  0
 34 36  1  0  0  0  0
 36 37  1  0  0  0  0
 36 35  1  1  0  0  0
 38 39  1  0  0  0  0
 39 40  1  0  0  0  0
 40 41  1  0  0  0  0
 42 44  1  0  0  0  0
 43 66  1  0  0  0  0
 44 43  2  0  0  0  0
 46 44  1  0  0  0  0
 47 46  2  0  0  0  0
 48 45  1  0  0  0  0
 48 47  2  0  0  0  0
 50 52  1  0  0  0  0
 50 49  2  0  0  0  0
 51 56  2  0  0  0  0
 52 48  1  0  0  0  0
 53 52  1  0  0  0  0
 54 53  1  0  0  0  0
 55 54  1  0  0  0  0
 55 56  1  0  0  0  0
 56 50  1  0  0  0  0
 57 62  1  1  0  0  0
 57 58  1  0  0  0  0
 57 55  1  0  0  0  0
 58 59  1  6  0  0  0
 61 58  1  0  0  0  0
 61 60  1  0  0  0  0
 63 62  1  0  0  0  0
 64 63  1  0  0  0  0
 64 65  1  0  0  0  0
 66 68  1  0  0  0  0
 68 67  1  0  0  0  0
M  END
>  <MODEL>
6

>  <REMARK>
 VINA RESULT:      -1.4      1.458      1.938
  Name = 
  28 active torsions:
  status: ('A' for Active; 'I' for Inactive)
    1  A    between atoms: C_1  and  N_53
    2  A    between atoms: C_3  and  C_26
    3  A    between atoms: C_5  and  C_15
    4  A    between atoms: C_5  and  C_18
    5  A    between atoms: O_9  and  C_13
    6  A    between atoms: O_9  and  C_16
    7  A    between atoms: C_11  and  C_66
    8  A    between atoms: C_13  and  C_64
    9  A    between atoms: O_14  and  C_65
   10  A    between atoms: O_14  and  C_66
   11  A    between atoms: C_15  and  C_17
   12  A    between atoms: C_16  and  C_41
   13  A    between atoms: C_17  and  C_33
   14  A    between atoms: C_22  and  C_38
   15  A    between atoms: C_23  and  C_28
   16  A    between atoms: C_23  and  N_39
   17  A    between atoms: C_24  and  C_38
   18  A    between atoms: C_26  and  N_43
   19  A    between atoms: C_29  and  N_53
   20  A    between atoms: C_32  and  C_36
   21  A    between atoms: C_33  and  C_45
   22  A    between atoms: C_34  and  N_42
   23  A    between atoms: C_34  and  C_61
   24  A    between atoms: C_36  and  C_65
   25  A    between atoms: N_37  and  C_59
   26  A    between atoms: N_39  and  C_67
   27  A    between atoms: N_43  and  C_64
   28  A    between atoms: N_58  and  C_65
                            x       y       z     vdW  Elec       q    Type
                         _______ _______ _______ _____ _____    ______ ____

>  <TORSDO>
F 28

$$$$
