=
 OpenBabel11042411023D

 39 43  0  0  1  0  0  0  0  0999 V2000
  189.5450  177.0740  143.9180 C   0  0  0  0  0  0  0  0  0  0  0  0
  191.4340  176.8610  145.2040 C   0  0  0  0  0  2  0  0  0  0  0  0
  187.7520  177.6610  145.9620 C   0  0  0  0  0  0  0  0  0  0  0  0
  190.6740  176.7370  143.0340 C   0  0  2  0  0  3  0  0  0  0  0  0
  186.8750  177.9570  147.0170 C   0  0  0  0  0  3  0  0  0  0  0  0
  188.2050  177.2740  143.5910 C   0  0  0  0  0  3  0  0  0  0  0  0
  191.8290  176.6290  143.8580 O   0  0  0  0  0  0  0  0  0  0  0  0
  189.1260  177.4390  146.2490 C   0  0  0  0  0  0  0  0  0  0  0  0
  189.5890  177.5150  147.5680 C   0  0  0  0  0  3  0  0  0  0  0  0
  189.9880  177.1460  145.1900 C   0  0  0  0  0  0  0  0  0  0  0  0
  188.7000  177.8110  148.6040 C   0  0  0  0  0  3  0  0  0  0  0  0
  187.3480  178.0330  148.3300 C   0  0  0  0  0  3  0  0  0  0  0  0
  187.2900  177.5760  144.6210 C   0  0  0  0  0  0  0  0  0  0  0  0
  183.3030  178.6900  143.4930 C   0  0  2  0  0  3  0  0  0  0  0  0
  185.8440  177.8060  144.2860 C   0  0  1  0  0  3  0  0  0  0  0  0
  185.2240  178.8710  145.1920 C   0  0  0  0  0  2  0  0  0  0  0  0
  185.6660  178.1350  142.7950 C   0  0  0  0  0  2  0  0  0  0  0  0
  183.7190  179.0190  144.9330 C   0  0  0  0  0  2  0  0  0  0  0  0
  184.4300  178.9960  142.5070 C   0  0  0  0  0  2  0  0  0  0  0  0
  182.0480  179.4720  143.1380 C   0  0  0  0  0  2  0  0  0  0  0  0
  181.1430  178.6690  142.2470 C   0  0  0  0  0  0  0  0  0  0  0  0
  180.0430  178.0960  142.7380 C   0  0  0  0  0  3  0  0  0  0  0  0
  181.7770  179.5400  140.1350 O   0  0  0  0  0  0  0  0  0  0  0  0
  181.4680  178.5230  140.8150 C   0  0  0  0  0  0  0  0  0  0  0  0
  181.4320  177.2330  140.1950 N   0  0  0  0  0  2  0  0  0  0  0  0
  181.7630  177.0280  138.7920 C   0  0  0  0  0  2  0  0  0  0  0  0
  183.0520  176.3670  138.6840 N   0  0  0  0  0  2  0  0  0  0  0  0
  183.9850  177.3540  138.1710 C   0  0  0  0  0  1  0  0  0  0  0  0
  179.6840  178.2060  144.1140 N   0  0  0  0  0  2  0  0  0  0  0  0
  178.9310  179.3550  144.5760 C   0  0  0  0  0  1  0  0  0  0  0  0
  190.8750  177.8340  141.9980 C   0  0  0  0  0  2  0  0  0  0  0  0
  189.8480  176.2060  140.5920 O   0  0  0  0  0  0  0  0  0  0  0  0
  190.7790  177.2600  140.5970 C   0  0  1  0  0  3  0  0  0  0  0  0
  189.4080  177.4400  140.0800 C   0  0  1  0  0  3  0  0  0  0  0  0
  189.4210  177.3840  138.5590 C   0  0  0  0  0  2  0  0  0  0  0  0
  188.3960  178.3270  137.9320 C   0  0  0  0  0  0  0  0  0  0  0  0
  189.0290  179.5250  137.6040 O   0  0  0  0  0  1  0  0  0  0  0  0
  187.3680  178.5890  138.8400 O   0  0  0  0  0  1  0  0  0  0  0  0
  187.8130  177.7180  136.6680 C   0  0  0  0  0  1  0  0  0  0  0  0
  1 10  1  0  0  0  0
  3  8  1  0  0  0  0
  3  5  1  0  0  0  0
  4 31  1  6  0  0  0
  4  7  1  0  0  0  0
  4  1  1  0  0  0  0
  5 12  2  0  0  0  0
  6  1  2  0  0  0  0
  6 13  1  0  0  0  0
  7  2  1  0  0  0  0
  8  9  1  0  0  0  0
  9 11  2  0  0  0  0
 10  2  1  0  0  0  0
 10  8  2  0  0  0  0
 12 11  1  0  0  0  0
 13  3  2  0  0  0  0
 14 20  1  6  0  0  0
 14 18  1  0  0  0  0
 15 13  1  1  0  0  0
 15 16  1  0  0  0  0
 17 15  1  0  0  0  0
 18 16  1  0  0  0  0
 19 17  1  0  0  0  0
 19 14  1  0  0  0  0
 21 22  2  0  0  0  0
 21 20  1  0  0  0  0
 22 29  1  0  0  0  0
 23 24  2  0  0  0  0
 24 21  1  0  0  0  0
 25 24  1  0  0  0  0
 26 25  1  0  0  0  0
 27 26  1  0  0  0  0
 28 27  1  0  0  0  0
 29 30  1  0  0  0  0
 32 33  1  0  0  0  0
 33 31  1  1  0  0  0
 34 35  1  6  0  0  0
 34 32  1  0  0  0  0
 34 33  1  0  0  0  0
 36 35  1  0  0  0  0
 36 38  1  0  0  0  0
 37 36  1  0  0  0  0
 39 36  1  0  0  0  0
M  END
>  <MODEL>
1

>  <REMARK>
 VINA RESULT:     -10.3      0.000      0.000
  Name = 
  11 active torsions:
  status: ('A' for Active; 'I' for Inactive)
    1  A    between atoms: C_1  and  C_2
    2  A    between atoms: C_1  and  C_28
    3  A    between atoms: C_3  and  C_30
    4  A    between atoms: C_6  and  C_38
    5  A    between atoms: C_9  and  C_18
    6  A    between atoms: C_9  and  C_30
    7  A    between atoms: C_11  and  C_25
    8  A    between atoms: N_13  and  C_26
    9  A    between atoms: C_17  and  C_25
   10  A    between atoms: C_20  and  N_29
   11  A    between atoms: C_20  and  N_37
                            x       y       z     vdW  Elec       q    Type
                         _______ _______ _______ _____ _____    ______ ____

>  <TORSDO>
F 11

$$$$
=
 OpenBabel11042411023D

 39 43  0  0  1  0  0  0  0  0999 V2000
  189.5390  176.8090  144.0650 C   0  0  0  0  0  0  0  0  0  0  0  0
  191.4340  176.6620  145.3520 C   0  0  0  0  0  2  0  0  0  0  0  0
  187.7980  177.6980  146.0440 C   0  0  0  0  0  0  0  0  0  0  0  0
  190.6420  176.3270  143.2160 C   0  0  2  0  0  3  0  0  0  0  0  0
  186.9480  178.1490  147.0660 C   0  0  0  0  0  3  0  0  0  0  0  0
  188.2040  177.0280  143.7290 C   0  0  0  0  0  3  0  0  0  0  0  0
  191.8020  176.2640  144.0370 O   0  0  0  0  0  0  0  0  0  0  0  0
  189.1660  177.4520  146.3440 C   0  0  0  0  0  0  0  0  0  0  0  0
  189.6490  177.6560  147.6410 C   0  0  0  0  0  3  0  0  0  0  0  0
  190.0010  177.0050  145.3170 C   0  0  0  0  0  0  0  0  0  0  0  0
  188.7860  178.1050  148.6450 C   0  0  0  0  0  3  0  0  0  0  0  0
  187.4410  178.3510  148.3580 C   0  0  0  0  0  3  0  0  0  0  0  0
  187.3160  177.4820  144.7260 C   0  0  0  0  0  0  0  0  0  0  0  0
  183.3610  178.6430  143.5330 C   0  0  2  0  0  3  0  0  0  0  0  0
  185.8760  177.7340  144.3780 C   0  0  1  0  0  3  0  0  0  0  0  0
  185.2920  178.8750  145.2140 C   0  0  0  0  0  2  0  0  0  0  0  0
  185.7030  177.9710  142.8690 C   0  0  0  0  0  2  0  0  0  0  0  0
  183.7920  179.0520  144.9480 C   0  0  0  0  0  2  0  0  0  0  0  0
  184.4930  178.8490  142.5270 C   0  0  0  0  0  2  0  0  0  0  0  0
  182.1290  179.4380  143.1290 C   0  0  0  0  0  2  0  0  0  0  0  0
  181.2250  178.6260  142.2460 C   0  0  0  0  0  0  0  0  0  0  0  0
  180.1050  178.0880  142.7330 C   0  0  0  0  0  3  0  0  0  0  0  0
  181.5910  177.2670  140.3390 O   0  0  0  0  0  0  0  0  0  0  0  0
  181.5730  178.4310  140.8260 C   0  0  0  0  0  0  0  0  0  0  0  0
  181.8950  179.5560  140.0000 N   0  0  0  0  0  2  0  0  0  0  0  0
  182.2250  179.4230  138.5890 C   0  0  0  0  0  2  0  0  0  0  0  0
  181.0190  179.5510  137.7880 N   0  0  0  0  0  2  0  0  0  0  0  0
  180.4840  180.8750  138.0500 C   0  0  0  0  0  1  0  0  0  0  0  0
  179.7240  178.2470  144.0980 N   0  0  0  0  0  2  0  0  0  0  0  0
  178.9340  179.3930  144.5010 C   0  0  0  0  0  1  0  0  0  0  0  0
  190.8740  177.2910  142.0610 C   0  0  0  0  0  2  0  0  0  0  0  0
  189.6450  177.9310  140.1210 O   0  0  0  0  0  0  0  0  0  0  0  0
  190.1400  176.8150  140.8220 C   0  0  1  0  0  3  0  0  0  0  0  0
  190.8150  177.3340  139.6150 C   0  0  1  0  0  3  0  0  0  0  0  0
  190.4580  176.4710  138.4150 C   0  0  0  0  0  2  0  0  0  0  0  0
  191.6900  175.8720  137.7390 C   0  0  0  0  0  0  0  0  0  0  0  0
  191.6360  176.1530  136.3750 O   0  0  0  0  0  1  0  0  0  0  0  0
  191.7090  174.4870  137.9170 O   0  0  0  0  0  1  0  0  0  0  0  0
  192.9600  176.4750  138.3140 C   0  0  0  0  0  1  0  0  0  0  0  0
  1 10  1  0  0  0  0
  3  8  1  0  0  0  0
  3  5  1  0  0  0  0
  4 31  1  6  0  0  0
  4  7  1  0  0  0  0
  4  1  1  0  0  0  0
  5 12  2  0  0  0  0
  6  1  2  0  0  0  0
  6 13  1  0  0  0  0
  7  2  1  0  0  0  0
  8  9  1  0  0  0  0
  9 11  2  0  0  0  0
 10  2  1  0  0  0  0
 10  8  2  0  0  0  0
 12 11  1  0  0  0  0
 13  3  2  0  0  0  0
 14 20  1  6  0  0  0
 14 18  1  0  0  0  0
 15 13  1  6  0  0  0
 15 16  1  0  0  0  0
 17 15  1  0  0  0  0
 18 16  1  0  0  0  0
 19 17  1  0  0  0  0
 19 14  1  0  0  0  0
 21 22  2  0  0  0  0
 21 20  1  0  0  0  0
 22 29  1  0  0  0  0
 23 24  2  0  0  0  0
 24 21  1  0  0  0  0
 25 24  1  0  0  0  0
 26 25  1  0  0  0  0
 27 28  1  0  0  0  0
 27 26  1  0  0  0  0
 29 30  1  0  0  0  0
 32 33  1  0  0  0  0
 33 31  1  1  0  0  0
 34 35  1  6  0  0  0
 34 32  1  0  0  0  0
 34 33  1  0  0  0  0
 36 38  1  0  0  0  0
 36 39  1  0  0  0  0
 36 35  1  0  0  0  0
 37 36  1  0  0  0  0
M  END
>  <MODEL>
2

>  <REMARK>
 VINA RESULT:     -10.1      1.621      2.087
  Name = 
  11 active torsions:
  status: ('A' for Active; 'I' for Inactive)
    1  A    between atoms: C_1  and  C_2
    2  A    between atoms: C_1  and  C_28
    3  A    between atoms: C_3  and  C_30
    4  A    between atoms: C_6  and  C_38
    5  A    between atoms: C_9  and  C_18
    6  A    between atoms: C_9  and  C_30
    7  A    between atoms: C_11  and  C_25
    8  A    between atoms: N_13  and  C_26
    9  A    between atoms: C_17  and  C_25
   10  A    between atoms: C_20  and  N_29
   11  A    between atoms: C_20  and  N_37
                            x       y       z     vdW  Elec       q    Type
                         _______ _______ _______ _____ _____    ______ ____

>  <TORSDO>
F 11

$$$$
=
 OpenBabel11042411023D

 39 43  0  0  1  0  0  0  0  0999 V2000
  187.4490  178.0910  145.4670 C   0  0  0  0  0  0  0  0  0  0  0  0
  187.5130  178.2800  147.7540 C   0  0  0  0  0  2  0  0  0  0  0  0
  189.9310  176.8860  145.1100 C   0  0  0  0  0  0  0  0  0  0  0  0
  186.2040  178.7370  145.9160 C   0  0  2  0  0  3  0  0  0  0  0  0
  191.1870  176.2770  144.9670 C   0  0  0  0  0  3  0  0  0  0  0  0
  187.8640  177.7930  144.1700 C   0  0  0  0  0  3  0  0  0  0  0  0
  186.2680  178.8230  147.3350 O   0  0  0  0  0  0  0  0  0  0  0  0
  189.4700  177.2180  146.4140 C   0  0  0  0  0  0  0  0  0  0  0  0
  190.2650  176.9400  147.5320 C   0  0  0  0  0  3  0  0  0  0  0  0
  188.2180  177.8230  146.5420 C   0  0  0  0  0  0  0  0  0  0  0  0
  191.5130  176.3330  147.3680 C   0  0  0  0  0  3  0  0  0  0  0  0
  191.9720  176.0020  146.0900 C   0  0  0  0  0  3  0  0  0  0  0  0
  189.1200  177.1780  143.9820 C   0  0  0  0  0  0  0  0  0  0  0  0
  190.5610  176.6990  139.9690 C   0  0  2  0  0  3  0  0  0  0  0  0
  189.5780  176.8390  142.5920 C   0  0  1  0  0  3  0  0  0  0  0  0
  188.6820  177.4880  141.5350 C   0  0  0  0  0  2  0  0  0  0  0  0
  191.0610  177.1940  142.3940 C   0  0  0  0  0  2  0  0  0  0  0  0
  189.0730  177.0440  140.1200 C   0  0  0  0  0  2  0  0  0  0  0  0
  191.4200  177.5120  140.9370 C   0  0  0  0  0  2  0  0  0  0  0  0
  190.9930  176.9420  138.5300 C   0  0  0  0  0  2  0  0  0  0  0  0
  191.6610  175.7260  137.9530 C   0  0  0  0  0  0  0  0  0  0  0  0
  190.9400  174.7750  137.3560 C   0  0  0  0  0  3  0  0  0  0  0  0
  193.8280  176.5690  138.4110 O   0  0  0  0  0  0  0  0  0  0  0  0
  193.1270  175.5890  138.0370 C   0  0  0  0  0  0  0  0  0  0  0  0
  193.7580  174.3500  137.6930 N   0  0  0  0  0  2  0  0  0  0  0  0
  195.1970  174.1530  137.7770 C   0  0  0  0  0  2  0  0  0  0  0  0
  195.5530  173.6980  139.1100 N   0  0  0  0  0  2  0  0  0  0  0  0
  196.5430  174.6310  139.6180 C   0  0  0  0  0  1  0  0  0  0  0  0
  189.5200  174.8600  137.2500 N   0  0  0  0  0  2  0  0  0  0  0  0
  188.9120  175.2930  136.0080 C   0  0  0  0  0  1  0  0  0  0  0  0
  185.0000  177.9030  145.5000 C   0  0  0  0  0  2  0  0  0  0  0  0
  184.8550  179.5660  143.7970 O   0  0  0  0  0  0  0  0  0  0  0  0
  184.0810  178.7140  144.6060 C   0  0  1  0  0  3  0  0  0  0  0  0
  184.3590  178.3960  143.1910 C   0  0  1  0  0  3  0  0  0  0  0  0
  183.1490  178.7510  142.3380 C   0  0  0  0  0  2  0  0  0  0  0  0
  183.4130  178.5620  140.8450 C   0  0  0  0  0  0  0  0  0  0  0  0
  182.5540  179.3940  140.1280 O   0  0  0  0  0  1  0  0  0  0  0  0
  183.1720  177.2360  140.4800 O   0  0  0  0  0  1  0  0  0  0  0  0
  184.8470  178.9300  140.5050 C   0  0  0  0  0  1  0  0  0  0  0  0
  1  4  1  0  0  0  0
  1 10  1  0  0  0  0
  3  8  1  0  0  0  0
  4 31  1  1  0  0  0
  4  7  1  0  0  0  0
  5  3  1  0  0  0  0
  5 12  2  0  0  0  0
  6  1  2  0  0  0  0
  7  2  1  0  0  0  0
  8 10  2  0  0  0  0
  8  9  1  0  0  0  0
 10  2  1  0  0  0  0
 11  9  2  0  0  0  0
 12 11  1  0  0  0  0
 13  6  1  0  0  0  0
 13  3  2  0  0  0  0
 14 20  1  6  0  0  0
 14 18  1  0  0  0  0
 14 19  1  0  0  0  0
 15 13  1  1  0  0  0
 16 15  1  0  0  0  0
 17 15  1  0  0  0  0
 18 16  1  0  0  0  0
 19 17  1  0  0  0  0
 21 24  1  0  0  0  0
 21 20  1  0  0  0  0
 22 21  2  0  0  0  0
 24 23  2  0  0  0  0
 25 26  1  0  0  0  0
 25 24  1  0  0  0  0
 26 27  1  0  0  0  0
 27 28  1  0  0  0  0
 29 22  1  0  0  0  0
 30 29  1  0  0  0  0
 32 33  1  0  0  0  0
 33 31  1  1  0  0  0
 34 35  1  6  0  0  0
 34 32  1  0  0  0  0
 34 33  1  0  0  0  0
 36 35  1  0  0  0  0
 37 36  1  0  0  0  0
 38 36  1  0  0  0  0
 39 36  1  0  0  0  0
M  END
>  <MODEL>
3

>  <REMARK>
 VINA RESULT:      -9.6      3.859      8.121
  Name = 
  11 active torsions:
  status: ('A' for Active; 'I' for Inactive)
    1  A    between atoms: C_1  and  C_2
    2  A    between atoms: C_1  and  C_28
    3  A    between atoms: C_3  and  C_30
    4  A    between atoms: C_6  and  C_38
    5  A    between atoms: C_9  and  C_18
    6  A    between atoms: C_9  and  C_30
    7  A    between atoms: C_11  and  C_25
    8  A    between atoms: N_13  and  C_26
    9  A    between atoms: C_17  and  C_25
   10  A    between atoms: C_20  and  N_29
   11  A    between atoms: C_20  and  N_37
                            x       y       z     vdW  Elec       q    Type
                         _______ _______ _______ _____ _____    ______ ____

>  <TORSDO>
F 11

$$$$
=
 OpenBabel11042411023D

 39 43  0  0  1  0  0  0  0  0999 V2000
  187.4250  178.1060  145.3590 C   0  0  0  0  0  0  0  0  0  0  0  0
  187.3810  178.3180  147.6440 C   0  0  0  0  0  2  0  0  0  0  0  0
  189.9340  176.9270  145.1300 C   0  0  0  0  0  0  0  0  0  0  0  0
  186.1530  178.7420  145.7420 C   0  0  2  0  0  3  0  0  0  0  0  0
  191.2020  176.3310  145.0510 C   0  0  0  0  0  3  0  0  0  0  0  0
  187.9030  177.8000  144.0860 C   0  0  0  0  0  3  0  0  0  0  0  0
  186.1500  178.8430  147.1620 O   0  0  0  0  0  0  0  0  0  0  0  0
  189.4100  177.2660  146.4070 C   0  0  0  0  0  0  0  0  0  0  0  0
  190.1550  177.0080  147.5640 C   0  0  0  0  0  3  0  0  0  0  0  0
  188.1460  177.8580  146.4710 C   0  0  0  0  0  0  0  0  0  0  0  0
  191.4160  176.4150  147.4640 C   0  0  0  0  0  3  0  0  0  0  0  0
  191.9370  176.0770  146.2130 C   0  0  0  0  0  3  0  0  0  0  0  0
  189.1730  177.1980  143.9620 C   0  0  0  0  0  0  0  0  0  0  0  0
  190.8310  176.6890  140.0380 C   0  0  2  0  0  3  0  0  0  0  0  0
  189.6990  176.8510  142.5980 C   0  0  1  0  0  3  0  0  0  0  0  0
  188.8970  177.5470  141.4970 C   0  0  0  0  0  2  0  0  0  0  0  0
  191.2050  177.1420  142.4940 C   0  0  0  0  0  2  0  0  0  0  0  0
  189.3530  177.0980  140.1040 C   0  0  0  0  0  2  0  0  0  0  0  0
  191.6640  177.4550  141.0640 C   0  0  0  0  0  2  0  0  0  0  0  0
  191.3590  176.9250  138.6300 C   0  0  0  0  0  2  0  0  0  0  0  0
  191.4610  175.6340  137.8670 C   0  0  0  0  0  0  0  0  0  0  0  0
  192.6460  175.0510  137.6770 C   0  0  0  0  0  3  0  0  0  0  0  0
  190.0590  173.7630  137.4820 O   0  0  0  0  0  0  0  0  0  0  0  0
  190.2390  175.0020  137.3340 C   0  0  0  0  0  0  0  0  0  0  0  0
  189.2600  175.7890  136.6470 N   0  0  0  0  0  2  0  0  0  0  0  0
  188.0280  175.2220  136.1200 C   0  0  0  0  0  2  0  0  0  0  0  0
  186.9910  175.2690  137.1360 N   0  0  0  0  0  2  0  0  0  0  0  0
  186.5320  176.6450  137.2000 C   0  0  0  0  0  1  0  0  0  0  0  0
  193.8560  175.6210  138.1710 N   0  0  0  0  0  2  0  0  0  0  0  0
  195.0650  174.8240  138.2190 C   0  0  0  0  0  1  0  0  0  0  0  0
  184.9800  177.8890  145.2800 C   0  0  0  0  0  2  0  0  0  0  0  0
  184.8090  179.5670  143.5940 O   0  0  0  0  0  0  0  0  0  0  0  0
  184.0470  178.7070  144.4060 C   0  0  1  0  0  3  0  0  0  0  0  0
  184.3060  178.4030  142.9840 C   0  0  1  0  0  3  0  0  0  0  0  0
  183.0840  178.7630  142.1510 C   0  0  0  0  0  2  0  0  0  0  0  0
  183.2960  178.5000  140.6610 C   0  0  0  0  0  0  0  0  0  0  0  0
  182.2910  179.1450  139.9430 O   0  0  0  0  0  1  0  0  0  0  0  0
  183.2310  177.1290  140.4040 O   0  0  0  0  0  1  0  0  0  0  0  0
  184.6430  179.0380  140.2100 C   0  0  0  0  0  1  0  0  0  0  0  0
  1  4  1  0  0  0  0
  1 10  1  0  0  0  0
  3  8  1  0  0  0  0
  4 31  1  1  0  0  0
  4  7  1  0  0  0  0
  5  3  1  0  0  0  0
  5 12  2  0  0  0  0
  6  1  2  0  0  0  0
  7  2  1  0  0  0  0
  8 10  2  0  0  0  0
  8  9  1  0  0  0  0
 10  2  1  0  0  0  0
 11  9  2  0  0  0  0
 12 11  1  0  0  0  0
 13  6  1  0  0  0  0
 13  3  2  0  0  0  0
 14 20  1  6  0  0  0
 14 18  1  0  0  0  0
 14 19  1  0  0  0  0
 15 13  1  1  0  0  0
 16 15  1  0  0  0  0
 17 15  1  0  0  0  0
 18 16  1  0  0  0  0
 19 17  1  0  0  0  0
 21 20  1  0  0  0  0
 22 21  2  0  0  0  0
 22 29  1  0  0  0  0
 24 23  2  0  0  0  0
 24 21  1  0  0  0  0
 25 24  1  0  0  0  0
 26 25  1  0  0  0  0
 26 27  1  0  0  0  0
 27 28  1  0  0  0  0
 29 30  1  0  0  0  0
 32 33  1  0  0  0  0
 33 31  1  1  0  0  0
 34 35  1  6  0  0  0
 34 32  1  0  0  0  0
 34 33  1  0  0  0  0
 36 35  1  0  0  0  0
 37 36  1  0  0  0  0
 38 36  1  0  0  0  0
 39 36  1  0  0  0  0
M  END
>  <MODEL>
4

>  <REMARK>
 VINA RESULT:      -9.3      3.129      7.519
  Name = 
  11 active torsions:
  status: ('A' for Active; 'I' for Inactive)
    1  A    between atoms: C_1  and  C_2
    2  A    between atoms: C_1  and  C_28
    3  A    between atoms: C_3  and  C_30
    4  A    between atoms: C_6  and  C_38
    5  A    between atoms: C_9  and  C_18
    6  A    between atoms: C_9  and  C_30
    7  A    between atoms: C_11  and  C_25
    8  A    between atoms: N_13  and  C_26
    9  A    between atoms: C_17  and  C_25
   10  A    between atoms: C_20  and  N_29
   11  A    between atoms: C_20  and  N_37
                            x       y       z     vdW  Elec       q    Type
                         _______ _______ _______ _____ _____    ______ ____

>  <TORSDO>
F 11

$$$$
=
 OpenBabel11042411023D

 39 43  0  0  1  0  0  0  0  0999 V2000
  186.1990  177.9590  145.3600 C   0  0  0  0  0  0  0  0  0  0  0  0
  184.1820  178.6010  146.2480 C   0  0  0  0  0  2  0  0  0  0  0  0
  185.5200  178.1650  142.6710 C   0  0  0  0  0  0  0  0  0  0  0  0
  186.3020  177.9170  146.8290 C   0  0  2  0  0  3  0  0  0  0  0  0
  185.1440  178.2810  141.3230 C   0  0  0  0  0  3  0  0  0  0  0  0
  187.1590  177.6320  144.4040 C   0  0  0  0  0  3  0  0  0  0  0  0
  185.0440  178.3350  147.3460 O   0  0  0  0  0  0  0  0  0  0  0  0
  184.5700  178.4790  143.6810 C   0  0  0  0  0  0  0  0  0  0  0  0
  183.2810  178.8950  143.3290 C   0  0  0  0  0  3  0  0  0  0  0  0
  184.9570  178.3580  145.0170 C   0  0  0  0  0  0  0  0  0  0  0  0
  182.9270  179.0040  141.9810 C   0  0  0  0  0  3  0  0  0  0  0  0
  183.8550  178.7000  140.9830 C   0  0  0  0  0  3  0  0  0  0  0  0
  186.8230  177.7370  143.0380 C   0  0  0  0  0  0  0  0  0  0  0  0
  190.0950  176.9910  140.3640 C   0  0  2  0  0  3  0  0  0  0  0  0
  187.8490  177.3990  141.9940 C   0  0  1  0  0  3  0  0  0  0  0  0
  188.3800  178.6590  141.3060 C   0  0  0  0  0  2  0  0  0  0  0  0
  188.9780  176.5380  142.5830 C   0  0  0  0  0  2  0  0  0  0  0  0
  189.3350  178.3090  140.1580 C   0  0  0  0  0  2  0  0  0  0  0  0
  190.3140  176.7040  141.8490 C   0  0  0  0  0  2  0  0  0  0  0  0
  191.4220  177.0510  139.6240 C   0  0  0  0  0  2  0  0  0  0  0  0
  191.3160  176.4110  138.2680 C   0  0  0  0  0  0  0  0  0  0  0  0
  192.3800  175.8340  137.7060 C   0  0  0  0  0  3  0  0  0  0  0  0
  189.3160  175.3640  137.5460 O   0  0  0  0  0  0  0  0  0  0  0  0
  190.0220  176.4090  137.5600 C   0  0  0  0  0  0  0  0  0  0  0  0
  189.5670  177.5880  136.8850 N   0  0  0  0  0  2  0  0  0  0  0  0
  188.2910  177.6480  136.1890 C   0  0  0  0  0  2  0  0  0  0  0  0
  187.5190  178.7790  136.6760 N   0  0  0  0  0  2  0  0  0  0  0  0
  186.5770  178.2520  137.6470 C   0  0  0  0  0  1  0  0  0  0  0  0
  193.6530  175.8100  138.3490 N   0  0  0  0  0  2  0  0  0  0  0  0
  194.6730  174.8840  137.8990 C   0  0  0  0  0  1  0  0  0  0  0  0
  187.3990  178.8590  147.3050 C   0  0  0  0  0  2  0  0  0  0  0  0
  188.4340  176.7550  147.7380 O   0  0  0  0  0  0  0  0  0  0  0  0
  188.4170  178.1030  148.1390 C   0  0  1  0  0  3  0  0  0  0  0  0
  189.4780  177.5690  147.2620 C   0  0  1  0  0  3  0  0  0  0  0  0
  190.7340  177.3010  148.0780 C   0  0  0  0  0  2  0  0  0  0  0  0
  191.6480  176.2680  147.4210 C   0  0  0  0  0  0  0  0  0  0  0  0
  191.1570  174.9930  147.6960 O   0  0  0  0  0  1  0  0  0  0  0  0
  192.9410  176.3780  147.9340 O   0  0  0  0  0  1  0  0  0  0  0  0
  191.6800  176.4660  145.9150 C   0  0  0  0  0  1  0  0  0  0  0  0
  1  4  1  0  0  0  0
  2  7  1  0  0  0  0
  3 13  2  0  0  0  0
  3  8  1  0  0  0  0
  4 31  1  1  0  0  0
  4  7  1  0  0  0  0
  5  3  1  0  0  0  0
  6  1  2  0  0  0  0
  8 10  2  0  0  0  0
  9  8  1  0  0  0  0
 10  1  1  0  0  0  0
 10  2  1  0  0  0  0
 11  9  2  0  0  0  0
 12  5  2  0  0  0  0
 12 11  1  0  0  0  0
 13  6  1  0  0  0  0
 14 20  1  6  0  0  0
 14 19  1  0  0  0  0
 15 17  1  0  0  0  0
 15 13  1  1  0  0  0
 16 15  1  0  0  0  0
 18 14  1  0  0  0  0
 18 16  1  0  0  0  0
 19 17  1  0  0  0  0
 21 20  1  0  0  0  0
 22 21  2  0  0  0  0
 22 29  1  0  0  0  0
 23 24  2  0  0  0  0
 24 21  1  0  0  0  0
 25 24  1  0  0  0  0
 26 27  1  0  0  0  0
 26 25  1  0  0  0  0
 27 28  1  0  0  0  0
 30 29  1  0  0  0  0
 32 33  1  0  0  0  0
 33 31  1  6  0  0  0
 34 32  1  0  0  0  0
 34 35  1  1  0  0  0
 34 33  1  0  0  0  0
 36 37  1  0  0  0  0
 36 38  1  0  0  0  0
 36 35  1  0  0  0  0
 39 36  1  0  0  0  0
M  END
>  <MODEL>
5

>  <REMARK>
 VINA RESULT:      -9.2      3.259      8.371
  Name = 
  11 active torsions:
  status: ('A' for Active; 'I' for Inactive)
    1  A    between atoms: C_1  and  C_2
    2  A    between atoms: C_1  and  C_28
    3  A    between atoms: C_3  and  C_30
    4  A    between atoms: C_6  and  C_38
    5  A    between atoms: C_9  and  C_18
    6  A    between atoms: C_9  and  C_30
    7  A    between atoms: C_11  and  C_25
    8  A    between atoms: N_13  and  C_26
    9  A    between atoms: C_17  and  C_25
   10  A    between atoms: C_20  and  N_29
   11  A    between atoms: C_20  and  N_37
                            x       y       z     vdW  Elec       q    Type
                         _______ _______ _______ _____ _____    ______ ____

>  <TORSDO>
F 11

$$$$
=
 OpenBabel11042411023D

 39 43  0  0  1  0  0  0  0  0999 V2000
  189.2500  177.2110  143.6670 C   0  0  0  0  0  0  0  0  0  0  0  0
  190.8860  177.1440  145.2750 C   0  0  0  0  0  2  0  0  0  0  0  0
  187.1160  177.8910  145.3160 C   0  0  0  0  0  0  0  0  0  0  0  0
  190.5230  176.8450  143.0210 C   0  0  2  0  0  3  0  0  0  0  0  0
  186.0620  178.2360  146.1760 C   0  0  0  0  0  3  0  0  0  0  0  0
  187.9860  177.3500  143.0960 C   0  0  0  0  0  3  0  0  0  0  0  0
  191.5160  176.8290  144.0400 O   0  0  0  0  0  0  0  0  0  0  0  0
  188.4210  177.7300  145.8550 C   0  0  0  0  0  0  0  0  0  0  0  0
  188.6430  177.9120  147.2250 C   0  0  0  0  0  3  0  0  0  0  0  0
  189.4610  177.3860  144.9870 C   0  0  0  0  0  0  0  0  0  0  0  0
  187.5810  178.2550  148.0650 C   0  0  0  0  0  3  0  0  0  0  0  0
  186.2960  178.4180  147.5420 C   0  0  0  0  0  3  0  0  0  0  0  0
  186.8990  177.6980  143.9260 C   0  0  0  0  0  0  0  0  0  0  0  0
  183.1490  178.6270  142.0600 C   0  0  2  0  0  3  0  0  0  0  0  0
  185.5320  177.8620  143.3260 C   0  0  1  0  0  3  0  0  0  0  0  0
  184.7190  178.9210  144.0740 C   0  0  0  0  0  2  0  0  0  0  0  0
  185.6170  178.1530  141.8190 C   0  0  0  0  0  2  0  0  0  0  0  0
  183.2820  179.0020  143.5420 C   0  0  0  0  0  2  0  0  0  0  0  0
  184.4250  178.9580  141.2870 C   0  0  0  0  0  2  0  0  0  0  0  0
  181.9530  179.3500  141.4600 C   0  0  0  0  0  2  0  0  0  0  0  0
  181.5970  178.7860  140.1140 C   0  0  1  0  0  3  0  0  0  0  0  0
  181.5000  179.5840  139.0480 C   0  0  0  0  0  3  0  0  0  0  0  0
  182.1600  176.6410  139.2780 O   0  0  0  0  0  0  0  0  0  0  0  0
  181.3650  177.3370  139.9670 C   0  0  0  0  0  0  0  0  0  0  0  0
  180.2390  176.7180  140.6010 N   0  0  0  0  0  2  0  0  0  0  0  0
  179.9740  175.2900  140.5060 C   0  0  0  0  0  2  0  0  0  0  0  0
  178.9340  174.9200  141.4520 N   0  0  0  0  0  2  0  0  0  0  0  0
  179.2390  173.5730  141.9000 C   0  0  0  0  0  1  0  0  0  0  0  0
  181.7140  180.9910  139.1370 N   0  0  0  0  0  0  0  0  0  0  0  0
  181.2490  181.8620  138.0770 C   0  0  0  0  0  1  0  0  0  0  0  0
  190.8860  177.8710  141.9580 C   0  0  0  0  0  2  0  0  0  0  0  0
  189.8530  176.3570  140.4320 O   0  0  0  0  0  0  0  0  0  0  0  0
  190.9590  177.2120  140.5930 C   0  0  1  0  0  3  0  0  0  0  0  0
  189.7850  177.6070  139.7880 C   0  0  1  0  0  3  0  0  0  0  0  0
  190.0910  177.4240  138.3090 C   0  0  0  0  0  2  0  0  0  0  0  0
  188.9900  177.9860  137.4120 C   0  0  0  0  0  0  0  0  0  0  0  0
  189.0540  179.3780  137.4410 O   0  0  0  0  0  1  0  0  0  0  0  0
  187.7380  177.5790  137.8780 O   0  0  0  0  0  1  0  0  0  0  0  0
  189.1760  177.5170  135.9800 C   0  0  0  0  0  1  0  0  0  0  0  0
  1 10  1  0  0  0  0
  3  8  1  0  0  0  0
  3  5  1  0  0  0  0
  4 31  1  6  0  0  0
  4  1  1  0  0  0  0
  4  7  1  0  0  0  0
  5 12  2  0  0  0  0
  6  1  2  0  0  0  0
  6 13  1  0  0  0  0
  7  2  1  0  0  0  0
  8  9  1  0  0  0  0
  9 11  2  0  0  0  0
 10  2  1  0  0  0  0
 10  8  2  0  0  0  0
 12 11  1  0  0  0  0
 13  3  2  0  0  0  0
 14 20  1  6  0  0  0
 14 18  1  0  0  0  0
 15 13  1  1  0  0  0
 15 16  1  0  0  0  0
 17 15  1  0  0  0  0
 18 16  1  0  0  0  0
 19 17  1  0  0  0  0
 19 14  1  0  0  0  0
 21 22  1  6  0  0  0
 21 20  1  0  0  0  0
 22 29  2  0  0  0  0
 23 24  2  0  0  0  0
 24 21  1  0  0  0  0
 24 25  1  0  0  0  0
 26 25  1  0  0  0  0
 26 27  1  0  0  0  0
 27 28  1  0  0  0  0
 30 29  1  0  0  0  0
 32 33  1  0  0  0  0
 33 31  1  1  0  0  0
 34 35  1  6  0  0  0
 34 32  1  0  0  0  0
 34 33  1  0  0  0  0
 36 37  1  0  0  0  0
 36 38  1  0  0  0  0
 36 35  1  0  0  0  0
 39 36  1  0  0  0  0
M  END
>  <MODEL>
6

>  <REMARK>
 VINA RESULT:      -9.1      1.727      2.487
  Name = 
  11 active torsions:
  status: ('A' for Active; 'I' for Inactive)
    1  A    between atoms: C_1  and  C_2
    2  A    between atoms: C_1  and  C_28
    3  A    between atoms: C_3  and  C_30
    4  A    between atoms: C_6  and  C_38
    5  A    between atoms: C_9  and  C_18
    6  A    between atoms: C_9  and  C_30
    7  A    between atoms: C_11  and  C_25
    8  A    between atoms: N_13  and  C_26
    9  A    between atoms: C_17  and  C_25
   10  A    between atoms: C_20  and  N_29
   11  A    between atoms: C_20  and  N_37
                            x       y       z     vdW  Elec       q    Type
                         _______ _______ _______ _____ _____    ______ ____

>  <TORSDO>
F 11

$$$$
=
 OpenBabel11042411023D

 39 43  0  0  1  0  0  0  0  0999 V2000
  187.1230  178.2160  145.4580 C   0  0  0  0  0  0  0  0  0  0  0  0
  187.1980  178.3690  147.7460 C   0  0  0  0  0  2  0  0  0  0  0  0
  189.6190  177.0530  145.0670 C   0  0  0  0  0  0  0  0  0  0  0  0
  185.8710  178.8370  145.9240 C   0  0  2  0  0  3  0  0  0  0  0  0
  190.8830  176.4650  144.9060 C   0  0  0  0  0  3  0  0  0  0  0  0
  187.5340  177.9450  144.1540 C   0  0  0  0  0  3  0  0  0  0  0  0
  185.9430  178.9020  147.3430 O   0  0  0  0  0  0  0  0  0  0  0  0
  189.1620  177.3570  146.3780 C   0  0  0  0  0  0  0  0  0  0  0  0
  189.9670  177.0730  147.4870 C   0  0  0  0  0  3  0  0  0  0  0  0
  187.9020  177.9430  146.5230 C   0  0  0  0  0  0  0  0  0  0  0  0
  191.2230  176.4870  147.3060 C   0  0  0  0  0  3  0  0  0  0  0  0
  191.6790  176.1830  146.0210 C   0  0  0  0  0  3  0  0  0  0  0  0
  188.7970  177.3520  143.9480 C   0  0  0  0  0  0  0  0  0  0  0  0
  190.3120  176.9270  139.9560 C   0  0  2  0  0  3  0  0  0  0  0  0
  189.2520  177.0410  142.5500 C   0  0  1  0  0  3  0  0  0  0  0  0
  188.5270  177.9120  141.5220 C   0  0  0  0  0  2  0  0  0  0  0  0
  190.7810  177.1470  142.4270 C   0  0  0  0  0  2  0  0  0  0  0  0
  188.8990  177.5120  140.0890 C   0  0  0  0  0  2  0  0  0  0  0  0
  191.2530  177.5040  141.0120 C   0  0  0  0  0  2  0  0  0  0  0  0
  190.8420  177.1960  138.5560 C   0  0  0  0  0  2  0  0  0  0  0  0
  190.1140  176.3710  137.5330 C   0  0  0  0  0  0  0  0  0  0  0  0
  190.4850  175.1120  137.2890 C   0  0  0  0  0  3  0  0  0  0  0  0
  189.0910  178.0830  136.2540 O   0  0  0  0  0  0  0  0  0  0  0  0
  188.9730  176.9530  136.8010 C   0  0  0  0  0  0  0  0  0  0  0  0
  187.7330  176.2420  136.7130 N   0  0  0  0  0  2  0  0  0  0  0  0
  186.5830  176.7600  135.9870 C   0  0  0  0  0  2  0  0  0  0  0  0
  185.4150  176.7600  136.8520 N   0  0  0  0  0  2  0  0  0  0  0  0
  185.5750  177.8760  137.7670 C   0  0  0  0  0  1  0  0  0  0  0  0
  191.5810  174.5030  137.9680 N   0  0  0  0  0  2  0  0  0  0  0  0
  192.8530  174.3450  137.2930 C   0  0  0  0  0  1  0  0  0  0  0  0
  184.6780  177.9920  145.5010 C   0  0  0  0  0  2  0  0  0  0  0  0
  184.4690  179.6990  143.8490 O   0  0  0  0  0  0  0  0  0  0  0  0
  183.7260  178.8130  144.6510 C   0  0  1  0  0  3  0  0  0  0  0  0
  183.9770  178.5400  143.2220 C   0  0  1  0  0  3  0  0  0  0  0  0
  182.7440  178.8980  142.4050 C   0  0  0  0  0  2  0  0  0  0  0  0
  182.9790  178.7590  140.9020 C   0  0  0  0  0  0  0  0  0  0  0  0
  184.1850  179.3780  140.5760 O   0  0  0  0  0  1  0  0  0  0  0  0
  181.9450  179.3780  140.1970 O   0  0  0  0  0  1  0  0  0  0  0  0
  183.0570  177.2940  140.5070 C   0  0  0  0  0  1  0  0  0  0  0  0
  1  4  1  0  0  0  0
  1 10  1  0  0  0  0
  3  8  1  0  0  0  0
  4 31  1  1  0  0  0
  4  7  1  0  0  0  0
  5  3  1  0  0  0  0
  5 12  2  0  0  0  0
  6  1  2  0  0  0  0
  7  2  1  0  0  0  0
  8 10  2  0  0  0  0
  8  9  1  0  0  0  0
 10  2  1  0  0  0  0
 11  9  2  0  0  0  0
 12 11  1  0  0  0  0
 13  6  1  0  0  0  0
 13  3  2  0  0  0  0
 14 20  1  6  0  0  0
 14 18  1  0  0  0  0
 14 19  1  0  0  0  0
 15 13  1  1  0  0  0
 16 15  1  0  0  0  0
 17 15  1  0  0  0  0
 18 16  1  0  0  0  0
 19 17  1  0  0  0  0
 21 20  1  0  0  0  0
 22 21  2  0  0  0  0
 22 29  1  0  0  0  0
 23 24  2  0  0  0  0
 24 21  1  0  0  0  0
 25 24  1  0  0  0  0
 26 25  1  0  0  0  0
 26 27  1  0  0  0  0
 27 28  1  0  0  0  0
 30 29  1  0  0  0  0
 32 33  1  0  0  0  0
 33 31  1  1  0  0  0
 34 35  1  6  0  0  0
 34 32  1  0  0  0  0
 34 33  1  0  0  0  0
 36 35  1  0  0  0  0
 37 36  1  0  0  0  0
 38 36  1  0  0  0  0
 39 36  1  0  0  0  0
M  END
>  <MODEL>
7

>  <REMARK>
 VINA RESULT:      -9.1      2.679      7.007
  Name = 
  11 active torsions:
  status: ('A' for Active; 'I' for Inactive)
    1  A    between atoms: C_1  and  C_2
    2  A    between atoms: C_1  and  C_28
    3  A    between atoms: C_3  and  C_30
    4  A    between atoms: C_6  and  C_38
    5  A    between atoms: C_9  and  C_18
    6  A    between atoms: C_9  and  C_30
    7  A    between atoms: C_11  and  C_25
    8  A    between atoms: N_13  and  C_26
    9  A    between atoms: C_17  and  C_25
   10  A    between atoms: C_20  and  N_29
   11  A    between atoms: C_20  and  N_37
                            x       y       z     vdW  Elec       q    Type
                         _______ _______ _______ _____ _____    ______ ____

>  <TORSDO>
F 11

$$$$
=
 OpenBabel11042411023D

 39 43  0  0  1  0  0  0  0  0999 V2000
  188.1630  177.4490  143.2740 C   0  0  0  0  0  0  0  0  0  0  0  0
  189.0530  177.0800  145.3570 C   0  0  0  0  0  2  0  0  0  0  0  0
  185.6820  178.4130  144.0810 C   0  0  0  0  0  0  0  0  0  0  0  0
  189.5210  176.9030  143.1090 C   0  0  2  0  0  3  0  0  0  0  0  0
  184.4410  178.8980  144.5240 C   0  0  0  0  0  3  0  0  0  0  0  0
  187.2340  177.8010  142.2960 C   0  0  0  0  0  3  0  0  0  0  0  0
  190.0490  176.7020  144.4150 O   0  0  0  0  0  0  0  0  0  0  0  0
  186.6560  178.0330  145.0440 C   0  0  0  0  0  0  0  0  0  0  0  0
  186.3730  178.1400  146.4110 C   0  0  0  0  0  3  0  0  0  0  0  0
  187.8860  177.5520  144.5900 C   0  0  0  0  0  0  0  0  0  0  0  0
  185.1320  178.6250  146.8310 C   0  0  0  0  0  3  0  0  0  0  0  0
  184.1700  179.0040  145.8910 C   0  0  0  0  0  3  0  0  0  0  0  0
  185.9760  178.2940  142.6970 C   0  0  0  0  0  0  0  0  0  0  0  0
  183.1640  178.9590  139.5250 C   0  0  2  0  0  3  0  0  0  0  0  0
  184.9670  178.6900  141.6560 C   0  0  1  0  0  3  0  0  0  0  0  0
  185.6180  178.8440  140.2800 C   0  0  0  0  0  2  0  0  0  0  0  0
  183.7810  177.7120  141.6330 C   0  0  0  0  0  2  0  0  0  0  0  0
  184.6170  179.3660  139.2430 C   0  0  0  0  0  2  0  0  0  0  0  0
  183.0960  177.6230  140.2640 C   0  0  0  0  0  2  0  0  0  0  0  0
  182.3930  178.8920  138.2160 C   0  0  0  0  0  2  0  0  0  0  0  0
  180.9340  179.1810  138.4310 C   0  0  0  0  0  0  0  0  0  0  0  0
  180.0010  178.4740  137.7890 C   0  0  0  0  0  3  0  0  0  0  0  0
  180.8140  181.4470  139.1130 O   0  0  0  0  0  0  0  0  0  0  0  0
  180.5290  180.2450  139.3690 C   0  0  0  0  0  0  0  0  0  0  0  0
  179.8190  179.9190  140.5690 N   0  0  0  0  0  2  0  0  0  0  0  0
  179.3780  180.9310  141.5180 C   0  0  0  0  0  2  0  0  0  0  0  0
  179.6520  180.4850  142.8730 N   0  0  0  0  0  2  0  0  0  0  0  0
  180.7560  179.5450  142.7880 C   0  0  0  0  0  1  0  0  0  0  0  0
  180.3400  177.4350  136.8720 N   0  0  0  0  0  2  0  0  0  0  0  0
  179.7370  176.1250  137.0080 C   0  0  0  0  0  1  0  0  0  0  0  0
  190.3920  177.8870  142.3420 C   0  0  0  0  0  2  0  0  0  0  0  0
  190.0830  176.1740  140.7120 O   0  0  0  0  0  0  0  0  0  0  0  0
  190.9230  177.2430  141.0750 C   0  0  1  0  0  3  0  0  0  0  0  0
  189.9240  177.3750  139.9950 C   0  0  1  0  0  3  0  0  0  0  0  0
  190.6080  177.2430  138.6430 C   0  0  0  0  0  2  0  0  0  0  0  0
  189.6240  177.3430  137.4790 C   0  0  0  0  0  0  0  0  0  0  0  0
  188.5610  176.4720  137.7130 O   0  0  0  0  0  1  0  0  0  0  0  0
  190.2540  176.9810  136.2870 O   0  0  0  0  0  1  0  0  0  0  0  0
  189.0810  178.7560  137.3570 C   0  0  0  0  0  1  0  0  0  0  0  0
  1 10  1  0  0  0  0
  3  5  1  0  0  0  0
  3  8  1  0  0  0  0
  4 31  1  6  0  0  0
  4  1  1  0  0  0  0
  4  7  1  0  0  0  0
  5 12  2  0  0  0  0
  6 13  1  0  0  0  0
  6  1  2  0  0  0  0
  7  2  1  0  0  0  0
  8  9  1  0  0  0  0
  9 11  2  0  0  0  0
 10  8  2  0  0  0  0
 10  2  1  0  0  0  0
 12 11  1  0  0  0  0
 13  3  2  0  0  0  0
 14 20  1  6  0  0  0
 14 19  1  0  0  0  0
 15 13  1  1  0  0  0
 16 15  1  0  0  0  0
 17 15  1  0  0  0  0
 18 14  1  0  0  0  0
 18 16  1  0  0  0  0
 19 17  1  0  0  0  0
 20 21  1  0  0  0  0
 21 24  1  0  0  0  0
 22 21  2  0  0  0  0
 23 24  2  0  0  0  0
 24 25  1  0  0  0  0
 25 26  1  0  0  0  0
 26 27  1  0  0  0  0
 28 27  1  0  0  0  0
 29 30  1  0  0  0  0
 29 22  1  0  0  0  0
 32 33  1  0  0  0  0
 33 31  1  1  0  0  0
 34 35  1  6  0  0  0
 34 32  1  0  0  0  0
 34 33  1  0  0  0  0
 36 37  1  0  0  0  0
 36 35  1  0  0  0  0
 38 36  1  0  0  0  0
 39 36  1  0  0  0  0
M  END
>  <MODEL>
8

>  <REMARK>
 VINA RESULT:      -8.8      1.859      3.759
  Name = 
  11 active torsions:
  status: ('A' for Active; 'I' for Inactive)
    1  A    between atoms: C_1  and  C_2
    2  A    between atoms: C_1  and  C_28
    3  A    between atoms: C_3  and  C_30
    4  A    between atoms: C_6  and  C_38
    5  A    between atoms: C_9  and  C_18
    6  A    between atoms: C_9  and  C_30
    7  A    between atoms: C_11  and  C_25
    8  A    between atoms: N_13  and  C_26
    9  A    between atoms: C_17  and  C_25
   10  A    between atoms: C_20  and  N_29
   11  A    between atoms: C_20  and  N_37
                            x       y       z     vdW  Elec       q    Type
                         _______ _______ _______ _____ _____    ______ ____

>  <TORSDO>
F 11

$$$$
=
 OpenBabel11042411023D

 39 43  0  0  1  0  0  0  0  0999 V2000
  187.8970  177.3500  143.0500 C   0  0  0  0  0  0  0  0  0  0  0  0
  189.7160  176.7670  144.3220 C   0  0  0  0  0  2  0  0  0  0  0  0
  186.2710  178.2800  145.1070 C   0  0  0  0  0  0  0  0  0  0  0  0
  188.9300  176.7980  142.1580 C   0  0  2  0  0  3  0  0  0  0  0  0
  185.4780  178.7430  146.1690 C   0  0  0  0  0  3  0  0  0  0  0  0
  186.6200  177.8120  142.7330 C   0  0  0  0  0  3  0  0  0  0  0  0
  190.0470  176.4630  142.9730 O   0  0  0  0  0  0  0  0  0  0  0  0
  187.5770  177.7900  145.3850 C   0  0  0  0  0  0  0  0  0  0  0  0
  188.0560  177.7720  146.6990 C   0  0  0  0  0  3  0  0  0  0  0  0
  188.3550  177.3330  144.3190 C   0  0  0  0  0  0  0  0  0  0  0  0
  187.2510  178.2370  147.7420 C   0  0  0  0  0  3  0  0  0  0  0  0
  185.9680  178.7220  147.4780 C   0  0  0  0  0  3  0  0  0  0  0  0
  185.7910  178.2880  143.7710 C   0  0  0  0  0  0  0  0  0  0  0  0
  181.6920  179.3020  143.0110 C   0  0  2  0  0  3  0  0  0  0  0  0
  184.4170  178.8000  143.4460 C   0  0  1  0  0  3  0  0  0  0  0  0
  183.8060  178.0460  142.2630 C   0  0  0  0  0  2  0  0  0  0  0  0
  183.5070  178.7740  144.6850 C   0  0  0  0  0  2  0  0  0  0  0  0
  182.4570  178.6480  141.8520 C   0  0  0  0  0  2  0  0  0  0  0  0
  182.0200  178.6280  144.3430 C   0  0  0  0  0  2  0  0  0  0  0  0
  180.1980  179.2440  142.7290 C   0  0  0  0  0  2  0  0  0  0  0  0
  179.9250  179.2600  141.2520 C   0  0  0  0  0  0  0  0  0  0  0  0
  179.5010  178.1580  140.6290 C   0  0  0  0  0  3  0  0  0  0  0  0
  179.6670  181.5950  140.9390 O   0  0  0  0  0  0  0  0  0  0  0  0
  180.1160  180.5060  140.4860 C   0  0  0  0  0  0  0  0  0  0  0  0
  180.8050  180.4850  139.2310 N   0  0  0  0  0  2  0  0  0  0  0  0
  181.0390  181.6870  138.4450 C   0  0  0  0  0  2  0  0  0  0  0  0
  180.2080  181.6640  137.2540 N   0  0  0  0  0  2  0  0  0  0  0  0
  180.6400  182.7740  136.4230 C   0  0  0  0  0  1  0  0  0  0  0  0
  179.3010  176.9280  141.3230 N   0  0  0  0  0  2  0  0  0  0  0  0
  179.2140  175.6860  140.5830 C   0  0  0  0  0  1  0  0  0  0  0  0
  189.3360  177.8340  141.1200 C   0  0  0  0  0  2  0  0  0  0  0  0
  188.6980  178.6300  138.9640 O   0  0  0  0  0  0  0  0  0  0  0  0
  188.7630  177.4730  139.7620 C   0  0  1  0  0  3  0  0  0  0  0  0
  189.7640  177.7470  138.7120 C   0  0  1  0  0  3  0  0  0  0  0  0
  189.4480  176.9220  137.4730 C   0  0  0  0  0  2  0  0  0  0  0  0
  190.5600  175.9310  137.1330 C   0  0  0  0  0  0  0  0  0  0  0  0
  190.7080  175.8800  135.7470 O   0  0  0  0  0  1  0  0  0  0  0  0
  190.2260  174.6590  137.6010 O   0  0  0  0  0  1  0  0  0  0  0  0
  191.8750  176.3710  137.7510 C   0  0  0  0  0  1  0  0  0  0  0  0
  1 10  1  0  0  0  0
  3  8  1  0  0  0  0
  3  5  1  0  0  0  0
  4 31  1  6  0  0  0
  4  7  1  0  0  0  0
  4  1  1  0  0  0  0
  5 12  2  0  0  0  0
  6  1  2  0  0  0  0
  6 13  1  0  0  0  0
  7  2  1  0  0  0  0
  8  9  1  0  0  0  0
  9 11  2  0  0  0  0
 10  2  1  0  0  0  0
 10  8  2  0  0  0  0
 12 11  1  0  0  0  0
 13  3  2  0  0  0  0
 14 20  1  6  0  0  0
 14 19  1  0  0  0  0
 15 13  1  1  0  0  0
 15 17  1  0  0  0  0
 16 15  1  0  0  0  0
 18 16  1  0  0  0  0
 18 14  1  0  0  0  0
 19 17  1  0  0  0  0
 21 20  1  0  0  0  0
 22 21  2  0  0  0  0
 22 29  1  0  0  0  0
 24 23  2  0  0  0  0
 24 21  1  0  0  0  0
 25 24  1  0  0  0  0
 26 25  1  0  0  0  0
 27 26  1  0  0  0  0
 28 27  1  0  0  0  0
 30 29  1  0  0  0  0
 32 33  1  0  0  0  0
 33 31  1  1  0  0  0
 34 35  1  6  0  0  0
 34 32  1  0  0  0  0
 34 33  1  0  0  0  0
 36 35  1  0  0  0  0
 36 38  1  0  0  0  0
 36 39  1  0  0  0  0
 37 36  1  0  0  0  0
M  END
>  <MODEL>
9

>  <REMARK>
 VINA RESULT:      -8.7      2.302      3.081
  Name = 
  11 active torsions:
  status: ('A' for Active; 'I' for Inactive)
    1  A    between atoms: C_1  and  C_2
    2  A    between atoms: C_1  and  C_28
    3  A    between atoms: C_3  and  C_30
    4  A    between atoms: C_6  and  C_38
    5  A    between atoms: C_9  and  C_18
    6  A    between atoms: C_9  and  C_30
    7  A    between atoms: C_11  and  C_25
    8  A    between atoms: N_13  and  C_26
    9  A    between atoms: C_17  and  C_25
   10  A    between atoms: C_20  and  N_29
   11  A    between atoms: C_20  and  N_37
                            x       y       z     vdW  Elec       q    Type
                         _______ _______ _______ _____ _____    ______ ____

>  <TORSDO>
F 11

$$$$
