=
 OpenBabel11032419153D

 30 34  0  0  1  0  0  0  0  0999 V2000
  184.5100  178.6830  141.9670 C   0  0  0  0  0  0  0  0  0  0  0  0
  188.7770  177.3040  146.0850 C   0  0  0  0  0  0  0  0  0  0  0  0
  189.8350  177.4380  141.2590 C   0  0  0  0  0  3  0  0  0  0  0  0
  185.4950  178.3990  143.8890 C   0  0  0  0  0  0  0  0  0  0  0  0
  190.0360  178.1140  142.5780 C   0  0  0  0  0  2  0  0  0  0  0  0
  187.6680  177.9750  143.3990 C   0  0  0  0  0  0  0  0  0  0  0  0
  187.4020  178.0040  140.9470 C   0  0  0  0  0  3  0  0  0  0  0  0
  188.7110  177.4550  140.5430 C   0  0  0  0  0  3  0  0  0  0  0  0
  183.4860  178.7010  143.0420 C   0  0  0  0  0  3  0  0  0  0  0  0
  185.6700  178.4930  142.5640 C   0  0  0  0  0  0  0  0  0  0  0  0
  189.5420  177.4390  144.9120 C   0  0  0  0  0  3  0  0  0  0  0  0
  184.0890  178.5220  144.2310 C   0  0  0  0  0  3  0  0  0  0  0  0
  186.9840  178.2140  142.1980 C   0  0  0  0  0  0  0  0  0  0  0  0
  189.0370  177.7520  143.6270 C   0  0  0  0  0  0  0  0  0  0  0  0
  186.6830  178.0510  144.4690 C   0  0  0  0  0  0  0  0  0  0  0  0
  187.1130  177.6570  146.0410 S   0  0  0  0  0  0  0  0  0  0  0  0
  184.7510  179.8420  139.9100 O   0  0  0  0  0  1  0  0  0  0  0  0
  184.2560  178.6750  140.4920 C   0  0  2  0  0  3  0  0  0  0  0  0
  180.7280  179.0070  139.8890 C   0  0  0  0  0  3  0  0  0  0  0  0
  182.1470  177.3900  139.8130 C   0  0  0  0  0  0  0  0  0  0  0  0
  182.7560  176.0430  139.6100 C   0  0  0  0  0  1  0  0  0  0  0  0
  179.7880  176.7970  139.2090 C   0  0  0  0  0  1  0  0  0  0  0  0
  181.9110  179.5600  140.2440 N   0  0  0  0  0  0  0  0  0  0  0  0
  180.8550  177.6920  139.6250 N   0  0  0  0  0  0  0  0  0  0  0  0
  182.7950  178.5400  140.2000 C   0  0  0  0  0  0  0  0  0  0  0  0
  189.4370  176.9680  147.3760 C   0  0  0  0  0  2  0  0  0  0  0  0
  190.5340  176.0430  147.1400 N   0  0  0  0  0  2  0  0  0  0  0  0
  191.8440  176.2780  147.6540 C   0  0  0  0  0  0  0  0  0  0  0  0
  192.8560  175.3630  147.4000 O   0  0  0  0  0  0  0  0  0  0  0  0
  192.0900  177.3080  148.3370 O   0  0  0  0  0  1  0  0  0  0  0  0
  1 10  2  0  0  0  0
  1  9  1  0  0  0  0
  2 26  1  0  0  0  0
  3  5  1  0  0  0  0
  4 12  1  0  0  0  0
  4 15  2  0  0  0  0
  5 14  1  0  0  0  0
  6 14  2  0  0  0  0
  6 15  1  0  0  0  0
  7 13  2  0  0  0  0
  8  7  1  0  0  0  0
  8  3  2  0  0  0  0
  9 12  2  0  0  0  0
 10  4  1  0  0  0  0
 11  2  2  0  0  0  0
 13 10  1  0  0  0  0
 13  6  1  0  0  0  0
 14 11  1  0  0  0  0
 15 16  1  0  0  0  0
 16  2  1  0  0  0  0
 18 17  1  1  0  0  0
 18  1  1  0  0  0  0
 19 23  2  0  0  0  0
 20 25  2  0  0  0  0
 21 20  1  0  0  0  0
 22 24  1  0  0  0  0
 24 20  1  0  0  0  0
 24 19  1  0  0  0  0
 25 23  1  0  0  0  0
 25 18  1  0  0  0  0
 27 26  1  0  0  0  0
 27 28  1  0  0  0  0
 28 30  1  0  0  0  0
 29 28  2  0  0  0  0
M  END
>  <MODEL>
1

>  <REMARK>
 VINA RESULT:      -9.4      0.000      0.000
  Name = 
  4 active torsions:
  status: ('A' for Active; 'I' for Inactive)
    1  A    between atoms: C_2  and  C_26
    2  A    between atoms: C_3  and  C_9
    3  A    between atoms: C_9  and  N_11
    4  A    between atoms: C_26  and  C_30
                            x       y       z     vdW  Elec       q    Type
                         _______ _______ _______ _____ _____    ______ ____

>  <TORSDO>
F 4

$$$$
=
 OpenBabel11032419153D

 30 34  0  0  1  0  0  0  0  0999 V2000
  184.9530  178.7920  141.3840 C   0  0  0  0  0  0  0  0  0  0  0  0
  188.7290  177.2260  145.8970 C   0  0  0  0  0  0  0  0  0  0  0  0
  190.2870  177.4070  141.2110 C   0  0  0  0  0  3  0  0  0  0  0  0
  185.7240  178.4500  143.3930 C   0  0  0  0  0  0  0  0  0  0  0  0
  190.3680  178.0550  142.5550 C   0  0  0  0  0  2  0  0  0  0  0  0
  187.9240  177.9710  143.1240 C   0  0  0  0  0  0  0  0  0  0  0  0
  187.9170  178.0470  140.6580 C   0  0  0  0  0  3  0  0  0  0  0  0
  189.2450  177.4660  140.3820 C   0  0  0  0  0  3  0  0  0  0  0  0
  183.8230  178.8230  142.3480 C   0  0  0  0  0  3  0  0  0  0  0  0
  186.0390  178.5600  142.0950 C   0  0  0  0  0  0  0  0  0  0  0  0
  189.6150  177.3580  144.8130 C   0  0  0  0  0  3  0  0  0  0  0  0
  184.2940  178.6080  143.5900 C   0  0  0  0  0  3  0  0  0  0  0  0
  187.3760  178.2490  141.8630 C   0  0  0  0  0  0  0  0  0  0  0  0
  189.2550  177.7060  143.4890 C   0  0  0  0  0  0  0  0  0  0  0  0
  186.8350  178.0580  144.0870 C   0  0  0  0  0  0  0  0  0  0  0  0
  187.0880  177.6280  145.6870 S   0  0  0  0  0  0  0  0  0  0  0  0
  184.3170  180.0280  139.4610 O   0  0  0  0  0  1  0  0  0  0  0  0
  184.8540  178.8150  139.8910 C   0  0  2  0  0  3  0  0  0  0  0  0
  182.4990  176.1750  139.2530 C   0  0  0  0  0  3  0  0  0  0  0  0
  184.1420  177.0540  138.1750 C   0  0  0  0  0  0  0  0  0  0  0  0
  185.1350  177.3630  137.1040 C   0  0  0  0  0  1  0  0  0  0  0  0
  182.9340  175.1990  136.9980 C   0  0  0  0  0  1  0  0  0  0  0  0
  182.9830  177.1380  140.0720 N   0  0  0  0  0  0  0  0  0  0  0  0
  183.1910  176.1110  138.0990 N   0  0  0  0  0  0  0  0  0  0  0  0
  184.0160  177.6800  139.3920 C   0  0  0  0  0  0  0  0  0  0  0  0
  189.2410  176.8510  147.2430 C   0  0  0  0  0  2  0  0  0  0  0  0
  190.4030  175.9890  147.1020 N   0  0  0  0  0  2  0  0  0  0  0  0
  191.6810  176.3520  147.6230 C   0  0  0  0  0  0  0  0  0  0  0  0
  192.7580  175.4920  147.4610 O   0  0  0  0  0  0  0  0  0  0  0  0
  191.8410  177.4470  148.2260 O   0  0  0  0  0  1  0  0  0  0  0  0
  1 10  2  0  0  0  0
  1  9  1  0  0  0  0
  2 26  1  0  0  0  0
  3  5  1  0  0  0  0
  4 12  1  0  0  0  0
  4 15  2  0  0  0  0
  5 14  1  0  0  0  0
  6 14  2  0  0  0  0
  6 15  1  0  0  0  0
  7 13  2  0  0  0  0
  8  7  1  0  0  0  0
  8  3  2  0  0  0  0
  9 12  2  0  0  0  0
 10  4  1  0  0  0  0
 11  2  2  0  0  0  0
 13 10  1  0  0  0  0
 13  6  1  0  0  0  0
 14 11  1  0  0  0  0
 15 16  1  0  0  0  0
 16  2  1  0  0  0  0
 18 17  1  1  0  0  0
 18  1  1  0  0  0  0
 19 23  2  0  0  0  0
 20 25  2  0  0  0  0
 21 20  1  0  0  0  0
 22 24  1  0  0  0  0
 24 20  1  0  0  0  0
 24 19  1  0  0  0  0
 25 18  1  0  0  0  0
 25 23  1  0  0  0  0
 27 26  1  0  0  0  0
 27 28  1  0  0  0  0
 28 30  1  0  0  0  0
 29 28  2  0  0  0  0
M  END
>  <MODEL>
2

>  <REMARK>
 VINA RESULT:      -8.9      1.285      1.582
  Name = 
  4 active torsions:
  status: ('A' for Active; 'I' for Inactive)
    1  A    between atoms: C_2  and  C_26
    2  A    between atoms: C_3  and  C_9
    3  A    between atoms: C_9  and  N_11
    4  A    between atoms: C_26  and  C_30
                            x       y       z     vdW  Elec       q    Type
                         _______ _______ _______ _____ _____    ______ ____

>  <TORSDO>
F 4

$$$$
=
 OpenBabel11032419153D

 30 34  0  0  1  0  0  0  0  0999 V2000
  185.0090  178.9100  140.8640 C   0  0  0  0  0  0  0  0  0  0  0  0
  190.2710  176.7290  143.0180 C   0  0  0  0  0  0  0  0  0  0  0  0
  189.5250  177.2620  138.1610 C   0  0  0  0  0  3  0  0  0  0  0  0
  186.5780  178.3400  142.2640 C   0  0  0  0  0  0  0  0  0  0  0  0
  190.2690  177.7770  139.3510 C   0  0  0  0  0  2  0  0  0  0  0  0
  188.3590  177.7720  140.9800 C   0  0  0  0  0  0  0  0  0  0  0  0
  187.2320  178.0770  138.8060 C   0  0  0  0  0  3  0  0  0  0  0  0
  188.2300  177.4540  137.9140 C   0  0  0  0  0  3  0  0  0  0  0  0
  184.4530  178.9110  142.2410 C   0  0  0  0  0  3  0  0  0  0  0  0
  186.2740  178.5540  140.9760 C   0  0  0  0  0  0  0  0  0  0  0  0
  190.5710  176.9140  141.6560 C   0  0  0  0  0  3  0  0  0  0  0  0
  185.4170  178.5560  143.1080 C   0  0  0  0  0  3  0  0  0  0  0  0
  187.3230  178.1950  140.1340 C   0  0  0  0  0  0  0  0  0  0  0  0
  189.6800  177.4020  140.6710 C   0  0  0  0  0  0  0  0  0  0  0  0
  187.8430  177.8270  142.3410 C   0  0  0  0  0  0  0  0  0  0  0  0
  188.7590  177.2370  143.6140 S   0  0  0  0  0  0  0  0  0  0  0  0
  184.3800  180.3790  139.1090 O   0  0  0  0  0  1  0  0  0  0  0  0
  184.2420  179.0760  139.5900 C   0  0  2  0  0  3  0  0  0  0  0  0
  180.6840  178.9690  140.0920 C   0  0  0  0  0  3  0  0  0  0  0  0
  182.2280  177.5050  139.7670 C   0  0  0  0  0  0  0  0  0  0  0  0
  182.9310  176.2070  139.5460 C   0  0  0  0  0  1  0  0  0  0  0  0
  179.9030  176.6000  140.0110 C   0  0  0  0  0  1  0  0  0  0  0  0
  181.8300  179.6830  139.9880 N   0  0  0  0  0  0  0  0  0  0  0  0
  180.9090  177.6470  139.9610 N   0  0  0  0  0  0  0  0  0  0  0  0
  182.7940  178.7580  139.7900 C   0  0  0  0  0  0  0  0  0  0  0  0
  191.3050  176.2040  143.9490 C   0  0  0  0  0  2  0  0  0  0  0  0
  191.2170  176.9000  145.2220 N   0  0  0  0  0  2  0  0  0  0  0  0
  191.7780  176.3600  146.4180 C   0  0  0  0  0  0  0  0  0  0  0  0
  191.6660  177.0660  147.6090 O   0  0  0  0  0  1  0  0  0  0  0  0
  192.3720  175.2490  146.4040 O   0  0  0  0  0  0  0  0  0  0  0  0
  1 10  2  0  0  0  0
  1  9  1  0  0  0  0
  2 16  1  0  0  0  0
  2 26  1  0  0  0  0
  3  5  1  0  0  0  0
  4 15  2  0  0  0  0
  4 12  1  0  0  0  0
  5 14  1  0  0  0  0
  6 15  1  0  0  0  0
  7 13  2  0  0  0  0
  8  3  2  0  0  0  0
  8  7  1  0  0  0  0
  9 12  2  0  0  0  0
 10  4  1  0  0  0  0
 11  2  2  0  0  0  0
 13 10  1  0  0  0  0
 13  6  1  0  0  0  0
 14  6  2  0  0  0  0
 14 11  1  0  0  0  0
 15 16  1  0  0  0  0
 18 17  1  1  0  0  0
 18 25  1  0  0  0  0
 18  1  1  0  0  0  0
 20 25  2  0  0  0  0
 20 24  1  0  0  0  0
 21 20  1  0  0  0  0
 23 19  2  0  0  0  0
 24 22  1  0  0  0  0
 24 19  1  0  0  0  0
 25 23  1  0  0  0  0
 26 27  1  0  0  0  0
 27 28  1  0  0  0  0
 28 29  1  0  0  0  0
 30 28  2  0  0  0  0
M  END
>  <MODEL>
3

>  <REMARK>
 VINA RESULT:      -8.8      1.404      2.172
  Name = 
  4 active torsions:
  status: ('A' for Active; 'I' for Inactive)
    1  A    between atoms: C_2  and  C_26
    2  A    between atoms: C_3  and  C_9
    3  A    between atoms: C_9  and  N_11
    4  A    between atoms: C_26  and  C_30
                            x       y       z     vdW  Elec       q    Type
                         _______ _______ _______ _____ _____    ______ ____

>  <TORSDO>
F 4

$$$$
=
 OpenBabel11032419153D

 30 34  0  0  1  0  0  0  0  0999 V2000
  185.5710  178.8210  140.7790 C   0  0  0  0  0  0  0  0  0  0  0  0
  190.5570  176.5690  143.4510 C   0  0  0  0  0  0  0  0  0  0  0  0
  190.2570  176.9750  138.5350 C   0  0  0  0  0  3  0  0  0  0  0  0
  186.9940  178.2530  142.3290 C   0  0  0  0  0  0  0  0  0  0  0  0
  190.9080  177.5060  139.7710 C   0  0  0  0  0  2  0  0  0  0  0  0
  188.8630  177.6000  141.2240 C   0  0  0  0  0  0  0  0  0  0  0  0
  187.9410  177.8690  138.9510 C   0  0  0  0  0  3  0  0  0  0  0  0
  188.9950  177.1940  138.1680 C   0  0  0  0  0  3  0  0  0  0  0  0
  184.8950  178.8790  142.1010 C   0  0  0  0  0  3  0  0  0  0  0  0
  186.8100  178.4360  141.0130 C   0  0  0  0  0  0  0  0  0  0  0  0
  190.9810  176.7050  142.1170 C   0  0  0  0  0  3  0  0  0  0  0  0
  185.7690  178.5250  143.0600 C   0  0  0  0  0  3  0  0  0  0  0  0
  187.9180  178.0240  140.2780 C   0  0  0  0  0  0  0  0  0  0  0  0
  190.1940  177.1860  141.0440 C   0  0  0  0  0  0  0  0  0  0  0  0
  188.2310  177.7090  142.5320 C   0  0  0  0  0  0  0  0  0  0  0  0
  189.0150  177.1330  143.8970 S   0  0  0  0  0  0  0  0  0  0  0  0
  184.1470  180.1280  139.4030 O   0  0  0  0  0  1  0  0  0  0  0  0
  184.9230  178.9700  139.4380 C   0  0  2  0  0  3  0  0  0  0  0  0
  182.5570  176.2740  139.2110 C   0  0  0  0  0  3  0  0  0  0  0  0
  184.1880  176.9840  137.9990 C   0  0  0  0  0  0  0  0  0  0  0  0
  185.1680  177.1350  136.8840 C   0  0  0  0  0  1  0  0  0  0  0  0
  182.9620  174.9850  137.1130 C   0  0  0  0  0  1  0  0  0  0  0  0
  183.0520  177.3420  139.8790 N   0  0  0  0  0  0  0  0  0  0  0  0
  183.2350  176.0440  138.0700 N   0  0  0  0  0  0  0  0  0  0  0  0
  184.0780  177.7790  139.1160 C   0  0  0  0  0  0  0  0  0  0  0  0
  191.4900  176.0440  144.4850 C   0  0  0  0  0  2  0  0  0  0  0  0
  191.3390  176.8060  145.7130 N   0  0  0  0  0  2  0  0  0  0  0  0
  191.9120  176.3730  146.9460 C   0  0  0  0  0  0  0  0  0  0  0  0
  191.7370  177.1380  148.0910 O   0  0  0  0  0  1  0  0  0  0  0  0
  192.5740  175.3020  147.0050 O   0  0  0  0  0  0  0  0  0  0  0  0
  1 10  2  0  0  0  0
  1  9  1  0  0  0  0
  2 16  1  0  0  0  0
  2 26  1  0  0  0  0
  3  5  1  0  0  0  0
  4 15  2  0  0  0  0
  4 12  1  0  0  0  0
  5 14  1  0  0  0  0
  6 15  1  0  0  0  0
  7 13  2  0  0  0  0
  8  3  2  0  0  0  0
  8  7  1  0  0  0  0
  9 12  2  0  0  0  0
 10  4  1  0  0  0  0
 11  2  2  0  0  0  0
 13 10  1  0  0  0  0
 13  6  1  0  0  0  0
 14  6  2  0  0  0  0
 14 11  1  0  0  0  0
 15 16  1  0  0  0  0
 18 17  1  1  0  0  0
 18  1  1  0  0  0  0
 19 23  2  0  0  0  0
 20 24  1  0  0  0  0
 20 25  2  0  0  0  0
 21 20  1  0  0  0  0
 22 24  1  0  0  0  0
 24 19  1  0  0  0  0
 25 18  1  0  0  0  0
 25 23  1  0  0  0  0
 26 27  1  0  0  0  0
 27 28  1  0  0  0  0
 28 30  2  0  0  0  0
 28 29  1  0  0  0  0
M  END
>  <MODEL>
4

>  <REMARK>
 VINA RESULT:      -8.6      1.805      2.596
  Name = 
  4 active torsions:
  status: ('A' for Active; 'I' for Inactive)
    1  A    between atoms: C_2  and  C_26
    2  A    between atoms: C_3  and  C_9
    3  A    between atoms: C_9  and  N_11
    4  A    between atoms: C_26  and  C_30
                            x       y       z     vdW  Elec       q    Type
                         _______ _______ _______ _____ _____    ______ ____

>  <TORSDO>
F 4

$$$$
=
 OpenBabel11032419153D

 30 34  0  0  1  0  0  0  0  0999 V2000
  185.1300  178.5850  141.1430 C   0  0  0  0  0  0  0  0  0  0  0  0
  190.1370  177.6630  144.4830 C   0  0  0  0  0  0  0  0  0  0  0  0
  185.7380  178.3700  146.6200 C   0  0  0  0  0  3  0  0  0  0  0  0
  187.1900  178.1120  141.6700 C   0  0  0  0  0  0  0  0  0  0  0  0
  186.8150  177.3740  146.3330 C   0  0  0  0  0  2  0  0  0  0  0  0
  187.2250  177.9930  143.9350 C   0  0  0  0  0  0  0  0  0  0  0  0
  184.8620  178.6210  144.2730 C   0  0  0  0  0  2  0  0  0  0  0  0
  184.8670  178.8480  145.7310 C   0  0  0  0  0  3  0  0  0  0  0  0
  185.9620  178.6100  139.9130 C   0  0  0  0  0  3  0  0  0  0  0  0
  185.9460  178.2860  142.1360 C   0  0  0  0  0  0  0  0  0  0  0  0
  189.1240  177.5920  145.4570 C   0  0  0  0  0  3  0  0  0  0  0  0
  187.2360  178.3220  140.2340 C   0  0  0  0  0  3  0  0  0  0  0  0
  185.9070  178.2520  143.5260 C   0  0  0  0  0  0  0  0  0  0  0  0
  187.7380  177.7510  145.2210 C   0  0  0  0  0  0  0  0  0  0  0  0
  188.0410  177.9550  142.7290 C   0  0  2  0  0  3  0  0  0  0  0  0
  189.7080  177.8250  142.8440 S   0  0  0  0  0  0  0  0  0  0  0  0
  183.0200  178.1800  142.1510 O   0  0  0  0  0  1  0  0  0  0  0  0
  183.7010  179.0140  141.2640 C   0  0  2  0  0  3  0  0  0  0  0  0
  182.1760  179.6410  138.0700 C   0  0  0  0  0  3  0  0  0  0  0  0
  182.6030  177.8870  139.2440 C   0  0  0  0  0  0  0  0  0  0  0  0
  182.7250  176.4650  139.6800 C   0  0  0  0  0  1  0  0  0  0  0  0
  181.4990  177.4750  137.0310 C   0  0  0  0  0  1  0  0  0  0  0  0
  182.7640  180.1060  139.1970 N   0  0  0  0  0  0  0  0  0  0  0  0
  182.0710  178.2980  138.0840 N   0  0  0  0  0  0  0  0  0  0  0  0
  183.0230  179.0020  139.9300 C   0  0  0  0  0  0  0  0  0  0  0  0
  191.5630  177.4790  144.8690 C   0  0  0  0  0  2  0  0  0  0  0  0
  191.6490  177.1510  146.2820 N   0  0  0  0  0  2  0  0  0  0  0  0
  192.0970  175.8730  146.7350 C   0  0  0  0  0  0  0  0  0  0  0  0
  192.1610  175.6110  148.0960 O   0  0  0  0  0  1  0  0  0  0  0  0
  192.4330  174.9820  145.9100 O   0  0  0  0  0  0  0  0  0  0  0  0
  1 18  1  0  0  0  0
  1 10  1  0  0  0  0
  2 26  1  0  0  0  0
  2 11  2  0  0  0  0
  4 10  1  0  0  0  0
  5  3  1  0  0  0  0
  6 14  2  0  0  0  0
  7  8  1  0  0  0  0
  8  3  2  0  0  0  0
  9 12  1  0  0  0  0
  9  1  2  0  0  0  0
 10 13  2  0  0  0  0
 12  4  2  0  0  0  0
 13  6  1  0  0  0  0
 13  7  1  0  0  0  0
 14 11  1  0  0  0  0
 14  5  1  0  0  0  0
 15  4  1  1  0  0  0
 15 16  1  0  0  0  0
 15  6  1  0  0  0  0
 16  2  1  0  0  0  0
 18 17  1  1  0  0  0
 19 24  1  0  0  0  0
 19 23  2  0  0  0  0
 20 21  1  0  0  0  0
 20 25  2  0  0  0  0
 22 24  1  0  0  0  0
 23 25  1  0  0  0  0
 24 20  1  0  0  0  0
 25 18  1  0  0  0  0
 26 27  1  0  0  0  0
 27 28  1  0  0  0  0
 28 29  1  0  0  0  0
 30 28  2  0  0  0  0
M  END
>  <MODEL>
5

>  <REMARK>
 VINA RESULT:      -8.4      1.686      3.054
  Name = 
  4 active torsions:
  status: ('A' for Active; 'I' for Inactive)
    1  A    between atoms: C_2  and  C_26
    2  A    between atoms: C_3  and  C_9
    3  A    between atoms: C_9  and  N_11
    4  A    between atoms: C_26  and  C_30
                            x       y       z     vdW  Elec       q    Type
                         _______ _______ _______ _____ _____    ______ ____

>  <TORSDO>
F 4

$$$$
=
 OpenBabel11032419153D

 30 34  0  0  1  0  0  0  0  0999 V2000
  189.9900  177.5870  139.4270 C   0  0  0  0  0  0  0  0  0  0  0  0
  189.4750  177.1960  145.4820 C   0  0  0  0  0  0  0  0  0  0  0  0
  185.6850  178.6990  142.6900 C   0  0  0  0  0  3  0  0  0  0  0  0
  190.4590  177.1250  141.5040 C   0  0  0  0  0  0  0  0  0  0  0  0
  186.2130  177.5940  143.5470 C   0  0  0  0  0  2  0  0  0  0  0  0
  188.5640  177.5700  142.6670 C   0  0  0  0  0  0  0  0  0  0  0  0
  187.2630  178.4160  140.7490 C   0  0  0  0  0  3  0  0  0  0  0  0
  186.1090  178.9970  141.4620 C   0  0  0  0  0  3  0  0  0  0  0  0
  191.4330  177.2510  139.5340 C   0  0  0  0  0  3  0  0  0  0  0  0
  189.4960  177.4910  140.6470 C   0  0  0  0  0  0  0  0  0  0  0  0
  188.1440  177.4360  145.0940 C   0  0  0  0  0  3  0  0  0  0  0  0
  191.7280  176.9690  140.8160 C   0  0  0  0  0  3  0  0  0  0  0  0
  188.3120  177.8050  141.3070 C   0  0  0  0  0  0  0  0  0  0  0  0
  187.6900  177.6220  143.7670 C   0  0  0  0  0  0  0  0  0  0  0  0
  189.9630  177.1800  142.7770 C   0  0  0  0  0  0  0  0  0  0  0  0
  190.6650  176.9740  144.2850 S   0  0  0  0  0  0  0  0  0  0  0  0
  188.7740  179.3950  138.4880 O   0  0  0  0  0  1  0  0  0  0  0  0
  189.2850  178.1250  138.2220 C   0  0  2  0  0  3  0  0  0  0  0  0
  186.2440  176.4600  137.2730 C   0  0  0  0  0  3  0  0  0  0  0  0
  188.3220  175.9090  137.3750 C   0  0  0  0  0  0  0  0  0  0  0  0
  189.5930  175.1340  137.2660 C   0  0  0  0  0  1  0  0  0  0  0  0
  186.7600  174.1250  136.5620 C   0  0  0  0  0  1  0  0  0  0  0  0
  186.8790  177.5660  137.7270 N   0  0  0  0  0  0  0  0  0  0  0  0
  187.1040  175.4470  137.0560 N   0  0  0  0  0  0  0  0  0  0  0  0
  188.1810  177.2110  137.7940 C   0  0  0  0  0  0  0  0  0  0  0  0
  189.8180  177.0200  146.9190 C   0  0  0  0  0  2  0  0  0  0  0  0
  190.8890  176.0480  147.0530 N   0  0  0  0  0  2  0  0  0  0  0  0
  192.0490  176.3060  147.8440 C   0  0  0  0  0  0  0  0  0  0  0  0
  193.0440  175.3420  147.9380 O   0  0  0  0  0  0  0  0  0  0  0  0
  192.1780  177.3990  148.4560 O   0  0  0  0  0  1  0  0  0  0  0  0
  1  9  1  0  0  0  0
  1 10  2  0  0  0  0
  2 26  1  0  0  0  0
  3  5  1  0  0  0  0
  4 15  2  0  0  0  0
  5 14  1  0  0  0  0
  6 15  1  0  0  0  0
  6 14  2  0  0  0  0
  7 13  2  0  0  0  0
  7  8  1  0  0  0  0
  8  3  2  0  0  0  0
  9 12  2  0  0  0  0
 10 13  1  0  0  0  0
 10  4  1  0  0  0  0
 11  2  2  0  0  0  0
 12  4  1  0  0  0  0
 13  6  1  0  0  0  0
 14 11  1  0  0  0  0
 15 16  1  0  0  0  0
 16  2  1  0  0  0  0
 18 17  1  1  0  0  0
 18  1  1  0  0  0  0
 19 23  2  0  0  0  0
 20 25  2  0  0  0  0
 21 20  1  0  0  0  0
 22 24  1  0  0  0  0
 23 25  1  0  0  0  0
 24 19  1  0  0  0  0
 24 20  1  0  0  0  0
 25 18  1  0  0  0  0
 26 27  1  0  0  0  0
 27 28  1  0  0  0  0
 28 29  2  0  0  0  0
 28 30  1  0  0  0  0
M  END
>  <MODEL>
6

>  <REMARK>
 VINA RESULT:      -8.3      2.971      4.843
  Name = 
  4 active torsions:
  status: ('A' for Active; 'I' for Inactive)
    1  A    between atoms: C_2  and  C_26
    2  A    between atoms: C_3  and  C_9
    3  A    between atoms: C_9  and  N_11
    4  A    between atoms: C_26  and  C_30
                            x       y       z     vdW  Elec       q    Type
                         _______ _______ _______ _____ _____    ______ ____

>  <TORSDO>
F 4

$$$$
=
 OpenBabel11032419153D

 30 34  0  0  1  0  0  0  0  0999 V2000
  186.4460  178.4410  140.2650 C   0  0  0  0  0  0  0  0  0  0  0  0
  188.5540  177.6780  145.9260 C   0  0  0  0  0  0  0  0  0  0  0  0
  183.8590  178.9840  145.1040 C   0  0  0  0  0  3  0  0  0  0  0  0
  187.7730  177.9110  141.9100 C   0  0  0  0  0  0  0  0  0  0  0  0
  184.7630  177.8870  145.5660 C   0  0  0  0  0  2  0  0  0  0  0  0
  186.5210  178.1210  143.7890 C   0  0  0  0  0  0  0  0  0  0  0  0
  184.4860  178.9500  142.6670 C   0  0  0  0  0  3  0  0  0  0  0  0
  183.7080  179.3860  143.8430 C   0  0  0  0  0  3  0  0  0  0  0  0
  187.8160  178.2310  139.7320 C   0  0  0  0  0  3  0  0  0  0  0  0
  186.5180  178.2350  141.5650 C   0  0  0  0  0  0  0  0  0  0  0  0
  187.1720  177.8180  146.1490 C   0  0  0  0  0  3  0  0  0  0  0  0
  188.6400  177.9070  140.7450 C   0  0  0  0  0  3  0  0  0  0  0  0
  185.7070  178.4060  142.6830 C   0  0  0  0  0  0  0  0  0  0  0  0
  186.1910  178.0340  145.1530 C   0  0  0  0  0  0  0  0  0  0  0  0
  187.8560  177.8530  143.2730 C   0  0  0  0  0  0  0  0  0  0  0  0
  189.1390  177.6290  144.3290 S   0  0  0  0  0  0  0  0  0  0  0  0
  184.5840  179.9130  140.2910 O   0  0  0  0  0  1  0  0  0  0  0  0
  185.2680  178.9790  139.5130 C   0  0  2  0  0  3  0  0  0  0  0  0
  182.6970  176.5050  139.0790 C   0  0  0  0  0  3  0  0  0  0  0  0
  184.4370  177.1150  137.9670 C   0  0  0  0  0  0  0  0  0  0  0  0
  185.4780  177.2190  136.9030 C   0  0  0  0  0  1  0  0  0  0  0  0
  183.0910  175.2600  136.9520 C   0  0  0  0  0  1  0  0  0  0  0  0
  183.2490  177.5020  139.8080 N   0  0  0  0  0  0  0  0  0  0  0  0
  183.4060  176.2570  137.9600 N   0  0  0  0  0  0  0  0  0  0  0  0
  184.3420  177.8760  139.1080 C   0  0  0  0  0  0  0  0  0  0  0  0
  189.4790  177.4560  147.0700 C   0  0  0  0  0  2  0  0  0  0  0  0
  190.4130  176.3900  146.7460 N   0  0  0  0  0  2  0  0  0  0  0  0
  191.6940  176.2930  147.3670 C   0  0  0  0  0  0  0  0  0  0  0  0
  192.5470  175.2550  147.0220 O   0  0  0  0  0  0  0  0  0  0  0  0
  192.0570  177.1410  148.2250 O   0  0  0  0  0  1  0  0  0  0  0  0
  1 10  2  0  0  0  0
  2 11  2  0  0  0  0
  2 26  1  0  0  0  0
  3  5  1  0  0  0  0
  4 15  2  0  0  0  0
  6 14  2  0  0  0  0
  7 13  2  0  0  0  0
  7  8  1  0  0  0  0
  8  3  2  0  0  0  0
  9  1  1  0  0  0  0
  9 12  2  0  0  0  0
 10  4  1  0  0  0  0
 10 13  1  0  0  0  0
 12  4  1  0  0  0  0
 13  6  1  0  0  0  0
 14  5  1  0  0  0  0
 14 11  1  0  0  0  0
 15  6  1  0  0  0  0
 15 16  1  0  0  0  0
 16  2  1  0  0  0  0
 18  1  1  0  0  0  0
 18 17  1  1  0  0  0
 19 23  2  0  0  0  0
 20 25  2  0  0  0  0
 21 20  1  0  0  0  0
 22 24  1  0  0  0  0
 24 20  1  0  0  0  0
 24 19  1  0  0  0  0
 25 18  1  0  0  0  0
 25 23  1  0  0  0  0
 27 26  1  0  0  0  0
 27 28  1  0  0  0  0
 28 30  1  0  0  0  0
 29 28  2  0  0  0  0
M  END
>  <MODEL>
7

>  <REMARK>
 VINA RESULT:      -8.2      1.588      3.331
  Name = 
  4 active torsions:
  status: ('A' for Active; 'I' for Inactive)
    1  A    between atoms: C_2  and  C_26
    2  A    between atoms: C_3  and  C_9
    3  A    between atoms: C_9  and  N_11
    4  A    between atoms: C_26  and  C_30
                            x       y       z     vdW  Elec       q    Type
                         _______ _______ _______ _____ _____    ______ ____

>  <TORSDO>
F 4

$$$$
=
 OpenBabel11032419153D

 30 34  0  0  1  0  0  0  0  0999 V2000
  186.7830  178.4560  139.1110 C   0  0  0  0  0  0  0  0  0  0  0  0
  186.7930  177.8450  145.1700 C   0  0  0  0  0  0  0  0  0  0  0  0
  190.8310  176.8580  142.4980 C   0  0  0  0  0  3  0  0  0  0  0  0
  186.1350  178.5640  141.1890 C   0  0  0  0  0  0  0  0  0  0  0  0
  190.2100  177.8010  143.4770 C   0  0  0  0  0  2  0  0  0  0  0  0
  187.9390  177.9490  142.4190 C   0  0  0  0  0  0  0  0  0  0  0  0
  189.4110  177.4430  140.5040 C   0  0  0  0  0  3  0  0  0  0  0  0
  190.5160  176.7630  141.2060 C   0  0  0  0  0  3  0  0  0  0  0  0
  185.3280  178.7560  139.1500 C   0  0  0  0  0  3  0  0  0  0  0  0
  187.1730  178.3530  140.3670 C   0  0  0  0  0  0  0  0  0  0  0  0
  188.1560  177.6840  144.8610 C   0  0  0  0  0  3  0  0  0  0  0  0
  184.9230  178.8200  140.4310 C   0  0  0  0  0  3  0  0  0  0  0  0
  188.3060  177.9450  141.0640 C   0  0  0  0  0  0  0  0  0  0  0  0
  188.7210  177.7240  143.5650 C   0  0  0  0  0  0  0  0  0  0  0  0
  186.5270  178.3030  142.4730 C   0  0  0  0  0  0  0  0  0  0  0  0
  185.7000  178.2510  143.9300 S   0  0  0  0  0  0  0  0  0  0  0  0
  187.2760  179.0010  136.8550 O   0  0  0  0  0  1  0  0  0  0  0  0
  187.5950  178.1310  137.8980 C   0  0  2  0  0  3  0  0  0  0  0  0
  186.4220  174.9030  136.8360 C   0  0  0  0  0  3  0  0  0  0  0  0
  188.3500  175.7780  137.2250 C   0  0  0  0  0  0  0  0  0  0  0  0
  189.8260  175.9680  137.3470 C   0  0  0  0  0  1  0  0  0  0  0  0
  188.3720  173.3890  136.4690 C   0  0  0  0  0  1  0  0  0  0  0  0
  186.1610  176.1750  137.2180 N   0  0  0  0  0  0  0  0  0  0  0  0
  187.7450  174.6480  136.8350 N   0  0  0  0  0  0  0  0  0  0  0  0
  187.3740  176.7150  137.4660 C   0  0  0  0  0  0  0  0  0  0  0  0
  186.3300  177.7770  146.5830 C   0  0  0  0  0  2  0  0  0  0  0  0
  187.3090  178.4120  147.4500 N   0  0  0  0  0  2  0  0  0  0  0  0
  188.2740  177.6570  148.1800 C   0  0  0  0  0  0  0  0  0  0  0  0
  189.1870  178.3130  148.9940 O   0  0  0  0  0  1  0  0  0  0  0  0
  188.3060  176.4000  148.0920 O   0  0  0  0  0  0  0  0  0  0  0  0
  1  9  1  0  0  0  0
  1 10  2  0  0  0  0
  2 26  1  0  0  0  0
  3  5  1  0  0  0  0
  4 15  2  0  0  0  0
  5 14  1  0  0  0  0
  6 15  1  0  0  0  0
  6 14  2  0  0  0  0
  7 13  2  0  0  0  0
  7  8  1  0  0  0  0
  8  3  2  0  0  0  0
  9 12  2  0  0  0  0
 10 13  1  0  0  0  0
 10  4  1  0  0  0  0
 11  2  2  0  0  0  0
 12  4  1  0  0  0  0
 13  6  1  0  0  0  0
 14 11  1  0  0  0  0
 15 16  1  0  0  0  0
 16  2  1  0  0  0  0
 18 17  1  6  0  0  0
 18  1  1  0  0  0  0
 19 23  2  0  0  0  0
 20 21  1  0  0  0  0
 20 25  2  0  0  0  0
 22 24  1  0  0  0  0
 23 25  1  0  0  0  0
 24 19  1  0  0  0  0
 24 20  1  0  0  0  0
 25 18  1  0  0  0  0
 26 27  1  0  0  0  0
 27 28  1  0  0  0  0
 28 29  1  0  0  0  0
 30 28  2  0  0  0  0
M  END
>  <MODEL>
8

>  <REMARK>
 VINA RESULT:      -8.2      3.136      4.481
  Name = 
  4 active torsions:
  status: ('A' for Active; 'I' for Inactive)
    1  A    between atoms: C_2  and  C_26
    2  A    between atoms: C_3  and  C_9
    3  A    between atoms: C_9  and  N_11
    4  A    between atoms: C_26  and  C_30
                            x       y       z     vdW  Elec       q    Type
                         _______ _______ _______ _____ _____    ______ ____

>  <TORSDO>
F 4

$$$$
=
 OpenBabel11032419153D

 30 34  0  0  1  0  0  0  0  0999 V2000
  186.8960  177.9430  145.0000 C   0  0  0  0  0  0  0  0  0  0  0  0
  181.3630  179.3070  142.8550 C   0  0  0  0  0  0  0  0  0  0  0  0
  185.1910  178.6400  139.8020 C   0  0  0  0  0  3  0  0  0  0  0  0
  184.7490  178.3120  144.9370 C   0  0  0  0  0  0  0  0  0  0  0  0
  183.8960  178.0720  140.2860 C   0  0  0  0  0  2  0  0  0  0  0  0
  184.2300  178.4950  142.7370 C   0  0  0  0  0  0  0  0  0  0  0  0
  186.5380  178.2670  141.8950 C   0  0  0  0  0  3  0  0  0  0  0  0
  186.3340  178.6590  140.4870 C   0  0  0  0  0  3  0  0  0  0  0  0
  186.3940  178.1130  146.3870 C   0  0  0  0  0  3  0  0  0  0  0  0
  185.8500  178.0830  144.2080 C   0  0  0  0  0  0  0  0  0  0  0  0
  182.0610  178.9970  141.6740 C   0  0  0  0  0  3  0  0  0  0  0  0
  185.0690  178.3460  146.3530 C   0  0  0  0  0  3  0  0  0  0  0  0
  185.5990  178.2090  142.8450 C   0  0  0  0  0  0  0  0  0  0  0  0
  183.4220  178.6150  141.5940 C   0  0  0  0  0  0  0  0  0  0  0  0
  183.7130  178.6050  144.0950 C   0  0  0  0  0  0  0  0  0  0  0  0
  182.1340  179.1000  144.3580 S   0  0  0  0  0  0  0  0  0  0  0  0
  188.4600  176.8990  143.5520 O   0  0  0  0  0  1  0  0  0  0  0  0
  188.3270  177.8390  144.5740 C   0  0  2  0  0  3  0  0  0  0  0  0
  189.9120  177.1140  147.7180 C   0  0  0  0  0  3  0  0  0  0  0  0
  190.4660  176.9280  145.6460 C   0  0  0  0  0  0  0  0  0  0  0  0
  191.2270  176.6080  144.4020 C   0  0  0  0  0  1  0  0  0  0  0  0
  192.1790  176.1550  147.3050 C   0  0  0  0  0  1  0  0  0  0  0  0
  188.8470  177.5820  147.0250 N   0  0  0  0  0  0  0  0  0  0  0  0
  190.9020  176.7150  146.8960 N   0  0  0  0  0  0  0  0  0  0  0  0
  189.2040  177.4670  145.7270 C   0  0  0  0  0  0  0  0  0  0  0  0
  179.9280  179.6980  142.7970 C   0  0  0  0  0  2  0  0  0  0  0  0
  179.7820  180.9080  142.0050 N   0  0  0  0  0  2  0  0  0  0  0  0
  179.2720  180.8820  140.6720 C   0  0  0  0  0  0  0  0  0  0  0  0
  179.1530  182.0660  139.9590 O   0  0  0  0  0  0  0  0  0  0  0  0
  178.9310  179.7930  140.1370 O   0  0  0  0  0  1  0  0  0  0  0  0
  1  9  1  0  0  0  0
  2 16  1  0  0  0  0
  3  5  1  0  0  0  0
  3  8  2  0  0  0  0
  4 12  1  0  0  0  0
  5 14  1  0  0  0  0
  6 13  1  0  0  0  0
  6 15  1  0  0  0  0
  7 13  2  0  0  0  0
  8  7  1  0  0  0  0
 10  4  1  0  0  0  0
 10  1  2  0  0  0  0
 11  2  2  0  0  0  0
 12  9  2  0  0  0  0
 13 10  1  0  0  0  0
 14 11  1  0  0  0  0
 14  6  2  0  0  0  0
 15 16  1  0  0  0  0
 15  4  2  0  0  0  0
 18 17  1  6  0  0  0
 18  1  1  0  0  0  0
 18 25  1  0  0  0  0
 20 25  2  0  0  0  0
 20 24  1  0  0  0  0
 21 20  1  0  0  0  0
 23 19  2  0  0  0  0
 24 22  1  0  0  0  0
 24 19  1  0  0  0  0
 25 23  1  0  0  0  0
 26  2  1  0  0  0  0
 27 26  1  0  0  0  0
 28 27  1  0  0  0  0
 29 28  2  0  0  0  0
 30 28  1  0  0  0  0
M  END
>  <MODEL>
9

>  <REMARK>
 VINA RESULT:      -7.9      2.779      8.870
  Name = 
  4 active torsions:
  status: ('A' for Active; 'I' for Inactive)
    1  A    between atoms: C_2  and  C_26
    2  A    between atoms: C_3  and  C_9
    3  A    between atoms: C_9  and  N_11
    4  A    between atoms: C_26  and  C_30
                            x       y       z     vdW  Elec       q    Type
                         _______ _______ _______ _____ _____    ______ ____

>  <TORSDO>
F 4

$$$$
