=
 OpenBabel11042412203D

 44 48  0  0  1  0  0  0  0  0999 V2000
  190.4830  176.6800  137.7970 C   0  0  2  0  0  3  0  0  0  0  0  0
  191.5300  175.7460  137.3990 N   0  0  0  0  0  2  0  0  0  0  0  0
  193.2770  177.0790  138.1790 O   0  0  0  0  0  0  0  0  0  0  0  0
  192.9200  176.0280  137.5780 C   0  0  0  0  0  0  0  0  0  0  0  0
  197.7300  172.7760  137.3780 C   0  0  0  0  0  1  0  0  0  0  0  0
  196.4360  173.3100  136.9840 N   0  0  0  0  0  0  0  0  0  0  0  0
  193.9260  175.0790  137.0660 C   0  0  0  0  0  0  0  0  0  0  0  0
  196.2960  173.6680  135.6110 C   0  0  0  0  0  3  0  0  0  0  0  0
  194.1610  173.8890  137.8250 N   0  0  0  0  0  2  0  0  0  0  0  0
  195.4360  174.5280  135.1630 N   0  0  0  0  0  0  0  0  0  0  0  0
  194.4770  175.3230  135.8720 C   0  0  0  0  0  3  0  0  0  0  0  0
  195.3050  173.0400  137.8130 C   0  0  0  0  0  0  0  0  0  0  0  0
  195.3270  172.0520  138.5950 O   0  0  0  0  0  0  0  0  0  0  0  0
  190.1280  176.4860  139.2670 C   0  0  0  0  0  2  0  0  0  0  0  0
  190.4040  177.6900  140.0400 N   0  0  0  0  0  2  0  0  0  0  0  0
  189.1190  178.2080  140.4790 C   0  0  0  0  0  2  0  0  0  0  0  0
  189.2990  176.2760  143.2440 C   0  0  0  0  0  2  0  0  0  0  0  0
  187.9680  176.4330  143.8610 C   0  0  2  0  0  3  0  0  0  0  0  0
  188.2000  176.9140  142.3860 C   0  0  1  0  0  0  0  0  0  0  0  0
  189.0340  178.1420  141.9910 C   0  0  2  0  0  3  0  0  0  0  0  0
  187.6410  178.3520  142.4150 C   0  0  0  0  0  2  0  0  0  0  0  0
  186.6600  178.1020  146.9260 C   0  0  0  0  0  0  0  0  0  0  0  0
  189.1050  177.0040  146.0290 C   0  0  0  0  0  3  0  0  0  0  0  0
  189.0300  177.4520  147.2930 C   0  0  0  0  0  3  0  0  0  0  0  0
  187.9250  178.3950  147.6990 C   0  0  2  0  0  3  0  0  0  0  0  0
  185.4440  178.2880  147.5020 F   0  0  0  0  0  0  0  0  0  0  0  0
  187.6960  178.2950  149.0590 F   0  0  0  0  0  0  0  0  0  0  0  0
  186.7370  177.6450  145.6660 C   0  0  0  0  0  3  0  0  0  0  0  0
  188.0820  177.4510  145.0080 C   0  0  2  0  0  3  0  0  0  0  0  0
  189.2470  176.5030  136.9260 C   0  0  0  0  0  2  0  0  0  0  0  0
  188.4530  177.7220  136.9290 N   0  0  0  0  0  2  0  0  0  0  0  0
  187.0570  177.3240  136.9790 C   0  0  0  0  0  2  0  0  0  0  0  0
  185.1100  178.1680  138.1150 N   0  0  0  0  0  0  0  0  0  0  0  0
  186.3820  178.0160  138.1140 C   0  0  0  0  0  3  0  0  0  0  0  0
  184.3380  178.9530  139.4300 S   0  0  0  0  0  0  0  0  0  0  0  0
  185.3580  179.7210  140.2260 O   0  0  0  0  0  0  0  0  0  0  0  0
  183.3210  179.9180  138.8900 O   0  0  0  0  0  0  0  0  0  0  0  0
  181.9860  177.8930  140.3680 C   0  0  0  0  0  2  0  0  0  0  0  0
  183.2100  178.9660  142.6330 C   0  0  2  0  0  3  0  0  0  0  0  0
  183.5070  177.7480  140.4610 C   0  0  2  0  0  3  0  0  0  0  0  0
  183.9670  177.8500  141.9170 C   0  0  0  0  0  2  0  0  0  0  0  0
  183.5730  178.9610  144.1020 C   0  0  0  0  0  1  0  0  0  0  0  0
  181.8300  178.7510  142.4850 O   0  0  0  0  0  0  0  0  0  0  0  0
  181.5460  179.0290  141.1810 N   0  0  0  0  0  2  0  0  0  0  0  0
  1 30  1  6  0  0  0
  1 14  1  0  0  0  0
  2  4  1  0  0  0  0
  2  1  1  0  0  0  0
  4  3  2  0  0  0  0
  6  5  1  0  0  0  0
  6 12  1  0  0  0  0
  7  4  1  0  0  0  0
  7  9  1  0  0  0  0
  8  6  1  0  0  0  0
 10  8  2  0  0  0  0
 10 11  1  0  0  0  0
 11  7  2  0  0  0  0
 12  9  1  0  0  0  0
 12 13  2  0  0  0  0
 14 15  1  0  0  0  0
 15 16  1  0  0  0  0
 18 17  1  1  0  0  0
 18 29  1  0  0  0  0
 19 21  1  6  0  0  0
 19 17  1  0  0  0  0
 19 18  1  0  0  0  0
 20 16  1  6  0  0  0
 20 19  1  0  0  0  0
 20 21  1  0  0  0  0
 22 26  1  0  0  0  0
 22 25  1  0  0  0  0
 23 24  2  0  0  0  0
 24 25  1  0  0  0  0
 25 27  1  1  0  0  0
 28 22  2  0  0  0  0
 29 28  1  1  0  0  0
 29 23  1  0  0  0  0
 30 31  1  0  0  0  0
 31 32  1  0  0  0  0
 32 34  1  0  0  0  0
 33 35  1  0  0  0  0
 34 33  2  0  0  0  0
 35 36  2  0  0  0  0
 37 35  2  0  0  0  0
 38 40  1  0  0  0  0
 38 44  1  0  0  0  0
 39 42  1  1  0  0  0
 40 35  1  6  0  0  0
 40 41  1  0  0  0  0
 41 39  1  0  0  0  0
 43 39  1  0  0  0  0
 44 43  1  0  0  0  0
M  END
>  <MODEL>
1

>  <REMARK>
 VINA RESULT:      -8.7      0.000      0.000
  Name = 
  13 active torsions:
  status: ('A' for Active; 'I' for Inactive)
    1  A    between atoms: C_1  and  N_17
    2  A    between atoms: C_1  and  C_34
    3  A    between atoms: N_2  and  C_29
    4  A    between atoms: C_8  and  C_33
    5  A    between atoms: C_11  and  S_21
    6  A    between atoms: C_14  and  C_43
    7  A    between atoms: N_17  and  C_42
    8  A    between atoms: N_18  and  C_22
    9  A    between atoms: N_18  and  C_25
   10  A    between atoms: S_21  and  N_26
   11  A    between atoms: C_22  and  C_23
   12  A    between atoms: C_25  and  C_29
   13  A    between atoms: C_29  and  C_42
                            x       y       z     vdW  Elec       q    Type
                         _______ _______ _______ _____ _____    ______ ____

>  <TORSDO>
F 13

$$$$
=
 OpenBabel11042412203D

 44 48  0  0  1  0  0  0  0  0999 V2000
  189.5260  176.9800  137.6190 C   0  0  2  0  0  3  0  0  0  0  0  0
  190.2860  175.7650  137.3500 N   0  0  0  0  0  2  0  0  0  0  0  0
  192.3220  176.6580  138.0500 O   0  0  0  0  0  0  0  0  0  0  0  0
  191.7000  175.6840  137.5440 C   0  0  0  0  0  0  0  0  0  0  0  0
  195.9390  172.2510  135.5450 C   0  0  0  0  0  1  0  0  0  0  0  0
  194.6800  172.6310  136.1650 N   0  0  0  0  0  0  0  0  0  0  0  0
  192.4170  174.4530  137.1620 C   0  0  0  0  0  0  0  0  0  0  0  0
  193.5260  171.9130  135.7340 C   0  0  0  0  0  3  0  0  0  0  0  0
  193.6450  174.1650  137.8370 N   0  0  0  0  0  2  0  0  0  0  0  0
  192.3120  172.3610  135.8140 N   0  0  0  0  0  0  0  0  0  0  0  0
  191.8290  173.6210  136.2950 C   0  0  0  0  0  3  0  0  0  0  0  0
  194.7150  173.3240  137.4130 C   0  0  0  0  0  0  0  0  0  0  0  0
  195.7350  173.2370  138.1460 O   0  0  0  0  0  0  0  0  0  0  0  0
  188.8680  176.9020  138.9920 C   0  0  0  0  0  2  0  0  0  0  0  0
  189.2260  178.0490  139.8150 N   0  0  0  0  0  2  0  0  0  0  0  0
  190.3230  177.6260  140.6690 C   0  0  0  0  0  2  0  0  0  0  0  0
  189.1940  175.8930  143.3380 C   0  0  0  0  0  2  0  0  0  0  0  0
  187.9010  176.5350  143.6440 C   0  0  2  0  0  3  0  0  0  0  0  0
  188.6080  176.8300  142.2760 C   0  0  1  0  0  0  0  0  0  0  0  0
  189.8860  177.6700  142.1190 C   0  0  2  0  0  3  0  0  0  0  0  0
  188.5980  178.3730  142.2240 C   0  0  0  0  0  2  0  0  0  0  0  0
  186.7980  178.1390  146.8220 C   0  0  0  0  0  0  0  0  0  0  0  0
  189.1540  176.9820  145.7770 C   0  0  0  0  0  3  0  0  0  0  0  0
  189.1540  177.3850  147.0570 C   0  0  0  0  0  3  0  0  0  0  0  0
  188.1070  178.3540  147.5460 C   0  0  2  0  0  3  0  0  0  0  0  0
  185.6170  178.3500  147.4600 F   0  0  0  0  0  0  0  0  0  0  0  0
  187.9340  178.2130  148.9110 F   0  0  0  0  0  0  0  0  0  0  0  0
  186.8000  177.7260  145.5450 C   0  0  0  0  0  3  0  0  0  0  0  0
  188.1060  177.5050  144.8190 C   0  0  2  0  0  3  0  0  0  0  0  0
  188.4750  177.2050  136.5410 C   0  0  0  0  0  2  0  0  0  0  0  0
  187.3640  176.2850  136.7240 N   0  0  0  0  0  2  0  0  0  0  0  0
  186.1760  176.9370  136.1980 C   0  0  0  0  0  2  0  0  0  0  0  0
  184.0850  177.5550  137.2160 N   0  0  0  0  0  0  0  0  0  0  0  0
  185.0270  176.6930  137.1150 C   0  0  0  0  0  3  0  0  0  0  0  0
  182.7570  177.2620  138.2620 S   0  0  0  0  0  0  0  0  0  0  0  0
  181.5130  177.0460  137.4450 O   0  0  0  0  0  0  0  0  0  0  0  0
  183.0330  176.0190  139.0600 O   0  0  0  0  0  0  0  0  0  0  0  0
  183.3100  179.8750  138.8970 C   0  0  0  0  0  2  0  0  0  0  0  0
  184.4920  178.4020  140.9490 C   0  0  2  0  0  3  0  0  0  0  0  0
  182.5470  178.6410  139.3850 C   0  0  2  0  0  3  0  0  0  0  0  0
  182.9770  178.2710  140.8060 C   0  0  0  0  0  2  0  0  0  0  0  0
  184.8860  178.1710  142.3920 C   0  0  0  0  0  1  0  0  0  0  0  0
  184.8800  179.6930  140.5530 O   0  0  0  0  0  0  0  0  0  0  0  0
  184.7350  179.7270  139.1980 N   0  0  0  0  0  2  0  0  0  0  0  0
  1 30  1  6  0  0  0
  1 14  1  0  0  0  0
  2  4  1  0  0  0  0
  2  1  1  0  0  0  0
  4  3  2  0  0  0  0
  5  6  1  0  0  0  0
  6 12  1  0  0  0  0
  7  4  1  0  0  0  0
  7  9  1  0  0  0  0
  8 10  2  0  0  0  0
  8  6  1  0  0  0  0
 10 11  1  0  0  0  0
 11  7  2  0  0  0  0
 12  9  1  0  0  0  0
 12 13  2  0  0  0  0
 14 15  1  0  0  0  0
 15 16  1  0  0  0  0
 18 17  1  1  0  0  0
 18 29  1  0  0  0  0
 19 21  1  6  0  0  0
 19 17  1  0  0  0  0
 19 18  1  0  0  0  0
 20 16  1  6  0  0  0
 20 21  1  0  0  0  0
 20 19  1  0  0  0  0
 22 26  1  0  0  0  0
 22 25  1  0  0  0  0
 23 24  2  0  0  0  0
 24 25  1  0  0  0  0
 25 27  1  1  0  0  0
 28 22  2  0  0  0  0
 29 28  1  1  0  0  0
 29 23  1  0  0  0  0
 30 31  1  0  0  0  0
 32 31  1  0  0  0  0
 32 34  1  0  0  0  0
 33 35  1  0  0  0  0
 34 33  2  0  0  0  0
 35 37  2  0  0  0  0
 36 35  2  0  0  0  0
 38 44  1  0  0  0  0
 38 40  1  0  0  0  0
 39 42  1  1  0  0  0
 40 35  1  6  0  0  0
 40 41  1  0  0  0  0
 41 39  1  0  0  0  0
 43 39  1  0  0  0  0
 44 43  1  0  0  0  0
M  END
>  <MODEL>
2

>  <REMARK>
 VINA RESULT:      -8.2      1.613      2.032
  Name = 
  13 active torsions:
  status: ('A' for Active; 'I' for Inactive)
    1  A    between atoms: C_1  and  N_17
    2  A    between atoms: C_1  and  C_34
    3  A    between atoms: N_2  and  C_29
    4  A    between atoms: C_8  and  C_33
    5  A    between atoms: C_11  and  S_21
    6  A    between atoms: C_14  and  C_43
    7  A    between atoms: N_17  and  C_42
    8  A    between atoms: N_18  and  C_22
    9  A    between atoms: N_18  and  C_25
   10  A    between atoms: S_21  and  N_26
   11  A    between atoms: C_22  and  C_23
   12  A    between atoms: C_25  and  C_29
   13  A    between atoms: C_29  and  C_42
                            x       y       z     vdW  Elec       q    Type
                         _______ _______ _______ _____ _____    ______ ____

>  <TORSDO>
F 13

$$$$
=
 OpenBabel11042412203D

 44 48  0  0  1  0  0  0  0  0999 V2000
  183.0730  178.8500  141.6700 C   0  0  2  0  0  3  0  0  0  0  0  0
  184.3750  178.4470  141.1500 N   0  0  0  0  0  2  0  0  0  0  0  0
  184.3980  180.0390  139.4460 O   0  0  0  0  0  0  0  0  0  0  0  0
  184.9640  179.0550  139.9980 C   0  0  0  0  0  0  0  0  0  0  0  0
  188.6940  175.5480  137.2540 C   0  0  0  0  0  1  0  0  0  0  0  0
  188.2070  176.7150  137.9700 N   0  0  0  0  0  0  0  0  0  0  0  0
  186.2400  178.5340  139.4730 C   0  0  0  0  0  0  0  0  0  0  0  0
  189.0110  177.1680  139.0560 C   0  0  0  0  0  3  0  0  0  0  0  0
  186.3670  178.3960  138.0560 N   0  0  0  0  0  2  0  0  0  0  0  0
  188.5700  177.8700  140.0520 N   0  0  0  0  0  0  0  0  0  0  0  0
  187.2420  178.3280  140.3350 C   0  0  0  0  0  3  0  0  0  0  0  0
  187.2660  177.5710  137.3200 C   0  0  0  0  0  0  0  0  0  0  0  0
  187.1860  177.5680  136.0630 O   0  0  0  0  0  0  0  0  0  0  0  0
  182.9770  178.5420  143.1600 C   0  0  0  0  0  2  0  0  0  0  0  0
  183.4140  179.6760  143.9630 N   0  0  0  0  0  2  0  0  0  0  0  0
  184.0250  179.1290  145.1620 C   0  0  0  0  0  2  0  0  0  0  0  0
  186.4520  177.1070  143.9690 C   0  0  0  0  0  2  0  0  0  0  0  0
  187.3010  176.8530  145.1510 C   0  0  2  0  0  3  0  0  0  0  0  0
  185.8810  177.4910  145.3390 C   0  0  1  0  0  0  0  0  0  0  0  0
  185.5090  178.9250  144.9310 C   0  0  2  0  0  3  0  0  0  0  0  0
  186.1840  178.7210  146.2210 C   0  0  0  0  0  2  0  0  0  0  0  0
  190.9570  177.4980  145.4740 C   0  0  0  0  0  0  0  0  0  0  0  0
  188.8920  178.0700  143.6320 C   0  0  0  0  0  3  0  0  0  0  0  0
  190.1480  178.4250  143.3150 C   0  0  0  0  0  3  0  0  0  0  0  0
  191.2020  178.5220  144.3900 C   0  0  2  0  0  3  0  0  0  0  0  0
  192.0020  176.9310  146.1320 F   0  0  0  0  0  0  0  0  0  0  0  0
  192.4570  178.3510  143.8360 F   0  0  0  0  0  0  0  0  0  0  0  0
  189.7020  177.1370  145.7820 C   0  0  0  0  0  3  0  0  0  0  0  0
  188.5310  177.7730  145.0710 C   0  0  2  0  0  3  0  0  0  0  0  0
  181.9530  178.1520  140.9110 C   0  0  0  0  0  2  0  0  0  0  0  0
  181.0210  179.1330  140.3790 N   0  0  0  0  0  2  0  0  0  0  0  0
  180.6690  178.7050  139.0360 C   0  0  0  0  0  2  0  0  0  0  0  0
  181.7260  177.4760  137.2570 N   0  0  0  0  0  0  0  0  0  0  0  0
  181.7670  177.8680  138.4760 C   0  0  0  0  0  3  0  0  0  0  0  0
  183.0000  176.5230  136.6150 S   0  0  0  0  0  0  0  0  0  0  0  0
  183.8710  177.3780  135.7350 O   0  0  0  0  0  0  0  0  0  0  0  0
  183.8310  175.9950  137.7500 O   0  0  0  0  0  0  0  0  0  0  0  0
  180.9340  174.7640  136.1990 C   0  0  0  0  0  2  0  0  0  0  0  0
  183.0530  173.1550  137.0380 C   0  0  2  0  0  3  0  0  0  0  0  0
  182.3290  175.1430  135.6930 C   0  0  2  0  0  3  0  0  0  0  0  0
  183.2650  173.9330  135.7420 C   0  0  0  0  0  2  0  0  0  0  0  0
  183.8800  171.8880  137.0090 C   0  0  0  0  0  1  0  0  0  0  0  0
  181.6910  172.8280  137.1590 O   0  0  0  0  0  0  0  0  0  0  0  0
  181.0500  173.9980  137.4420 N   0  0  0  0  0  2  0  0  0  0  0  0
  1 30  1  6  0  0  0
  1 14  1  0  0  0  0
  2  1  1  0  0  0  0
  3  4  2  0  0  0  0
  4  2  1  0  0  0  0
  5  6  1  0  0  0  0
  6  8  1  0  0  0  0
  7  4  1  0  0  0  0
  7 11  2  0  0  0  0
  8 10  2  0  0  0  0
  9  7  1  0  0  0  0
 10 11  1  0  0  0  0
 12  6  1  0  0  0  0
 12  9  1  0  0  0  0
 13 12  2  0  0  0  0
 14 15  1  0  0  0  0
 15 16  1  0  0  0  0
 18 17  1  6  0  0  0
 18 19  1  0  0  0  0
 19 17  1  1  0  0  0
 19 21  1  0  0  0  0
 20 16  1  1  0  0  0
 20 19  1  0  0  0  0
 20 21  1  0  0  0  0
 22 28  2  0  0  0  0
 22 26  1  0  0  0  0
 24 23  2  0  0  0  0
 24 25  1  0  0  0  0
 25 27  1  6  0  0  0
 25 22  1  0  0  0  0
 29 23  1  6  0  0  0
 29 18  1  0  0  0  0
 29 28  1  0  0  0  0
 31 30  1  0  0  0  0
 32 31  1  0  0  0  0
 33 34  2  0  0  0  0
 34 32  1  0  0  0  0
 35 33  1  0  0  0  0
 35 37  2  0  0  0  0
 36 35  2  0  0  0  0
 38 44  1  0  0  0  0
 39 42  1  6  0  0  0
 39 43  1  0  0  0  0
 40 41  1  0  0  0  0
 40 38  1  0  0  0  0
 40 35  1  1  0  0  0
 41 39  1  0  0  0  0
 43 44  1  0  0  0  0
M  END
>  <MODEL>
3

>  <REMARK>
 VINA RESULT:      -8.0      4.252      7.008
  Name = 
  13 active torsions:
  status: ('A' for Active; 'I' for Inactive)
    1  A    between atoms: C_1  and  N_17
    2  A    between atoms: C_1  and  C_34
    3  A    between atoms: N_2  and  C_29
    4  A    between atoms: C_8  and  C_33
    5  A    between atoms: C_11  and  S_21
    6  A    between atoms: C_14  and  C_43
    7  A    between atoms: N_17  and  C_42
    8  A    between atoms: N_18  and  C_22
    9  A    between atoms: N_18  and  C_25
   10  A    between atoms: S_21  and  N_26
   11  A    between atoms: C_22  and  C_23
   12  A    between atoms: C_25  and  C_29
   13  A    between atoms: C_29  and  C_42
                            x       y       z     vdW  Elec       q    Type
                         _______ _______ _______ _____ _____    ______ ____

>  <TORSDO>
F 13

$$$$
=
 OpenBabel11042412203D

 44 48  0  0  1  0  0  0  0  0999 V2000
  184.9270  179.0940  141.0970 C   0  0  2  0  0  3  0  0  0  0  0  0
  186.1040  178.6120  140.3850 N   0  0  0  0  0  2  0  0  0  0  0  0
  187.5560  178.9420  142.1790 O   0  0  0  0  0  0  0  0  0  0  0  0
  187.4080  178.6060  140.9720 C   0  0  0  0  0  0  0  0  0  0  0  0
  190.4570  176.0760  136.7230 C   0  0  0  0  0  1  0  0  0  0  0  0
  190.1780  176.9090  137.8820 N   0  0  0  0  0  0  0  0  0  0  0  0
  188.5690  178.1920  140.1610 C   0  0  0  0  0  0  0  0  0  0  0  0
  191.0890  176.7940  138.9720 C   0  0  0  0  0  3  0  0  0  0  0  0
  188.6090  178.6180  138.7970 N   0  0  0  0  0  2  0  0  0  0  0  0
  190.8010  177.0870  140.2020 N   0  0  0  0  0  0  0  0  0  0  0  0
  189.5680  177.5450  140.7710 C   0  0  0  0  0  3  0  0  0  0  0  0
  189.3440  178.0560  137.7130 C   0  0  0  0  0  0  0  0  0  0  0  0
  189.2080  178.5640  136.5680 O   0  0  0  0  0  0  0  0  0  0  0  0
  184.7660  178.3540  142.4200 C   0  0  0  0  0  2  0  0  0  0  0  0
  183.5660  178.7850  143.1240 N   0  0  0  0  0  2  0  0  0  0  0  0
  183.9910  179.2340  144.4390 C   0  0  0  0  0  2  0  0  0  0  0  0
  186.0180  176.7420  145.4820 C   0  0  0  0  0  2  0  0  0  0  0  0
  186.7270  177.3330  146.6330 C   0  0  2  0  0  3  0  0  0  0  0  0
  185.4590  178.0510  146.0520 C   0  0  1  0  0  0  0  0  0  0  0  0
  185.4120  178.7770  144.6990 C   0  0  2  0  0  3  0  0  0  0  0  0
  185.9570  179.4990  145.8590 C   0  0  0  0  0  2  0  0  0  0  0  0
  190.4450  177.3410  146.8970 C   0  0  0  0  0  0  0  0  0  0  0  0
  188.4970  177.1110  144.8620 C   0  0  0  0  0  3  0  0  0  0  0  0
  189.7900  176.9700  144.5280 C   0  0  0  0  0  3  0  0  0  0  0  0
  190.8710  177.4730  145.4530 C   0  0  2  0  0  3  0  0  0  0  0  0
  191.3630  177.0770  147.8630 F   0  0  0  0  0  0  0  0  0  0  0  0
  192.0450  176.7780  145.2290 F   0  0  0  0  0  0  0  0  0  0  0  0
  189.1500  177.4710  147.2270 C   0  0  0  0  0  3  0  0  0  0  0  0
  188.1220  177.7820  146.1650 C   0  0  2  0  0  3  0  0  0  0  0  0
  183.6770  178.9270  140.2420 C   0  0  0  0  0  2  0  0  0  0  0  0
  183.9670  179.2720  138.8590 N   0  0  0  0  0  2  0  0  0  0  0  0
  183.0610  178.5000  138.0270 C   0  0  0  0  0  2  0  0  0  0  0  0
  185.0880  177.3800  137.3720 N   0  0  0  0  0  0  0  0  0  0  0  0
  183.8070  177.3830  137.3810 C   0  0  0  0  0  3  0  0  0  0  0  0
  185.9410  176.0840  136.6400 S   0  0  0  0  0  0  0  0  0  0  0  0
  186.5740  176.5600  135.3610 O   0  0  0  0  0  0  0  0  0  0  0  0
  187.0240  175.6270  137.5750 O   0  0  0  0  0  0  0  0  0  0  0  0
  184.6050  173.8820  137.5890 C   0  0  0  0  0  2  0  0  0  0  0  0
  186.3820  172.8510  135.7020 C   0  0  2  0  0  3  0  0  0  0  0  0
  184.8280  174.7170  136.3250 C   0  0  2  0  0  3  0  0  0  0  0  0
  185.3380  173.8370  135.1830 C   0  0  0  0  0  2  0  0  0  0  0  0
  186.7710  171.8960  134.5940 C   0  0  0  0  0  1  0  0  0  0  0  0
  185.8370  172.1310  136.7780 O   0  0  0  0  0  0  0  0  0  0  0  0
  185.7600  173.0110  137.8170 N   0  0  0  0  0  2  0  0  0  0  0  0
  1 30  1  6  0  0  0
  1 14  1  0  0  0  0
  2  4  1  0  0  0  0
  2  1  1  0  0  0  0
  4  3  2  0  0  0  0
  5  6  1  0  0  0  0
  6  8  1  0  0  0  0
  7 11  2  0  0  0  0
  7  4  1  0  0  0  0
  8 10  2  0  0  0  0
  9  7  1  0  0  0  0
 10 11  1  0  0  0  0
 12  6  1  0  0  0  0
 12  9  1  0  0  0  0
 13 12  2  0  0  0  0
 14 15  1  0  0  0  0
 15 16  1  0  0  0  0
 18 17  1  6  0  0  0
 19 17  1  1  0  0  0
 19 18  1  0  0  0  0
 20 16  1  1  0  0  0
 20 21  1  0  0  0  0
 20 19  1  0  0  0  0
 21 19  1  0  0  0  0
 22 28  2  0  0  0  0
 22 26  1  0  0  0  0
 24 23  2  0  0  0  0
 24 25  1  0  0  0  0
 25 27  1  1  0  0  0
 25 22  1  0  0  0  0
 29 23  1  6  0  0  0
 29 18  1  0  0  0  0
 29 28  1  0  0  0  0
 31 30  1  0  0  0  0
 32 31  1  0  0  0  0
 33 34  2  0  0  0  0
 34 32  1  0  0  0  0
 35 33  1  0  0  0  0
 35 37  2  0  0  0  0
 36 35  2  0  0  0  0
 38 44  1  0  0  0  0
 39 42  1  6  0  0  0
 39 43  1  0  0  0  0
 40 35  1  1  0  0  0
 40 38  1  0  0  0  0
 41 39  1  0  0  0  0
 41 40  1  0  0  0  0
 43 44  1  0  0  0  0
M  END
>  <MODEL>
4

>  <REMARK>
 VINA RESULT:      -7.8      3.708      6.357
  Name = 
  13 active torsions:
  status: ('A' for Active; 'I' for Inactive)
    1  A    between atoms: C_1  and  N_17
    2  A    between atoms: C_1  and  C_34
    3  A    between atoms: N_2  and  C_29
    4  A    between atoms: C_8  and  C_33
    5  A    between atoms: C_11  and  S_21
    6  A    between atoms: C_14  and  C_43
    7  A    between atoms: N_17  and  C_42
    8  A    between atoms: N_18  and  C_22
    9  A    between atoms: N_18  and  C_25
   10  A    between atoms: S_21  and  N_26
   11  A    between atoms: C_22  and  C_23
   12  A    between atoms: C_25  and  C_29
   13  A    between atoms: C_29  and  C_42
                            x       y       z     vdW  Elec       q    Type
                         _______ _______ _______ _____ _____    ______ ____

>  <TORSDO>
F 13

$$$$
=
 OpenBabel11042412203D

 44 48  0  0  1  0  0  0  0  0999 V2000
  189.6610  176.0960  137.5900 C   0  0  2  0  0  3  0  0  0  0  0  0
  188.3890  176.7750  137.8040 N   0  0  0  0  0  2  0  0  0  0  0  0
  187.1000  175.0340  136.9420 O   0  0  0  0  0  0  0  0  0  0  0  0
  187.1380  176.2040  137.4120 C   0  0  0  0  0  0  0  0  0  0  0  0
  182.5010  178.5930  139.9700 C   0  0  0  0  0  1  0  0  0  0  0  0
  183.4810  178.3040  138.9350 N   0  0  0  0  0  0  0  0  0  0  0  0
  185.8990  176.9880  137.5730 C   0  0  0  0  0  0  0  0  0  0  0  0
  182.9610  178.0300  137.6370 C   0  0  0  0  0  3  0  0  0  0  0  0
  185.9240  178.0880  138.4860 N   0  0  0  0  0  2  0  0  0  0  0  0
  183.5840  177.3490  136.7270 N   0  0  0  0  0  0  0  0  0  0  0  0
  184.8610  176.7010  136.7790 C   0  0  0  0  0  3  0  0  0  0  0  0
  184.8300  178.7300  139.1340 C   0  0  0  0  0  0  0  0  0  0  0  0
  185.0750  179.6670  139.9400 O   0  0  0  0  0  0  0  0  0  0  0  0
  190.6640  176.4930  138.6680 C   0  0  0  0  0  2  0  0  0  0  0  0
  190.0420  177.3320  139.6840 N   0  0  0  0  0  2  0  0  0  0  0  0
  191.0170  177.4890  140.7500 C   0  0  0  0  0  2  0  0  0  0  0  0
  189.4930  175.8130  143.2540 C   0  0  0  0  0  2  0  0  0  0  0  0
  188.1290  176.3790  143.2670 C   0  0  2  0  0  3  0  0  0  0  0  0
  189.0720  176.6560  142.0440 C   0  0  1  0  0  0  0  0  0  0  0  0
  190.3040  177.5730  142.0840 C   0  0  2  0  0  3  0  0  0  0  0  0
  188.9820  178.1900  141.8980 C   0  0  0  0  0  2  0  0  0  0  0  0
  186.3990  177.9590  146.1650 C   0  0  0  0  0  0  0  0  0  0  0  0
  189.0040  177.0750  145.5190 C   0  0  0  0  0  3  0  0  0  0  0  0
  188.7730  177.5290  146.7610 C   0  0  0  0  0  3  0  0  0  0  0  0
  187.5560  178.3730  147.0450 C   0  0  2  0  0  3  0  0  0  0  0  0
  185.1230  178.0410  146.6240 F   0  0  0  0  0  0  0  0  0  0  0  0
  187.2110  178.2680  148.3800 F   0  0  0  0  0  0  0  0  0  0  0  0
  186.6330  177.4960  144.9280 C   0  0  0  0  0  3  0  0  0  0  0  0
  188.0460  177.4170  144.3990 C   0  0  2  0  0  3  0  0  0  0  0  0
  190.2150  176.4170  136.2080 C   0  0  0  0  0  2  0  0  0  0  0  0
  190.6100  175.1920  135.5300 N   0  0  0  0  0  2  0  0  0  0  0  0
  191.7540  175.5150  134.6950 C   0  0  0  0  0  2  0  0  0  0  0  0
  192.8590  173.7860  135.9530 N   0  0  0  0  0  0  0  0  0  0  0  0
  192.8120  174.4810  134.8780 C   0  0  0  0  0  3  0  0  0  0  0  0
  194.0710  172.5890  136.1520 S   0  0  0  0  0  0  0  0  0  0  0  0
  193.4350  171.2250  136.1440 O   0  0  0  0  0  0  0  0  0  0  0  0
  195.0360  172.6790  135.0040 O   0  0  0  0  0  0  0  0  0  0  0  0
  194.6710  174.2580  138.2470 C   0  0  0  0  0  2  0  0  0  0  0  0
  197.0990  173.9210  136.9160 C   0  0  2  0  0  3  0  0  0  0  0  0
  194.9590  172.8640  137.6830 C   0  0  2  0  0  3  0  0  0  0  0  0
  196.4640  172.6600  137.4970 C   0  0  0  0  0  2  0  0  0  0  0  0
  198.6030  173.7540  136.8700 C   0  0  0  0  0  1  0  0  0  0  0  0
  196.7680  175.0170  137.7290 O   0  0  0  0  0  0  0  0  0  0  0  0
  195.4450  175.2600  137.5100 N   0  0  0  0  0  2  0  0  0  0  0  0
  1 30  1  6  0  0  0
  1  2  1  0  0  0  0
  1 14  1  0  0  0  0
  3  4  2  0  0  0  0
  4  7  1  0  0  0  0
  4  2  1  0  0  0  0
  6 12  1  0  0  0  0
  6  5  1  0  0  0  0
  7  9  1  0  0  0  0
  8  6  1  0  0  0  0
  9 12  1  0  0  0  0
 10 11  1  0  0  0  0
 10  8  2  0  0  0  0
 11  7  2  0  0  0  0
 12 13  2  0  0  0  0
 14 15  1  0  0  0  0
 15 16  1  0  0  0  0
 18 17  1  1  0  0  0
 18 29  1  0  0  0  0
 19 21  1  6  0  0  0
 19 20  1  0  0  0  0
 19 17  1  0  0  0  0
 19 18  1  0  0  0  0
 20 16  1  6  0  0  0
 21 20  1  0  0  0  0
 22 26  1  0  0  0  0
 22 25  1  0  0  0  0
 23 24  2  0  0  0  0
 24 25  1  0  0  0  0
 25 27  1  1  0  0  0
 28 22  2  0  0  0  0
 29 28  1  1  0  0  0
 29 23  1  0  0  0  0
 31 30  1  0  0  0  0
 32 34  1  0  0  0  0
 32 31  1  0  0  0  0
 33 35  1  0  0  0  0
 34 33  2  0  0  0  0
 36 35  2  0  0  0  0
 37 35  2  0  0  0  0
 39 42  1  1  0  0  0
 39 41  1  0  0  0  0
 39 43  1  0  0  0  0
 40 35  1  6  0  0  0
 40 38  1  0  0  0  0
 41 40  1  0  0  0  0
 44 43  1  0  0  0  0
 44 38  1  0  0  0  0
M  END
>  <MODEL>
5

>  <REMARK>
 VINA RESULT:      -7.6      2.607      9.248
  Name = 
  13 active torsions:
  status: ('A' for Active; 'I' for Inactive)
    1  A    between atoms: C_1  and  N_17
    2  A    between atoms: C_1  and  C_34
    3  A    between atoms: N_2  and  C_29
    4  A    between atoms: C_8  and  C_33
    5  A    between atoms: C_11  and  S_21
    6  A    between atoms: C_14  and  C_43
    7  A    between atoms: N_17  and  C_42
    8  A    between atoms: N_18  and  C_22
    9  A    between atoms: N_18  and  C_25
   10  A    between atoms: S_21  and  N_26
   11  A    between atoms: C_22  and  C_23
   12  A    between atoms: C_25  and  C_29
   13  A    between atoms: C_29  and  C_42
                            x       y       z     vdW  Elec       q    Type
                         _______ _______ _______ _____ _____    ______ ____

>  <TORSDO>
F 13

$$$$
=
 OpenBabel11042412203D

 44 48  0  0  1  0  0  0  0  0999 V2000
  183.2960  178.6370  142.2710 C   0  0  2  0  0  3  0  0  0  0  0  0
  182.4480  179.4410  141.3990 N   0  0  0  0  0  2  0  0  0  0  0  0
  181.9340  177.6780  139.9620 O   0  0  0  0  0  0  0  0  0  0  0  0
  181.8290  178.9070  140.2260 C   0  0  0  0  0  0  0  0  0  0  0  0
  180.6630  182.5570  135.8590 C   0  0  0  0  0  1  0  0  0  0  0  0
  180.4250  181.6810  136.9950 N   0  0  0  0  0  0  0  0  0  0  0  0
  181.0600  179.8010  139.3390 C   0  0  0  0  0  0  0  0  0  0  0  0
  179.5580  182.1860  138.0070 C   0  0  0  0  0  3  0  0  0  0  0  0
  180.9700  179.4460  137.9570 N   0  0  0  0  0  2  0  0  0  0  0  0
  179.5620  181.7890  139.2410 N   0  0  0  0  0  0  0  0  0  0  0  0
  180.3980  180.8240  139.8920 C   0  0  0  0  0  3  0  0  0  0  0  0
  180.6740  180.2830  136.8430 C   0  0  0  0  0  0  0  0  0  0  0  0
  180.6820  179.7740  135.6900 O   0  0  0  0  0  0  0  0  0  0  0  0
  183.5960  179.3910  143.5630 C   0  0  0  0  0  2  0  0  0  0  0  0
  183.2700  178.5850  144.7320 N   0  0  0  0  0  2  0  0  0  0  0  0
  184.1250  179.0500  145.8110 C   0  0  0  0  0  2  0  0  0  0  0  0
  186.4340  176.9970  144.4460 C   0  0  0  0  0  2  0  0  0  0  0  0
  187.4030  176.7930  145.5400 C   0  0  2  0  0  3  0  0  0  0  0  0
  186.0040  177.4300  145.8530 C   0  0  1  0  0  0  0  0  0  0  0  0
  185.5790  178.8460  145.4340 C   0  0  2  0  0  3  0  0  0  0  0  0
  186.3870  178.6930  146.6520 C   0  0  0  0  0  2  0  0  0  0  0  0
  191.0650  177.4870  145.5150 C   0  0  0  0  0  0  0  0  0  0  0  0
  188.8460  177.9210  143.8190 C   0  0  0  0  0  3  0  0  0  0  0  0
  190.0660  178.2650  143.3760 C   0  0  0  0  0  3  0  0  0  0  0  0
  191.2040  178.4400  144.3510 C   0  0  2  0  0  3  0  0  0  0  0  0
  192.1680  176.9720  146.1170 F   0  0  0  0  0  0  0  0  0  0  0  0
  192.4120  178.2440  143.7060 F   0  0  0  0  0  0  0  0  0  0  0  0
  189.8440  177.1360  145.9490 C   0  0  0  0  0  3  0  0  0  0  0  0
  188.6100  177.7150  145.2990 C   0  0  2  0  0  3  0  0  0  0  0  0
  184.5920  178.2640  141.5640 C   0  0  0  0  0  2  0  0  0  0  0  0
  185.5280  179.3750  141.6140 N   0  0  0  0  0  2  0  0  0  0  0  0
  186.8470  178.8370  141.3280 C   0  0  0  0  0  2  0  0  0  0  0  0
  187.7720  178.5950  139.1190 N   0  0  0  0  0  0  0  0  0  0  0  0
  186.8620  178.2570  139.9550 C   0  0  0  0  0  3  0  0  0  0  0  0
  187.7910  177.9140  137.5450 S   0  0  0  0  0  0  0  0  0  0  0  0
  186.9080  176.6970  137.5140 O   0  0  0  0  0  0  0  0  0  0  0  0
  187.2560  178.9250  136.5710 O   0  0  0  0  0  0  0  0  0  0  0  0
  189.5930  176.0000  136.7530 C   0  0  0  0  0  2  0  0  0  0  0  0
  190.5060  176.8110  139.2610 C   0  0  2  0  0  3  0  0  0  0  0  0
  189.4680  177.4900  137.0810 C   0  0  2  0  0  3  0  0  0  0  0  0
  190.4640  177.8830  138.1750 C   0  0  0  0  0  2  0  0  0  0  0  0
  191.5930  177.1440  140.2590 C   0  0  0  0  0  1  0  0  0  0  0  0
  190.7740  175.5660  138.6660 O   0  0  0  0  0  0  0  0  0  0  0  0
  189.6400  175.2210  137.9930 N   0  0  0  0  0  2  0  0  0  0  0  0
  1 30  1  6  0  0  0
  1 14  1  0  0  0  0
  2  1  1  0  0  0  0
  3  4  2  0  0  0  0
  4  2  1  0  0  0  0
  5  6  1  0  0  0  0
  6  8  1  0  0  0  0
  7 11  2  0  0  0  0
  7  4  1  0  0  0  0
  8 10  2  0  0  0  0
  9  7  1  0  0  0  0
 10 11  1  0  0  0  0
 12  6  1  0  0  0  0
 12  9  1  0  0  0  0
 13 12  2  0  0  0  0
 14 15  1  0  0  0  0
 15 16  1  0  0  0  0
 18 17  1  6  0  0  0
 18 19  1  0  0  0  0
 19 17  1  1  0  0  0
 19 21  1  0  0  0  0
 20 16  1  1  0  0  0
 20 19  1  0  0  0  0
 20 21  1  0  0  0  0
 22 28  2  0  0  0  0
 22 26  1  0  0  0  0
 24 23  2  0  0  0  0
 24 25  1  0  0  0  0
 25 27  1  6  0  0  0
 25 22  1  0  0  0  0
 29 23  1  6  0  0  0
 29 18  1  0  0  0  0
 29 28  1  0  0  0  0
 30 31  1  0  0  0  0
 32 31  1  0  0  0  0
 33 34  2  0  0  0  0
 34 32  1  0  0  0  0
 35 33  1  0  0  0  0
 36 35  2  0  0  0  0
 37 35  2  0  0  0  0
 38 40  1  0  0  0  0
 38 44  1  0  0  0  0
 39 42  1  1  0  0  0
 40 35  1  1  0  0  0
 40 41  1  0  0  0  0
 41 39  1  0  0  0  0
 43 39  1  0  0  0  0
 44 43  1  0  0  0  0
M  END
>  <MODEL>
6

>  <REMARK>
 VINA RESULT:      -7.5      3.584      9.757
  Name = 
  13 active torsions:
  status: ('A' for Active; 'I' for Inactive)
    1  A    between atoms: C_1  and  N_17
    2  A    between atoms: C_1  and  C_34
    3  A    between atoms: N_2  and  C_29
    4  A    between atoms: C_8  and  C_33
    5  A    between atoms: C_11  and  S_21
    6  A    between atoms: C_14  and  C_43
    7  A    between atoms: N_17  and  C_42
    8  A    between atoms: N_18  and  C_22
    9  A    between atoms: N_18  and  C_25
   10  A    between atoms: S_21  and  N_26
   11  A    between atoms: C_22  and  C_23
   12  A    between atoms: C_25  and  C_29
   13  A    between atoms: C_29  and  C_42
                            x       y       z     vdW  Elec       q    Type
                         _______ _______ _______ _____ _____    ______ ____

>  <TORSDO>
F 13

$$$$
=
 OpenBabel11042412203D

 44 48  0  0  1  0  0  0  0  0999 V2000
  182.4040  178.2020  140.7150 C   0  0  2  0  0  3  0  0  0  0  0  0
  181.8720  179.3820  140.0440 N   0  0  0  0  0  2  0  0  0  0  0  0
  179.9380  178.3170  139.2960 O   0  0  0  0  0  0  0  0  0  0  0  0
  180.6470  179.3610  139.3070 C   0  0  0  0  0  0  0  0  0  0  0  0
  180.8930  183.9440  135.7460 C   0  0  0  0  0  1  0  0  0  0  0  0
  180.3230  182.9540  136.6460 N   0  0  0  0  0  0  0  0  0  0  0  0
  180.2180  180.5670  138.5750 C   0  0  0  0  0  0  0  0  0  0  0  0
  179.4690  183.4550  137.6710 C   0  0  0  0  0  3  0  0  0  0  0  0
  180.2260  180.5130  137.1460 N   0  0  0  0  0  2  0  0  0  0  0  0
  179.2280  182.8430  138.7880 N   0  0  0  0  0  0  0  0  0  0  0  0
  179.7370  181.5970  139.2800 C   0  0  0  0  0  3  0  0  0  0  0  0
  180.2690  181.5930  136.2170 C   0  0  0  0  0  0  0  0  0  0  0  0
  180.3100  181.3250  134.9860 O   0  0  0  0  0  0  0  0  0  0  0  0
  183.2720  178.6100  141.9000 C   0  0  0  0  0  2  0  0  0  0  0  0
  182.5040  178.6260  143.1370 N   0  0  0  0  0  2  0  0  0  0  0  0
  183.3260  179.2950  144.1310 C   0  0  0  0  0  2  0  0  0  0  0  0
  185.5380  177.1590  145.5260 C   0  0  0  0  0  2  0  0  0  0  0  0
  186.6460  178.0380  145.9500 C   0  0  2  0  0  3  0  0  0  0  0  0
  185.2700  178.6680  145.5400 C   0  0  1  0  0  0  0  0  0  0  0  0
  184.7280  178.7220  144.1030 C   0  0  2  0  0  3  0  0  0  0  0  0
  185.6900  179.7510  144.5240 C   0  0  0  0  0  2  0  0  0  0  0  0
  190.1680  177.3390  144.9490 C   0  0  0  0  0  0  0  0  0  0  0  0
  187.5720  176.7410  144.0050 C   0  0  0  0  0  3  0  0  0  0  0  0
  188.6230  176.1990  143.3700 C   0  0  0  0  0  3  0  0  0  0  0  0
  190.0020  176.7830  143.5540 C   0  0  2  0  0  3  0  0  0  0  0  0
  191.3760  177.2930  145.5680 F   0  0  0  0  0  0  0  0  0  0  0  0
  190.9600  175.8180  143.3000 F   0  0  0  0  0  0  0  0  0  0  0  0
  189.1130  177.8700  145.5860 C   0  0  0  0  0  3  0  0  0  0  0  0
  187.7680  177.9440  144.9020 C   0  0  2  0  0  3  0  0  0  0  0  0
  183.2040  177.3460  139.7420 C   0  0  0  0  0  2  0  0  0  0  0  0
  182.4980  176.1030  139.4720 N   0  0  0  0  0  2  0  0  0  0  0  0
  182.8340  175.7070  138.1150 C   0  0  0  0  0  2  0  0  0  0  0  0
  185.0660  175.6490  137.2150 N   0  0  0  0  0  0  0  0  0  0  0  0
  184.1160  176.3510  137.7100 C   0  0  0  0  0  3  0  0  0  0  0  0
  186.5330  176.3980  136.7380 S   0  0  0  0  0  0  0  0  0  0  0  0
  187.6960  175.6380  137.3160 O   0  0  0  0  0  0  0  0  0  0  0  0
  186.6310  176.3640  135.2390 O   0  0  0  0  0  0  0  0  0  0  0  0
  187.5500  178.9330  136.4680 C   0  0  0  0  0  2  0  0  0  0  0  0
  188.3820  178.1230  139.0040 C   0  0  2  0  0  3  0  0  0  0  0  0
  186.5570  178.1030  137.2850 C   0  0  2  0  0  3  0  0  0  0  0  0
  186.8740  178.2040  138.7790 C   0  0  0  0  0  2  0  0  0  0  0  0
  188.6890  178.3660  140.4660 C   0  0  0  0  0  1  0  0  0  0  0  0
  189.0160  179.1010  138.2190 O   0  0  0  0  0  0  0  0  0  0  0  0
  188.9150  178.6690  136.9300 N   0  0  0  0  0  2  0  0  0  0  0  0
  1 30  1  6  0  0  0
  1 14  1  0  0  0  0
  2  1  1  0  0  0  0
  3  4  2  0  0  0  0
  4  2  1  0  0  0  0
  5  6  1  0  0  0  0
  6  8  1  0  0  0  0
  7 11  2  0  0  0  0
  7  4  1  0  0  0  0
  8 10  2  0  0  0  0
  9  7  1  0  0  0  0
 10 11  1  0  0  0  0
 12  6  1  0  0  0  0
 12  9  1  0  0  0  0
 13 12  2  0  0  0  0
 14 15  1  0  0  0  0
 15 16  1  0  0  0  0
 17 19  1  0  0  0  0
 18 17  1  6  0  0  0
 19 21  1  1  0  0  0
 19 18  1  0  0  0  0
 20 16  1  1  0  0  0
 20 21  1  0  0  0  0
 20 19  1  0  0  0  0
 22 26  1  0  0  0  0
 22 28  2  0  0  0  0
 24 25  1  0  0  0  0
 24 23  2  0  0  0  0
 25 27  1  1  0  0  0
 25 22  1  0  0  0  0
 29 23  1  1  0  0  0
 29 28  1  0  0  0  0
 29 18  1  0  0  0  0
 31 30  1  0  0  0  0
 32 31  1  0  0  0  0
 33 34  2  0  0  0  0
 34 32  1  0  0  0  0
 35 33  1  0  0  0  0
 35 36  2  0  0  0  0
 37 35  2  0  0  0  0
 38 44  1  0  0  0  0
 38 40  1  0  0  0  0
 39 42  1  1  0  0  0
 40 35  1  6  0  0  0
 40 41  1  0  0  0  0
 41 39  1  0  0  0  0
 43 39  1  0  0  0  0
 44 43  1  0  0  0  0
M  END
>  <MODEL>
7

>  <REMARK>
 VINA RESULT:      -7.5      4.570      9.914
  Name = 
  13 active torsions:
  status: ('A' for Active; 'I' for Inactive)
    1  A    between atoms: C_1  and  N_17
    2  A    between atoms: C_1  and  C_34
    3  A    between atoms: N_2  and  C_29
    4  A    between atoms: C_8  and  C_33
    5  A    between atoms: C_11  and  S_21
    6  A    between atoms: C_14  and  C_43
    7  A    between atoms: N_17  and  C_42
    8  A    between atoms: N_18  and  C_22
    9  A    between atoms: N_18  and  C_25
   10  A    between atoms: S_21  and  N_26
   11  A    between atoms: C_22  and  C_23
   12  A    between atoms: C_25  and  C_29
   13  A    between atoms: C_29  and  C_42
                            x       y       z     vdW  Elec       q    Type
                         _______ _______ _______ _____ _____    ______ ____

>  <TORSDO>
F 13

$$$$
=
 OpenBabel11042412203D

 44 48  0  0  1  0  0  0  0  0999 V2000
  190.6170  177.0700  138.1360 C   0  0  2  0  0  3  0  0  0  0  0  0
  191.5920  176.1050  137.6440 N   0  0  0  0  0  2  0  0  0  0  0  0
  193.4190  177.1650  138.6300 O   0  0  0  0  0  0  0  0  0  0  0  0
  192.9940  176.2370  137.8890 C   0  0  0  0  0  0  0  0  0  0  0  0
  197.7140  172.9150  137.2200 C   0  0  0  0  0  1  0  0  0  0  0  0
  196.3960  173.4690  136.9540 N   0  0  0  0  0  0  0  0  0  0  0  0
  193.9320  175.2740  137.2810 C   0  0  0  0  0  0  0  0  0  0  0  0
  196.1290  173.8340  135.6020 C   0  0  0  0  0  3  0  0  0  0  0  0
  194.2210  174.0790  138.0110 N   0  0  0  0  0  2  0  0  0  0  0  0
  195.2430  174.7080  135.2400 N   0  0  0  0  0  0  0  0  0  0  0  0
  194.3690  175.5140  136.0390 C   0  0  0  0  0  3  0  0  0  0  0  0
  195.3460  173.2130  137.8870 C   0  0  0  0  0  0  0  0  0  0  0  0
  195.4290  172.2230  138.6620 O   0  0  0  0  0  0  0  0  0  0  0  0
  189.8130  176.4740  139.2860 C   0  0  0  0  0  2  0  0  0  0  0  0
  190.6720  176.1440  140.4150 N   0  0  0  0  0  2  0  0  0  0  0  0
  190.9490  177.3910  141.1080 C   0  0  0  0  0  2  0  0  0  0  0  0
  190.6020  178.7840  144.1650 C   0  0  0  0  0  2  0  0  0  0  0  0
  190.7000  177.6310  145.0820 C   0  0  2  0  0  3  0  0  0  0  0  0
  191.1270  177.4670  143.5820 C   0  0  1  0  0  0  0  0  0  0  0  0
  190.1510  177.4470  142.3960 C   0  0  2  0  0  3  0  0  0  0  0  0
  190.3530  176.2030  143.1540 C   0  0  0  0  0  2  0  0  0  0  0  0
  187.9280  177.4560  147.5660 C   0  0  0  0  0  0  0  0  0  0  0  0
  188.2430  178.0980  144.8320 C   0  0  0  0  0  3  0  0  0  0  0  0
  187.0310  178.2520  145.3890 C   0  0  0  0  0  3  0  0  0  0  0  0
  186.7010  177.5610  146.6890 C   0  0  2  0  0  3  0  0  0  0  0  0
  187.8120  177.5190  148.9180 F   0  0  0  0  0  0  0  0  0  0  0  0
  185.6940  178.2460  147.3440 F   0  0  0  0  0  0  0  0  0  0  0  0
  189.1390  177.3140  147.0070 C   0  0  0  0  0  3  0  0  0  0  0  0
  189.2790  177.2250  145.5060 C   0  0  2  0  0  3  0  0  0  0  0  0
  189.6870  177.5130  137.0140 C   0  0  0  0  0  2  0  0  0  0  0  0
  188.3020  177.2650  137.3840 N   0  0  0  0  0  2  0  0  0  0  0  0
  187.5090  177.3750  136.1710 C   0  0  0  0  0  2  0  0  0  0  0  0
  185.5830  177.2540  137.6100 N   0  0  0  0  0  0  0  0  0  0  0  0
  186.0990  177.7020  136.5260 C   0  0  0  0  0  3  0  0  0  0  0  0
  183.9640  177.6460  138.0200 S   0  0  0  0  0  0  0  0  0  0  0  0
  183.1650  177.8550  136.7630 O   0  0  0  0  0  0  0  0  0  0  0  0
  183.3670  176.5000  138.7880 O   0  0  0  0  0  0  0  0  0  0  0  0
  184.9140  178.9990  140.2110 C   0  0  0  0  0  2  0  0  0  0  0  0
  182.2230  178.5480  140.7910 C   0  0  2  0  0  3  0  0  0  0  0  0
  183.9300  179.1140  139.0440 C   0  0  2  0  0  3  0  0  0  0  0  0
  182.5170  179.4000  139.5590 C   0  0  0  0  0  2  0  0  0  0  0  0
  180.8820  178.9430  141.3710 C   0  0  0  0  0  1  0  0  0  0  0  0
  183.2320  178.7600  141.7460 O   0  0  0  0  0  0  0  0  0  0  0  0
  184.3460  178.1440  141.2560 N   0  0  0  0  0  2  0  0  0  0  0  0
  1 30  1  6  0  0  0
  1 14  1  0  0  0  0
  2  4  1  0  0  0  0
  2  1  1  0  0  0  0
  4  3  2  0  0  0  0
  6  5  1  0  0  0  0
  6 12  1  0  0  0  0
  7  4  1  0  0  0  0
  7  9  1  0  0  0  0
  8  6  1  0  0  0  0
 10  8  2  0  0  0  0
 10 11  1  0  0  0  0
 11  7  2  0  0  0  0
 12  9  1  0  0  0  0
 12 13  2  0  0  0  0
 14 15  1  0  0  0  0
 15 16  1  0  0  0  0
 18 17  1  6  0  0  0
 18 29  1  0  0  0  0
 19 21  1  6  0  0  0
 19 17  1  0  0  0  0
 19 18  1  0  0  0  0
 20 16  1  6  0  0  0
 20 21  1  0  0  0  0
 20 19  1  0  0  0  0
 22 26  1  0  0  0  0
 23 24  2  0  0  0  0
 24 25  1  0  0  0  0
 25 27  1  1  0  0  0
 25 22  1  0  0  0  0
 28 22  2  0  0  0  0
 29 23  1  6  0  0  0
 29 28  1  0  0  0  0
 30 31  1  0  0  0  0
 32 34  1  0  0  0  0
 32 31  1  0  0  0  0
 33 35  1  0  0  0  0
 34 33  2  0  0  0  0
 35 37  2  0  0  0  0
 36 35  2  0  0  0  0
 38 44  1  0  0  0  0
 39 42  1  1  0  0  0
 39 43  1  0  0  0  0
 40 35  1  1  0  0  0
 40 41  1  0  0  0  0
 40 38  1  0  0  0  0
 41 39  1  0  0  0  0
 44 43  1  0  0  0  0
M  END
>  <MODEL>
8

>  <REMARK>
 VINA RESULT:      -7.4      1.450      2.083
  Name = 
  13 active torsions:
  status: ('A' for Active; 'I' for Inactive)
    1  A    between atoms: C_1  and  N_17
    2  A    between atoms: C_1  and  C_34
    3  A    between atoms: N_2  and  C_29
    4  A    between atoms: C_8  and  C_33
    5  A    between atoms: C_11  and  S_21
    6  A    between atoms: C_14  and  C_43
    7  A    between atoms: N_17  and  C_42
    8  A    between atoms: N_18  and  C_22
    9  A    between atoms: N_18  and  C_25
   10  A    between atoms: S_21  and  N_26
   11  A    between atoms: C_22  and  C_23
   12  A    between atoms: C_25  and  C_29
   13  A    between atoms: C_29  and  C_42
                            x       y       z     vdW  Elec       q    Type
                         _______ _______ _______ _____ _____    ______ ____

>  <TORSDO>
F 13

$$$$
=
 OpenBabel11042412203D

 44 48  0  0  1  0  0  0  0  0999 V2000
  189.7020  176.4790  136.4950 C   0  0  2  0  0  3  0  0  0  0  0  0
  191.1010  176.1010  136.3350 N   0  0  0  0  0  2  0  0  0  0  0  0
  191.1600  174.7800  138.2560 O   0  0  0  0  0  0  0  0  0  0  0  0
  191.7890  175.2800  137.2830 C   0  0  0  0  0  0  0  0  0  0  0  0
  197.3870  174.5000  138.6260 C   0  0  0  0  0  1  0  0  0  0  0  0
  196.1780  174.5400  137.8180 N   0  0  0  0  0  0  0  0  0  0  0  0
  193.2290  175.0150  137.1050 C   0  0  0  0  0  0  0  0  0  0  0  0
  196.2920  175.1770  136.5480 C   0  0  0  0  0  3  0  0  0  0  0  0
  193.7770  173.8680  137.7600 N   0  0  0  0  0  2  0  0  0  0  0  0
  195.2980  175.6930  135.8960 N   0  0  0  0  0  0  0  0  0  0  0  0
  193.9150  175.7880  136.2560 C   0  0  0  0  0  3  0  0  0  0  0  0
  195.1350  173.6070  138.1040 C   0  0  0  0  0  0  0  0  0  0  0  0
  195.4040  172.5410  138.7200 O   0  0  0  0  0  0  0  0  0  0  0  0
  189.0660  176.7520  135.1370 C   0  0  0  0  0  2  0  0  0  0  0  0
  187.6350  176.9900  135.2620 N   0  0  0  0  0  2  0  0  0  0  0  0
  187.0500  175.7600  135.7690 C   0  0  0  0  0  2  0  0  0  0  0  0
  183.7100  175.8360  136.2640 C   0  0  0  0  0  2  0  0  0  0  0  0
  183.4340  177.2610  136.5320 C   0  0  2  0  0  3  0  0  0  0  0  0
  184.8220  176.8390  135.9370 C   0  0  1  0  0  0  0  0  0  0  0  0
  185.9130  176.0890  136.7160 C   0  0  2  0  0  3  0  0  0  0  0  0
  185.8160  177.5470  136.8810 C   0  0  0  0  0  2  0  0  0  0  0  0
  181.9780  178.9400  139.5240 C   0  0  0  0  0  0  0  0  0  0  0  0
  182.5320  176.3020  138.6740 C   0  0  0  0  0  3  0  0  0  0  0  0
  181.8940  176.4760  139.8430 C   0  0  0  0  0  3  0  0  0  0  0  0
  181.9320  177.8170  140.5340 C   0  0  2  0  0  3  0  0  0  0  0  0
  181.3740  180.1280  139.7900 F   0  0  0  0  0  0  0  0  0  0  0  0
  180.8310  177.9530  141.3600 F   0  0  0  0  0  0  0  0  0  0  0  0
  182.6070  178.7600  138.3520 C   0  0  0  0  0  3  0  0  0  0  0  0
  183.2970  177.4500  138.0520 C   0  0  2  0  0  3  0  0  0  0  0  0
  189.5770  177.7010  137.3950 C   0  0  0  0  0  2  0  0  0  0  0  0
  188.8310  177.3640  138.5970 N   0  0  0  0  0  2  0  0  0  0  0  0
  188.9790  178.4770  139.5190 C   0  0  0  0  0  2  0  0  0  0  0  0
  189.7310  177.0970  141.3420 N   0  0  0  0  0  0  0  0  0  0  0  0
  188.9000  177.9770  140.9200 C   0  0  0  0  0  3  0  0  0  0  0  0
  189.6440  176.5360  142.9600 S   0  0  0  0  0  0  0  0  0  0  0  0
  188.2620  176.0080  143.2350 O   0  0  0  0  0  0  0  0  0  0  0  0
  190.6320  175.4180  143.1400 O   0  0  0  0  0  0  0  0  0  0  0  0
  191.5040  177.7570  144.5670 C   0  0  0  0  0  2  0  0  0  0  0  0
  189.5390  176.8710  146.3370 C   0  0  2  0  0  3  0  0  0  0  0  0
  190.0520  177.8620  144.0920 C   0  0  2  0  0  3  0  0  0  0  0  0
  189.0970  177.8870  145.2870 C   0  0  0  0  0  2  0  0  0  0  0  0
  188.6710  177.0070  147.5700 C   0  0  0  0  0  1  0  0  0  0  0  0
  190.8810  177.1150  146.6740 O   0  0  0  0  0  0  0  0  0  0  0  0
  191.6160  176.7210  145.5950 N   0  0  0  0  0  2  0  0  0  0  0  0
  1 14  1  6  0  0  0
  1 30  1  0  0  0  0
  2  1  1  0  0  0  0
  2  4  1  0  0  0  0
  4  3  2  0  0  0  0
  6 12  1  0  0  0  0
  6  5  1  0  0  0  0
  7  4  1  0  0  0  0
  7  9  1  0  0  0  0
  8  6  1  0  0  0  0
  9 12  1  0  0  0  0
 10 11  1  0  0  0  0
 10  8  2  0  0  0  0
 11  7  2  0  0  0  0
 12 13  2  0  0  0  0
 14 15  1  0  0  0  0
 15 16  1  0  0  0  0
 18 17  1  1  0  0  0
 18 29  1  0  0  0  0
 19 17  1  6  0  0  0
 19 18  1  0  0  0  0
 19 20  1  0  0  0  0
 19 21  1  0  0  0  0
 20 16  1  6  0  0  0
 20 21  1  0  0  0  0
 22 26  1  0  0  0  0
 22 25  1  0  0  0  0
 23 24  2  0  0  0  0
 24 25  1  0  0  0  0
 25 27  1  6  0  0  0
 28 22  2  0  0  0  0
 29 28  1  6  0  0  0
 29 23  1  0  0  0  0
 30 31  1  0  0  0  0
 31 32  1  0  0  0  0
 32 34  1  0  0  0  0
 33 35  1  0  0  0  0
 34 33  2  0  0  0  0
 35 37  2  0  0  0  0
 35 36  2  0  0  0  0
 38 44  1  0  0  0  0
 39 43  1  0  0  0  0
 39 42  1  1  0  0  0
 40 35  1  6  0  0  0
 40 38  1  0  0  0  0
 40 41  1  0  0  0  0
 41 39  1  0  0  0  0
 44 43  1  0  0  0  0
M  END
>  <MODEL>
9

>  <REMARK>
 VINA RESULT:      -7.4      3.501      6.499
  Name = 
  13 active torsions:
  status: ('A' for Active; 'I' for Inactive)
    1  A    between atoms: C_1  and  N_17
    2  A    between atoms: C_1  and  C_34
    3  A    between atoms: N_2  and  C_29
    4  A    between atoms: C_8  and  C_33
    5  A    between atoms: C_11  and  S_21
    6  A    between atoms: C_14  and  C_43
    7  A    between atoms: N_17  and  C_42
    8  A    between atoms: N_18  and  C_22
    9  A    between atoms: N_18  and  C_25
   10  A    between atoms: S_21  and  N_26
   11  A    between atoms: C_22  and  C_23
   12  A    between atoms: C_25  and  C_29
   13  A    between atoms: C_29  and  C_42
                            x       y       z     vdW  Elec       q    Type
                         _______ _______ _______ _____ _____    ______ ____

>  <TORSDO>
F 13

$$$$
