=
 OpenBabel11032420083D

 28 30  0  0  1  0  0  0  0  0999 V2000
  189.0610  178.1470  141.6220 N   0  0  0  0  0  2  0  0  0  0  0  0
  190.7740  179.3400  143.4030 F   0  0  0  0  0  0  0  0  0  0  0  0
  189.9880  178.3150  143.8170 C   0  0  0  0  0  3  0  0  0  0  0  0
  189.1470  177.7160  142.9830 C   0  0  0  0  0  0  0  0  0  0  0  0
  188.1370  176.3630  143.5910 S   0  0  0  0  0  0  0  0  0  0  0  0
  185.3790  179.5510  141.5300 N   0  0  0  0  0  1  0  0  0  0  0  0
  184.4540  179.5520  143.8310 N   0  0  0  0  0  2  0  0  0  0  0  0
  186.1100  178.0930  143.2280 C   0  0  0  0  0  0  0  0  0  0  0  0
  187.6970  177.6580  146.5000 C   0  0  0  0  0  1  0  0  0  0  0  0
  185.2310  178.9310  142.8010 C   0  0  0  0  0  0  0  0  0  0  0  0
  186.8100  177.4540  144.1010 C   0  0  0  0  0  0  0  0  0  0  0  0
  185.5330  178.6060  145.9220 C   0  0  0  0  0  3  0  0  0  0  0  0
  184.2510  178.9050  145.1420 C   0  0  0  0  0  2  0  0  0  0  0  0
  186.6160  177.9020  145.5050 C   0  0  0  0  0  0  0  0  0  0  0  0
  188.6270  177.2910  140.5970 N   0  0  0  0  0  2  0  0  0  0  0  0
  188.3570  178.1540  138.2340 C   0  0  2  0  0  3  0  0  0  0  0  0
  189.2470  177.7180  139.3420 C   0  0  1  0  0  0  0  0  0  0  0  0
  189.0390  179.0790  139.0580 O   0  0  0  0  0  0  0  0  0  0  0  0
  190.8250  176.4730  137.8430 C   0  0  0  0  0  3  0  0  0  0  0  0
  194.4380  175.7650  138.0930 O   0  0  0  0  0  1  0  0  0  0  0  0
  193.1730  176.2490  138.3970 C   0  0  0  0  0  0  0  0  0  0  0  0
  191.6950  177.4800  139.8680 C   0  0  0  0  0  3  0  0  0  0  0  0
  192.1000  175.9870  137.5380 C   0  0  0  0  0  3  0  0  0  0  0  0
  190.6200  177.2270  139.0050 C   0  0  0  0  0  0  0  0  0  0  0  0
  192.9700  176.9930  139.5620 C   0  0  0  0  0  3  0  0  0  0  0  0
  186.8820  178.1470  138.6070 C   0  0  0  0  0  2  0  0  0  0  0  0
  186.9520  177.6600  136.1870 C   0  0  0  0  0  1  0  0  0  0  0  0
  186.0520  177.7680  137.4000 C   0  0  0  0  0  2  0  0  0  0  0  0
  1  4  1  0  0  0  0
  2  3  1  0  0  0  0
  4  5  1  0  0  0  0
  4  3  2  0  0  0  0
  5 11  1  0  0  0  0
  6 10  1  0  0  0  0
  7 13  1  0  0  0  0
  8 11  2  0  0  0  0
 10  8  2  0  0  0  0
 10  7  1  0  0  0  0
 11 14  1  0  0  0  0
 13 12  1  0  0  0  0
 14 12  2  0  0  0  0
 14  9  1  0  0  0  0
 15  1  1  0  0  0  0
 16 26  1  1  0  0  0
 16 18  1  0  0  0  0
 16 17  1  0  0  0  0
 17 15  1  1  0  0  0
 18 17  1  0  0  0  0
 19 24  1  0  0  0  0
 20 21  1  0  0  0  0
 21 25  2  0  0  0  0
 23 19  2  0  0  0  0
 23 21  1  0  0  0  0
 24 17  1  0  0  0  0
 24 22  2  0  0  0  0
 25 22  1  0  0  0  0
 27 28  1  0  0  0  0
 28 26  1  0  0  0  0
M  END
>  <MODEL>
1

>  <REMARK>
 VINA RESULT:      -7.7      0.000      0.000
  Name = 
  8 active torsions:
  status: ('A' for Active; 'I' for Inactive)
    1  A    between atoms: C_3  and  C_5
    2  A    between atoms: C_3  and  C_23
    3  A    between atoms: C_9  and  N_16
    4  A    between atoms: C_9  and  C_20
    5  A    between atoms: N_15  and  N_16
    6  A    between atoms: N_15  and  C_28
    7  A    between atoms: S_19  and  C_22
    8  A    between atoms: S_19  and  C_28
                            x       y       z     vdW  Elec       q    Type
                         _______ _______ _______ _____ _____    ______ ____

>  <TORSDO>
F 8

$$$$
=
 OpenBabel11032420083D

 28 30  0  0  1  0  0  0  0  0999 V2000
  189.4030  177.1000  141.7120 N   0  0  0  0  0  2  0  0  0  0  0  0
  192.1380  177.0950  141.9350 F   0  0  0  0  0  0  0  0  0  0  0  0
  191.5630  177.4780  140.7680 C   0  0  0  0  0  3  0  0  0  0  0  0
  190.2440  177.4920  140.6240 C   0  0  0  0  0  0  0  0  0  0  0  0
  189.5460  178.0140  139.0560 S   0  0  0  0  0  0  0  0  0  0  0  0
  193.6570  176.6940  137.2200 N   0  0  0  0  0  1  0  0  0  0  0  0
  192.2900  174.6670  136.8060 N   0  0  0  0  0  2  0  0  0  0  0  0
  191.4420  176.4420  137.9730 C   0  0  0  0  0  0  0  0  0  0  0  0
  187.8970  176.0100  137.1580 C   0  0  0  0  0  1  0  0  0  0  0  0
  192.5070  175.9040  137.4940 C   0  0  0  0  0  0  0  0  0  0  0  0
  190.1780  176.5800  138.1860 C   0  0  0  0  0  0  0  0  0  0  0  0
  189.7630  174.4720  136.8970 C   0  0  0  0  0  3  0  0  0  0  0  0
  191.1260  173.8100  137.1060 C   0  0  0  0  0  2  0  0  0  0  0  0
  189.3110  175.6360  137.4320 C   0  0  0  0  0  0  0  0  0  0  0  0
  188.9130  178.0290  142.6440 N   0  0  0  0  0  2  0  0  0  0  0  0
  187.0470  177.2330  144.1590 C   0  0  2  0  0  3  0  0  0  0  0  0
  188.5000  177.3050  143.8480 C   0  0  1  0  0  0  0  0  0  0  0  0
  187.7430  176.1530  143.5670 O   0  0  0  0  0  0  0  0  0  0  0  0
  190.7930  176.7350  144.6880 C   0  0  0  0  0  3  0  0  0  0  0  0
  192.2110  176.5620  148.0900 O   0  0  0  0  0  1  0  0  0  0  0  0
  191.3040  176.7510  147.0550 C   0  0  0  0  0  0  0  0  0  0  0  0
  189.0800  177.3300  146.2950 C   0  0  0  0  0  3  0  0  0  0  0  0
  191.7050  176.5470  145.7300 C   0  0  0  0  0  3  0  0  0  0  0  0
  189.4790  177.1350  144.9660 C   0  0  0  0  0  0  0  0  0  0  0  0
  189.9920  177.1410  147.3370 C   0  0  0  0  0  3  0  0  0  0  0  0
  186.1720  177.8980  143.1060 C   0  0  0  0  0  2  0  0  0  0  0  0
  185.2390  178.5980  145.2820 C   0  0  0  0  0  1  0  0  0  0  0  0
  185.1300  178.7630  143.7820 C   0  0  0  0  0  2  0  0  0  0  0  0
  1 15  1  0  0  0  0
  3  2  1  0  0  0  0
  4  3  2  0  0  0  0
  4  1  1  0  0  0  0
  5  4  1  0  0  0  0
  6 10  1  0  0  0  0
  7 13  1  0  0  0  0
  7 10  1  0  0  0  0
  8 11  2  0  0  0  0
  9 14  1  0  0  0  0
 10  8  2  0  0  0  0
 11  5  1  0  0  0  0
 12 13  1  0  0  0  0
 12 14  2  0  0  0  0
 14 11  1  0  0  0  0
 16 26  1  6  0  0  0
 17 15  1  6  0  0  0
 17 16  1  0  0  0  0
 17 24  1  0  0  0  0
 18 17  1  0  0  0  0
 18 16  1  0  0  0  0
 19 24  2  0  0  0  0
 19 23  1  0  0  0  0
 21 25  1  0  0  0  0
 21 20  1  0  0  0  0
 22 25  2  0  0  0  0
 23 21  2  0  0  0  0
 24 22  1  0  0  0  0
 26 28  1  0  0  0  0
 28 27  1  0  0  0  0
M  END
>  <MODEL>
2

>  <REMARK>
 VINA RESULT:      -7.6      3.291      7.559
  Name = 
  8 active torsions:
  status: ('A' for Active; 'I' for Inactive)
    1  A    between atoms: C_3  and  C_5
    2  A    between atoms: C_3  and  C_23
    3  A    between atoms: C_9  and  N_16
    4  A    between atoms: C_9  and  C_20
    5  A    between atoms: N_15  and  N_16
    6  A    between atoms: N_15  and  C_28
    7  A    between atoms: S_19  and  C_22
    8  A    between atoms: S_19  and  C_28
                            x       y       z     vdW  Elec       q    Type
                         _______ _______ _______ _____ _____    ______ ____

>  <TORSDO>
F 8

$$$$
=
 OpenBabel11032420083D

 28 30  0  0  1  0  0  0  0  0999 V2000
  188.3280  177.3420  141.8030 N   0  0  0  0  0  2  0  0  0  0  0  0
  190.6300  175.8500  141.8830 F   0  0  0  0  0  0  0  0  0  0  0  0
  190.4090  176.6820  140.8350 C   0  0  0  0  0  3  0  0  0  0  0  0
  189.3080  177.4180  140.7630 C   0  0  0  0  0  0  0  0  0  0  0  0
  189.0770  178.5030  139.3520 S   0  0  0  0  0  0  0  0  0  0  0  0
  191.2560  175.6630  136.3180 N   0  0  0  0  0  1  0  0  0  0  0  0
  188.9510  174.7530  136.2370 N   0  0  0  0  0  2  0  0  0  0  0  0
  189.5020  176.4360  137.6840 C   0  0  0  0  0  0  0  0  0  0  0  0
  186.2250  178.0520  137.9410 C   0  0  0  0  0  1  0  0  0  0  0  0
  189.9580  175.5370  136.8850 C   0  0  0  0  0  0  0  0  0  0  0  0
  188.6060  177.1550  138.2690 C   0  0  0  0  0  0  0  0  0  0  0  0
  186.8280  175.8640  137.0660 C   0  0  0  0  0  3  0  0  0  0  0  0
  187.6120  174.5720  136.8290 C   0  0  0  0  0  2  0  0  0  0  0  0
  187.2210  176.9600  137.7640 C   0  0  0  0  0  0  0  0  0  0  0  0
  188.3100  178.2500  142.8740 N   0  0  0  0  0  2  0  0  0  0  0  0
  186.6020  177.5080  144.5870 C   0  0  2  0  0  3  0  0  0  0  0  0
  188.0080  177.5140  144.1020 C   0  0  1  0  0  0  0  0  0  0  0  0
  187.1610  176.4110  143.8910 O   0  0  0  0  0  0  0  0  0  0  0  0
  188.8150  177.2070  146.4560 C   0  0  0  0  0  3  0  0  0  0  0  0
  192.1780  176.6450  147.8670 O   0  0  0  0  0  1  0  0  0  0  0  0
  191.1600  176.8500  146.9450 C   0  0  0  0  0  0  0  0  0  0  0  0
  190.4300  177.1200  144.6530 C   0  0  0  0  0  3  0  0  0  0  0  0
  189.8400  176.9990  147.3840 C   0  0  0  0  0  3  0  0  0  0  0  0
  189.1050  177.2610  145.0870 C   0  0  0  0  0  0  0  0  0  0  0  0
  191.4550  176.9130  145.5810 C   0  0  0  0  0  3  0  0  0  0  0  0
  185.6430  178.2470  143.6660 C   0  0  0  0  0  2  0  0  0  0  0  0
  184.8070  178.6650  145.9510 C   0  0  0  0  0  1  0  0  0  0  0  0
  184.6420  179.0270  144.4910 C   0  0  0  0  0  2  0  0  0  0  0  0
  1 15  1  0  0  0  0
  3  2  1  0  0  0  0
  4  3  2  0  0  0  0
  4  1  1  0  0  0  0
  5  4  1  0  0  0  0
  6 10  1  0  0  0  0
  7 13  1  0  0  0  0
  7 10  1  0  0  0  0
  8 11  2  0  0  0  0
 10  8  2  0  0  0  0
 11  5  1  0  0  0  0
 12 14  2  0  0  0  0
 13 12  1  0  0  0  0
 14  9  1  0  0  0  0
 14 11  1  0  0  0  0
 16 26  1  6  0  0  0
 17 15  1  6  0  0  0
 17 16  1  0  0  0  0
 17 24  1  0  0  0  0
 18 17  1  0  0  0  0
 18 16  1  0  0  0  0
 19 23  1  0  0  0  0
 21 23  2  0  0  0  0
 21 20  1  0  0  0  0
 22 24  1  0  0  0  0
 22 25  2  0  0  0  0
 24 19  2  0  0  0  0
 25 21  1  0  0  0  0
 26 28  1  0  0  0  0
 28 27  1  0  0  0  0
M  END
>  <MODEL>
3

>  <REMARK>
 VINA RESULT:      -7.5      3.197      7.226
  Name = 
  8 active torsions:
  status: ('A' for Active; 'I' for Inactive)
    1  A    between atoms: C_3  and  C_5
    2  A    between atoms: C_3  and  C_23
    3  A    between atoms: C_9  and  N_16
    4  A    between atoms: C_9  and  C_20
    5  A    between atoms: N_15  and  N_16
    6  A    between atoms: N_15  and  C_28
    7  A    between atoms: S_19  and  C_22
    8  A    between atoms: S_19  and  C_28
                            x       y       z     vdW  Elec       q    Type
                         _______ _______ _______ _____ _____    ______ ____

>  <TORSDO>
F 8

$$$$
=
 OpenBabel11032420083D

 28 30  0  0  1  0  0  0  0  0999 V2000
  188.5080  176.5500  142.6110 N   0  0  0  0  0  2  0  0  0  0  0  0
  191.2190  176.1340  142.7100 F   0  0  0  0  0  0  0  0  0  0  0  0
  190.7060  176.9760  141.7790 C   0  0  0  0  0  3  0  0  0  0  0  0
  189.4010  177.2010  141.7010 C   0  0  0  0  0  0  0  0  0  0  0  0
  188.7850  178.3300  140.4500 S   0  0  0  0  0  0  0  0  0  0  0  0
  192.5300  176.5370  138.2630 N   0  0  0  0  0  1  0  0  0  0  0  0
  190.6970  175.3030  137.1370 N   0  0  0  0  0  2  0  0  0  0  0  0
  190.2640  176.7310  138.8710 C   0  0  0  0  0  0  0  0  0  0  0  0
  186.8590  177.7170  137.9510 C   0  0  0  0  0  1  0  0  0  0  0  0
  191.1790  176.0940  138.2290 C   0  0  0  0  0  0  0  0  0  0  0  0
  189.0760  177.1670  139.1180 C   0  0  0  0  0  0  0  0  0  0  0  0
  188.2260  175.8720  137.1490 C   0  0  0  0  0  3  0  0  0  0  0  0
  189.3120  174.7960  137.1030 C   0  0  0  0  0  2  0  0  0  0  0  0
  188.0680  176.8570  138.0700 C   0  0  0  0  0  0  0  0  0  0  0  0
  188.8730  176.2730  143.9380 N   0  0  0  0  0  2  0  0  0  0  0  0
  189.5530  177.8510  145.7960 C   0  0  2  0  0  3  0  0  0  0  0  0
  188.5670  177.4460  144.7590 C   0  0  1  0  0  0  0  0  0  0  0  0
  189.4590  178.5140  144.5500 O   0  0  0  0  0  0  0  0  0  0  0  0
  186.3580  178.1400  143.7960 C   0  0  0  0  0  3  0  0  0  0  0  0
  183.1730  179.1310  145.3720 O   0  0  0  0  0  1  0  0  0  0  0  0
  184.4880  178.7120  145.2250 C   0  0  0  0  0  0  0  0  0  0  0  0
  186.5930  178.0270  146.2050 C   0  0  0  0  0  3  0  0  0  0  0  0
  185.0330  178.5590  143.9450 C   0  0  0  0  0  3  0  0  0  0  0  0
  187.1410  177.8650  144.9250 C   0  0  0  0  0  0  0  0  0  0  0  0
  185.2680  178.4480  146.3540 C   0  0  0  0  0  3  0  0  0  0  0  0
  190.8050  176.9880  145.8080 C   0  0  0  0  0  2  0  0  0  0  0  0
  192.3030  175.6240  147.2200 C   0  0  0  0  0  1  0  0  0  0  0  0
  191.1320  176.5830  147.2290 C   0  0  0  0  0  2  0  0  0  0  0  0
  1 15  1  0  0  0  0
  3  2  1  0  0  0  0
  4  3  2  0  0  0  0
  4  1  1  0  0  0  0
  5  4  1  0  0  0  0
  7 10  1  0  0  0  0
  8 11  2  0  0  0  0
  9 14  1  0  0  0  0
 10  6  1  0  0  0  0
 10  8  2  0  0  0  0
 11  5  1  0  0  0  0
 12 14  2  0  0  0  0
 13  7  1  0  0  0  0
 13 12  1  0  0  0  0
 14 11  1  0  0  0  0
 16 26  1  6  0  0  0
 17 15  1  6  0  0  0
 17 24  1  0  0  0  0
 17 16  1  0  0  0  0
 18 17  1  0  0  0  0
 18 16  1  0  0  0  0
 19 23  2  0  0  0  0
 19 24  1  0  0  0  0
 21 20  1  0  0  0  0
 21 25  2  0  0  0  0
 22 25  1  0  0  0  0
 23 21  1  0  0  0  0
 24 22  2  0  0  0  0
 26 28  1  0  0  0  0
 27 28  1  0  0  0  0
M  END
>  <MODEL>
4

>  <REMARK>
 VINA RESULT:      -7.2      3.051      8.126
  Name = 
  8 active torsions:
  status: ('A' for Active; 'I' for Inactive)
    1  A    between atoms: C_3  and  C_5
    2  A    between atoms: C_3  and  C_23
    3  A    between atoms: C_9  and  N_16
    4  A    between atoms: C_9  and  C_20
    5  A    between atoms: N_15  and  N_16
    6  A    between atoms: N_15  and  C_28
    7  A    between atoms: S_19  and  C_22
    8  A    between atoms: S_19  and  C_28
                            x       y       z     vdW  Elec       q    Type
                         _______ _______ _______ _____ _____    ______ ____

>  <TORSDO>
F 8

$$$$
=
 OpenBabel11032420083D

 28 30  0  0  1  0  0  0  0  0999 V2000
  189.7990  178.4240  144.1520 N   0  0  0  0  0  2  0  0  0  0  0  0
  192.4100  178.7260  143.3650 F   0  0  0  0  0  0  0  0  0  0  0  0
  191.6810  177.6920  142.8770 C   0  0  0  0  0  3  0  0  0  0  0  0
  190.4160  177.5150  143.2360 C   0  0  0  0  0  0  0  0  0  0  0  0
  189.5030  176.1290  142.5510 S   0  0  0  0  0  0  0  0  0  0  0  0
  192.6080  176.7540  139.0890 N   0  0  0  0  0  1  0  0  0  0  0  0
  190.5410  177.6130  138.0230 N   0  0  0  0  0  2  0  0  0  0  0  0
  190.4880  176.6770  140.1090 C   0  0  0  0  0  0  0  0  0  0  0  0
  187.6090  178.4890  141.4660 C   0  0  0  0  0  1  0  0  0  0  0  0
  191.1900  176.8490  139.0440 C   0  0  0  0  0  0  0  0  0  0  0  0
  189.4840  176.8310  140.9020 C   0  0  0  0  0  0  0  0  0  0  0  0
  188.3730  178.2570  139.1690 C   0  0  0  0  0  3  0  0  0  0  0  0
  189.0700  177.6900  137.9310 C   0  0  0  0  0  2  0  0  0  0  0  0
  188.4830  177.8340  140.4540 C   0  0  0  0  0  0  0  0  0  0  0  0
  190.2620  178.5790  145.4690 N   0  0  0  0  0  2  0  0  0  0  0  0
  189.9050  176.5430  146.9280 C   0  0  2  0  0  3  0  0  0  0  0  0
  189.3880  177.8170  146.3610 C   0  0  1  0  0  0  0  0  0  0  0  0
  189.8750  177.7410  147.6790 O   0  0  0  0  0  0  0  0  0  0  0  0
  187.2370  177.6970  145.0790 C   0  0  0  0  0  3  0  0  0  0  0  0
  183.7760  178.6270  145.9560 O   0  0  0  0  0  1  0  0  0  0  0  0
  185.1450  178.4240  146.0600 C   0  0  0  0  0  0  0  0  0  0  0  0
  187.1910  178.5400  147.3490 C   0  0  0  0  0  3  0  0  0  0  0  0
  185.8580  177.9010  144.9750 C   0  0  0  0  0  3  0  0  0  0  0  0
  187.9070  178.0090  146.2680 C   0  0  0  0  0  0  0  0  0  0  0  0
  185.8120  178.7450  147.2450 C   0  0  0  0  0  3  0  0  0  0  0  0
  191.3410  176.2430  146.5260 C   0  0  0  0  0  2  0  0  0  0  0  0
  192.8440  176.0030  148.4710 C   0  0  0  0  0  1  0  0  0  0  0  0
  191.9500  175.2590  147.5020 C   0  0  0  0  0  2  0  0  0  0  0  0
  1 15  1  0  0  0  0
  3  4  2  0  0  0  0
  3  2  1  0  0  0  0
  4  1  1  0  0  0  0
  5  4  1  0  0  0  0
  7 10  1  0  0  0  0
  8 11  2  0  0  0  0
 10  6  1  0  0  0  0
 10  8  2  0  0  0  0
 11  5  1  0  0  0  0
 12 14  2  0  0  0  0
 13  7  1  0  0  0  0
 13 12  1  0  0  0  0
 14 11  1  0  0  0  0
 14  9  1  0  0  0  0
 16 26  1  6  0  0  0
 16 18  1  0  0  0  0
 17 15  1  6  0  0  0
 17 16  1  0  0  0  0
 17 18  1  0  0  0  0
 19 24  1  0  0  0  0
 20 21  1  0  0  0  0
 21 25  2  0  0  0  0
 23 19  2  0  0  0  0
 23 21  1  0  0  0  0
 24 17  1  0  0  0  0
 24 22  2  0  0  0  0
 25 22  1  0  0  0  0
 26 28  1  0  0  0  0
 28 27  1  0  0  0  0
M  END
>  <MODEL>
5

>  <REMARK>
 VINA RESULT:      -7.1      3.411      8.080
  Name = 
  8 active torsions:
  status: ('A' for Active; 'I' for Inactive)
    1  A    between atoms: C_3  and  C_5
    2  A    between atoms: C_3  and  C_23
    3  A    between atoms: C_9  and  N_16
    4  A    between atoms: C_9  and  C_20
    5  A    between atoms: N_15  and  N_16
    6  A    between atoms: N_15  and  C_28
    7  A    between atoms: S_19  and  C_22
    8  A    between atoms: S_19  and  C_28
                            x       y       z     vdW  Elec       q    Type
                         _______ _______ _______ _____ _____    ______ ____

>  <TORSDO>
F 8

$$$$
=
 OpenBabel11032420083D

 28 30  0  0  1  0  0  0  0  0999 V2000
  189.3130  177.7470  141.8800 N   0  0  0  0  0  2  0  0  0  0  0  0
  186.9510  178.9290  141.1360 F   0  0  0  0  0  0  0  0  0  0  0  0
  187.7210  178.3250  140.1970 C   0  0  0  0  0  3  0  0  0  0  0  0
  188.8690  177.7440  140.5200 C   0  0  0  0  0  0  0  0  0  0  0  0
  189.8390  176.9570  139.2310 S   0  0  0  0  0  0  0  0  0  0  0  0
  187.3130  173.7810  136.8760 N   0  0  0  0  0  1  0  0  0  0  0  0
  186.1880  175.8790  136.1830 N   0  0  0  0  0  2  0  0  0  0  0  0
  187.8730  175.9020  137.7300 C   0  0  0  0  0  0  0  0  0  0  0  0
  189.1580  179.2760  137.1120 C   0  0  0  0  0  1  0  0  0  0  0  0
  187.0460  175.1630  137.0770 C   0  0  0  0  0  0  0  0  0  0  0  0
  188.4850  176.9880  138.0580 C   0  0  0  0  0  0  0  0  0  0  0  0
  187.0650  178.2460  136.4230 C   0  0  0  0  0  3  0  0  0  0  0  0
  185.8620  177.3020  136.3980 C   0  0  0  0  0  2  0  0  0  0  0  0
  188.1730  178.1630  137.2030 C   0  0  0  0  0  0  0  0  0  0  0  0
  188.8590  176.8000  142.8120 N   0  0  0  0  0  2  0  0  0  0  0  0
  189.7550  177.2570  145.1340 C   0  0  2  0  0  3  0  0  0  0  0  0
  188.6990  177.4620  144.1070 C   0  0  1  0  0  0  0  0  0  0  0  0
  189.6840  178.4360  144.3550 O   0  0  0  0  0  0  0  0  0  0  0  0
  186.2820  177.9310  143.6310 C   0  0  0  0  0  3  0  0  0  0  0  0
  183.5020  179.0350  145.7900 O   0  0  0  0  0  1  0  0  0  0  0  0
  184.7700  178.6450  145.3830 C   0  0  0  0  0  0  0  0  0  0  0  0
  187.0900  178.1850  145.9000 C   0  0  0  0  0  3  0  0  0  0  0  0
  185.0050  178.3220  144.0420 C   0  0  0  0  0  3  0  0  0  0  0  0
  187.3270  177.8530  144.5590 C   0  0  0  0  0  0  0  0  0  0  0  0
  185.8130  178.5780  146.3110 C   0  0  0  0  0  3  0  0  0  0  0  0
  190.9150  176.4040  144.6440 C   0  0  0  0  0  2  0  0  0  0  0  0
  191.2150  176.5410  147.0910 C   0  0  0  0  0  1  0  0  0  0  0  0
  191.8690  176.1340  145.7880 C   0  0  0  0  0  2  0  0  0  0  0  0
  1 15  1  0  0  0  0
  3  4  2  0  0  0  0
  3  2  1  0  0  0  0
  4  1  1  0  0  0  0
  5  4  1  0  0  0  0
  6 10  1  0  0  0  0
  7 13  1  0  0  0  0
  7 10  1  0  0  0  0
  8 11  2  0  0  0  0
  9 14  1  0  0  0  0
 10  8  2  0  0  0  0
 11  5  1  0  0  0  0
 12 14  2  0  0  0  0
 13 12  1  0  0  0  0
 14 11  1  0  0  0  0
 16 26  1  6  0  0  0
 17 15  1  6  0  0  0
 17 18  1  0  0  0  0
 17 24  1  0  0  0  0
 17 16  1  0  0  0  0
 18 16  1  0  0  0  0
 19 23  2  0  0  0  0
 19 24  1  0  0  0  0
 21 20  1  0  0  0  0
 21 25  2  0  0  0  0
 22 25  1  0  0  0  0
 23 21  1  0  0  0  0
 24 22  2  0  0  0  0
 26 28  1  0  0  0  0
 28 27  1  0  0  0  0
M  END
>  <MODEL>
6

>  <REMARK>
 VINA RESULT:      -7.1      3.168      7.892
  Name = 
  8 active torsions:
  status: ('A' for Active; 'I' for Inactive)
    1  A    between atoms: C_3  and  C_5
    2  A    between atoms: C_3  and  C_23
    3  A    between atoms: C_9  and  N_16
    4  A    between atoms: C_9  and  C_20
    5  A    between atoms: N_15  and  N_16
    6  A    between atoms: N_15  and  C_28
    7  A    between atoms: S_19  and  C_22
    8  A    between atoms: S_19  and  C_28
                            x       y       z     vdW  Elec       q    Type
                         _______ _______ _______ _____ _____    ______ ____

>  <TORSDO>
F 8

$$$$
=
 OpenBabel11032420083D

 28 30  0  0  1  0  0  0  0  0999 V2000
  188.1560  177.7570  141.2010 N   0  0  0  0  0  2  0  0  0  0  0  0
  190.1980  176.0040  141.7330 F   0  0  0  0  0  0  0  0  0  0  0  0
  190.2330  176.7450  140.5970 C   0  0  0  0  0  3  0  0  0  0  0  0
  189.2620  177.6020  140.3080 C   0  0  0  0  0  0  0  0  0  0  0  0
  189.3680  178.5570  138.7920 S   0  0  0  0  0  0  0  0  0  0  0  0
  184.7450  178.8430  139.5420 N   0  0  0  0  0  1  0  0  0  0  0  0
  184.8090  177.2850  137.6140 N   0  0  0  0  0  2  0  0  0  0  0  0
  186.7230  178.2520  138.4110 C   0  0  0  0  0  0  0  0  0  0  0  0
  189.1120  175.6470  137.4530 C   0  0  0  0  0  1  0  0  0  0  0  0
  185.4370  178.2730  138.4380 C   0  0  0  0  0  0  0  0  0  0  0  0
  187.8930  177.8090  138.1020 C   0  0  0  0  0  0  0  0  0  0  0  0
  186.8160  176.0070  136.7360 C   0  0  0  0  0  3  0  0  0  0  0  0
  185.4930  176.7130  136.4370 C   0  0  0  0  0  2  0  0  0  0  0  0
  187.8980  176.5060  137.3860 C   0  0  0  0  0  0  0  0  0  0  0  0
  188.2020  178.6350  142.2960 N   0  0  0  0  0  2  0  0  0  0  0  0
  186.4820  177.8740  143.9890 C   0  0  2  0  0  3  0  0  0  0  0  0
  187.8900  177.8800  143.5110 C   0  0  1  0  0  0  0  0  0  0  0  0
  187.0380  176.7860  143.2770 O   0  0  0  0  0  0  0  0  0  0  0  0
  190.3190  177.7840  144.1230 C   0  0  0  0  0  3  0  0  0  0  0  0
  192.0550  176.7510  147.2100 O   0  0  0  0  0  1  0  0  0  0  0  0
  191.0360  177.0320  146.3110 C   0  0  0  0  0  0  0  0  0  0  0  0
  188.6760  177.1270  145.7780 C   0  0  0  0  0  3  0  0  0  0  0  0
  191.3450  177.5020  145.0300 C   0  0  0  0  0  3  0  0  0  0  0  0
  188.9820  177.6050  144.4960 C   0  0  0  0  0  0  0  0  0  0  0  0
  189.7030  176.8430  146.6840 C   0  0  0  0  0  3  0  0  0  0  0  0
  185.5310  178.6330  143.0760 C   0  0  0  0  0  2  0  0  0  0  0  0
  183.6840  178.9730  144.6790 C   0  0  0  0  0  1  0  0  0  0  0  0
  184.7670  179.6640  143.8790 C   0  0  0  0  0  2  0  0  0  0  0  0
  1 15  1  0  0  0  0
  3  2  1  0  0  0  0
  4  3  2  0  0  0  0
  4  1  1  0  0  0  0
  5  4  1  0  0  0  0
  7 10  1  0  0  0  0
  8 10  2  0  0  0  0
 10  6  1  0  0  0  0
 11  8  2  0  0  0  0
 11  5  1  0  0  0  0
 12 14  2  0  0  0  0
 13 12  1  0  0  0  0
 13  7  1  0  0  0  0
 14  9  1  0  0  0  0
 14 11  1  0  0  0  0
 16 26  1  6  0  0  0
 17 15  1  6  0  0  0
 17 16  1  0  0  0  0
 17 24  1  0  0  0  0
 18 17  1  0  0  0  0
 18 16  1  0  0  0  0
 19 24  2  0  0  0  0
 19 23  1  0  0  0  0
 21 25  1  0  0  0  0
 21 20  1  0  0  0  0
 22 25  2  0  0  0  0
 23 21  2  0  0  0  0
 24 22  1  0  0  0  0
 26 28  1  0  0  0  0
 28 27  1  0  0  0  0
M  END
>  <MODEL>
7

>  <REMARK>
 VINA RESULT:      -7.0      2.916      6.449
  Name = 
  8 active torsions:
  status: ('A' for Active; 'I' for Inactive)
    1  A    between atoms: C_3  and  C_5
    2  A    between atoms: C_3  and  C_23
    3  A    between atoms: C_9  and  N_16
    4  A    between atoms: C_9  and  C_20
    5  A    between atoms: N_15  and  N_16
    6  A    between atoms: N_15  and  C_28
    7  A    between atoms: S_19  and  C_22
    8  A    between atoms: S_19  and  C_28
                            x       y       z     vdW  Elec       q    Type
                         _______ _______ _______ _____ _____    ______ ____

>  <TORSDO>
F 8

$$$$
=
 OpenBabel11032420083D

 28 30  0  0  1  0  0  0  0  0999 V2000
  188.6460  178.5600  142.4890 N   0  0  0  0  0  2  0  0  0  0  0  0
  190.7830  180.1050  143.2480 F   0  0  0  0  0  0  0  0  0  0  0  0
  190.6630  178.8450  143.7360 C   0  0  0  0  0  3  0  0  0  0  0  0
  189.6420  178.0700  143.3910 C   0  0  0  0  0  0  0  0  0  0  0  0
  189.5420  176.4110  144.0670 S   0  0  0  0  0  0  0  0  0  0  0  0
  185.9640  179.0060  145.6420 N   0  0  0  0  0  1  0  0  0  0  0  0
  187.0510  178.3660  147.7770 N   0  0  0  0  0  2  0  0  0  0  0  0
  187.8060  177.5460  145.7790 C   0  0  0  0  0  0  0  0  0  0  0  0
  191.3190  177.0280  146.6730 C   0  0  0  0  0  1  0  0  0  0  0  0
  186.8480  178.1660  146.3740 C   0  0  0  0  0  0  0  0  0  0  0  0
  188.9620  176.9900  145.6610 C   0  0  0  0  0  0  0  0  0  0  0  0
  189.3830  177.4210  148.0920 C   0  0  0  0  0  3  0  0  0  0  0  0
  187.9300  177.4790  148.5640 C   0  0  0  0  0  2  0  0  0  0  0  0
  189.8450  177.1250  146.8500 C   0  0  0  0  0  0  0  0  0  0  0  0
  187.5330  177.7880  142.1200 N   0  0  0  0  0  2  0  0  0  0  0  0
  185.4220  178.7410  141.1000 C   0  0  2  0  0  3  0  0  0  0  0  0
  186.8730  178.4360  140.9860 C   0  0  1  0  0  0  0  0  0  0  0  0
  186.4140  179.7330  141.2810 O   0  0  0  0  0  0  0  0  0  0  0  0
  188.8600  178.2530  139.4670 C   0  0  0  0  0  3  0  0  0  0  0  0
  189.1580  177.9980  135.7990 O   0  0  0  0  0  1  0  0  0  0  0  0
  188.5970  178.0980  137.0650 C   0  0  0  0  0  0  0  0  0  0  0  0
  186.6440  178.2510  138.4880 C   0  0  0  0  0  3  0  0  0  0  0  0
  189.4240  178.1500  138.1920 C   0  0  0  0  0  3  0  0  0  0  0  0
  187.4690  178.2960  139.6200 C   0  0  0  0  0  0  0  0  0  0  0  0
  187.2080  178.1500  137.2120 C   0  0  0  0  0  3  0  0  0  0  0  0
  184.8330  178.3720  142.4540 C   0  0  0  0  0  2  0  0  0  0  0  0
  182.8940  179.0020  143.8460 C   0  0  0  0  0  1  0  0  0  0  0  0
  183.3420  178.6300  142.4490 C   0  0  0  0  0  2  0  0  0  0  0  0
  1  4  1  0  0  0  0
  2  3  1  0  0  0  0
  4  3  2  0  0  0  0
  4  5  1  0  0  0  0
  5 11  1  0  0  0  0
  6 10  1  0  0  0  0
  7 13  1  0  0  0  0
  8 10  2  0  0  0  0
  9 14  1  0  0  0  0
 10  7  1  0  0  0  0
 11  8  2  0  0  0  0
 11 14  1  0  0  0  0
 12 13  1  0  0  0  0
 14 12  2  0  0  0  0
 15  1  1  0  0  0  0
 16 18  1  0  0  0  0
 16 26  1  1  0  0  0
 17 16  1  0  0  0  0
 17 18  1  0  0  0  0
 17 15  1  1  0  0  0
 19 24  1  0  0  0  0
 20 21  1  0  0  0  0
 21 25  2  0  0  0  0
 21 23  1  0  0  0  0
 22 24  2  0  0  0  0
 23 19  2  0  0  0  0
 24 17  1  0  0  0  0
 25 22  1  0  0  0  0
 28 26  1  0  0  0  0
 28 27  1  0  0  0  0
M  END
>  <MODEL>
8

>  <REMARK>
 VINA RESULT:      -7.0      2.336      4.189
  Name = 
  8 active torsions:
  status: ('A' for Active; 'I' for Inactive)
    1  A    between atoms: C_3  and  C_5
    2  A    between atoms: C_3  and  C_23
    3  A    between atoms: C_9  and  N_16
    4  A    between atoms: C_9  and  C_20
    5  A    between atoms: N_15  and  N_16
    6  A    between atoms: N_15  and  C_28
    7  A    between atoms: S_19  and  C_22
    8  A    between atoms: S_19  and  C_28
                            x       y       z     vdW  Elec       q    Type
                         _______ _______ _______ _____ _____    ______ ____

>  <TORSDO>
F 8

$$$$
=
 OpenBabel11032420083D

 28 30  0  0  1  0  0  0  0  0999 V2000
  190.2850  176.3920  141.2760 N   0  0  0  0  0  2  0  0  0  0  0  0
  190.9230  174.5300  143.1880 F   0  0  0  0  0  0  0  0  0  0  0  0
  190.7480  175.8260  143.5500 C   0  0  0  0  0  3  0  0  0  0  0  0
  190.4400  176.7530  142.6520 C   0  0  0  0  0  0  0  0  0  0  0  0
  190.2170  178.4490  143.1940 S   0  0  0  0  0  0  0  0  0  0  0  0
  191.1250  176.4450  147.3390 N   0  0  0  0  0  1  0  0  0  0  0  0
  188.6990  176.9050  147.5640 N   0  0  0  0  0  2  0  0  0  0  0  0
  189.8620  177.5990  145.7210 C   0  0  0  0  0  0  0  0  0  0  0  0
  187.1300  177.5580  143.2820 C   0  0  0  0  0  1  0  0  0  0  0  0
  189.9550  177.1360  146.9180 C   0  0  0  0  0  0  0  0  0  0  0  0
  189.2700  177.9670  144.6370 C   0  0  0  0  0  0  0  0  0  0  0  0
  187.0620  177.4720  145.7120 C   0  0  0  0  0  3  0  0  0  0  0  0
  187.4820  177.6420  147.1730 C   0  0  0  0  0  2  0  0  0  0  0  0
  187.8090  177.6930  144.6000 C   0  0  0  0  0  0  0  0  0  0  0  0
  190.9380  177.0890  140.2470 N   0  0  0  0  0  2  0  0  0  0  0  0
  191.4710  176.2420  137.9230 C   0  0  2  0  0  3  0  0  0  0  0  0
  190.4610  176.5740  138.9630 C   0  0  1  0  0  0  0  0  0  0  0  0
  190.8570  175.2470  138.7180 O   0  0  0  0  0  0  0  0  0  0  0  0
  188.3890  177.9810  139.0790 C   0  0  0  0  0  3  0  0  0  0  0  0
  185.1170  177.7130  137.3950 O   0  0  0  0  0  1  0  0  0  0  0  0
  186.4240  177.4370  137.7710 C   0  0  0  0  0  0  0  0  0  0  0  0
  188.4070  176.0570  137.6060 C   0  0  0  0  0  3  0  0  0  0  0  0
  187.0730  178.2590  138.6980 C   0  0  0  0  0  3  0  0  0  0  0  0
  189.0630  176.8840  138.5290 C   0  0  0  0  0  0  0  0  0  0  0  0
  187.0910  176.3350  137.2270 C   0  0  0  0  0  3  0  0  0  0  0  0
  192.9060  176.4390  138.3900 C   0  0  0  0  0  2  0  0  0  0  0  0
  194.4700  174.5770  137.9640 C   0  0  0  0  0  1  0  0  0  0  0  0
  193.8590  175.8340  137.3830 C   0  0  0  0  0  2  0  0  0  0  0  0
  1  4  1  0  0  0  0
  2  3  1  0  0  0  0
  4  5  1  0  0  0  0
  4  3  2  0  0  0  0
  5 11  1  0  0  0  0
  8 10  2  0  0  0  0
  9 14  1  0  0  0  0
 10  6  1  0  0  0  0
 10  7  1  0  0  0  0
 11  8  2  0  0  0  0
 12 13  1  0  0  0  0
 13  7  1  0  0  0  0
 14 11  1  0  0  0  0
 14 12  2  0  0  0  0
 15  1  1  0  0  0  0
 16 26  1  1  0  0  0
 16 18  1  0  0  0  0
 16 17  1  0  0  0  0
 17 15  1  1  0  0  0
 18 17  1  0  0  0  0
 20 21  1  0  0  0  0
 21 23  2  0  0  0  0
 22 24  1  0  0  0  0
 23 19  1  0  0  0  0
 24 17  1  0  0  0  0
 24 19  2  0  0  0  0
 25 22  2  0  0  0  0
 25 21  1  0  0  0  0
 28 27  1  0  0  0  0
 28 26  1  0  0  0  0
M  END
>  <MODEL>
9

>  <REMARK>
 VINA RESULT:      -6.8      2.623      5.065
  Name = 
  8 active torsions:
  status: ('A' for Active; 'I' for Inactive)
    1  A    between atoms: C_3  and  C_5
    2  A    between atoms: C_3  and  C_23
    3  A    between atoms: C_9  and  N_16
    4  A    between atoms: C_9  and  C_20
    5  A    between atoms: N_15  and  N_16
    6  A    between atoms: N_15  and  C_28
    7  A    between atoms: S_19  and  C_22
    8  A    between atoms: S_19  and  C_28
                            x       y       z     vdW  Elec       q    Type
                         _______ _______ _______ _____ _____    ______ ____

>  <TORSDO>
F 8

$$$$
