=
 OpenBabel11042410413D

 38 42  0  0  1  0  0  0  0  0999 V2000
  184.0430  178.9740  145.9900 O   0  0  0  0  0  0  0  0  0  0  0  0
  185.8780  178.2130  144.9710 C   0  0  0  0  0  0  0  0  0  0  0  0
  187.9530  177.7890  146.0700 C   0  0  0  0  0  3  0  0  0  0  0  0
  182.5950  179.0400  144.0320 C   0  0  0  0  0  3  0  0  0  0  0  0
  186.0330  178.6280  147.3480 C   0  0  0  0  0  3  0  0  0  0  0  0
  185.3050  178.6200  146.1600 C   0  0  0  0  0  0  0  0  0  0  0  0
  187.3750  178.2040  147.2920 C   0  0  0  0  0  3  0  0  0  0  0  0
  184.8820  178.0770  142.7150 N   0  0  0  0  0  0  0  0  0  0  0  0
  184.8810  178.3370  144.0420 C   0  0  0  0  0  0  0  0  0  0  0  0
  183.7810  178.8040  144.7070 C   0  0  0  0  0  0  0  0  0  0  0  0
  183.7360  178.2760  141.9870 C   0  0  0  0  0  0  0  0  0  0  0  0
  182.5600  178.7740  142.6480 C   0  0  0  0  0  0  0  0  0  0  0  0
  187.1990  177.7890  144.8820 C   0  0  0  0  0  3  0  0  0  0  0  0
  183.0570  176.9280  139.9610 C   0  0  0  0  0  3  0  0  0  0  0  0
  183.7880  177.9810  140.5310 C   0  0  0  0  0  0  0  0  0  0  0  0
  184.6350  178.7380  139.7060 C   0  0  0  0  0  3  0  0  0  0  0  0
  184.7290  178.4640  138.3380 C   0  0  0  0  0  3  0  0  0  0  0  0
  183.9870  177.4240  137.7750 C   0  0  0  0  0  0  0  0  0  0  0  0
  183.1500  176.6520  138.5950 C   0  0  0  0  0  3  0  0  0  0  0  0
  184.0980  177.1620  136.3750 N   0  0  0  0  0  2  0  0  0  0  0  0
  184.7930  176.0020  135.8420 C   0  0  0  0  0  2  0  0  0  0  0  0
  185.9510  175.7080  136.6700 N   0  0  0  0  0  2  0  0  0  0  0  0
  187.3320  177.2440  135.5800 O   0  0  0  0  0  0  0  0  0  0  0  0
  187.1940  176.3870  136.4970 C   0  0  0  0  0  0  0  0  0  0  0  0
  189.0510  177.3170  137.8980 C   0  0  2  0  0  3  0  0  0  0  0  0
  190.6730  175.6560  138.7150 N   0  0  0  0  0  2  0  0  0  0  0  0
  190.5360  174.7730  137.5510 C   0  0  0  0  0  2  0  0  0  0  0  0
  190.5090  177.0440  138.2870 C   0  0  0  0  0  2  0  0  0  0  0  0
  188.3040  177.8830  139.0920 C   0  0  0  0  0  1  0  0  0  0  0  0
  188.3410  176.0500  137.3920 C   0  0  2  0  0  3  0  0  0  0  0  0
  189.3090  175.1040  136.6820 C   0  0  0  0  0  2  0  0  0  0  0  0
  181.2850  179.0690  141.9210 C   0  0  0  0  0  2  0  0  0  0  0  0
  179.2430  178.7570  143.1010 O   0  0  0  0  0  1  0  0  0  0  0  0
  180.2540  179.6870  142.8550 C   0  0  2  0  0  3  0  0  0  0  0  0
  179.6810  180.8760  142.2460 N   0  0  0  0  0  2  0  0  0  0  0  0
  179.4260  180.5690  140.9040 N   0  0  0  0  0  2  0  0  0  0  0  0
  179.2750  182.4420  139.1670 N   0  0  0  0  0  0  0  0  0  0  0  0
  179.3430  181.5940  139.9530 C   0  0  0  0  0  0  0  0  0  0  0  0
  1  6  1  0  0  0  0
  2  6  2  0  0  0  0
  3  7  1  0  0  0  0
  4 10  1  0  0  0  0
  6  5  1  0  0  0  0
  7  5  2  0  0  0  0
  8  9  1  0  0  0  0
  9 10  2  0  0  0  0
  9  2  1  0  0  0  0
 10  1  1  0  0  0  0
 11 12  1  0  0  0  0
 11  8  2  0  0  0  0
 12  4  2  0  0  0  0
 13  2  1  0  0  0  0
 13  3  2  0  0  0  0
 14 15  1  0  0  0  0
 15 11  1  0  0  0  0
 16 15  2  0  0  0  0
 17 16  1  0  0  0  0
 18 17  2  0  0  0  0
 18 19  1  0  0  0  0
 19 14  2  0  0  0  0
 20 18  1  0  0  0  0
 21 20  1  0  0  0  0
 21 22  1  0  0  0  0
 23 24  2  0  0  0  0
 24 22  1  0  0  0  0
 25 28  1  0  0  0  0
 25 29  1  1  0  0  0
 27 26  1  0  0  0  0
 28 26  1  0  0  0  0
 30 24  1  6  0  0  0
 30 25  1  0  0  0  0
 31 30  1  0  0  0  0
 31 27  1  0  0  0  0
 32 12  1  0  0  0  0
 32 34  1  0  0  0  0
 34 33  1  6  0  0  0
 35 34  1  0  0  0  0
 36 35  1  0  0  0  0
 37 38  3  0  0  0  0
 38 36  1  0  0  0  0
M  END
>  <MODEL>
1

>  <REMARK>
 VINA RESULT:      -8.6      0.000      0.000
  Name = 
  10 active torsions:
  status: ('A' for Active; 'I' for Inactive)
    1  A    between atoms: C_8  and  C_32
    2  A    between atoms: C_18  and  N_25
    3  A    between atoms: C_18  and  C_28
    4  A    between atoms: C_20  and  N_23
    5  A    between atoms: N_21  and  C_22
    6  A    between atoms: N_21  and  N_25
    7  A    between atoms: N_23  and  C_24
    8  A    between atoms: C_24  and  N_27
    9  A    between atoms: C_28  and  C_33
   10  A    between atoms: C_31  and  C_38
                            x       y       z     vdW  Elec       q    Type
                         _______ _______ _______ _____ _____    ______ ____

>  <TORSDO>
F 10

$$$$
=
 OpenBabel11042410413D

 38 42  0  0  1  0  0  0  0  0999 V2000
  183.2920  179.0100  145.4130 O   0  0  0  0  0  0  0  0  0  0  0  0
  183.6760  178.5270  143.2680 C   0  0  0  0  0  0  0  0  0  0  0  0
  182.0010  178.5120  141.5680 C   0  0  0  0  0  3  0  0  0  0  0  0
  185.5750  178.7390  146.2160 C   0  0  0  0  0  3  0  0  0  0  0  0
  181.4010  179.0660  143.8820 C   0  0  0  0  0  3  0  0  0  0  0  0
  182.7390  178.8830  144.2190 C   0  0  0  0  0  0  0  0  0  0  0  0
  181.0360  178.8760  142.5350 C   0  0  0  0  0  3  0  0  0  0  0  0
  186.1000  178.1300  143.5240 N   0  0  0  0  0  0  0  0  0  0  0  0
  184.8560  178.4420  143.9540 C   0  0  0  0  0  0  0  0  0  0  0  0
  184.5750  178.7430  145.2570 C   0  0  0  0  0  0  0  0  0  0  0  0
  187.1410  178.1200  144.4170 C   0  0  0  0  0  0  0  0  0  0  0  0
  186.8850  178.4240  145.7990 C   0  0  0  0  0  0  0  0  0  0  0  0
  183.3490  178.3330  141.9300 C   0  0  0  0  0  3  0  0  0  0  0  0
  189.5680  178.6610  143.9660 C   0  0  0  0  0  3  0  0  0  0  0  0
  188.4880  177.7670  143.8980 C   0  0  0  0  0  0  0  0  0  0  0  0
  188.6790  176.5280  143.2670 C   0  0  0  0  0  3  0  0  0  0  0  0
  189.9260  176.1800  142.7410 C   0  0  0  0  0  3  0  0  0  0  0  0
  191.0000  177.0690  142.8270 C   0  0  0  0  0  0  0  0  0  0  0  0
  190.8140  178.3160  143.4410 C   0  0  0  0  0  3  0  0  0  0  0  0
  192.2670  176.6920  142.2820 N   0  0  0  0  0  2  0  0  0  0  0  0
  192.7460  177.1710  140.9960 C   0  0  0  0  0  2  0  0  0  0  0  0
  191.6120  177.4600  140.1340 N   0  0  0  0  0  2  0  0  0  0  0  0
  192.4480  176.2270  138.3360 O   0  0  0  0  0  0  0  0  0  0  0  0
  191.5170  176.9350  138.8110 C   0  0  0  0  0  0  0  0  0  0  0  0
  189.0130  176.9640  138.7410 C   0  0  2  0  0  3  0  0  0  0  0  0
  188.0360  177.4100  136.5270 N   0  0  0  0  0  2  0  0  0  0  0  0
  189.1300  176.7740  135.7840 C   0  0  0  0  0  2  0  0  0  0  0  0
  187.8390  176.7020  137.7900 C   0  0  0  0  0  2  0  0  0  0  0  0
  188.6760  178.1270  139.6550 C   0  0  0  0  0  1  0  0  0  0  0  0
  190.3170  177.2580  137.9810 C   0  0  2  0  0  3  0  0  0  0  0  0
  190.3760  176.5110  136.6480 C   0  0  0  0  0  2  0  0  0  0  0  0
  187.9510  178.3840  146.8490 C   0  0  0  0  0  2  0  0  0  0  0  0
  187.7410  177.5700  149.0750 O   0  0  0  0  0  1  0  0  0  0  0  0
  187.7930  177.1610  147.7420 C   0  0  2  0  0  3  0  0  0  0  0  0
  188.9200  176.2610  147.5550 N   0  0  0  0  0  2  0  0  0  0  0  0
  190.0770  177.0500  147.5310 N   0  0  0  0  0  2  0  0  0  0  0  0
  192.1940  176.1830  146.3840 N   0  0  0  0  0  0  0  0  0  0  0  0
  191.2350  176.5750  146.9030 C   0  0  0  0  0  0  0  0  0  0  0  0
  2  9  1  0  0  0  0
  2  6  2  0  0  0  0
  3 13  2  0  0  0  0
  3  7  1  0  0  0  0
  5  6  1  0  0  0  0
  6  1  1  0  0  0  0
  7  5  2  0  0  0  0
  8  9  2  0  0  0  0
  8 11  1  0  0  0  0
  9 10  1  0  0  0  0
 10  1  1  0  0  0  0
 10  4  2  0  0  0  0
 11 12  2  0  0  0  0
 12  4  1  0  0  0  0
 12 32  1  0  0  0  0
 13  2  1  0  0  0  0
 15 14  1  0  0  0  0
 15 11  1  0  0  0  0
 16 15  2  0  0  0  0
 17 18  2  0  0  0  0
 17 16  1  0  0  0  0
 18 19  1  0  0  0  0
 19 14  2  0  0  0  0
 20 18  1  0  0  0  0
 21 20  1  0  0  0  0
 22 21  1  0  0  0  0
 23 24  2  0  0  0  0
 24 22  1  0  0  0  0
 25 29  1  1  0  0  0
 26 28  1  0  0  0  0
 27 26  1  0  0  0  0
 27 31  1  0  0  0  0
 28 25  1  0  0  0  0
 30 25  1  0  0  0  0
 30 24  1  1  0  0  0
 31 30  1  0  0  0  0
 32 34  1  0  0  0  0
 34 33  1  1  0  0  0
 35 34  1  0  0  0  0
 36 35  1  0  0  0  0
 37 38  3  0  0  0  0
 38 36  1  0  0  0  0
M  END
>  <MODEL>
2

>  <REMARK>
 VINA RESULT:      -8.4      3.200      7.225
  Name = 
  10 active torsions:
  status: ('A' for Active; 'I' for Inactive)
    1  A    between atoms: C_8  and  C_32
    2  A    between atoms: C_18  and  N_25
    3  A    between atoms: C_18  and  C_28
    4  A    between atoms: C_20  and  N_23
    5  A    between atoms: N_21  and  C_22
    6  A    between atoms: N_21  and  N_25
    7  A    between atoms: N_23  and  C_24
    8  A    between atoms: C_24  and  N_27
    9  A    between atoms: C_28  and  C_33
   10  A    between atoms: C_31  and  C_38
                            x       y       z     vdW  Elec       q    Type
                         _______ _______ _______ _____ _____    ______ ____

>  <TORSDO>
F 10

$$$$
=
 OpenBabel11042410413D

 38 42  0  0  1  0  0  0  0  0999 V2000
  186.1170  178.1730  145.1270 O   0  0  0  0  0  0  0  0  0  0  0  0
  185.0870  178.4050  143.1600 C   0  0  0  0  0  0  0  0  0  0  0  0
  182.7720  178.9220  142.9040 C   0  0  0  0  0  3  0  0  0  0  0  0
  188.3410  177.6760  144.2660 C   0  0  0  0  0  3  0  0  0  0  0  0
  183.7420  178.7030  145.1470 C   0  0  0  0  0  3  0  0  0  0  0  0
  184.9630  178.4310  144.5360 C   0  0  0  0  0  0  0  0  0  0  0  0
  182.6360  178.9510  144.3110 C   0  0  0  0  0  3  0  0  0  0  0  0
  187.0810  177.9630  141.7710 N   0  0  0  0  0  0  0  0  0  0  0  0
  186.4030  178.1120  142.9320 C   0  0  0  0  0  0  0  0  0  0  0  0
  186.9930  177.9790  144.1590 C   0  0  0  0  0  0  0  0  0  0  0  0
  188.4210  177.6750  141.8030 C   0  0  0  0  0  0  0  0  0  0  0  0
  189.0770  177.5190  143.0730 C   0  0  0  0  0  0  0  0  0  0  0  0
  184.0150  178.6460  142.3070 C   0  0  0  0  0  3  0  0  0  0  0  0
  188.7190  178.2140  139.3530 C   0  0  0  0  0  3  0  0  0  0  0  0
  189.1210  177.5160  140.5020 C   0  0  0  0  0  0  0  0  0  0  0  0
  190.1790  176.5990  140.3970 C   0  0  0  0  0  3  0  0  0  0  0  0
  190.8360  176.4050  139.1790 C   0  0  0  0  0  3  0  0  0  0  0  0
  190.4400  177.1150  138.0430 C   0  0  0  0  0  0  0  0  0  0  0  0
  189.3740  178.0210  138.1350 C   0  0  0  0  0  3  0  0  0  0  0  0
  191.1270  176.9010  136.8090 N   0  0  0  0  0  2  0  0  0  0  0  0
  191.1760  175.6060  136.1480 C   0  0  0  0  0  2  0  0  0  0  0  0
  189.8240  175.1630  135.8500 N   0  0  0  0  0  2  0  0  0  0  0  0
  189.8600  173.4420  137.4280 O   0  0  0  0  0  0  0  0  0  0  0  0
  189.2150  174.0780  136.5490 C   0  0  0  0  0  0  0  0  0  0  0  0
  186.8120  174.2120  137.2440 C   0  0  2  0  0  3  0  0  0  0  0  0
  185.2790  172.7570  135.9830 N   0  0  0  0  0  2  0  0  0  0  0  0
  186.2790  171.7080  135.7460 C   0  0  0  0  0  2  0  0  0  0  0  0
  185.5290  173.3720  137.2840 C   0  0  0  0  0  2  0  0  0  0  0  0
  186.4640  175.6560  136.9320 C   0  0  0  0  0  1  0  0  0  0  0  0
  187.8160  173.6820  136.2060 C   0  0  2  0  0  3  0  0  0  0  0  0
  187.7180  172.1650  136.0460 C   0  0  0  0  0  2  0  0  0  0  0  0
  190.5230  177.1530  143.2000 C   0  0  0  0  0  2  0  0  0  0  0  0
  191.9900  178.6930  144.2640 O   0  0  0  0  0  1  0  0  0  0  0  0
  191.1000  177.6500  144.5180 C   0  0  2  0  0  3  0  0  0  0  0  0
  191.8000  176.5690  145.1930 N   0  0  0  0  0  2  0  0  0  0  0  0
  191.7230  176.8250  146.5680 N   0  0  0  0  0  2  0  0  0  0  0  0
  189.4410  177.0620  147.7010 N   0  0  0  0  0  0  0  0  0  0  0  0
  190.4740  176.9540  147.1880 C   0  0  0  0  0  0  0  0  0  0  0  0
  2  6  2  0  0  0  0
  3  7  1  0  0  0  0
  6  1  1  0  0  0  0
  6  5  1  0  0  0  0
  7  5  2  0  0  0  0
  8 11  2  0  0  0  0
  8  9  1  0  0  0  0
  9  2  1  0  0  0  0
  9 10  2  0  0  0  0
 10  4  1  0  0  0  0
 10  1  1  0  0  0  0
 11 12  1  0  0  0  0
 12 32  1  0  0  0  0
 12  4  2  0  0  0  0
 13  3  2  0  0  0  0
 13  2  1  0  0  0  0
 14 15  1  0  0  0  0
 15 11  1  0  0  0  0
 16 15  2  0  0  0  0
 17 16  1  0  0  0  0
 18 19  1  0  0  0  0
 18 17  2  0  0  0  0
 19 14  2  0  0  0  0
 20 18  1  0  0  0  0
 21 20  1  0  0  0  0
 22 21  1  0  0  0  0
 22 24  1  0  0  0  0
 24 23  2  0  0  0  0
 25 29  1  6  0  0  0
 25 28  1  0  0  0  0
 26 28  1  0  0  0  0
 27 26  1  0  0  0  0
 27 31  1  0  0  0  0
 30 24  1  1  0  0  0
 30 25  1  0  0  0  0
 31 30  1  0  0  0  0
 32 34  1  0  0  0  0
 34 33  1  6  0  0  0
 34 35  1  0  0  0  0
 35 36  1  0  0  0  0
 36 38  1  0  0  0  0
 38 37  3  0  0  0  0
M  END
>  <MODEL>
3

>  <REMARK>
 VINA RESULT:      -8.3      3.549      7.092
  Name = 
  10 active torsions:
  status: ('A' for Active; 'I' for Inactive)
    1  A    between atoms: C_8  and  C_32
    2  A    between atoms: C_18  and  N_25
    3  A    between atoms: C_18  and  C_28
    4  A    between atoms: C_20  and  N_23
    5  A    between atoms: N_21  and  C_22
    6  A    between atoms: N_21  and  N_25
    7  A    between atoms: N_23  and  C_24
    8  A    between atoms: C_24  and  N_27
    9  A    between atoms: C_28  and  C_33
   10  A    between atoms: C_31  and  C_38
                            x       y       z     vdW  Elec       q    Type
                         _______ _______ _______ _____ _____    ______ ____

>  <TORSDO>
F 10

$$$$
=
 OpenBabel11042410413D

 38 42  0  0  1  0  0  0  0  0999 V2000
  183.1190  178.7620  145.0790 O   0  0  0  0  0  0  0  0  0  0  0  0
  183.0700  178.6080  142.8530 C   0  0  0  0  0  0  0  0  0  0  0  0
  181.1030  178.8670  141.5260 C   0  0  0  0  0  3  0  0  0  0  0  0
  185.5010  178.3500  145.3760 C   0  0  0  0  0  3  0  0  0  0  0  0
  180.9750  179.0680  143.9680 C   0  0  0  0  0  3  0  0  0  0  0  0
  182.3450  178.8230  144.0090 C   0  0  0  0  0  0  0  0  0  0  0  0
  180.3540  179.0880  142.7040 C   0  0  0  0  0  3  0  0  0  0  0  0
  185.4810  178.1530  142.5740 N   0  0  0  0  0  0  0  0  0  0  0  0
  184.3550  178.4080  143.2770 C   0  0  0  0  0  0  0  0  0  0  0  0
  184.3380  178.5100  144.6410 C   0  0  0  0  0  0  0  0  0  0  0  0
  186.6720  177.9970  143.2370 C   0  0  0  0  0  0  0  0  0  0  0  0
  186.6950  178.0900  144.6720 C   0  0  0  0  0  0  0  0  0  0  0  0
  182.4870  178.6220  141.5900 C   0  0  0  0  0  3  0  0  0  0  0  0
  188.1770  178.4400  141.2560 C   0  0  0  0  0  3  0  0  0  0  0  0
  187.8810  177.7150  142.4200 C   0  0  0  0  0  0  0  0  0  0  0  0
  188.7260  176.6560  142.7870 C   0  0  0  0  0  3  0  0  0  0  0  0
  189.8540  176.3460  142.0220 C   0  0  0  0  0  3  0  0  0  0  0  0
  190.1500  177.0820  140.8730 C   0  0  0  0  0  0  0  0  0  0  0  0
  189.3020  178.1310  140.4900 C   0  0  0  0  0  3  0  0  0  0  0  0
  191.3090  176.7480  140.1060 N   0  0  0  0  0  2  0  0  0  0  0  0
  191.2360  176.2700  138.7340 C   0  0  0  0  0  2  0  0  0  0  0  0
  189.8440  176.1730  138.3290 N   0  0  0  0  0  2  0  0  0  0  0  0
  190.2720  176.7700  136.1120 O   0  0  0  0  0  0  0  0  0  0  0  0
  189.4310  176.4180  136.9850 C   0  0  0  0  0  0  0  0  0  0  0  0
  187.1540  177.4360  137.2210 C   0  0  2  0  0  3  0  0  0  0  0  0
  185.2960  176.0300  136.4270 N   0  0  0  0  0  2  0  0  0  0  0  0
  185.9540  174.7620  136.7660 C   0  0  0  0  0  2  0  0  0  0  0  0
  185.6820  177.0460  137.4040 C   0  0  0  0  0  2  0  0  0  0  0  0
  187.2490  178.6550  136.3220 C   0  0  0  0  0  1  0  0  0  0  0  0
  187.9860  176.2860  136.6290 C   0  0  2  0  0  3  0  0  0  0  0  0
  187.4550  174.9200  137.0650 C   0  0  0  0  0  2  0  0  0  0  0  0
  187.9390  177.8810  145.4780 C   0  0  0  0  0  2  0  0  0  0  0  0
  187.5480  178.6370  147.6990 O   0  0  0  0  0  1  0  0  0  0  0  0
  187.6020  177.4880  146.9100 C   0  0  2  0  0  3  0  0  0  0  0  0
  188.6200  176.5900  147.4310 N   0  0  0  0  0  2  0  0  0  0  0  0
  189.7830  177.3470  147.6130 N   0  0  0  0  0  2  0  0  0  0  0  0
  192.0720  176.3230  147.1040 N   0  0  0  0  0  0  0  0  0  0  0  0
  191.0360  176.7860  147.3350 C   0  0  0  0  0  0  0  0  0  0  0  0
  2  9  1  0  0  0  0
  2  6  2  0  0  0  0
  3 13  2  0  0  0  0
  3  7  1  0  0  0  0
  5  6  1  0  0  0  0
  6  1  1  0  0  0  0
  7  5  2  0  0  0  0
  8 11  1  0  0  0  0
  8  9  2  0  0  0  0
  9 10  1  0  0  0  0
 10  1  1  0  0  0  0
 10  4  2  0  0  0  0
 11 12  2  0  0  0  0
 12  4  1  0  0  0  0
 12 32  1  0  0  0  0
 13  2  1  0  0  0  0
 14 15  1  0  0  0  0
 15 16  2  0  0  0  0
 15 11  1  0  0  0  0
 17 16  1  0  0  0  0
 18 17  2  0  0  0  0
 19 18  1  0  0  0  0
 19 14  2  0  0  0  0
 20 18  1  0  0  0  0
 21 20  1  0  0  0  0
 22 21  1  0  0  0  0
 23 24  2  0  0  0  0
 24 22  1  0  0  0  0
 25 29  1  6  0  0  0
 25 28  1  0  0  0  0
 26 27  1  0  0  0  0
 26 28  1  0  0  0  0
 27 31  1  0  0  0  0
 30 24  1  1  0  0  0
 30 31  1  0  0  0  0
 30 25  1  0  0  0  0
 32 34  1  0  0  0  0
 34 35  1  0  0  0  0
 34 33  1  1  0  0  0
 35 36  1  0  0  0  0
 37 38  3  0  0  0  0
 38 36  1  0  0  0  0
M  END
>  <MODEL>
4

>  <REMARK>
 VINA RESULT:      -8.1      2.696      6.759
  Name = 
  10 active torsions:
  status: ('A' for Active; 'I' for Inactive)
    1  A    between atoms: C_8  and  C_32
    2  A    between atoms: C_18  and  N_25
    3  A    between atoms: C_18  and  C_28
    4  A    between atoms: C_20  and  N_23
    5  A    between atoms: N_21  and  C_22
    6  A    between atoms: N_21  and  N_25
    7  A    between atoms: N_23  and  C_24
    8  A    between atoms: C_24  and  N_27
    9  A    between atoms: C_28  and  C_33
   10  A    between atoms: C_31  and  C_38
                            x       y       z     vdW  Elec       q    Type
                         _______ _______ _______ _____ _____    ______ ____

>  <TORSDO>
F 10

$$$$
=
 OpenBabel11042410413D

 38 42  0  0  1  0  0  0  0  0999 V2000
  183.2520  178.8910  145.2720 O   0  0  0  0  0  0  0  0  0  0  0  0
  183.1560  178.6450  143.0550 C   0  0  0  0  0  0  0  0  0  0  0  0
  181.1730  178.9050  141.7550 C   0  0  0  0  0  3  0  0  0  0  0  0
  185.6270  178.4230  145.5430 C   0  0  0  0  0  3  0  0  0  0  0  0
  181.0970  179.2140  144.1870 C   0  0  0  0  0  3  0  0  0  0  0  0
  182.4600  178.9300  144.2140 C   0  0  0  0  0  0  0  0  0  0  0  0
  180.4530  179.1990  142.9350 C   0  0  0  0  0  3  0  0  0  0  0  0
  185.5480  178.1080  142.7520 N   0  0  0  0  0  0  0  0  0  0  0  0
  184.4430  178.4250  143.4640 C   0  0  0  0  0  0  0  0  0  0  0  0
  184.4550  178.5850  144.8220 C   0  0  0  0  0  0  0  0  0  0  0  0
  186.7460  177.9450  143.4000 C   0  0  0  0  0  0  0  0  0  0  0  0
  186.7990  178.0980  144.8290 C   0  0  0  0  0  0  0  0  0  0  0  0
  182.5500  178.6220  141.8040 C   0  0  0  0  0  3  0  0  0  0  0  0
  188.2140  178.2470  141.3660 C   0  0  0  0  0  3  0  0  0  0  0  0
  187.9300  177.5930  142.5750 C   0  0  0  0  0  0  0  0  0  0  0  0
  188.7620  176.5370  142.9810 C   0  0  0  0  0  3  0  0  0  0  0  0
  189.8660  176.1620  142.2100 C   0  0  0  0  0  3  0  0  0  0  0  0
  190.1510  176.8280  141.0160 C   0  0  0  0  0  0  0  0  0  0  0  0
  189.3160  177.8730  140.5940 C   0  0  0  0  0  3  0  0  0  0  0  0
  191.2850  176.4280  140.2440 N   0  0  0  0  0  2  0  0  0  0  0  0
  191.3130  176.4900  138.7920 C   0  0  0  0  0  2  0  0  0  0  0  0
  192.1300  175.4050  138.2760 N   0  0  0  0  0  2  0  0  0  0  0  0
  193.8650  176.8120  137.5920 O   0  0  0  0  0  0  0  0  0  0  0  0
  193.4160  175.6370  137.7030 C   0  0  0  0  0  0  0  0  0  0  0  0
  193.3270  173.4620  136.4630 C   0  0  2  0  0  3  0  0  0  0  0  0
  195.3890  172.1220  136.5580 N   0  0  0  0  0  2  0  0  0  0  0  0
  195.7730  172.5890  137.8960 C   0  0  0  0  0  2  0  0  0  0  0  0
  193.9320  172.0530  136.4740 C   0  0  0  0  0  2  0  0  0  0  0  0
  193.1170  173.9130  135.0300 C   0  0  0  0  0  1  0  0  0  0  0  0
  194.2140  174.4760  137.2050 C   0  0  2  0  0  3  0  0  0  0  0  0
  194.9790  173.8240  138.3570 C   0  0  0  0  0  2  0  0  0  0  0  0
  188.0520  177.8860  145.6210 C   0  0  0  0  0  2  0  0  0  0  0  0
  187.7540  178.6760  147.8450 O   0  0  0  0  0  1  0  0  0  0  0  0
  187.7310  177.5210  147.0630 C   0  0  2  0  0  3  0  0  0  0  0  0
  188.7150  176.5750  147.5670 N   0  0  0  0  0  2  0  0  0  0  0  0
  189.9180  177.2750  147.7170 N   0  0  0  0  0  2  0  0  0  0  0  0
  192.1220  176.2040  146.9800 N   0  0  0  0  0  0  0  0  0  0  0  0
  191.1250  176.6890  147.3140 C   0  0  0  0  0  0  0  0  0  0  0  0
  2  9  1  0  0  0  0
  2  6  2  0  0  0  0
  3 13  2  0  0  0  0
  3  7  1  0  0  0  0
  5  6  1  0  0  0  0
  6  1  1  0  0  0  0
  7  5  2  0  0  0  0
  8 11  1  0  0  0  0
  8  9  2  0  0  0  0
  9 10  1  0  0  0  0
 10  1  1  0  0  0  0
 10  4  2  0  0  0  0
 11 12  2  0  0  0  0
 12  4  1  0  0  0  0
 12 32  1  0  0  0  0
 13  2  1  0  0  0  0
 14 15  1  0  0  0  0
 15 16  2  0  0  0  0
 15 11  1  0  0  0  0
 17 16  1  0  0  0  0
 18 17  2  0  0  0  0
 19 18  1  0  0  0  0
 19 14  2  0  0  0  0
 20 18  1  0  0  0  0
 21 20  1  0  0  0  0
 22 21  1  0  0  0  0
 23 24  2  0  0  0  0
 24 22  1  0  0  0  0
 25 29  1  6  0  0  0
 25 28  1  0  0  0  0
 25 30  1  0  0  0  0
 26 27  1  0  0  0  0
 27 31  1  0  0  0  0
 28 26  1  0  0  0  0
 30 24  1  1  0  0  0
 30 31  1  0  0  0  0
 32 34  1  0  0  0  0
 34 35  1  0  0  0  0
 34 33  1  1  0  0  0
 35 36  1  0  0  0  0
 37 38  3  0  0  0  0
 38 36  1  0  0  0  0
M  END
>  <MODEL>
5

>  <REMARK>
 VINA RESULT:      -8.1      3.684      7.310
  Name = 
  10 active torsions:
  status: ('A' for Active; 'I' for Inactive)
    1  A    between atoms: C_8  and  C_32
    2  A    between atoms: C_18  and  N_25
    3  A    between atoms: C_18  and  C_28
    4  A    between atoms: C_20  and  N_23
    5  A    between atoms: N_21  and  C_22
    6  A    between atoms: N_21  and  N_25
    7  A    between atoms: N_23  and  C_24
    8  A    between atoms: C_24  and  N_27
    9  A    between atoms: C_28  and  C_33
   10  A    between atoms: C_31  and  C_38
                            x       y       z     vdW  Elec       q    Type
                         _______ _______ _______ _____ _____    ______ ____

>  <TORSDO>
F 10

$$$$
=
 OpenBabel11042410413D

 38 42  0  0  1  0  0  0  0  0999 V2000
  190.8920  177.2170  143.7600 O   0  0  0  0  0  0  0  0  0  0  0  0
  189.3890  177.2340  145.4110 C   0  0  0  0  0  0  0  0  0  0  0  0
  189.8990  176.8110  147.7030 C   0  0  0  0  0  3  0  0  0  0  0  0
  189.3680  177.7440  141.9350 C   0  0  0  0  0  3  0  0  0  0  0  0
  191.6790  176.7520  146.0160 C   0  0  0  0  0  3  0  0  0  0  0  0
  190.7130  177.0570  145.0600 C   0  0  0  0  0  0  0  0  0  0  0  0
  191.2560  176.6290  147.3540 C   0  0  0  0  0  3  0  0  0  0  0  0
  187.4470  177.7780  143.9840 N   0  0  0  0  0  0  0  0  0  0  0  0
  188.7500  177.5170  144.2350 C   0  0  0  0  0  0  0  0  0  0  0  0
  189.7050  177.4960  143.2550 C   0  0  0  0  0  0  0  0  0  0  0  0
  187.0460  178.0460  142.7000 C   0  0  0  0  0  0  0  0  0  0  0  0
  188.0180  178.0260  141.6410 C   0  0  0  0  0  0  0  0  0  0  0  0
  188.9390  177.1210  146.7220 C   0  0  0  0  0  3  0  0  0  0  0  0
  184.7010  178.4700  143.5400 C   0  0  0  0  0  3  0  0  0  0  0  0
  185.6030  178.3230  142.4760 C   0  0  0  0  0  0  0  0  0  0  0  0
  185.1120  178.3840  141.1620 C   0  0  0  0  0  3  0  0  0  0  0  0
  183.7540  178.6110  140.9180 C   0  0  0  0  0  3  0  0  0  0  0  0
  182.8640  178.7720  141.9830 C   0  0  0  0  0  0  0  0  0  0  0  0
  183.3440  178.6970  143.2990 C   0  0  0  0  0  3  0  0  0  0  0  0
  181.4810  179.0040  141.7110 N   0  0  0  0  0  2  0  0  0  0  0  0
  180.8380  178.5790  140.4780 C   0  0  0  0  0  2  0  0  0  0  0  0
  180.4780  179.7480  139.6920 N   0  0  0  0  0  2  0  0  0  0  0  0
  181.9310  179.2250  137.9390 O   0  0  0  0  0  0  0  0  0  0  0  0
  181.0530  180.0010  138.4110 C   0  0  0  0  0  0  0  0  0  0  0  0
  180.6270  180.9480  136.1310 C   0  0  2  0  0  3  0  0  0  0  0  0
  180.2630  183.3810  136.0630 N   0  0  0  0  0  2  0  0  0  0  0  0
  181.1420  183.6640  137.2040 C   0  0  0  0  0  2  0  0  0  0  0  0
  180.7930  182.2390  135.3210 C   0  0  0  0  0  2  0  0  0  0  0  0
  179.3350  180.2600  135.7300 C   0  0  0  0  0  1  0  0  0  0  0  0
  180.6290  181.2120  137.6460 C   0  0  2  0  0  3  0  0  0  0  0  0
  181.5110  182.4070  138.0110 C   0  0  0  0  0  2  0  0  0  0  0  0
  187.6580  178.2540  140.2060 C   0  0  0  0  0  2  0  0  0  0  0  0
  189.0160  179.2830  138.5450 O   0  0  0  0  0  1  0  0  0  0  0  0
  188.8810  178.1230  139.3090 C   0  0  2  0  0  3  0  0  0  0  0  0
  188.7290  176.9770  138.4260 N   0  0  0  0  0  2  0  0  0  0  0  0
  189.9640  176.7770  137.7960 N   0  0  0  0  0  2  0  0  0  0  0  0
  191.1330  174.5070  137.9600 N   0  0  0  0  0  0  0  0  0  0  0  0
  190.6040  175.5340  137.8850 C   0  0  0  0  0  0  0  0  0  0  0  0
  1  6  1  0  0  0  0
  2 13  1  0  0  0  0
  4 10  1  0  0  0  0
  5  7  2  0  0  0  0
  6  2  2  0  0  0  0
  6  5  1  0  0  0  0
  7  3  1  0  0  0  0
  8  9  1  0  0  0  0
  9  2  1  0  0  0  0
 10  1  1  0  0  0  0
 10  9  2  0  0  0  0
 11  8  2  0  0  0  0
 12  4  2  0  0  0  0
 12 11  1  0  0  0  0
 13  3  2  0  0  0  0
 15 11  1  0  0  0  0
 15 14  2  0  0  0  0
 16 15  1  0  0  0  0
 17 16  2  0  0  0  0
 17 18  1  0  0  0  0
 18 19  2  0  0  0  0
 19 14  1  0  0  0  0
 20 18  1  0  0  0  0
 21 20  1  0  0  0  0
 22 21  1  0  0  0  0
 23 24  2  0  0  0  0
 24 22  1  0  0  0  0
 25 29  1  6  0  0  0
 25 30  1  0  0  0  0
 26 27  1  0  0  0  0
 27 31  1  0  0  0  0
 28 26  1  0  0  0  0
 28 25  1  0  0  0  0
 30 31  1  0  0  0  0
 30 24  1  1  0  0  0
 32 12  1  0  0  0  0
 34 33  1  6  0  0  0
 34 32  1  0  0  0  0
 35 34  1  0  0  0  0
 36 38  1  0  0  0  0
 36 35  1  0  0  0  0
 38 37  3  0  0  0  0
M  END
>  <MODEL>
6

>  <REMARK>
 VINA RESULT:      -8.0      2.993      7.898
  Name = 
  10 active torsions:
  status: ('A' for Active; 'I' for Inactive)
    1  A    between atoms: C_8  and  C_32
    2  A    between atoms: C_18  and  N_25
    3  A    between atoms: C_18  and  C_28
    4  A    between atoms: C_20  and  N_23
    5  A    between atoms: N_21  and  C_22
    6  A    between atoms: N_21  and  N_25
    7  A    between atoms: N_23  and  C_24
    8  A    between atoms: C_24  and  N_27
    9  A    between atoms: C_28  and  C_33
   10  A    between atoms: C_31  and  C_38
                            x       y       z     vdW  Elec       q    Type
                         _______ _______ _______ _____ _____    ______ ____

>  <TORSDO>
F 10

$$$$
=
 OpenBabel11042410413D

 38 42  0  0  1  0  0  0  0  0999 V2000
  182.5960  179.0200  139.2710 O   0  0  0  0  0  0  0  0  0  0  0  0
  181.4800  178.5630  141.1500 C   0  0  0  0  0  0  0  0  0  0  0  0
  179.1080  178.3450  141.2900 C   0  0  0  0  0  3  0  0  0  0  0  0
  184.8380  179.0160  140.2230 C   0  0  0  0  0  3  0  0  0  0  0  0
  180.1710  178.8510  139.1380 C   0  0  0  0  0  3  0  0  0  0  0  0
  181.3980  178.8210  139.7950 C   0  0  0  0  0  0  0  0  0  0  0  0
  179.0150  178.6080  139.9040 C   0  0  0  0  0  3  0  0  0  0  0  0
  183.4700  178.4360  142.6070 N   0  0  0  0  0  0  0  0  0  0  0  0
  182.8160  178.6130  141.4370 C   0  0  0  0  0  0  0  0  0  0  0  0
  183.4590  178.8950  140.2620 C   0  0  0  0  0  0  0  0  0  0  0  0
  184.8380  178.5300  142.6380 C   0  0  0  0  0  0  0  0  0  0  0  0
  185.5500  178.8320  141.4260 C   0  0  0  0  0  0  0  0  0  0  0  0
  180.3580  178.3180  141.9350 C   0  0  0  0  0  3  0  0  0  0  0  0
  186.4430  177.3040  144.1570 C   0  0  0  0  0  3  0  0  0  0  0  0
  185.5100  178.3320  143.9490 C   0  0  0  0  0  0  0  0  0  0  0  0
  185.1650  179.1570  145.0300 C   0  0  0  0  0  3  0  0  0  0  0  0
  185.7570  178.9760  146.2830 C   0  0  0  0  0  3  0  0  0  0  0  0
  186.6950  177.9600  146.4790 C   0  0  0  0  0  0  0  0  0  0  0  0
  187.0350  177.1210  145.4080 C   0  0  0  0  0  3  0  0  0  0  0  0
  187.2880  177.7940  147.7680 N   0  0  0  0  0  2  0  0  0  0  0  0
  188.7220  177.8810  147.9950 C   0  0  0  0  0  2  0  0  0  0  0  0
  189.4100  177.9640  146.7170 N   0  0  0  0  0  2  0  0  0  0  0  0
  191.0150  176.3660  147.2850 O   0  0  0  0  0  0  0  0  0  0  0  0
  190.5470  177.1560  146.4180 C   0  0  0  0  0  0  0  0  0  0  0  0
  190.6270  178.4630  144.2820 C   0  0  2  0  0  3  0  0  0  0  0  0
  191.9680  177.4460  142.4870 N   0  0  0  0  0  2  0  0  0  0  0  0
  191.6900  176.0640  142.8990 C   0  0  0  0  0  2  0  0  0  0  0  0
  190.7980  178.2750  142.7700 C   0  0  0  0  0  2  0  0  0  0  0  0
  191.3050  179.7500  144.7140 C   0  0  0  0  0  1  0  0  0  0  0  0
  191.1990  177.2790  145.0800 C   0  0  2  0  0  3  0  0  0  0  0  0
  191.0780  175.9650  144.3080 C   0  0  0  0  0  2  0  0  0  0  0  0
  187.0370  179.0040  141.3800 C   0  0  0  0  0  2  0  0  0  0  0  0
  188.4260  177.1440  140.8600 O   0  0  0  0  0  1  0  0  0  0  0  0
  187.6520  178.1500  140.2800 C   0  0  2  0  0  3  0  0  0  0  0  0
  188.4900  178.9730  139.4220 N   0  0  0  0  0  2  0  0  0  0  0  0
  188.4550  178.4030  138.1440 N   0  0  0  0  0  2  0  0  0  0  0  0
  186.2090  177.8720  137.0390 N   0  0  0  0  0  0  0  0  0  0  0  0
  187.2260  178.1120  137.5390 C   0  0  0  0  0  0  0  0  0  0  0  0
  1  6  1  0  0  0  0
  1 10  1  0  0  0  0
  2  9  1  0  0  0  0
  2 13  2  0  0  0  0
  3 13  1  0  0  0  0
  4 10  2  0  0  0  0
  4 12  1  0  0  0  0
  5  6  2  0  0  0  0
  5  7  1  0  0  0  0
  6  2  1  0  0  0  0
  7  3  2  0  0  0  0
  8 11  1  0  0  0  0
  9  8  2  0  0  0  0
 10  9  1  0  0  0  0
 11 15  1  0  0  0  0
 12 11  2  0  0  0  0
 14 19  1  0  0  0  0
 15 14  2  0  0  0  0
 15 16  1  0  0  0  0
 16 17  2  0  0  0  0
 17 18  1  0  0  0  0
 18 20  1  0  0  0  0
 19 18  2  0  0  0  0
 20 21  1  0  0  0  0
 22 21  1  0  0  0  0
 24 22  1  0  0  0  0
 24 23  2  0  0  0  0
 25 29  1  1  0  0  0
 25 30  1  0  0  0  0
 26 28  1  0  0  0  0
 26 27  1  0  0  0  0
 27 31  1  0  0  0  0
 28 25  1  0  0  0  0
 30 24  1  1  0  0  0
 31 30  1  0  0  0  0
 32 12  1  0  0  0  0
 34 33  1  1  0  0  0
 34 32  1  0  0  0  0
 35 34  1  0  0  0  0
 36 35  1  0  0  0  0
 37 38  3  0  0  0  0
 38 36  1  0  0  0  0
M  END
>  <MODEL>
7

>  <REMARK>
 VINA RESULT:      -8.0      3.242      7.901
  Name = 
  10 active torsions:
  status: ('A' for Active; 'I' for Inactive)
    1  A    between atoms: C_8  and  C_32
    2  A    between atoms: C_18  and  N_25
    3  A    between atoms: C_18  and  C_28
    4  A    between atoms: C_20  and  N_23
    5  A    between atoms: N_21  and  C_22
    6  A    between atoms: N_21  and  N_25
    7  A    between atoms: N_23  and  C_24
    8  A    between atoms: C_24  and  N_27
    9  A    between atoms: C_28  and  C_33
   10  A    between atoms: C_31  and  C_38
                            x       y       z     vdW  Elec       q    Type
                         _______ _______ _______ _____ _____    ______ ____

>  <TORSDO>
F 10

$$$$
=
 OpenBabel11042410413D

 38 42  0  0  1  0  0  0  0  0999 V2000
  188.1750  177.5410  145.8300 O   0  0  0  0  0  0  0  0  0  0  0  0
  190.1690  176.9360  145.0300 C   0  0  0  0  0  0  0  0  0  0  0  0
  192.0100  176.2440  146.3810 C   0  0  0  0  0  3  0  0  0  0  0  0
  187.1090  178.0300  143.6950 C   0  0  0  0  0  3  0  0  0  0  0  0
  189.8840  176.8770  147.4300 C   0  0  0  0  0  3  0  0  0  0  0  0
  189.3860  177.1220  146.1530 C   0  0  0  0  0  0  0  0  0  0  0  0
  191.2160  176.4320  147.5350 C   0  0  0  0  0  3  0  0  0  0  0  0
  189.6030  177.2720  142.6490 N   0  0  0  0  0  0  0  0  0  0  0  0
  189.3590  177.2690  143.9790 C   0  0  0  0  0  0  0  0  0  0  0  0
  188.1530  177.6310  144.5130 C   0  0  0  0  0  0  0  0  0  0  0  0
  188.6100  177.6430  141.7800 C   0  0  0  0  0  0  0  0  0  0  0  0
  187.3300  178.0390  142.3020 C   0  0  0  0  0  0  0  0  0  0  0  0
  191.4870  176.4970  145.0990 C   0  0  0  0  0  3  0  0  0  0  0  0
  188.6100  178.7150  139.4920 C   0  0  0  0  0  3  0  0  0  0  0  0
  188.9280  177.6350  140.3280 C   0  0  0  0  0  0  0  0  0  0  0  0
  189.5140  176.4920  139.7600 C   0  0  0  0  0  3  0  0  0  0  0  0
  189.7970  176.4420  138.3920 C   0  0  0  0  0  3  0  0  0  0  0  0
  189.4910  177.5280  137.5680 C   0  0  0  0  0  0  0  0  0  0  0  0
  188.8920  178.6670  138.1250 C   0  0  0  0  0  3  0  0  0  0  0  0
  189.7900  177.4550  136.1730 N   0  0  0  0  0  2  0  0  0  0  0  0
  188.7620  177.3410  135.1510 C   0  0  0  0  0  2  0  0  0  0  0  0
  187.9000  176.2110  135.4560 N   0  0  0  0  0  2  0  0  0  0  0  0
  186.1610  177.5410  136.2690 O   0  0  0  0  0  0  0  0  0  0  0  0
  186.5920  176.3860  135.9990 C   0  0  0  0  0  0  0  0  0  0  0  0
  184.3680  175.5800  136.8230 C   0  0  2  0  0  3  0  0  0  0  0  0
  184.2120  173.1520  137.1990 N   0  0  0  0  0  2  0  0  0  0  0  0
  185.6240  173.0000  137.5730 C   0  0  0  0  0  2  0  0  0  0  0  0
  183.7350  174.4570  137.6530 C   0  0  0  0  0  2  0  0  0  0  0  0
  183.4450  175.9450  135.6760 C   0  0  0  0  0  1  0  0  0  0  0  0
  185.7490  175.1840  136.2750 C   0  0  2  0  0  3  0  0  0  0  0  0
  186.4800  174.2280  137.2190 C   0  0  0  0  0  2  0  0  0  0  0  0
  186.2080  178.5080  141.4300 C   0  0  0  0  0  2  0  0  0  0  0  0
  183.9720  177.7810  141.0660 O   0  0  0  0  0  1  0  0  0  0  0  0
  184.8580  178.1970  142.0610 C   0  0  2  0  0  3  0  0  0  0  0  0
  184.3300  179.3840  142.7150 N   0  0  0  0  0  2  0  0  0  0  0  0
  183.4340  178.9480  143.6980 N   0  0  0  0  0  2  0  0  0  0  0  0
  184.1480  178.9110  146.1550 N   0  0  0  0  0  0  0  0  0  0  0  0
  183.8240  178.9280  145.0430 C   0  0  0  0  0  0  0  0  0  0  0  0
  1  6  1  0  0  0  0
  2 13  1  0  0  0  0
  2  6  2  0  0  0  0
  3  7  1  0  0  0  0
  4 10  1  0  0  0  0
  5  7  2  0  0  0  0
  6  5  1  0  0  0  0
  8  9  1  0  0  0  0
  9 10  2  0  0  0  0
  9  2  1  0  0  0  0
 10  1  1  0  0  0  0
 11 12  1  0  0  0  0
 11  8  2  0  0  0  0
 12  4  2  0  0  0  0
 13  3  2  0  0  0  0
 14 15  1  0  0  0  0
 15 11  1  0  0  0  0
 16 15  2  0  0  0  0
 17 16  1  0  0  0  0
 18 19  1  0  0  0  0
 18 17  2  0  0  0  0
 19 14  2  0  0  0  0
 20 18  1  0  0  0  0
 21 22  1  0  0  0  0
 21 20  1  0  0  0  0
 22 24  1  0  0  0  0
 24 23  2  0  0  0  0
 25 29  1  6  0  0  0
 25 28  1  0  0  0  0
 26 27  1  0  0  0  0
 26 28  1  0  0  0  0
 30 24  1  1  0  0  0
 30 25  1  0  0  0  0
 30 31  1  0  0  0  0
 31 27  1  0  0  0  0
 32 34  1  0  0  0  0
 32 12  1  0  0  0  0
 34 33  1  6  0  0  0
 34 35  1  0  0  0  0
 35 36  1  0  0  0  0
 36 38  1  0  0  0  0
 38 37  3  0  0  0  0
M  END
>  <MODEL>
8

>  <REMARK>
 VINA RESULT:      -7.9      3.034      5.106
  Name = 
  10 active torsions:
  status: ('A' for Active; 'I' for Inactive)
    1  A    between atoms: C_8  and  C_32
    2  A    between atoms: C_18  and  N_25
    3  A    between atoms: C_18  and  C_28
    4  A    between atoms: C_20  and  N_23
    5  A    between atoms: N_21  and  C_22
    6  A    between atoms: N_21  and  N_25
    7  A    between atoms: N_23  and  C_24
    8  A    between atoms: C_24  and  N_27
    9  A    between atoms: C_28  and  C_33
   10  A    between atoms: C_31  and  C_38
                            x       y       z     vdW  Elec       q    Type
                         _______ _______ _______ _____ _____    ______ ____

>  <TORSDO>
F 10

$$$$
=
 OpenBabel11042410413D

 38 42  0  0  1  0  0  0  0  0999 V2000
  185.2450  178.2530  145.0840 O   0  0  0  0  0  0  0  0  0  0  0  0
  184.5410  178.4560  142.9760 C   0  0  0  0  0  0  0  0  0  0  0  0
  182.3040  178.9990  142.3480 C   0  0  0  0  0  3  0  0  0  0  0  0
  187.5680  177.7060  144.5940 C   0  0  0  0  0  3  0  0  0  0  0  0
  182.9050  178.8160  144.7190 C   0  0  0  0  0  3  0  0  0  0  0  0
  184.2030  178.5130  144.3140 C   0  0  0  0  0  0  0  0  0  0  0  0
  181.9490  179.0610  143.7150 C   0  0  0  0  0  3  0  0  0  0  0  0
  186.7210  177.9560  141.9270 N   0  0  0  0  0  0  0  0  0  0  0  0
  185.8720  178.1400  142.9630 C   0  0  0  0  0  0  0  0  0  0  0  0
  186.2590  178.0260  144.2700 C   0  0  0  0  0  0  0  0  0  0  0  0
  188.0340  177.6500  142.1750 C   0  0  0  0  0  0  0  0  0  0  0  0
  188.4800  177.5140  143.5350 C   0  0  0  0  0  0  0  0  0  0  0  0
  183.6210  178.6930  141.9590 C   0  0  0  0  0  3  0  0  0  0  0  0
  188.4870  177.6750  139.6890 C   0  0  0  0  0  3  0  0  0  0  0  0
  188.9270  177.4540  141.0030 C   0  0  0  0  0  0  0  0  0  0  0  0
  190.2320  176.9780  141.2050 C   0  0  0  0  0  3  0  0  0  0  0  0
  191.0850  176.7530  140.1210 C   0  0  0  0  0  3  0  0  0  0  0  0
  190.6440  176.9900  138.8170 C   0  0  0  0  0  0  0  0  0  0  0  0
  189.3370  177.4500  138.6050 C   0  0  0  0  0  3  0  0  0  0  0  0
  191.5340  176.7540  137.7240 N   0  0  0  0  0  2  0  0  0  0  0  0
  191.3610  175.6520  136.7900 C   0  0  0  0  0  2  0  0  0  0  0  0
  192.1370  174.5090  137.2410 N   0  0  0  0  0  2  0  0  0  0  0  0
  194.0720  175.1620  136.1080 O   0  0  0  0  0  0  0  0  0  0  0  0
  193.5060  174.3350  136.8760 C   0  0  0  0  0  0  0  0  0  0  0  0
  195.7230  173.4890  137.6780 C   0  0  2  0  0  3  0  0  0  0  0  0
  195.8700  171.0470  137.9520 N   0  0  0  0  0  2  0  0  0  0  0  0
  194.9280  170.7490  136.8660 C   0  0  0  0  0  2  0  0  0  0  0  0
  196.6260  172.2510  137.6130 C   0  0  0  0  0  2  0  0  0  0  0  0
  195.8390  174.1310  139.0480 C   0  0  0  0  0  1  0  0  0  0  0  0
  194.2520  173.1460  137.3850 C   0  0  2  0  0  3  0  0  0  0  0  0
  194.1270  171.9790  136.4050 C   0  0  0  0  0  2  0  0  0  0  0  0
  189.8810  177.1300  143.8950 C   0  0  0  0  0  2  0  0  0  0  0  0
  190.8820  179.2850  144.0050 O   0  0  0  0  0  1  0  0  0  0  0  0
  190.5250  178.1840  144.7840 C   0  0  2  0  0  3  0  0  0  0  0  0
  191.7120  177.6380  145.4240 N   0  0  0  0  0  2  0  0  0  0  0  0
  191.3200  176.4700  146.0880 N   0  0  0  0  0  2  0  0  0  0  0  0
  192.6630  175.6250  148.0960 N   0  0  0  0  0  0  0  0  0  0  0  0
  192.0550  176.0080  147.1870 C   0  0  0  0  0  0  0  0  0  0  0  0
  2  6  2  0  0  0  0
  3  7  1  0  0  0  0
  6  5  1  0  0  0  0
  6  1  1  0  0  0  0
  7  5  2  0  0  0  0
  8 11  2  0  0  0  0
  8  9  1  0  0  0  0
  9  2  1  0  0  0  0
  9 10  2  0  0  0  0
 10  4  1  0  0  0  0
 10  1  1  0  0  0  0
 11 12  1  0  0  0  0
 12 32  1  0  0  0  0
 12  4  2  0  0  0  0
 13  3  2  0  0  0  0
 13  2  1  0  0  0  0
 14 15  1  0  0  0  0
 15 16  2  0  0  0  0
 15 11  1  0  0  0  0
 17 16  1  0  0  0  0
 18 17  2  0  0  0  0
 19 18  1  0  0  0  0
 19 14  2  0  0  0  0
 20 18  1  0  0  0  0
 21 22  1  0  0  0  0
 21 20  1  0  0  0  0
 23 24  2  0  0  0  0
 24 22  1  0  0  0  0
 25 29  1  1  0  0  0
 27 26  1  0  0  0  0
 28 25  1  0  0  0  0
 28 26  1  0  0  0  0
 30 24  1  6  0  0  0
 30 25  1  0  0  0  0
 31 27  1  0  0  0  0
 31 30  1  0  0  0  0
 32 34  1  0  0  0  0
 34 33  1  6  0  0  0
 34 35  1  0  0  0  0
 35 36  1  0  0  0  0
 36 38  1  0  0  0  0
 38 37  3  0  0  0  0
M  END
>  <MODEL>
9

>  <REMARK>
 VINA RESULT:      -7.9      4.056      7.749
  Name = 
  10 active torsions:
  status: ('A' for Active; 'I' for Inactive)
    1  A    between atoms: C_8  and  C_32
    2  A    between atoms: C_18  and  N_25
    3  A    between atoms: C_18  and  C_28
    4  A    between atoms: C_20  and  N_23
    5  A    between atoms: N_21  and  C_22
    6  A    between atoms: N_21  and  N_25
    7  A    between atoms: N_23  and  C_24
    8  A    between atoms: C_24  and  N_27
    9  A    between atoms: C_28  and  C_33
   10  A    between atoms: C_31  and  C_38
                            x       y       z     vdW  Elec       q    Type
                         _______ _______ _______ _____ _____    ______ ____

>  <TORSDO>
F 10

$$$$
