=
 OpenBabel11032420233D

 39 43  0  0  1  0  0  0  0  0999 V2000
  190.1070  177.2170  142.3750 C   0  0  2  0  0  3  0  0  0  0  0  0
  185.9960  177.9720  140.7510 C   0  0  1  0  0  3  0  0  0  0  0  0
  189.6890  176.8930  147.9940 C   0  0  0  0  0  1  0  0  0  0  0  0
  190.3700  176.2150  139.5560 C   0  0  0  0  0  2  0  0  0  0  0  0
  188.3300  179.8690  142.2130 C   0  0  0  0  0  1  0  0  0  0  0  0
  188.9220  177.8080  145.7780 C   0  0  0  0  0  0  0  0  0  0  0  0
  187.8020  177.8360  138.9960 C   0  0  1  0  0  3  0  0  0  0  0  0
  189.9450  177.2410  146.5650 C   0  0  0  0  0  0  0  0  0  0  0  0
  186.3820  178.0730  144.5790 C   0  0  0  0  0  0  0  0  0  0  0  0
  184.9120  178.3510  139.9550 O   0  0  0  0  0  1  0  0  0  0  0  0
  187.2980  178.6150  140.2160 C   0  0  2  0  0  3  0  0  0  0  0  0
  187.6440  176.7190  142.7470 C   0  0  0  0  0  2  0  0  0  0  0  0
  186.9740  178.0540  137.8890 O   0  0  0  0  0  1  0  0  0  0  0  0
  191.5450  176.8920  140.2860 C   0  0  0  0  0  2  0  0  0  0  0  0
  188.6980  177.3600  141.8940 N   0  0  1  0  0  0  0  0  0  0  0  0
  189.2570  178.1350  138.6300 C   0  0  0  0  0  2  0  0  0  0  0  0
  186.5400  177.6700  143.2100 C   0  0  0  0  0  0  0  0  0  0  0  0
  190.3210  177.6230  143.8190 C   0  0  0  0  0  0  0  0  0  0  0  0
  189.9450  176.8860  138.3190 N   0  0  0  0  0  0  0  0  0  0  0  0
  191.3420  177.0380  144.5790 C   0  0  0  0  0  3  0  0  0  0  0  0
  188.4110  178.6740  141.2710 C   0  0  2  0  0  3  0  0  0  0  0  0
  189.2140  178.1250  144.4740 C   0  0  0  0  0  3  0  0  0  0  0  0
  184.7060  179.6850  143.8890 C   0  0  0  0  0  3  0  0  0  0  0  0
  184.8380  179.2830  142.5630 C   0  0  0  0  0  3  0  0  0  0  0  0
  191.1870  176.9230  145.9700 C   0  0  0  0  0  0  0  0  0  0  0  0
  185.4730  179.0870  144.8820 C   0  0  0  0  0  3  0  0  0  0  0  0
  185.7380  178.2750  142.2130 C   0  0  0  0  0  0  0  0  0  0  0  0
  187.1950  177.3050  146.0250 S   0  0  0  0  0  0  0  0  0  0  0  0
  191.1210  177.8480  141.4090 C   0  0  0  0  0  2  0  0  0  0  0  0
  192.2330  176.4120  146.7330 O   0  0  0  0  0  1  0  0  0  0  0  0
  191.0810  177.1600  137.5310 N   0  0  0  0  0  2  0  0  0  0  0  0
  190.1740  175.2230  136.5060 O   0  0  0  0  0  1  0  0  0  0  0  0
  191.2060  176.1680  136.4550 C   0  0  2  0  0  3  0  0  0  0  0  0
  192.5520  175.4690  136.5660 C   0  0  0  0  0  2  0  0  0  0  0  0
  193.5320  176.3710  137.1400 N   0  0  0  0  0  2  0  0  0  0  0  0
  194.7690  176.0490  136.5630 N   0  0  0  0  0  2  0  0  0  0  0  0
  194.8600  176.7870  135.3130 C   0  0  0  0  0  2  0  0  0  0  0  0
  195.7670  178.8610  135.4050 O   0  0  0  0  0  1  0  0  0  0  0  0
  196.0950  177.5520  135.2730 N   0  0  0  0  0  2  0  0  0  0  0  0
  1 29  1  6  0  0  0
  1 18  1  0  0  0  0
  2 10  1  6  0  0  0
  2 27  1  0  0  0  0
  4 14  1  0  0  0  0
  6 28  1  0  0  0  0
  6  8  1  0  0  0  0
  7 13  1  6  0  0  0
  7 11  1  0  0  0  0
  8  3  1  0  0  0  0
  9 26  1  0  0  0  0
  9 28  1  0  0  0  0
 11  2  1  0  0  0  0
 11 21  1  0  0  0  0
 12 17  1  0  0  0  0
 14 29  1  0  0  0  0
 15  1  1  0  0  0  0
 15 12  1  0  0  0  0
 16  7  1  0  0  0  0
 17  9  2  0  0  0  0
 18 22  1  0  0  0  0
 18 20  2  0  0  0  0
 19 16  1  0  0  0  0
 19  4  1  0  0  0  0
 20 25  1  0  0  0  0
 21 15  1  0  0  0  0
 21  5  1  0  0  0  0
 22  6  2  0  0  0  0
 23 26  2  0  0  0  0
 24 23  1  0  0  0  0
 25  8  2  0  0  0  0
 25 30  1  0  0  0  0
 27 24  2  0  0  0  0
 27 17  1  0  0  0  0
 31 19  1  0  0  0  0
 33 32  1  0  0  0  0
 33 34  1  0  0  0  0
 33 31  1  0  0  0  0
 34 35  1  0  0  0  0
 36 35  1  0  0  0  0
 37 36  1  0  0  0  0
 39 37  1  0  0  0  0
 39 38  1  0  0  0  0
M  END
>  <MODEL>
1

>  <REMARK>
 VINA RESULT:      -7.3      0.000      0.000
  Name = 
  7 active torsions:
  status: ('A' for Active; 'I' for Inactive)
    1  A    between atoms: C_3  and  N_23
    2  A    between atoms: C_3  and  N_27
    3  A    between atoms: N_9  and  N_27
    4  A    between atoms: N_9  and  C_32
    5  A    between atoms: N_22  and  N_25
    6  A    between atoms: N_25  and  C_39
    7  A    between atoms: C_32  and  C_39
                            x       y       z     vdW  Elec       q    Type
                         _______ _______ _______ _____ _____    ______ ____

>  <TORSDO>
F 7

$$$$
=
 OpenBabel11032420233D

 39 43  0  0  1  0  0  0  0  0999 V2000
  189.9810  177.2110  142.3710 C   0  0  2  0  0  3  0  0  0  0  0  0
  185.8010  178.0610  140.9910 C   0  0  1  0  0  3  0  0  0  0  0  0
  189.8620  176.7530  147.9950 C   0  0  0  0  0  1  0  0  0  0  0  0
  190.0760  176.2740  139.5190 C   0  0  0  0  0  2  0  0  0  0  0  0
  188.2380  179.8890  142.3690 C   0  0  0  0  0  1  0  0  0  0  0  0
  188.9900  177.7330  145.8460 C   0  0  0  0  0  0  0  0  0  0  0  0
  187.5060  177.9430  139.1380 C   0  0  1  0  0  3  0  0  0  0  0  0
  190.0450  177.1330  146.5640 C   0  0  0  0  0  0  0  0  0  0  0  0
  186.3930  178.0620  144.7940 C   0  0  0  0  0  0  0  0  0  0  0  0
  184.6800  178.4740  140.2640 O   0  0  0  0  0  1  0  0  0  0  0  0
  187.0810  178.6980  140.4020 C   0  0  2  0  0  3  0  0  0  0  0  0
  187.5350  176.7370  142.8640 C   0  0  0  0  0  2  0  0  0  0  0  0
  186.6240  178.2000  138.0830 O   0  0  0  0  0  1  0  0  0  0  0  0
  191.2990  176.9170  140.2000 C   0  0  0  0  0  2  0  0  0  0  0  0
  188.5510  177.3840  141.9710 N   0  0  1  0  0  0  0  0  0  0  0  0
  188.9440  178.2320  138.7010 C   0  0  0  0  0  2  0  0  0  0  0  0
  186.4720  177.6900  143.4090 C   0  0  0  0  0  0  0  0  0  0  0  0
  190.2790  177.5780  143.8110 C   0  0  0  0  0  0  0  0  0  0  0  0
  189.5960  176.9810  138.3230 N   0  0  0  0  0  0  0  0  0  0  0  0
  191.3300  176.9600  144.5000 C   0  0  0  0  0  3  0  0  0  0  0  0
  188.2500  178.7160  141.3960 C   0  0  2  0  0  3  0  0  0  0  0  0
  189.2160  178.0780  144.5360 C   0  0  0  0  0  3  0  0  0  0  0  0
  184.7070  179.7130  144.2340 C   0  0  0  0  0  3  0  0  0  0  0  0
  184.7610  179.3420  142.8940 C   0  0  0  0  0  3  0  0  0  0  0  0
  191.2480  176.8130  145.8940 C   0  0  0  0  0  0  0  0  0  0  0  0
  185.5170  179.0800  145.1700 C   0  0  0  0  0  3  0  0  0  0  0  0
  185.6260  178.3310  142.4720 C   0  0  0  0  0  0  0  0  0  0  0  0
  187.2720  177.2480  146.1750 S   0  0  0  0  0  0  0  0  0  0  0  0
  190.9500  177.8510  141.3670 C   0  0  0  0  0  2  0  0  0  0  0  0
  192.3270  176.2690  146.5870 O   0  0  0  0  0  1  0  0  0  0  0  0
  190.6910  177.2600  137.4810 N   0  0  0  0  0  2  0  0  0  0  0  0
  192.3180  175.9290  136.3810 O   0  0  0  0  0  1  0  0  0  0  0  0
  190.9460  176.1250  136.5840 C   0  0  2  0  0  3  0  0  0  0  0  0
  190.2560  176.3690  135.2510 C   0  0  0  0  0  2  0  0  0  0  0  0
  189.0890  175.5150  135.1350 N   0  0  0  0  0  2  0  0  0  0  0  0
  187.9670  176.3340  135.3210 N   0  0  0  0  0  2  0  0  0  0  0  0
  186.8970  175.4840  135.8210 C   0  0  0  0  0  2  0  0  0  0  0  0
  186.7260  173.6440  137.1320 O   0  0  0  0  0  1  0  0  0  0  0  0
  187.2890  174.8770  137.0820 N   0  0  0  0  0  2  0  0  0  0  0  0
  1 29  1  6  0  0  0
  1 18  1  0  0  0  0
  2 10  1  6  0  0  0
  2 27  1  0  0  0  0
  4 14  1  0  0  0  0
  6 28  1  0  0  0  0
  6  8  1  0  0  0  0
  7 13  1  6  0  0  0
  7 11  1  0  0  0  0
  8  3  1  0  0  0  0
  9 26  1  0  0  0  0
  9 28  1  0  0  0  0
 11  2  1  0  0  0  0
 11 21  1  0  0  0  0
 12 17  1  0  0  0  0
 14 29  1  0  0  0  0
 15  1  1  0  0  0  0
 15 12  1  0  0  0  0
 16  7  1  0  0  0  0
 17  9  2  0  0  0  0
 18 20  2  0  0  0  0
 18 22  1  0  0  0  0
 19 16  1  0  0  0  0
 19  4  1  0  0  0  0
 20 25  1  0  0  0  0
 21 15  1  0  0  0  0
 21  5  1  0  0  0  0
 22  6  2  0  0  0  0
 23 26  2  0  0  0  0
 24 23  1  0  0  0  0
 25  8  2  0  0  0  0
 25 30  1  0  0  0  0
 27 24  2  0  0  0  0
 27 17  1  0  0  0  0
 31 19  1  0  0  0  0
 32 33  1  0  0  0  0
 33 31  1  0  0  0  0
 34 33  1  0  0  0  0
 35 34  1  0  0  0  0
 35 36  1  0  0  0  0
 36 37  1  0  0  0  0
 37 39  1  0  0  0  0
 39 38  1  0  0  0  0
M  END
>  <MODEL>
2

>  <REMARK>
 VINA RESULT:      -6.8      1.689      3.008
  Name = 
  7 active torsions:
  status: ('A' for Active; 'I' for Inactive)
    1  A    between atoms: C_3  and  N_23
    2  A    between atoms: C_3  and  N_27
    3  A    between atoms: N_9  and  N_27
    4  A    between atoms: N_9  and  C_32
    5  A    between atoms: N_22  and  N_25
    6  A    between atoms: N_25  and  C_39
    7  A    between atoms: C_32  and  C_39
                            x       y       z     vdW  Elec       q    Type
                         _______ _______ _______ _____ _____    ______ ____

>  <TORSDO>
F 7

$$$$
=
 OpenBabel11032420233D

 39 43  0  0  1  0  0  0  0  0999 V2000
  189.7900  177.2160  142.1970 C   0  0  2  0  0  3  0  0  0  0  0  0
  185.5490  178.0410  140.9980 C   0  0  1  0  0  3  0  0  0  0  0  0
  189.9260  176.8190  147.8260 C   0  0  0  0  0  1  0  0  0  0  0  0
  189.7600  176.2500  139.3540 C   0  0  0  0  0  2  0  0  0  0  0  0
  188.0400  179.8900  142.2460 C   0  0  0  0  0  1  0  0  0  0  0  0
  188.9550  177.7730  145.7080 C   0  0  0  0  0  0  0  0  0  0  0  0
  187.1700  177.9080  139.0710 C   0  0  1  0  0  3  0  0  0  0  0  0
  190.0430  177.1840  146.3830 C   0  0  0  0  0  0  0  0  0  0  0  0
  186.3130  178.0840  144.7700 C   0  0  0  0  0  0  0  0  0  0  0  0
  184.3960  178.4430  140.3190 O   0  0  0  0  0  1  0  0  0  0  0  0
  186.7990  178.6750  140.3450 C   0  0  2  0  0  3  0  0  0  0  0  0
  187.3700  176.7410  142.8050 C   0  0  0  0  0  2  0  0  0  0  0  0
  186.2400  178.1510  138.0550 O   0  0  0  0  0  1  0  0  0  0  0  0
  191.0100  176.9030  139.9720 C   0  0  0  0  0  2  0  0  0  0  0  0
  188.3420  177.3820  141.8600 N   0  0  1  0  0  0  0  0  0  0  0  0
  188.5850  178.1960  138.5670 C   0  0  0  0  0  2  0  0  0  0  0  0
  186.3300  177.6980  143.3870 C   0  0  0  0  0  0  0  0  0  0  0  0
  190.1510  177.6000  143.6190 C   0  0  0  0  0  0  0  0  0  0  0  0
  189.2230  176.9430  138.1730 N   0  0  0  0  0  0  0  0  0  0  0  0
  191.2350  176.9930  144.2660 C   0  0  0  0  0  3  0  0  0  0  0  0
  188.0120  178.7070  141.2850 C   0  0  2  0  0  3  0  0  0  0  0  0
  189.1200  178.1050  144.3860 C   0  0  0  0  0  3  0  0  0  0  0  0
  184.5970  179.7240  144.2700 C   0  0  0  0  0  3  0  0  0  0  0  0
  184.5920  179.3390  142.9330 C   0  0  0  0  0  3  0  0  0  0  0  0
  191.2160  176.8600  145.6640 C   0  0  0  0  0  0  0  0  0  0  0  0
  185.4510  179.1030  145.1750 C   0  0  0  0  0  3  0  0  0  0  0  0
  185.4400  178.3260  142.4830 C   0  0  0  0  0  0  0  0  0  0  0  0
  187.2550  177.2870  146.1190 S   0  0  0  0  0  0  0  0  0  0  0  0
  190.7110  177.8490  141.1440 C   0  0  0  0  0  2  0  0  0  0  0  0
  192.3270  176.3270  146.3130 O   0  0  0  0  0  1  0  0  0  0  0  0
  190.2790  177.2150  137.2800 N   0  0  0  0  0  2  0  0  0  0  0  0
  188.6880  176.1920  135.8500 O   0  0  0  0  0  1  0  0  0  0  0  0
  189.8520  176.9680  135.8970 C   0  0  2  0  0  3  0  0  0  0  0  0
  190.9700  176.2670  135.1400 C   0  0  0  0  0  2  0  0  0  0  0  0
  192.0190  175.8720  136.0610 N   0  0  0  0  0  2  0  0  0  0  0  0
  192.5010  174.6320  135.6190 N   0  0  0  0  0  2  0  0  0  0  0  0
  191.4660  173.6490  135.9000 C   0  0  0  0  0  2  0  0  0  0  0  0
  189.7840  173.3810  137.3940 O   0  0  0  0  0  1  0  0  0  0  0  0
  191.1000  173.6960  137.3060 N   0  0  0  0  0  2  0  0  0  0  0  0
  1 29  1  6  0  0  0
  1 18  1  0  0  0  0
  2 10  1  6  0  0  0
  2 27  1  0  0  0  0
  4 14  1  0  0  0  0
  6 28  1  0  0  0  0
  6  8  1  0  0  0  0
  7 13  1  6  0  0  0
  7 11  1  0  0  0  0
  8  3  1  0  0  0  0
  9 26  1  0  0  0  0
  9 28  1  0  0  0  0
 11  2  1  0  0  0  0
 11 21  1  0  0  0  0
 12 17  1  0  0  0  0
 14 29  1  0  0  0  0
 15  1  1  0  0  0  0
 15 12  1  0  0  0  0
 16  7  1  0  0  0  0
 17  9  2  0  0  0  0
 18 20  2  0  0  0  0
 18 22  1  0  0  0  0
 19 16  1  0  0  0  0
 19  4  1  0  0  0  0
 20 25  1  0  0  0  0
 21 15  1  0  0  0  0
 21  5  1  0  0  0  0
 22  6  2  0  0  0  0
 23 26  2  0  0  0  0
 24 23  1  0  0  0  0
 25 30  1  0  0  0  0
 25  8  2  0  0  0  0
 27 24  2  0  0  0  0
 27 17  1  0  0  0  0
 31 19  1  0  0  0  0
 32 33  1  0  0  0  0
 33 31  1  0  0  0  0
 34 33  1  0  0  0  0
 34 35  1  0  0  0  0
 36 37  1  0  0  0  0
 36 35  1  0  0  0  0
 37 39  1  0  0  0  0
 39 38  1  0  0  0  0
M  END
>  <MODEL>
3

>  <REMARK>
 VINA RESULT:      -6.8      1.764      2.059
  Name = 
  7 active torsions:
  status: ('A' for Active; 'I' for Inactive)
    1  A    between atoms: C_3  and  N_23
    2  A    between atoms: C_3  and  N_27
    3  A    between atoms: N_9  and  N_27
    4  A    between atoms: N_9  and  C_32
    5  A    between atoms: N_22  and  N_25
    6  A    between atoms: N_25  and  C_39
    7  A    between atoms: C_32  and  C_39
                            x       y       z     vdW  Elec       q    Type
                         _______ _______ _______ _____ _____    ______ ____

>  <TORSDO>
F 7

$$$$
=
 OpenBabel11032420233D

 39 43  0  0  1  0  0  0  0  0999 V2000
  187.4140  178.2270  143.4630 C   0  0  2  0  0  3  0  0  0  0  0  0
  191.5070  177.1030  142.0190 C   0  0  1  0  0  3  0  0  0  0  0  0
  187.5320  178.2190  149.1060 C   0  0  0  0  0  1  0  0  0  0  0  0
  187.4270  179.3930  140.6950 C   0  0  0  0  0  2  0  0  0  0  0  0
  188.9010  175.4060  143.2460 C   0  0  0  0  0  1  0  0  0  0  0  0
  188.3250  177.3380  146.8850 C   0  0  0  0  0  0  0  0  0  0  0  0
  189.8340  177.5280  140.1820 C   0  0  1  0  0  3  0  0  0  0  0  0
  187.3250  177.9740  147.6480 C   0  0  0  0  0  0  0  0  0  0  0  0
  190.8880  176.8530  145.8100 C   0  0  0  0  0  0  0  0  0  0  0  0
  192.5900  176.6480  141.2620 O   0  0  0  0  0  1  0  0  0  0  0  0
  190.1780  176.6370  141.3810 C   0  0  2  0  0  3  0  0  0  0  0  0
  189.8900  178.4290  143.9930 C   0  0  0  0  0  2  0  0  0  0  0  0
  190.6970  177.2750  139.1100 O   0  0  0  0  0  1  0  0  0  0  0  0
  186.1450  178.8150  141.3230 C   0  0  0  0  0  2  0  0  0  0  0  0
  188.8250  177.9530  143.0500 N   0  0  1  0  0  0  0  0  0  0  0  0
  188.3790  177.4100  139.7230 C   0  0  0  0  0  2  0  0  0  0  0  0
  190.8550  177.3400  144.4600 C   0  0  0  0  0  0  0  0  0  0  0  0
  187.0730  177.7750  144.8690 C   0  0  0  0  0  0  0  0  0  0  0  0
  187.8490  178.7420  139.4470 N   0  0  0  0  0  0  0  0  0  0  0  0
  186.0780  178.4300  145.6050 C   0  0  0  0  0  3  0  0  0  0  0  0
  189.0050  176.6490  142.3700 C   0  0  2  0  0  3  0  0  0  0  0  0
  188.0790  177.1210  145.5520 C   0  0  0  0  0  3  0  0  0  0  0  0
  192.4180  175.1020  145.1190 C   0  0  0  0  0  3  0  0  0  0  0  0
  192.4090  175.5830  143.8130 C   0  0  0  0  0  3  0  0  0  0  0  0
  186.1620  178.4570  147.0070 C   0  0  0  0  0  0  0  0  0  0  0  0
  191.6640  175.7310  146.1030 C   0  0  0  0  0  3  0  0  0  0  0  0
  191.6450  176.7010  143.4740 C   0  0  0  0  0  0  0  0  0  0  0  0
  190.0790  177.6320  147.2520 S   0  0  0  0  0  0  0  0  0  0  0  0
  186.3970  177.7620  142.4110 C   0  0  0  0  0  2  0  0  0  0  0  0
  185.1340  179.0420  147.7410 O   0  0  0  0  0  1  0  0  0  0  0  0
  186.7390  178.6360  138.5850 N   0  0  0  0  0  2  0  0  0  0  0  0
  187.9340  178.5200  136.5400 O   0  0  0  0  0  1  0  0  0  0  0  0
  187.0830  177.8260  137.4090 C   0  0  2  0  0  3  0  0  0  0  0  0
  185.8100  177.4300  136.6780 C   0  0  0  0  0  2  0  0  0  0  0  0
  184.8220  176.9520  137.6280 N   0  0  0  0  0  2  0  0  0  0  0  0
  183.6750  177.7380  137.4500 N   0  0  0  0  0  2  0  0  0  0  0  0
  183.2890  178.2310  138.7630 C   0  0  0  0  0  2  0  0  0  0  0  0
  184.0550  180.3490  139.0020 O   0  0  0  0  0  1  0  0  0  0  0  0
  182.9430  179.6400  138.6850 N   0  0  0  0  0  2  0  0  0  0  0  0
  1 29  1  6  0  0  0
  1 18  1  0  0  0  0
  2 10  1  6  0  0  0
  2 27  1  0  0  0  0
  4 14  1  0  0  0  0
  6 28  1  0  0  0  0
  6  8  1  0  0  0  0
  7 13  1  6  0  0  0
  7 11  1  0  0  0  0
  8  3  1  0  0  0  0
  9 26  1  0  0  0  0
  9 28  1  0  0  0  0
 11  2  1  0  0  0  0
 11 21  1  0  0  0  0
 12 17  1  0  0  0  0
 14 29  1  0  0  0  0
 15  1  1  0  0  0  0
 15 12  1  0  0  0  0
 16  7  1  0  0  0  0
 17  9  2  0  0  0  0
 18 22  1  0  0  0  0
 18 20  2  0  0  0  0
 19 16  1  0  0  0  0
 19  4  1  0  0  0  0
 20 25  1  0  0  0  0
 21 15  1  0  0  0  0
 21  5  1  0  0  0  0
 22  6  2  0  0  0  0
 23 26  2  0  0  0  0
 24 23  1  0  0  0  0
 25  8  2  0  0  0  0
 25 30  1  0  0  0  0
 27 24  2  0  0  0  0
 27 17  1  0  0  0  0
 31 19  1  0  0  0  0
 32 33  1  0  0  0  0
 33 31  1  0  0  0  0
 34 33  1  0  0  0  0
 34 35  1  0  0  0  0
 36 35  1  0  0  0  0
 36 37  1  0  0  0  0
 39 37  1  0  0  0  0
 39 38  1  0  0  0  0
M  END
>  <MODEL>
4

>  <REMARK>
 VINA RESULT:      -6.7      3.421      6.238
  Name = 
  7 active torsions:
  status: ('A' for Active; 'I' for Inactive)
    1  A    between atoms: C_3  and  N_23
    2  A    between atoms: C_3  and  N_27
    3  A    between atoms: N_9  and  N_27
    4  A    between atoms: N_9  and  C_32
    5  A    between atoms: N_22  and  N_25
    6  A    between atoms: N_25  and  C_39
    7  A    between atoms: C_32  and  C_39
                            x       y       z     vdW  Elec       q    Type
                         _______ _______ _______ _____ _____    ______ ____

>  <TORSDO>
F 7

$$$$
=
 OpenBabel11032420233D

 39 43  0  0  1  0  0  0  0  0999 V2000
  187.2470  178.2750  142.2670 C   0  0  2  0  0  3  0  0  0  0  0  0
  191.6470  177.4130  142.2660 C   0  0  1  0  0  3  0  0  0  0  0  0
  185.6430  178.9600  147.6350 C   0  0  0  0  0  1  0  0  0  0  0  0
  188.0290  179.0940  139.4860 C   0  0  0  0  0  2  0  0  0  0  0  0
  188.9000  175.6160  142.9090 C   0  0  0  0  0  1  0  0  0  0  0  0
  187.1270  177.9030  145.8980 C   0  0  0  0  0  0  0  0  0  0  0  0
  190.5890  177.4380  139.9780 C   0  0  1  0  0  3  0  0  0  0  0  0
  185.9050  178.5200  146.2330 C   0  0  0  0  0  0  0  0  0  0  0  0
  189.9200  177.5590  145.7030 C   0  0  0  0  0  0  0  0  0  0  0  0
  192.9340  176.9830  141.9340 O   0  0  0  0  0  1  0  0  0  0  0  0
  190.6060  176.7390  141.3410 C   0  0  2  0  0  3  0  0  0  0  0  0
  189.4260  178.7930  143.4630 C   0  0  0  0  0  2  0  0  0  0  0  0
  191.7500  177.1480  139.2540 O   0  0  0  0  0  1  0  0  0  0  0  0
  186.6550  178.4660  139.7880 C   0  0  0  0  0  2  0  0  0  0  0  0
  188.7300  178.1000  142.3300 N   0  0  1  0  0  0  0  0  0  0  0  0
  189.3520  177.1160  139.1350 C   0  0  0  0  0  2  0  0  0  0  0  0
  190.2690  177.8740  144.3460 C   0  0  0  0  0  0  0  0  0  0  0  0
  186.5220  177.9630  143.5620 C   0  0  0  0  0  0  0  0  0  0  0  0
  188.8500  178.3440  138.5240 N   0  0  0  0  0  0  0  0  0  0  0  0
  185.3120  178.5970  143.8700 C   0  0  0  0  0  3  0  0  0  0  0  0
  189.1890  176.7490  141.9310 C   0  0  2  0  0  3  0  0  0  0  0  0
  187.3120  177.5030  144.5970 C   0  0  0  0  0  3  0  0  0  0  0  0
  191.6930  175.9040  145.7540 C   0  0  0  0  0  3  0  0  0  0  0  0
  192.0520  176.2200  144.4470 C   0  0  0  0  0  3  0  0  0  0  0  0
  184.9640  178.8010  145.2160 C   0  0  0  0  0  0  0  0  0  0  0  0
  190.6380  176.5660  146.3710 C   0  0  0  0  0  3  0  0  0  0  0  0
  191.3600  177.2050  143.7400 C   0  0  0  0  0  0  0  0  0  0  0  0
  188.6640  178.4190  146.7150 S   0  0  0  0  0  0  0  0  0  0  0  0
  186.6280  177.5840  141.0430 C   0  0  0  0  0  2  0  0  0  0  0  0
  183.7270  179.3610  145.5230 O   0  0  0  0  0  1  0  0  0  0  0  0
  188.0630  178.0210  137.4010 N   0  0  0  0  0  2  0  0  0  0  0  0
  189.3790  177.8770  135.4320 O   0  0  0  0  0  1  0  0  0  0  0  0
  188.8140  177.1490  136.4870 C   0  0  2  0  0  3  0  0  0  0  0  0
  187.8880  176.0760  135.9360 C   0  0  0  0  0  2  0  0  0  0  0  0
  188.1800  174.8010  136.5640 N   0  0  0  0  0  2  0  0  0  0  0  0
  188.8590  174.0270  135.6130 N   0  0  0  0  0  2  0  0  0  0  0  0
  189.8750  173.2690  136.3270 C   0  0  0  0  0  2  0  0  0  0  0  0
  191.5070  174.1950  137.5960 O   0  0  0  0  0  1  0  0  0  0  0  0
  190.1800  173.9140  137.5930 N   0  0  0  0  0  2  0  0  0  0  0  0
  1 29  1  6  0  0  0
  1 15  1  0  0  0  0
  1 18  1  0  0  0  0
  2 10  1  6  0  0  0
  2 27  1  0  0  0  0
  4 14  1  0  0  0  0
  6  8  1  0  0  0  0
  6 28  1  0  0  0  0
  7 13  1  6  0  0  0
  7 11  1  0  0  0  0
  8  3  1  0  0  0  0
  9 26  1  0  0  0  0
  9 28  1  0  0  0  0
 11 21  1  0  0  0  0
 11  2  1  0  0  0  0
 12 17  1  0  0  0  0
 14 29  1  0  0  0  0
 15 12  1  0  0  0  0
 16  7  1  0  0  0  0
 17  9  2  0  0  0  0
 18 20  2  0  0  0  0
 18 22  1  0  0  0  0
 19 16  1  0  0  0  0
 19  4  1  0  0  0  0
 20 25  1  0  0  0  0
 21 15  1  0  0  0  0
 21  5  1  0  0  0  0
 22  6  2  0  0  0  0
 23 26  2  0  0  0  0
 24 23  1  0  0  0  0
 25 30  1  0  0  0  0
 25  8  2  0  0  0  0
 27 17  1  0  0  0  0
 27 24  2  0  0  0  0
 31 19  1  0  0  0  0
 32 33  1  0  0  0  0
 33 31  1  0  0  0  0
 34 33  1  0  0  0  0
 34 35  1  0  0  0  0
 36 37  1  0  0  0  0
 36 35  1  0  0  0  0
 37 39  1  0  0  0  0
 39 38  1  0  0  0  0
M  END
>  <MODEL>
5

>  <REMARK>
 VINA RESULT:      -6.5      2.830      5.008
  Name = 
  7 active torsions:
  status: ('A' for Active; 'I' for Inactive)
    1  A    between atoms: C_3  and  N_23
    2  A    between atoms: C_3  and  N_27
    3  A    between atoms: N_9  and  N_27
    4  A    between atoms: N_9  and  C_32
    5  A    between atoms: N_22  and  N_25
    6  A    between atoms: N_25  and  C_39
    7  A    between atoms: C_32  and  C_39
                            x       y       z     vdW  Elec       q    Type
                         _______ _______ _______ _____ _____    ______ ____

>  <TORSDO>
F 7

$$$$
=
 OpenBabel11032420233D

 39 43  0  0  1  0  0  0  0  0999 V2000
  187.3280  178.2350  142.0810 C   0  0  2  0  0  3  0  0  0  0  0  0
  191.7380  177.4630  142.3240 C   0  0  1  0  0  3  0  0  0  0  0  0
  185.4310  178.9750  147.3450 C   0  0  0  0  0  1  0  0  0  0  0  0
  188.2390  179.0250  139.3300 C   0  0  0  0  0  2  0  0  0  0  0  0
  188.9970  175.6220  142.8540 C   0  0  0  0  0  1  0  0  0  0  0  0
  187.0250  177.9210  145.7050 C   0  0  0  0  0  0  0  0  0  0  0  0
  190.8010  177.4300  139.9830 C   0  0  1  0  0  3  0  0  0  0  0  0
  185.7750  178.5180  145.9660 C   0  0  0  0  0  0  0  0  0  0  0  0
  189.8310  177.6300  145.6630 C   0  0  0  0  0  0  0  0  0  0  0  0
  193.0490  177.0540  142.0670 O   0  0  0  0  0  1  0  0  0  0  0  0
  190.7600  176.7530  141.3580 C   0  0  2  0  0  3  0  0  0  0  0  0
  189.4310  178.8180  143.3800 C   0  0  0  0  0  2  0  0  0  0  0  0
  192.0050  177.1510  139.3270 O   0  0  0  0  0  1  0  0  0  0  0  0
  186.8640  178.3750  139.5700 C   0  0  0  0  0  2  0  0  0  0  0  0
  188.8090  178.0920  142.2240 N   0  0  1  0  0  0  0  0  0  0  0  0
  189.6170  177.0690  139.0830 C   0  0  0  0  0  2  0  0  0  0  0  0
  190.2450  177.9300  144.3210 C   0  0  0  0  0  0  0  0  0  0  0  0
  186.5430  177.9300  143.3410 C   0  0  0  0  0  0  0  0  0  0  0  0
  189.1240  178.2760  138.4260 N   0  0  0  0  0  0  0  0  0  0  0  0
  185.3060  178.5440  143.5750 C   0  0  0  0  0  3  0  0  0  0  0  0
  189.3140  176.7440  141.8720 C   0  0  2  0  0  3  0  0  0  0  0  0
  187.2850  177.5030  144.4240 C   0  0  0  0  0  3  0  0  0  0  0  0
  191.6300  176.0130  145.8350 C   0  0  0  0  0  3  0  0  0  0  0  0
  192.0510  176.3150  144.5440 C   0  0  0  0  0  3  0  0  0  0  0  0
  184.8840  178.7630  144.8960 C   0  0  0  0  0  0  0  0  0  0  0  0
  190.5310  176.6630  146.3840 C   0  0  0  0  0  3  0  0  0  0  0  0
  191.3780  177.2730  143.7840 C   0  0  0  0  0  0  0  0  0  0  0  0
  188.5060  178.4810  146.5930 S   0  0  0  0  0  0  0  0  0  0  0  0
  186.7880  177.5130  140.8380 C   0  0  0  0  0  2  0  0  0  0  0  0
  183.6210  179.3030  145.1290 O   0  0  0  0  0  1  0  0  0  0  0  0
  188.4040  177.9190  137.2680 N   0  0  0  0  0  2  0  0  0  0  0  0
  189.8060  177.1280  135.5270 O   0  0  0  0  0  1  0  0  0  0  0  0
  189.0210  176.7520  136.6240 C   0  0  2  0  0  3  0  0  0  0  0  0
  187.9350  175.7880  136.1750 C   0  0  0  0  0  2  0  0  0  0  0  0
  186.6820  176.1150  136.8300 N   0  0  0  0  0  2  0  0  0  0  0  0
  185.8440  175.0010  136.6810 N   0  0  0  0  0  2  0  0  0  0  0  0
  186.5630  173.8530  137.2120 C   0  0  0  0  0  2  0  0  0  0  0  0
  184.3940  173.3920  137.6750 O   0  0  0  0  0  1  0  0  0  0  0  0
  185.6590  173.0030  137.9680 N   0  0  0  0  0  2  0  0  0  0  0  0
  1 29  1  6  0  0  0
  1 15  1  0  0  0  0
  1 18  1  0  0  0  0
  2 10  1  1  0  0  0
  2 27  1  0  0  0  0
  4 14  1  0  0  0  0
  6  8  1  0  0  0  0
  6 28  1  0  0  0  0
  7 13  1  6  0  0  0
  7 11  1  0  0  0  0
  8  3  1  0  0  0  0
  9 26  1  0  0  0  0
  9 28  1  0  0  0  0
 11 21  1  0  0  0  0
 11  2  1  0  0  0  0
 12 17  1  0  0  0  0
 14 29  1  0  0  0  0
 15 12  1  0  0  0  0
 16  7  1  0  0  0  0
 17  9  2  0  0  0  0
 18 20  2  0  0  0  0
 18 22  1  0  0  0  0
 19 16  1  0  0  0  0
 19  4  1  0  0  0  0
 20 25  1  0  0  0  0
 21 15  1  0  0  0  0
 21  5  1  0  0  0  0
 22  6  2  0  0  0  0
 23 26  2  0  0  0  0
 24 23  1  0  0  0  0
 25 30  1  0  0  0  0
 25  8  2  0  0  0  0
 27 17  1  0  0  0  0
 27 24  2  0  0  0  0
 31 19  1  0  0  0  0
 32 33  1  0  0  0  0
 33 31  1  0  0  0  0
 34 33  1  0  0  0  0
 34 35  1  0  0  0  0
 36 35  1  0  0  0  0
 36 37  1  0  0  0  0
 37 39  1  0  0  0  0
 38 39  1  0  0  0  0
M  END
>  <MODEL>
6

>  <REMARK>
 VINA RESULT:      -6.4      2.902      5.726
  Name = 
  7 active torsions:
  status: ('A' for Active; 'I' for Inactive)
    1  A    between atoms: C_3  and  N_23
    2  A    between atoms: C_3  and  N_27
    3  A    between atoms: N_9  and  N_27
    4  A    between atoms: N_9  and  C_32
    5  A    between atoms: N_22  and  N_25
    6  A    between atoms: N_25  and  C_39
    7  A    between atoms: C_32  and  C_39
                            x       y       z     vdW  Elec       q    Type
                         _______ _______ _______ _____ _____    ______ ____

>  <TORSDO>
F 7

$$$$
=
 OpenBabel11032420233D

 39 43  0  0  1  0  0  0  0  0999 V2000
  185.1970  178.3620  141.2490 C   0  0  2  0  0  3  0  0  0  0  0  0
  184.1280  177.2010  137.0520 C   0  0  1  0  0  3  0  0  0  0  0  0
  180.4080  178.6040  144.2260 C   0  0  0  0  0  1  0  0  0  0  0  0
  187.7850  177.2040  140.2570 C   0  0  0  0  0  2  0  0  0  0  0  0
  183.9830  180.0390  138.8140 C   0  0  0  0  0  1  0  0  0  0  0  0
  181.6710  178.8510  142.0620 C   0  0  0  0  0  0  0  0  0  0  0  0
  186.5910  177.5790  137.4340 C   0  0  1  0  0  3  0  0  0  0  0  0
  181.6730  178.8430  143.4720 C   0  0  0  0  0  0  0  0  0  0  0  0
  181.1970  177.9260  139.4390 C   0  0  0  0  0  0  0  0  0  0  0  0
  184.1230  177.0110  135.6680 O   0  0  0  0  0  1  0  0  0  0  0  0
  185.2080  178.2380  137.4430 C   0  0  2  0  0  3  0  0  0  0  0  0
  183.5830  176.9720  139.8670 C   0  0  0  0  0  2  0  0  0  0  0  0
  187.0060  177.3080  136.1260 O   0  0  0  0  0  1  0  0  0  0  0  0
  187.7530  178.3810  141.2520 C   0  0  0  0  0  2  0  0  0  0  0  0
  184.7840  177.8680  139.8990 N   0  0  1  0  0  0  0  0  0  0  0  0
  187.6640  178.3880  138.1670 C   0  0  0  0  0  2  0  0  0  0  0  0
  182.4600  177.4510  138.9470 C   0  0  0  0  0  0  0  0  0  0  0  0
  184.0800  178.9970  142.0540 C   0  0  0  0  0  0  0  0  0  0  0  0
  188.4700  177.4890  138.9890 N   0  0  0  0  0  0  0  0  0  0  0  0
  184.1070  178.9700  143.4540 C   0  0  0  0  0  3  0  0  0  0  0  0
  184.9580  178.8680  138.8200 C   0  0  2  0  0  3  0  0  0  0  0  0
  182.8590  179.0920  141.4170 C   0  0  0  0  0  3  0  0  0  0  0  0
  180.6100  178.6330  137.1940 C   0  0  0  0  0  3  0  0  0  0  0  0
  181.8230  178.1540  136.7060 C   0  0  0  0  0  3  0  0  0  0  0  0
  182.8970  178.9770  144.1670 C   0  0  0  0  0  0  0  0  0  0  0  0
  180.3060  178.5200  138.5460 C   0  0  0  0  0  3  0  0  0  0  0  0
  182.7460  177.5550  137.5650 C   0  0  0  0  0  0  0  0  0  0  0  0
  180.5700  177.7350  141.1460 S   0  0  0  0  0  0  0  0  0  0  0  0
  186.4690  179.2200  141.1940 C   0  0  0  0  0  2  0  0  0  0  0  0
  182.9260  179.0270  145.5580 O   0  0  0  0  0  1  0  0  0  0  0  0
  189.7140  178.0940  139.2630 N   0  0  0  0  0  2  0  0  0  0  0  0
  191.6740  177.5660  140.4880 O   0  0  0  0  0  1  0  0  0  0  0  0
  190.7150  177.0720  139.5960 C   0  0  2  0  0  3  0  0  0  0  0  0
  191.3930  176.5940  138.3210 C   0  0  0  0  0  2  0  0  0  0  0  0
  191.3320  175.1470  138.2420 N   0  0  0  0  0  2  0  0  0  0  0  0
  192.5060  174.7260  137.6000 N   0  0  0  0  0  2  0  0  0  0  0  0
  193.5100  175.7530  137.8340 C   0  0  0  0  0  2  0  0  0  0  0  0
  194.6290  176.9600  136.2770 O   0  0  0  0  0  1  0  0  0  0  0  0
  194.5220  175.7090  136.7920 N   0  0  0  0  0  2  0  0  0  0  0  0
  1 29  1  6  0  0  0
  1 18  1  0  0  0  0
  2 10  1  6  0  0  0
  2 11  1  0  0  0  0
  2 27  1  0  0  0  0
  4 14  1  0  0  0  0
  5 21  1  0  0  0  0
  6  8  1  0  0  0  0
  7 13  1  6  0  0  0
  7 11  1  0  0  0  0
  7 16  1  0  0  0  0
  8 25  2  0  0  0  0
  8  3  1  0  0  0  0
  9 28  1  0  0  0  0
 11 21  1  0  0  0  0
 12 15  1  0  0  0  0
 15  1  1  0  0  0  0
 16 19  1  0  0  0  0
 17  9  1  0  0  0  0
 17 12  1  0  0  0  0
 18 20  2  0  0  0  0
 19 31  1  0  0  0  0
 19  4  1  0  0  0  0
 20 25  1  0  0  0  0
 21 15  1  0  0  0  0
 22 18  1  0  0  0  0
 22  6  2  0  0  0  0
 23 26  1  0  0  0  0
 24 23  2  0  0  0  0
 24 27  1  0  0  0  0
 25 30  1  0  0  0  0
 26  9  2  0  0  0  0
 27 17  2  0  0  0  0
 28  6  1  0  0  0  0
 29 14  1  0  0  0  0
 31 33  1  0  0  0  0
 33 32  1  0  0  0  0
 34 33  1  0  0  0  0
 35 34  1  0  0  0  0
 36 37  1  0  0  0  0
 36 35  1  0  0  0  0
 38 39  1  0  0  0  0
 39 37  1  0  0  0  0
M  END
>  <MODEL>
7

>  <REMARK>
 VINA RESULT:      -6.1      3.507      5.669
  Name = 
  7 active torsions:
  status: ('A' for Active; 'I' for Inactive)
    1  A    between atoms: C_3  and  N_23
    2  A    between atoms: C_3  and  N_27
    3  A    between atoms: N_9  and  N_27
    4  A    between atoms: N_9  and  C_32
    5  A    between atoms: N_22  and  N_25
    6  A    between atoms: N_25  and  C_39
    7  A    between atoms: C_32  and  C_39
                            x       y       z     vdW  Elec       q    Type
                         _______ _______ _______ _____ _____    ______ ____

>  <TORSDO>
F 7

$$$$
=
 OpenBabel11032420233D

 39 43  0  0  1  0  0  0  0  0999 V2000
  184.8300  178.4070  141.1280 C   0  0  2  0  0  3  0  0  0  0  0  0
  183.6120  177.1490  137.0010 C   0  0  1  0  0  3  0  0  0  0  0  0
  180.1910  178.4450  144.3410 C   0  0  0  0  0  1  0  0  0  0  0  0
  187.4200  177.3680  140.0160 C   0  0  0  0  0  2  0  0  0  0  0  0
  183.4140  179.9960  138.7440 C   0  0  0  0  0  1  0  0  0  0  0  0
  181.3300  178.7300  142.1150 C   0  0  0  0  0  0  0  0  0  0  0  0
  186.0690  177.6520  137.2540 C   0  0  1  0  0  3  0  0  0  0  0  0
  181.4030  178.7380  143.5220 C   0  0  0  0  0  0  0  0  0  0  0  0
  180.7720  177.7540  139.5270 C   0  0  0  0  0  0  0  0  0  0  0  0
  183.5460  176.9440  135.6200 O   0  0  0  0  0  1  0  0  0  0  0  0
  184.6560  178.2420  137.3270 C   0  0  2  0  0  3  0  0  0  0  0  0
  183.2200  176.9240  139.8410 C   0  0  0  0  0  2  0  0  0  0  0  0
  186.4300  177.3880  135.9280 O   0  0  0  0  0  1  0  0  0  0  0  0
  187.3800  178.5520  141.0000 C   0  0  0  0  0  2  0  0  0  0  0  0
  184.3760  177.8790  139.8050 N   0  0  1  0  0  0  0  0  0  0  0  0
  187.1360  178.5210  137.9240 C   0  0  0  0  0  2  0  0  0  0  0  0
  182.0300  177.3370  138.9750 C   0  0  0  0  0  0  0  0  0  0  0  0
  183.7250  178.9950  141.9820 C   0  0  0  0  0  0  0  0  0  0  0  0
  188.0260  177.6720  138.7120 N   0  0  0  0  0  0  0  0  0  0  0  0
  183.8240  178.9840  143.3790 C   0  0  0  0  0  3  0  0  0  0  0  0
  184.4460  178.8740  138.7090 C   0  0  2  0  0  3  0  0  0  0  0  0
  182.4700  179.0230  141.4070 C   0  0  0  0  0  3  0  0  0  0  0  0
  180.0380  178.4070  137.3090 C   0  0  0  0  0  3  0  0  0  0  0  0
  181.2470  177.9830  136.7640 C   0  0  0  0  0  3  0  0  0  0  0  0
  182.6520  178.9400  144.1530 C   0  0  0  0  0  0  0  0  0  0  0  0
  179.8080  178.2940  138.6750 C   0  0  0  0  0  3  0  0  0  0  0  0
  182.2410  177.4400  137.5790 C   0  0  0  0  0  0  0  0  0  0  0  0
  180.2410  177.5510  141.2650 S   0  0  0  0  0  0  0  0  0  0  0  0
  186.0540  179.3260  141.0010 C   0  0  0  0  0  2  0  0  0  0  0  0
  182.7480  179.0060  145.5400 O   0  0  0  0  0  1  0  0  0  0  0  0
  189.2500  178.3400  138.9170 N   0  0  0  0  0  2  0  0  0  0  0  0
  189.9310  176.2050  138.1420 O   0  0  0  0  0  1  0  0  0  0  0  0
  190.3750  177.4480  138.6110 C   0  0  2  0  0  3  0  0  0  0  0  0
  191.2230  177.2560  139.8580 C   0  0  0  0  0  2  0  0  0  0  0  0
  190.5390  176.3810  140.7920 N   0  0  0  0  0  2  0  0  0  0  0  0
  190.8400  176.8460  142.0800 N   0  0  0  0  0  2  0  0  0  0  0  0
  190.1640  175.9650  143.0190 C   0  0  0  0  0  2  0  0  0  0  0  0
  187.9110  175.8370  143.2250 O   0  0  0  0  0  1  0  0  0  0  0  0
  188.9750  176.6150  143.5460 N   0  0  0  0  0  2  0  0  0  0  0  0
  1 29  1  6  0  0  0
  1 18  1  0  0  0  0
  2 10  1  6  0  0  0
  2 11  1  0  0  0  0
  2 27  1  0  0  0  0
  4 14  1  0  0  0  0
  6  8  1  0  0  0  0
  7 13  1  6  0  0  0
  7 11  1  0  0  0  0
  7 16  1  0  0  0  0
  8 25  2  0  0  0  0
  8  3  1  0  0  0  0
  9 28  1  0  0  0  0
 11 21  1  0  0  0  0
 14 29  1  0  0  0  0
 15 12  1  0  0  0  0
 15  1  1  0  0  0  0
 16 19  1  0  0  0  0
 17  9  1  0  0  0  0
 17 12  1  0  0  0  0
 18 20  2  0  0  0  0
 19 31  1  0  0  0  0
 19  4  1  0  0  0  0
 20 25  1  0  0  0  0
 21  5  1  0  0  0  0
 21 15  1  0  0  0  0
 22 18  1  0  0  0  0
 22  6  2  0  0  0  0
 23 26  1  0  0  0  0
 24 23  2  0  0  0  0
 24 27  1  0  0  0  0
 25 30  1  0  0  0  0
 26  9  2  0  0  0  0
 27 17  2  0  0  0  0
 28  6  1  0  0  0  0
 32 33  1  0  0  0  0
 33 31  1  0  0  0  0
 33 34  1  0  0  0  0
 34 35  1  0  0  0  0
 35 36  1  0  0  0  0
 36 37  1  0  0  0  0
 37 39  1  0  0  0  0
 38 39  1  0  0  0  0
M  END
>  <MODEL>
8

>  <REMARK>
 VINA RESULT:      -6.0      3.750      6.619
  Name = 
  7 active torsions:
  status: ('A' for Active; 'I' for Inactive)
    1  A    between atoms: C_3  and  N_23
    2  A    between atoms: C_3  and  N_27
    3  A    between atoms: N_9  and  N_27
    4  A    between atoms: N_9  and  C_32
    5  A    between atoms: N_22  and  N_25
    6  A    between atoms: N_25  and  C_39
    7  A    between atoms: C_32  and  C_39
                            x       y       z     vdW  Elec       q    Type
                         _______ _______ _______ _____ _____    ______ ____

>  <TORSDO>
F 7

$$$$
=
 OpenBabel11032420233D

 39 43  0  0  1  0  0  0  0  0999 V2000
  187.2720  176.5400  137.3830 C   0  0  2  0  0  3  0  0  0  0  0  0
  186.9860  172.3580  135.7910 C   0  0  1  0  0  3  0  0  0  0  0  0
  182.1100  178.0820  139.0660 C   0  0  0  0  0  1  0  0  0  0  0  0
  190.1050  175.5840  137.6640 C   0  0  0  0  0  2  0  0  0  0  0  0
  186.2170  175.3840  134.5950 C   0  0  0  0  0  1  0  0  0  0  0  0
  183.6320  176.7780  137.5420 C   0  0  0  0  0  0  0  0  0  0  0  0
  189.2970  173.3600  135.6800 C   0  0  1  0  0  3  0  0  0  0  0  0
  183.4300  177.8790  138.3990 C   0  0  0  0  0  0  0  0  0  0  0  0
  183.6700  174.0850  136.7030 C   0  0  0  0  0  0  0  0  0  0  0  0
  187.2080  171.1600  135.1060 O   0  0  0  0  0  1  0  0  0  0  0  0
  187.8530  173.4860  135.1830 C   0  0  2  0  0  3  0  0  0  0  0  0
  186.0710  174.3220  137.6820 C   0  0  0  0  0  2  0  0  0  0  0  0
  189.9300  172.2560  135.0990 O   0  0  0  0  0  1  0  0  0  0  0  0
  189.7760  177.0500  137.3280 C   0  0  0  0  0  2  0  0  0  0  0  0
  187.1280  175.1100  136.9680 N   0  0  1  0  0  0  0  0  0  0  0  0
  190.1370  174.6200  135.4610 C   0  0  0  0  0  2  0  0  0  0  0  0
  185.0420  173.6650  136.7630 C   0  0  0  0  0  0  0  0  0  0  0  0
  185.9760  177.3270  137.3810 C   0  0  0  0  0  0  0  0  0  0  0  0
  190.9250  174.8910  136.6600 N   0  0  0  0  0  0  0  0  0  0  0  0
  185.8030  178.4130  138.2480 C   0  0  0  0  0  3  0  0  0  0  0  0
  187.3260  174.8880  135.5160 C   0  0  2  0  0  3  0  0  0  0  0  0
  184.8590  176.6460  136.9400 C   0  0  0  0  0  3  0  0  0  0  0  0
  183.3290  172.6280  134.7930 C   0  0  0  0  0  3  0  0  0  0  0  0
  184.6510  172.2000  134.8600 C   0  0  0  0  0  3  0  0  0  0  0  0
  184.5110  178.7410  138.6920 C   0  0  0  0  0  0  0  0  0  0  0  0
  182.8480  173.5610  135.7040 C   0  0  0  0  0  3  0  0  0  0  0  0
  185.5110  172.6990  135.8410 C   0  0  0  0  0  0  0  0  0  0  0  0
  182.8310  175.1870  137.8960 S   0  0  0  0  0  0  0  0  0  0  0  0
  188.4160  177.2500  136.6450 C   0  0  0  0  0  2  0  0  0  0  0  0
  184.3300  179.8660  139.4920 O   0  0  0  0  0  1  0  0  0  0  0  0
  192.0260  175.7050  136.3240 N   0  0  0  0  0  2  0  0  0  0  0  0
  193.7380  176.8570  137.4920 O   0  0  0  0  0  1  0  0  0  0  0  0
  193.0450  175.6450  137.3790 C   0  0  2  0  0  3  0  0  0  0  0  0
  194.0210  174.5190  137.0770 C   0  0  0  0  0  2  0  0  0  0  0  0
  195.3850  174.9970  137.2090 N   0  0  0  0  0  2  0  0  0  0  0  0
  195.8100  174.6570  138.5010 N   0  0  0  0  0  2  0  0  0  0  0  0
  197.1690  174.1520  138.3830 C   0  0  0  0  0  2  0  0  0  0  0  0
  198.4970  175.1970  136.8740 O   0  0  0  0  0  1  0  0  0  0  0  0
  198.0940  175.2530  138.1670 N   0  0  0  0  0  2  0  0  0  0  0  0
  1 29  1  6  0  0  0
  2 10  1  6  0  0  0
  2 27  1  0  0  0  0
  5 21  1  0  0  0  0
  6 28  1  0  0  0  0
  6  8  1  0  0  0  0
  7 13  1  6  0  0  0
  8 25  2  0  0  0  0
  8  3  1  0  0  0  0
  9 17  1  0  0  0  0
  9 28  1  0  0  0  0
 11 21  1  0  0  0  0
 11  7  1  0  0  0  0
 11  2  1  0  0  0  0
 14  4  1  0  0  0  0
 15  1  1  0  0  0  0
 15 12  1  0  0  0  0
 16  7  1  0  0  0  0
 16 19  1  0  0  0  0
 17 12  1  0  0  0  0
 18  1  1  0  0  0  0
 18 20  2  0  0  0  0
 19  4  1  0  0  0  0
 20 25  1  0  0  0  0
 21 15  1  0  0  0  0
 22 18  1  0  0  0  0
 22  6  2  0  0  0  0
 23 24  2  0  0  0  0
 23 26  1  0  0  0  0
 24 27  1  0  0  0  0
 25 30  1  0  0  0  0
 26  9  2  0  0  0  0
 27 17  2  0  0  0  0
 29 14  1  0  0  0  0
 31 19  1  0  0  0  0
 31 33  1  0  0  0  0
 33 32  1  0  0  0  0
 34 35  1  0  0  0  0
 34 33  1  0  0  0  0
 35 36  1  0  0  0  0
 37 36  1  0  0  0  0
 38 39  1  0  0  0  0
 39 37  1  0  0  0  0
M  END
>  <MODEL>
9

>  <REMARK>
 VINA RESULT:      -5.9      5.237      7.406
  Name = 
  7 active torsions:
  status: ('A' for Active; 'I' for Inactive)
    1  A    between atoms: C_3  and  N_23
    2  A    between atoms: C_3  and  N_27
    3  A    between atoms: N_9  and  N_27
    4  A    between atoms: N_9  and  C_32
    5  A    between atoms: N_22  and  N_25
    6  A    between atoms: N_25  and  C_39
    7  A    between atoms: C_32  and  C_39
                            x       y       z     vdW  Elec       q    Type
                         _______ _______ _______ _____ _____    ______ ____

>  <TORSDO>
F 7

$$$$
