=
 OpenBabel11042411453D

 25 26  0  0  1  0  0  0  0  0999 V2000
  190.4000  179.2630  143.6300 C   0  0  0  0  0  3  0  0  0  0  0  0
  191.3480  178.9980  144.5260 C   0  0  0  0  0  3  0  0  0  0  0  0
  189.8820  178.2620  142.6500 C   0  0  1  0  0  3  0  0  0  0  0  0
  191.9570  177.6760  144.7510 C   0  0  0  0  0  3  0  0  0  0  0  0
  188.4750  178.3150  140.5600 C   0  0  0  0  0  0  0  0  0  0  0  0
  189.9760  176.2630  144.1180 C   0  0  0  0  0  3  0  0  0  0  0  0
  189.2420  177.0700  143.3470 C   0  0  0  0  0  0  0  0  0  0  0  0
  186.8250  177.6550  143.0020 C   0  0  0  0  0  2  0  0  0  0  0  0
  187.8750  176.5530  142.9920 C   0  0  0  0  0  2  0  0  0  0  0  0
  187.2640  177.8360  140.5200 N   0  0  0  0  0  0  0  0  0  0  0  0
  186.2680  177.9310  141.5960 C   0  0  2  0  0  3  0  0  0  0  0  0
  191.3620  176.4930  144.5720 C   0  0  0  0  0  3  0  0  0  0  0  0
  188.9640  178.9420  141.7460 N   0  0  0  0  0  2  0  0  0  0  0  0
  185.7130  180.0850  142.4750 O   0  0  0  0  0  0  0  0  0  0  0  0
  185.5490  179.2460  141.5500 C   0  0  0  0  0  0  0  0  0  0  0  0
  183.5590  178.9870  140.3190 N   0  0  0  0  0  0  0  0  0  0  0  0
  184.6800  179.5670  140.4640 N   0  0  0  0  0  0  0  0  0  0  0  0
  182.8650  178.5190  137.8210 O   0  0  0  0  0  0  0  0  0  0  0  0
  182.7530  180.8340  138.6110 O   0  0  0  0  0  0  0  0  0  0  0  0
  182.5320  179.3980  138.9940 S   0  0  0  0  0  0  0  0  0  0  0  0
  180.8330  179.1440  139.4480 C   0  0  0  0  0  1  0  0  0  0  0  0
  190.0790  176.7170  139.5610 C   0  0  0  0  0  1  0  0  0  0  0  0
  189.4160  178.0770  139.4220 C   0  0  1  0  0  3  0  0  0  0  0  0
  188.6900  178.1890  138.0880 C   0  0  0  0  0  2  0  0  0  0  0  0
  188.9220  179.4980  137.5040 N   0  0  0  0  0  1  0  0  0  0  0  0
  1  2  2  0  0  0  0
  2  4  1  0  0  0  0
  3  7  1  0  0  0  0
  3  1  1  1  0  0  0
  5 13  1  0  0  0  0
  6 12  1  0  0  0  0
  7  6  2  0  0  0  0
  9  8  1  0  0  0  0
  9  7  1  0  0  0  0
 10  5  2  0  0  0  0
 10 11  1  0  0  0  0
 11 15  1  1  0  0  0
 11  8  1  0  0  0  0
 12  4  2  0  0  0  0
 13  3  1  0  0  0  0
 15 14  2  0  0  0  0
 16 17  2  0  0  0  0
 17 15  1  0  0  0  0
 18 20  2  0  0  0  0
 19 20  2  0  0  0  0
 20 21  1  0  0  0  0
 20 16  1  0  0  0  0
 23 22  1  1  0  0  0
 23  5  1  0  0  0  0
 24 23  1  0  0  0  0
 25 24  1  0  0  0  0
M  END
>  <MODEL>
1

>  <REMARK>
 VINA RESULT:      -5.7      0.000      0.000
  Name = 
  5 active torsions:
  status: ('A' for Active; 'I' for Inactive)
    1  A    between atoms: C_1  and  C_22
    2  A    between atoms: N_3  and  S_17
    3  A    between atoms: C_9  and  C_22
    4  A    between atoms: C_11  and  N_18
    5  A    between atoms: C_11  and  C_23
                            x       y       z     vdW  Elec       q    Type
                         _______ _______ _______ _____ _____    ______ ____

>  <TORSDO>
F 5

$$$$
=
 OpenBabel11042411453D

 25 26  0  0  1  0  0  0  0  0999 V2000
  188.4820  175.8580  143.1630 C   0  0  0  0  0  3  0  0  0  0  0  0
  189.7450  175.4540  143.0400 C   0  0  0  0  0  3  0  0  0  0  0  0
  188.0890  177.2330  143.5910 C   0  0  1  0  0  3  0  0  0  0  0  0
  190.9300  176.3120  143.2120 C   0  0  0  0  0  3  0  0  0  0  0  0
  185.9760  178.3690  144.3630 C   0  0  0  0  0  0  0  0  0  0  0  0
  189.9090  178.4800  142.4540 C   0  0  0  0  0  3  0  0  0  0  0  0
  188.5970  178.2920  142.6230 C   0  0  0  0  0  0  0  0  0  0  0  0
  186.4550  178.7860  141.4110 C   0  0  0  0  0  2  0  0  0  0  0  0
  187.7130  179.3630  142.0450 C   0  0  0  0  0  2  0  0  0  0  0  0
  185.3490  179.2500  143.6360 N   0  0  0  0  0  0  0  0  0  0  0  0
  185.1860  179.1970  142.1760 C   0  0  2  0  0  3  0  0  0  0  0  0
  190.9980  177.6220  142.9600 C   0  0  0  0  0  3  0  0  0  0  0  0
  186.6410  177.2660  143.7480 N   0  0  0  0  0  2  0  0  0  0  0  0
  184.1470  177.4820  140.8720 O   0  0  0  0  0  0  0  0  0  0  0  0
  184.0240  178.3300  141.7950 C   0  0  0  0  0  0  0  0  0  0  0  0
  181.6970  178.6880  141.8370 N   0  0  0  0  0  0  0  0  0  0  0  0
  182.7720  178.4470  142.4710 N   0  0  0  0  0  0  0  0  0  0  0  0
  180.4390  178.5820  144.1500 O   0  0  0  0  0  0  0  0  0  0  0  0
  179.2320  177.7980  142.1680 O   0  0  0  0  0  0  0  0  0  0  0  0
  180.2000  178.8240  142.6860 S   0  0  0  0  0  0  0  0  0  0  0  0
  179.5310  180.4560  142.4680 C   0  0  0  0  0  1  0  0  0  0  0  0
  184.7860  178.5300  146.5270 C   0  0  0  0  0  1  0  0  0  0  0  0
  186.1370  178.5870  145.8340 C   0  0  1  0  0  3  0  0  0  0  0  0
  187.0930  177.5640  146.4320 C   0  0  0  0  0  2  0  0  0  0  0  0
  187.4840  177.9710  147.7700 N   0  0  0  0  0  1  0  0  0  0  0  0
  2  1  2  0  0  0  0
  2  4  1  0  0  0  0
  3  1  1  6  0  0  0
  3 13  1  0  0  0  0
  5 23  1  0  0  0  0
  6  7  2  0  0  0  0
  6 12  1  0  0  0  0
  7  3  1  0  0  0  0
  8  9  1  0  0  0  0
  8 11  1  0  0  0  0
  9  7  1  0  0  0  0
 10  5  2  0  0  0  0
 11 15  1  1  0  0  0
 11 10  1  0  0  0  0
 12  4  2  0  0  0  0
 13  5  1  0  0  0  0
 14 15  2  0  0  0  0
 15 17  1  0  0  0  0
 16 17  2  0  0  0  0
 16 20  1  0  0  0  0
 19 20  2  0  0  0  0
 20 18  2  0  0  0  0
 21 20  1  0  0  0  0
 23 24  1  0  0  0  0
 23 22  1  1  0  0  0
 24 25  1  0  0  0  0
M  END
>  <MODEL>
2

>  <REMARK>
 VINA RESULT:      -5.7      3.103      4.808
  Name = 
  5 active torsions:
  status: ('A' for Active; 'I' for Inactive)
    1  A    between atoms: C_1  and  C_22
    2  A    between atoms: N_3  and  S_17
    3  A    between atoms: C_9  and  C_22
    4  A    between atoms: C_11  and  N_18
    5  A    between atoms: C_11  and  C_23
                            x       y       z     vdW  Elec       q    Type
                         _______ _______ _______ _____ _____    ______ ____

>  <TORSDO>
F 5

$$$$
=
 OpenBabel11042411453D

 25 26  0  0  1  0  0  0  0  0999 V2000
  181.3630  181.7430  138.4580 C   0  0  0  0  0  3  0  0  0  0  0  0
  180.8760  182.3140  137.3580 C   0  0  0  0  0  3  0  0  0  0  0  0
  181.1200  180.3180  138.8310 C   0  0  1  0  0  3  0  0  0  0  0  0
  180.1150  181.6170  136.3070 C   0  0  0  0  0  3  0  0  0  0  0  0
  181.4190  178.8930  140.8870 C   0  0  0  0  0  0  0  0  0  0  0  0
  181.1780  179.3510  136.5450 C   0  0  0  0  0  3  0  0  0  0  0  0
  181.6740  179.3600  137.7850 C   0  0  0  0  0  0  0  0  0  0  0  0
  183.7490  178.6160  138.9870 C   0  0  0  0  0  2  0  0  0  0  0  0
  182.5600  178.1960  138.1330 C   0  0  0  0  0  2  0  0  0  0  0  0
  182.3200  177.9560  140.9640 N   0  0  0  0  0  0  0  0  0  0  0  0
  183.6770  178.0220  140.4030 C   0  0  2  0  0  3  0  0  0  0  0  0
  180.2460  180.3340  135.9590 C   0  0  0  0  0  3  0  0  0  0  0  0
  181.6820  180.0890  140.1550 N   0  0  0  0  0  2  0  0  0  0  0  0
  185.4030  179.6070  140.8860 O   0  0  0  0  0  0  0  0  0  0  0  0
  184.6100  178.7370  141.3340 C   0  0  0  0  0  0  0  0  0  0  0  0
  185.0290  179.2940  143.5830 N   0  0  0  0  0  0  0  0  0  0  0  0
  184.6100  178.4480  142.7330 N   0  0  0  0  0  0  0  0  0  0  0  0
  183.5970  178.7020  145.7130 O   0  0  0  0  0  0  0  0  0  0  0  0
  185.6130  180.0510  146.0460 O   0  0  0  0  0  0  0  0  0  0  0  0
  185.0160  178.9130  145.2670 S   0  0  0  0  0  0  0  0  0  0  0  0
  185.9450  177.4260  145.5540 C   0  0  0  0  0  1  0  0  0  0  0  0
  179.6370  177.2120  141.2390 C   0  0  0  0  0  1  0  0  0  0  0  0
  180.0460  178.6620  141.4340 C   0  0  1  0  0  3  0  0  0  0  0  0
  179.9780  179.0480  142.9050 C   0  0  0  0  0  2  0  0  0  0  0  0
  179.6700  177.8800  143.7120 N   0  0  0  0  0  1  0  0  0  0  0  0
  2  1  2  0  0  0  0
  3  1  1  6  0  0  0
  3 13  1  0  0  0  0
  4  2  1  0  0  0  0
  5 10  2  0  0  0  0
  5 23  1  0  0  0  0
  6  7  2  0  0  0  0
  7  9  1  0  0  0  0
  7  3  1  0  0  0  0
  8 11  1  0  0  0  0
  9  8  1  0  0  0  0
 11 10  1  0  0  0  0
 11 15  1  1  0  0  0
 12  4  2  0  0  0  0
 12  6  1  0  0  0  0
 13  5  1  0  0  0  0
 14 15  2  0  0  0  0
 15 17  1  0  0  0  0
 16 20  1  0  0  0  0
 17 16  2  0  0  0  0
 20 21  1  0  0  0  0
 20 18  2  0  0  0  0
 20 19  2  0  0  0  0
 23 22  1  1  0  0  0
 23 24  1  0  0  0  0
 24 25  1  0  0  0  0
M  END
>  <MODEL>
3

>  <REMARK>
 VINA RESULT:      -5.5      4.406      8.886
  Name = 
  5 active torsions:
  status: ('A' for Active; 'I' for Inactive)
    1  A    between atoms: C_1  and  C_22
    2  A    between atoms: N_3  and  S_17
    3  A    between atoms: C_9  and  C_22
    4  A    between atoms: C_11  and  N_18
    5  A    between atoms: C_11  and  C_23
                            x       y       z     vdW  Elec       q    Type
                         _______ _______ _______ _____ _____    ______ ____

>  <TORSDO>
F 5

$$$$
=
 OpenBabel11042411453D

 25 26  0  0  1  0  0  0  0  0999 V2000
  189.3420  175.6890  142.9120 C   0  0  0  0  0  3  0  0  0  0  0  0
  190.5900  175.3160  143.1860 C   0  0  0  0  0  3  0  0  0  0  0  0
  188.7110  176.9330  143.4440 C   0  0  1  0  0  3  0  0  0  0  0  0
  191.5580  176.1050  143.9670 C   0  0  0  0  0  3  0  0  0  0  0  0
  186.3790  177.8770  143.5950 C   0  0  0  0  0  0  0  0  0  0  0  0
  190.7150  178.3950  143.3640 C   0  0  0  0  0  3  0  0  0  0  0  0
  189.4520  178.1810  142.9860 C   0  0  0  0  0  0  0  0  0  0  0  0
  187.8680  178.9520  141.1970 C   0  0  0  0  0  2  0  0  0  0  0  0
  188.7570  179.3610  142.3630 C   0  0  0  0  0  2  0  0  0  0  0  0
  185.9930  178.9030  142.8910 N   0  0  0  0  0  0  0  0  0  0  0  0
  186.3790  179.1850  141.5010 C   0  0  2  0  0  3  0  0  0  0  0  0
  191.6090  177.4380  144.0450 C   0  0  0  0  0  3  0  0  0  0  0  0
  187.3080  176.9380  143.0520 N   0  0  0  0  0  2  0  0  0  0  0  0
  184.2840  178.2770  140.7880 O   0  0  0  0  0  0  0  0  0  0  0  0
  185.5090  178.4340  140.5380 C   0  0  0  0  0  0  0  0  0  0  0  0
  185.9060  178.4920  138.2190 N   0  0  0  0  0  0  0  0  0  0  0  0
  186.0490  177.8950  139.3310 N   0  0  0  0  0  0  0  0  0  0  0  0
  187.4210  178.8450  136.0920 O   0  0  0  0  0  0  0  0  0  0  0  0
  185.4600  177.3980  135.8550 O   0  0  0  0  0  0  0  0  0  0  0  0
  186.5720  177.8120  136.7780 S   0  0  0  0  0  0  0  0  0  0  0  0
  187.5800  176.4070  137.1850 C   0  0  0  0  0  1  0  0  0  0  0  0
  187.1650  178.0070  145.9380 C   0  0  0  0  0  1  0  0  0  0  0  0
  185.9740  177.7530  145.0290 C   0  0  1  0  0  3  0  0  0  0  0  0
  184.8350  178.7090  145.3540 C   0  0  0  0  0  2  0  0  0  0  0  0
  184.6070  178.7420  146.7880 N   0  0  0  0  0  1  0  0  0  0  0  0
  1  2  2  0  0  0  0
  2  4  1  0  0  0  0
  3  1  1  6  0  0  0
  4 12  2  0  0  0  0
  5 23  1  0  0  0  0
  6 12  1  0  0  0  0
  7  6  2  0  0  0  0
  7  3  1  0  0  0  0
  8 11  1  0  0  0  0
  8  9  1  0  0  0  0
  9  7  1  0  0  0  0
 10  5  2  0  0  0  0
 11 15  1  6  0  0  0
 11 10  1  0  0  0  0
 13  3  1  0  0  0  0
 13  5  1  0  0  0  0
 15 14  2  0  0  0  0
 16 17  2  0  0  0  0
 17 15  1  0  0  0  0
 18 20  2  0  0  0  0
 19 20  2  0  0  0  0
 20 21  1  0  0  0  0
 20 16  1  0  0  0  0
 23 24  1  0  0  0  0
 23 22  1  1  0  0  0
 24 25  1  0  0  0  0
M  END
>  <MODEL>
4

>  <REMARK>
 VINA RESULT:      -5.5      2.663      4.556
  Name = 
  5 active torsions:
  status: ('A' for Active; 'I' for Inactive)
    1  A    between atoms: C_1  and  C_22
    2  A    between atoms: N_3  and  S_17
    3  A    between atoms: C_9  and  C_22
    4  A    between atoms: C_11  and  N_18
    5  A    between atoms: C_11  and  C_23
                            x       y       z     vdW  Elec       q    Type
                         _______ _______ _______ _____ _____    ______ ____

>  <TORSDO>
F 5

$$$$
=
 OpenBabel11042411453D

 25 26  0  0  1  0  0  0  0  0999 V2000
  189.3100  175.6850  142.8780 C   0  0  0  0  0  3  0  0  0  0  0  0
  190.5530  175.2970  143.1500 C   0  0  0  0  0  3  0  0  0  0  0  0
  188.6930  176.9340  143.4170 C   0  0  1  0  0  3  0  0  0  0  0  0
  191.5310  176.0710  143.9340 C   0  0  0  0  0  3  0  0  0  0  0  0
  186.3730  177.9030  143.5730 C   0  0  0  0  0  0  0  0  0  0  0  0
  190.7140  178.3730  143.3410 C   0  0  0  0  0  3  0  0  0  0  0  0
  189.4480  178.1750  142.9630 C   0  0  0  0  0  0  0  0  0  0  0  0
  187.8720  178.9710  141.1790 C   0  0  0  0  0  2  0  0  0  0  0  0
  188.7670  179.3660  142.3460 C   0  0  0  0  0  2  0  0  0  0  0  0
  185.9980  178.9370  142.8740 N   0  0  0  0  0  0  0  0  0  0  0  0
  186.3860  179.2200  141.4850 C   0  0  2  0  0  3  0  0  0  0  0  0
  191.5970  177.4030  144.0170 C   0  0  0  0  0  3  0  0  0  0  0  0
  187.2900  176.9570  143.0260 N   0  0  0  0  0  2  0  0  0  0  0  0
  185.9790  178.0710  139.4270 O   0  0  0  0  0  0  0  0  0  0  0  0
  185.5070  178.4840  140.5200 C   0  0  0  0  0  0  0  0  0  0  0  0
  183.2060  178.9440  140.3210 N   0  0  0  0  0  0  0  0  0  0  0  0
  184.1340  178.2360  140.8240 N   0  0  0  0  0  0  0  0  0  0  0  0
  180.6880  179.6910  140.1150 O   0  0  0  0  0  0  0  0  0  0  0  0
  181.3810  178.6150  142.2030 O   0  0  0  0  0  0  0  0  0  0  0  0
  181.5560  178.6180  140.7100 S   0  0  0  0  0  0  0  0  0  0  0  0
  181.0790  177.0440  140.0390 C   0  0  0  0  0  1  0  0  0  0  0  0
  187.1600  178.0280  145.9160 C   0  0  0  0  0  1  0  0  0  0  0  0
  185.9670  177.7790  145.0070 C   0  0  1  0  0  3  0  0  0  0  0  0
  184.8310  178.7380  145.3340 C   0  0  0  0  0  2  0  0  0  0  0  0
  184.5530  178.7120  146.7590 N   0  0  0  0  0  1  0  0  0  0  0  0
  1  2  2  0  0  0  0
  2  4  1  0  0  0  0
  3  1  1  6  0  0  0
  4 12  2  0  0  0  0
  5 23  1  0  0  0  0
  6 12  1  0  0  0  0
  7  6  2  0  0  0  0
  7  3  1  0  0  0  0
  8 11  1  0  0  0  0
  8  9  1  0  0  0  0
  9  7  1  0  0  0  0
 10  5  2  0  0  0  0
 11 15  1  6  0  0  0
 11 10  1  0  0  0  0
 13  3  1  0  0  0  0
 13  5  1  0  0  0  0
 14 15  2  0  0  0  0
 15 17  1  0  0  0  0
 16 20  1  0  0  0  0
 16 17  2  0  0  0  0
 18 20  2  0  0  0  0
 20 19  2  0  0  0  0
 21 20  1  0  0  0  0
 23 24  1  0  0  0  0
 23 22  1  1  0  0  0
 24 25  1  0  0  0  0
M  END
>  <MODEL>
5

>  <REMARK>
 VINA RESULT:      -5.5      2.401      4.090
  Name = 
  5 active torsions:
  status: ('A' for Active; 'I' for Inactive)
    1  A    between atoms: C_1  and  C_22
    2  A    between atoms: N_3  and  S_17
    3  A    between atoms: C_9  and  C_22
    4  A    between atoms: C_11  and  N_18
    5  A    between atoms: C_11  and  C_23
                            x       y       z     vdW  Elec       q    Type
                         _______ _______ _______ _____ _____    ______ ____

>  <TORSDO>
F 5

$$$$
=
 OpenBabel11042411453D

 25 26  0  0  1  0  0  0  0  0999 V2000
  190.0460  179.2550  143.5840 C   0  0  0  0  0  3  0  0  0  0  0  0
  191.2450  178.9750  144.0890 C   0  0  0  0  0  3  0  0  0  0  0  0
  189.2700  178.3170  142.7190 C   0  0  1  0  0  3  0  0  0  0  0  0
  191.9420  177.6850  143.9540 C   0  0  0  0  0  3  0  0  0  0  0  0
  187.2530  178.4650  141.2170 C   0  0  0  0  0  0  0  0  0  0  0  0
  189.9160  176.2000  143.8430 C   0  0  0  0  0  3  0  0  0  0  0  0
  188.9400  177.0220  143.4470 C   0  0  0  0  0  0  0  0  0  0  0  0
  186.5250  177.4630  143.9710 C   0  0  0  0  0  2  0  0  0  0  0  0
  187.5520  176.4440  143.4970 C   0  0  0  0  0  2  0  0  0  0  0  0
  186.1140  177.9080  141.5170 N   0  0  0  0  0  0  0  0  0  0  0  0
  185.5250  177.8290  142.8620 C   0  0  2  0  0  3  0  0  0  0  0  0
  191.3640  176.4840  143.8460 C   0  0  0  0  0  3  0  0  0  0  0  0
  188.0820  179.0110  142.2430 N   0  0  0  0  0  2  0  0  0  0  0  0
  185.3640  180.0100  143.8330 O   0  0  0  0  0  0  0  0  0  0  0  0
  184.7840  179.0880  143.1990 C   0  0  0  0  0  0  0  0  0  0  0  0
  182.4650  178.8790  143.5460 N   0  0  0  0  0  0  0  0  0  0  0  0
  183.4230  179.2630  142.8050 N   0  0  0  0  0  0  0  0  0  0  0  0
  180.6270  178.4320  141.7120 O   0  0  0  0  0  0  0  0  0  0  0  0
  180.5450  180.5730  142.8960 O   0  0  0  0  0  0  0  0  0  0  0  0
  180.8300  179.1050  143.0400 S   0  0  0  0  0  0  0  0  0  0  0  0
  179.7260  178.3860  144.2310 C   0  0  0  0  0  1  0  0  0  0  0  0
  188.7710  177.2660  139.6740 C   0  0  0  0  0  1  0  0  0  0  0  0
  187.7730  178.4040  139.8160 C   0  0  1  0  0  3  0  0  0  0  0  0
  186.6320  178.2470  138.8210 C   0  0  0  0  0  2  0  0  0  0  0  0
  187.0530  178.6970  137.5060 N   0  0  0  0  0  1  0  0  0  0  0  0
  1  2  2  0  0  0  0
  3  7  1  0  0  0  0
  3  1  1  1  0  0  0
  4  2  1  0  0  0  0
  5 10  2  0  0  0  0
  5 13  1  0  0  0  0
  6 12  1  0  0  0  0
  7  9  1  0  0  0  0
  7  6  2  0  0  0  0
  9  8  1  0  0  0  0
 10 11  1  0  0  0  0
 11 15  1  1  0  0  0
 11  8  1  0  0  0  0
 12  4  2  0  0  0  0
 13  3  1  0  0  0  0
 15 14  2  0  0  0  0
 17 15  1  0  0  0  0
 17 16  2  0  0  0  0
 18 20  2  0  0  0  0
 19 20  2  0  0  0  0
 20 16  1  0  0  0  0
 20 21  1  0  0  0  0
 23 22  1  1  0  0  0
 23  5  1  0  0  0  0
 24 23  1  0  0  0  0
 25 24  1  0  0  0  0
M  END
>  <MODEL>
6

>  <REMARK>
 VINA RESULT:      -5.4      2.294      2.336
  Name = 
  5 active torsions:
  status: ('A' for Active; 'I' for Inactive)
    1  A    between atoms: C_1  and  C_22
    2  A    between atoms: N_3  and  S_17
    3  A    between atoms: C_9  and  C_22
    4  A    between atoms: C_11  and  N_18
    5  A    between atoms: C_11  and  C_23
                            x       y       z     vdW  Elec       q    Type
                         _______ _______ _______ _____ _____    ______ ____

>  <TORSDO>
F 5

$$$$
=
 OpenBabel11042411453D

 25 26  0  0  1  0  0  0  0  0999 V2000
  189.2880  176.1850  142.6010 C   0  0  0  0  0  3  0  0  0  0  0  0
  189.0920  176.3880  143.9020 C   0  0  0  0  0  3  0  0  0  0  0  0
  189.7410  177.2480  141.6540 C   0  0  1  0  0  3  0  0  0  0  0  0
  189.3760  177.6440  144.6170 C   0  0  0  0  0  3  0  0  0  0  0  0
  189.8660  177.5310  139.1540 C   0  0  0  0  0  0  0  0  0  0  0  0
  191.2870  178.4380  143.1880 C   0  0  0  0  0  3  0  0  0  0  0  0
  191.1110  177.7920  142.0320 C   0  0  0  0  0  0  0  0  0  0  0  0
  192.5000  176.6090  140.3080 C   0  0  0  0  0  2  0  0  0  0  0  0
  192.2410  177.9150  141.0480 C   0  0  0  0  0  2  0  0  0  0  0  0
  190.9970  177.5510  138.5080 N   0  0  0  0  0  0  0  0  0  0  0  0
  192.1730  176.7230  138.8100 C   0  0  2  0  0  3  0  0  0  0  0  0
  190.3260  178.5310  144.3040 C   0  0  0  0  0  3  0  0  0  0  0  0
  189.7070  176.7010  140.3050 N   0  0  0  0  0  2  0  0  0  0  0  0
  190.9170  174.9070  137.8910 O   0  0  0  0  0  0  0  0  0  0  0  0
  192.0530  175.3680  138.1800 C   0  0  0  0  0  0  0  0  0  0  0  0
  194.3830  175.0750  138.0100 N   0  0  0  0  0  0  0  0  0  0  0  0
  193.2150  174.5880  137.8960 N   0  0  0  0  0  0  0  0  0  0  0  0
  195.9440  173.0840  138.7460 O   0  0  0  0  0  0  0  0  0  0  0  0
  196.9910  174.9750  137.5960 O   0  0  0  0  0  0  0  0  0  0  0  0
  195.7670  174.1050  137.6580 S   0  0  0  0  0  0  0  0  0  0  0  0
  195.5370  173.2690  136.1070 C   0  0  0  0  0  1  0  0  0  0  0  0
  189.0650  179.1310  137.4440 C   0  0  0  0  0  1  0  0  0  0  0  0
  188.7750  178.4870  138.7900 C   0  0  1  0  0  3  0  0  0  0  0  0
  187.4240  177.7850  138.7720 C   0  0  0  0  0  2  0  0  0  0  0  0
  186.4270  178.6090  139.4330 N   0  0  0  0  0  1  0  0  0  0  0  0
  1  2  2  0  0  0  0
  2  4  1  0  0  0  0
  3  7  1  0  0  0  0
  3  1  1  1  0  0  0
  5 13  1  0  0  0  0
  6 12  1  0  0  0  0
  7  6  2  0  0  0  0
  8  9  1  0  0  0  0
  9  7  1  0  0  0  0
 10 11  1  0  0  0  0
 10  5  2  0  0  0  0
 11 15  1  1  0  0  0
 11  8  1  0  0  0  0
 12  4  2  0  0  0  0
 13  3  1  0  0  0  0
 14 15  2  0  0  0  0
 17 16  2  0  0  0  0
 17 15  1  0  0  0  0
 19 20  2  0  0  0  0
 20 16  1  0  0  0  0
 20 18  2  0  0  0  0
 21 20  1  0  0  0  0
 23 22  1  6  0  0  0
 23  5  1  0  0  0  0
 24 23  1  0  0  0  0
 24 25  1  0  0  0  0
M  END
>  <MODEL>
7

>  <REMARK>
 VINA RESULT:      -5.4      5.770      7.767
  Name = 
  5 active torsions:
  status: ('A' for Active; 'I' for Inactive)
    1  A    between atoms: C_1  and  C_22
    2  A    between atoms: N_3  and  S_17
    3  A    between atoms: C_9  and  C_22
    4  A    between atoms: C_11  and  N_18
    5  A    between atoms: C_11  and  C_23
                            x       y       z     vdW  Elec       q    Type
                         _______ _______ _______ _____ _____    ______ ____

>  <TORSDO>
F 5

$$$$
=
 OpenBabel11042411453D

 25 26  0  0  1  0  0  0  0  0999 V2000
  189.4370  176.1680  142.3650 C   0  0  0  0  0  3  0  0  0  0  0  0
  189.3610  176.3760  143.6770 C   0  0  0  0  0  3  0  0  0  0  0  0
  189.8870  177.2020  141.3850 C   0  0  1  0  0  3  0  0  0  0  0  0
  189.7900  177.6040  144.3670 C   0  0  0  0  0  3  0  0  0  0  0  0
  189.8320  177.4910  138.8830 C   0  0  0  0  0  0  0  0  0  0  0  0
  191.6320  178.2690  142.7910 C   0  0  0  0  0  3  0  0  0  0  0  0
  191.3180  177.6450  141.6530 C   0  0  0  0  0  0  0  0  0  0  0  0
  192.4770  176.3780  139.8220 C   0  0  0  0  0  2  0  0  0  0  0  0
  192.3720  177.6940  140.5800 C   0  0  0  0  0  2  0  0  0  0  0  0
  190.9060  177.4360  138.1480 N   0  0  0  0  0  0  0  0  0  0  0  0
  192.0410  176.5240  138.3550 C   0  0  2  0  0  3  0  0  0  0  0  0
  190.7720  178.4240  143.9810 C   0  0  0  0  0  3  0  0  0  0  0  0
  189.7070  176.6680  140.0420 N   0  0  0  0  0  2  0  0  0  0  0  0
  192.6710  174.3000  137.7420 O   0  0  0  0  0  0  0  0  0  0  0  0
  191.7750  175.1850  137.7360 C   0  0  0  0  0  0  0  0  0  0  0  0
  189.9780  173.7450  137.2480 N   0  0  0  0  0  0  0  0  0  0  0  0
  190.5110  174.8930  137.1400 N   0  0  0  0  0  0  0  0  0  0  0  0
  187.8020  172.2590  137.2100 O   0  0  0  0  0  0  0  0  0  0  0  0
  188.6440  173.0850  135.0640 O   0  0  0  0  0  0  0  0  0  0  0  0
  188.4470  173.4250  136.5150 S   0  0  0  0  0  0  0  0  0  0  0  0
  187.3970  174.8490  136.6690 C   0  0  0  0  0  1  0  0  0  0  0  0
  188.9900  179.1270  137.2280 C   0  0  0  0  0  1  0  0  0  0  0  0
  188.7860  178.5250  138.6080 C   0  0  1  0  0  3  0  0  0  0  0  0
  187.3910  177.9300  138.7360 C   0  0  0  0  0  2  0  0  0  0  0  0
  186.4700  178.6270  137.8550 N   0  0  0  0  0  1  0  0  0  0  0  0
  1  2  2  0  0  0  0
  2  4  1  0  0  0  0
  3  7  1  0  0  0  0
  3  1  1  1  0  0  0
  5 13  1  0  0  0  0
  6 12  1  0  0  0  0
  7  6  2  0  0  0  0
  8  9  1  0  0  0  0
  9  7  1  0  0  0  0
 10 11  1  0  0  0  0
 10  5  2  0  0  0  0
 11 15  1  1  0  0  0
 11  8  1  0  0  0  0
 12  4  2  0  0  0  0
 13  3  1  0  0  0  0
 15 14  2  0  0  0  0
 17 16  2  0  0  0  0
 17 15  1  0  0  0  0
 19 20  2  0  0  0  0
 20 21  1  0  0  0  0
 20 18  2  0  0  0  0
 20 16  1  0  0  0  0
 23 22  1  6  0  0  0
 23 24  1  0  0  0  0
 23  5  1  0  0  0  0
 25 24  1  0  0  0  0
M  END
>  <MODEL>
8

>  <REMARK>
 VINA RESULT:      -5.4      4.385      5.868
  Name = 
  5 active torsions:
  status: ('A' for Active; 'I' for Inactive)
    1  A    between atoms: C_1  and  C_22
    2  A    between atoms: N_3  and  S_17
    3  A    between atoms: C_9  and  C_22
    4  A    between atoms: C_11  and  N_18
    5  A    between atoms: C_11  and  C_23
                            x       y       z     vdW  Elec       q    Type
                         _______ _______ _______ _____ _____    ______ ____

>  <TORSDO>
F 5

$$$$
=
 OpenBabel11042411453D

 25 26  0  0  1  0  0  0  0  0999 V2000
  185.6050  173.4790  137.4930 C   0  0  0  0  0  3  0  0  0  0  0  0
  184.7390  172.5960  137.0010 C   0  0  0  0  0  3  0  0  0  0  0  0
  186.4060  174.4150  136.6500 C   0  0  1  0  0  3  0  0  0  0  0  0
  184.3710  172.4710  135.5800 C   0  0  0  0  0  3  0  0  0  0  0  0
  188.3960  175.9240  136.9840 C   0  0  0  0  0  0  0  0  0  0  0  0
  184.6850  174.8770  134.9220 C   0  0  0  0  0  3  0  0  0  0  0  0
  185.5150  175.3560  135.8520 C   0  0  0  0  0  0  0  0  0  0  0  0
  185.7930  177.4350  137.2320 C   0  0  0  0  0  2  0  0  0  0  0  0
  185.7140  176.8480  135.8300 C   0  0  0  0  0  2  0  0  0  0  0  0
  188.2980  177.2230  136.9750 N   0  0  0  0  0  0  0  0  0  0  0  0
  187.1880  178.0040  137.5390 C   0  0  2  0  0  3  0  0  0  0  0  0
  184.3500  173.4600  134.6810 C   0  0  0  0  0  3  0  0  0  0  0  0
  187.3390  175.1250  137.5140 N   0  0  0  0  0  2  0  0  0  0  0  0
  186.4090  178.6210  139.7150 O   0  0  0  0  0  0  0  0  0  0  0  0
  187.3720  178.2150  139.0120 C   0  0  0  0  0  0  0  0  0  0  0  0
  188.6990  177.5120  140.8250 N   0  0  0  0  0  0  0  0  0  0  0  0
  188.6290  177.9550  139.6370 N   0  0  0  0  0  0  0  0  0  0  0  0
  191.3180  177.4650  140.5400 O   0  0  0  0  0  0  0  0  0  0  0  0
  190.3090  175.7760  141.9970 O   0  0  0  0  0  0  0  0  0  0  0  0
  190.2360  177.2090  141.5510 S   0  0  0  0  0  0  0  0  0  0  0  0
  190.4700  178.2910  142.9400 C   0  0  0  0  0  1  0  0  0  0  0  0
  190.5830  176.2790  135.8810 C   0  0  0  0  0  1  0  0  0  0  0  0
  189.5450  175.2520  136.3010 C   0  0  1  0  0  3  0  0  0  0  0  0
  190.1660  174.1940  137.2020 C   0  0  0  0  0  2  0  0  0  0  0  0
  191.1130  174.8120  138.1140 N   0  0  0  0  0  1  0  0  0  0  0  0
  2  1  2  0  0  0  0
  3  1  1  1  0  0  0
  3 13  1  0  0  0  0
  4  2  1  0  0  0  0
  5 13  1  0  0  0  0
  6  7  2  0  0  0  0
  7  3  1  0  0  0  0
  8 11  1  0  0  0  0
  9  7  1  0  0  0  0
  9  8  1  0  0  0  0
 10  5  2  0  0  0  0
 10 11  1  0  0  0  0
 11 15  1  1  0  0  0
 12  6  1  0  0  0  0
 12  4  2  0  0  0  0
 15 17  1  0  0  0  0
 15 14  2  0  0  0  0
 16 20  1  0  0  0  0
 17 16  2  0  0  0  0
 18 20  2  0  0  0  0
 20 19  2  0  0  0  0
 20 21  1  0  0  0  0
 23 22  1  1  0  0  0
 23  5  1  0  0  0  0
 23 24  1  0  0  0  0
 24 25  1  0  0  0  0
M  END
>  <MODEL>
9

>  <REMARK>
 VINA RESULT:      -5.3      4.748      7.703
  Name = 
  5 active torsions:
  status: ('A' for Active; 'I' for Inactive)
    1  A    between atoms: C_1  and  C_22
    2  A    between atoms: N_3  and  S_17
    3  A    between atoms: C_9  and  C_22
    4  A    between atoms: C_11  and  N_18
    5  A    between atoms: C_11  and  C_23
                            x       y       z     vdW  Elec       q    Type
                         _______ _______ _______ _____ _____    ______ ____

>  <TORSDO>
F 5

$$$$
