=
 OpenBabel11042410493D

 31 34  0  0  1  0  0  0  0  0999 V2000
  187.0420  177.8220  143.5100 C   0  0  0  0  0  0  0  0  0  0  0  0
  184.8350  178.8450  145.4440 O   0  0  0  0  0  0  0  0  0  0  0  0
  184.6100  179.0510  143.0710 C   0  0  1  0  0  0  0  0  0  0  0  0
  188.3710  177.4520  145.6220 C   0  0  0  0  0  0  0  0  0  0  0  0
  191.6700  176.0400  144.5920 C   0  0  0  0  0  1  0  0  0  0  0  0
  190.7190  176.6480  146.8560 C   0  0  0  0  0  0  0  0  0  0  0  0
  184.0560  178.4270  144.3230 C   0  0  2  0  0  3  0  0  0  0  0  0
  186.3210  178.4560  147.2290 C   0  0  0  0  0  3  0  0  0  0  0  0
  185.9050  178.3730  142.8850 N   0  0  0  0  0  0  0  0  0  0  0  0
  184.7800  178.3370  141.8940 C   0  0  2  0  0  3  0  0  0  0  0  0
  188.5280  177.5380  147.0210 C   0  0  0  0  0  0  0  0  0  0  0  0
  189.6910  177.1360  147.5960 N   0  0  0  0  0  0  0  0  0  0  0  0
  190.5770  176.5620  145.4630 C   0  0  0  0  0  0  0  0  0  0  0  0
  184.7880  180.4390  143.0760 O   0  0  0  0  0  1  0  0  0  0  0  0
  187.5100  178.0430  147.8130 C   0  0  0  0  0  3  0  0  0  0  0  0
  187.9000  177.2430  142.7930 O   0  0  0  0  0  0  0  0  0  0  0  0
  187.1590  177.8760  145.0000 C   0  0  0  0  0  0  0  0  0  0  0  0
  186.1050  178.3760  145.8510 C   0  0  0  0  0  0  0  0  0  0  0  0
  189.4130  176.9670  144.8900 N   0  0  0  0  0  0  0  0  0  0  0  0
  182.6740  178.8440  144.5030 N   0  0  0  0  0  2  0  0  0  0  0  0
  181.6820  178.6540  143.4920 C   0  0  0  0  0  0  0  0  0  0  0  0
  181.9830  178.1320  142.3860 O   0  0  0  0  0  0  0  0  0  0  0  0
  180.2860  179.1120  143.7360 C   0  0  0  0  0  2  0  0  0  0  0  0
  179.7150  179.7060  142.4950 C   0  0  0  0  0  0  0  0  0  0  0  0
  178.9470  178.9260  141.6410 O   0  0  0  0  0  0  0  0  0  0  0  0
  179.8990  180.9240  142.2370 O   0  0  0  0  0  1  0  0  0  0  0  0
  183.9640  179.3260  139.6210 C   0  0  0  0  0  1  0  0  0  0  0  0
  185.1050  179.1460  140.6170 C   0  0  2  0  0  3  0  0  0  0  0  0
  186.2790  178.6090  139.9500 N   0  0  0  0  0  1  0  0  0  0  0  0
  192.9000  175.9030  148.0560 N   0  0  0  0  0  0  0  0  0  0  0  0
  191.9280  176.2350  147.5220 C   0  0  0  0  0  0  0  0  0  0  0  0
  1 17  1  0  0  0  0
  2 18  1  0  0  0  0
  3 14  1  6  0  0  0
  3  7  1  0  0  0  0
  4 11  1  0  0  0  0
  5 13  1  0  0  0  0
  6 31  1  0  0  0  0
  6 12  1  0  0  0  0
  7 20  1  1  0  0  0
  7  2  1  0  0  0  0
  8 15  2  0  0  0  0
  9  3  1  0  0  0  0
  9  1  1  0  0  0  0
 10 28  1  6  0  0  0
 10  9  1  0  0  0  0
 10  3  1  0  0  0  0
 11 12  2  0  0  0  0
 11 15  1  0  0  0  0
 13  6  2  0  0  0  0
 16  1  2  0  0  0  0
 17  4  1  0  0  0  0
 17 18  2  0  0  0  0
 18  8  1  0  0  0  0
 19 13  1  0  0  0  0
 19  4  2  0  0  0  0
 21 23  1  0  0  0  0
 21 20  1  0  0  0  0
 22 21  2  0  0  0  0
 24 23  1  0  0  0  0
 25 24  2  0  0  0  0
 26 24  1  0  0  0  0
 28 27  1  6  0  0  0
 29 28  1  0  0  0  0
 31 30  3  0  0  0  0
M  END
>  <MODEL>
1

>  <REMARK>
 VINA RESULT:      -9.1      0.000      0.000
  Name = 
  5 active torsions:
  status: ('A' for Active; 'I' for Inactive)
    1  A    between atoms: N_3  and  C_9
    2  A    between atoms: C_8  and  C_26
    3  A    between atoms: C_10  and  C_15
    4  A    between atoms: C_13  and  C_28
    5  A    between atoms: C_15  and  C_17
                            x       y       z     vdW  Elec       q    Type
                         _______ _______ _______ _____ _____    ______ ____

>  <TORSDO>
F 5

$$$$
=
 OpenBabel11042410493D

 31 34  0  0  1  0  0  0  0  0999 V2000
  186.6510  178.2330  142.1950 C   0  0  0  0  0  0  0  0  0  0  0  0
  187.6160  177.8680  145.1250 O   0  0  0  0  0  0  0  0  0  0  0  0
  189.0670  177.4470  143.2700 C   0  0  1  0  0  0  0  0  0  0  0  0
  184.3840  178.5760  143.2480 C   0  0  0  0  0  0  0  0  0  0  0  0
  181.9810  179.2150  140.4640 C   0  0  0  0  0  1  0  0  0  0  0  0
  181.6680  179.0530  142.9700 C   0  0  0  0  0  0  0  0  0  0  0  0
  188.8170  178.2990  144.4850 C   0  0  2  0  0  3  0  0  0  0  0  0
  185.3860  178.1630  145.8220 C   0  0  0  0  0  3  0  0  0  0  0  0
  187.9970  177.8420  142.3380 N   0  0  0  0  0  0  0  0  0  0  0  0
  189.4620  177.9810  142.0520 C   0  0  2  0  0  3  0  0  0  0  0  0
  183.5300  178.6170  144.3700 C   0  0  0  0  0  0  0  0  0  0  0  0
  182.2030  178.8530  144.2010 N   0  0  0  0  0  0  0  0  0  0  0  0
  182.5060  179.0090  141.8460 C   0  0  0  0  0  0  0  0  0  0  0  0
  189.0600  176.0590  143.4530 O   0  0  0  0  0  1  0  0  0  0  0  0
  184.0320  178.4050  145.6440 C   0  0  0  0  0  3  0  0  0  0  0  0
  186.2370  178.5570  141.0500 O   0  0  0  0  0  0  0  0  0  0  0  0
  185.7790  178.3230  143.4070 C   0  0  0  0  0  0  0  0  0  0  0  0
  186.2800  178.1300  144.7480 C   0  0  0  0  0  0  0  0  0  0  0  0
  183.8330  178.7720  142.0180 N   0  0  0  0  0  0  0  0  0  0  0  0
  189.9370  178.1740  145.4040 N   0  0  0  0  0  2  0  0  0  0  0  0
  189.8980  177.3100  146.5420 C   0  0  0  0  0  0  0  0  0  0  0  0
  188.8660  176.6360  146.8020 O   0  0  0  0  0  0  0  0  0  0  0  0
  191.0770  177.2340  147.4490 C   0  0  0  0  0  2  0  0  0  0  0  0
  191.9730  176.1180  147.0360 C   0  0  0  0  0  0  0  0  0  0  0  0
  192.0290  175.7290  145.7040 O   0  0  0  0  0  0  0  0  0  0  0  0
  192.7050  175.5490  147.8870 O   0  0  0  0  0  1  0  0  0  0  0  0
  191.4220  177.0310  140.6150 C   0  0  0  0  0  1  0  0  0  0  0  0
  189.9390  176.9880  140.9670 C   0  0  2  0  0  3  0  0  0  0  0  0
  189.1310  177.1110  139.7650 N   0  0  0  0  0  1  0  0  0  0  0  0
  179.1170  179.5000  142.7570 N   0  0  0  0  0  0  0  0  0  0  0  0
  180.2530  179.3010  142.8510 C   0  0  0  0  0  0  0  0  0  0  0  0
  1  9  1  0  0  0  0
  1 17  1  0  0  0  0
  3 14  1  1  0  0  0
  3  7  1  0  0  0  0
  4 17  1  0  0  0  0
  4 11  1  0  0  0  0
  5 13  1  0  0  0  0
  6 12  1  0  0  0  0
  7  2  1  0  0  0  0
  7 20  1  1  0  0  0
  9  3  1  0  0  0  0
 10 28  1  6  0  0  0
 10  9  1  0  0  0  0
 10  3  1  0  0  0  0
 11 15  1  0  0  0  0
 12 11  2  0  0  0  0
 13 19  1  0  0  0  0
 13  6  2  0  0  0  0
 15  8  2  0  0  0  0
 16  1  2  0  0  0  0
 17 18  2  0  0  0  0
 18  2  1  0  0  0  0
 18  8  1  0  0  0  0
 19  4  2  0  0  0  0
 20 21  1  0  0  0  0
 21 22  2  0  0  0  0
 21 23  1  0  0  0  0
 24 23  1  0  0  0  0
 24 26  1  0  0  0  0
 25 24  2  0  0  0  0
 28 27  1  6  0  0  0
 29 28  1  0  0  0  0
 30 31  3  0  0  0  0
 31  6  1  0  0  0  0
M  END
>  <MODEL>
2

>  <REMARK>
 VINA RESULT:      -8.8      2.716      8.175
  Name = 
  5 active torsions:
  status: ('A' for Active; 'I' for Inactive)
    1  A    between atoms: N_3  and  C_9
    2  A    between atoms: C_8  and  C_26
    3  A    between atoms: C_10  and  C_15
    4  A    between atoms: C_13  and  C_28
    5  A    between atoms: C_15  and  C_17
                            x       y       z     vdW  Elec       q    Type
                         _______ _______ _______ _____ _____    ______ ____

>  <TORSDO>
F 5

$$$$
=
 OpenBabel11042410493D

 31 34  0  0  1  0  0  0  0  0999 V2000
  188.0130  177.9060  141.1030 C   0  0  0  0  0  0  0  0  0  0  0  0
  190.5960  176.3750  140.3030 O   0  0  0  0  0  0  0  0  0  0  0  0
  189.0070  177.0880  138.6630 C   0  0  1  0  0  0  0  0  0  0  0  0
  188.7280  177.3730  143.4630 C   0  0  0  0  0  0  0  0  0  0  0  0
  186.1630  178.8570  145.7340 C   0  0  0  0  0  1  0  0  0  0  0  0
  188.2530  177.5060  146.1910 C   0  0  0  0  0  0  0  0  0  0  0  0
  190.4140  177.2310  139.1750 C   0  0  2  0  0  3  0  0  0  0  0  0
  190.9800  175.9720  142.5910 C   0  0  0  0  0  3  0  0  0  0  0  0
  188.1850  177.7030  139.7200 N   0  0  0  0  0  0  0  0  0  0  0  0
  188.2310  178.1790  138.2990 C   0  0  2  0  0  3  0  0  0  0  0  0
  189.5980  176.7590  144.3880 C   0  0  0  0  0  0  0  0  0  0  0  0
  189.3390  176.8420  145.7190 N   0  0  0  0  0  0  0  0  0  0  0  0
  187.3770  178.1160  145.2810 C   0  0  0  0  0  0  0  0  0  0  0  0
  188.5550  175.7910  138.3930 O   0  0  0  0  0  1  0  0  0  0  0  0
  190.7110  176.0600  143.9490 C   0  0  0  0  0  3  0  0  0  0  0  0
  187.0780  178.6570  141.4890 O   0  0  0  0  0  0  0  0  0  0  0  0
  188.9820  177.2900  142.0620 C   0  0  0  0  0  0  0  0  0  0  0  0
  190.1620  176.5760  141.6330 C   0  0  0  0  0  0  0  0  0  0  0  0
  187.6390  178.0310  143.9500 N   0  0  0  0  0  0  0  0  0  0  0  0
  191.3520  176.8650  138.1250 N   0  0  0  0  0  2  0  0  0  0  0  0
  192.7630  176.8120  138.3460 C   0  0  0  0  0  0  0  0  0  0  0  0
  193.2490  177.1070  139.4700 O   0  0  0  0  0  0  0  0  0  0  0  0
  193.6690  176.4380  137.2250 C   0  0  0  0  0  2  0  0  0  0  0  0
  194.3080  175.1200  137.4970 C   0  0  0  0  0  0  0  0  0  0  0  0
  195.6870  175.0300  137.6300 O   0  0  0  0  0  0  0  0  0  0  0  0
  193.5960  174.0920  137.6410 O   0  0  0  0  0  1  0  0  0  0  0  0
  186.9720  177.9580  136.0240 C   0  0  0  0  0  1  0  0  0  0  0  0
  186.9120  177.8880  137.5460 C   0  0  2  0  0  3  0  0  0  0  0  0
  185.8360  178.7250  138.0480 N   0  0  0  0  0  1  0  0  0  0  0  0
  187.8480  177.6070  148.7560 N   0  0  0  0  0  0  0  0  0  0  0  0
  188.0290  177.5620  147.6130 C   0  0  0  0  0  0  0  0  0  0  0  0
  1 16  2  0  0  0  0
  1 17  1  0  0  0  0
  2 18  1  0  0  0  0
  3 14  1  6  0  0  0
  3  7  1  0  0  0  0
  3  9  1  0  0  0  0
  4 19  2  0  0  0  0
  4 11  1  0  0  0  0
  6 31  1  0  0  0  0
  7 20  1  6  0  0  0
  7  2  1  0  0  0  0
  8 15  2  0  0  0  0
  9  1  1  0  0  0  0
 10 28  1  6  0  0  0
 10  3  1  0  0  0  0
 10  9  1  0  0  0  0
 11 12  2  0  0  0  0
 12  6  1  0  0  0  0
 13  5  1  0  0  0  0
 13  6  2  0  0  0  0
 15 11  1  0  0  0  0
 17  4  1  0  0  0  0
 18 17  2  0  0  0  0
 18  8  1  0  0  0  0
 19 13  1  0  0  0  0
 20 21  1  0  0  0  0
 21 22  2  0  0  0  0
 23 24  1  0  0  0  0
 23 21  1  0  0  0  0
 24 25  2  0  0  0  0
 24 26  1  0  0  0  0
 28 27  1  6  0  0  0
 28 29  1  0  0  0  0
 31 30  3  0  0  0  0
M  END
>  <MODEL>
3

>  <REMARK>
 VINA RESULT:      -8.6      4.376      8.127
  Name = 
  5 active torsions:
  status: ('A' for Active; 'I' for Inactive)
    1  A    between atoms: N_3  and  C_9
    2  A    between atoms: C_8  and  C_26
    3  A    between atoms: C_10  and  C_15
    4  A    between atoms: C_13  and  C_28
    5  A    between atoms: C_15  and  C_17
                            x       y       z     vdW  Elec       q    Type
                         _______ _______ _______ _____ _____    ______ ____

>  <TORSDO>
F 5

$$$$
=
 OpenBabel11042410493D

 31 34  0  0  1  0  0  0  0  0999 V2000
  186.3320  178.1100  141.6810 C   0  0  0  0  0  0  0  0  0  0  0  0
  183.3050  178.8060  141.6060 O   0  0  0  0  0  0  0  0  0  0  0  0
  184.6160  178.7180  139.6080 C   0  0  1  0  0  0  0  0  0  0  0  0
  186.0490  178.2580  144.1840 C   0  0  0  0  0  0  0  0  0  0  0  0
  189.3800  177.5170  145.6960 C   0  0  0  0  0  1  0  0  0  0  0  0
  187.1490  178.1230  146.7240 C   0  0  0  0  0  0  0  0  0  0  0  0
  183.4660  178.1150  140.3680 C   0  0  2  0  0  3  0  0  0  0  0  0
  183.3500  178.9380  143.9570 C   0  0  0  0  0  3  0  0  0  0  0  0
  185.7990  178.3290  140.3950 N   0  0  0  0  0  0  0  0  0  0  0  0
  185.5720  177.9450  138.9640 C   0  0  2  0  0  3  0  0  0  0  0  0
  185.2720  178.5170  145.3320 C   0  0  0  0  0  0  0  0  0  0  0  0
  185.8390  178.4420  146.5630 N   0  0  0  0  0  0  0  0  0  0  0  0
  187.9340  177.8680  145.5900 C   0  0  0  0  0  0  0  0  0  0  0  0
  184.5980  180.1050  139.4170 O   0  0  0  0  0  1  0  0  0  0  0  0
  183.9350  178.8590  145.2130 C   0  0  0  0  0  3  0  0  0  0  0  0
  187.5070  177.6660  141.7770 O   0  0  0  0  0  0  0  0  0  0  0  0
  185.4700  178.3380  142.8820 C   0  0  0  0  0  0  0  0  0  0  0  0
  184.0690  178.6740  142.7880 C   0  0  0  0  0  0  0  0  0  0  0  0
  187.3630  177.9450  144.3590 N   0  0  0  0  0  0  0  0  0  0  0  0
  182.2490  178.2310  139.5790 N   0  0  0  0  0  2  0  0  0  0  0  0
  181.4230  177.1050  139.2790 C   0  0  0  0  0  0  0  0  0  0  0  0
  181.7390  175.9520  139.6770 O   0  0  0  0  0  0  0  0  0  0  0  0
  180.1940  177.2910  138.4590 C   0  0  0  0  0  2  0  0  0  0  0  0
  179.3730  178.4060  139.0080 C   0  0  0  0  0  0  0  0  0  0  0  0
  178.9540  178.3740  140.3310 O   0  0  0  0  0  1  0  0  0  0  0  0
  179.0870  179.3950  138.2830 O   0  0  0  0  0  0  0  0  0  0  0  0
  186.5040  178.2400  136.5440 C   0  0  0  0  0  1  0  0  0  0  0  0
  186.5420  178.6740  138.0060 C   0  0  2  0  0  3  0  0  0  0  0  0
  187.9030  178.6230  138.5130 N   0  0  0  0  0  1  0  0  0  0  0  0
  188.1360  178.0040  149.1250 N   0  0  0  0  0  0  0  0  0  0  0  0
  187.6970  178.0570  148.0550 C   0  0  0  0  0  0  0  0  0  0  0  0
  1 16  2  0  0  0  0
  1 17  1  0  0  0  0
  2 18  1  0  0  0  0
  3 14  1  6  0  0  0
  3  7  1  0  0  0  0
  3  9  1  0  0  0  0
  4 19  2  0  0  0  0
  4 11  1  0  0  0  0
  6 31  1  0  0  0  0
  7 20  1  6  0  0  0
  7  2  1  0  0  0  0
  8 15  2  0  0  0  0
  9  1  1  0  0  0  0
 10 28  1  6  0  0  0
 10  3  1  0  0  0  0
 10  9  1  0  0  0  0
 11 12  2  0  0  0  0
 12  6  1  0  0  0  0
 13  5  1  0  0  0  0
 13  6  2  0  0  0  0
 15 11  1  0  0  0  0
 17  4  1  0  0  0  0
 18 17  2  0  0  0  0
 18  8  1  0  0  0  0
 19 13  1  0  0  0  0
 21 20  1  0  0  0  0
 21 22  2  0  0  0  0
 23 24  1  0  0  0  0
 23 21  1  0  0  0  0
 24 25  1  0  0  0  0
 26 24  2  0  0  0  0
 28 27  1  6  0  0  0
 28 29  1  0  0  0  0
 31 30  3  0  0  0  0
M  END
>  <MODEL>
4

>  <REMARK>
 VINA RESULT:      -8.1      2.402      3.691
  Name = 
  5 active torsions:
  status: ('A' for Active; 'I' for Inactive)
    1  A    between atoms: N_3  and  C_9
    2  A    between atoms: C_8  and  C_26
    3  A    between atoms: C_10  and  C_15
    4  A    between atoms: C_13  and  C_28
    5  A    between atoms: C_15  and  C_17
                            x       y       z     vdW  Elec       q    Type
                         _______ _______ _______ _____ _____    ______ ____

>  <TORSDO>
F 5

$$$$
=
 OpenBabel11042410493D

 31 34  0  0  1  0  0  0  0  0999 V2000
  186.8010  177.7670  143.6570 C   0  0  0  0  0  0  0  0  0  0  0  0
  188.4730  177.9590  141.0450 O   0  0  0  0  0  0  0  0  0  0  0  0
  189.5130  177.6170  143.1720 C   0  0  1  0  0  0  0  0  0  0  0  0
  184.8720  178.4370  142.1750 C   0  0  0  0  0  0  0  0  0  0  0  0
  181.8370  178.5770  144.3430 C   0  0  0  0  0  1  0  0  0  0  0  0
  182.1860  179.0540  141.8830 C   0  0  0  0  0  0  0  0  0  0  0  0
  189.2490  177.0360  141.8100 C   0  0  2  0  0  3  0  0  0  0  0  0
  186.5140  178.6290  139.9240 C   0  0  0  0  0  3  0  0  0  0  0  0
  188.1910  177.6030  143.8220 N   0  0  0  0  0  0  0  0  0  0  0  0
  189.3940  176.8730  144.3370 C   0  0  2  0  0  3  0  0  0  0  0  0
  184.3430  178.8300  140.9270 C   0  0  0  0  0  0  0  0  0  0  0  0
  183.0220  179.1250  140.8160 N   0  0  0  0  0  0  0  0  0  0  0  0
  182.7010  178.6700  143.1300 C   0  0  0  0  0  0  0  0  0  0  0  0
  190.0610  178.9040  143.2210 O   0  0  0  0  0  1  0  0  0  0  0  0
  185.1640  178.9280  139.8160 C   0  0  0  0  0  3  0  0  0  0  0  0
  186.0480  177.5410  144.6410 O   0  0  0  0  0  0  0  0  0  0  0  0
  186.2580  178.1290  142.3100 C   0  0  0  0  0  0  0  0  0  0  0  0
  187.0870  178.2170  141.1310 C   0  0  0  0  0  0  0  0  0  0  0  0
  184.0230  178.3760  143.2380 N   0  0  0  0  0  0  0  0  0  0  0  0
  190.5140  176.7820  141.1380 N   0  0  0  0  0  2  0  0  0  0  0  0
  190.6590  176.8840  139.7190 C   0  0  0  0  0  0  0  0  0  0  0  0
  189.6740  177.1790  138.9920 O   0  0  0  0  0  0  0  0  0  0  0  0
  191.9810  176.6030  139.0930 C   0  0  0  0  0  2  0  0  0  0  0  0
  191.8040  175.7660  137.8740 C   0  0  0  0  0  0  0  0  0  0  0  0
  191.2070  174.5160  137.9690 O   0  0  0  0  0  1  0  0  0  0  0  0
  192.1660  176.2040  136.7500 O   0  0  0  0  0  0  0  0  0  0  0  0
  191.3650  177.1160  146.0290 C   0  0  0  0  0  1  0  0  0  0  0  0
  189.9430  177.5030  145.6370 C   0  0  2  0  0  3  0  0  0  0  0  0
  189.0330  177.2730  146.7470 N   0  0  0  0  0  1  0  0  0  0  0  0
  179.6740  179.6370  141.5640 N   0  0  0  0  0  0  0  0  0  0  0  0
  180.7930  179.3780  141.7050 C   0  0  0  0  0  0  0  0  0  0  0  0
  1  9  1  0  0  0  0
  1 16  2  0  0  0  0
  2 18  1  0  0  0  0
  2  7  1  0  0  0  0
  3 14  1  1  0  0  0
  3  9  1  0  0  0  0
  3 10  1  0  0  0  0
  4 17  1  0  0  0  0
  4 19  1  0  0  0  0
  6 13  1  0  0  0  0
  7 20  1  6  0  0  0
  7  3  1  0  0  0  0
  8 18  1  0  0  0  0
  9 10  1  0  0  0  0
 10 28  1  1  0  0  0
 11  4  2  0  0  0  0
 12 11  1  0  0  0  0
 12  6  2  0  0  0  0
 13 19  2  0  0  0  0
 13  5  1  0  0  0  0
 15  8  2  0  0  0  0
 15 11  1  0  0  0  0
 17  1  1  0  0  0  0
 18 17  2  0  0  0  0
 21 20  1  0  0  0  0
 22 21  2  0  0  0  0
 23 21  1  0  0  0  0
 24 25  1  0  0  0  0
 24 23  1  0  0  0  0
 26 24  2  0  0  0  0
 28 27  1  1  0  0  0
 28 29  1  0  0  0  0
 30 31  3  0  0  0  0
 31  6  1  0  0  0  0
M  END
>  <MODEL>
5

>  <REMARK>
 VINA RESULT:      -7.9      3.228      8.795
  Name = 
  5 active torsions:
  status: ('A' for Active; 'I' for Inactive)
    1  A    between atoms: N_3  and  C_9
    2  A    between atoms: C_8  and  C_26
    3  A    between atoms: C_10  and  C_15
    4  A    between atoms: C_13  and  C_28
    5  A    between atoms: C_15  and  C_17
                            x       y       z     vdW  Elec       q    Type
                         _______ _______ _______ _____ _____    ______ ____

>  <TORSDO>
F 5

$$$$
=
 OpenBabel11042410493D

 31 34  0  0  1  0  0  0  0  0999 V2000
  185.7330  177.3740  137.7350 C   0  0  0  0  0  0  0  0  0  0  0  0
  186.5310  178.9770  140.2740 O   0  0  0  0  0  0  0  0  0  0  0  0
  184.3180  179.0860  139.3720 C   0  0  1  0  0  0  0  0  0  0  0  0
  188.1950  176.8430  137.6000 C   0  0  0  0  0  0  0  0  0  0  0  0
  188.6730  174.6710  134.6020 C   0  0  0  0  0  1  0  0  0  0  0  0
  190.3050  175.6100  136.2930 C   0  0  0  0  0  0  0  0  0  0  0  0
  185.1620  178.6770  140.5480 C   0  0  2  0  0  3  0  0  0  0  0  0
  188.7700  178.3740  139.8640 C   0  0  0  0  0  3  0  0  0  0  0  0
  184.6940  178.1260  138.3190 N   0  0  0  0  0  0  0  0  0  0  0  0
  183.3070  178.2830  138.8640 C   0  0  2  0  0  3  0  0  0  0  0  0
  189.5210  176.9750  138.0640 C   0  0  0  0  0  0  0  0  0  0  0  0
  190.5340  176.3590  137.4010 N   0  0  0  0  0  0  0  0  0  0  0  0
  188.9920  175.4750  135.8180 C   0  0  0  0  0  0  0  0  0  0  0  0
  184.4670  180.3970  138.9050 O   0  0  0  0  0  1  0  0  0  0  0  0
  189.8010  177.7410  139.1840 C   0  0  0  0  0  3  0  0  0  0  0  0
  185.4450  176.5750  136.8040 O   0  0  0  0  0  0  0  0  0  0  0  0
  187.1210  177.4890  138.2810 C   0  0  0  0  0  0  0  0  0  0  0  0
  187.4370  178.2610  139.4590 C   0  0  0  0  0  0  0  0  0  0  0  0
  187.9810  176.0940  136.4830 N   0  0  0  0  0  0  0  0  0  0  0  0
  184.7280  179.4020  141.7320 N   0  0  0  0  0  2  0  0  0  0  0  0
  185.1900  179.0710  143.0430 C   0  0  0  0  0  0  0  0  0  0  0  0
  185.9840  178.1080  143.2210 O   0  0  0  0  0  0  0  0  0  0  0  0
  184.7000  179.8490  144.2150 C   0  0  0  0  0  2  0  0  0  0  0  0
  183.8110  179.0020  145.0590 C   0  0  0  0  0  0  0  0  0  0  0  0
  182.5610  178.6230  144.5880 O   0  0  0  0  0  0  0  0  0  0  0  0
  184.2050  178.6010  146.1850 O   0  0  0  0  0  1  0  0  0  0  0  0
  181.2210  179.7800  138.4010 C   0  0  0  0  0  1  0  0  0  0  0  0
  182.3470  178.9220  137.8340 C   0  0  2  0  0  3  0  0  0  0  0  0
  181.8110  177.9150  136.9340 N   0  0  0  0  0  1  0  0  0  0  0  0
  192.3130  174.4700  135.1010 N   0  0  0  0  0  0  0  0  0  0  0  0
  191.4190  174.9770  135.6310 C   0  0  0  0  0  0  0  0  0  0  0  0
  1 17  1  0  0  0  0
  1  9  1  0  0  0  0
  2  7  1  0  0  0  0
  3 14  1  6  0  0  0
  3  7  1  0  0  0  0
  4 11  1  0  0  0  0
  4 17  1  0  0  0  0
  5 13  1  0  0  0  0
  6 12  1  0  0  0  0
  7 20  1  1  0  0  0
  9 10  1  0  0  0  0
  9  3  1  0  0  0  0
 10 28  1  6  0  0  0
 10  3  1  0  0  0  0
 11 15  1  0  0  0  0
 12 11  2  0  0  0  0
 13  6  2  0  0  0  0
 13 19  1  0  0  0  0
 15  8  2  0  0  0  0
 16  1  2  0  0  0  0
 17 18  2  0  0  0  0
 18  8  1  0  0  0  0
 18  2  1  0  0  0  0
 19  4  2  0  0  0  0
 20 21  1  0  0  0  0
 21 22  2  0  0  0  0
 21 23  1  0  0  0  0
 23 24  1  0  0  0  0
 24 26  1  0  0  0  0
 25 24  2  0  0  0  0
 28 27  1  1  0  0  0
 29 28  1  0  0  0  0
 30 31  3  0  0  0  0
 31  6  1  0  0  0  0
M  END
>  <MODEL>
6

>  <REMARK>
 VINA RESULT:      -7.7      4.599      7.129
  Name = 
  5 active torsions:
  status: ('A' for Active; 'I' for Inactive)
    1  A    between atoms: N_3  and  C_9
    2  A    between atoms: C_8  and  C_26
    3  A    between atoms: C_10  and  C_15
    4  A    between atoms: C_13  and  C_28
    5  A    between atoms: C_15  and  C_17
                            x       y       z     vdW  Elec       q    Type
                         _______ _______ _______ _____ _____    ______ ____

>  <TORSDO>
F 5

$$$$
=
 OpenBabel11042410493D

 31 34  0  0  1  0  0  0  0  0999 V2000
  188.6970  177.3950  142.8700 C   0  0  0  0  0  0  0  0  0  0  0  0
  191.6850  177.2940  143.7190 O   0  0  0  0  0  0  0  0  0  0  0  0
  189.9390  177.5920  145.3260 C   0  0  1  0  0  0  0  0  0  0  0  0
  189.6230  177.4060  140.5230 C   0  0  0  0  0  0  0  0  0  0  0  0
  186.6980  177.5070  138.2060 C   0  0  0  0  0  1  0  0  0  0  0  0
  189.1940  177.4960  137.7870 C   0  0  0  0  0  0  0  0  0  0  0  0
  191.0500  176.6970  144.8490 C   0  0  2  0  0  3  0  0  0  0  0  0
  192.2620  177.3760  141.4370 C   0  0  0  0  0  3  0  0  0  0  0  0
  188.9310  177.5010  144.2560 N   0  0  0  0  0  0  0  0  0  0  0  0
  188.6890  177.1050  145.6820 C   0  0  2  0  0  3  0  0  0  0  0  0
  190.7010  177.4290  139.6140 C   0  0  0  0  0  0  0  0  0  0  0  0
  190.4590  177.4730  138.2790 N   0  0  0  0  0  0  0  0  0  0  0  0
  188.1130  177.4790  138.6800 C   0  0  0  0  0  0  0  0  0  0  0  0
  190.2610  178.9320  145.5730 O   0  0  0  0  0  1  0  0  0  0  0  0
  192.0080  177.4200  140.0740 C   0  0  0  0  0  3  0  0  0  0  0  0
  187.5100  177.2650  142.4690 O   0  0  0  0  0  0  0  0  0  0  0  0
  189.8600  177.3660  141.9290 C   0  0  0  0  0  0  0  0  0  0  0  0
  191.2310  177.3330  142.3810 C   0  0  0  0  0  0  0  0  0  0  0  0
  188.3590  177.4360  140.0160 N   0  0  0  0  0  0  0  0  0  0  0  0
  192.0200  176.5160  145.9180 N   0  0  0  0  0  2  0  0  0  0  0  0
  191.7090  175.8080  147.1200 C   0  0  0  0  0  0  0  0  0  0  0  0
  190.5580  175.3300  147.3050 O   0  0  0  0  0  0  0  0  0  0  0  0
  192.7450  175.6660  148.1800 C   0  0  0  0  0  2  0  0  0  0  0  0
  192.8730  176.9360  148.9480 C   0  0  0  0  0  0  0  0  0  0  0  0
  193.9990  177.1670  149.7270 O   0  0  0  0  0  1  0  0  0  0  0  0
  191.9760  177.8150  148.8670 O   0  0  0  0  0  0  0  0  0  0  0  0
  187.8760  178.1840  147.9140 C   0  0  0  0  0  1  0  0  0  0  0  0
  187.7290  178.0820  146.4000 C   0  0  2  0  0  3  0  0  0  0  0  0
  186.3480  177.8020  146.0440 N   0  0  0  0  0  1  0  0  0  0  0  0
  188.8380  177.5770  135.2140 N   0  0  0  0  0  0  0  0  0  0  0  0
  188.9970  177.5410  136.3600 C   0  0  0  0  0  0  0  0  0  0  0  0
  1  9  1  0  0  0  0
  2  7  1  0  0  0  0
  3 14  1  1  0  0  0
  3 10  1  0  0  0  0
  4 17  1  0  0  0  0
  5 13  1  0  0  0  0
  6 12  2  0  0  0  0
  6 13  1  0  0  0  0
  7  3  1  0  0  0  0
  7 20  1  1  0  0  0
  8 18  1  0  0  0  0
  9  3  1  0  0  0  0
  9 10  1  0  0  0  0
 10 28  1  1  0  0  0
 11 15  1  0  0  0  0
 11  4  2  0  0  0  0
 12 11  1  0  0  0  0
 13 19  2  0  0  0  0
 15  8  2  0  0  0  0
 16  1  2  0  0  0  0
 17 18  2  0  0  0  0
 17  1  1  0  0  0  0
 18  2  1  0  0  0  0
 19  4  1  0  0  0  0
 20 21  1  0  0  0  0
 21 22  2  0  0  0  0
 21 23  1  0  0  0  0
 23 24  1  0  0  0  0
 24 25  1  0  0  0  0
 26 24  2  0  0  0  0
 28 27  1  1  0  0  0
 29 28  1  0  0  0  0
 30 31  3  0  0  0  0
 31  6  1  0  0  0  0
M  END
>  <MODEL>
7

>  <REMARK>
 VINA RESULT:      -7.7      4.176      9.065
  Name = 
  5 active torsions:
  status: ('A' for Active; 'I' for Inactive)
    1  A    between atoms: N_3  and  C_9
    2  A    between atoms: C_8  and  C_26
    3  A    between atoms: C_10  and  C_15
    4  A    between atoms: C_13  and  C_28
    5  A    between atoms: C_15  and  C_17
                            x       y       z     vdW  Elec       q    Type
                         _______ _______ _______ _____ _____    ______ ____

>  <TORSDO>
F 5

$$$$
=
 OpenBabel11042410493D

 31 34  0  0  1  0  0  0  0  0999 V2000
  189.2070  177.1430  141.3130 C   0  0  0  0  0  0  0  0  0  0  0  0
  186.7110  178.4320  139.9840 O   0  0  0  0  0  0  0  0  0  0  0  0
  188.6240  177.7950  138.6960 C   0  0  1  0  0  0  0  0  0  0  0  0
  188.0310  177.6960  143.4760 C   0  0  0  0  0  0  0  0  0  0  0  0
  190.2340  176.5040  146.2430 C   0  0  0  0  0  1  0  0  0  0  0  0
  188.0020  177.6950  146.2470 C   0  0  0  0  0  0  0  0  0  0  0  0
  187.1600  177.5560  138.9500 C   0  0  2  0  0  3  0  0  0  0  0  0
  185.8820  178.8800  142.1420 C   0  0  0  0  0  3  0  0  0  0  0  0
  189.2800  177.2850  139.9130 N   0  0  0  0  0  0  0  0  0  0  0  0
  189.5320  176.7590  138.5320 C   0  0  2  0  0  3  0  0  0  0  0  0
  186.9610  178.2680  144.1960 C   0  0  0  0  0  0  0  0  0  0  0  0
  186.9760  178.2520  145.5540 N   0  0  0  0  0  0  0  0  0  0  0  0
  189.0740  177.1270  145.5420 C   0  0  0  0  0  0  0  0  0  0  0  0
  189.0210  179.1150  138.4510 O   0  0  0  0  0  1  0  0  0  0  0  0
  185.9010  178.8590  143.5290 C   0  0  0  0  0  3  0  0  0  0  0  0
  190.1070  176.4850  141.8980 O   0  0  0  0  0  0  0  0  0  0  0  0
  188.0340  177.7110  142.0490 C   0  0  0  0  0  0  0  0  0  0  0  0
  186.9050  178.3120  141.3790 C   0  0  0  0  0  0  0  0  0  0  0  0
  189.0560  177.1470  144.1830 N   0  0  0  0  0  0  0  0  0  0  0  0
  186.4090  177.8080  137.7310 N   0  0  0  0  0  2  0  0  0  0  0  0
  186.0720  176.7670  136.8120 C   0  0  0  0  0  0  0  0  0  0  0  0
  186.4430  175.5810  137.0200 O   0  0  0  0  0  0  0  0  0  0  0  0
  185.3070  177.0950  135.5770 C   0  0  0  0  0  2  0  0  0  0  0  0
  183.8910  176.6550  135.7170 C   0  0  0  0  0  0  0  0  0  0  0  0
  182.9510  177.5060  136.2830 O   0  0  0  0  0  1  0  0  0  0  0  0
  183.5370  175.5240  135.2930 O   0  0  0  0  0  0  0  0  0  0  0  0
  191.3100  176.6270  136.6270 C   0  0  0  0  0  1  0  0  0  0  0  0
  190.9420  177.1310  138.0180 C   0  0  2  0  0  3  0  0  0  0  0  0
  191.9610  176.7450  138.9810 N   0  0  0  0  0  1  0  0  0  0  0  0
  187.9300  177.7130  148.8440 N   0  0  0  0  0  0  0  0  0  0  0  0
  187.9620  177.7050  147.6880 C   0  0  0  0  0  0  0  0  0  0  0  0
  1 16  2  0  0  0  0
  1 17  1  0  0  0  0
  2 18  1  0  0  0  0
  3 14  1  6  0  0  0
  3  7  1  0  0  0  0
  3  9  1  0  0  0  0
  4 19  2  0  0  0  0
  4 11  1  0  0  0  0
  6 31  1  0  0  0  0
  7 20  1  6  0  0  0
  7  2  1  0  0  0  0
  8 15  2  0  0  0  0
  9  1  1  0  0  0  0
 10 28  1  6  0  0  0
 10  3  1  0  0  0  0
 10  9  1  0  0  0  0
 11 12  2  0  0  0  0
 12  6  1  0  0  0  0
 13  5  1  0  0  0  0
 13  6  2  0  0  0  0
 15 11  1  0  0  0  0
 17  4  1  0  0  0  0
 18 17  2  0  0  0  0
 18  8  1  0  0  0  0
 19 13  1  0  0  0  0
 21 22  2  0  0  0  0
 21 20  1  0  0  0  0
 23 24  1  0  0  0  0
 23 21  1  0  0  0  0
 24 25  1  0  0  0  0
 26 24  2  0  0  0  0
 28 27  1  6  0  0  0
 28 29  1  0  0  0  0
 31 30  3  0  0  0  0
M  END
>  <MODEL>
8

>  <REMARK>
 VINA RESULT:      -7.7      3.999      5.781
  Name = 
  5 active torsions:
  status: ('A' for Active; 'I' for Inactive)
    1  A    between atoms: N_3  and  C_9
    2  A    between atoms: C_8  and  C_26
    3  A    between atoms: C_10  and  C_15
    4  A    between atoms: C_13  and  C_28
    5  A    between atoms: C_15  and  C_17
                            x       y       z     vdW  Elec       q    Type
                         _______ _______ _______ _____ _____    ______ ____

>  <TORSDO>
F 5

$$$$
=
 OpenBabel11042410493D

 31 34  0  0  1  0  0  0  0  0999 V2000
  183.6580  178.3650  142.6720 C   0  0  0  0  0  0  0  0  0  0  0  0
  184.1860  178.8580  139.6500 O   0  0  0  0  0  0  0  0  0  0  0  0
  181.9720  178.5300  140.4940 C   0  0  1  0  0  0  0  0  0  0  0  0
  186.1720  178.2310  142.8330 C   0  0  0  0  0  0  0  0  0  0  0  0
  186.9950  177.6070  146.4210 C   0  0  0  0  0  1  0  0  0  0  0  0
  188.4500  177.8400  144.3630 C   0  0  0  0  0  0  0  0  0  0  0  0
  182.9160  179.4880  139.8210 C   0  0  2  0  0  3  0  0  0  0  0  0
  186.4880  178.6220  140.0870 C   0  0  0  0  0  3  0  0  0  0  0  0
  182.5050  178.4140  141.8630 N   0  0  0  0  0  0  0  0  0  0  0  0
  181.1320  178.9140  141.5290 C   0  0  2  0  0  3  0  0  0  0  0  0
  187.4550  178.2360  142.2490 C   0  0  0  0  0  0  0  0  0  0  0  0
  188.5530  178.0410  143.0250 N   0  0  0  0  0  0  0  0  0  0  0  0
  187.1780  177.8280  144.9560 C   0  0  0  0  0  0  0  0  0  0  0  0
  181.8350  177.2610  139.9200 O   0  0  0  0  0  1  0  0  0  0  0  0
  187.6050  178.4240  140.8840 C   0  0  0  0  0  3  0  0  0  0  0  0
  183.5130  178.3320  143.9230 O   0  0  0  0  0  0  0  0  0  0  0  0
  185.0080  178.4270  142.0320 C   0  0  0  0  0  0  0  0  0  0  0  0
  185.1940  178.6450  140.6160 C   0  0  0  0  0  0  0  0  0  0  0  0
  186.0820  178.0220  144.1760 N   0  0  0  0  0  0  0  0  0  0  0  0
  182.3790  179.8690  138.5240 N   0  0  0  0  0  2  0  0  0  0  0  0
  181.4820  180.9700  138.3620 C   0  0  0  0  0  0  0  0  0  0  0  0
  181.1050  181.6430  139.3580 O   0  0  0  0  0  0  0  0  0  0  0  0
  180.9610  181.3020  137.0070 C   0  0  0  0  0  2  0  0  0  0  0  0
  180.6090  182.7480  136.9320 C   0  0  0  0  0  0  0  0  0  0  0  0
  179.3400  183.1740  137.3020 O   0  0  0  0  0  1  0  0  0  0  0  0
  181.4700  183.5880  136.5640 O   0  0  0  0  0  0  0  0  0  0  0  0
  178.9330  177.6430  140.9320 C   0  0  0  0  0  1  0  0  0  0  0  0
  180.0310  177.9150  141.9540 C   0  0  2  0  0  3  0  0  0  0  0  0
  179.4510  178.2980  143.2300 N   0  0  0  0  0  1  0  0  0  0  0  0
  190.6120  177.4810  145.7600 N   0  0  0  0  0  0  0  0  0  0  0  0
  189.6490  177.6410  145.1370 C   0  0  0  0  0  0  0  0  0  0  0  0
  1 16  2  0  0  0  0
  2  7  1  0  0  0  0
  2 18  1  0  0  0  0
  3 14  1  6  0  0  0
  3 10  1  0  0  0  0
  3  9  1  0  0  0  0
  4 19  1  0  0  0  0
  6 13  1  0  0  0  0
  6 31  1  0  0  0  0
  7 20  1  6  0  0  0
  7  3  1  0  0  0  0
  8 18  2  0  0  0  0
  8 15  1  0  0  0  0
  9  1  1  0  0  0  0
 10  9  1  0  0  0  0
 10 28  1  1  0  0  0
 11  4  1  0  0  0  0
 11 12  1  0  0  0  0
 12  6  2  0  0  0  0
 13  5  1  0  0  0  0
 15 11  2  0  0  0  0
 17  1  1  0  0  0  0
 17  4  2  0  0  0  0
 18 17  1  0  0  0  0
 19 13  2  0  0  0  0
 21 20  1  0  0  0  0
 21 22  2  0  0  0  0
 23 21  1  0  0  0  0
 24 23  1  0  0  0  0
 24 25  1  0  0  0  0
 26 24  2  0  0  0  0
 28 27  1  6  0  0  0
 28 29  1  0  0  0  0
 31 30  3  0  0  0  0
M  END
>  <MODEL>
9

>  <REMARK>
 VINA RESULT:      -7.6      2.868      5.180
  Name = 
  5 active torsions:
  status: ('A' for Active; 'I' for Inactive)
    1  A    between atoms: N_3  and  C_9
    2  A    between atoms: C_8  and  C_26
    3  A    between atoms: C_10  and  C_15
    4  A    between atoms: C_13  and  C_28
    5  A    between atoms: C_15  and  C_17
                            x       y       z     vdW  Elec       q    Type
                         _______ _______ _______ _____ _____    ______ ____

>  <TORSDO>
F 5

$$$$
