=
 OpenBabel11042411423D

 40 42  0  0  1  0  0  0  0  0999 V2000
  182.9170  178.1500  138.5750 C   0  0  0  0  0  0  0  0  0  0  0  0
  182.0320  179.1120  137.8570 C   0  0  2  0  0  3  0  0  0  0  0  0
  183.0250  178.9540  139.7110 C   0  0  0  0  0  0  0  0  0  0  0  0
  182.1090  180.3570  139.0130 S   0  0  0  0  0  0  0  0  0  0  0  0
  185.0540  178.5230  143.4470 C   0  0  0  0  0  0  0  0  0  0  0  0
  185.7680  178.6600  142.2510 C   0  0  0  0  0  3  0  0  0  0  0  0
  181.4760  178.7660  142.2570 C   0  0  0  0  0  1  0  0  0  0  0  0
  183.6880  178.7930  141.0100 C   0  0  0  0  0  0  0  0  0  0  0  0
  183.6570  178.5480  143.4250 C   0  0  0  0  0  3  0  0  0  0  0  0
  182.9660  178.6810  142.2170 C   0  0  0  0  0  0  0  0  0  0  0  0
  185.0860  178.8010  141.0410 C   0  0  0  0  0  3  0  0  0  0  0  0
  185.7330  178.3730  144.6930 N   0  0  0  0  0  0  0  0  0  0  0  0
  189.6900  176.8770  147.3740 C   0  0  1  0  0  3  0  0  0  0  0  0
  187.0600  177.9210  144.7480 N   0  0  0  0  0  0  0  0  0  0  0  0
  191.1830  176.6030  147.3930 C   0  0  0  0  0  1  0  0  0  0  0  0
  189.3180  177.9770  148.3520 C   0  0  0  0  0  2  0  0  0  0  0  0
  187.1980  178.1810  147.0940 N   0  0  0  0  0  0  0  0  0  0  0  0
  189.1500  177.1940  145.9660 C   0  0  1  0  0  3  0  0  0  0  0  0
  187.7970  178.0340  148.4250 C   0  0  0  0  0  2  0  0  0  0  0  0
  187.7460  177.7580  145.9890 C   0  0  0  0  0  0  0  0  0  0  0  0
  190.4820  177.3470  144.0940 O   0  0  0  0  0  1  0  0  0  0  0  0
  190.0530  178.0430  145.1800 N   0  0  0  0  0  2  0  0  0  0  0  0
  182.6750  175.3510  138.6760 Cl  0  0  0  0  0  0  0  0  0  0  0  0
  186.1120  175.7450  136.0260 C   0  0  0  0  0  1  0  0  0  0  0  0
  185.8270  176.7410  137.0980 C   0  0  0  0  0  0  0  0  0  0  0  0
  184.6380  176.7770  137.6310 C   0  0  0  0  0  0  0  0  0  0  0  0
  183.4610  176.8390  138.1840 C   0  0  0  0  0  0  0  0  0  0  0  0
  186.2580  178.9830  137.8170 O   0  0  0  0  0  1  0  0  0  0  0  0
  186.8510  177.7490  137.5350 C   0  0  2  0  0  3  0  0  0  0  0  0
  187.9100  177.9210  136.4500 C   0  0  0  0  0  2  0  0  0  0  0  0
  189.8320  176.3180  136.6720 C   0  0  0  0  0  1  0  0  0  0  0  0
  189.3340  177.7210  136.9720 C   0  0  2  0  0  3  0  0  0  0  0  0
  189.4140  177.9800  138.3460 O   0  0  0  0  0  0  0  0  0  0  0  0
  190.5320  177.2630  138.7850 C   0  0  0  0  0  2  0  0  0  0  0  0
  189.1850  177.6830  140.8160 C   0  0  0  0  0  1  0  0  0  0  0  0
  190.4000  176.9660  140.2670 C   0  0  2  0  0  3  0  0  0  0  0  0
  191.5400  177.4080  140.9390 O   0  0  0  0  0  1  0  0  0  0  0  0
  180.6300  178.5890  137.7350 C   0  0  0  0  0  0  0  0  0  0  0  0
  180.3800  177.6710  136.9090 O   0  0  0  0  0  0  0  0  0  0  0  0
  179.6040  179.1100  138.5150 O   0  0  0  0  0  1  0  0  0  0  0  0
  1  3  2  0  0  0  0
  2 38  1  1  0  0  0
  2  1  1  0  0  0  0
  2  4  1  0  0  0  0
  3  8  1  0  0  0  0
  4  3  1  0  0  0  0
  5 12  1  0  0  0  0
  6  5  2  0  0  0  0
  8 11  2  0  0  0  0
  8 10  1  0  0  0  0
  9  5  1  0  0  0  0
 10  7  1  0  0  0  0
 10  9  2  0  0  0  0
 11  6  1  0  0  0  0
 12 14  2  0  0  0  0
 13 15  1  6  0  0  0
 13 16  1  0  0  0  0
 14 20  1  0  0  0  0
 16 19  1  0  0  0  0
 17 19  1  0  0  0  0
 18 22  1  1  0  0  0
 18 20  1  0  0  0  0
 18 13  1  0  0  0  0
 20 17  2  0  0  0  0
 21 22  1  0  0  0  0
 24 25  1  0  0  0  0
 25 29  1  0  0  0  0
 25 26  2  0  0  0  0
 26 27  2  0  0  0  0
 27  1  1  0  0  0  0
 27 23  1  0  0  0  0
 29 28  1  6  0  0  0
 30 32  1  0  0  0  0
 30 29  1  0  0  0  0
 32 31  1  1  0  0  0
 32 33  1  0  0  0  0
 33 34  1  0  0  0  0
 34 36  1  0  0  0  0
 36 35  1  1  0  0  0
 36 37  1  0  0  0  0
 38 40  1  0  0  0  0
 39 38  2  0  0  0  0
M  END
>  <MODEL>
1

>  <REMARK>
 VINA RESULT:      -8.0      0.000      0.000
  Name = 
  12 active torsions:
  status: ('A' for Active; 'I' for Inactive)
    1  A    between atoms: C_2  and  C_29
    2  A    between atoms: C_5  and  N_22
    3  A    between atoms: N_8  and  N_22
    4  A    between atoms: C_9  and  C_34
    5  A    between atoms: C_9  and  C_35
    6  A    between atoms: C_15  and  C_30
    7  A    between atoms: C_16  and  C_32
    8  A    between atoms: O_18  and  C_34
    9  A    between atoms: O_18  and  C_37
   10  A    between atoms: C_21  and  C_37
   11  A    between atoms: C_23  and  N_39
   12  A    between atoms: C_24  and  C_35
                            x       y       z     vdW  Elec       q    Type
                         _______ _______ _______ _____ _____    ______ ____

>  <TORSDO>
F 12

$$$$
=
 OpenBabel11042411423D

 40 42  0  0  1  0  0  0  0  0999 V2000
  182.1720  178.1990  138.6760 C   0  0  0  0  0  0  0  0  0  0  0  0
  181.4730  179.2710  137.9090 C   0  0  2  0  0  3  0  0  0  0  0  0
  182.6080  179.0700  139.6750 C   0  0  0  0  0  0  0  0  0  0  0  0
  181.9900  180.5740  138.8690 S   0  0  0  0  0  0  0  0  0  0  0  0
  184.7020  178.5150  143.3590 C   0  0  0  0  0  0  0  0  0  0  0  0
  183.3060  178.6170  143.3320 C   0  0  0  0  0  3  0  0  0  0  0  0
  185.5770  178.7550  139.6910 C   0  0  0  0  0  1  0  0  0  0  0  0
  183.3600  178.8900  140.9230 C   0  0  0  0  0  0  0  0  0  0  0  0
  185.4220  178.5750  142.1640 C   0  0  0  0  0  3  0  0  0  0  0  0
  184.7650  178.7630  140.9440 C   0  0  0  0  0  0  0  0  0  0  0  0
  182.6410  178.7970  142.1180 C   0  0  0  0  0  3  0  0  0  0  0  0
  185.3990  178.3360  144.5910 N   0  0  0  0  0  0  0  0  0  0  0  0
  189.4480  176.9320  147.1830 C   0  0  1  0  0  3  0  0  0  0  0  0
  186.7330  177.9040  144.6160 N   0  0  0  0  0  0  0  0  0  0  0  0
  190.9450  176.6800  147.1650 C   0  0  0  0  0  1  0  0  0  0  0  0
  189.0860  178.0380  148.1570 C   0  0  0  0  0  2  0  0  0  0  0  0
  186.9290  178.1950  146.9540 N   0  0  0  0  0  0  0  0  0  0  0  0
  188.8650  177.2230  145.7860 C   0  0  1  0  0  3  0  0  0  0  0  0
  187.5660  178.0740  148.2700 C   0  0  0  0  0  2  0  0  0  0  0  0
  187.4550  177.7670  145.8400 C   0  0  0  0  0  0  0  0  0  0  0  0
  190.0730  177.4040  143.8340 O   0  0  0  0  0  1  0  0  0  0  0  0
  189.7350  178.0750  144.9660 N   0  0  0  0  0  2  0  0  0  0  0  0
  181.6950  175.5710  139.5540 Cl  0  0  0  0  0  0  0  0  0  0  0  0
  183.5460  174.7810  135.6880 C   0  0  0  0  0  1  0  0  0  0  0  0
  183.8990  175.9820  136.4990 C   0  0  0  0  0  0  0  0  0  0  0  0
  183.1010  176.3560  137.4590 C   0  0  0  0  0  0  0  0  0  0  0  0
  182.3250  176.7560  138.4260 C   0  0  0  0  0  0  0  0  0  0  0  0
  185.4540  176.7390  134.8440 O   0  0  0  0  0  1  0  0  0  0  0  0
  185.1130  176.8120  136.1980 C   0  0  2  0  0  3  0  0  0  0  0  0
  186.2900  176.3430  137.0510 C   0  0  0  0  0  2  0  0  0  0  0  0
  188.0700  174.7950  136.1860 C   0  0  0  0  0  1  0  0  0  0  0  0
  187.5930  176.2350  136.2570 C   0  0  2  0  0  3  0  0  0  0  0  0
  188.5920  177.0500  136.8040 O   0  0  0  0  0  0  0  0  0  0  0  0
  188.4570  176.9090  138.1880 C   0  0  0  0  0  2  0  0  0  0  0  0
  189.1320  177.8080  140.3910 C   0  0  0  0  0  1  0  0  0  0  0  0
  189.3230  177.9360  138.8950 C   0  0  2  0  0  3  0  0  0  0  0  0
  188.9550  179.2200  138.4900 O   0  0  0  0  0  1  0  0  0  0  0  0
  179.9810  179.1190  137.9820 C   0  0  0  0  0  0  0  0  0  0  0  0
  179.4560  178.6430  139.0240 O   0  0  0  0  0  1  0  0  0  0  0  0
  179.1730  179.4850  136.9110 O   0  0  0  0  0  0  0  0  0  0  0  0
  1  3  2  0  0  0  0
  2 38  1  1  0  0  0
  2  1  1  0  0  0  0
  2  4  1  0  0  0  0
  3  8  1  0  0  0  0
  4  3  1  0  0  0  0
  5 12  1  0  0  0  0
  6  5  1  0  0  0  0
  7 10  1  0  0  0  0
  8 10  2  0  0  0  0
  8 11  1  0  0  0  0
  9  5  2  0  0  0  0
 10  9  1  0  0  0  0
 11  6  2  0  0  0  0
 12 14  2  0  0  0  0
 13 15  1  6  0  0  0
 13 16  1  0  0  0  0
 14 20  1  0  0  0  0
 16 19  1  0  0  0  0
 17 19  1  0  0  0  0
 18 22  1  1  0  0  0
 18 20  1  0  0  0  0
 18 13  1  0  0  0  0
 20 17  2  0  0  0  0
 21 22  1  0  0  0  0
 24 25  1  0  0  0  0
 25 26  2  0  0  0  0
 26 27  2  0  0  0  0
 27  1  1  0  0  0  0
 27 23  1  0  0  0  0
 29 28  1  6  0  0  0
 29 25  1  0  0  0  0
 29 30  1  0  0  0  0
 32 31  1  1  0  0  0
 32 33  1  0  0  0  0
 32 30  1  0  0  0  0
 33 34  1  0  0  0  0
 34 36  1  0  0  0  0
 36 35  1  1  0  0  0
 37 36  1  0  0  0  0
 38 39  1  0  0  0  0
 40 38  2  0  0  0  0
M  END
>  <MODEL>
2

>  <REMARK>
 VINA RESULT:      -7.4      1.202      1.897
  Name = 
  12 active torsions:
  status: ('A' for Active; 'I' for Inactive)
    1  A    between atoms: C_2  and  C_29
    2  A    between atoms: C_5  and  N_22
    3  A    between atoms: N_8  and  N_22
    4  A    between atoms: C_9  and  C_34
    5  A    between atoms: C_9  and  C_35
    6  A    between atoms: C_15  and  C_30
    7  A    between atoms: C_16  and  C_32
    8  A    between atoms: O_18  and  C_34
    9  A    between atoms: O_18  and  C_37
   10  A    between atoms: C_21  and  C_37
   11  A    between atoms: C_23  and  N_39
   12  A    between atoms: C_24  and  C_35
                            x       y       z     vdW  Elec       q    Type
                         _______ _______ _______ _____ _____    ______ ____

>  <TORSDO>
F 12

$$$$
=
 OpenBabel11042411423D

 40 42  0  0  1  0  0  0  0  0999 V2000
  186.5820  176.5340  137.1980 C   0  0  0  0  0  0  0  0  0  0  0  0
  185.6410  175.3960  136.9890 C   0  0  2  0  0  3  0  0  0  0  0  0
  187.7140  175.7180  137.2100 C   0  0  0  0  0  0  0  0  0  0  0  0
  186.7950  174.1550  137.1220 S   0  0  0  0  0  0  0  0  0  0  0  0
  191.9000  176.4640  137.6410 C   0  0  0  0  0  0  0  0  0  0  0  0
  191.0400  176.5200  138.7440 C   0  0  0  0  0  3  0  0  0  0  0  0
  189.5370  175.4920  134.8560 C   0  0  0  0  0  1  0  0  0  0  0  0
  189.1540  175.9790  137.3190 C   0  0  0  0  0  0  0  0  0  0  0  0
  191.3880  176.1400  136.3820 C   0  0  0  0  0  3  0  0  0  0  0  0
  190.0210  175.8980  136.2090 C   0  0  0  0  0  0  0  0  0  0  0  0
  189.6770  176.2720  138.5830 C   0  0  0  0  0  3  0  0  0  0  0  0
  193.2960  176.7200  137.7860 N   0  0  0  0  0  2  0  0  0  0  0  0
  196.2660  173.0110  136.2050 C   0  0  1  0  0  3  0  0  0  0  0  0
  194.2270  176.2220  136.8630 N   0  0  0  0  0  2  0  0  0  0  0  0
  197.4240  172.6020  135.3140 C   0  0  0  0  0  1  0  0  0  0  0  0
  196.5870  172.7770  137.6700 C   0  0  0  0  0  2  0  0  0  0  0  0
  194.7200  174.3200  138.1770 N   0  0  0  0  0  0  0  0  0  0  0  0
  195.8050  174.4630  135.9730 C   0  0  1  0  0  3  0  0  0  0  0  0
  195.3060  173.0060  138.4650 C   0  0  0  0  0  2  0  0  0  0  0  0
  194.8710  174.9630  137.0530 C   0  0  0  0  0  0  0  0  0  0  0  0
  197.4660  175.7130  136.9630 O   0  0  0  0  0  1  0  0  0  0  0  0
  196.9210  175.3930  135.7600 N   0  0  0  0  0  2  0  0  0  0  0  0
  187.3850  179.1460  136.5320 Cl  0  0  0  0  0  0  0  0  0  0  0  0
  183.8000  179.9980  138.8590 C   0  0  0  0  0  1  0  0  0  0  0  0
  184.6520  178.8060  139.1350 C   0  0  0  0  0  0  0  0  0  0  0  0
  185.4980  178.4060  138.2270 C   0  0  0  0  0  0  0  0  0  0  0  0
  186.3530  177.9820  137.3420 C   0  0  0  0  0  0  0  0  0  0  0  0
  183.2690  177.3870  140.4780 O   0  0  0  0  0  1  0  0  0  0  0  0
  184.5170  178.0130  140.4020 C   0  0  2  0  0  3  0  0  0  0  0  0
  184.7100  178.9240  141.6110 C   0  0  0  0  0  2  0  0  0  0  0  0
  183.0830  178.9980  143.5250 C   0  0  0  0  0  1  0  0  0  0  0  0
  184.2720  178.2710  142.9240 C   0  0  2  0  0  3  0  0  0  0  0  0
  185.3260  178.2210  143.8450 O   0  0  0  0  0  0  0  0  0  0  0  0
  184.9700  179.1240  144.8510 C   0  0  0  0  0  2  0  0  0  0  0  0
  186.6640  177.6360  145.8680 C   0  0  0  0  0  1  0  0  0  0  0  0
  185.7950  178.8550  146.0960 C   0  0  2  0  0  3  0  0  0  0  0  0
  184.9490  178.6220  147.1810 O   0  0  0  0  0  1  0  0  0  0  0  0
  185.0450  175.4180  135.6110 C   0  0  0  0  0  0  0  0  0  0  0  0
  185.1980  174.4240  134.8530 O   0  0  0  0  0  0  0  0  0  0  0  0
  184.3360  176.5260  135.1590 O   0  0  0  0  0  1  0  0  0  0  0  0
  1  3  2  0  0  0  0
  1 27  1  0  0  0  0
  2 38  1  6  0  0  0
  2  4  1  0  0  0  0
  2  1  1  0  0  0  0
  3  8  1  0  0  0  0
  4  3  1  0  0  0  0
  5 12  1  0  0  0  0
  5  6  1  0  0  0  0
  7 10  1  0  0  0  0
  8 11  1  0  0  0  0
  9  5  2  0  0  0  0
 10  9  1  0  0  0  0
 10  8  2  0  0  0  0
 11  6  2  0  0  0  0
 13 15  1  6  0  0  0
 13 16  1  0  0  0  0
 14 20  1  0  0  0  0
 14 12  1  0  0  0  0
 16 19  1  0  0  0  0
 17 19  1  0  0  0  0
 18 22  1  1  0  0  0
 18 13  1  0  0  0  0
 18 20  1  0  0  0  0
 20 17  2  0  0  0  0
 22 21  1  0  0  0  0
 23 27  1  0  0  0  0
 24 25  1  0  0  0  0
 25 29  1  0  0  0  0
 26 25  2  0  0  0  0
 27 26  2  0  0  0  0
 29 28  1  1  0  0  0
 29 30  1  0  0  0  0
 30 32  1  0  0  0  0
 32 31  1  1  0  0  0
 32 33  1  0  0  0  0
 33 34  1  0  0  0  0
 34 36  1  0  0  0  0
 36 35  1  6  0  0  0
 36 37  1  0  0  0  0
 39 38  2  0  0  0  0
 40 38  1  0  0  0  0
M  END
>  <MODEL>
3

>  <REMARK>
 VINA RESULT:      -6.4      5.030      8.809
  Name = 
  12 active torsions:
  status: ('A' for Active; 'I' for Inactive)
    1  A    between atoms: C_2  and  C_29
    2  A    between atoms: C_5  and  N_22
    3  A    between atoms: N_8  and  N_22
    4  A    between atoms: C_9  and  C_34
    5  A    between atoms: C_9  and  C_35
    6  A    between atoms: C_15  and  C_30
    7  A    between atoms: C_16  and  C_32
    8  A    between atoms: O_18  and  C_34
    9  A    between atoms: O_18  and  C_37
   10  A    between atoms: C_21  and  C_37
   11  A    between atoms: C_23  and  N_39
   12  A    between atoms: C_24  and  C_35
                            x       y       z     vdW  Elec       q    Type
                         _______ _______ _______ _____ _____    ______ ____

>  <TORSDO>
F 12

$$$$
=
 OpenBabel11042411423D

 40 42  0  0  1  0  0  0  0  0999 V2000
  189.6670  177.6450  145.6330 C   0  0  0  0  0  0  0  0  0  0  0  0
  190.0400  176.8000  146.8050 C   0  0  2  0  0  3  0  0  0  0  0  0
  188.2960  177.4660  145.8230 C   0  0  0  0  0  0  0  0  0  0  0  0
  188.4680  176.2750  147.1820 S   0  0  0  0  0  0  0  0  0  0  0  0
  184.8330  178.9000  143.7690 C   0  0  0  0  0  0  0  0  0  0  0  0
  185.8000  178.1350  143.1060 C   0  0  0  0  0  3  0  0  0  0  0  0
  186.2020  179.0080  147.2900 C   0  0  0  0  0  1  0  0  0  0  0  0
  187.1010  177.9840  145.1470 C   0  0  0  0  0  0  0  0  0  0  0  0
  184.9900  179.1830  145.1280 C   0  0  0  0  0  3  0  0  0  0  0  0
  186.1160  178.7330  145.8250 C   0  0  0  0  0  0  0  0  0  0  0  0
  186.9230  177.6760  143.7940 C   0  0  0  0  0  3  0  0  0  0  0  0
  183.6810  179.3830  143.0800 N   0  0  0  0  0  2  0  0  0  0  0  0
  182.6290  177.2180  138.6880 C   0  0  1  0  0  3  0  0  0  0  0  0
  182.8800  178.5250  142.3120 N   0  0  0  0  0  2  0  0  0  0  0  0
  181.6110  176.4600  137.8570 C   0  0  0  0  0  1  0  0  0  0  0  0
  182.9670  178.5580  138.0600 C   0  0  0  0  0  2  0  0  0  0  0  0
  183.8620  179.2080  140.2730 N   0  0  0  0  0  0  0  0  0  0  0  0
  182.1980  177.3990  140.1570 C   0  0  1  0  0  3  0  0  0  0  0  0
  184.1410  179.1470  138.8330 C   0  0  0  0  0  2  0  0  0  0  0  0
  183.0530  178.4020  140.9010 C   0  0  0  0  0  0  0  0  0  0  0  0
  180.1640  176.6730  140.9540 O   0  0  0  0  0  1  0  0  0  0  0  0
  180.7700  177.7020  140.3050 N   0  0  0  0  0  2  0  0  0  0  0  0
  191.1080  179.9780  145.0110 Cl  0  0  0  0  0  0  0  0  0  0  0  0
  191.9410  177.5750  141.4710 C   0  0  0  0  0  1  0  0  0  0  0  0
  190.6610  177.4470  142.2260 C   0  0  0  0  0  0  0  0  0  0  0  0
  190.5900  177.9180  143.4390 C   0  0  0  0  0  0  0  0  0  0  0  0
  190.4860  178.3770  144.6530 C   0  0  0  0  0  0  0  0  0  0  0  0
  189.2690  175.5010  142.2810 O   0  0  0  0  0  1  0  0  0  0  0  0
  189.4720  176.7330  141.6520 C   0  0  2  0  0  3  0  0  0  0  0  0
  189.6640  176.5210  140.1530 C   0  0  0  0  0  2  0  0  0  0  0  0
  187.8580  178.2660  140.0580 C   0  0  0  0  0  1  0  0  0  0  0  0
  189.0090  177.6170  139.3090 C   0  0  2  0  0  3  0  0  0  0  0  0
  188.5650  177.1170  138.0790 O   0  0  0  0  0  0  0  0  0  0  0  0
  187.2520  177.5790  137.9520 C   0  0  0  0  0  2  0  0  0  0  0  0
  187.8470  177.5870  135.5520 C   0  0  0  0  0  1  0  0  0  0  0  0
  187.0960  178.3260  136.6400 C   0  0  2  0  0  3  0  0  0  0  0  0
  187.6170  179.6140  136.7660 O   0  0  0  0  0  1  0  0  0  0  0  0
  190.6050  177.6270  147.9240 C   0  0  0  0  0  0  0  0  0  0  0  0
  191.8250  177.5200  148.2200 O   0  0  0  0  0  0  0  0  0  0  0  0
  189.7970  178.4990  148.6450 O   0  0  0  0  0  1  0  0  0  0  0  0
  1  3  2  0  0  0  0
  1  2  1  0  0  0  0
  2  4  1  0  0  0  0
  2 38  1  1  0  0  0
  3  4  1  0  0  0  0
  5  9  1  0  0  0  0
  6  5  2  0  0  0  0
  6 11  1  0  0  0  0
  8  3  1  0  0  0  0
  8 10  1  0  0  0  0
  9 10  2  0  0  0  0
 10  7  1  0  0  0  0
 11  8  2  0  0  0  0
 12  5  1  0  0  0  0
 13 15  1  6  0  0  0
 13 18  1  0  0  0  0
 14 12  1  0  0  0  0
 16 13  1  0  0  0  0
 16 19  1  0  0  0  0
 17 20  2  0  0  0  0
 18 22  1  6  0  0  0
 18 20  1  0  0  0  0
 19 17  1  0  0  0  0
 20 14  1  0  0  0  0
 22 21  1  0  0  0  0
 24 25  1  0  0  0  0
 25 26  2  0  0  0  0
 26 27  2  0  0  0  0
 27 23  1  0  0  0  0
 27  1  1  0  0  0  0
 29 25  1  0  0  0  0
 29 28  1  1  0  0  0
 30 29  1  0  0  0  0
 32 31  1  1  0  0  0
 32 30  1  0  0  0  0
 33 32  1  0  0  0  0
 34 33  1  0  0  0  0
 36 35  1  6  0  0  0
 36 37  1  0  0  0  0
 36 34  1  0  0  0  0
 38 39  2  0  0  0  0
 38 40  1  0  0  0  0
M  END
>  <MODEL>
4

>  <REMARK>
 VINA RESULT:      -6.4      3.455      8.461
  Name = 
  12 active torsions:
  status: ('A' for Active; 'I' for Inactive)
    1  A    between atoms: C_2  and  C_29
    2  A    between atoms: C_5  and  N_22
    3  A    between atoms: N_8  and  N_22
    4  A    between atoms: C_9  and  C_34
    5  A    between atoms: C_9  and  C_35
    6  A    between atoms: C_15  and  C_30
    7  A    between atoms: C_16  and  C_32
    8  A    between atoms: O_18  and  C_34
    9  A    between atoms: O_18  and  C_37
   10  A    between atoms: C_21  and  C_37
   11  A    between atoms: C_23  and  N_39
   12  A    between atoms: C_24  and  C_35
                            x       y       z     vdW  Elec       q    Type
                         _______ _______ _______ _____ _____    ______ ____

>  <TORSDO>
F 12

$$$$
=
 OpenBabel11042411423D

 40 42  0  0  1  0  0  0  0  0999 V2000
  181.3870  178.5130  139.3050 C   0  0  0  0  0  0  0  0  0  0  0  0
  181.1670  179.5780  138.2850 C   0  0  2  0  0  3  0  0  0  0  0  0
  182.3890  179.2240  139.9660 C   0  0  0  0  0  0  0  0  0  0  0  0
  182.4430  180.5900  138.7730 S   0  0  0  0  0  0  0  0  0  0  0  0
  184.6310  178.4620  143.5240 C   0  0  0  0  0  0  0  0  0  0  0  0
  183.2580  178.7270  143.5810 C   0  0  0  0  0  3  0  0  0  0  0  0
  185.2970  178.5640  139.8060 C   0  0  0  0  0  1  0  0  0  0  0  0
  183.1920  178.9690  141.1690 C   0  0  0  0  0  0  0  0  0  0  0  0
  185.2780  178.4270  142.2870 C   0  0  0  0  0  3  0  0  0  0  0  0
  184.5720  178.6790  141.1060 C   0  0  0  0  0  0  0  0  0  0  0  0
  182.5430  178.9720  142.4070 C   0  0  0  0  0  3  0  0  0  0  0  0
  185.3790  178.2150  144.7140 N   0  0  0  0  0  0  0  0  0  0  0  0
  189.6010  176.8830  147.0560 C   0  0  1  0  0  3  0  0  0  0  0  0
  186.7320  177.8500  144.6600 N   0  0  0  0  0  0  0  0  0  0  0  0
  191.1050  176.7090  146.9630 C   0  0  0  0  0  1  0  0  0  0  0  0
  189.2280  177.9170  148.1040 C   0  0  0  0  0  2  0  0  0  0  0  0
  187.0160  178.0270  147.0010 N   0  0  0  0  0  0  0  0  0  0  0  0
  188.9440  177.2180  145.7030 C   0  0  1  0  0  3  0  0  0  0  0  0
  187.7150  177.8690  148.2810 C   0  0  0  0  0  2  0  0  0  0  0  0
  187.5120  177.6860  145.8440 C   0  0  0  0  0  0  0  0  0  0  0  0
  189.9690  177.6020  143.6770 O   0  0  0  0  0  1  0  0  0  0  0  0
  189.7340  178.1550  144.8960 N   0  0  0  0  0  2  0  0  0  0  0  0
  179.9600  176.7910  141.0090 Cl  0  0  0  0  0  0  0  0  0  0  0  0
  180.0990  174.3700  137.3880 C   0  0  0  0  0  1  0  0  0  0  0  0
  181.1870  175.3290  137.7350 C   0  0  0  0  0  0  0  0  0  0  0  0
  180.9550  176.2580  138.6200 C   0  0  0  0  0  0  0  0  0  0  0  0
  180.7560  177.1970  139.5000 C   0  0  0  0  0  0  0  0  0  0  0  0
  182.3720  175.1820  135.6610 O   0  0  0  0  0  1  0  0  0  0  0  0
  182.5200  175.2980  137.0460 C   0  0  2  0  0  3  0  0  0  0  0  0
  183.3530  174.1340  137.5750 C   0  0  0  0  0  2  0  0  0  0  0  0
  182.6380  171.8130  136.9250 C   0  0  0  0  0  1  0  0  0  0  0  0
  183.5070  173.0030  136.5550 C   0  0  2  0  0  3  0  0  0  0  0  0
  184.8440  172.6060  136.4320 O   0  0  0  0  0  0  0  0  0  0  0  0
  185.5430  173.3980  137.3470 C   0  0  0  0  0  2  0  0  0  0  0  0
  187.8740  172.6160  137.0770 C   0  0  0  0  0  1  0  0  0  0  0  0
  186.9090  173.7460  136.7860 C   0  0  2  0  0  3  0  0  0  0  0  0
  187.3780  174.9180  137.3800 O   0  0  0  0  0  1  0  0  0  0  0  0
  179.8440  180.2630  138.4780 C   0  0  0  0  0  0  0  0  0  0  0  0
  179.5650  181.2790  137.7870 O   0  0  0  0  0  0  0  0  0  0  0  0
  178.9310  179.7970  139.4170 O   0  0  0  0  0  1  0  0  0  0  0  0
  1 27  1  0  0  0  0
  1  3  2  0  0  0  0
  2 38  1  1  0  0  0
  2  4  1  0  0  0  0
  2  1  1  0  0  0  0
  3  8  1  0  0  0  0
  4  3  1  0  0  0  0
  5  6  1  0  0  0  0
  5 12  1  0  0  0  0
  7 10  1  0  0  0  0
  8 11  1  0  0  0  0
  9  5  2  0  0  0  0
 10  8  2  0  0  0  0
 10  9  1  0  0  0  0
 11  6  2  0  0  0  0
 13 15  1  6  0  0  0
 13 16  1  0  0  0  0
 14 12  2  0  0  0  0
 14 20  1  0  0  0  0
 16 19  1  0  0  0  0
 17 19  1  0  0  0  0
 18 22  1  1  0  0  0
 18 20  1  0  0  0  0
 18 13  1  0  0  0  0
 20 17  2  0  0  0  0
 21 22  1  0  0  0  0
 24 25  1  0  0  0  0
 25 26  2  0  0  0  0
 26 27  2  0  0  0  0
 27 23  1  0  0  0  0
 29 28  1  6  0  0  0
 29 30  1  0  0  0  0
 29 25  1  0  0  0  0
 32 31  1  1  0  0  0
 32 30  1  0  0  0  0
 33 32  1  0  0  0  0
 33 34  1  0  0  0  0
 36 35  1  1  0  0  0
 36 34  1  0  0  0  0
 36 37  1  0  0  0  0
 38 40  1  0  0  0  0
 39 38  2  0  0  0  0
M  END
>  <MODEL>
5

>  <REMARK>
 VINA RESULT:      -6.4      2.488      3.894
  Name = 
  12 active torsions:
  status: ('A' for Active; 'I' for Inactive)
    1  A    between atoms: C_2  and  C_29
    2  A    between atoms: C_5  and  N_22
    3  A    between atoms: N_8  and  N_22
    4  A    between atoms: C_9  and  C_34
    5  A    between atoms: C_9  and  C_35
    6  A    between atoms: C_15  and  C_30
    7  A    between atoms: C_16  and  C_32
    8  A    between atoms: O_18  and  C_34
    9  A    between atoms: O_18  and  C_37
   10  A    between atoms: C_21  and  C_37
   11  A    between atoms: C_23  and  N_39
   12  A    between atoms: C_24  and  C_35
                            x       y       z     vdW  Elec       q    Type
                         _______ _______ _______ _____ _____    ______ ____

>  <TORSDO>
F 12

$$$$
=
 OpenBabel11042411423D

 40 42  0  0  1  0  0  0  0  0999 V2000
  181.5920  178.2570  141.0660 C   0  0  0  0  0  0  0  0  0  0  0  0
  180.4050  178.8930  141.7080 C   0  0  2  0  0  3  0  0  0  0  0  0
  182.4890  178.7670  142.0050 C   0  0  0  0  0  0  0  0  0  0  0  0
  181.2610  179.7750  142.8820 S   0  0  0  0  0  0  0  0  0  0  0  0
  186.6780  178.2770  142.6970 C   0  0  0  0  0  0  0  0  0  0  0  0
  185.7410  177.9460  143.6830 C   0  0  0  0  0  3  0  0  0  0  0  0
  184.4580  179.3870  139.8470 C   0  0  0  0  0  1  0  0  0  0  0  0
  183.9350  178.6220  142.2120 C   0  0  0  0  0  0  0  0  0  0  0  0
  186.2390  178.7560  141.4600 C   0  0  0  0  0  3  0  0  0  0  0  0
  184.8760  178.9340  141.2070 C   0  0  0  0  0  0  0  0  0  0  0  0
  184.3780  178.1130  143.4370 C   0  0  0  0  0  3  0  0  0  0  0  0
  188.0760  178.1190  142.9320 N   0  0  0  0  0  2  0  0  0  0  0  0
  191.6860  176.5530  146.0310 C   0  0  1  0  0  3  0  0  0  0  0  0
  188.5840  177.9850  144.2330 N   0  0  0  0  0  2  0  0  0  0  0  0
  192.0870  176.2390  147.4600 C   0  0  0  0  0  1  0  0  0  0  0  0
  191.7700  175.3200  145.1500 C   0  0  0  0  0  2  0  0  0  0  0  0
  190.3260  176.5390  143.5520 N   0  0  0  0  0  0  0  0  0  0  0  0
  190.2960  177.2090  145.9200 C   0  0  1  0  0  3  0  0  0  0  0  0
  191.5650  175.7680  143.7070 C   0  0  0  0  0  2  0  0  0  0  0  0
  189.7730  177.2420  144.5010 C   0  0  0  0  0  0  0  0  0  0  0  0
  188.7930  177.6110  147.6170 O   0  0  0  0  0  1  0  0  0  0  0  0
  189.3100  176.6260  146.8380 N   0  0  0  0  0  2  0  0  0  0  0  0
  183.0230  176.2430  139.7240 Cl  0  0  0  0  0  0  0  0  0  0  0  0
  179.7150  176.8330  136.9500 C   0  0  0  0  0  1  0  0  0  0  0  0
  180.2430  177.9450  137.7920 C   0  0  0  0  0  0  0  0  0  0  0  0
  180.9810  177.6600  138.8280 C   0  0  0  0  0  0  0  0  0  0  0  0
  181.7220  177.4100  139.8690 C   0  0  0  0  0  0  0  0  0  0  0  0
  179.4960  179.5610  136.1920 O   0  0  0  0  0  1  0  0  0  0  0  0
  179.8940  179.3790  137.5200 C   0  0  2  0  0  3  0  0  0  0  0  0
  181.0920  180.2740  137.8260 C   0  0  0  0  0  2  0  0  0  0  0  0
  179.7270  181.5940  139.4720 C   0  0  0  0  0  1  0  0  0  0  0  0
  180.6840  181.6720  138.2950 C   0  0  2  0  0  3  0  0  0  0  0  0
  180.1110  182.4130  137.2530 O   0  0  0  0  0  0  0  0  0  0  0  0
  181.1930  182.8570  136.4880 C   0  0  0  0  0  2  0  0  0  0  0  0
  180.7480  185.2820  136.6770 C   0  0  0  0  0  1  0  0  0  0  0  0
  180.8010  184.1070  135.7230 C   0  0  2  0  0  3  0  0  0  0  0  0
  179.5460  183.9290  135.1410 O   0  0  0  0  0  1  0  0  0  0  0  0
  179.5150  177.8720  142.3570 C   0  0  0  0  0  0  0  0  0  0  0  0
  179.3040  177.9330  143.5980 O   0  0  0  0  0  1  0  0  0  0  0  0
  178.9310  176.8560  141.6090 O   0  0  0  0  0  0  0  0  0  0  0  0
  1  2  1  0  0  0  0
  1  3  2  0  0  0  0
  2 38  1  1  0  0  0
  2  4  1  0  0  0  0
  3  8  1  0  0  0  0
  3  4  1  0  0  0  0
  5 12  1  0  0  0  0
  5  6  1  0  0  0  0
  7 10  1  0  0  0  0
  8 11  1  0  0  0  0
  9  5  2  0  0  0  0
 10  9  1  0  0  0  0
 10  8  2  0  0  0  0
 11  6  2  0  0  0  0
 12 14  1  0  0  0  0
 13 15  1  1  0  0  0
 14 20  1  0  0  0  0
 16 13  1  0  0  0  0
 17 19  1  0  0  0  0
 17 20  2  0  0  0  0
 18 13  1  0  0  0  0
 18 22  1  1  0  0  0
 19 16  1  0  0  0  0
 20 18  1  0  0  0  0
 22 21  1  0  0  0  0
 23 27  1  0  0  0  0
 24 25  1  0  0  0  0
 25 26  2  0  0  0  0
 26 27  2  0  0  0  0
 27  1  1  0  0  0  0
 29 28  1  6  0  0  0
 29 25  1  0  0  0  0
 29 30  1  0  0  0  0
 30 32  1  0  0  0  0
 32 31  1  1  0  0  0
 33 32  1  0  0  0  0
 34 33  1  0  0  0  0
 36 34  1  0  0  0  0
 36 35  1  1  0  0  0
 37 36  1  0  0  0  0
 38 39  1  0  0  0  0
 40 38  2  0  0  0  0
M  END
>  <MODEL>
6

>  <REMARK>
 VINA RESULT:      -6.3      3.631      6.239
  Name = 
  12 active torsions:
  status: ('A' for Active; 'I' for Inactive)
    1  A    between atoms: C_2  and  C_29
    2  A    between atoms: C_5  and  N_22
    3  A    between atoms: N_8  and  N_22
    4  A    between atoms: C_9  and  C_34
    5  A    between atoms: C_9  and  C_35
    6  A    between atoms: C_15  and  C_30
    7  A    between atoms: C_16  and  C_32
    8  A    between atoms: O_18  and  C_34
    9  A    between atoms: O_18  and  C_37
   10  A    between atoms: C_21  and  C_37
   11  A    between atoms: C_23  and  N_39
   12  A    between atoms: C_24  and  C_35
                            x       y       z     vdW  Elec       q    Type
                         _______ _______ _______ _____ _____    ______ ____

>  <TORSDO>
F 12

$$$$
=
 OpenBabel11042411423D

 40 42  0  0  1  0  0  0  0  0999 V2000
  188.2790  177.9610  139.4820 C   0  0  0  0  0  0  0  0  0  0  0  0
  189.6710  178.2600  139.0390 C   0  0  2  0  0  3  0  0  0  0  0  0
  187.8600  177.5680  138.2100 C   0  0  0  0  0  0  0  0  0  0  0  0
  189.4130  178.0020  137.3790 S   0  0  0  0  0  0  0  0  0  0  0  0
  184.1470  176.1460  136.6420 C   0  0  0  0  0  0  0  0  0  0  0  0
  184.2550  177.4320  137.1870 C   0  0  0  0  0  3  0  0  0  0  0  0
  187.6850  174.8600  136.9640 C   0  0  0  0  0  1  0  0  0  0  0  0
  186.5980  177.0430  137.6730 C   0  0  0  0  0  0  0  0  0  0  0  0
  185.2720  175.3210  136.5910 C   0  0  0  0  0  3  0  0  0  0  0  0
  186.4990  175.7560  137.1020 C   0  0  0  0  0  0  0  0  0  0  0  0
  185.4760  177.8770  137.6920 C   0  0  0  0  0  3  0  0  0  0  0  0
  182.9040  175.6720  136.1250 N   0  0  0  0  0  2  0  0  0  0  0  0
  180.3150  171.3940  135.8490 C   0  0  1  0  0  3  0  0  0  0  0  0
  182.7720  174.3640  135.6360 N   0  0  0  0  0  2  0  0  0  0  0  0
  180.3270  169.9230  135.4750 C   0  0  0  0  0  1  0  0  0  0  0  0
  180.0320  171.5860  137.3280 C   0  0  0  0  0  2  0  0  0  0  0  0
  180.9530  173.8670  137.0610 N   0  0  0  0  0  0  0  0  0  0  0  0
  181.6050  172.1330  135.4410 C   0  0  1  0  0  3  0  0  0  0  0  0
  179.8250  173.0770  137.5680 C   0  0  0  0  0  2  0  0  0  0  0  0
  181.7220  173.5020  136.0740 C   0  0  0  0  0  0  0  0  0  0  0  0
  183.1700  171.4200  136.9710 O   0  0  0  0  0  1  0  0  0  0  0  0
  182.8190  171.3380  135.6610 N   0  0  0  0  0  2  0  0  0  0  0  0
  186.4140  179.2970  141.1090 Cl  0  0  0  0  0  0  0  0  0  0  0  0
  187.6460  176.0930  143.7950 C   0  0  0  0  0  1  0  0  0  0  0  0
  188.5740  176.6690  142.7810 C   0  0  0  0  0  0  0  0  0  0  0  0
  188.0830  177.3660  141.7940 C   0  0  0  0  0  0  0  0  0  0  0  0
  187.6250  178.0660  140.7970 C   0  0  0  0  0  0  0  0  0  0  0  0
  190.3340  175.0480  142.7480 O   0  0  0  0  0  1  0  0  0  0  0  0
  190.0530  176.4150  142.8250 C   0  0  2  0  0  3  0  0  0  0  0  0
  190.6430  176.9900  144.1100 C   0  0  0  0  0  2  0  0  0  0  0  0
  191.4280  179.3780  144.1130 C   0  0  0  0  0  1  0  0  0  0  0  0
  190.2480  178.4500  144.3430 C   0  0  2  0  0  3  0  0  0  0  0  0
  189.7280  178.6380  145.6300 O   0  0  0  0  0  0  0  0  0  0  0  0
  189.9220  177.4170  146.2810 C   0  0  0  0  0  2  0  0  0  0  0  0
  187.5850  177.7310  147.0290 C   0  0  0  0  0  1  0  0  0  0  0  0
  188.9740  177.3100  147.4620 C   0  0  2  0  0  3  0  0  0  0  0  0
  189.4090  178.1440  148.4920 O   0  0  0  0  0  1  0  0  0  0  0  0
  190.6500  177.2610  139.5840 C   0  0  0  0  0  0  0  0  0  0  0  0
  191.6280  177.6610  140.2710 O   0  0  0  0  0  1  0  0  0  0  0  0
  190.4990  175.9020  139.3300 O   0  0  0  0  0  0  0  0  0  0  0  0
  1 27  1  0  0  0  0
  2  1  1  0  0  0  0
  2 38  1  1  0  0  0
  3  1  2  0  0  0  0
  4  3  1  0  0  0  0
  4  2  1  0  0  0  0
  5  6  1  0  0  0  0
  6 11  2  0  0  0  0
  7 10  1  0  0  0  0
  8 11  1  0  0  0  0
  8  3  1  0  0  0  0
  9  5  2  0  0  0  0
  9 10  1  0  0  0  0
 10  8  2  0  0  0  0
 12  5  1  0  0  0  0
 13 15  1  1  0  0  0
 13 16  1  0  0  0  0
 14 20  1  0  0  0  0
 14 12  1  0  0  0  0
 16 19  1  0  0  0  0
 17 19  1  0  0  0  0
 18 22  1  1  0  0  0
 18 13  1  0  0  0  0
 18 20  1  0  0  0  0
 20 17  2  0  0  0  0
 22 21  1  0  0  0  0
 25 29  1  0  0  0  0
 25 24  1  0  0  0  0
 26 25  2  0  0  0  0
 27 23  1  0  0  0  0
 27 26  2  0  0  0  0
 29 28  1  1  0  0  0
 29 30  1  0  0  0  0
 30 32  1  0  0  0  0
 32 31  1  1  0  0  0
 32 33  1  0  0  0  0
 33 34  1  0  0  0  0
 34 36  1  0  0  0  0
 36 35  1  6  0  0  0
 36 37  1  0  0  0  0
 38 39  1  0  0  0  0
 40 38  2  0  0  0  0
M  END
>  <MODEL>
7

>  <REMARK>
 VINA RESULT:      -6.2      4.797      9.552
  Name = 
  12 active torsions:
  status: ('A' for Active; 'I' for Inactive)
    1  A    between atoms: C_2  and  C_29
    2  A    between atoms: C_5  and  N_22
    3  A    between atoms: N_8  and  N_22
    4  A    between atoms: C_9  and  C_34
    5  A    between atoms: C_9  and  C_35
    6  A    between atoms: C_15  and  C_30
    7  A    between atoms: C_16  and  C_32
    8  A    between atoms: O_18  and  C_34
    9  A    between atoms: O_18  and  C_37
   10  A    between atoms: C_21  and  C_37
   11  A    between atoms: C_23  and  N_39
   12  A    between atoms: C_24  and  C_35
                            x       y       z     vdW  Elec       q    Type
                         _______ _______ _______ _____ _____    ______ ____

>  <TORSDO>
F 12

$$$$
=
 OpenBabel11042411423D

 40 42  0  0  1  0  0  0  0  0999 V2000
  189.8320  177.5980  145.7690 C   0  0  0  0  0  0  0  0  0  0  0  0
  190.2280  176.7950  146.9610 C   0  0  2  0  0  3  0  0  0  0  0  0
  188.4670  177.3790  145.9580 C   0  0  0  0  0  0  0  0  0  0  0  0
  188.6720  176.2270  147.3450 S   0  0  0  0  0  0  0  0  0  0  0  0
  184.9650  178.6460  143.8620 C   0  0  0  0  0  0  0  0  0  0  0  0
  185.9400  177.8650  143.2310 C   0  0  0  0  0  3  0  0  0  0  0  0
  186.3570  178.9580  147.3620 C   0  0  0  0  0  1  0  0  0  0  0  0
  187.2570  177.8410  145.2660 C   0  0  0  0  0  0  0  0  0  0  0  0
  185.1260  179.0010  145.2040 C   0  0  0  0  0  3  0  0  0  0  0  0
  186.2650  178.6070  145.9130 C   0  0  0  0  0  0  0  0  0  0  0  0
  187.0760  177.4610  143.9330 C   0  0  0  0  0  3  0  0  0  0  0  0
  183.7990  179.0740  143.1590 N   0  0  0  0  0  2  0  0  0  0  0  0
  181.4280  178.9900  138.7480 C   0  0  1  0  0  3  0  0  0  0  0  0
  183.8170  179.2610  141.7690 N   0  0  0  0  0  2  0  0  0  0  0  0
  181.5560  178.9940  137.2360 C   0  0  0  0  0  1  0  0  0  0  0  0
  180.7620  177.7190  139.2430 C   0  0  0  0  0  2  0  0  0  0  0  0
  181.6920  178.2680  141.4690 N   0  0  0  0  0  0  0  0  0  0  0  0
  182.7700  179.2190  139.4710 C   0  0  1  0  0  3  0  0  0  0  0  0
  180.4810  177.8940  140.7310 C   0  0  0  0  0  2  0  0  0  0  0  0
  182.6990  178.9150  140.9510 C   0  0  0  0  0  0  0  0  0  0  0  0
  184.9380  179.3780  138.7120 O   0  0  0  0  0  1  0  0  0  0  0  0
  183.8920  178.5190  138.8350 N   0  0  0  0  0  2  0  0  0  0  0  0
  191.1900  179.9660  145.0940 Cl  0  0  0  0  0  0  0  0  0  0  0  0
  192.1360  177.5040  141.6240 C   0  0  0  0  0  1  0  0  0  0  0  0
  190.8560  177.3480  142.3740 C   0  0  0  0  0  0  0  0  0  0  0  0
  190.7590  177.8480  143.5740 C   0  0  0  0  0  0  0  0  0  0  0  0
  190.6300  178.3350  144.7750 C   0  0  0  0  0  0  0  0  0  0  0  0
  189.6760  175.2670  142.3040 O   0  0  0  0  0  1  0  0  0  0  0  0
  189.6980  176.5760  141.8120 C   0  0  2  0  0  3  0  0  0  0  0  0
  189.7770  176.5510  140.2880 C   0  0  0  0  0  2  0  0  0  0  0  0
  187.9340  178.2590  140.2290 C   0  0  0  0  0  1  0  0  0  0  0  0
  189.2750  177.8460  139.6470 C   0  0  2  0  0  3  0  0  0  0  0  0
  189.1810  177.7230  138.2550 O   0  0  0  0  0  0  0  0  0  0  0  0
  188.2300  176.7200  138.0440 C   0  0  0  0  0  2  0  0  0  0  0  0
  187.5480  178.4810  136.4480 C   0  0  0  0  0  1  0  0  0  0  0  0
  187.4600  177.0040  136.7670 C   0  0  2  0  0  3  0  0  0  0  0  0
  186.1220  176.6470  136.9350 O   0  0  0  0  0  1  0  0  0  0  0  0
  190.7600  177.6650  148.0620 C   0  0  0  0  0  0  0  0  0  0  0  0
  191.9520  177.5210  148.4460 O   0  0  0  0  0  0  0  0  0  0  0  0
  189.9530  178.6200  148.6710 O   0  0  0  0  0  1  0  0  0  0  0  0
  1  3  2  0  0  0  0
  1  2  1  0  0  0  0
  2  4  1  0  0  0  0
  2 38  1  1  0  0  0
  3  4  1  0  0  0  0
  5  9  1  0  0  0  0
  6  5  2  0  0  0  0
  6 11  1  0  0  0  0
  8 10  1  0  0  0  0
  8  3  1  0  0  0  0
  9 10  2  0  0  0  0
 10  7  1  0  0  0  0
 11  8  2  0  0  0  0
 12  5  1  0  0  0  0
 13 15  1  6  0  0  0
 13 16  1  0  0  0  0
 13 18  1  0  0  0  0
 14 12  1  0  0  0  0
 16 19  1  0  0  0  0
 18 22  1  6  0  0  0
 18 20  1  0  0  0  0
 19 17  1  0  0  0  0
 20 17  2  0  0  0  0
 20 14  1  0  0  0  0
 21 22  1  0  0  0  0
 24 25  1  0  0  0  0
 25 26  2  0  0  0  0
 26 27  2  0  0  0  0
 27 23  1  0  0  0  0
 27  1  1  0  0  0  0
 29 28  1  1  0  0  0
 29 25  1  0  0  0  0
 30 29  1  0  0  0  0
 32 31  1  1  0  0  0
 32 30  1  0  0  0  0
 33 32  1  0  0  0  0
 34 33  1  0  0  0  0
 36 35  1  1  0  0  0
 36 37  1  0  0  0  0
 36 34  1  0  0  0  0
 38 39  2  0  0  0  0
 38 40  1  0  0  0  0
M  END
>  <MODEL>
8

>  <REMARK>
 VINA RESULT:      -6.2      3.538      8.524
  Name = 
  12 active torsions:
  status: ('A' for Active; 'I' for Inactive)
    1  A    between atoms: C_2  and  C_29
    2  A    between atoms: C_5  and  N_22
    3  A    between atoms: N_8  and  N_22
    4  A    between atoms: C_9  and  C_34
    5  A    between atoms: C_9  and  C_35
    6  A    between atoms: C_15  and  C_30
    7  A    between atoms: C_16  and  C_32
    8  A    between atoms: O_18  and  C_34
    9  A    between atoms: O_18  and  C_37
   10  A    between atoms: C_21  and  C_37
   11  A    between atoms: C_23  and  N_39
   12  A    between atoms: C_24  and  C_35
                            x       y       z     vdW  Elec       q    Type
                         _______ _______ _______ _____ _____    ______ ____

>  <TORSDO>
F 12

$$$$
=
 OpenBabel11042411423D

 40 42  0  0  1  0  0  0  0  0999 V2000
  189.4730  176.9830  137.2120 C   0  0  0  0  0  0  0  0  0  0  0  0
  190.8070  176.4290  136.8390 C   0  0  2  0  0  3  0  0  0  0  0  0
  188.7670  176.0090  136.5050 C   0  0  0  0  0  0  0  0  0  0  0  0
  190.2360  175.2330  135.7740 S   0  0  0  0  0  0  0  0  0  0  0  0
  184.6120  175.0960  136.0940 C   0  0  0  0  0  0  0  0  0  0  0  0
  185.4200  174.3900  136.9930 C   0  0  0  0  0  3  0  0  0  0  0  0
  187.0490  177.5990  134.6520 C   0  0  0  0  0  1  0  0  0  0  0  0
  187.3400  175.7150  136.3300 C   0  0  0  0  0  0  0  0  0  0  0  0
  185.1660  176.1290  135.3320 C   0  0  0  0  0  3  0  0  0  0  0  0
  186.5230  176.4450  135.4400 C   0  0  0  0  0  0  0  0  0  0  0  0
  186.7740  174.7050  137.1140 C   0  0  0  0  0  3  0  0  0  0  0  0
  183.2270  174.7850  135.9540 N   0  0  0  0  0  2  0  0  0  0  0  0
  179.8820  177.3380  138.6700 C   0  0  1  0  0  3  0  0  0  0  0  0
  182.3520  174.8540  137.0470 N   0  0  0  0  0  2  0  0  0  0  0  0
  179.1220  177.4430  139.9790 C   0  0  0  0  0  1  0  0  0  0  0  0
  180.7760  178.5460  138.4530 C   0  0  0  0  0  2  0  0  0  0  0  0
  181.9820  177.1740  136.7840 N   0  0  0  0  0  0  0  0  0  0  0  0
  180.6900  176.0320  138.5400 C   0  0  1  0  0  3  0  0  0  0  0  0
  181.3280  178.4630  137.0340 C   0  0  0  0  0  2  0  0  0  0  0  0
  181.6750  176.0620  137.3920 C   0  0  0  0  0  0  0  0  0  0  0  0
  182.5680  176.2170  139.8600 O   0  0  0  0  0  1  0  0  0  0  0  0
  181.3430  175.6330  139.7930 N   0  0  0  0  0  2  0  0  0  0  0  0
  189.0860  179.7650  137.3530 Cl  0  0  0  0  0  0  0  0  0  0  0  0
  187.7510  178.5860  141.3310 C   0  0  0  0  0  1  0  0  0  0  0  0
  188.8100  177.8310  140.6000 C   0  0  0  0  0  0  0  0  0  0  0  0
  188.9360  178.0000  139.3140 C   0  0  0  0  0  0  0  0  0  0  0  0
  189.0900  178.1460  138.0290 C   0  0  0  0  0  0  0  0  0  0  0  0
  188.9880  176.1350  142.2800 O   0  0  0  0  0  1  0  0  0  0  0  0
  189.6910  176.8320  141.2920 C   0  0  2  0  0  3  0  0  0  0  0  0
  190.8910  177.5390  141.9170 C   0  0  0  0  0  2  0  0  0  0  0  0
  190.9240  179.1980  143.8040 C   0  0  0  0  0  1  0  0  0  0  0  0
  190.7430  177.7380  143.4270 C   0  0  2  0  0  3  0  0  0  0  0  0
  191.6480  176.9390  144.1370 O   0  0  0  0  0  0  0  0  0  0  0  0
  191.6640  177.4710  145.4300 C   0  0  0  0  0  2  0  0  0  0  0  0
  190.1420  176.8150  147.2650 C   0  0  0  0  0  1  0  0  0  0  0  0
  191.3330  176.3840  146.4360 C   0  0  2  0  0  3  0  0  0  0  0  0
  192.4270  176.1710  147.2750 O   0  0  0  0  0  1  0  0  0  0  0  0
  191.4950  175.8030  138.0180 C   0  0  0  0  0  0  0  0  0  0  0  0
  191.3350  174.5750  138.2490 O   0  0  0  0  0  0  0  0  0  0  0  0
  192.2940  176.5640  138.8640 O   0  0  0  0  0  1  0  0  0  0  0  0
  1 27  1  0  0  0  0
  2  1  1  0  0  0  0
  2 38  1  1  0  0  0
  3  1  2  0  0  0  0
  4  3  1  0  0  0  0
  4  2  1  0  0  0  0
  5  6  1  0  0  0  0
  6 11  2  0  0  0  0
  7 10  1  0  0  0  0
  8  3  1  0  0  0  0
  8 11  1  0  0  0  0
  9 10  1  0  0  0  0
  9  5  2  0  0  0  0
 10  8  2  0  0  0  0
 12  5  1  0  0  0  0
 12 14  1  0  0  0  0
 13 15  1  1  0  0  0
 14 20  1  0  0  0  0
 16 13  1  0  0  0  0
 17 19  1  0  0  0  0
 17 20  2  0  0  0  0
 18 13  1  0  0  0  0
 18 22  1  1  0  0  0
 19 16  1  0  0  0  0
 20 18  1  0  0  0  0
 22 21  1  0  0  0  0
 23 27  1  0  0  0  0
 25 29  1  0  0  0  0
 25 24  1  0  0  0  0
 26 25  2  0  0  0  0
 27 26  2  0  0  0  0
 29 30  1  0  0  0  0
 29 28  1  1  0  0  0
 30 32  1  0  0  0  0
 32 31  1  6  0  0  0
 32 33  1  0  0  0  0
 33 34  1  0  0  0  0
 34 36  1  0  0  0  0
 36 35  1  1  0  0  0
 36 37  1  0  0  0  0
 38 39  2  0  0  0  0
 38 40  1  0  0  0  0
M  END
>  <MODEL>
9

>  <REMARK>
 VINA RESULT:      -6.0      4.242      8.935
  Name = 
  12 active torsions:
  status: ('A' for Active; 'I' for Inactive)
    1  A    between atoms: C_2  and  C_29
    2  A    between atoms: C_5  and  N_22
    3  A    between atoms: N_8  and  N_22
    4  A    between atoms: C_9  and  C_34
    5  A    between atoms: C_9  and  C_35
    6  A    between atoms: C_15  and  C_30
    7  A    between atoms: C_16  and  C_32
    8  A    between atoms: O_18  and  C_34
    9  A    between atoms: O_18  and  C_37
   10  A    between atoms: C_21  and  C_37
   11  A    between atoms: C_23  and  N_39
   12  A    between atoms: C_24  and  C_35
                            x       y       z     vdW  Elec       q    Type
                         _______ _______ _______ _____ _____    ______ ____

>  <TORSDO>
F 12

$$$$
