=
 OpenBabel11032420393D

 45 51  0  0  1  0  0  0  0  0999 V2000
  188.0000  177.6060  144.1390 N   0  0  0  0  0  0  0  0  0  0  0  0
  186.1110  178.6640  141.2270 C   0  0  0  0  0  3  0  0  0  0  0  0
  189.0230  177.4560  143.1870 N   0  0  0  0  0  0  0  0  0  0  0  0
  184.8620  179.0230  141.7610 C   0  0  0  0  0  3  0  0  0  0  0  0
  189.5910  177.6550  138.3920 C   0  0  0  0  0  2  0  0  0  0  0  0
  189.1630  177.7340  140.7650 C   0  0  1  0  0  3  0  0  0  0  0  0
  184.6070  178.9280  143.1500 C   0  0  0  0  0  0  0  0  0  0  0  0
  187.0830  178.1980  142.1110 C   0  0  0  0  0  0  0  0  0  0  0  0
  188.5520  178.0180  139.4380 C   0  0  0  0  0  2  0  0  0  0  0  0
  188.4740  177.7880  141.9090 C   0  0  0  0  0  0  0  0  0  0  0  0
  190.5170  176.6170  139.0020 C   0  0  2  0  0  3  0  0  0  0  0  0
  185.6130  178.4520  144.0100 C   0  0  0  0  0  3  0  0  0  0  0  0
  186.8420  178.0910  143.4600 C   0  0  0  0  0  0  0  0  0  0  0  0
  190.8430  177.1350  140.7110 S   0  0  0  0  0  0  0  0  0  0  0  0
  191.7590  176.5670  138.2470 N   0  0  0  0  0  2  0  0  0  0  0  0
  192.2870  175.3520  137.7100 C   0  0  0  0  0  0  0  0  0  0  0  0
  191.6580  174.2690  137.8520 O   0  0  0  0  0  0  0  0  0  0  0  0
  195.1920  174.0050  138.5540 C   0  0  0  0  0  2  0  0  0  0  0  0
  193.5670  175.3590  136.9900 C   0  0  0  0  0  0  0  0  0  0  0  0
  195.6710  175.0190  136.5020 N   0  0  0  0  0  0  0  0  0  0  0  0
  193.8360  176.1550  135.9230 N   0  0  0  0  0  0  0  0  0  0  0  0
  194.7150  174.6730  137.3280 C   0  0  0  0  0  0  0  0  0  0  0  0
  196.7200  173.9570  138.3060 C   0  0  1  0  0  3  0  0  0  0  0  0
  196.9940  174.7180  136.9860 C   0  0  0  0  0  2  0  0  0  0  0  0
  195.9380  176.7000  134.6670 C   0  0  0  0  0  1  0  0  0  0  0  0
  195.1480  175.9290  135.6660 C   0  0  0  0  0  0  0  0  0  0  0  0
  197.4440  174.6240  139.4610 C   0  0  0  0  0  2  0  0  0  0  0  0
  198.2460  175.7320  138.9710 N   0  0  0  0  0  1  0  0  0  0  0  0
  186.9420  177.5390  146.3770 C   0  0  0  0  0  1  0  0  0  0  0  0
  188.2390  177.6690  145.5850 C   0  0  1  0  0  3  0  0  0  0  0  0
  189.2340  176.6820  146.0170 N   0  0  0  0  0  2  0  0  0  0  0  0
  191.6520  176.6490  145.8510 C   0  0  0  0  0  2  0  0  0  0  0  0
  191.2750  176.3610  147.2850 C   0  0  0  0  0  2  0  0  0  0  0  0
  190.4550  177.3410  146.4700 C   0  0  0  0  0  3  0  0  0  0  0  0
  183.3330  179.2730  143.7130 N   0  0  0  0  0  2  0  0  0  0  0  0
  180.4820  178.7090  141.1830 C   0  0  1  0  0  3  0  0  0  0  0  0
  180.9650  178.8560  143.9910 C   0  0  0  0  0  3  0  0  0  0  0  0
  179.5760  178.5830  143.4840 C   0  0  0  0  0  2  0  0  0  0  0  0
  179.6010  177.8950  142.1250 C   0  0  0  0  0  2  0  0  0  0  0  0
  181.9240  178.7170  141.7050 C   0  0  0  0  0  2  0  0  0  0  0  0
  182.0250  179.0070  143.1820 C   0  0  0  0  0  0  0  0  0  0  0  0
  179.2230  177.4980  139.5450 F   0  0  0  0  0  0  0  0  0  0  0  0
  180.4180  178.1670  139.7560 C   0  0  0  0  0  0  0  0  0  0  0  0
  181.4700  177.2940  139.5400 F   0  0  0  0  0  0  0  0  0  0  0  0
  180.5170  179.2110  138.8550 F   0  0  0  0  0  0  0  0  0  0  0  0
  1 30  1  0  0  0  0
  2  4  2  0  0  0  0
  2  8  1  0  0  0  0
  3  1  1  0  0  0  0
  4  7  1  0  0  0  0
  5 11  1  0  0  0  0
  5  9  1  0  0  0  0
  6 10  1  6  0  0  0
  7 35  1  0  0  0  0
  7 12  2  0  0  0  0
  8 13  2  0  0  0  0
  9  6  1  0  0  0  0
 10  8  1  0  0  0  0
 10  3  2  0  0  0  0
 11 15  1  6  0  0  0
 11 14  1  0  0  0  0
 13 12  1  0  0  0  0
 13  1  1  0  0  0  0
 14  6  1  0  0  0  0
 16 17  2  0  0  0  0
 16 15  1  0  0  0  0
 19 22  2  0  0  0  0
 19 16  1  0  0  0  0
 20 24  1  0  0  0  0
 20 22  1  0  0  0  0
 21 19  1  0  0  0  0
 22 18  1  0  0  0  0
 23 18  1  0  0  0  0
 23 27  1  1  0  0  0
 24 23  1  0  0  0  0
 25 26  1  0  0  0  0
 26 21  2  0  0  0  0
 26 20  1  0  0  0  0
 28 27  1  0  0  0  0
 30 31  1  0  0  0  0
 30 29  1  1  0  0  0
 31 34  1  0  0  0  0
 32 34  1  0  0  0  0
 32 33  1  0  0  0  0
 34 33  1  0  0  0  0
 36 43  1  6  0  0  0
 36 40  1  0  0  0  0
 36 39  1  0  0  0  0
 38 37  1  0  0  0  0
 39 38  1  0  0  0  0
 40 41  1  0  0  0  0
 41 35  1  0  0  0  0
 41 37  2  0  0  0  0
 42 43  1  0  0  0  0
 44 43  1  0  0  0  0
 45 43  1  0  0  0  0
M  END
>  <MODEL>
1

>  <REMARK>
 VINA RESULT:     -10.1      0.000      0.000
  Name = 
  9 active torsions:
  status: ('A' for Active; 'I' for Inactive)
    1  A    between atoms: C_1  and  C_25
    2  A    between atoms: N_2  and  C_29
    3  A    between atoms: N_2  and  C_43
    4  A    between atoms: N_3  and  C_37
    5  A    between atoms: N_6  and  C_38
    6  A    between atoms: C_12  and  C_28
    7  A    between atoms: N_17  and  C_37
    8  A    between atoms: N_17  and  C_39
    9  A    between atoms: C_20  and  C_23
                            x       y       z     vdW  Elec       q    Type
                         _______ _______ _______ _____ _____    ______ ____

>  <TORSDO>
F 9

$$$$
=
 OpenBabel11032420393D

 45 51  0  0  1  0  0  0  0  0999 V2000
  187.0120  177.2450  137.1300 N   0  0  0  0  0  0  0  0  0  0  0  0
  188.4680  178.0590  140.3510 C   0  0  0  0  0  3  0  0  0  0  0  0
  188.2950  176.7230  136.8930 N   0  0  0  0  0  0  0  0  0  0  0  0
  187.3960  178.6270  141.0610 C   0  0  0  0  0  3  0  0  0  0  0  0
  192.6270  176.6030  139.0300 C   0  0  0  0  0  2  0  0  0  0  0  0
  190.3720  176.6380  138.1730 C   0  0  1  0  0  3  0  0  0  0  0  0
  186.1150  178.7500  140.4710 C   0  0  0  0  0  0  0  0  0  0  0  0
  188.2290  177.6380  139.0440 C   0  0  0  0  0  0  0  0  0  0  0  0
  191.1950  176.9760  139.3670 C   0  0  0  0  0  2  0  0  0  0  0  0
  189.0850  176.9790  138.0560 C   0  0  0  0  0  0  0  0  0  0  0  0
  192.7730  176.6450  137.5190 C   0  0  2  0  0  3  0  0  0  0  0  0
  185.9130  178.3140  139.1490 C   0  0  0  0  0  3  0  0  0  0  0  0
  186.9920  177.7640  138.4580 C   0  0  0  0  0  0  0  0  0  0  0  0
  191.2720  175.9000  136.8200 S   0  0  0  0  0  0  0  0  0  0  0  0
  193.9450  175.8820  137.1200 N   0  0  0  0  0  2  0  0  0  0  0  0
  194.5120  175.9690  135.8110 C   0  0  0  0  0  0  0  0  0  0  0  0
  194.0190  176.7520  134.9560 O   0  0  0  0  0  0  0  0  0  0  0  0
  194.6980  172.7070  135.2730 C   0  0  0  0  0  2  0  0  0  0  0  0
  195.6730  175.1420  135.4550 C   0  0  0  0  0  0  0  0  0  0  0  0
  196.9090  173.4050  134.9700 N   0  0  0  0  0  0  0  0  0  0  0  0
  196.9610  175.5700  135.5200 N   0  0  0  0  0  0  0  0  0  0  0  0
  195.6700  173.8050  135.1170 C   0  0  0  0  0  0  0  0  0  0  0  0
  195.6130  171.4630  135.1450 C   0  0  1  0  0  3  0  0  0  0  0  0
  197.0700  171.9750  135.0390 C   0  0  0  0  0  2  0  0  0  0  0  0
  199.1740  174.4050  135.3340 C   0  0  0  0  0  1  0  0  0  0  0  0
  197.6900  174.4640  135.2330 C   0  0  0  0  0  0  0  0  0  0  0  0
  195.4480  170.5830  136.3710 C   0  0  0  0  0  2  0  0  0  0  0  0
  194.0380  170.3310  136.6160 N   0  0  0  0  0  1  0  0  0  0  0  0
  186.0530  177.2330  134.8460 C   0  0  0  0  0  1  0  0  0  0  0  0
  185.8360  176.9070  136.3210 C   0  0  1  0  0  3  0  0  0  0  0  0
  185.4270  175.5110  136.5070 N   0  0  0  0  0  2  0  0  0  0  0  0
  183.4970  175.5540  137.9730 C   0  0  0  0  0  2  0  0  0  0  0  0
  183.5900  174.1770  137.3580 C   0  0  0  0  0  2  0  0  0  0  0  0
  183.9730  175.3970  136.5430 C   0  0  0  0  0  3  0  0  0  0  0  0
  185.0110  179.3430  141.1720 N   0  0  0  0  0  2  0  0  0  0  0  0
  184.9780  178.3850  144.9040 C   0  0  1  0  0  3  0  0  0  0  0  0
  183.2090  178.9650  142.7420 C   0  0  0  0  0  3  0  0  0  0  0  0
  182.6500  178.6380  144.0990 C   0  0  0  0  0  2  0  0  0  0  0  0
  183.6220  179.0130  145.2100 C   0  0  0  0  0  2  0  0  0  0  0  0
  185.5370  178.9760  143.6040 C   0  0  0  0  0  2  0  0  0  0  0  0
  184.5240  179.0330  142.4870 C   0  0  0  0  0  0  0  0  0  0  0  0
  187.2580  178.3960  145.6320 F   0  0  0  0  0  0  0  0  0  0  0  0
  185.9550  178.5810  146.0610 C   0  0  0  0  0  0  0  0  0  0  0  0
  185.6760  177.6730  147.0670 F   0  0  0  0  0  0  0  0  0  0  0  0
  185.8240  179.8600  146.5710 F   0  0  0  0  0  0  0  0  0  0  0  0
  1 13  1  0  0  0  0
  2  4  1  0  0  0  0
  3  1  1  0  0  0  0
  3 10  2  0  0  0  0
  5  9  1  0  0  0  0
  6 10  1  6  0  0  0
  6  9  1  0  0  0  0
  7  4  2  0  0  0  0
  7 35  1  0  0  0  0
  8  2  2  0  0  0  0
 10  8  1  0  0  0  0
 11 15  1  1  0  0  0
 11  5  1  0  0  0  0
 12  7  1  0  0  0  0
 13  8  1  0  0  0  0
 13 12  2  0  0  0  0
 14 11  1  0  0  0  0
 14  6  1  0  0  0  0
 16 15  1  0  0  0  0
 17 16  2  0  0  0  0
 19 21  1  0  0  0  0
 19 16  1  0  0  0  0
 20 24  1  0  0  0  0
 20 22  1  0  0  0  0
 20 26  1  0  0  0  0
 22 18  1  0  0  0  0
 22 19  2  0  0  0  0
 23 18  1  0  0  0  0
 23 27  1  1  0  0  0
 24 23  1  0  0  0  0
 26 25  1  0  0  0  0
 26 21  2  0  0  0  0
 27 28  1  0  0  0  0
 30 29  1  6  0  0  0
 30 31  1  0  0  0  0
 30  1  1  0  0  0  0
 31 34  1  0  0  0  0
 33 32  1  0  0  0  0
 34 33  1  0  0  0  0
 34 32  1  0  0  0  0
 35 41  1  0  0  0  0
 36 39  1  0  0  0  0
 36 43  1  1  0  0  0
 37 38  1  0  0  0  0
 38 39  1  0  0  0  0
 40 36  1  0  0  0  0
 41 37  2  0  0  0  0
 41 40  1  0  0  0  0
 42 43  1  0  0  0  0
 43 45  1  0  0  0  0
 43 44  1  0  0  0  0
M  END
>  <MODEL>
2

>  <REMARK>
 VINA RESULT:      -8.7      3.794      6.094
  Name = 
  9 active torsions:
  status: ('A' for Active; 'I' for Inactive)
    1  A    between atoms: C_1  and  C_25
    2  A    between atoms: N_2  and  C_29
    3  A    between atoms: N_2  and  C_43
    4  A    between atoms: N_3  and  C_37
    5  A    between atoms: N_6  and  C_38
    6  A    between atoms: C_12  and  C_28
    7  A    between atoms: N_17  and  C_37
    8  A    between atoms: N_17  and  C_39
    9  A    between atoms: C_20  and  C_23
                            x       y       z     vdW  Elec       q    Type
                         _______ _______ _______ _____ _____    ______ ____

>  <TORSDO>
F 9

$$$$
=
 OpenBabel11032420393D

 45 51  0  0  1  0  0  0  0  0999 V2000
  187.2230  178.1300  141.1200 N   0  0  0  0  0  0  0  0  0  0  0  0
  185.8490  178.4560  137.7780 C   0  0  0  0  0  3  0  0  0  0  0  0
  188.3800  177.7750  140.4070 N   0  0  0  0  0  0  0  0  0  0  0  0
  184.5400  178.9120  138.0060 C   0  0  0  0  0  3  0  0  0  0  0  0
  189.7090  176.8600  135.8520 C   0  0  0  0  0  2  0  0  0  0  0  0
  188.9110  177.4830  138.0410 C   0  0  1  0  0  3  0  0  0  0  0  0
  184.0650  179.1410  139.3200 C   0  0  0  0  0  0  0  0  0  0  0  0
  186.6560  178.2210  138.8910 C   0  0  0  0  0  0  0  0  0  0  0  0
  188.5270  177.4430  136.6040 C   0  0  0  0  0  2  0  0  0  0  0  0
  188.0500  177.7940  139.0160 C   0  0  0  0  0  0  0  0  0  0  0  0
  190.5010  176.0040  136.8260 C   0  0  2  0  0  3  0  0  0  0  0  0
  184.9090  178.8920  140.4170 C   0  0  0  0  0  3  0  0  0  0  0  0
  186.2000  178.4280  140.1710 C   0  0  0  0  0  0  0  0  0  0  0  0
  190.5630  176.9100  138.3990 S   0  0  0  0  0  0  0  0  0  0  0  0
  191.8460  175.7950  136.3140 N   0  0  0  0  0  2  0  0  0  0  0  0
  192.7280  174.8040  136.8440 C   0  0  0  0  0  0  0  0  0  0  0  0
  192.3430  174.0430  137.7710 O   0  0  0  0  0  0  0  0  0  0  0  0
  194.4620  172.0690  136.1490 C   0  0  0  0  0  2  0  0  0  0  0  0
  194.0900  174.6680  136.3100 C   0  0  0  0  0  0  0  0  0  0  0  0
  195.9570  173.7810  135.6010 N   0  0  0  0  0  0  0  0  0  0  0  0
  194.9820  175.6890  136.2310 N   0  0  0  0  0  0  0  0  0  0  0  0
  194.7180  173.5040  135.9190 C   0  0  0  0  0  0  0  0  0  0  0  0
  195.8530  171.4560  135.8550 C   0  0  1  0  0  3  0  0  0  0  0  0
  196.8250  172.6310  135.5890 C   0  0  0  0  0  2  0  0  0  0  0  0
  197.4350  175.7980  135.7190 C   0  0  0  0  0  1  0  0  0  0  0  0
  196.1250  175.0960  135.8080 C   0  0  0  0  0  0  0  0  0  0  0  0
  196.3150  170.6470  137.0540 C   0  0  0  0  0  2  0  0  0  0  0  0
  195.5960  171.0680  138.2440 N   0  0  0  0  0  1  0  0  0  0  0  0
  186.0820  177.8910  143.3060 C   0  0  0  0  0  1  0  0  0  0  0  0
  187.2300  178.5310  142.5310 C   0  0  1  0  0  3  0  0  0  0  0  0
  188.5230  178.2620  143.1690 N   0  0  0  0  0  2  0  0  0  0  0  0
  188.8430  177.8520  145.5370 C   0  0  0  0  0  2  0  0  0  0  0  0
  189.7550  176.9230  144.7710 C   0  0  0  0  0  2  0  0  0  0  0  0
  188.3840  177.2590  144.2200 C   0  0  0  0  0  3  0  0  0  0  0  0
  182.7260  179.5910  139.5750 N   0  0  0  0  0  2  0  0  0  0  0  0
  180.9820  182.5100  137.7630 C   0  0  1  0  0  3  0  0  0  0  0  0
  180.9340  179.6630  137.9510 C   0  0  0  0  0  3  0  0  0  0  0  0
  179.9860  180.3680  137.0200 C   0  0  0  0  0  2  0  0  0  0  0  0
  180.5550  181.6990  136.5440 C   0  0  0  0  0  2  0  0  0  0  0  0
  182.1130  181.7790  138.4970 C   0  0  0  0  0  2  0  0  0  0  0  0
  181.8460  180.3070  138.6950 C   0  0  0  0  0  0  0  0  0  0  0  0
  182.6620  184.2120  137.8770 F   0  0  0  0  0  0  0  0  0  0  0  0
  181.4070  183.9230  137.3680 C   0  0  0  0  0  0  0  0  0  0  0  0
  180.4960  184.8400  137.8620 F   0  0  0  0  0  0  0  0  0  0  0  0
  181.4420  184.0320  135.9900 F   0  0  0  0  0  0  0  0  0  0  0  0
  1 30  1  0  0  0  0
  2  4  2  0  0  0  0
  2  8  1  0  0  0  0
  3  1  1  0  0  0  0
  4  7  1  0  0  0  0
  5  9  1  0  0  0  0
  5 11  1  0  0  0  0
  6 14  1  0  0  0  0
  6 10  1  1  0  0  0
  7 35  1  0  0  0  0
  7 12  2  0  0  0  0
  8 10  1  0  0  0  0
  8 13  2  0  0  0  0
  9  6  1  0  0  0  0
 10  3  2  0  0  0  0
 11 15  1  6  0  0  0
 11 14  1  0  0  0  0
 13 12  1  0  0  0  0
 13  1  1  0  0  0  0
 15 16  1  0  0  0  0
 16 17  2  0  0  0  0
 19 16  1  0  0  0  0
 20 26  1  0  0  0  0
 20 22  1  0  0  0  0
 21 19  1  0  0  0  0
 22 18  1  0  0  0  0
 22 19  2  0  0  0  0
 23 18  1  0  0  0  0
 23 27  1  1  0  0  0
 24 20  1  0  0  0  0
 24 23  1  0  0  0  0
 25 26  1  0  0  0  0
 26 21  2  0  0  0  0
 27 28  1  0  0  0  0
 30 31  1  0  0  0  0
 30 29  1  1  0  0  0
 31 34  1  0  0  0  0
 33 32  1  0  0  0  0
 34 33  1  0  0  0  0
 34 32  1  0  0  0  0
 36 43  1  6  0  0  0
 36 40  1  0  0  0  0
 37 41  2  0  0  0  0
 38 37  1  0  0  0  0
 39 38  1  0  0  0  0
 39 36  1  0  0  0  0
 40 41  1  0  0  0  0
 41 35  1  0  0  0  0
 43 44  1  0  0  0  0
 43 42  1  0  0  0  0
 45 43  1  0  0  0  0
M  END
>  <MODEL>
3

>  <REMARK>
 VINA RESULT:      -8.0      3.023      3.962
  Name = 
  9 active torsions:
  status: ('A' for Active; 'I' for Inactive)
    1  A    between atoms: C_1  and  C_25
    2  A    between atoms: N_2  and  C_29
    3  A    between atoms: N_2  and  C_43
    4  A    between atoms: N_3  and  C_37
    5  A    between atoms: N_6  and  C_38
    6  A    between atoms: C_12  and  C_28
    7  A    between atoms: N_17  and  C_37
    8  A    between atoms: N_17  and  C_39
    9  A    between atoms: C_20  and  C_23
                            x       y       z     vdW  Elec       q    Type
                         _______ _______ _______ _____ _____    ______ ____

>  <TORSDO>
F 9

$$$$
=
 OpenBabel11032420393D

 45 51  0  0  1  0  0  0  0  0999 V2000
  190.7260  177.6610  141.6260 N   0  0  0  0  0  0  0  0  0  0  0  0
  190.4780  176.7520  138.1220 C   0  0  0  0  0  3  0  0  0  0  0  0
  189.3400  177.8420  141.4830 N   0  0  0  0  0  0  0  0  0  0  0  0
  191.7920  176.3840  137.7870 C   0  0  0  0  0  3  0  0  0  0  0  0
  186.0130  177.8480  137.9780 C   0  0  0  0  0  2  0  0  0  0  0  0
  187.7740  177.6690  139.6170 C   0  0  1  0  0  3  0  0  0  0  0  0
  192.8290  176.4200  138.7490 C   0  0  0  0  0  0  0  0  0  0  0  0
  190.2370  177.1690  139.4310 C   0  0  0  0  0  0  0  0  0  0  0  0
  187.4640  177.4500  138.1780 C   0  0  0  0  0  2  0  0  0  0  0  0
  189.0090  177.5720  140.1190 C   0  0  0  0  0  0  0  0  0  0  0  0
  185.6530  178.8480  139.0640 C   0  0  2  0  0  3  0  0  0  0  0  0
  192.5460  176.8470  140.0600 C   0  0  0  0  0  3  0  0  0  0  0  0
  191.2390  177.2190  140.3700 C   0  0  0  0  0  0  0  0  0  0  0  0
  186.4060  178.2520  140.6050 S   0  0  0  0  0  0  0  0  0  0  0  0
  184.2080  178.9180  139.2050 N   0  0  0  0  0  2  0  0  0  0  0  0
  183.4740  180.1330  139.0330 C   0  0  0  0  0  0  0  0  0  0  0  0
  184.0720  181.1960  138.7150 O   0  0  0  0  0  0  0  0  0  0  0  0
  181.1640  181.9870  137.5530 C   0  0  0  0  0  2  0  0  0  0  0  0
  182.0180  180.1480  139.2280 C   0  0  0  0  0  0  0  0  0  0  0  0
  179.9090  180.6890  139.0390 N   0  0  0  0  0  0  0  0  0  0  0  0
  181.3830  179.5390  140.2620 N   0  0  0  0  0  0  0  0  0  0  0  0
  181.0880  180.8520  138.4930 C   0  0  0  0  0  0  0  0  0  0  0  0
  179.7070  182.5120  137.5830 C   0  0  1  0  0  3  0  0  0  0  0  0
  178.9430  181.6830  138.6450 C   0  0  0  0  0  2  0  0  0  0  0  0
  179.0260  179.6100  141.1180 C   0  0  0  0  0  1  0  0  0  0  0  0
  180.0880  179.9130  140.1190 C   0  0  0  0  0  0  0  0  0  0  0  0
  179.7040  183.9830  137.9580 C   0  0  0  0  0  2  0  0  0  0  0  0
  178.9490  184.7430  136.9760 N   0  0  0  0  0  1  0  0  0  0  0  0
  191.8450  178.8860  143.4650 C   0  0  0  0  0  1  0  0  0  0  0  0
  191.3980  177.5310  142.9230 C   0  0  1  0  0  3  0  0  0  0  0  0
  190.5710  176.8100  143.8970 N   0  0  0  0  0  2  0  0  0  0  0  0
  189.7150  176.9720  146.1590 C   0  0  0  0  0  2  0  0  0  0  0  0
  188.5900  177.3010  145.2060 C   0  0  0  0  0  2  0  0  0  0  0  0
  190.0070  177.7300  144.8800 C   0  0  0  0  0  3  0  0  0  0  0  0
  194.1810  176.0650  138.4230 N   0  0  0  0  0  2  0  0  0  0  0  0
  195.3800  172.8080  136.7490 C   0  0  1  0  0  3  0  0  0  0  0  0
  194.9030  175.5610  136.1690 C   0  0  0  0  0  3  0  0  0  0  0  0
  195.3920  174.6420  135.0850 C   0  0  0  0  0  2  0  0  0  0  0  0
  194.9630  173.2020  135.3350 C   0  0  0  0  0  2  0  0  0  0  0  0
  194.6330  173.6790  137.7660 C   0  0  0  0  0  2  0  0  0  0  0  0
  194.6400  175.1470  137.4180 C   0  0  0  0  0  0  0  0  0  0  0  0
  196.0540  170.5500  136.3270 F   0  0  0  0  0  0  0  0  0  0  0  0
  195.1300  171.3240  137.0080 C   0  0  0  0  0  0  0  0  0  0  0  0
  193.8560  170.9840  136.5860 F   0  0  0  0  0  0  0  0  0  0  0  0
  195.2310  171.0630  138.3620 F   0  0  0  0  0  0  0  0  0  0  0  0
  1 30  1  0  0  0  0
  2  8  1  0  0  0  0
  3  1  1  0  0  0  0
  4  2  2  0  0  0  0
  4  7  1  0  0  0  0
  5  9  1  0  0  0  0
  5 11  1  0  0  0  0
  6 10  1  6  0  0  0
  6 14  1  0  0  0  0
  7 12  2  0  0  0  0
  8 10  1  0  0  0  0
  8 13  2  0  0  0  0
  9  6  1  0  0  0  0
 10  3  2  0  0  0  0
 11 15  1  1  0  0  0
 11 14  1  0  0  0  0
 12 13  1  0  0  0  0
 13  1  1  0  0  0  0
 16 15  1  0  0  0  0
 16 19  1  0  0  0  0
 17 16  2  0  0  0  0
 18 23  1  0  0  0  0
 18 22  1  0  0  0  0
 19 21  1  0  0  0  0
 20 26  1  0  0  0  0
 22 20  1  0  0  0  0
 22 19  2  0  0  0  0
 23 27  1  1  0  0  0
 23 24  1  0  0  0  0
 24 20  1  0  0  0  0
 26 21  2  0  0  0  0
 26 25  1  0  0  0  0
 28 27  1  0  0  0  0
 30 29  1  1  0  0  0
 30 31  1  0  0  0  0
 31 34  1  0  0  0  0
 33 32  1  0  0  0  0
 34 33  1  0  0  0  0
 34 32  1  0  0  0  0
 35  7  1  0  0  0  0
 36 43  1  1  0  0  0
 36 40  1  0  0  0  0
 37 41  2  0  0  0  0
 38 39  1  0  0  0  0
 38 37  1  0  0  0  0
 39 36  1  0  0  0  0
 41 40  1  0  0  0  0
 41 35  1  0  0  0  0
 42 43  1  0  0  0  0
 43 45  1  0  0  0  0
 44 43  1  0  0  0  0
M  END
>  <MODEL>
4

>  <REMARK>
 VINA RESULT:      -7.5      5.209     12.398
  Name = 
  9 active torsions:
  status: ('A' for Active; 'I' for Inactive)
    1  A    between atoms: C_1  and  C_25
    2  A    between atoms: N_2  and  C_29
    3  A    between atoms: N_2  and  C_43
    4  A    between atoms: N_3  and  C_37
    5  A    between atoms: N_6  and  C_38
    6  A    between atoms: C_12  and  C_28
    7  A    between atoms: N_17  and  C_37
    8  A    between atoms: N_17  and  C_39
    9  A    between atoms: C_20  and  C_23
                            x       y       z     vdW  Elec       q    Type
                         _______ _______ _______ _____ _____    ______ ____

>  <TORSDO>
F 9

$$$$
=
 OpenBabel11032420393D

 45 51  0  0  1  0  0  0  0  0999 V2000
  186.9010  176.7320  136.8210 N   0  0  0  0  0  0  0  0  0  0  0  0
  187.9290  178.2340  139.9600 C   0  0  0  0  0  3  0  0  0  0  0  0
  188.2160  176.2400  136.8420 N   0  0  0  0  0  0  0  0  0  0  0  0
  186.7630  178.8740  140.4130 C   0  0  0  0  0  3  0  0  0  0  0  0
  192.2560  176.7600  139.4430 C   0  0  0  0  0  2  0  0  0  0  0  0
  190.1230  176.5130  138.3430 C   0  0  1  0  0  3  0  0  0  0  0  0
  185.5620  178.8160  139.6680 C   0  0  0  0  0  0  0  0  0  0  0  0
  187.8630  177.5530  138.7450 C   0  0  0  0  0  0  0  0  0  0  0  0
  190.7840  177.1180  139.5310 C   0  0  0  0  0  2  0  0  0  0  0  0
  188.8510  176.7580  138.0130 C   0  0  0  0  0  0  0  0  0  0  0  0
  192.5850  176.5130  137.9810 C   0  0  2  0  0  3  0  0  0  0  0  0
  185.5350  178.1190  138.4450 C   0  0  0  0  0  3  0  0  0  0  0  0
  186.7050  177.5000  138.0070 C   0  0  0  0  0  0  0  0  0  0  0  0
  191.2010  175.5700  137.2780 S   0  0  0  0  0  0  0  0  0  0  0  0
  193.8170  175.7460  137.8800 N   0  0  0  0  0  2  0  0  0  0  0  0
  194.5870  175.6790  136.6770 C   0  0  0  0  0  0  0  0  0  0  0  0
  194.2260  176.3240  135.6560 O   0  0  0  0  0  0  0  0  0  0  0  0
  194.9350  172.4730  135.9260 C   0  0  0  0  0  2  0  0  0  0  0  0
  195.8020  174.8550  136.6250 C   0  0  0  0  0  0  0  0  0  0  0  0
  197.1290  173.1340  136.3910 N   0  0  0  0  0  0  0  0  0  0  0  0
  197.0040  175.2400  137.1260 N   0  0  0  0  0  0  0  0  0  0  0  0
  195.9060  173.5530  136.1820 C   0  0  0  0  0  0  0  0  0  0  0  0
  195.8450  171.2210  135.9750 C   0  0  1  0  0  3  0  0  0  0  0  0
  197.2620  171.7000  136.3740 C   0  0  0  0  0  2  0  0  0  0  0  0
  199.1660  174.0360  137.5310 C   0  0  0  0  0  1  0  0  0  0  0  0
  197.7880  174.1440  136.9800 C   0  0  0  0  0  0  0  0  0  0  0  0
  195.3070  170.2420  137.0020 C   0  0  0  0  0  2  0  0  0  0  0  0
  195.8100  170.5820  138.3230 N   0  0  0  0  0  1  0  0  0  0  0  0
  186.3760  175.7790  134.5960 C   0  0  0  0  0  1  0  0  0  0  0  0
  185.8420  176.1840  135.9660 C   0  0  1  0  0  3  0  0  0  0  0  0
  185.1360  175.0750  136.6170 N   0  0  0  0  0  2  0  0  0  0  0  0
  183.1710  175.1110  138.0370 C   0  0  0  0  0  2  0  0  0  0  0  0
  182.9820  174.0300  136.9980 C   0  0  0  0  0  2  0  0  0  0  0  0
  183.6960  175.3150  136.6300 C   0  0  0  0  0  3  0  0  0  0  0  0
  184.3650  179.4770  140.1040 N   0  0  0  0  0  2  0  0  0  0  0  0
  181.4800  178.2090  142.3220 C   0  0  1  0  0  3  0  0  0  0  0  0
  182.2980  178.3260  139.5910 C   0  0  0  0  0  3  0  0  0  0  0  0
  180.9850  177.6890  139.9520 C   0  0  0  0  0  2  0  0  0  0  0  0
  180.4120  178.2760  141.2350 C   0  0  0  0  0  2  0  0  0  0  0  0
  182.6740  179.0860  141.9250 C   0  0  0  0  0  2  0  0  0  0  0  0
  183.1160  178.8860  140.4960 C   0  0  0  0  0  0  0  0  0  0  0  0
  180.0550  177.6600  144.1650 F   0  0  0  0  0  0  0  0  0  0  0  0
  180.9180  178.6280  143.6790 C   0  0  0  0  0  0  0  0  0  0  0  0
  180.2330  179.8230  143.5520 F   0  0  0  0  0  0  0  0  0  0  0  0
  181.9530  178.8050  144.5780 F   0  0  0  0  0  0  0  0  0  0  0  0
  1  3  1  0  0  0  0
  1 13  1  0  0  0  0
  2  4  1  0  0  0  0
  3 10  2  0  0  0  0
  5  9  1  0  0  0  0
  6 10  1  6  0  0  0
  6  9  1  0  0  0  0
  7 35  1  0  0  0  0
  7  4  2  0  0  0  0
  8  2  2  0  0  0  0
 10  8  1  0  0  0  0
 11 15  1  1  0  0  0
 11  5  1  0  0  0  0
 12  7  1  0  0  0  0
 13 12  2  0  0  0  0
 13  8  1  0  0  0  0
 14 11  1  0  0  0  0
 14  6  1  0  0  0  0
 16 15  1  0  0  0  0
 17 16  2  0  0  0  0
 18 23  1  0  0  0  0
 18 22  1  0  0  0  0
 19 16  1  0  0  0  0
 19 21  1  0  0  0  0
 20 26  1  0  0  0  0
 22 20  1  0  0  0  0
 22 19  2  0  0  0  0
 23 24  1  0  0  0  0
 23 27  1  1  0  0  0
 24 20  1  0  0  0  0
 26 21  2  0  0  0  0
 26 25  1  0  0  0  0
 27 28  1  0  0  0  0
 30 29  1  6  0  0  0
 30 31  1  0  0  0  0
 30  1  1  0  0  0  0
 31 34  1  0  0  0  0
 33 32  1  0  0  0  0
 34 33  1  0  0  0  0
 34 32  1  0  0  0  0
 35 41  1  0  0  0  0
 36 43  1  1  0  0  0
 37 38  1  0  0  0  0
 37 41  2  0  0  0  0
 38 39  1  0  0  0  0
 39 36  1  0  0  0  0
 40 36  1  0  0  0  0
 41 40  1  0  0  0  0
 43 42  1  0  0  0  0
 43 45  1  0  0  0  0
 44 43  1  0  0  0  0
M  END
>  <MODEL>
5

>  <REMARK>
 VINA RESULT:      -7.3      3.538      5.608
  Name = 
  9 active torsions:
  status: ('A' for Active; 'I' for Inactive)
    1  A    between atoms: C_1  and  C_25
    2  A    between atoms: N_2  and  C_29
    3  A    between atoms: N_2  and  C_43
    4  A    between atoms: N_3  and  C_37
    5  A    between atoms: N_6  and  C_38
    6  A    between atoms: C_12  and  C_28
    7  A    between atoms: N_17  and  C_37
    8  A    between atoms: N_17  and  C_39
    9  A    between atoms: C_20  and  C_23
                            x       y       z     vdW  Elec       q    Type
                         _______ _______ _______ _____ _____    ______ ____

>  <TORSDO>
F 9

$$$$
=
 OpenBabel11032420393D

 45 51  0  0  1  0  0  0  0  0999 V2000
  190.4560  177.2040  140.8650 N   0  0  0  0  0  0  0  0  0  0  0  0
  190.7010  176.6060  137.2950 C   0  0  0  0  0  3  0  0  0  0  0  0
  189.0990  177.3850  140.5520 N   0  0  0  0  0  0  0  0  0  0  0  0
  192.0550  176.2800  137.1110 C   0  0  0  0  0  3  0  0  0  0  0  0
  186.2740  177.6720  136.6410 C   0  0  0  0  0  2  0  0  0  0  0  0
  187.8020  177.3640  138.4820 C   0  0  1  0  0  3  0  0  0  0  0  0
  192.9520  176.2400  138.2050 C   0  0  0  0  0  0  0  0  0  0  0  0
  190.2770  176.9030  138.5900 C   0  0  0  0  0  0  0  0  0  0  0  0
  187.6930  177.2700  137.0020 C   0  0  0  0  0  2  0  0  0  0  0  0
  188.9600  177.2340  139.1370 C   0  0  0  0  0  0  0  0  0  0  0  0
  185.7520  178.5700  137.7500 C   0  0  2  0  0  3  0  0  0  0  0  0
  192.4870  176.5470  139.4970 C   0  0  0  0  0  3  0  0  0  0  0  0
  191.1420  176.8790  139.6570 C   0  0  0  0  0  0  0  0  0  0  0  0
  186.3020  177.8460  139.3220 S   0  0  0  0  0  0  0  0  0  0  0  0
  184.2990  178.6140  137.6990 N   0  0  0  0  0  2  0  0  0  0  0  0
  183.5270  179.5110  138.5010 C   0  0  0  0  0  0  0  0  0  0  0  0
  184.1000  180.3300  139.2690 O   0  0  0  0  0  0  0  0  0  0  0  0
  181.3030  179.4220  140.9530 C   0  0  0  0  0  2  0  0  0  0  0  0
  182.0600  179.4810  138.4350 C   0  0  0  0  0  0  0  0  0  0  0  0
  179.9600  179.4020  139.0390 N   0  0  0  0  0  0  0  0  0  0  0  0
  181.3540  179.2400  137.3000 N   0  0  0  0  0  0  0  0  0  0  0  0
  181.1770  179.5730  139.4910 C   0  0  0  0  0  0  0  0  0  0  0  0
  179.8350  179.1470  141.3630 C   0  0  1  0  0  3  0  0  0  0  0  0
  179.0050  179.0530  140.0590 C   0  0  0  0  0  2  0  0  0  0  0  0
  178.9310  178.7810  136.8430 C   0  0  0  0  0  1  0  0  0  0  0  0
  180.0660  179.1800  137.7190 C   0  0  0  0  0  0  0  0  0  0  0  0
  179.7580  177.8430  142.1350 C   0  0  0  0  0  2  0  0  0  0  0  0
  179.0650  176.8390  141.3450 N   0  0  0  0  0  1  0  0  0  0  0  0
  191.6520  178.1960  142.7950 C   0  0  0  0  0  1  0  0  0  0  0  0
  190.9500  176.9660  142.2260 C   0  0  1  0  0  3  0  0  0  0  0  0
  189.8860  176.4940  143.1180 N   0  0  0  0  0  2  0  0  0  0  0  0
  189.3160  177.1320  145.3870 C   0  0  0  0  0  2  0  0  0  0  0  0
  188.0550  177.1750  144.5540 C   0  0  0  0  0  2  0  0  0  0  0  0
  189.3790  177.5870  143.9430 C   0  0  0  0  0  3  0  0  0  0  0  0
  194.3420  175.9260  138.0360 N   0  0  0  0  0  2  0  0  0  0  0  0
  195.5490  172.4090  137.0240 C   0  0  1  0  0  3  0  0  0  0  0  0
  195.5190  175.1040  136.0870 C   0  0  0  0  0  3  0  0  0  0  0  0
  196.1500  174.0270  135.2480 C   0  0  0  0  0  2  0  0  0  0  0  0
  195.5230  172.6660  135.5210 C   0  0  0  0  0  2  0  0  0  0  0  0
  194.6800  173.4510  137.7390 C   0  0  0  0  0  2  0  0  0  0  0  0
  194.9260  174.8620  137.2660 C   0  0  0  0  0  0  0  0  0  0  0  0
  193.8210  170.7620  136.8420 F   0  0  0  0  0  0  0  0  0  0  0  0
  195.0880  170.9900  137.3530 C   0  0  0  0  0  0  0  0  0  0  0  0
  195.0610  170.8140  138.7250 F   0  0  0  0  0  0  0  0  0  0  0  0
  195.9680  170.0750  136.8060 F   0  0  0  0  0  0  0  0  0  0  0  0
  1 30  1  0  0  0  0
  2  8  1  0  0  0  0
  3  1  1  0  0  0  0
  4  2  2  0  0  0  0
  4  7  1  0  0  0  0
  5  9  1  0  0  0  0
  5 11  1  0  0  0  0
  6 10  1  6  0  0  0
  6 14  1  0  0  0  0
  7 12  2  0  0  0  0
  8 10  1  0  0  0  0
  8 13  2  0  0  0  0
  9  6  1  0  0  0  0
 10  3  2  0  0  0  0
 11 15  1  1  0  0  0
 11 14  1  0  0  0  0
 12 13  1  0  0  0  0
 13  1  1  0  0  0  0
 15 16  1  0  0  0  0
 16 17  2  0  0  0  0
 18 23  1  0  0  0  0
 19 16  1  0  0  0  0
 19 22  2  0  0  0  0
 20 22  1  0  0  0  0
 20 24  1  0  0  0  0
 21 26  2  0  0  0  0
 21 19  1  0  0  0  0
 22 18  1  0  0  0  0
 23 27  1  6  0  0  0
 24 23  1  0  0  0  0
 25 26  1  0  0  0  0
 26 20  1  0  0  0  0
 28 27  1  0  0  0  0
 30 29  1  1  0  0  0
 30 31  1  0  0  0  0
 31 34  1  0  0  0  0
 33 32  1  0  0  0  0
 34 33  1  0  0  0  0
 34 32  1  0  0  0  0
 35  7  1  0  0  0  0
 36 43  1  6  0  0  0
 36 40  1  0  0  0  0
 37 41  2  0  0  0  0
 38 39  1  0  0  0  0
 38 37  1  0  0  0  0
 39 36  1  0  0  0  0
 41 40  1  0  0  0  0
 41 35  1  0  0  0  0
 42 43  1  0  0  0  0
 43 44  1  0  0  0  0
 45 43  1  0  0  0  0
M  END
>  <MODEL>
6

>  <REMARK>
 VINA RESULT:      -7.3      4.999     12.204
  Name = 
  9 active torsions:
  status: ('A' for Active; 'I' for Inactive)
    1  A    between atoms: C_1  and  C_25
    2  A    between atoms: N_2  and  C_29
    3  A    between atoms: N_2  and  C_43
    4  A    between atoms: N_3  and  C_37
    5  A    between atoms: N_6  and  C_38
    6  A    between atoms: C_12  and  C_28
    7  A    between atoms: N_17  and  C_37
    8  A    between atoms: N_17  and  C_39
    9  A    between atoms: C_20  and  C_23
                            x       y       z     vdW  Elec       q    Type
                         _______ _______ _______ _____ _____    ______ ____

>  <TORSDO>
F 9

$$$$
=
 OpenBabel11032420393D

 45 51  0  0  1  0  0  0  0  0999 V2000
  190.6340  177.0340  139.5140 N   0  0  0  0  0  0  0  0  0  0  0  0
  189.6720  175.4960  136.3720 C   0  0  0  0  0  3  0  0  0  0  0  0
  189.2610  177.3270  139.5750 N   0  0  0  0  0  0  0  0  0  0  0  0
  190.8710  174.9350  135.9020 C   0  0  0  0  0  3  0  0  0  0  0  0
  185.3430  177.0030  136.7650 C   0  0  0  0  0  2  0  0  0  0  0  0
  187.3650  176.9620  138.0800 C   0  0  1  0  0  3  0  0  0  0  0  0
  192.0700  175.0480  136.6450 C   0  0  0  0  0  0  0  0  0  0  0  0
  189.7090  176.1800  137.5860 C   0  0  0  0  0  0  0  0  0  0  0  0
  186.7760  176.5020  136.7940 C   0  0  0  0  0  2  0  0  0  0  0  0
  188.6630  176.8350  138.3730 C   0  0  0  0  0  0  0  0  0  0  0  0
  185.2630  178.2260  137.6620 C   0  0  2  0  0  3  0  0  0  0  0  0
  192.0680  175.7470  137.8660 C   0  0  0  0  0  3  0  0  0  0  0  0
  190.8710  176.3060  138.3100 C   0  0  0  0  0  0  0  0  0  0  0  0
  186.2490  177.8640  139.1420 S   0  0  0  0  0  0  0  0  0  0  0  0
  183.8770  178.4720  138.0290 N   0  0  0  0  0  2  0  0  0  0  0  0
  183.4680  179.6280  138.7640 C   0  0  0  0  0  0  0  0  0  0  0  0
  184.3140  180.5030  139.0930 O   0  0  0  0  0  0  0  0  0  0  0  0
  181.0980  181.4240  137.3080 C   0  0  0  0  0  2  0  0  0  0  0  0
  182.0590  179.8010  139.1410 C   0  0  0  0  0  0  0  0  0  0  0  0
  179.9840  180.4900  139.1390 N   0  0  0  0  0  0  0  0  0  0  0  0
  181.5380  179.4190  140.3350 N   0  0  0  0  0  0  0  0  0  0  0  0
  181.0820  180.4610  138.4250 C   0  0  0  0  0  0  0  0  0  0  0  0
  179.6980  182.0730  137.4380 C   0  0  1  0  0  3  0  0  0  0  0  0
  179.0390  181.4900  138.7120 C   0  0  0  0  0  2  0  0  0  0  0  0
  179.3370  179.8300  141.4650 C   0  0  0  0  0  1  0  0  0  0  0  0
  180.2630  179.8790  140.3010 C   0  0  0  0  0  0  0  0  0  0  0  0
  179.8440  183.5790  137.5590 C   0  0  0  0  0  2  0  0  0  0  0  0
  181.1940  183.9770  137.1940 N   0  0  0  0  0  1  0  0  0  0  0  0
  192.8740  177.7140  140.3240 C   0  0  0  0  0  1  0  0  0  0  0  0
  191.5280  177.0880  140.6760 C   0  0  1  0  0  3  0  0  0  0  0  0
  190.9010  177.7680  141.8150 N   0  0  0  0  0  2  0  0  0  0  0  0
  190.4790  177.2350  144.1420 C   0  0  0  0  0  2  0  0  0  0  0  0
  191.3430  178.4740  144.0920 C   0  0  0  0  0  2  0  0  0  0  0  0
  191.5380  177.3730  143.0680 C   0  0  0  0  0  3  0  0  0  0  0  0
  193.3100  174.4970  136.1760 N   0  0  0  0  0  2  0  0  0  0  0  0
  197.0710  175.3280  136.0770 C   0  0  1  0  0  3  0  0  0  0  0  0
  194.5410  176.3770  135.2780 C   0  0  0  0  0  3  0  0  0  0  0  0
  195.7990  177.1400  134.9680 C   0  0  0  0  0  2  0  0  0  0  0  0
  196.9990  176.2110  134.8360 C   0  0  0  0  0  2  0  0  0  0  0  0
  195.8240  174.4370  136.1480 C   0  0  0  0  0  2  0  0  0  0  0  0
  194.5390  175.1860  135.8960 C   0  0  0  0  0  0  0  0  0  0  0  0
  199.1470  174.8090  135.0040 F   0  0  0  0  0  0  0  0  0  0  0  0
  198.3470  174.4880  136.0880 C   0  0  0  0  0  0  0  0  0  0  0  0
  198.0220  173.1440  136.0270 F   0  0  0  0  0  0  0  0  0  0  0  0
  199.0490  174.7210  137.2560 F   0  0  0  0  0  0  0  0  0  0  0  0
  1  3  1  0  0  0  0
  1 30  1  0  0  0  0
  2  8  1  0  0  0  0
  4  2  2  0  0  0  0
  4  7  1  0  0  0  0
  5  9  1  0  0  0  0
  5 11  1  0  0  0  0
  6 10  1  6  0  0  0
  6 14  1  0  0  0  0
  7 12  2  0  0  0  0
  8 13  2  0  0  0  0
  8 10  1  0  0  0  0
  9  6  1  0  0  0  0
 10  3  2  0  0  0  0
 11 15  1  1  0  0  0
 11 14  1  0  0  0  0
 12 13  1  0  0  0  0
 13  1  1  0  0  0  0
 15 16  1  0  0  0  0
 16 17  2  0  0  0  0
 16 19  1  0  0  0  0
 18 23  1  0  0  0  0
 18 22  1  0  0  0  0
 19 21  1  0  0  0  0
 20 26  1  0  0  0  0
 22 20  1  0  0  0  0
 22 19  2  0  0  0  0
 23 27  1  1  0  0  0
 23 24  1  0  0  0  0
 24 20  1  0  0  0  0
 26 21  2  0  0  0  0
 26 25  1  0  0  0  0
 28 27  1  0  0  0  0
 30 29  1  6  0  0  0
 30 31  1  0  0  0  0
 31 34  1  0  0  0  0
 33 32  1  0  0  0  0
 34 33  1  0  0  0  0
 34 32  1  0  0  0  0
 35  7  1  0  0  0  0
 36 43  1  6  0  0  0
 36 40  1  0  0  0  0
 37 41  2  0  0  0  0
 38 37  1  0  0  0  0
 39 38  1  0  0  0  0
 39 36  1  0  0  0  0
 41 40  1  0  0  0  0
 41 35  1  0  0  0  0
 42 43  1  0  0  0  0
 43 45  1  0  0  0  0
 44 43  1  0  0  0  0
M  END
>  <MODEL>
7

>  <REMARK>
 VINA RESULT:      -7.2      5.776     12.926
  Name = 
  9 active torsions:
  status: ('A' for Active; 'I' for Inactive)
    1  A    between atoms: C_1  and  C_25
    2  A    between atoms: N_2  and  C_29
    3  A    between atoms: N_2  and  C_43
    4  A    between atoms: N_3  and  C_37
    5  A    between atoms: N_6  and  C_38
    6  A    between atoms: C_12  and  C_28
    7  A    between atoms: N_17  and  C_37
    8  A    between atoms: N_17  and  C_39
    9  A    between atoms: C_20  and  C_23
                            x       y       z     vdW  Elec       q    Type
                         _______ _______ _______ _____ _____    ______ ____

>  <TORSDO>
F 9

$$$$
=
 OpenBabel11032420393D

 45 51  0  0  1  0  0  0  0  0999 V2000
  191.0640  177.1050  139.3750 N   0  0  0  0  0  0  0  0  0  0  0  0
  190.2120  175.9060  136.0580 C   0  0  0  0  0  3  0  0  0  0  0  0
  189.6750  177.2940  139.4590 N   0  0  0  0  0  0  0  0  0  0  0  0
  191.4480  175.4900  135.5340 C   0  0  0  0  0  3  0  0  0  0  0  0
  185.7900  177.0540  136.5940 C   0  0  0  0  0  2  0  0  0  0  0  0
  187.8090  176.9880  137.9130 C   0  0  1  0  0  3  0  0  0  0  0  0
  192.6360  175.5920  136.2960 C   0  0  0  0  0  0  0  0  0  0  0  0
  190.2020  176.4350  137.3480 C   0  0  0  0  0  0  0  0  0  0  0  0
  187.2540  176.6520  136.5740 C   0  0  0  0  0  2  0  0  0  0  0  0
  189.1120  176.9150  138.2000 C   0  0  0  0  0  0  0  0  0  0  0  0
  185.6250  178.1490  137.6350 C   0  0  2  0  0  3  0  0  0  0  0  0
  192.5850  176.1330  137.5940 C   0  0  0  0  0  3  0  0  0  0  0  0
  191.3510  176.5500  138.0920 C   0  0  0  0  0  0  0  0  0  0  0  0
  186.6330  177.6740  139.0680 S   0  0  0  0  0  0  0  0  0  0  0  0
  184.2260  178.2530  138.0170 N   0  0  0  0  0  2  0  0  0  0  0  0
  183.7430  179.2620  138.9060 C   0  0  0  0  0  0  0  0  0  0  0  0
  184.5300  180.1300  139.3690 O   0  0  0  0  0  0  0  0  0  0  0  0
  181.2330  180.9620  137.5740 C   0  0  0  0  0  2  0  0  0  0  0  0
  182.3240  179.2910  139.2870 C   0  0  0  0  0  0  0  0  0  0  0  0
  180.2000  179.8060  139.3240 N   0  0  0  0  0  0  0  0  0  0  0  0
  181.8360  178.7790  140.4470 N   0  0  0  0  0  0  0  0  0  0  0  0
  181.2960  179.9200  138.6170 C   0  0  0  0  0  0  0  0  0  0  0  0
  179.7840  181.4830  137.7450 C   0  0  1  0  0  3  0  0  0  0  0  0
  179.1760  180.7550  138.9680 C   0  0  0  0  0  2  0  0  0  0  0  0
  179.6090  178.9240  141.5910 C   0  0  0  0  0  1  0  0  0  0  0  0
  180.5280  179.1350  140.4390 C   0  0  0  0  0  0  0  0  0  0  0  0
  179.8070  182.9820  137.9790 C   0  0  0  0  0  2  0  0  0  0  0  0
  181.0080  183.5570  137.3950 N   0  0  0  0  0  1  0  0  0  0  0  0
  193.3000  177.7230  140.2430 C   0  0  0  0  0  1  0  0  0  0  0  0
  191.9510  177.0750  140.5430 C   0  0  1  0  0  3  0  0  0  0  0  0
  191.3190  177.6740  141.7240 N   0  0  0  0  0  2  0  0  0  0  0  0
  190.0930  175.9430  142.8970 C   0  0  0  0  0  2  0  0  0  0  0  0
  190.2670  177.1150  143.8350 C   0  0  0  0  0  2  0  0  0  0  0  0
  191.3700  176.7570  142.8590 C   0  0  0  0  0  3  0  0  0  0  0  0
  193.9100  175.1890  135.7730 N   0  0  0  0  0  2  0  0  0  0  0  0
  195.4610  172.0920  137.4610 C   0  0  1  0  0  3  0  0  0  0  0  0
  196.1440  174.7160  136.5750 C   0  0  0  0  0  3  0  0  0  0  0  0
  197.1930  173.8420  137.2030 C   0  0  0  0  0  2  0  0  0  0  0  0
  196.8880  172.3640  136.9970 C   0  0  0  0  0  2  0  0  0  0  0  0
  194.4760  172.8770  136.5860 C   0  0  0  0  0  2  0  0  0  0  0  0
  194.8800  174.3150  136.3720 C   0  0  0  0  0  0  0  0  0  0  0  0
  193.8860  170.3760  136.9050 F   0  0  0  0  0  0  0  0  0  0  0  0
  195.1450  170.5970  137.4380 C   0  0  0  0  0  0  0  0  0  0  0  0
  195.1870  170.0910  138.7250 F   0  0  0  0  0  0  0  0  0  0  0  0
  196.0840  169.9340  136.6700 F   0  0  0  0  0  0  0  0  0  0  0  0
  1  3  1  0  0  0  0
  1 30  1  0  0  0  0
  2  8  1  0  0  0  0
  4  2  2  0  0  0  0
  4  7  1  0  0  0  0
  5 11  1  0  0  0  0
  6 10  1  6  0  0  0
  6 14  1  0  0  0  0
  7 12  2  0  0  0  0
  8 13  2  0  0  0  0
  8 10  1  0  0  0  0
  9  5  1  0  0  0  0
  9  6  1  0  0  0  0
 10  3  2  0  0  0  0
 11 15  1  1  0  0  0
 11 14  1  0  0  0  0
 12 13  1  0  0  0  0
 13  1  1  0  0  0  0
 15 16  1  0  0  0  0
 16 19  1  0  0  0  0
 16 17  2  0  0  0  0
 18 23  1  0  0  0  0
 18 22  1  0  0  0  0
 19 21  1  0  0  0  0
 20 26  1  0  0  0  0
 22 19  2  0  0  0  0
 22 20  1  0  0  0  0
 23 27  1  1  0  0  0
 23 24  1  0  0  0  0
 24 20  1  0  0  0  0
 26 21  2  0  0  0  0
 26 25  1  0  0  0  0
 28 27  1  0  0  0  0
 30 29  1  6  0  0  0
 30 31  1  0  0  0  0
 31 34  1  0  0  0  0
 32 33  1  0  0  0  0
 34 32  1  0  0  0  0
 34 33  1  0  0  0  0
 35  7  1  0  0  0  0
 35 41  1  0  0  0  0
 36 43  1  6  0  0  0
 37 38  1  0  0  0  0
 39 38  1  0  0  0  0
 39 36  1  0  0  0  0
 40 36  1  0  0  0  0
 41 37  2  0  0  0  0
 41 40  1  0  0  0  0
 42 43  1  0  0  0  0
 43 44  1  0  0  0  0
 45 43  1  0  0  0  0
M  END
>  <MODEL>
8

>  <REMARK>
 VINA RESULT:      -7.2      5.175     12.609
  Name = 
  9 active torsions:
  status: ('A' for Active; 'I' for Inactive)
    1  A    between atoms: C_1  and  C_25
    2  A    between atoms: N_2  and  C_29
    3  A    between atoms: N_2  and  C_43
    4  A    between atoms: N_3  and  C_37
    5  A    between atoms: N_6  and  C_38
    6  A    between atoms: C_12  and  C_28
    7  A    between atoms: N_17  and  C_37
    8  A    between atoms: N_17  and  C_39
    9  A    between atoms: C_20  and  C_23
                            x       y       z     vdW  Elec       q    Type
                         _______ _______ _______ _____ _____    ______ ____

>  <TORSDO>
F 9

$$$$
=
 OpenBabel11032420393D

 45 51  0  0  1  0  0  0  0  0999 V2000
  188.9880  177.5540  141.6930 N   0  0  0  0  0  0  0  0  0  0  0  0
  187.3130  178.1390  138.5270 C   0  0  0  0  0  3  0  0  0  0  0  0
  190.0560  177.2070  140.8490 N   0  0  0  0  0  0  0  0  0  0  0  0
  186.0520  178.6240  138.9100 C   0  0  0  0  0  3  0  0  0  0  0  0
  190.9040  176.5390  136.1390 C   0  0  0  0  0  2  0  0  0  0  0  0
  190.3450  177.0490  138.4290 C   0  0  1  0  0  3  0  0  0  0  0  0
  185.7140  178.7840  140.2750 C   0  0  0  0  0  0  0  0  0  0  0  0
  188.2130  177.8070  139.5390 C   0  0  0  0  0  0  0  0  0  0  0  0
  189.8240  177.1130  137.0370 C   0  0  0  0  0  2  0  0  0  0  0  0
  189.5950  177.3250  139.5000 C   0  0  0  0  0  0  0  0  0  0  0  0
  191.7510  175.5960  136.9770 C   0  0  2  0  0  3  0  0  0  0  0  0
  186.6490  178.4370  141.2670 C   0  0  0  0  0  3  0  0  0  0  0  0
  187.8920  177.9470  140.8680 C   0  0  0  0  0  0  0  0  0  0  0  0
  192.0000  176.3980  138.5870 S   0  0  0  0  0  0  0  0  0  0  0  0
  193.0310  175.3760  136.3230 N   0  0  0  0  0  2  0  0  0  0  0  0
  193.9410  174.3530  136.7340 C   0  0  0  0  0  0  0  0  0  0  0  0
  193.6370  173.5750  137.6780 O   0  0  0  0  0  0  0  0  0  0  0  0
  195.4850  171.6110  135.7040 C   0  0  0  0  0  2  0  0  0  0  0  0
  195.2370  174.2050  136.0600 C   0  0  0  0  0  0  0  0  0  0  0  0
  196.9890  173.3020  135.1140 N   0  0  0  0  0  0  0  0  0  0  0  0
  196.1580  175.1980  135.9540 N   0  0  0  0  0  0  0  0  0  0  0  0
  195.7760  173.0480  135.5380 C   0  0  0  0  0  0  0  0  0  0  0  0
  196.8150  170.9700  135.2360 C   0  0  1  0  0  3  0  0  0  0  0  0
  197.8030  172.1250  134.9450 C   0  0  0  0  0  2  0  0  0  0  0  0
  198.5510  175.2550  135.2060 C   0  0  0  0  0  1  0  0  0  0  0  0
  197.2290  174.5940  135.3830 C   0  0  0  0  0  0  0  0  0  0  0  0
  197.3590  170.0700  136.3300 C   0  0  0  0  0  2  0  0  0  0  0  0
  196.2780  169.6350  137.1980 N   0  0  0  0  0  1  0  0  0  0  0  0
  188.0810  177.1770  143.9670 C   0  0  0  0  0  1  0  0  0  0  0  0
  189.1460  177.8650  143.1170 C   0  0  1  0  0  3  0  0  0  0  0  0
  190.4980  177.5550  143.5960 N   0  0  0  0  0  2  0  0  0  0  0  0
  191.6150  177.4300  145.7440 C   0  0  0  0  0  2  0  0  0  0  0  0
  191.6800  176.0640  145.0990 C   0  0  0  0  0  2  0  0  0  0  0  0
  190.4500  176.9300  144.9150 C   0  0  0  0  0  3  0  0  0  0  0  0
  184.4250  179.2620  140.6880 N   0  0  0  0  0  2  0  0  0  0  0  0
  181.5620  177.2780  139.0410 C   0  0  1  0  0  3  0  0  0  0  0  0
  182.1560  178.7920  141.3850 C   0  0  0  0  0  3  0  0  0  0  0  0
  180.7960  178.1720  141.2200 C   0  0  0  0  0  2  0  0  0  0  0  0
  180.8510  176.9270  140.3440 C   0  0  0  0  0  2  0  0  0  0  0  0
  183.0120  177.6790  139.3380 C   0  0  0  0  0  2  0  0  0  0  0  0
  183.1430  178.6450  140.4880 C   0  0  0  0  0  0  0  0  0  0  0  0
  180.2840  176.1030  137.3920 F   0  0  0  0  0  0  0  0  0  0  0  0
  181.5040  176.1190  138.0480 C   0  0  0  0  0  0  0  0  0  0  0  0
  181.6740  174.9210  138.7180 F   0  0  0  0  0  0  0  0  0  0  0  0
  182.5170  176.2520  137.1160 F   0  0  0  0  0  0  0  0  0  0  0  0
  1 30  1  0  0  0  0
  2  4  2  0  0  0  0
  2  8  1  0  0  0  0
  3  1  1  0  0  0  0
  4  7  1  0  0  0  0
  5 11  1  0  0  0  0
  5  9  1  0  0  0  0
  6 14  1  0  0  0  0
  6 10  1  1  0  0  0
  7 35  1  0  0  0  0
  7 12  2  0  0  0  0
  8 13  2  0  0  0  0
  9  6  1  0  0  0  0
 10  8  1  0  0  0  0
 10  3  2  0  0  0  0
 11 15  1  6  0  0  0
 11 14  1  0  0  0  0
 13 12  1  0  0  0  0
 13  1  1  0  0  0  0
 15 16  1  0  0  0  0
 16 17  2  0  0  0  0
 19 16  1  0  0  0  0
 20 26  1  0  0  0  0
 20 22  1  0  0  0  0
 21 19  1  0  0  0  0
 22 18  1  0  0  0  0
 22 19  2  0  0  0  0
 23 18  1  0  0  0  0
 23 27  1  1  0  0  0
 24 20  1  0  0  0  0
 24 23  1  0  0  0  0
 25 26  1  0  0  0  0
 26 21  2  0  0  0  0
 27 28  1  0  0  0  0
 30 31  1  0  0  0  0
 30 29  1  1  0  0  0
 31 34  1  0  0  0  0
 33 32  1  0  0  0  0
 34 33  1  0  0  0  0
 34 32  1  0  0  0  0
 36 43  1  6  0  0  0
 36 40  1  0  0  0  0
 36 39  1  0  0  0  0
 38 37  1  0  0  0  0
 39 38  1  0  0  0  0
 40 41  1  0  0  0  0
 41 35  1  0  0  0  0
 41 37  2  0  0  0  0
 42 43  1  0  0  0  0
 43 44  1  0  0  0  0
 45 43  1  0  0  0  0
M  END
>  <MODEL>
9

>  <REMARK>
 VINA RESULT:      -7.1      2.236      3.015
  Name = 
  9 active torsions:
  status: ('A' for Active; 'I' for Inactive)
    1  A    between atoms: C_1  and  C_25
    2  A    between atoms: N_2  and  C_29
    3  A    between atoms: N_2  and  C_43
    4  A    between atoms: N_3  and  C_37
    5  A    between atoms: N_6  and  C_38
    6  A    between atoms: C_12  and  C_28
    7  A    between atoms: N_17  and  C_37
    8  A    between atoms: N_17  and  C_39
    9  A    between atoms: C_20  and  C_23
                            x       y       z     vdW  Elec       q    Type
                         _______ _______ _______ _____ _____    ______ ____

>  <TORSDO>
F 9

$$$$
