=
 OpenBabel11032419263D

 51 54  0  0  1  0  0  0  0  0999 V2000
  186.3090  177.8150  142.9960 C   0  0  0  0  0  0  0  0  0  0  0  0
  182.2700  179.1000  143.2280 C   0  0  0  0  0  0  0  0  0  0  0  0
  187.5070  177.3700  142.6680 C   0  0  0  0  0  3  0  0  0  0  0  0
  184.3500  178.3220  144.4530 C   0  0  0  0  0  3  0  0  0  0  0  0
  185.0340  178.1970  143.1390 C   0  0  0  0  0  0  0  0  0  0  0  0
  185.0240  178.6860  140.8190 N   0  0  0  0  0  0  0  0  0  0  0  0
  182.8370  178.9590  141.9940 C   0  0  0  0  0  3  0  0  0  0  0  0
  183.0740  178.7800  144.4980 C   0  0  0  0  0  3  0  0  0  0  0  0
  184.3020  178.5960  141.8860 C   0  0  0  0  0  0  0  0  0  0  0  0
  184.4600  180.1720  139.1070 O   0  0  0  0  0  0  0  0  0  0  0  0
  184.8170  179.0250  139.4060 C   0  0  0  0  0  0  0  0  0  0  0  0
  184.9730  177.9720  138.3630 C   0  0  0  0  0  0  0  0  0  0  0  0
  186.0840  176.7820  136.6290 C   0  0  0  0  0  0  0  0  0  0  0  0
  183.8850  176.1030  137.2150 C   0  0  0  0  0  3  0  0  0  0  0  0
  186.1340  177.7810  137.5870 C   0  0  0  0  0  3  0  0  0  0  0  0
  183.8680  177.1130  138.1110 C   0  0  0  0  0  3  0  0  0  0  0  0
  185.0260  175.8830  136.4690 C   0  0  0  0  0  0  0  0  0  0  0  0
  188.1160  177.9990  135.8060 C   0  0  0  0  0  1  0  0  0  0  0  0
  187.2210  176.8970  135.7870 O   0  0  0  0  0  0  0  0  0  0  0  0
  184.7220  174.7640  135.4730 C   0  0  0  0  0  2  0  0  0  0  0  0
  185.8500  174.2170  134.8250 O   0  0  0  0  0  0  0  0  0  0  0  0
  186.3240  173.1990  135.6640 C   0  0  0  0  0  2  0  0  0  0  0  0
  187.4960  172.4310  135.0090 C   0  0  0  0  0  2  0  0  0  0  0  0
  188.5720  172.3130  135.9660 N   0  0  0  0  0  2  0  0  0  0  0  0
  190.4910  173.8890  136.1980 C   0  0  2  0  0  3  0  0  0  0  0  0
  189.0250  173.6150  136.4030 C   0  0  2  0  0  3  0  0  0  0  0  0
  190.0790  173.5140  137.4010 O   0  0  0  0  0  0  0  0  0  0  0  0
  190.8160  175.3690  136.1630 C   0  0  0  0  0  2  0  0  0  0  0  0
  192.1200  175.6680  135.3600 C   0  0  0  0  0  2  0  0  0  0  0  0
  193.5140  175.6190  136.0580 C   0  0  0  0  0  2  0  0  0  0  0  0
  193.4600  175.9360  137.5570 C   0  0  0  0  0  0  0  0  0  0  0  0
  194.4600  175.3530  138.3410 O   0  0  0  0  0  1  0  0  0  0  0  0
  192.8360  176.8710  138.0580 O   0  0  0  0  0  0  0  0  0  0  0  0
  188.9110  178.0450  142.6510 C   0  0  1  0  0  3  0  0  0  0  0  0
  190.6910  176.5260  144.8780 C   0  0  0  0  0  2  0  0  0  0  0  0
  188.7130  177.2360  146.7060 C   0  0  0  0  0  2  0  0  0  0  0  0
  189.8600  178.0490  144.3320 P   0  0  2  0  0  0  0  0  0  0  0  0
  191.1620  176.7050  146.3590 C   0  0  1  0  0  3  0  0  0  0  0  0
  188.9810  178.4940  145.8830 C   0  0  0  0  0  2  0  0  0  0  0  0
  190.9900  179.0240  144.2340 O   0  0  0  0  0  0  0  0  0  0  0  0
  190.0030  176.7360  147.3340 C   0  0  0  0  0  2  0  0  0  0  0  0
  192.7680  176.0820  148.0510 O   0  0  0  0  0  1  0  0  0  0  0  0
  192.6710  174.7240  146.2020 O   0  0  0  0  0  0  0  0  0  0  0  0
  192.2560  175.8700  146.9050 C   0  0  0  0  0  0  0  0  0  0  0  0
  189.7870  177.4550  141.4810 C   0  0  0  0  0  2  0  0  0  0  0  0
  189.0260  176.3480  138.8690 O   0  0  0  0  0  1  0  0  0  0  0  0
  188.8740  179.0530  139.2340 O   0  0  0  0  0  0  0  0  0  0  0  0
  189.3820  177.7400  139.7380 P   0  0  1  0  0  4  0  0  0  0  0  0
  180.7710  179.2180  143.3940 C   0  0  0  0  0  2  0  0  0  0  0  0
  179.6140  180.5490  141.5230 C   0  0  0  0  0  1  0  0  0  0  0  0
  179.8610  179.1750  142.1070 C   0  0  0  0  0  2  0  0  0  0  0  0
  1  5  2  0  0  0  0
  2 49  1  0  0  0  0
  2  8  1  0  0  0  0
  3  1  2  0  0  0  0
  4  8  2  0  0  0  0
  5  4  1  0  0  0  0
  6  9  2  0  0  0  0
  7  2  2  0  0  0  0
  9  7  1  0  0  0  0
  9  5  1  0  0  0  0
 10 11  2  0  0  0  0
 11  6  1  0  0  0  0
 12 11  1  0  0  0  0
 13 15  1  0  0  0  0
 14 16  2  0  0  0  0
 15 12  2  0  0  0  0
 16 12  1  0  0  0  0
 17 13  2  0  0  0  0
 17 14  1  0  0  0  0
 19 18  1  0  0  0  0
 19 13  1  0  0  0  0
 20 17  1  0  0  0  0
 21 20  1  0  0  0  0
 21 22  1  0  0  0  0
 23 22  1  0  0  0  0
 23 24  1  0  0  0  0
 25 28  1  1  0  0  0
 25 26  1  0  0  0  0
 25 27  1  0  0  0  0
 26 24  1  6  0  0  0
 26 27  1  0  0  0  0
 29 30  1  0  0  0  0
 29 28  1  0  0  0  0
 30 31  1  0  0  0  0
 31 33  2  0  0  0  0
 31 32  1  0  0  0  0
 34 45  1  6  0  0  0
 34  3  1  0  0  0  0
 34 37  1  0  0  0  0
 35 38  1  0  0  0  0
 36 41  1  0  0  0  0
 37 40  2  6  0  0  0
 37 35  1  0  0  0  0
 37 39  1  0  0  0  0
 38 44  1  1  0  0  0
 38 41  1  0  0  0  0
 39 36  1  0  0  0  0
 43 44  2  0  0  0  0
 44 42  1  0  0  0  0
 47 48  2  0  0  0  0
 48 46  1  1  0  0  0
 48 45  1  0  0  0  0
 50 51  1  0  0  0  0
 51 49  1  0  0  0  0
M  END
>  <MODEL>
1

>  <REMARK>
 VINA RESULT:      -7.7      0.000      0.000
  Name = 
  20 active torsions:
  status: ('A' for Active; 'I' for Inactive)
    1  A    between atoms: C_1  and  C_9
    2  A    between atoms: C_1  and  C_10
    3  A    between atoms: C_1  and  P_34
    4  A    between atoms: C_4  and  C_28
    5  A    between atoms: C_6  and  N_38
    6  A    between atoms: C_6  and  C_39
    7  A    between atoms: C_7  and  C_17
    8  A    between atoms: C_7  and  C_18
    9  A    between atoms: C_8  and  C_32
   10  A    between atoms: C_10  and  P_49
   11  A    between atoms: C_15  and  C_32
   12  A    between atoms: C_16  and  O_27
   13  A    between atoms: C_17  and  C_36
   14  A    between atoms: N_23  and  C_28
   15  A    between atoms: C_26  and  O_29
   16  A    between atoms: C_26  and  C_50
   17  A    between atoms: O_29  and  C_39
   18  A    between atoms: C_31  and  N_38
   19  A    between atoms: C_33  and  C_42
   20  A    between atoms: C_36  and  C_37
                            x       y       z     vdW  Elec       q    Type
                         _______ _______ _______ _____ _____    ______ ____

>  <TORSDO>
F 20

$$$$
=
 OpenBabel11032419263D

 51 54  0  0  1  0  0  0  0  0999 V2000
  185.9540  177.7720  143.1300 C   0  0  0  0  0  0  0  0  0  0  0  0
  181.9400  179.1280  143.3990 C   0  0  0  0  0  0  0  0  0  0  0  0
  187.1380  177.2980  142.7940 C   0  0  0  0  0  3  0  0  0  0  0  0
  184.0330  178.3610  144.6080 C   0  0  0  0  0  3  0  0  0  0  0  0
  184.6880  178.1790  143.2850 C   0  0  0  0  0  0  0  0  0  0  0  0
  184.6360  178.5860  140.9500 N   0  0  0  0  0  0  0  0  0  0  0  0
  182.4790  178.9340  142.1590 C   0  0  0  0  0  3  0  0  0  0  0  0
  182.7660  178.8410  144.6630 C   0  0  0  0  0  3  0  0  0  0  0  0
  183.9360  178.5440  142.0340 C   0  0  0  0  0  0  0  0  0  0  0  0
  184.7860  179.9600  139.0680 O   0  0  0  0  0  0  0  0  0  0  0  0
  184.4050  178.8770  139.5310 C   0  0  0  0  0  0  0  0  0  0  0  0
  183.6590  177.9000  138.6870 C   0  0  0  0  0  0  0  0  0  0  0  0
  182.2460  177.2060  136.9060 C   0  0  0  0  0  0  0  0  0  0  0  0
  183.0660  175.5440  138.3900 C   0  0  0  0  0  3  0  0  0  0  0  0
  182.9150  178.2400  137.5390 C   0  0  0  0  0  3  0  0  0  0  0  0
  183.6750  176.5330  139.0780 C   0  0  0  0  0  3  0  0  0  0  0  0
  182.3580  175.8560  137.2450 C   0  0  0  0  0  0  0  0  0  0  0  0
  179.9470  177.6480  136.0070 C   0  0  0  0  0  1  0  0  0  0  0  0
  181.3610  177.7570  135.9410 O   0  0  0  0  0  0  0  0  0  0  0  0
  181.6920  174.5730  136.7460 C   0  0  0  0  0  2  0  0  0  0  0  0
  182.3680  173.9180  135.6950 O   0  0  0  0  0  0  0  0  0  0  0  0
  182.2750  172.5460  135.9690 C   0  0  0  0  0  2  0  0  0  0  0  0
  183.3940  172.0890  136.9350 C   0  0  0  0  0  2  0  0  0  0  0  0
  184.6680  172.1990  136.2620 N   0  0  0  0  0  2  0  0  0  0  0  0
  186.0570  174.2480  135.9580 C   0  0  2  0  0  3  0  0  0  0  0  0
  185.5030  173.2010  136.8870 C   0  0  2  0  0  3  0  0  0  0  0  0
  186.8360  173.2320  136.3060 O   0  0  0  0  0  0  0  0  0  0  0  0
  186.4580  175.5210  136.6760 C   0  0  0  0  0  2  0  0  0  0  0  0
  185.9110  176.7970  135.9630 C   0  0  0  0  0  2  0  0  0  0  0  0
  186.8840  177.9060  135.4580 C   0  0  0  0  0  2  0  0  0  0  0  0
  188.3610  177.5940  135.7270 C   0  0  0  0  0  0  0  0  0  0  0  0
  188.8950  176.5110  135.0220 O   0  0  0  0  0  0  0  0  0  0  0  0
  189.1640  178.3730  136.2410 O   0  0  0  0  0  1  0  0  0  0  0  0
  188.5510  177.9490  142.7240 C   0  0  1  0  0  3  0  0  0  0  0  0
  190.4560  176.5830  144.9460 C   0  0  0  0  0  2  0  0  0  0  0  0
  188.4550  177.1790  146.7900 C   0  0  0  0  0  2  0  0  0  0  0  0
  189.5160  178.0390  144.3930 P   0  0  2  0  0  0  0  0  0  0  0  0
  190.9320  176.8120  146.4190 C   0  0  1  0  0  3  0  0  0  0  0  0
  188.6280  178.4420  145.9500 C   0  0  0  0  0  2  0  0  0  0  0  0
  190.5760  179.0870  144.2700 O   0  0  0  0  0  0  0  0  0  0  0  0
  189.7840  176.7750  147.4080 C   0  0  0  0  0  2  0  0  0  0  0  0
  192.5970  176.3220  148.0960 O   0  0  0  0  0  1  0  0  0  0  0  0
  192.5680  174.9340  146.2680 O   0  0  0  0  0  0  0  0  0  0  0  0
  192.0860  176.0590  146.9610 C   0  0  0  0  0  0  0  0  0  0  0  0
  189.4060  177.2780  141.5830 C   0  0  0  0  0  2  0  0  0  0  0  0
  189.6970  176.4160  138.7910 O   0  0  0  0  0  1  0  0  0  0  0  0
  187.9380  178.4300  139.3580 O   0  0  0  0  0  0  0  0  0  0  0  0
  189.0760  177.5810  139.8270 P   0  0  1  0  0  4  0  0  0  0  0  0
  180.4460  179.2740  143.5910 C   0  0  0  0  0  2  0  0  0  0  0  0
  179.2150  180.8260  141.9520 C   0  0  0  0  0  1  0  0  0  0  0  0
  179.5270  179.3910  142.3160 C   0  0  0  0  0  2  0  0  0  0  0  0
  1  5  2  0  0  0  0
  2 49  1  0  0  0  0
  2  8  1  0  0  0  0
  3  1  2  0  0  0  0
  4  8  2  0  0  0  0
  5  4  1  0  0  0  0
  6  9  2  0  0  0  0
  7  2  2  0  0  0  0
  9  7  1  0  0  0  0
  9  5  1  0  0  0  0
 10 11  2  0  0  0  0
 11  6  1  0  0  0  0
 12 16  1  0  0  0  0
 12 11  1  0  0  0  0
 13 17  2  0  0  0  0
 13 15  1  0  0  0  0
 14 16  2  0  0  0  0
 15 12  2  0  0  0  0
 17 14  1  0  0  0  0
 19 18  1  0  0  0  0
 19 13  1  0  0  0  0
 20 17  1  0  0  0  0
 21 22  1  0  0  0  0
 21 20  1  0  0  0  0
 22 23  1  0  0  0  0
 24 23  1  0  0  0  0
 25 27  1  0  0  0  0
 25 28  1  1  0  0  0
 25 26  1  0  0  0  0
 26 24  1  6  0  0  0
 27 26  1  0  0  0  0
 29 28  1  0  0  0  0
 30 31  1  0  0  0  0
 30 29  1  0  0  0  0
 31 33  1  0  0  0  0
 32 31  2  0  0  0  0
 34 45  1  6  0  0  0
 34  3  1  0  0  0  0
 34 37  1  0  0  0  0
 35 38  1  0  0  0  0
 36 41  1  0  0  0  0
 37 40  2  6  0  0  0
 37 35  1  0  0  0  0
 37 39  1  0  0  0  0
 38 44  1  1  0  0  0
 38 41  1  0  0  0  0
 39 36  1  0  0  0  0
 43 44  2  0  0  0  0
 44 42  1  0  0  0  0
 47 48  2  0  0  0  0
 48 46  1  6  0  0  0
 48 45  1  0  0  0  0
 50 51  1  0  0  0  0
 51 49  1  0  0  0  0
M  END
>  <MODEL>
2

>  <REMARK>
 VINA RESULT:      -7.5      2.052      3.039
  Name = 
  20 active torsions:
  status: ('A' for Active; 'I' for Inactive)
    1  A    between atoms: C_1  and  C_9
    2  A    between atoms: C_1  and  C_10
    3  A    between atoms: C_1  and  P_34
    4  A    between atoms: C_4  and  C_28
    5  A    between atoms: C_6  and  N_38
    6  A    between atoms: C_6  and  C_39
    7  A    between atoms: C_7  and  C_17
    8  A    between atoms: C_7  and  C_18
    9  A    between atoms: C_8  and  C_32
   10  A    between atoms: C_10  and  P_49
   11  A    between atoms: C_15  and  C_32
   12  A    between atoms: C_16  and  O_27
   13  A    between atoms: C_17  and  C_36
   14  A    between atoms: N_23  and  C_28
   15  A    between atoms: C_26  and  O_29
   16  A    between atoms: C_26  and  C_50
   17  A    between atoms: O_29  and  C_39
   18  A    between atoms: C_31  and  N_38
   19  A    between atoms: C_33  and  C_42
   20  A    between atoms: C_36  and  C_37
                            x       y       z     vdW  Elec       q    Type
                         _______ _______ _______ _____ _____    ______ ____

>  <TORSDO>
F 20

$$$$
=
 OpenBabel11032419263D

 51 54  0  0  1  0  0  0  0  0999 V2000
  183.0350  176.2440  137.0500 C   0  0  0  0  0  0  0  0  0  0  0  0
  180.2970  176.9300  140.2210 C   0  0  0  0  0  0  0  0  0  0  0  0
  183.9720  176.2760  136.1220 C   0  0  0  0  0  3  0  0  0  0  0  0
  180.9110  175.5700  138.1700 C   0  0  0  0  0  3  0  0  0  0  0  0
  182.1240  176.4170  138.0150 C   0  0  0  0  0  0  0  0  0  0  0  0
  183.5870  178.0170  138.9750 N   0  0  0  0  0  0  0  0  0  0  0  0
  181.3710  177.7650  140.0970 C   0  0  0  0  0  3  0  0  0  0  0  0
  180.0800  175.7840  139.2200 C   0  0  0  0  0  3  0  0  0  0  0  0
  182.4120  177.4840  139.0360 C   0  0  0  0  0  0  0  0  0  0  0  0
  184.8100  180.0040  139.0720 O   0  0  0  0  0  0  0  0  0  0  0  0
  184.3400  179.0460  139.7000 C   0  0  0  0  0  0  0  0  0  0  0  0
  184.5860  178.8910  141.1620 C   0  0  0  0  0  0  0  0  0  0  0  0
  185.8780  178.4610  143.1110 C   0  0  0  0  0  0  0  0  0  0  0  0
  183.5600  178.9000  143.3840 C   0  0  0  0  0  3  0  0  0  0  0  0
  185.8450  178.6230  141.7370 C   0  0  0  0  0  3  0  0  0  0  0  0
  183.4720  178.9930  142.0400 C   0  0  0  0  0  3  0  0  0  0  0  0
  184.7910  178.6690  143.9650 C   0  0  0  0  0  0  0  0  0  0  0  0
  187.5010  176.5810  143.4460 C   0  0  0  0  0  1  0  0  0  0  0  0
  187.1510  177.9560  143.4830 O   0  0  0  0  0  0  0  0  0  0  0  0
  184.5710  178.5010  145.4690 C   0  0  0  0  0  2  0  0  0  0  0  0
  185.5850  177.7880  146.1460 O   0  0  0  0  0  0  0  0  0  0  0  0
  185.9330  178.5700  147.2560 C   0  0  0  0  0  2  0  0  0  0  0  0
  187.3370  178.1960  147.7890 C   0  0  0  0  0  2  0  0  0  0  0  0
  188.0360  177.4400  146.7740 N   0  0  0  0  0  2  0  0  0  0  0  0
  190.2780  176.9820  145.7810 C   0  0  2  0  0  3  0  0  0  0  0  0
  189.4600  177.6890  146.8290 C   0  0  2  0  0  3  0  0  0  0  0  0
  190.2160  176.4580  146.9980 O   0  0  0  0  0  0  0  0  0  0  0  0
  191.6180  177.6450  145.5330 C   0  0  0  0  0  2  0  0  0  0  0  0
  191.8390  177.9810  144.0250 C   0  0  0  0  0  2  0  0  0  0  0  0
  190.6650  177.8730  143.0050 C   0  0  0  0  0  2  0  0  0  0  0  0
  191.0560  177.1870  141.6900 C   0  0  0  0  0  0  0  0  0  0  0  0
  190.1790  176.2010  141.2300 O   0  0  0  0  0  1  0  0  0  0  0  0
  191.8680  177.6310  140.8780 O   0  0  0  0  0  0  0  0  0  0  0  0
  185.2680  175.4410  135.9060 C   0  0  1  0  0  3  0  0  0  0  0  0
  188.2410  175.5420  137.1670 C   0  0  0  0  0  2  0  0  0  0  0  0
  187.4190  177.8440  138.5010 C   0  0  0  0  0  2  0  0  0  0  0  0
  186.9290  176.3730  136.2190 P   0  0  2  0  0  0  0  0  0  0  0  0
  189.3660  176.5780  137.4970 C   0  0  1  0  0  3  0  0  0  0  0  0
  186.9230  178.0040  137.0660 C   0  0  0  0  0  2  0  0  0  0  0  0
  187.5850  176.6250  134.8980 O   0  0  0  0  0  0  0  0  0  0  0  0
  188.9200  177.6090  138.5140 C   0  0  0  0  0  2  0  0  0  0  0  0
  190.9680  175.0200  138.4080 O   0  0  0  0  0  1  0  0  0  0  0  0
  191.8410  176.8540  137.3390 O   0  0  0  0  0  0  0  0  0  0  0  0
  190.7380  176.1210  137.8140 C   0  0  0  0  0  0  0  0  0  0  0  0
  185.1890  174.0900  136.7150 C   0  0  0  0  0  2  0  0  0  0  0  0
  183.7030  171.6440  137.3730 O   0  0  0  0  0  1  0  0  0  0  0  0
  183.4090  172.7170  134.8760 O   0  0  0  0  0  0  0  0  0  0  0  0
  184.1890  172.6880  136.1520 P   0  0  1  0  0  4  0  0  0  0  0  0
  179.1140  177.2970  141.0890 C   0  0  0  0  0  2  0  0  0  0  0  0
  179.7400  178.2900  143.3760 C   0  0  0  0  0  1  0  0  0  0  0  0
  179.2070  178.5860  141.9900 C   0  0  0  0  0  2  0  0  0  0  0  0
  1  5  2  0  0  0  0
  2 49  1  0  0  0  0
  3  1  2  0  0  0  0
  4  8  2  0  0  0  0
  5  4  1  0  0  0  0
  5  9  1  0  0  0  0
  6  9  2  0  0  0  0
  6 11  1  0  0  0  0
  7  2  2  0  0  0  0
  8  2  1  0  0  0  0
  9  7  1  0  0  0  0
 10 11  2  0  0  0  0
 11 12  1  0  0  0  0
 12 15  2  0  0  0  0
 12 16  1  0  0  0  0
 13 19  1  0  0  0  0
 13 17  2  0  0  0  0
 14 17  1  0  0  0  0
 15 13  1  0  0  0  0
 16 14  2  0  0  0  0
 17 20  1  0  0  0  0
 18 19  1  0  0  0  0
 20 21  1  0  0  0  0
 21 22  1  0  0  0  0
 22 23  1  0  0  0  0
 24 23  1  0  0  0  0
 25 28  1  1  0  0  0
 25 26  1  0  0  0  0
 25 27  1  0  0  0  0
 26 24  1  6  0  0  0
 26 27  1  0  0  0  0
 29 28  1  0  0  0  0
 30 29  1  0  0  0  0
 31 30  1  0  0  0  0
 32 31  1  0  0  0  0
 33 31  2  0  0  0  0
 34  3  1  1  0  0  0
 34 37  1  0  0  0  0
 34 45  1  0  0  0  0
 35 38  1  0  0  0  0
 36 41  1  0  0  0  0
 37 40  2  6  0  0  0
 37 39  1  0  0  0  0
 37 35  1  0  0  0  0
 38 44  1  1  0  0  0
 38 41  1  0  0  0  0
 39 36  1  0  0  0  0
 43 44  2  0  0  0  0
 44 42  1  0  0  0  0
 48 47  2  1  0  0  0
 48 45  1  0  0  0  0
 48 46  1  0  0  0  0
 49 51  1  0  0  0  0
 51 50  1  0  0  0  0
M  END
>  <MODEL>
3

>  <REMARK>
 VINA RESULT:      -7.3      2.688      7.888
  Name = 
  20 active torsions:
  status: ('A' for Active; 'I' for Inactive)
    1  A    between atoms: C_1  and  C_9
    2  A    between atoms: C_1  and  C_10
    3  A    between atoms: C_1  and  P_34
    4  A    between atoms: C_4  and  C_28
    5  A    between atoms: C_6  and  N_38
    6  A    between atoms: C_6  and  C_39
    7  A    between atoms: C_7  and  C_17
    8  A    between atoms: C_7  and  C_18
    9  A    between atoms: C_8  and  C_32
   10  A    between atoms: C_10  and  P_49
   11  A    between atoms: C_15  and  C_32
   12  A    between atoms: C_16  and  O_27
   13  A    between atoms: C_17  and  C_36
   14  A    between atoms: N_23  and  C_28
   15  A    between atoms: C_26  and  O_29
   16  A    between atoms: C_26  and  C_50
   17  A    between atoms: O_29  and  C_39
   18  A    between atoms: C_31  and  N_38
   19  A    between atoms: C_33  and  C_42
   20  A    between atoms: C_36  and  C_37
                            x       y       z     vdW  Elec       q    Type
                         _______ _______ _______ _____ _____    ______ ____

>  <TORSDO>
F 20

$$$$
=
 OpenBabel11032419263D

 51 54  0  0  1  0  0  0  0  0999 V2000
  190.4430  176.8880  139.0640 C   0  0  0  0  0  0  0  0  0  0  0  0
  193.3060  174.5150  137.0170 C   0  0  0  0  0  0  0  0  0  0  0  0
  189.3830  177.5270  139.5210 C   0  0  0  0  0  3  0  0  0  0  0  0
  192.8540  176.4340  138.6110 C   0  0  0  0  0  3  0  0  0  0  0  0
  191.3970  176.1890  138.4360 C   0  0  0  0  0  0  0  0  0  0  0  0
  189.6870  174.7440  137.6540 N   0  0  0  0  0  0  0  0  0  0  0  0
  191.9810  174.2780  136.7860 C   0  0  0  0  0  3  0  0  0  0  0  0
  193.7440  175.6290  137.9800 C   0  0  0  0  0  3  0  0  0  0  0  0
  190.9410  175.0430  137.5740 C   0  0  0  0  0  0  0  0  0  0  0  0
  189.2450  172.7370  136.5460 O   0  0  0  0  0  0  0  0  0  0  0  0
  188.7750  173.7610  137.0590 C   0  0  0  0  0  0  0  0  0  0  0  0
  187.3120  174.0390  137.0190 C   0  0  0  0  0  0  0  0  0  0  0  0
  185.3570  175.3230  136.5860 C   0  0  0  0  0  0  0  0  0  0  0  0
  185.0870  173.1800  137.5730 C   0  0  0  0  0  3  0  0  0  0  0  0
  186.7350  175.2150  136.4960 C   0  0  0  0  0  3  0  0  0  0  0  0
  186.4330  173.0660  137.5690 C   0  0  0  0  0  3  0  0  0  0  0  0
  184.5050  174.3120  137.0350 C   0  0  0  0  0  0  0  0  0  0  0  0
  184.8170  177.1170  134.9210 C   0  0  0  0  0  1  0  0  0  0  0  0
  184.9790  176.6500  136.2510 O   0  0  0  0  0  0  0  0  0  0  0  0
  182.9970  174.2180  137.2760 C   0  0  0  0  0  2  0  0  0  0  0  0
  182.3600  175.4450  137.5580 O   0  0  0  0  0  0  0  0  0  0  0  0
  182.5650  175.6830  138.9240 C   0  0  0  0  0  2  0  0  0  0  0  0
  182.8670  177.1760  139.1950 C   0  0  0  0  0  2  0  0  0  0  0  0
  181.9670  177.6580  140.2180 N   0  0  0  0  0  2  0  0  0  0  0  0
  181.2530  179.9860  139.6790 C   0  0  2  0  0  3  0  0  0  0  0  0
  180.9460  178.5120  139.6520 C   0  0  2  0  0  3  0  0  0  0  0  0
  180.4620  179.4860  140.6180 O   0  0  0  0  0  0  0  0  0  0  0  0
  180.4620  180.7720  138.6520 C   0  0  0  0  0  2  0  0  0  0  0  0
  181.2510  182.0090  138.1200 C   0  0  0  0  0  2  0  0  0  0  0  0
  180.5440  183.0890  137.2460 C   0  0  0  0  0  2  0  0  0  0  0  0
  181.4650  184.2450  136.8370 C   0  0  0  0  0  0  0  0  0  0  0  0
  181.2060  184.8210  135.5900 O   0  0  0  0  0  0  0  0  0  0  0  0
  182.1740  184.8900  137.6100 O   0  0  0  0  0  1  0  0  0  0  0  0
  188.6160  177.4580  140.8740 C   0  0  1  0  0  3  0  0  0  0  0  0
  189.0490  177.3860  144.0750 C   0  0  0  0  0  2  0  0  0  0  0  0
  191.4550  178.7100  143.6130 C   0  0  0  0  0  2  0  0  0  0  0  0
  189.6730  176.9780  142.4150 P   0  0  2  0  0  0  0  0  0  0  0  0
  190.1810  177.1300  145.1230 C   0  0  1  0  0  3  0  0  0  0  0  0
  191.3980  177.5920  142.5760 C   0  0  0  0  0  2  0  0  0  0  0  0
  189.7870  175.4870  142.4640 O   0  0  0  0  0  0  0  0  0  0  0  0
  191.3090  178.1350  145.0120 C   0  0  0  0  0  2  0  0  0  0  0  0
  188.6480  176.9060  146.9750 O   0  0  0  0  0  0  0  0  0  0  0  0
  190.8660  176.5510  147.4520 O   0  0  0  0  0  1  0  0  0  0  0  0
  189.8470  176.9040  146.5480 C   0  0  0  0  0  0  0  0  0  0  0  0
  187.8010  178.7880  141.1090 C   0  0  0  0  0  2  0  0  0  0  0  0
  184.9340  179.3690  140.8600 O   0  0  0  0  0  1  0  0  0  0  0  0
  185.7840  177.8850  142.9930 O   0  0  0  0  0  0  0  0  0  0  0  0
  186.1520  178.7870  141.8580 P   0  0  1  0  0  4  0  0  0  0  0  0
  194.3730  173.9660  136.0950 C   0  0  0  0  0  2  0  0  0  0  0  0
  196.6760  175.0400  135.7050 C   0  0  0  0  0  1  0  0  0  0  0  0
  195.8810  174.0610  136.5420 C   0  0  0  0  0  2  0  0  0  0  0  0
  1  3  2  0  0  0  0
  2  8  1  0  0  0  0
  5  4  1  0  0  0  0
  5  1  2  0  0  0  0
  7  2  2  0  0  0  0
  7  9  1  0  0  0  0
  8  4  2  0  0  0  0
  9  6  2  0  0  0  0
  9  5  1  0  0  0  0
 10 11  2  0  0  0  0
 11  6  1  0  0  0  0
 12 11  1  0  0  0  0
 12 16  1  0  0  0  0
 13 17  2  0  0  0  0
 15 13  1  0  0  0  0
 15 12  2  0  0  0  0
 16 14  2  0  0  0  0
 17 20  1  0  0  0  0
 17 14  1  0  0  0  0
 18 19  1  0  0  0  0
 19 13  1  0  0  0  0
 20 21  1  0  0  0  0
 21 22  1  0  0  0  0
 22 23  1  0  0  0  0
 23 24  1  0  0  0  0
 25 28  1  6  0  0  0
 25 27  1  0  0  0  0
 26 25  1  0  0  0  0
 26 24  1  1  0  0  0
 26 27  1  0  0  0  0
 29 28  1  0  0  0  0
 30 29  1  0  0  0  0
 31 30  1  0  0  0  0
 31 33  1  0  0  0  0
 32 31  2  0  0  0  0
 34  3  1  6  0  0  0
 34 45  1  0  0  0  0
 34 37  1  0  0  0  0
 35 38  1  0  0  0  0
 36 41  1  0  0  0  0
 37 40  2  6  0  0  0
 37 39  1  0  0  0  0
 37 35  1  0  0  0  0
 38 44  1  1  0  0  0
 39 36  1  0  0  0  0
 41 38  1  0  0  0  0
 44 42  2  0  0  0  0
 44 43  1  0  0  0  0
 45 48  1  0  0  0  0
 48 46  1  6  0  0  0
 48 47  2  0  0  0  0
 49 51  1  0  0  0  0
 49  2  1  0  0  0  0
 50 51  1  0  0  0  0
M  END
>  <MODEL>
4

>  <REMARK>
 VINA RESULT:      -6.7      2.915      8.804
  Name = 
  20 active torsions:
  status: ('A' for Active; 'I' for Inactive)
    1  A    between atoms: C_1  and  C_9
    2  A    between atoms: C_1  and  C_10
    3  A    between atoms: C_1  and  P_34
    4  A    between atoms: C_4  and  C_28
    5  A    between atoms: C_6  and  N_38
    6  A    between atoms: C_6  and  C_39
    7  A    between atoms: C_7  and  C_17
    8  A    between atoms: C_7  and  C_18
    9  A    between atoms: C_8  and  C_32
   10  A    between atoms: C_10  and  P_49
   11  A    between atoms: C_15  and  C_32
   12  A    between atoms: C_16  and  O_27
   13  A    between atoms: C_17  and  C_36
   14  A    between atoms: N_23  and  C_28
   15  A    between atoms: C_26  and  O_29
   16  A    between atoms: C_26  and  C_50
   17  A    between atoms: O_29  and  C_39
   18  A    between atoms: C_31  and  N_38
   19  A    between atoms: C_33  and  C_42
   20  A    between atoms: C_36  and  C_37
                            x       y       z     vdW  Elec       q    Type
                         _______ _______ _______ _____ _____    ______ ____

>  <TORSDO>
F 20

$$$$
=
 OpenBabel11032419263D

 51 54  0  0  1  0  0  0  0  0999 V2000
  186.4770  178.4810  141.9470 C   0  0  0  0  0  0  0  0  0  0  0  0
  188.6810  177.2170  145.3470 C   0  0  0  0  0  0  0  0  0  0  0  0
  186.0320  178.9180  140.7840 C   0  0  0  0  0  3  0  0  0  0  0  0
  186.4630  177.9930  144.3920 C   0  0  0  0  0  3  0  0  0  0  0  0
  187.1170  178.1070  143.0610 C   0  0  0  0  0  0  0  0  0  0  0  0
  188.9910  177.6030  141.6980 N   0  0  0  0  0  0  0  0  0  0  0  0
  189.3400  177.3480  144.1570 C   0  0  0  0  0  3  0  0  0  0  0  0
  187.1830  177.5410  145.4500 C   0  0  0  0  0  3  0  0  0  0  0  0
  188.5590  177.7040  142.9110 C   0  0  0  0  0  0  0  0  0  0  0  0
  191.3200  177.4470  141.6250 O   0  0  0  0  0  0  0  0  0  0  0  0
  190.2510  177.2570  141.0300 C   0  0  0  0  0  0  0  0  0  0  0  0
  190.2290  176.7480  139.6300 C   0  0  0  0  0  0  0  0  0  0  0  0
  191.1420  175.7810  137.6580 C   0  0  0  0  0  0  0  0  0  0  0  0
  188.8650  176.4550  137.6180 C   0  0  0  0  0  3  0  0  0  0  0  0
  191.3290  176.1520  138.9790 C   0  0  0  0  0  3  0  0  0  0  0  0
  189.0270  176.8950  138.8840 C   0  0  0  0  0  3  0  0  0  0  0  0
  189.9230  175.8400  136.9780 C   0  0  0  0  0  0  0  0  0  0  0  0
  193.5670  176.2370  137.2180 C   0  0  0  0  0  1  0  0  0  0  0  0
  192.4000  175.4390  137.0960 O   0  0  0  0  0  0  0  0  0  0  0  0
  189.4910  175.5510  135.5390 C   0  0  0  0  0  2  0  0  0  0  0  0
  188.5070  174.5490  135.4000 O   0  0  0  0  0  0  0  0  0  0  0  0
  189.0990  173.3600  135.8470 C   0  0  0  0  0  2  0  0  0  0  0  0
  188.2760  172.1240  135.4100 C   0  0  0  0  0  2  0  0  0  0  0  0
  187.0380  172.5720  134.8140 N   0  0  0  0  0  2  0  0  0  0  0  0
  184.6190  172.4350  135.4030 C   0  0  2  0  0  3  0  0  0  0  0  0
  185.9340  171.7270  135.2090 C   0  0  2  0  0  3  0  0  0  0  0  0
  185.3520  172.1550  136.4720 O   0  0  0  0  0  0  0  0  0  0  0  0
  183.4270  171.5050  135.2930 C   0  0  0  0  0  2  0  0  0  0  0  0
  182.7570  171.2410  136.6770 C   0  0  0  0  0  2  0  0  0  0  0  0
  181.4340  171.9660  137.0730 C   0  0  0  0  0  2  0  0  0  0  0  0
  181.5720  173.4920  137.1510 C   0  0  0  0  0  0  0  0  0  0  0  0
  180.3800  174.2180  137.0660 O   0  0  0  0  0  0  0  0  0  0  0  0
  182.5580  174.0900  137.5830 O   0  0  0  0  0  1  0  0  0  0  0  0
  185.2120  178.2360  139.6490 C   0  0  1  0  0  3  0  0  0  0  0  0
  182.4760  178.6310  141.3200 C   0  0  0  0  0  2  0  0  0  0  0  0
  181.4820  176.4580  139.8880 C   0  0  0  0  0  2  0  0  0  0  0  0
  183.3040  178.5220  139.7040 P   0  0  2  0  0  0  0  0  0  0  0  0
  180.9270  178.6080  141.1020 C   0  0  1  0  0  3  0  0  0  0  0  0
  182.1730  177.3470  138.8560 C   0  0  0  0  0  2  0  0  0  0  0  0
  183.0080  179.8540  139.0910 O   0  0  0  0  0  0  0  0  0  0  0  0
  180.4290  177.2530  140.6420 C   0  0  0  0  0  2  0  0  0  0  0  0
  180.1060  180.3520  142.5540 O   0  0  0  0  0  0  0  0  0  0  0  0
  178.9310  178.3800  142.5810 O   0  0  0  0  0  1  0  0  0  0  0  0
  180.0160  179.1550  142.1320 C   0  0  0  0  0  0  0  0  0  0  0  0
  185.8230  178.5980  138.2410 C   0  0  0  0  0  2  0  0  0  0  0  0
  186.6160  177.9160  135.4970 O   0  0  0  0  0  1  0  0  0  0  0  0
  185.1500  176.1000  136.9210 O   0  0  0  0  0  0  0  0  0  0  0  0
  185.6480  177.5050  136.8060 P   0  0  1  0  0  4  0  0  0  0  0  0
  189.4360  177.1090  146.6540 C   0  0  0  0  0  2  0  0  0  0  0  0
  188.0210  177.6700  148.7250 C   0  0  0  0  0  1  0  0  0  0  0  0
  189.1200  178.1430  147.7990 C   0  0  0  0  0  2  0  0  0  0  0  0
  1  5  2  0  0  0  0
  2  8  1  0  0  0  0
  2 49  1  0  0  0  0
  3  1  2  0  0  0  0
  4  8  2  0  0  0  0
  5  4  1  0  0  0  0
  6  9  2  0  0  0  0
  7  2  2  0  0  0  0
  9  5  1  0  0  0  0
  9  7  1  0  0  0  0
 11 10  2  0  0  0  0
 11  6  1  0  0  0  0
 12 11  1  0  0  0  0
 13 15  2  0  0  0  0
 14 16  1  0  0  0  0
 15 12  1  0  0  0  0
 16 12  2  0  0  0  0
 17 14  2  0  0  0  0
 17 13  1  0  0  0  0
 19 18  1  0  0  0  0
 19 13  1  0  0  0  0
 20 17  1  0  0  0  0
 21 20  1  0  0  0  0
 21 22  1  0  0  0  0
 23 22  1  0  0  0  0
 24 23  1  0  0  0  0
 25 28  1  1  0  0  0
 25 27  1  0  0  0  0
 26 24  1  6  0  0  0
 26 25  1  0  0  0  0
 26 27  1  0  0  0  0
 28 29  1  0  0  0  0
 29 30  1  0  0  0  0
 30 31  1  0  0  0  0
 31 33  1  0  0  0  0
 32 31  2  0  0  0  0
 34 45  1  6  0  0  0
 34 37  1  0  0  0  0
 34  3  1  0  0  0  0
 36 41  1  0  0  0  0
 37 40  2  6  0  0  0
 37 35  1  0  0  0  0
 38 35  1  0  0  0  0
 38 44  1  1  0  0  0
 39 37  1  0  0  0  0
 39 36  1  0  0  0  0
 41 38  1  0  0  0  0
 44 42  2  0  0  0  0
 44 43  1  0  0  0  0
 48 46  1  1  0  0  0
 48 47  2  0  0  0  0
 48 45  1  0  0  0  0
 49 51  1  0  0  0  0
 51 50  1  0  0  0  0
M  END
>  <MODEL>
5

>  <REMARK>
 VINA RESULT:      -6.7      2.795      7.923
  Name = 
  20 active torsions:
  status: ('A' for Active; 'I' for Inactive)
    1  A    between atoms: C_1  and  C_9
    2  A    between atoms: C_1  and  C_10
    3  A    between atoms: C_1  and  P_34
    4  A    between atoms: C_4  and  C_28
    5  A    between atoms: C_6  and  N_38
    6  A    between atoms: C_6  and  C_39
    7  A    between atoms: C_7  and  C_17
    8  A    between atoms: C_7  and  C_18
    9  A    between atoms: C_8  and  C_32
   10  A    between atoms: C_10  and  P_49
   11  A    between atoms: C_15  and  C_32
   12  A    between atoms: C_16  and  O_27
   13  A    between atoms: C_17  and  C_36
   14  A    between atoms: N_23  and  C_28
   15  A    between atoms: C_26  and  O_29
   16  A    between atoms: C_26  and  C_50
   17  A    between atoms: O_29  and  C_39
   18  A    between atoms: C_31  and  N_38
   19  A    between atoms: C_33  and  C_42
   20  A    between atoms: C_36  and  C_37
                            x       y       z     vdW  Elec       q    Type
                         _______ _______ _______ _____ _____    ______ ____

>  <TORSDO>
F 20

$$$$
=
 OpenBabel11032419263D

 51 54  0  0  1  0  0  0  0  0999 V2000
  189.5090  174.0620  136.8000 C   0  0  0  0  0  0  0  0  0  0  0  0
  193.6810  173.3250  136.5480 C   0  0  0  0  0  0  0  0  0  0  0  0
  188.2730  174.4080  137.1090 C   0  0  0  0  0  3  0  0  0  0  0  0
  191.3460  172.7490  135.7420 C   0  0  0  0  0  3  0  0  0  0  0  0
  190.8090  173.7680  136.6830 C   0  0  0  0  0  0  0  0  0  0  0  0
  191.2520  175.6060  138.1150 N   0  0  0  0  0  0  0  0  0  0  0  0
  193.2370  174.2390  137.4600 C   0  0  0  0  0  3  0  0  0  0  0  0
  192.6880  172.5700  135.6510 C   0  0  0  0  0  3  0  0  0  0  0  0
  191.7660  174.5900  137.5040 C   0  0  0  0  0  0  0  0  0  0  0  0
  192.7840  177.2570  138.7320 O   0  0  0  0  0  0  0  0  0  0  0  0
  191.7210  176.6800  138.9980 C   0  0  0  0  0  0  0  0  0  0  0  0
  190.9520  177.0130  140.2290 C   0  0  0  0  0  0  0  0  0  0  0  0
  190.6540  177.4880  142.5400 C   0  0  0  0  0  0  0  0  0  0  0  0
  188.7230  177.4050  141.1620 C   0  0  0  0  0  3  0  0  0  0  0  0
  191.5280  177.2370  141.4960 C   0  0  0  0  0  3  0  0  0  0  0  0
  189.5350  177.0870  140.1320 C   0  0  0  0  0  3  0  0  0  0  0  0
  189.2740  177.6590  142.4030 C   0  0  0  0  0  0  0  0  0  0  0  0
  191.6580  176.2400  144.4680 C   0  0  0  0  0  1  0  0  0  0  0  0
  191.3740  177.4380  143.7630 O   0  0  0  0  0  0  0  0  0  0  0  0
  188.1250  177.8790  143.3870 C   0  0  0  0  0  2  0  0  0  0  0  0
  188.1340  177.0320  144.5160 O   0  0  0  0  0  0  0  0  0  0  0  0
  188.0680  177.8760  145.6330 C   0  0  0  0  0  2  0  0  0  0  0  0
  186.7000  177.7560  146.3470 C   0  0  0  0  0  2  0  0  0  0  0  0
  185.9220  178.9420  146.0700 N   0  0  0  0  0  2  0  0  0  0  0  0
  184.5090  179.0470  144.0170 C   0  0  2  0  0  3  0  0  0  0  0  0
  184.6610  178.6040  145.4480 C   0  0  2  0  0  3  0  0  0  0  0  0
  183.9590  179.7860  144.9720 O   0  0  0  0  0  0  0  0  0  0  0  0
  183.4610  178.2530  143.2620 C   0  0  0  0  0  2  0  0  0  0  0  0
  183.4180  178.6270  141.7470 C   0  0  0  0  0  2  0  0  0  0  0  0
  184.7360  178.8090  140.9340 C   0  0  0  0  0  2  0  0  0  0  0  0
  184.5040  179.2110  139.4730 C   0  0  0  0  0  0  0  0  0  0  0  0
  184.2680  178.1600  138.5800 O   0  0  0  0  0  0  0  0  0  0  0  0
  184.2020  180.3420  139.0920 O   0  0  0  0  0  1  0  0  0  0  0  0
  187.2510  175.3710  136.4360 C   0  0  1  0  0  3  0  0  0  0  0  0
  184.1350  174.8140  137.0790 C   0  0  0  0  0  2  0  0  0  0  0  0
  184.7400  172.1060  136.8410 C   0  0  0  0  0  2  0  0  0  0  0  0
  185.5520  174.5910  135.9600 P   0  0  2  0  0  0  0  0  0  0  0  0
  182.9620  173.8920  136.6080 C   0  0  1  0  0  3  0  0  0  0  0  0
  185.4220  172.7840  135.6550 C   0  0  0  0  0  2  0  0  0  0  0  0
  185.0760  175.2330  134.6950 O   0  0  0  0  0  0  0  0  0  0  0  0
  183.2540  172.4230  136.8420 C   0  0  0  0  0  2  0  0  0  0  0  0
  180.9540  173.5410  137.9000 O   0  0  0  0  0  1  0  0  0  0  0  0
  180.9220  175.3200  136.4490 O   0  0  0  0  0  0  0  0  0  0  0  0
  181.5660  174.1950  136.9970 C   0  0  0  0  0  0  0  0  0  0  0  0
  187.0790  176.6770  137.3030 C   0  0  0  0  0  2  0  0  0  0  0  0
  189.0960  178.8100  137.3710 O   0  0  0  0  0  1  0  0  0  0  0  0
  187.1810  178.8870  135.4210 O   0  0  0  0  0  0  0  0  0  0  0  0
  187.6360  178.3000  136.7190 P   0  0  1  0  0  4  0  0  0  0  0  0
  195.0830  172.7590  136.6230 C   0  0  0  0  0  2  0  0  0  0  0  0
  196.2370  174.6680  135.3460 C   0  0  0  0  0  1  0  0  0  0  0  0
  196.3050  173.7500  136.5480 C   0  0  0  0  0  2  0  0  0  0  0  0
  1  3  2  0  0  0  0
  2 49  1  0  0  0  0
  2  7  2  0  0  0  0
  4  5  1  0  0  0  0
  5  1  2  0  0  0  0
  5  9  1  0  0  0  0
  6 11  1  0  0  0  0
  7  9  1  0  0  0  0
  8  4  2  0  0  0  0
  8  2  1  0  0  0  0
  9  6  2  0  0  0  0
 10 11  2  0  0  0  0
 11 12  1  0  0  0  0
 12 15  1  0  0  0  0
 13 19  1  0  0  0  0
 14 17  2  0  0  0  0
 15 13  2  0  0  0  0
 16 12  2  0  0  0  0
 16 14  1  0  0  0  0
 17 13  1  0  0  0  0
 17 20  1  0  0  0  0
 19 18  1  0  0  0  0
 20 21  1  0  0  0  0
 21 22  1  0  0  0  0
 22 23  1  0  0  0  0
 24 23  1  0  0  0  0
 25 28  1  6  0  0  0
 25 27  1  0  0  0  0
 25 26  1  0  0  0  0
 26 24  1  1  0  0  0
 27 26  1  0  0  0  0
 29 28  1  0  0  0  0
 30 29  1  0  0  0  0
 31 30  1  0  0  0  0
 32 31  2  0  0  0  0
 33 31  1  0  0  0  0
 34  3  1  1  0  0  0
 34 45  1  0  0  0  0
 36 41  1  0  0  0  0
 37 40  2  6  0  0  0
 37 34  1  0  0  0  0
 37 35  1  0  0  0  0
 38 41  1  0  0  0  0
 38 44  1  1  0  0  0
 38 35  1  0  0  0  0
 39 37  1  0  0  0  0
 39 36  1  0  0  0  0
 43 44  2  0  0  0  0
 44 42  1  0  0  0  0
 48 47  2  6  0  0  0
 48 45  1  0  0  0  0
 48 46  1  0  0  0  0
 50 51  1  0  0  0  0
 51 49  1  0  0  0  0
M  END
>  <MODEL>
6

>  <REMARK>
 VINA RESULT:      -6.5      2.623     10.902
  Name = 
  20 active torsions:
  status: ('A' for Active; 'I' for Inactive)
    1  A    between atoms: C_1  and  C_9
    2  A    between atoms: C_1  and  C_10
    3  A    between atoms: C_1  and  P_34
    4  A    between atoms: C_4  and  C_28
    5  A    between atoms: C_6  and  N_38
    6  A    between atoms: C_6  and  C_39
    7  A    between atoms: C_7  and  C_17
    8  A    between atoms: C_7  and  C_18
    9  A    between atoms: C_8  and  C_32
   10  A    between atoms: C_10  and  P_49
   11  A    between atoms: C_15  and  C_32
   12  A    between atoms: C_16  and  O_27
   13  A    between atoms: C_17  and  C_36
   14  A    between atoms: N_23  and  C_28
   15  A    between atoms: C_26  and  O_29
   16  A    between atoms: C_26  and  C_50
   17  A    between atoms: O_29  and  C_39
   18  A    between atoms: C_31  and  N_38
   19  A    between atoms: C_33  and  C_42
   20  A    between atoms: C_36  and  C_37
                            x       y       z     vdW  Elec       q    Type
                         _______ _______ _______ _____ _____    ______ ____

>  <TORSDO>
F 20

$$$$
=
 OpenBabel11032419263D

 51 54  0  0  1  0  0  0  0  0999 V2000
  184.5740  175.8950  136.4640 C   0  0  0  0  0  0  0  0  0  0  0  0
  180.9540  175.9950  138.6800 C   0  0  0  0  0  0  0  0  0  0  0  0
  185.7130  176.1220  135.8380 C   0  0  0  0  0  3  0  0  0  0  0  0
  182.3970  174.7910  136.9770 C   0  0  0  0  0  3  0  0  0  0  0  0
  183.4070  175.8740  137.1190 C   0  0  0  0  0  0  0  0  0  0  0  0
  184.1760  177.7490  138.3500 N   0  0  0  0  0  0  0  0  0  0  0  0
  181.8270  177.0380  138.8130 C   0  0  0  0  0  3  0  0  0  0  0  0
  181.2720  174.8270  137.7340 C   0  0  0  0  0  3  0  0  0  0  0  0
  183.1660  176.9810  138.1090 C   0  0  0  0  0  0  0  0  0  0  0  0
  184.6860  180.0070  138.6530 O   0  0  0  0  0  0  0  0  0  0  0  0
  184.4630  178.9150  139.1920 C   0  0  0  0  0  0  0  0  0  0  0  0
  184.5490  178.7570  140.6710 C   0  0  0  0  0  0  0  0  0  0  0  0
  185.6400  178.4470  142.7610 C   0  0  0  0  0  0  0  0  0  0  0  0
  183.2690  178.5810  142.7510 C   0  0  0  0  0  3  0  0  0  0  0  0
  185.7530  178.6360  141.3940 C   0  0  0  0  0  3  0  0  0  0  0  0
  183.3330  178.6960  141.4070 C   0  0  0  0  0  3  0  0  0  0  0  0
  184.4410  178.4940  143.4770 C   0  0  0  0  0  0  0  0  0  0  0  0
  187.5090  176.8180  143.1340 C   0  0  0  0  0  1  0  0  0  0  0  0
  186.9140  178.0970  143.2820 O   0  0  0  0  0  0  0  0  0  0  0  0
  184.0640  178.2630  144.9410 C   0  0  0  0  0  2  0  0  0  0  0  0
  185.1440  177.9420  145.7920 O   0  0  0  0  0  0  0  0  0  0  0  0
  185.5860  179.1580  146.3320 C   0  0  0  0  0  2  0  0  0  0  0  0
  186.9130  178.9790  147.1060 C   0  0  0  0  0  2  0  0  0  0  0  0
  187.2220  177.5690  147.1880 N   0  0  0  0  0  2  0  0  0  0  0  0
  189.4910  176.9240  146.3800 C   0  0  2  0  0  3  0  0  0  0  0  0
  188.6130  177.3590  147.5230 C   0  0  2  0  0  3  0  0  0  0  0  0
  189.0410  176.0020  147.2220 O   0  0  0  0  0  0  0  0  0  0  0  0
  190.9590  177.2180  146.6190 C   0  0  0  0  0  2  0  0  0  0  0  0
  191.6730  177.7340  145.3310 C   0  0  0  0  0  2  0  0  0  0  0  0
  191.1970  177.2760  143.9190 C   0  0  0  0  0  2  0  0  0  0  0  0
  191.1910  175.7540  143.7380 C   0  0  0  0  0  0  0  0  0  0  0  0
  190.3940  175.2640  142.6990 O   0  0  0  0  0  0  0  0  0  0  0  0
  192.0370  174.9860  144.1980 O   0  0  0  0  0  1  0  0  0  0  0  0
  187.1560  175.5780  136.0520 C   0  0  1  0  0  3  0  0  0  0  0  0
  189.6920  176.0750  137.9900 C   0  0  0  0  0  2  0  0  0  0  0  0
  187.9990  177.6700  139.5230 C   0  0  0  0  0  2  0  0  0  0  0  0
  188.3810  176.7750  136.9410 P   0  0  2  0  0  0  0  0  0  0  0  0
  190.3810  177.2330  138.7870 C   0  0  1  0  0  3  0  0  0  0  0  0
  187.7410  178.0730  138.0730 C   0  0  0  0  0  2  0  0  0  0  0  0
  189.1560  177.5180  135.8980 O   0  0  0  0  0  0  0  0  0  0  0  0
  189.4750  177.8180  139.8520 C   0  0  0  0  0  2  0  0  0  0  0  0
  192.6510  176.4180  138.7040 O   0  0  0  0  0  0  0  0  0  0  0  0
  192.1160  177.7310  140.5100 O   0  0  0  0  0  1  0  0  0  0  0  0
  191.7480  177.0620  139.3280 C   0  0  0  0  0  0  0  0  0  0  0  0
  187.1100  174.1620  136.7430 C   0  0  0  0  0  2  0  0  0  0  0  0
  187.6440  171.3240  136.2100 O   0  0  0  0  0  1  0  0  0  0  0  0
  189.6150  173.1430  135.6840 O   0  0  0  0  0  0  0  0  0  0  0  0
  188.3080  172.8590  136.3510 P   0  0  1  0  0  4  0  0  0  0  0  0
  179.5220  176.1070  139.1530 C   0  0  0  0  0  2  0  0  0  0  0  0
  179.1670  174.1190  140.7440 C   0  0  0  0  0  1  0  0  0  0  0  0
  179.1660  175.6270  140.6110 C   0  0  0  0  0  2  0  0  0  0  0  0
  1  5  2  0  0  0  0
  2  7  2  0  0  0  0
  2 49  1  0  0  0  0
  3  1  2  0  0  0  0
  4  5  1  0  0  0  0
  4  8  2  0  0  0  0
  5  9  1  0  0  0  0
  6 11  1  0  0  0  0
  8  2  1  0  0  0  0
  9  6  2  0  0  0  0
  9  7  1  0  0  0  0
 10 11  2  0  0  0  0
 11 12  1  0  0  0  0
 12 15  2  0  0  0  0
 12 16  1  0  0  0  0
 13 19  1  0  0  0  0
 13 17  2  0  0  0  0
 14 17  1  0  0  0  0
 15 13  1  0  0  0  0
 16 14  2  0  0  0  0
 17 20  1  0  0  0  0
 18 19  1  0  0  0  0
 20 21  1  0  0  0  0
 21 22  1  0  0  0  0
 22 23  1  0  0  0  0
 23 24  1  0  0  0  0
 25 28  1  1  0  0  0
 25 27  1  0  0  0  0
 25 26  1  0  0  0  0
 26 24  1  6  0  0  0
 27 26  1  0  0  0  0
 29 28  1  0  0  0  0
 30 29  1  0  0  0  0
 31 30  1  0  0  0  0
 31 33  1  0  0  0  0
 32 31  2  0  0  0  0
 34  3  1  1  0  0  0
 34 45  1  0  0  0  0
 34 37  1  0  0  0  0
 35 38  1  0  0  0  0
 36 41  1  0  0  0  0
 37 40  2  6  0  0  0
 37 35  1  0  0  0  0
 37 39  1  0  0  0  0
 38 44  1  1  0  0  0
 38 41  1  0  0  0  0
 39 36  1  0  0  0  0
 42 44  2  0  0  0  0
 44 43  1  0  0  0  0
 46 48  1  0  0  0  0
 48 47  2  6  0  0  0
 48 45  1  0  0  0  0
 49 51  1  0  0  0  0
 51 50  1  0  0  0  0
M  END
>  <MODEL>
7

>  <REMARK>
 VINA RESULT:      -6.5      2.720      7.710
  Name = 
  20 active torsions:
  status: ('A' for Active; 'I' for Inactive)
    1  A    between atoms: C_1  and  C_9
    2  A    between atoms: C_1  and  C_10
    3  A    between atoms: C_1  and  P_34
    4  A    between atoms: C_4  and  C_28
    5  A    between atoms: C_6  and  N_38
    6  A    between atoms: C_6  and  C_39
    7  A    between atoms: C_7  and  C_17
    8  A    between atoms: C_7  and  C_18
    9  A    between atoms: C_8  and  C_32
   10  A    between atoms: C_10  and  P_49
   11  A    between atoms: C_15  and  C_32
   12  A    between atoms: C_16  and  O_27
   13  A    between atoms: C_17  and  C_36
   14  A    between atoms: N_23  and  C_28
   15  A    between atoms: C_26  and  O_29
   16  A    between atoms: C_26  and  C_50
   17  A    between atoms: O_29  and  C_39
   18  A    between atoms: C_31  and  N_38
   19  A    between atoms: C_33  and  C_42
   20  A    between atoms: C_36  and  C_37
                            x       y       z     vdW  Elec       q    Type
                         _______ _______ _______ _____ _____    ______ ____

>  <TORSDO>
F 20

$$$$
=
 OpenBabel11032419263D

 51 54  0  0  1  0  0  0  0  0999 V2000
  186.8700  177.2500  143.2180 C   0  0  0  0  0  0  0  0  0  0  0  0
  183.1850  179.2260  143.9520 C   0  0  0  0  0  0  0  0  0  0  0  0
  187.9060  176.5770  142.7550 C   0  0  0  0  0  3  0  0  0  0  0  0
  185.3140  178.2280  144.9040 C   0  0  0  0  0  3  0  0  0  0  0  0
  185.7160  177.8570  143.5210 C   0  0  0  0  0  0  0  0  0  0  0  0
  185.3510  178.1090  141.1910 N   0  0  0  0  0  0  0  0  0  0  0  0
  183.4870  178.8680  142.6690 C   0  0  0  0  0  3  0  0  0  0  0  0
  184.1520  178.9010  145.1010 C   0  0  0  0  0  3  0  0  0  0  0  0
  184.8340  178.2490  142.3670 C   0  0  0  0  0  0  0  0  0  0  0  0
  185.7060  178.9360  139.0370 O   0  0  0  0  0  0  0  0  0  0  0  0
  184.9400  178.3350  139.8010 C   0  0  0  0  0  0  0  0  0  0  0  0
  183.5880  177.9000  139.3500 C   0  0  0  0  0  0  0  0  0  0  0  0
  181.5080  178.1070  138.2150 C   0  0  0  0  0  0  0  0  0  0  0  0
  181.8940  176.1380  139.4850 C   0  0  0  0  0  3  0  0  0  0  0  0
  182.7540  178.6450  138.4910 C   0  0  0  0  0  3  0  0  0  0  0  0
  183.0890  176.6610  139.8360 C   0  0  0  0  0  3  0  0  0  0  0  0
  181.0790  176.8400  138.6200 C   0  0  0  0  0  0  0  0  0  0  0  0
  180.4930  180.3940  138.0620 C   0  0  0  0  0  1  0  0  0  0  0  0
  180.7210  179.0880  137.5560 O   0  0  0  0  0  0  0  0  0  0  0  0
  179.7630  176.0710  138.4920 C   0  0  0  0  0  2  0  0  0  0  0  0
  179.6990  175.1720  137.4070 O   0  0  0  0  0  0  0  0  0  0  0  0
  179.8090  173.8880  137.9600 C   0  0  0  0  0  2  0  0  0  0  0  0
  180.9070  173.0620  137.2480 C   0  0  0  0  0  2  0  0  0  0  0  0
  181.7520  173.9590  136.4930 N   0  0  0  0  0  2  0  0  0  0  0  0
  184.0990  174.1210  137.3210 C   0  0  2  0  0  3  0  0  0  0  0  0
  183.1050  173.4530  136.4090 C   0  0  2  0  0  3  0  0  0  0  0  0
  184.0510  174.4990  136.0510 O   0  0  0  0  0  0  0  0  0  0  0  0
  185.3180  173.2620  137.5950 C   0  0  0  0  0  2  0  0  0  0  0  0
  186.6420  173.9610  137.1530 C   0  0  0  0  0  2  0  0  0  0  0  0
  187.3540  173.5530  135.8270 C   0  0  0  0  0  2  0  0  0  0  0  0
  188.7670  172.9960  136.0370 C   0  0  0  0  0  0  0  0  0  0  0  0
  189.4050  173.3780  137.2210 O   0  0  0  0  0  1  0  0  0  0  0  0
  189.2410  172.0320  135.4360 O   0  0  0  0  0  0  0  0  0  0  0  0
  189.3670  176.9950  142.4190 C   0  0  1  0  0  3  0  0  0  0  0  0
  188.7770  176.7640  139.2520 C   0  0  0  0  0  2  0  0  0  0  0  0
  191.5180  176.3800  138.9360 C   0  0  0  0  0  2  0  0  0  0  0  0
  189.6780  177.5790  140.6060 P   0  0  2  0  0  0  0  0  0  0  0  0
  189.3790  177.2310  137.8850 C   0  0  1  0  0  3  0  0  0  0  0  0
  191.3770  177.5490  139.9080 C   0  0  0  0  0  2  0  0  0  0  0  0
  189.2350  179.0030  140.4860 O   0  0  0  0  0  0  0  0  0  0  0  0
  190.7690  176.6760  137.6480 C   0  0  0  0  0  2  0  0  0  0  0  0
  187.4410  177.6870  136.5210 O   0  0  0  0  0  1  0  0  0  0  0  0
  189.1390  176.5260  135.5040 O   0  0  0  0  0  0  0  0  0  0  0  0
  188.5810  177.1360  136.6420 C   0  0  0  0  0  0  0  0  0  0  0  0
  189.8920  178.0430  143.4740 C   0  0  0  0  0  2  0  0  0  0  0  0
  191.6810  177.5010  145.7390 O   0  0  0  0  0  1  0  0  0  0  0  0
  189.0250  177.9060  146.2430 O   0  0  0  0  0  0  0  0  0  0  0  0
  190.0870  177.6290  145.2270 P   0  0  1  0  0  4  0  0  0  0  0  0
  181.7780  179.6140  144.3480 C   0  0  0  0  0  2  0  0  0  0  0  0
  179.2400  179.3250  144.0600 C   0  0  0  0  0  1  0  0  0  0  0  0
  180.5910  178.6500  143.9680 C   0  0  0  0  0  2  0  0  0  0  0  0
  1  5  2  0  0  0  0
  2 49  1  0  0  0  0
  2  8  1  0  0  0  0
  3  1  2  0  0  0  0
  4  8  2  0  0  0  0
  5  4  1  0  0  0  0
  6  9  2  0  0  0  0
  7  2  2  0  0  0  0
  9  7  1  0  0  0  0
  9  5  1  0  0  0  0
 10 11  2  0  0  0  0
 11  6  1  0  0  0  0
 12 11  1  0  0  0  0
 12 16  1  0  0  0  0
 13 15  1  0  0  0  0
 13 17  2  0  0  0  0
 14 16  2  0  0  0  0
 15 12  2  0  0  0  0
 17 14  1  0  0  0  0
 19 18  1  0  0  0  0
 19 13  1  0  0  0  0
 20 17  1  0  0  0  0
 21 22  1  0  0  0  0
 21 20  1  0  0  0  0
 23 22  1  0  0  0  0
 24 23  1  0  0  0  0
 25 28  1  6  0  0  0
 26 24  1  1  0  0  0
 26 25  1  0  0  0  0
 27 26  1  0  0  0  0
 27 25  1  0  0  0  0
 29 28  1  0  0  0  0
 30 31  1  0  0  0  0
 30 29  1  0  0  0  0
 31 32  1  0  0  0  0
 33 31  2  0  0  0  0
 34  3  1  6  0  0  0
 34 45  1  0  0  0  0
 35 37  1  0  0  0  0
 36 39  1  0  0  0  0
 37 40  2  6  0  0  0
 37 34  1  0  0  0  0
 38 44  1  6  0  0  0
 38 35  1  0  0  0  0
 39 37  1  0  0  0  0
 41 38  1  0  0  0  0
 41 36  1  0  0  0  0
 42 44  1  0  0  0  0
 43 44  2  0  0  0  0
 45 48  1  0  0  0  0
 48 46  1  1  0  0  0
 48 47  2  0  0  0  0
 51 50  1  0  0  0  0
 51 49  1  0  0  0  0
M  END
>  <MODEL>
8

>  <REMARK>
 VINA RESULT:      -6.2      2.490      5.758
  Name = 
  20 active torsions:
  status: ('A' for Active; 'I' for Inactive)
    1  A    between atoms: C_1  and  C_9
    2  A    between atoms: C_1  and  C_10
    3  A    between atoms: C_1  and  P_34
    4  A    between atoms: C_4  and  C_28
    5  A    between atoms: C_6  and  N_38
    6  A    between atoms: C_6  and  C_39
    7  A    between atoms: C_7  and  C_17
    8  A    between atoms: C_7  and  C_18
    9  A    between atoms: C_8  and  C_32
   10  A    between atoms: C_10  and  P_49
   11  A    between atoms: C_15  and  C_32
   12  A    between atoms: C_16  and  O_27
   13  A    between atoms: C_17  and  C_36
   14  A    between atoms: N_23  and  C_28
   15  A    between atoms: C_26  and  O_29
   16  A    between atoms: C_26  and  C_50
   17  A    between atoms: O_29  and  C_39
   18  A    between atoms: C_31  and  N_38
   19  A    between atoms: C_33  and  C_42
   20  A    between atoms: C_36  and  C_37
                            x       y       z     vdW  Elec       q    Type
                         _______ _______ _______ _____ _____    ______ ____

>  <TORSDO>
F 20

$$$$
=
 OpenBabel11032419263D

 51 54  0  0  1  0  0  0  0  0999 V2000
  192.7270  175.3210  135.9640 C   0  0  0  0  0  0  0  0  0  0  0  0
  189.0860  177.3560  136.7510 C   0  0  0  0  0  0  0  0  0  0  0  0
  193.9610  174.8580  135.8970 C   0  0  0  0  0  3  0  0  0  0  0  0
  190.4060  175.8340  135.2100 C   0  0  0  0  0  3  0  0  0  0  0  0
  191.5590  175.9490  136.1430 C   0  0  0  0  0  0  0  0  0  0  0  0
  192.3520  176.6080  138.2780 N   0  0  0  0  0  0  0  0  0  0  0  0
  190.1280  177.5310  137.6160 C   0  0  0  0  0  3  0  0  0  0  0  0
  189.2400  176.4580  135.5130 C   0  0  0  0  0  3  0  0  0  0  0  0
  191.4040  176.7430  137.4120 C   0  0  0  0  0  0  0  0  0  0  0  0
  193.8290  177.4940  139.8540 O   0  0  0  0  0  0  0  0  0  0  0  0
  192.6720  177.1280  139.6120 C   0  0  0  0  0  0  0  0  0  0  0  0
  191.6230  177.1450  140.6710 C   0  0  0  0  0  0  0  0  0  0  0  0
  190.7700  176.9690  142.8840 C   0  0  0  0  0  0  0  0  0  0  0  0
  189.2290  177.3840  141.1240 C   0  0  0  0  0  3  0  0  0  0  0  0
  191.8730  176.9720  142.0470 C   0  0  0  0  0  3  0  0  0  0  0  0
  190.2710  177.3220  140.2680 C   0  0  0  0  0  3  0  0  0  0  0  0
  189.4610  177.2480  142.4790 C   0  0  0  0  0  0  0  0  0  0  0  0
  191.1940  177.3730  145.3210 C   0  0  0  0  0  1  0  0  0  0  0  0
  191.1740  176.5370  144.1740 O   0  0  0  0  0  0  0  0  0  0  0  0
  188.1050  177.2470  143.1860 C   0  0  0  0  0  2  0  0  0  0  0  0
  188.0900  177.8710  144.4520 O   0  0  0  0  0  0  0  0  0  0  0  0
  187.2310  177.1050  145.2510 C   0  0  0  0  0  2  0  0  0  0  0  0
  186.6310  177.9500  146.4000 C   0  0  0  0  0  2  0  0  0  0  0  0
  185.9200  179.0730  145.8330 N   0  0  0  0  0  2  0  0  0  0  0  0
  184.9130  179.1560  143.5530 C   0  0  2  0  0  3  0  0  0  0  0  0
  184.8540  178.6290  144.9630 C   0  0  2  0  0  3  0  0  0  0  0  0
  184.1000  179.7480  144.4180 O   0  0  0  0  0  0  0  0  0  0  0  0
  184.1410  178.2980  142.5700 C   0  0  0  0  0  2  0  0  0  0  0  0
  184.4570  178.6710  141.0880 C   0  0  0  0  0  2  0  0  0  0  0  0
  183.3110  178.7990  140.0380 C   0  0  0  0  0  2  0  0  0  0  0  0
  181.9530  178.3030  140.5490 C   0  0  0  0  0  0  0  0  0  0  0  0
  181.1690  179.2490  141.2150 O   0  0  0  0  0  1  0  0  0  0  0  0
  181.3840  177.2830  140.1620 O   0  0  0  0  0  0  0  0  0  0  0  0
  194.5870  173.4780  136.2560 C   0  0  1  0  0  3  0  0  0  0  0  0
  196.0520  174.9950  138.7040 C   0  0  0  0  0  2  0  0  0  0  0  0
  198.4510  174.3990  137.4210 C   0  0  0  0  0  2  0  0  0  0  0  0
  195.8630  173.4860  137.7040 P   0  0  2  0  0  0  0  0  0  0  0  0
  197.3020  174.8390  139.6320 C   0  0  1  0  0  3  0  0  0  0  0  0
  197.6310  173.1120  137.3750 C   0  0  0  0  0  2  0  0  0  0  0  0
  195.4340  172.4720  138.7170 O   0  0  0  0  0  0  0  0  0  0  0  0
  198.6030  174.8720  138.8570 C   0  0  0  0  0  2  0  0  0  0  0  0
  196.9170  176.8110  140.9680 O   0  0  0  0  0  0  0  0  0  0  0  0
  198.0240  175.0890  142.0070 O   0  0  0  0  0  1  0  0  0  0  0  0
  197.4280  175.6510  140.8630 C   0  0  0  0  0  0  0  0  0  0  0  0
  193.4540  172.4040  136.4740 C   0  0  0  0  0  2  0  0  0  0  0  0
  194.9380  169.8700  136.5190 O   0  0  0  0  0  1  0  0  0  0  0  0
  192.4620  169.9120  135.3600 O   0  0  0  0  0  0  0  0  0  0  0  0
  193.6200  170.6970  135.8890 P   0  0  1  0  0  4  0  0  0  0  0  0
  187.8930  178.2870  136.7610 C   0  0  0  0  0  2  0  0  0  0  0  0
  185.4440  177.5060  136.7820 C   0  0  0  0  0  1  0  0  0  0  0  0
  186.6360  177.8980  137.6280 C   0  0  0  0  0  2  0  0  0  0  0  0
  1  5  2  0  0  0  0
  2 49  1  0  0  0  0
  2  7  2  0  0  0  0
  3  1  2  0  0  0  0
  4  8  2  0  0  0  0
  4  5  1  0  0  0  0
  5  9  1  0  0  0  0
  6 11  1  0  0  0  0
  8  2  1  0  0  0  0
  9  7  1  0  0  0  0
  9  6  2  0  0  0  0
 11 10  2  0  0  0  0
 11 12  1  0  0  0  0
 12 15  1  0  0  0  0
 13 19  1  0  0  0  0
 14 17  2  0  0  0  0
 15 13  2  0  0  0  0
 16 12  2  0  0  0  0
 16 14  1  0  0  0  0
 17 13  1  0  0  0  0
 17 20  1  0  0  0  0
 19 18  1  0  0  0  0
 20 21  1  0  0  0  0
 21 22  1  0  0  0  0
 22 23  1  0  0  0  0
 24 23  1  0  0  0  0
 25 28  1  6  0  0  0
 25 27  1  0  0  0  0
 25 26  1  0  0  0  0
 26 24  1  1  0  0  0
 27 26  1  0  0  0  0
 29 28  1  0  0  0  0
 30 31  1  0  0  0  0
 30 29  1  0  0  0  0
 31 32  1  0  0  0  0
 33 31  2  0  0  0  0
 34  3  1  1  0  0  0
 34 45  1  0  0  0  0
 34 37  1  0  0  0  0
 35 38  1  0  0  0  0
 36 41  1  0  0  0  0
 37 35  1  0  0  0  0
 37 40  2  1  0  0  0
 38 44  1  1  0  0  0
 39 36  1  0  0  0  0
 39 37  1  0  0  0  0
 41 38  1  0  0  0  0
 44 42  2  0  0  0  0
 44 43  1  0  0  0  0
 48 47  2  1  0  0  0
 48 45  1  0  0  0  0
 48 46  1  0  0  0  0
 49 51  1  0  0  0  0
 50 51  1  0  0  0  0
M  END
>  <MODEL>
9

>  <REMARK>
 VINA RESULT:      -6.2      3.533      9.879
  Name = 
  20 active torsions:
  status: ('A' for Active; 'I' for Inactive)
    1  A    between atoms: C_1  and  C_9
    2  A    between atoms: C_1  and  C_10
    3  A    between atoms: C_1  and  P_34
    4  A    between atoms: C_4  and  C_28
    5  A    between atoms: C_6  and  N_38
    6  A    between atoms: C_6  and  C_39
    7  A    between atoms: C_7  and  C_17
    8  A    between atoms: C_7  and  C_18
    9  A    between atoms: C_8  and  C_32
   10  A    between atoms: C_10  and  P_49
   11  A    between atoms: C_15  and  C_32
   12  A    between atoms: C_16  and  O_27
   13  A    between atoms: C_17  and  C_36
   14  A    between atoms: N_23  and  C_28
   15  A    between atoms: C_26  and  O_29
   16  A    between atoms: C_26  and  C_50
   17  A    between atoms: O_29  and  C_39
   18  A    between atoms: C_31  and  N_38
   19  A    between atoms: C_33  and  C_42
   20  A    between atoms: C_36  and  C_37
                            x       y       z     vdW  Elec       q    Type
                         _______ _______ _______ _____ _____    ______ ____

>  <TORSDO>
F 20

$$$$
