=
 OpenBabel11042411143D

 54 62  0  0  1  0  0  0  0  0999 V2000
  182.8570  174.2410  137.3260 C   0  0  0  0  0  3  0  0  0  0  0  0
  182.3180  175.2470  138.1250 C   0  0  0  0  0  0  0  0  0  0  0  0
  182.2490  177.3330  139.1670 C   0  0  0  0  0  0  0  0  0  0  0  0
  181.0440  176.7950  139.6030 C   0  0  0  0  0  0  0  0  0  0  0  0
  180.6560  179.8440  139.9730 C   0  0  0  0  0  0  0  0  0  0  0  0
  180.8760  175.2270  138.9800 S   0  0  0  0  0  0  0  0  0  0  0  0
  184.1830  176.7150  137.7000 C   0  0  0  0  0  3  0  0  0  0  0  0
  184.0870  174.4900  136.6970 C   0  0  0  0  0  3  0  0  0  0  0  0
  182.7360  178.6000  139.6180 N   0  0  0  0  0  0  0  0  0  0  0  0
  182.5120  180.9480  138.7540 C   0  0  0  0  0  1  0  0  0  0  0  0
  180.1280  177.4130  140.5700 C   0  0  0  0  0  0  0  0  0  0  0  0
  182.9620  176.4610  138.3270 C   0  0  0  0  0  0  0  0  0  0  0  0
  179.9840  178.7380  140.7000 C   0  0  0  0  0  3  0  0  0  0  0  0
  184.7450  175.7280  136.8680 C   0  0  0  0  0  0  0  0  0  0  0  0
  181.9180  179.7770  139.4770 C   0  0  0  0  0  0  0  0  0  0  0  0
  186.0580  175.9750  136.1950 C   0  0  1  0  0  3  0  0  0  0  0  0
  187.1830  175.6180  137.0980 C   0  0  1  0  0  3  0  0  0  0  0  0
  186.7640  174.7590  136.0660 O   0  0  0  0  0  0  0  0  0  0  0  0
  190.2180  174.7500  136.0690 C   0  0  2  0  0  3  0  0  0  0  0  0
  188.3500  177.7060  136.4680 O   0  0  0  0  0  0  0  0  0  0  0  0
  189.5180  176.1990  137.8710 C   0  0  1  0  0  3  0  0  0  0  0  0
  189.1210  175.6310  135.5150 C   0  0  0  0  0  2  0  0  0  0  0  0
  189.1770  179.7070  137.2830 O   0  0  0  0  0  0  0  0  0  0  0  0
  190.7090  175.4400  137.3220 C   0  0  0  0  0  2  0  0  0  0  0  0
  191.3420  174.6210  135.0620 C   0  0  0  0  0  1  0  0  0  0  0  0
  189.9400  177.6220  138.2370 C   0  0  0  0  0  2  0  0  0  0  0  0
  189.1480  178.4490  137.3070 C   0  0  0  0  0  0  0  0  0  0  0  0
  188.5010  176.3150  136.7210 C   0  0  1  0  0  0  0  0  0  0  0  0
  179.5770  181.6990  141.0000 O   0  0  0  0  0  0  0  0  0  0  0  0
  179.8860  181.1120  139.9260 C   0  0  0  0  0  0  0  0  0  0  0  0
  179.5380  183.0730  138.4340 O   0  0  0  0  0  1  0  0  0  0  0  0
  178.9950  180.9650  137.7360 O   0  0  0  0  0  0  0  0  0  0  0  0
  179.4610  181.7020  138.6440 C   0  0  0  0  0  0  0  0  0  0  0  0
  179.6560  176.1970  142.6250 O   0  0  0  0  0  1  0  0  0  0  0  0
  179.3100  176.5490  141.3640 N   0  0  0  0  0  2  0  0  0  0  0  0
  184.1110  178.6870  140.1170 C   0  0  1  0  0  3  0  0  0  0  0  0
  184.8630  179.5660  139.3360 O   0  0  0  0  0  1  0  0  0  0  0  0
  183.2380  178.2270  142.3990 C   0  0  0  0  0  2  0  0  0  0  0  0
  184.1410  179.1210  141.5740 C   0  0  1  0  0  3  0  0  0  0  0  0
  184.7370  178.0010  142.4020 C   0  0  1  0  0  3  0  0  0  0  0  0
  185.3630  178.6000  143.6470 C   0  0  0  0  0  2  0  0  0  0  0  0
  188.3000  177.0200  143.2000 C   0  0  1  0  0  3  0  0  0  0  0  0
  190.4840  176.4420  142.4630 C   0  0  0  0  0  1  0  0  0  0  0  0
  185.7610  177.8520  145.9860 C   0  0  0  0  0  2  0  0  0  0  0  0
  189.7400  177.3260  143.3450 N   0  0  0  0  0  0  0  0  0  0  0  0
  189.5310  177.9070  145.7250 C   0  0  0  0  0  2  0  0  0  0  0  0
  185.9960  177.5120  144.5020 C   0  0  2  0  0  3  0  0  0  0  0  0
  190.2010  177.0000  144.6970 C   0  0  0  0  0  2  0  0  0  0  0  0
  187.3630  178.4890  147.8980 C   0  0  0  0  0  1  0  0  0  0  0  0
  187.4940  177.5510  144.3680 C   0  0  0  0  0  0  0  0  0  0  0  0
  187.0860  178.1080  146.5220 N   0  0  0  0  0  0  0  0  0  0  0  0
  188.0510  177.8580  145.5220 C   0  0  0  0  0  0  0  0  0  0  0  0
  187.7620  177.6120  141.8990 C   0  0  0  0  0  2  0  0  0  0  0  0
  188.3120  178.8760  141.6810 O   0  0  0  0  0  1  0  0  0  0  0  0
  1  2  1  0  0  0  0
  2 12  2  0  0  0  0
  2  6  1  0  0  0  0
  3  4  2  0  0  0  0
  3  9  1  0  0  0  0
  4 11  1  0  0  0  0
  5 13  1  0  0  0  0
  6  4  1  0  0  0  0
  7 12  1  0  0  0  0
  8 14  1  0  0  0  0
  8  1  2  0  0  0  0
  9 36  1  0  0  0  0
 10 15  1  0  0  0  0
 11 13  2  0  0  0  0
 11 35  1  0  0  0  0
 12  3  1  0  0  0  0
 14  7  2  0  0  0  0
 15  9  1  0  0  0  0
 15  5  2  0  0  0  0
 16 14  1  1  0  0  0
 16 17  1  0  0  0  0
 17 18  1  6  0  0  0
 18 16  1  0  0  0  0
 19 25  1  6  0  0  0
 19 24  1  0  0  0  0
 20 28  1  0  0  0  0
 20 27  1  0  0  0  0
 21 24  1  6  0  0  0
 21 26  1  0  0  0  0
 22 19  1  0  0  0  0
 23 27  2  0  0  0  0
 27 26  1  0  0  0  0
 28 22  1  6  0  0  0
 28 17  1  0  0  0  0
 28 21  1  0  0  0  0
 30  5  1  0  0  0  0
 30 29  2  0  0  0  0
 31 33  1  0  0  0  0
 32 33  2  0  0  0  0
 33 30  1  0  0  0  0
 35 34  1  0  0  0  0
 36 37  1  6  0  0  0
 38 40  1  0  0  0  0
 39 36  1  6  0  0  0
 39 38  1  0  0  0  0
 39 40  1  0  0  0  0
 40 41  1  1  0  0  0
 42 53  1  6  0  0  0
 42 45  1  0  0  0  0
 42 50  1  0  0  0  0
 43 45  1  0  0  0  0
 44 51  1  0  0  0  0
 45 48  1  0  0  0  0
 47 41  1  6  0  0  0
 47 44  1  0  0  0  0
 48 46  1  0  0  0  0
 50 47  1  0  0  0  0
 50 52  2  0  0  0  0
 51 49  1  0  0  0  0
 52 46  1  0  0  0  0
 52 51  1  0  0  0  0
 54 53  1  0  0  0  0
M  END
>  <MODEL>
1

>  <REMARK>
 VINA RESULT:      -9.3      0.000      0.000
  Name = 
  10 active torsions:
  status: ('A' for Active; 'I' for Inactive)
    1  A    between atoms: C_3  and  C_9
    2  A    between atoms: C_5  and  C_14
    3  A    between atoms: C_5  and  C_52
    4  A    between atoms: C_16  and  C_39
    5  A    between atoms: C_27  and  C_44
    6  A    between atoms: N_29  and  C_39
    7  A    between atoms: C_34  and  C_47
    8  A    between atoms: C_35  and  N_40
    9  A    between atoms: C_37  and  C_44
   10  A    between atoms: C_46  and  C_54
                            x       y       z     vdW  Elec       q    Type
                         _______ _______ _______ _____ _____    ______ ____

>  <TORSDO>
F 10

$$$$
=
 OpenBabel11042411143D

 54 62  0  0  1  0  0  0  0  0999 V2000
  182.8100  174.1490  137.5240 C   0  0  0  0  0  3  0  0  0  0  0  0
  182.2900  175.1920  138.2880 C   0  0  0  0  0  0  0  0  0  0  0  0
  182.2580  177.3180  139.2490 C   0  0  0  0  0  0  0  0  0  0  0  0
  181.0480  176.8140  139.7130 C   0  0  0  0  0  0  0  0  0  0  0  0
  180.7070  179.8810  139.9680 C   0  0  0  0  0  0  0  0  0  0  0  0
  180.8530  175.2260  139.1510 S   0  0  0  0  0  0  0  0  0  0  0  0
  184.1740  176.6160  137.7960 C   0  0  0  0  0  3  0  0  0  0  0  0
  184.0390  174.3550  136.8800 C   0  0  0  0  0  3  0  0  0  0  0  0
  182.7670  178.5940  139.6490 N   0  0  0  0  0  0  0  0  0  0  0  0
  182.5720  180.9100  138.6980 C   0  0  0  0  0  1  0  0  0  0  0  0
  180.1470  177.4820  140.6600 C   0  0  0  0  0  0  0  0  0  0  0  0
  182.9530  176.4030  138.4390 C   0  0  0  0  0  0  0  0  0  0  0  0
  180.0240  178.8130  140.7400 C   0  0  0  0  0  3  0  0  0  0  0  0
  184.7160  175.5890  137.0000 C   0  0  0  0  0  0  0  0  0  0  0  0
  181.9650  179.7760  139.4680 C   0  0  0  0  0  0  0  0  0  0  0  0
  186.0280  175.7910  136.3100 C   0  0  1  0  0  3  0  0  0  0  0  0
  187.1400  175.2450  137.1320 C   0  0  1  0  0  3  0  0  0  0  0  0
  186.6190  174.5380  136.0330 O   0  0  0  0  0  0  0  0  0  0  0  0
  188.4900  178.2700  136.9090 C   0  0  2  0  0  3  0  0  0  0  0  0
  189.5720  174.9220  136.8260 O   0  0  0  0  0  0  0  0  0  0  0  0
  188.4890  176.4240  135.3500 C   0  0  1  0  0  3  0  0  0  0  0  0
  188.7990  177.0260  137.7100 C   0  0  0  0  0  2  0  0  0  0  0  0
  191.1820  174.0760  135.3960 O   0  0  0  0  0  0  0  0  0  0  0  0
  188.7630  177.9100  135.4650 C   0  0  0  0  0  2  0  0  0  0  0  0
  189.3850  179.4100  137.3460 C   0  0  0  0  0  1  0  0  0  0  0  0
  189.6340  175.7470  134.5940 C   0  0  0  0  0  2  0  0  0  0  0  0
  190.2120  174.8480  135.6100 C   0  0  0  0  0  0  0  0  0  0  0  0
  188.5040  175.8600  136.7830 C   0  0  1  0  0  0  0  0  0  0  0  0
  179.6540  181.7850  140.9300 O   0  0  0  0  0  0  0  0  0  0  0  0
  179.9560  181.1570  139.8770 C   0  0  0  0  0  0  0  0  0  0  0  0
  179.2420  180.8670  137.5100 O   0  0  0  0  0  0  0  0  0  0  0  0
  179.4800  182.9550  138.4100 O   0  0  0  0  0  1  0  0  0  0  0  0
  179.5400  181.7090  138.5750 C   0  0  0  0  0  0  0  0  0  0  0  0
  179.4740  176.6240  142.8360 O   0  0  0  0  0  1  0  0  0  0  0  0
  179.3220  176.6610  141.4910 N   0  0  0  0  0  2  0  0  0  0  0  0
  184.1450  178.6790  140.1370 C   0  0  1  0  0  3  0  0  0  0  0  0
  184.8960  179.5460  139.3410 O   0  0  0  0  0  1  0  0  0  0  0  0
  183.2660  178.2640  142.4250 C   0  0  0  0  0  2  0  0  0  0  0  0
  184.1890  179.1270  141.5890 C   0  0  1  0  0  3  0  0  0  0  0  0
  184.7590  178.0010  142.4280 C   0  0  1  0  0  3  0  0  0  0  0  0
  185.4010  178.5980  143.6660 C   0  0  0  0  0  2  0  0  0  0  0  0
  188.3480  177.0400  143.2050 C   0  0  1  0  0  3  0  0  0  0  0  0
  190.5350  176.4810  142.4610 C   0  0  0  0  0  1  0  0  0  0  0  0
  185.8060  177.8350  145.9980 C   0  0  0  0  0  2  0  0  0  0  0  0
  189.7860  177.3550  143.3510 N   0  0  0  0  0  0  0  0  0  0  0  0
  189.5750  177.9170  145.7350 C   0  0  0  0  0  2  0  0  0  0  0  0
  186.0420  177.5080  144.5120 C   0  0  2  0  0  3  0  0  0  0  0  0
  190.2510  177.0210  144.7000 C   0  0  0  0  0  2  0  0  0  0  0  0
  187.4060  178.4690  147.9130 C   0  0  0  0  0  1  0  0  0  0  0  0
  187.5390  177.5580  144.3770 C   0  0  0  0  0  0  0  0  0  0  0  0
  187.1300  178.0960  146.5350 N   0  0  0  0  0  0  0  0  0  0  0  0
  188.0960  177.8600  145.5330 C   0  0  0  0  0  0  0  0  0  0  0  0
  187.8060  177.6380  141.9080 C   0  0  0  0  0  2  0  0  0  0  0  0
  188.4400  178.8510  141.6330 O   0  0  0  0  0  1  0  0  0  0  0  0
  1  2  1  0  0  0  0
  2 12  2  0  0  0  0
  2  6  1  0  0  0  0
  3  9  1  0  0  0  0
  3  4  2  0  0  0  0
  4 11  1  0  0  0  0
  5 13  1  0  0  0  0
  6  4  1  0  0  0  0
  7 12  1  0  0  0  0
  8 14  1  0  0  0  0
  8  1  2  0  0  0  0
  9 36  1  0  0  0  0
 10 15  1  0  0  0  0
 11 13  2  0  0  0  0
 11 35  1  0  0  0  0
 12  3  1  0  0  0  0
 14  7  2  0  0  0  0
 15  9  1  0  0  0  0
 15  5  2  0  0  0  0
 16 14  1  1  0  0  0
 16 17  1  0  0  0  0
 17 18  1  6  0  0  0
 18 16  1  0  0  0  0
 19 25  1  1  0  0  0
 19 22  1  0  0  0  0
 21 26  1  6  0  0  0
 21 24  1  0  0  0  0
 21 28  1  0  0  0  0
 23 27  2  0  0  0  0
 24 19  1  0  0  0  0
 26 27  1  0  0  0  0
 27 20  1  0  0  0  0
 28 20  1  0  0  0  0
 28 17  1  0  0  0  0
 28 22  1  1  0  0  0
 30  5  1  0  0  0  0
 30 29  2  0  0  0  0
 31 33  2  0  0  0  0
 32 33  1  0  0  0  0
 33 30  1  0  0  0  0
 35 34  1  0  0  0  0
 36 37  1  6  0  0  0
 38 40  1  0  0  0  0
 39 36  1  6  0  0  0
 39 38  1  0  0  0  0
 39 40  1  0  0  0  0
 40 41  1  1  0  0  0
 42 53  1  6  0  0  0
 42 45  1  0  0  0  0
 42 50  1  0  0  0  0
 43 45  1  0  0  0  0
 44 51  1  0  0  0  0
 45 48  1  0  0  0  0
 47 41  1  6  0  0  0
 47 44  1  0  0  0  0
 48 46  1  0  0  0  0
 50 47  1  0  0  0  0
 50 52  2  0  0  0  0
 51 49  1  0  0  0  0
 52 46  1  0  0  0  0
 52 51  1  0  0  0  0
 54 53  1  0  0  0  0
M  END
>  <MODEL>
2

>  <REMARK>
 VINA RESULT:      -8.4      0.872      1.774
  Name = 
  10 active torsions:
  status: ('A' for Active; 'I' for Inactive)
    1  A    between atoms: C_3  and  C_9
    2  A    between atoms: C_5  and  C_14
    3  A    between atoms: C_5  and  C_52
    4  A    between atoms: C_16  and  C_39
    5  A    between atoms: C_27  and  C_44
    6  A    between atoms: N_29  and  C_39
    7  A    between atoms: C_34  and  C_47
    8  A    between atoms: C_35  and  N_40
    9  A    between atoms: C_37  and  C_44
   10  A    between atoms: C_46  and  C_54
                            x       y       z     vdW  Elec       q    Type
                         _______ _______ _______ _____ _____    ______ ____

>  <TORSDO>
F 10

$$$$
=
 OpenBabel11042411143D

 54 62  0  0  1  0  0  0  0  0999 V2000
  183.2950  174.2410  136.8440 C   0  0  0  0  0  3  0  0  0  0  0  0
  182.5730  175.2070  137.5410 C   0  0  0  0  0  0  0  0  0  0  0  0
  182.2000  177.2870  138.5290 C   0  0  0  0  0  0  0  0  0  0  0  0
  180.9870  176.6630  138.7950 C   0  0  0  0  0  0  0  0  0  0  0  0
  180.3280  179.6770  139.0570 C   0  0  0  0  0  0  0  0  0  0  0  0
  181.0260  175.0840  138.1780 S   0  0  0  0  0  0  0  0  0  0  0  0
  184.3670  176.8090  137.3690 C   0  0  0  0  0  3  0  0  0  0  0  0
  184.5810  174.5780  136.3970 C   0  0  0  0  0  3  0  0  0  0  0  0
  182.5220  178.5900  139.0270 N   0  0  0  0  0  0  0  0  0  0  0  0
  182.2560  180.9100  138.1040 C   0  0  0  0  0  1  0  0  0  0  0  0
  179.8970  177.2150  139.6080 C   0  0  0  0  0  0  0  0  0  0  0  0
  183.0900  176.4670  137.8150 C   0  0  0  0  0  0  0  0  0  0  0  0
  179.6390  178.5260  139.6960 C   0  0  0  0  0  3  0  0  0  0  0  0
  185.1150  175.8620  136.6430 C   0  0  0  0  0  0  0  0  0  0  0  0
  181.6500  179.7010  138.7510 C   0  0  0  0  0  0  0  0  0  0  0  0
  186.4910  176.2040  136.1630 C   0  0  1  0  0  3  0  0  0  0  0  0
  187.5090  175.7950  137.1650 C   0  0  1  0  0  3  0  0  0  0  0  0
  187.2520  175.0230  136.0180 O   0  0  0  0  0  0  0  0  0  0  0  0
  190.7380  175.0770  136.8680 C   0  0  2  0  0  3  0  0  0  0  0  0
  188.6670  177.9140  136.6300 O   0  0  0  0  0  0  0  0  0  0  0  0
  189.5890  176.5890  138.3620 C   0  0  1  0  0  3  0  0  0  0  0  0
  189.7380  175.8400  136.0290 C   0  0  0  0  0  2  0  0  0  0  0  0
  189.1880  180.0180  137.4390 O   0  0  0  0  0  0  0  0  0  0  0  0
  190.9100  175.8820  138.1380 C   0  0  0  0  0  2  0  0  0  0  0  0
  192.0570  174.9620  136.1330 C   0  0  0  0  0  1  0  0  0  0  0  0
  189.8430  178.0600  138.6940 C   0  0  0  0  0  2  0  0  0  0  0  0
  189.2240  178.7650  137.5550 C   0  0  0  0  0  0  0  0  0  0  0  0
  188.8370  176.5570  137.0190 C   0  0  1  0  0  0  0  0  0  0  0  0
  178.9310  181.1070  137.7660 O   0  0  0  0  0  0  0  0  0  0  0  0
  179.4820  180.8830  138.8790 C   0  0  0  0  0  0  0  0  0  0  0  0
  179.4230  181.4420  141.3040 O   0  0  0  0  0  1  0  0  0  0  0  0
  178.9330  183.0250  139.7290 O   0  0  0  0  0  0  0  0  0  0  0  0
  179.2750  181.8410  139.9810 C   0  0  0  0  0  0  0  0  0  0  0  0
  179.0750  176.1430  141.6340 O   0  0  0  0  0  1  0  0  0  0  0  0
  179.0370  176.2960  140.2880 N   0  0  0  0  0  2  0  0  0  0  0  0
  183.7990  178.7810  139.7190 C   0  0  1  0  0  3  0  0  0  0  0  0
  184.4830  179.8800  139.1950 O   0  0  0  0  0  1  0  0  0  0  0  0
  182.7630  177.8100  141.7600 C   0  0  0  0  0  2  0  0  0  0  0  0
  183.5940  178.9540  141.2160 C   0  0  1  0  0  3  0  0  0  0  0  0
  184.2690  177.8040  141.9350 C   0  0  1  0  0  3  0  0  0  0  0  0
  184.6430  178.2610  143.3320 C   0  0  0  0  0  2  0  0  0  0  0  0
  186.7760  178.5140  145.9240 C   0  0  1  0  0  3  0  0  0  0  0  0
  187.8390  178.2390  148.0310 C   0  0  0  0  0  1  0  0  0  0  0  0
  186.7820  178.3700  142.0670 C   0  0  0  0  0  2  0  0  0  0  0  0
  187.6210  177.6130  146.7360 N   0  0  0  0  0  0  0  0  0  0  0  0
  188.8710  176.7840  144.7870 C   0  0  0  0  0  2  0  0  0  0  0  0
  186.0570  178.8230  143.3480 C   0  0  2  0  0  3  0  0  0  0  0  0
  188.9540  177.4850  146.1410 C   0  0  0  0  0  2  0  0  0  0  0  0
  188.7900  176.8080  141.6650 C   0  0  0  0  0  1  0  0  0  0  0  0
  186.8590  178.1830  144.4470 C   0  0  0  0  0  0  0  0  0  0  0  0
  187.8440  177.4950  142.5310 N   0  0  0  0  0  0  0  0  0  0  0  0
  187.8550  177.4820  143.9430 C   0  0  0  0  0  0  0  0  0  0  0  0
  185.3210  178.4300  146.3820 C   0  0  0  0  0  2  0  0  0  0  0  0
  185.1890  178.9580  147.6680 O   0  0  0  0  0  1  0  0  0  0  0  0
  1  2  1  0  0  0  0
  2 12  2  0  0  0  0
  2  6  1  0  0  0  0
  3  4  2  0  0  0  0
  3  9  1  0  0  0  0
  4 11  1  0  0  0  0
  5 13  1  0  0  0  0
  6  4  1  0  0  0  0
  7 12  1  0  0  0  0
  8 14  1  0  0  0  0
  8  1  2  0  0  0  0
  9 36  1  0  0  0  0
 10 15  1  0  0  0  0
 11 13  2  0  0  0  0
 11 35  1  0  0  0  0
 12  3  1  0  0  0  0
 14  7  2  0  0  0  0
 15  9  1  0  0  0  0
 15  5  2  0  0  0  0
 16 14  1  1  0  0  0
 16 17  1  0  0  0  0
 17 18  1  6  0  0  0
 18 16  1  0  0  0  0
 19 25  1  6  0  0  0
 19 24  1  0  0  0  0
 20 28  1  0  0  0  0
 20 27  1  0  0  0  0
 21 24  1  6  0  0  0
 21 26  1  0  0  0  0
 22 19  1  0  0  0  0
 23 27  2  0  0  0  0
 27 26  1  0  0  0  0
 28 22  1  6  0  0  0
 28 17  1  0  0  0  0
 28 21  1  0  0  0  0
 29 30  2  0  0  0  0
 30  5  1  0  0  0  0
 30 33  1  0  0  0  0
 32 33  2  0  0  0  0
 33 31  1  0  0  0  0
 35 34  1  0  0  0  0
 36 37  1  6  0  0  0
 38 40  1  0  0  0  0
 39 36  1  6  0  0  0
 39 38  1  0  0  0  0
 39 40  1  0  0  0  0
 40 41  1  1  0  0  0
 42 53  1  1  0  0  0
 42 45  1  0  0  0  0
 44 51  1  0  0  0  0
 44 47  1  0  0  0  0
 45 43  1  0  0  0  0
 46 48  1  0  0  0  0
 47 41  1  6  0  0  0
 47 50  1  0  0  0  0
 48 45  1  0  0  0  0
 49 51  1  0  0  0  0
 50 42  1  0  0  0  0
 51 52  1  0  0  0  0
 52 50  2  0  0  0  0
 52 46  1  0  0  0  0
 53 54  1  0  0  0  0
M  END
>  <MODEL>
3

>  <REMARK>
 VINA RESULT:      -8.1      1.249      2.301
  Name = 
  10 active torsions:
  status: ('A' for Active; 'I' for Inactive)
    1  A    between atoms: C_3  and  C_9
    2  A    between atoms: C_5  and  C_14
    3  A    between atoms: C_5  and  C_52
    4  A    between atoms: C_16  and  C_39
    5  A    between atoms: C_27  and  C_44
    6  A    between atoms: N_29  and  C_39
    7  A    between atoms: C_34  and  C_47
    8  A    between atoms: C_35  and  N_40
    9  A    between atoms: C_37  and  C_44
   10  A    between atoms: C_46  and  C_54
                            x       y       z     vdW  Elec       q    Type
                         _______ _______ _______ _____ _____    ______ ____

>  <TORSDO>
F 10

$$$$
=
 OpenBabel11042411143D

 54 62  0  0  1  0  0  0  0  0999 V2000
  184.5580  178.9330  144.6200 C   0  0  0  0  0  3  0  0  0  0  0  0
  183.6750  178.7850  143.5520 C   0  0  0  0  0  0  0  0  0  0  0  0
  183.0430  178.2620  141.3690 C   0  0  0  0  0  0  0  0  0  0  0  0
  181.8150  178.6380  141.9020 C   0  0  0  0  0  0  0  0  0  0  0  0
  181.0460  176.9420  139.4290 C   0  0  0  0  0  0  0  0  0  0  0  0
  182.0290  179.1000  143.5200 S   0  0  0  0  0  0  0  0  0  0  0  0
  185.4260  177.9980  142.0930 C   0  0  0  0  0  3  0  0  0  0  0  0
  185.9040  178.5960  144.4120 C   0  0  0  0  0  3  0  0  0  0  0  0
  183.2150  177.9330  139.9870 N   0  0  0  0  0  0  0  0  0  0  0  0
  183.1100  175.7820  138.6940 C   0  0  0  0  0  1  0  0  0  0  0  0
  180.5580  178.7670  141.1550 C   0  0  0  0  0  0  0  0  0  0  0  0
  184.0890  178.3380  142.3040 C   0  0  0  0  0  0  0  0  0  0  0  0
  180.2580  178.0130  140.0910 C   0  0  0  0  0  3  0  0  0  0  0  0
  186.3390  178.1150  143.1580 C   0  0  0  0  0  0  0  0  0  0  0  0
  182.4020  176.9090  139.3850 C   0  0  0  0  0  0  0  0  0  0  0  0
  187.7790  177.7660  142.9500 C   0  0  1  0  0  3  0  0  0  0  0  0
  188.2820  176.9320  144.0730 C   0  0  1  0  0  3  0  0  0  0  0  0
  187.9190  176.3650  142.8380 O   0  0  0  0  0  0  0  0  0  0  0  0
  190.5250  176.7900  146.5170 C   0  0  2  0  0  3  0  0  0  0  0  0
  190.5000  176.7450  142.9970 O   0  0  0  0  0  0  0  0  0  0  0  0
  190.2630  178.3670  144.7050 C   0  0  1  0  0  3  0  0  0  0  0  0
  190.2610  175.9780  145.2690 C   0  0  0  0  0  2  0  0  0  0  0  0
  192.0200  177.8400  141.6390 O   0  0  0  0  0  0  0  0  0  0  0  0
  190.9580  178.1570  146.0350 C   0  0  0  0  0  2  0  0  0  0  0  0
  191.6240  176.1470  147.3370 C   0  0  0  0  0  1  0  0  0  0  0  0
  191.2670  178.8940  143.6780 C   0  0  0  0  0  2  0  0  0  0  0  0
  191.3180  177.8060  142.6820 C   0  0  0  0  0  0  0  0  0  0  0  0
  189.8110  176.9780  144.2190 C   0  0  1  0  0  0  0  0  0  0  0  0
  179.8310  176.2000  137.5220 O   0  0  0  0  0  0  0  0  0  0  0  0
  180.2340  175.9430  138.6900 C   0  0  0  0  0  0  0  0  0  0  0  0
  179.7000  174.5340  140.6720 O   0  0  0  0  0  1  0  0  0  0  0  0
  179.7540  173.6260  138.5750 O   0  0  0  0  0  0  0  0  0  0  0  0
  179.8750  174.6480  139.2980 C   0  0  0  0  0  0  0  0  0  0  0  0
  179.7820  181.0410  141.5430 O   0  0  0  0  0  1  0  0  0  0  0  0
  179.5880  179.7040  141.6330 N   0  0  0  0  0  2  0  0  0  0  0  0
  184.2980  178.5780  139.2410 C   0  0  1  0  0  3  0  0  0  0  0  0
  184.7760  179.6930  139.9320 O   0  0  0  0  0  1  0  0  0  0  0  0
  185.3820  177.1430  137.5240 C   0  0  0  0  0  2  0  0  0  0  0  0
  185.4330  177.6040  138.9660 C   0  0  1  0  0  3  0  0  0  0  0  0
  186.3640  178.2190  137.9420 C   0  0  1  0  0  3  0  0  0  0  0  0
  187.7490  177.6300  138.1320 C   0  0  0  0  0  2  0  0  0  0  0  0
  190.8710  176.5410  137.5030 C   0  0  1  0  0  3  0  0  0  0  0  0
  193.0220  175.5560  137.7150 C   0  0  0  0  0  1  0  0  0  0  0  0
  187.4230  176.8450  135.7940 C   0  0  0  0  0  2  0  0  0  0  0  0
  191.6100  175.2600  137.5380 N   0  0  0  0  0  0  0  0  0  0  0  0
  190.0770  174.1590  135.9630 C   0  0  0  0  0  2  0  0  0  0  0  0
  188.4370  177.4420  136.7880 C   0  0  2  0  0  3  0  0  0  0  0  0
  191.5170  174.5780  136.2450 C   0  0  0  0  0  2  0  0  0  0  0  0
  187.2990  174.5700  134.5940 C   0  0  0  0  0  1  0  0  0  0  0  0
  189.4950  176.3770  136.8890 C   0  0  0  0  0  0  0  0  0  0  0  0
  187.9410  175.5230  135.4860 N   0  0  0  0  0  0  0  0  0  0  0  0
  189.1860  175.3480  136.1270 C   0  0  0  0  0  0  0  0  0  0  0  0
  190.7340  177.1110  138.9140 C   0  0  0  0  0  2  0  0  0  0  0  0
  190.2680  176.1280  139.7890 O   0  0  0  0  0  1  0  0  0  0  0  0
  2  1  2  0  0  0  0
  3  4  2  0  0  0  0
  3 12  1  0  0  0  0
  4  6  1  0  0  0  0
  5 13  1  0  0  0  0
  6  2  1  0  0  0  0
  7 12  2  0  0  0  0
  7 14  1  0  0  0  0
  8  1  1  0  0  0  0
  9  3  1  0  0  0  0
 10 15  1  0  0  0  0
 11 35  1  0  0  0  0
 11  4  1  0  0  0  0
 12  2  1  0  0  0  0
 13 11  2  0  0  0  0
 14  8  2  0  0  0  0
 15  5  2  0  0  0  0
 15  9  1  0  0  0  0
 16 14  1  1  0  0  0
 16 17  1  0  0  0  0
 17 18  1  6  0  0  0
 17 28  1  0  0  0  0
 18 16  1  0  0  0  0
 19 25  1  6  0  0  0
 20 28  1  0  0  0  0
 21 26  1  6  0  0  0
 21 24  1  0  0  0  0
 22 19  1  0  0  0  0
 23 27  2  0  0  0  0
 24 19  1  0  0  0  0
 27 20  1  0  0  0  0
 27 26  1  0  0  0  0
 28 21  1  0  0  0  0
 28 22  1  1  0  0  0
 29 30  2  0  0  0  0
 30 33  1  0  0  0  0
 30  5  1  0  0  0  0
 32 33  2  0  0  0  0
 33 31  1  0  0  0  0
 34 35  1  0  0  0  0
 36 37  1  1  0  0  0
 36  9  1  0  0  0  0
 38 40  1  0  0  0  0
 38 39  1  0  0  0  0
 39 36  1  6  0  0  0
 40 41  1  1  0  0  0
 40 39  1  0  0  0  0
 42 45  1  0  0  0  0
 42 53  1  1  0  0  0
 44 47  1  0  0  0  0
 45 43  1  0  0  0  0
 46 52  1  0  0  0  0
 46 48  1  0  0  0  0
 47 50  1  0  0  0  0
 47 41  1  1  0  0  0
 48 45  1  0  0  0  0
 49 51  1  0  0  0  0
 50 42  1  0  0  0  0
 51 44  1  0  0  0  0
 51 52  1  0  0  0  0
 52 50  2  0  0  0  0
 53 54  1  0  0  0  0
M  END
>  <MODEL>
4

>  <REMARK>
 VINA RESULT:      -7.1      2.599      6.970
  Name = 
  10 active torsions:
  status: ('A' for Active; 'I' for Inactive)
    1  A    between atoms: C_3  and  C_9
    2  A    between atoms: C_5  and  C_14
    3  A    between atoms: C_5  and  C_52
    4  A    between atoms: C_16  and  C_39
    5  A    between atoms: C_27  and  C_44
    6  A    between atoms: N_29  and  C_39
    7  A    between atoms: C_34  and  C_47
    8  A    between atoms: C_35  and  N_40
    9  A    between atoms: C_37  and  C_44
   10  A    between atoms: C_46  and  C_54
                            x       y       z     vdW  Elec       q    Type
                         _______ _______ _______ _____ _____    ______ ____

>  <TORSDO>
F 10

$$$$
=
 OpenBabel11042411143D

 54 62  0  0  1  0  0  0  0  0999 V2000
  184.7510  178.6690  144.9800 C   0  0  0  0  0  3  0  0  0  0  0  0
  183.8120  178.6290  143.9520 C   0  0  0  0  0  0  0  0  0  0  0  0
  183.0530  178.2870  141.7720 C   0  0  0  0  0  0  0  0  0  0  0  0
  181.8690  178.6670  142.3930 C   0  0  0  0  0  0  0  0  0  0  0  0
  180.9130  177.1800  139.8520 C   0  0  0  0  0  0  0  0  0  0  0  0
  182.1790  179.0030  144.0260 S   0  0  0  0  0  0  0  0  0  0  0  0
  185.4570  177.8880  142.3510 C   0  0  0  0  0  3  0  0  0  0  0  0
  186.0710  178.3020  144.6790 C   0  0  0  0  0  3  0  0  0  0  0  0
  183.1440  178.0530  140.3640 N   0  0  0  0  0  0  0  0  0  0  0  0
  182.8930  176.0050  138.9310 C   0  0  0  0  0  1  0  0  0  0  0  0
  180.5820  178.8930  141.7240 C   0  0  0  0  0  0  0  0  0  0  0  0
  184.1460  178.2590  142.6550 C   0  0  0  0  0  0  0  0  0  0  0  0
  180.2010  178.2280  140.6260 C   0  0  0  0  0  3  0  0  0  0  0  0
  186.4250  177.8970  143.3730 C   0  0  0  0  0  0  0  0  0  0  0  0
  182.2630  177.1030  139.7350 C   0  0  0  0  0  0  0  0  0  0  0  0
  187.8390  177.5140  143.0680 C   0  0  1  0  0  3  0  0  0  0  0  0
  188.4310  176.7560  144.2010 C   0  0  1  0  0  3  0  0  0  0  0  0
  187.9570  176.1060  143.0470 O   0  0  0  0  0  0  0  0  0  0  0  0
  190.8810  176.6790  146.4400 C   0  0  2  0  0  3  0  0  0  0  0  0
  190.5450  176.5070  142.9410 O   0  0  0  0  0  0  0  0  0  0  0  0
  190.4720  178.1920  144.6020 C   0  0  1  0  0  3  0  0  0  0  0  0
  190.5020  175.8250  145.2520 C   0  0  0  0  0  2  0  0  0  0  0  0
  191.9460  177.5350  141.4140 O   0  0  0  0  0  0  0  0  0  0  0  0
  191.2800  178.0230  145.8720 C   0  0  0  0  0  2  0  0  0  0  0  0
  192.0440  176.0540  147.1830 C   0  0  0  0  0  1  0  0  0  0  0  0
  191.3840  178.6700  143.4710 C   0  0  0  0  0  2  0  0  0  0  0  0
  191.3390  177.5470  142.5160 C   0  0  0  0  0  0  0  0  0  0  0  0
  189.9680  176.7910  144.2090 C   0  0  1  0  0  0  0  0  0  0  0  0
  179.6730  176.5700  137.9150 O   0  0  0  0  0  0  0  0  0  0  0  0
  180.0280  176.2660  139.0880 C   0  0  0  0  0  0  0  0  0  0  0  0
  179.1060  174.9580  140.9930 O   0  0  0  0  0  1  0  0  0  0  0  0
  179.5460  173.9490  138.9900 O   0  0  0  0  0  0  0  0  0  0  0  0
  179.5420  175.0050  139.6750 C   0  0  0  0  0  0  0  0  0  0  0  0
  179.6810  181.1400  141.9840 O   0  0  0  0  0  1  0  0  0  0  0  0
  179.6740  179.8260  142.3160 N   0  0  0  0  0  2  0  0  0  0  0  0
  184.2140  178.7110  139.6100 C   0  0  1  0  0  3  0  0  0  0  0  0
  185.2550  179.0880  140.4600 O   0  0  0  0  0  1  0  0  0  0  0  0
  184.2200  178.2890  137.1600 C   0  0  0  0  0  2  0  0  0  0  0  0
  184.7390  177.8130  138.5010 C   0  0  1  0  0  3  0  0  0  0  0  0
  185.6310  178.6340  137.5930 C   0  0  1  0  0  3  0  0  0  0  0  0
  186.6320  177.7050  136.9310 C   0  0  0  0  0  2  0  0  0  0  0  0
  186.7080  174.3420  136.8580 C   0  0  1  0  0  3  0  0  0  0  0  0
  186.6130  172.0790  136.1400 C   0  0  0  0  0  1  0  0  0  0  0  0
  188.5590  177.3270  138.4580 C   0  0  0  0  0  2  0  0  0  0  0  0
  187.4320  173.2800  136.1270 N   0  0  0  0  0  0  0  0  0  0  0  0
  189.6420  174.0860  136.8450 C   0  0  0  0  0  2  0  0  0  0  0  0
  187.2250  176.7460  137.9520 C   0  0  2  0  0  3  0  0  0  0  0  0
  188.6620  172.9150  136.8370 C   0  0  0  0  0  2  0  0  0  0  0  0
  190.9990  176.5410  138.2170 C   0  0  0  0  0  1  0  0  0  0  0  0
  187.6340  175.4630  137.2840 C   0  0  0  0  0  0  0  0  0  0  0  0
  189.5690  176.3940  137.9920 N   0  0  0  0  0  0  0  0  0  0  0  0
  188.9400  175.3010  137.3590 C   0  0  0  0  0  0  0  0  0  0  0  0
  185.5870  174.9100  135.9900 C   0  0  0  0  0  2  0  0  0  0  0  0
  186.0550  175.1560  134.6980 O   0  0  0  0  0  1  0  0  0  0  0  0
  2  6  1  0  0  0  0
  2  1  2  0  0  0  0
  3  4  2  0  0  0  0
  3 12  1  0  0  0  0
  4  6  1  0  0  0  0
  5 13  1  0  0  0  0
  7 12  2  0  0  0  0
  7 14  1  0  0  0  0
  8  1  1  0  0  0  0
  9  3  1  0  0  0  0
 10 15  1  0  0  0  0
 11 35  1  0  0  0  0
 11  4  1  0  0  0  0
 12  2  1  0  0  0  0
 13 11  2  0  0  0  0
 14  8  2  0  0  0  0
 15  5  2  0  0  0  0
 15  9  1  0  0  0  0
 16 14  1  1  0  0  0
 16 17  1  0  0  0  0
 17 18  1  6  0  0  0
 17 28  1  0  0  0  0
 18 16  1  0  0  0  0
 19 25  1  6  0  0  0
 20 28  1  0  0  0  0
 21 26  1  6  0  0  0
 21 24  1  0  0  0  0
 22 19  1  0  0  0  0
 23 27  2  0  0  0  0
 24 19  1  0  0  0  0
 27 20  1  0  0  0  0
 27 26  1  0  0  0  0
 28 21  1  0  0  0  0
 28 22  1  1  0  0  0
 29 30  2  0  0  0  0
 30 33  1  0  0  0  0
 30  5  1  0  0  0  0
 32 33  2  0  0  0  0
 33 31  1  0  0  0  0
 34 35  1  0  0  0  0
 36  9  1  0  0  0  0
 36 37  1  1  0  0  0
 38 40  1  0  0  0  0
 38 39  1  0  0  0  0
 39 36  1  1  0  0  0
 40 41  1  6  0  0  0
 40 39  1  0  0  0  0
 42 53  1  6  0  0  0
 42 50  1  0  0  0  0
 45 43  1  0  0  0  0
 45 48  1  0  0  0  0
 45 42  1  0  0  0  0
 46 52  1  0  0  0  0
 47 41  1  6  0  0  0
 47 44  1  0  0  0  0
 48 46  1  0  0  0  0
 50 52  2  0  0  0  0
 50 47  1  0  0  0  0
 51 49  1  0  0  0  0
 51 44  1  0  0  0  0
 52 51  1  0  0  0  0
 54 53  1  0  0  0  0
M  END
>  <MODEL>
5

>  <REMARK>
 VINA RESULT:      -7.1      2.532      6.883
  Name = 
  10 active torsions:
  status: ('A' for Active; 'I' for Inactive)
    1  A    between atoms: C_3  and  C_9
    2  A    between atoms: C_5  and  C_14
    3  A    between atoms: C_5  and  C_52
    4  A    between atoms: C_16  and  C_39
    5  A    between atoms: C_27  and  C_44
    6  A    between atoms: N_29  and  C_39
    7  A    between atoms: C_34  and  C_47
    8  A    between atoms: C_35  and  N_40
    9  A    between atoms: C_37  and  C_44
   10  A    between atoms: C_46  and  C_54
                            x       y       z     vdW  Elec       q    Type
                         _______ _______ _______ _____ _____    ______ ____

>  <TORSDO>
F 10

$$$$
=
 OpenBabel11042411143D

 54 62  0  0  1  0  0  0  0  0999 V2000
  182.1260  179.0680  142.5830 C   0  0  0  0  0  3  0  0  0  0  0  0
  182.1840  178.7570  141.2260 C   0  0  0  0  0  0  0  0  0  0  0  0
  183.2020  178.0970  139.2340 C   0  0  0  0  0  0  0  0  0  0  0  0
  181.8940  178.2780  138.7990 C   0  0  0  0  0  0  0  0  0  0  0  0
  183.1290  176.4310  136.6430 C   0  0  0  0  0  0  0  0  0  0  0  0
  180.9410  178.7990  140.1010 S   0  0  0  0  0  0  0  0  0  0  0  0
  184.5360  178.2380  141.3490 C   0  0  0  0  0  3  0  0  0  0  0  0
  183.3050  178.9510  143.3350 C   0  0  0  0  0  3  0  0  0  0  0  0
  184.2730  177.7730  138.3420 N   0  0  0  0  0  0  0  0  0  0  0  0
  185.2810  175.6100  137.5600 C   0  0  0  0  0  1  0  0  0  0  0  0
  181.4310  178.1860  137.4090 C   0  0  0  0  0  0  0  0  0  0  0  0
  183.3610  178.3600  140.6050 C   0  0  0  0  0  0  0  0  0  0  0  0
  181.9880  177.3720  136.5030 C   0  0  0  0  0  3  0  0  0  0  0  0
  184.5060  178.5240  142.7270 C   0  0  0  0  0  0  0  0  0  0  0  0
  184.1740  176.6190  137.4880 C   0  0  0  0  0  0  0  0  0  0  0  0
  185.7560  178.4100  143.5420 C   0  0  1  0  0  3  0  0  0  0  0  0
  186.7470  177.5380  142.8590 C   0  0  1  0  0  3  0  0  0  0  0  0
  186.8470  178.9400  142.8170 O   0  0  0  0  0  0  0  0  0  0  0  0
  187.5480  177.7800  146.0720 C   0  0  2  0  0  3  0  0  0  0  0  0
  188.4330  175.7860  143.3100 O   0  0  0  0  0  0  0  0  0  0  0  0
  188.9120  177.9700  144.0870 C   0  0  1  0  0  3  0  0  0  0  0  0
  187.1480  176.6420  145.1610 C   0  0  0  0  0  2  0  0  0  0  0  0
  190.5780  175.0800  142.8070 O   0  0  0  0  0  0  0  0  0  0  0  0
  188.8970  178.2520  145.5760 C   0  0  0  0  0  2  0  0  0  0  0  0
  187.6530  177.2920  147.5020 C   0  0  0  0  0  1  0  0  0  0  0  0
  190.2310  177.2960  143.7060 C   0  0  0  0  0  2  0  0  0  0  0  0
  189.7960  175.9650  143.2410 C   0  0  0  0  0  0  0  0  0  0  0  0
  187.7920  176.9480  143.8200 C   0  0  1  0  0  0  0  0  0  0  0  0
  183.8240  175.3540  134.6380 O   0  0  0  0  0  0  0  0  0  0  0  0
  183.1180  175.2990  135.6830 C   0  0  0  0  0  0  0  0  0  0  0  0
  182.8340  172.9590  136.4830 O   0  0  0  0  0  1  0  0  0  0  0  0
  181.0750  174.1050  135.5800 O   0  0  0  0  0  0  0  0  0  0  0  0
  182.2860  174.1050  135.9180 C   0  0  0  0  0  0  0  0  0  0  0  0
  179.3480  178.4790  136.1840 O   0  0  0  0  0  1  0  0  0  0  0  0
  180.2900  178.9600  137.0310 N   0  0  0  0  0  2  0  0  0  0  0  0
  185.5000  178.5720  138.4000 C   0  0  1  0  0  3  0  0  0  0  0  0
  186.1120  178.4430  139.6480 O   0  0  0  0  0  1  0  0  0  0  0  0
  187.3730  179.3410  136.9570 C   0  0  0  0  0  2  0  0  0  0  0  0
  186.4680  178.1750  137.2960 C   0  0  1  0  0  3  0  0  0  0  0  0
  187.8780  178.2230  137.8460 C   0  0  1  0  0  3  0  0  0  0  0  0
  188.7410  177.2600  137.0520 C   0  0  0  0  0  2  0  0  0  0  0  0
  191.0980  174.9720  136.3210 C   0  0  1  0  0  3  0  0  0  0  0  0
  192.8310  173.7550  135.2430 C   0  0  0  0  0  1  0  0  0  0  0  0
  189.6830  176.9320  139.3300 C   0  0  0  0  0  2  0  0  0  0  0  0
  192.5460  174.9520  136.0190 N   0  0  0  0  0  0  0  0  0  0  0  0
  193.1560  176.0390  138.1380 C   0  0  0  0  0  2  0  0  0  0  0  0
  189.4050  176.2510  137.9770 C   0  0  2  0  0  3  0  0  0  0  0  0
  193.3260  174.8080  137.2510 C   0  0  0  0  0  2  0  0  0  0  0  0
  191.8660  177.5490  140.5490 C   0  0  0  0  0  1  0  0  0  0  0  0
  190.7780  175.9060  137.4700 C   0  0  0  0  0  0  0  0  0  0  0  0
  191.1310  176.9710  139.4340 N   0  0  0  0  0  0  0  0  0  0  0  0
  191.6970  176.3010  138.3280 C   0  0  0  0  0  0  0  0  0  0  0  0
  190.3060  175.3960  135.0850 C   0  0  0  0  0  2  0  0  0  0  0  0
  190.7910  176.6100  134.5950 O   0  0  0  0  0  1  0  0  0  0  0  0
  1  8  1  0  0  0  0
  2  1  2  0  0  0  0
  3 12  1  0  0  0  0
  4  3  2  0  0  0  0
  4  6  1  0  0  0  0
  5 15  2  0  0  0  0
  6  2  1  0  0  0  0
  7 14  1  0  0  0  0
  9 36  1  0  0  0  0
  9  3  1  0  0  0  0
 11  4  1  0  0  0  0
 12  2  1  0  0  0  0
 12  7  2  0  0  0  0
 13  5  1  0  0  0  0
 13 11  2  0  0  0  0
 14  8  2  0  0  0  0
 15 10  1  0  0  0  0
 15  9  1  0  0  0  0
 16 14  1  6  0  0  0
 17 18  1  6  0  0  0
 17 16  1  0  0  0  0
 17 28  1  0  0  0  0
 18 16  1  0  0  0  0
 19 25  1  1  0  0  0
 20 28  1  0  0  0  0
 21 26  1  1  0  0  0
 21 24  1  0  0  0  0
 22 19  1  0  0  0  0
 23 27  2  0  0  0  0
 24 19  1  0  0  0  0
 27 20  1  0  0  0  0
 27 26  1  0  0  0  0
 28 21  1  0  0  0  0
 28 22  1  1  0  0  0
 29 30  2  0  0  0  0
 30 33  1  0  0  0  0
 30  5  1  0  0  0  0
 32 33  2  0  0  0  0
 33 31  1  0  0  0  0
 34 35  1  0  0  0  0
 35 11  1  0  0  0  0
 36 37  1  1  0  0  0
 38 39  1  0  0  0  0
 38 40  1  0  0  0  0
 39 40  1  0  0  0  0
 39 36  1  1  0  0  0
 40 41  1  6  0  0  0
 42 53  1  6  0  0  0
 42 50  1  0  0  0  0
 43 45  1  0  0  0  0
 44 51  1  0  0  0  0
 45 42  1  0  0  0  0
 45 48  1  0  0  0  0
 46 52  1  0  0  0  0
 47 41  1  6  0  0  0
 47 44  1  0  0  0  0
 48 46  1  0  0  0  0
 50 47  1  0  0  0  0
 50 52  2  0  0  0  0
 51 49  1  0  0  0  0
 52 51  1  0  0  0  0
 54 53  1  0  0  0  0
M  END
>  <MODEL>
6

>  <REMARK>
 VINA RESULT:      -6.9      2.709      7.122
  Name = 
  10 active torsions:
  status: ('A' for Active; 'I' for Inactive)
    1  A    between atoms: C_3  and  C_9
    2  A    between atoms: C_5  and  C_14
    3  A    between atoms: C_5  and  C_52
    4  A    between atoms: C_16  and  C_39
    5  A    between atoms: C_27  and  C_44
    6  A    between atoms: N_29  and  C_39
    7  A    between atoms: C_34  and  C_47
    8  A    between atoms: C_35  and  N_40
    9  A    between atoms: C_37  and  C_44
   10  A    between atoms: C_46  and  C_54
                            x       y       z     vdW  Elec       q    Type
                         _______ _______ _______ _____ _____    ______ ____

>  <TORSDO>
F 10

$$$$
=
 OpenBabel11042411143D

 54 62  0  0  1  0  0  0  0  0999 V2000
  184.8300  178.8060  145.6710 C   0  0  0  0  0  3  0  0  0  0  0  0
  183.9560  178.8240  144.5860 C   0  0  0  0  0  0  0  0  0  0  0  0
  183.2930  178.4620  142.3790 C   0  0  0  0  0  0  0  0  0  0  0  0
  182.1280  179.0090  142.9040 C   0  0  0  0  0  0  0  0  0  0  0  0
  181.1540  177.5170  140.3730 C   0  0  0  0  0  0  0  0  0  0  0  0
  182.3790  179.3890  144.5380 S   0  0  0  0  0  0  0  0  0  0  0  0
  185.5930  177.8150  143.1300 C   0  0  0  0  0  3  0  0  0  0  0  0
  186.1130  178.2710  145.4730 C   0  0  0  0  0  3  0  0  0  0  0  0
  183.4390  178.1470  140.9910 N   0  0  0  0  0  0  0  0  0  0  0  0
  183.0300  176.0730  139.6350 C   0  0  0  0  0  1  0  0  0  0  0  0
  180.9200  179.3500  142.1430 C   0  0  0  0  0  0  0  0  0  0  0  0
  184.3200  178.3510  143.3310 C   0  0  0  0  0  0  0  0  0  0  0  0
  180.5280  178.6790  141.0530 C   0  0  0  0  0  3  0  0  0  0  0  0
  186.4930  177.7620  144.2120 C   0  0  0  0  0  0  0  0  0  0  0  0
  182.4900  177.2770  140.3480 C   0  0  0  0  0  0  0  0  0  0  0  0
  187.8660  177.2010  144.0150 C   0  0  1  0  0  3  0  0  0  0  0  0
  188.4990  177.7810  142.8030 C   0  0  1  0  0  3  0  0  0  0  0  0
  188.8210  178.2380  144.0930 O   0  0  0  0  0  0  0  0  0  0  0  0
  191.2090  176.2340  143.9380 C   0  0  2  0  0  3  0  0  0  0  0  0
  189.3410  176.3670  140.9570 O   0  0  0  0  0  0  0  0  0  0  0  0
  190.9170  177.7390  142.0700 C   0  0  1  0  0  3  0  0  0  0  0  0
  189.9580  175.7900  143.2140 C   0  0  0  0  0  2  0  0  0  0  0  0
  190.2350  176.4120  138.8230 O   0  0  0  0  0  0  0  0  0  0  0  0
  191.9670  177.1010  142.9570 C   0  0  0  0  0  2  0  0  0  0  0  0
  192.0400  175.0310  144.3300 C   0  0  0  0  0  1  0  0  0  0  0  0
  191.3380  177.6160  140.6050 C   0  0  0  0  0  2  0  0  0  0  0  0
  190.2850  176.7540  140.0330 C   0  0  0  0  0  0  0  0  0  0  0  0
  189.6320  176.9080  142.2390 C   0  0  1  0  0  0  0  0  0  0  0  0
  179.9790  176.9480  138.3830 O   0  0  0  0  0  0  0  0  0  0  0  0
  180.2130  176.6750  139.5930 C   0  0  0  0  0  0  0  0  0  0  0  0
  179.1910  174.4100  139.4450 O   0  0  0  0  0  0  0  0  0  0  0  0
  179.2220  175.5500  141.4270 O   0  0  0  0  0  1  0  0  0  0  0  0
  179.5300  175.5220  140.2070 C   0  0  0  0  0  0  0  0  0  0  0  0
  179.6350  181.3920  141.8200 O   0  0  0  0  0  1  0  0  0  0  0  0
  180.0970  180.4120  142.6330 N   0  0  0  0  0  2  0  0  0  0  0  0
  184.6230  178.6360  140.2800 C   0  0  1  0  0  3  0  0  0  0  0  0
  185.7800  178.0360  140.7800 O   0  0  0  0  0  1  0  0  0  0  0  0
  185.2660  179.4600  138.0240 C   0  0  0  0  0  2  0  0  0  0  0  0
  184.5070  178.3910  138.7840 C   0  0  1  0  0  3  0  0  0  0  0  0
  185.8870  178.0940  138.2330 C   0  0  1  0  0  3  0  0  0  0  0  0
  185.7350  177.2450  136.9850 C   0  0  0  0  0  2  0  0  0  0  0  0
  183.6260  174.7960  136.0470 C   0  0  1  0  0  3  0  0  0  0  0  0
  181.9550  173.5410  134.9150 C   0  0  0  0  0  1  0  0  0  0  0  0
  187.2450  175.2920  137.2930 C   0  0  0  0  0  2  0  0  0  0  0  0
  183.3250  174.0200  134.8240 N   0  0  0  0  0  0  0  0  0  0  0  0
  185.6260  173.1800  134.6100 C   0  0  0  0  0  2  0  0  0  0  0  0
  185.7800  175.7650  137.3370 C   0  0  2  0  0  3  0  0  0  0  0  0
  184.1530  172.8120  134.7650 C   0  0  0  0  0  2  0  0  0  0  0  0
  188.4930  173.6420  135.7600 C   0  0  0  0  0  1  0  0  0  0  0  0
  185.1180  174.9530  136.2590 C   0  0  0  0  0  0  0  0  0  0  0  0
  187.2950  174.3430  136.1950 N   0  0  0  0  0  0  0  0  0  0  0  0
  185.9950  174.1600  135.6760 C   0  0  0  0  0  0  0  0  0  0  0  0
  182.9750  176.1750  135.9710 C   0  0  0  0  0  2  0  0  0  0  0  0
  183.6210  176.9620  135.0160 O   0  0  0  0  0  1  0  0  0  0  0  0
  2  1  2  0  0  0  0
  3  4  2  0  0  0  0
  3 12  1  0  0  0  0
  4  6  1  0  0  0  0
  5 13  1  0  0  0  0
  6  2  1  0  0  0  0
  7 12  2  0  0  0  0
  7 14  1  0  0  0  0
  8  1  1  0  0  0  0
  9  3  1  0  0  0  0
 10 15  1  0  0  0  0
 11 35  1  0  0  0  0
 11  4  1  0  0  0  0
 12  2  1  0  0  0  0
 13 11  2  0  0  0  0
 14  8  2  0  0  0  0
 15  5  2  0  0  0  0
 15  9  1  0  0  0  0
 16 18  1  0  0  0  0
 16 14  1  6  0  0  0
 17 16  1  0  0  0  0
 17 18  1  1  0  0  0
 19 25  1  6  0  0  0
 20 28  1  0  0  0  0
 21 26  1  6  0  0  0
 21 28  1  0  0  0  0
 21 24  1  0  0  0  0
 22 19  1  0  0  0  0
 23 27  2  0  0  0  0
 24 19  1  0  0  0  0
 27 26  1  0  0  0  0
 27 20  1  0  0  0  0
 28 17  1  0  0  0  0
 28 22  1  1  0  0  0
 29 30  2  0  0  0  0
 30 33  1  0  0  0  0
 30  5  1  0  0  0  0
 31 33  2  0  0  0  0
 33 32  1  0  0  0  0
 34 35  1  0  0  0  0
 36 37  1  1  0  0  0
 36  9  1  0  0  0  0
 38 40  1  0  0  0  0
 38 39  1  0  0  0  0
 39 36  1  1  0  0  0
 40 41  1  6  0  0  0
 40 39  1  0  0  0  0
 42 53  1  6  0  0  0
 42 50  1  0  0  0  0
 44 47  1  0  0  0  0
 45 43  1  0  0  0  0
 45 42  1  0  0  0  0
 46 48  1  0  0  0  0
 46 52  1  0  0  0  0
 47 41  1  6  0  0  0
 48 45  1  0  0  0  0
 49 51  1  0  0  0  0
 50 47  1  0  0  0  0
 51 44  1  0  0  0  0
 52 51  1  0  0  0  0
 52 50  2  0  0  0  0
 54 53  1  0  0  0  0
M  END
>  <MODEL>
7

>  <REMARK>
 VINA RESULT:      -6.8      2.676      7.214
  Name = 
  10 active torsions:
  status: ('A' for Active; 'I' for Inactive)
    1  A    between atoms: C_3  and  C_9
    2  A    between atoms: C_5  and  C_14
    3  A    between atoms: C_5  and  C_52
    4  A    between atoms: C_16  and  C_39
    5  A    between atoms: C_27  and  C_44
    6  A    between atoms: N_29  and  C_39
    7  A    between atoms: C_34  and  C_47
    8  A    between atoms: C_35  and  N_40
    9  A    between atoms: C_37  and  C_44
   10  A    between atoms: C_46  and  C_54
                            x       y       z     vdW  Elec       q    Type
                         _______ _______ _______ _____ _____    ______ ____

>  <TORSDO>
F 10

$$$$
=
 OpenBabel11042411143D

 54 62  0  0  1  0  0  0  0  0999 V2000
  181.3910  178.2160  140.8330 C   0  0  0  0  0  3  0  0  0  0  0  0
  181.8540  177.6310  139.6560 C   0  0  0  0  0  0  0  0  0  0  0  0
  183.4570  176.9110  138.1230 C   0  0  0  0  0  0  0  0  0  0  0  0
  182.2930  176.5160  137.4730 C   0  0  0  0  0  0  0  0  0  0  0  0
  184.4850  174.7570  136.1740 C   0  0  0  0  0  0  0  0  0  0  0  0
  180.9520  176.9670  138.4080 S   0  0  0  0  0  0  0  0  0  0  0  0
  184.1570  178.0090  140.2620 C   0  0  0  0  0  3  0  0  0  0  0  0
  182.3420  178.7010  141.7440 C   0  0  0  0  0  3  0  0  0  0  0  0
  184.7530  176.7780  137.5310 N   0  0  0  0  0  0  0  0  0  0  0  0
  186.5070  174.9810  137.5920 C   0  0  0  0  0  1  0  0  0  0  0  0
  182.2160  175.9390  136.1250 C   0  0  0  0  0  0  0  0  0  0  0  0
  183.2060  177.5320  139.3580 C   0  0  0  0  0  0  0  0  0  0  0  0
  183.1840  175.1790  135.5970 C   0  0  0  0  0  3  0  0  0  0  0  0
  183.7230  178.5870  141.4710 C   0  0  0  0  0  0  0  0  0  0  0  0
  185.2010  175.4930  137.0620 C   0  0  0  0  0  0  0  0  0  0  0  0
  184.7240  179.1130  142.4490 C   0  0  1  0  0  3  0  0  0  0  0  0
  185.9140  178.2250  142.5090 C   0  0  1  0  0  3  0  0  0  0  0  0
  185.9280  179.4270  141.7790 O   0  0  0  0  0  0  0  0  0  0  0  0
  189.0190  177.7090  143.5670 C   0  0  2  0  0  3  0  0  0  0  0  0
  186.0700  179.2040  144.7750 O   0  0  0  0  0  0  0  0  0  0  0  0
  186.9000  177.0050  144.4900 C   0  0  1  0  0  3  0  0  0  0  0  0
  188.1020  178.9100  143.5120 C   0  0  0  0  0  2  0  0  0  0  0  0
  185.2820  179.0370  146.9440 O   0  0  0  0  0  0  0  0  0  0  0  0
  188.3940  176.7570  144.5620 C   0  0  0  0  0  2  0  0  0  0  0  0
  190.3990  178.1270  144.0320 C   0  0  0  0  0  1  0  0  0  0  0  0
  186.3310  177.1250  145.9050 C   0  0  0  0  0  2  0  0  0  0  0  0
  185.8510  178.5190  145.9480 C   0  0  0  0  0  0  0  0  0  0  0  0
  186.7130  178.3750  143.8140 C   0  0  1  0  0  0  0  0  0  0  0  0
  185.8510  173.5430  134.6500 O   0  0  0  0  0  0  0  0  0  0  0  0
  185.0330  173.4980  135.6110 C   0  0  0  0  0  0  0  0  0  0  0  0
  183.6410  172.0830  137.1120 O   0  0  0  0  0  1  0  0  0  0  0  0
  185.2110  171.1400  135.7450 O   0  0  0  0  0  0  0  0  0  0  0  0
  184.6330  172.1830  136.1440 C   0  0  0  0  0  0  0  0  0  0  0  0
  180.3540  175.1320  134.7810 O   0  0  0  0  0  1  0  0  0  0  0  0
  181.0190  176.1530  135.3730 N   0  0  0  0  0  2  0  0  0  0  0  0
  185.6410  177.9430  137.5180 C   0  0  1  0  0  3  0  0  0  0  0  0
  186.0960  178.2300  138.8070 O   0  0  0  0  0  1  0  0  0  0  0  0
  187.4650  179.0550  136.2460 C   0  0  0  0  0  2  0  0  0  0  0  0
  186.8190  177.7270  136.5810 C   0  0  1  0  0  3  0  0  0  0  0  0
  188.0880  178.1510  137.2900 C   0  0  1  0  0  3  0  0  0  0  0  0
  189.2530  177.3800  136.6980 C   0  0  0  0  0  2  0  0  0  0  0  0
  191.6190  175.0290  136.2430 C   0  0  1  0  0  3  0  0  0  0  0  0
  193.4450  173.7750  135.3840 C   0  0  0  0  0  1  0  0  0  0  0  0
  189.8680  176.9810  139.0750 C   0  0  0  0  0  2  0  0  0  0  0  0
  193.0930  174.9670  136.1390 N   0  0  0  0  0  0  0  0  0  0  0  0
  193.4420  175.9960  138.3450 C   0  0  0  0  0  2  0  0  0  0  0  0
  189.7550  176.3330  137.6830 C   0  0  2  0  0  3  0  0  0  0  0  0
  193.6940  174.7760  137.4620 C   0  0  0  0  0  2  0  0  0  0  0  0
  191.8820  177.5050  140.5910 C   0  0  0  0  0  1  0  0  0  0  0  0
  191.1740  175.9530  137.3590 C   0  0  0  0  0  0  0  0  0  0  0  0
  191.2890  176.9710  139.3750 N   0  0  0  0  0  0  0  0  0  0  0  0
  191.9800  176.3030  138.3420 C   0  0  0  0  0  0  0  0  0  0  0  0
  191.0150  175.5000  134.9220 C   0  0  0  0  0  2  0  0  0  0  0  0
  189.9030  174.7220  134.5950 O   0  0  0  0  0  1  0  0  0  0  0  0
  1  8  1  0  0  0  0
  2  1  2  0  0  0  0
  3 12  1  0  0  0  0
  4  3  2  0  0  0  0
  4  6  1  0  0  0  0
  5 15  2  0  0  0  0
  6  2  1  0  0  0  0
  7 14  1  0  0  0  0
  9  3  1  0  0  0  0
 11  4  1  0  0  0  0
 12  2  1  0  0  0  0
 12  7  2  0  0  0  0
 13 11  2  0  0  0  0
 13  5  1  0  0  0  0
 14  8  2  0  0  0  0
 15  9  1  0  0  0  0
 15 10  1  0  0  0  0
 16 14  1  6  0  0  0
 16 17  1  0  0  0  0
 17 18  1  6  0  0  0
 17 28  1  0  0  0  0
 18 16  1  0  0  0  0
 19 25  1  1  0  0  0
 19 24  1  0  0  0  0
 20 27  1  0  0  0  0
 21 24  1  1  0  0  0
 21 26  1  0  0  0  0
 22 19  1  0  0  0  0
 26 27  1  0  0  0  0
 27 23  2  0  0  0  0
 28 22  1  6  0  0  0
 28 21  1  0  0  0  0
 28 20  1  0  0  0  0
 29 30  2  0  0  0  0
 30 33  1  0  0  0  0
 30  5  1  0  0  0  0
 32 33  2  0  0  0  0
 33 31  1  0  0  0  0
 34 35  1  0  0  0  0
 35 11  1  0  0  0  0
 36  9  1  0  0  0  0
 36 37  1  1  0  0  0
 38 39  1  0  0  0  0
 38 40  1  0  0  0  0
 39 40  1  0  0  0  0
 39 36  1  1  0  0  0
 40 41  1  6  0  0  0
 42 53  1  6  0  0  0
 42 50  1  0  0  0  0
 43 45  1  0  0  0  0
 44 51  1  0  0  0  0
 45 42  1  0  0  0  0
 45 48  1  0  0  0  0
 47 41  1  6  0  0  0
 47 44  1  0  0  0  0
 48 46  1  0  0  0  0
 50 47  1  0  0  0  0
 50 52  2  0  0  0  0
 51 49  1  0  0  0  0
 52 46  1  0  0  0  0
 52 51  1  0  0  0  0
 54 53  1  0  0  0  0
M  END
>  <MODEL>
8

>  <REMARK>
 VINA RESULT:      -6.6      3.045      7.576
  Name = 
  10 active torsions:
  status: ('A' for Active; 'I' for Inactive)
    1  A    between atoms: C_3  and  C_9
    2  A    between atoms: C_5  and  C_14
    3  A    between atoms: C_5  and  C_52
    4  A    between atoms: C_16  and  C_39
    5  A    between atoms: C_27  and  C_44
    6  A    between atoms: N_29  and  C_39
    7  A    between atoms: C_34  and  C_47
    8  A    between atoms: C_35  and  N_40
    9  A    between atoms: C_37  and  C_44
   10  A    between atoms: C_46  and  C_54
                            x       y       z     vdW  Elec       q    Type
                         _______ _______ _______ _____ _____    ______ ____

>  <TORSDO>
F 10

$$$$
