=
 OpenBabel11042411213D

 25 27  0  0  0  0  0  0  0  0999 V2000
  187.4820  177.9900  147.6250 C   0  0  0  0  0  3  0  0  0  0  0  0
  188.1300  177.6090  144.1420 C   0  0  0  0  0  0  0  0  0  0  0  0
  186.3080  178.1370  145.4870 C   0  0  0  0  0  0  0  0  0  0  0  0
  189.8460  177.3880  147.4090 C   0  0  0  0  0  0  0  0  0  0  0  0
  184.9120  178.5080  145.8860 C   0  0  0  0  0  3  0  0  0  0  0  0
  184.0160  178.6650  144.6680 C   0  0  0  0  0  0  0  0  0  0  0  0
  186.7050  177.9490  144.1110 C   0  0  0  0  0  0  0  0  0  0  0  0
  187.3800  177.9270  146.2370 C   0  0  0  0  0  0  0  0  0  0  0  0
  188.7290  177.7180  148.2090 C   0  0  0  0  0  3  0  0  0  0  0  0
  182.6870  179.0110  144.8660 O   0  0  0  0  0  1  0  0  0  0  0  0
  188.4750  177.6090  145.4370 C   0  0  0  0  0  0  0  0  0  0  0  0
  189.7180  177.3310  146.0120 C   0  0  0  0  0  3  0  0  0  0  0  0
  185.8590  178.1120  143.1000 C   0  0  0  0  0  2  0  0  0  0  0  0
  184.4580  178.4830  143.4070 C   0  0  0  0  0  3  0  0  0  0  0  0
  189.5420  176.0250  142.8490 C   0  0  0  0  0  3  0  0  0  0  0  0
  190.2810  175.7490  141.8660 O   0  0  0  0  0  0  0  0  0  0  0  0
  188.9810  177.3330  143.0090 N   0  0  0  0  0  0  0  0  0  0  0  0
  189.2350  178.3500  141.9890 C   0  0  0  0  0  2  0  0  0  0  0  0
  188.3980  178.0850  140.7470 C   0  0  0  0  0  2  0  0  0  0  0  0
  189.2500  178.1990  139.4960 C   0  0  0  0  0  2  0  0  0  0  0  0
  189.0110  179.4690  137.3670 O   0  0  0  0  0  0  0  0  0  0  0  0
  188.4250  178.7070  138.3680 C   0  0  0  0  0  0  0  0  0  0  0  0
  187.2020  178.4190  138.3030 O   0  0  0  0  0  1  0  0  0  0  0  0
  191.1520  177.1010  148.0110 C   0  0  0  0  0  3  0  0  0  0  0  0
  192.0440  176.4030  147.3870 N   0  0  0  0  0  2  0  0  0  0  0  0
  1  9  1  0  0  0  0
  2 11  1  0  0  0  0
  3  5  2  0  0  0  0
  3  8  1  0  0  0  0
  4 24  1  0  0  0  0
  4  9  2  0  0  0  0
  6 10  1  0  0  0  0
  6  5  1  0  0  0  0
  7  2  2  0  0  0  0
  7  3  1  0  0  0  0
  8  1  2  0  0  0  0
 11 12  2  0  0  0  0
 11  8  1  0  0  0  0
 12  4  1  0  0  0  0
 13 14  1  0  0  0  0
 13  7  1  0  0  0  0
 14  6  2  0  0  0  0
 15 17  1  0  0  0  0
 16 15  2  0  0  0  0
 17  2  1  0  0  0  0
 18 17  1  0  0  0  0
 19 18  1  0  0  0  0
 20 19  1  0  0  0  0
 21 22  2  0  0  0  0
 22 20  1  0  0  0  0
 23 22  1  0  0  0  0
 25 24  2  0  0  0  0
M  END
>  <MODEL>
1

>  <REMARK>
 VINA RESULT:      -9.3      0.000      0.000
  Name = 
  6 active torsions:
  status: ('A' for Active; 'I' for Inactive)
    1  A    between atoms: C_2  and  N_15
    2  A    between atoms: C_4  and  C_17
    3  A    between atoms: C_8  and  C_25
    4  A    between atoms: C_14  and  N_15
    5  A    between atoms: C_14  and  C_19
    6  A    between atoms: C_19  and  C_25
                            x       y       z     vdW  Elec       q    Type
                         _______ _______ _______ _____ _____    ______ ____

>  <TORSDO>
F 6

$$$$
=
 OpenBabel11042411213D

 25 27  0  0  0  0  0  0  0  0999 V2000
  185.6080  178.4490  146.7180 C   0  0  0  0  0  3  0  0  0  0  0  0
  186.7370  177.9140  143.3800 C   0  0  0  0  0  0  0  0  0  0  0  0
  184.7440  178.4840  144.4320 C   0  0  0  0  0  0  0  0  0  0  0  0
  187.9820  177.8640  146.8610 C   0  0  0  0  0  0  0  0  0  0  0  0
  183.3030  178.8570  144.6150 C   0  0  0  0  0  3  0  0  0  0  0  0
  182.5860  178.9480  143.2780 C   0  0  0  0  0  0  0  0  0  0  0  0
  185.3290  178.2370  143.1350 C   0  0  0  0  0  0  0  0  0  0  0  0
  185.7010  178.3200  145.3330 C   0  0  0  0  0  0  0  0  0  0  0  0
  186.7620  178.2180  147.4810 C   0  0  0  0  0  3  0  0  0  0  0  0
  181.2400  179.2880  143.2720 O   0  0  0  0  0  1  0  0  0  0  0  0
  186.8980  177.9780  144.7090 C   0  0  0  0  0  0  0  0  0  0  0  0
  188.0500  177.7410  145.4640 C   0  0  0  0  0  3  0  0  0  0  0  0
  184.6320  178.3430  142.0090 C   0  0  0  0  0  2  0  0  0  0  0  0
  183.2000  178.7120  142.1010 C   0  0  0  0  0  3  0  0  0  0  0  0
  187.8780  178.4250  141.2320 C   0  0  0  0  0  3  0  0  0  0  0  0
  188.7480  178.1790  140.3550 O   0  0  0  0  0  0  0  0  0  0  0  0
  187.7390  177.5950  142.3910 N   0  0  0  0  0  0  0  0  0  0  0  0
  188.6550  176.4710  142.5790 C   0  0  0  0  0  2  0  0  0  0  0  0
  190.0930  176.9580  142.6620 C   0  0  0  0  0  2  0  0  0  0  0  0
  190.9260  176.0200  143.5170 C   0  0  0  0  0  2  0  0  0  0  0  0
  191.5820  178.1440  144.6430 O   0  0  0  0  0  0  0  0  0  0  0  0
  191.4840  176.7590  144.6810 C   0  0  0  0  0  0  0  0  0  0  0  0
  191.8380  176.1330  145.7130 O   0  0  0  0  0  1  0  0  0  0  0  0
  189.1920  177.6200  147.6520 C   0  0  0  0  0  3  0  0  0  0  0  0
  189.4090  178.2440  148.7630 N   0  0  0  0  0  2  0  0  0  0  0  0
  1  9  1  0  0  0  0
  2 11  1  0  0  0  0
  3  5  2  0  0  0  0
  3  8  1  0  0  0  0
  4  9  2  0  0  0  0
  4 24  1  0  0  0  0
  6  5  1  0  0  0  0
  7  2  2  0  0  0  0
  7  3  1  0  0  0  0
  8  1  2  0  0  0  0
 10  6  1  0  0  0  0
 11  8  1  0  0  0  0
 11 12  2  0  0  0  0
 12  4  1  0  0  0  0
 13 14  1  0  0  0  0
 13  7  1  0  0  0  0
 14  6  2  0  0  0  0
 15 17  1  0  0  0  0
 16 15  2  0  0  0  0
 17 18  1  0  0  0  0
 17  2  1  0  0  0  0
 18 19  1  0  0  0  0
 19 20  1  0  0  0  0
 20 22  1  0  0  0  0
 21 22  2  0  0  0  0
 22 23  1  0  0  0  0
 24 25  2  0  0  0  0
M  END
>  <MODEL>
2

>  <REMARK>
 VINA RESULT:      -8.9      1.830      3.598
  Name = 
  6 active torsions:
  status: ('A' for Active; 'I' for Inactive)
    1  A    between atoms: C_2  and  N_15
    2  A    between atoms: C_4  and  C_17
    3  A    between atoms: C_8  and  C_25
    4  A    between atoms: C_14  and  N_15
    5  A    between atoms: C_14  and  C_19
    6  A    between atoms: C_19  and  C_25
                            x       y       z     vdW  Elec       q    Type
                         _______ _______ _______ _____ _____    ______ ____

>  <TORSDO>
F 6

$$$$
=
 OpenBabel11042411213D

 25 27  0  0  0  0  0  0  0  0999 V2000
  186.8200  178.0120  147.0240 C   0  0  0  0  0  3  0  0  0  0  0  0
  188.2550  177.6080  143.7870 C   0  0  0  0  0  0  0  0  0  0  0  0
  188.9540  177.4090  145.9950 C   0  0  0  0  0  0  0  0  0  0  0  0
  185.0590  178.5270  145.4020 C   0  0  0  0  0  0  0  0  0  0  0  0
  189.8430  177.1500  147.1740 C   0  0  0  0  0  3  0  0  0  0  0  0
  191.2360  176.7370  146.7310 C   0  0  0  0  0  0  0  0  0  0  0  0
  189.4080  177.2850  144.6300 C   0  0  0  0  0  0  0  0  0  0  0  0
  187.6790  177.7690  145.9540 C   0  0  0  0  0  0  0  0  0  0  0  0
  185.5000  178.3930  146.7380 C   0  0  0  0  0  3  0  0  0  0  0  0
  192.1840  176.4570  147.7050 O   0  0  0  0  0  1  0  0  0  0  0  0
  187.2550  177.8900  144.6330 C   0  0  0  0  0  0  0  0  0  0  0  0
  185.9440  178.2760  144.3410 C   0  0  0  0  0  3  0  0  0  0  0  0
  190.6470  176.9120  144.3260 C   0  0  0  0  0  2  0  0  0  0  0  0
  191.5900  176.6330  145.4330 C   0  0  0  0  0  3  0  0  0  0  0  0
  187.4140  178.5990  141.6680 C   0  0  0  0  0  3  0  0  0  0  0  0
  187.3610  178.6410  140.4100 O   0  0  0  0  0  0  0  0  0  0  0  0
  188.2110  177.6190  142.3440 N   0  0  0  0  0  0  0  0  0  0  0  0
  189.0110  176.6820  141.5570 C   0  0  0  0  0  2  0  0  0  0  0  0
  190.2500  177.3680  141.0010 C   0  0  0  0  0  2  0  0  0  0  0  0
  190.2260  177.3660  139.4840 C   0  0  0  0  0  2  0  0  0  0  0  0
  190.8850  175.1630  138.5270 O   0  0  0  0  0  0  0  0  0  0  0  0
  191.2550  176.4280  138.9640 C   0  0  0  0  0  0  0  0  0  0  0  0
  192.4570  176.7900  138.8900 O   0  0  0  0  0  1  0  0  0  0  0  0
  183.6810  178.9260  145.0950 C   0  0  0  0  0  3  0  0  0  0  0  0
  183.2660  179.0310  143.8760 N   0  0  0  0  0  2  0  0  0  0  0  0
  2  7  2  0  0  0  0
  2 11  1  0  0  0  0
  3  5  2  0  0  0  0
  4  9  2  0  0  0  0
  6  5  1  0  0  0  0
  6 10  1  0  0  0  0
  7  3  1  0  0  0  0
  8  3  1  0  0  0  0
  8  1  2  0  0  0  0
  9  1  1  0  0  0  0
 11  8  1  0  0  0  0
 12 11  2  0  0  0  0
 12  4  1  0  0  0  0
 13  7  1  0  0  0  0
 13 14  1  0  0  0  0
 14  6  2  0  0  0  0
 15 17  1  0  0  0  0
 16 15  2  0  0  0  0
 17  2  1  0  0  0  0
 18 17  1  0  0  0  0
 19 18  1  0  0  0  0
 20 19  1  0  0  0  0
 21 22  2  0  0  0  0
 22 20  1  0  0  0  0
 23 22  1  0  0  0  0
 24  4  1  0  0  0  0
 25 24  2  0  0  0  0
M  END
>  <MODEL>
3

>  <REMARK>
 VINA RESULT:      -8.9      2.393      5.013
  Name = 
  6 active torsions:
  status: ('A' for Active; 'I' for Inactive)
    1  A    between atoms: C_2  and  N_15
    2  A    between atoms: C_4  and  C_17
    3  A    between atoms: C_8  and  C_25
    4  A    between atoms: C_14  and  N_15
    5  A    between atoms: C_14  and  C_19
    6  A    between atoms: C_19  and  C_25
                            x       y       z     vdW  Elec       q    Type
                         _______ _______ _______ _____ _____    ______ ____

>  <TORSDO>
F 6

$$$$
=
 OpenBabel11042411213D

 25 27  0  0  1  0  0  0  0  0999 V2000
  184.6980  178.6310  144.9880 C   0  0  0  0  0  3  0  0  0  0  0  0
  187.9390  177.6600  143.8700 C   0  0  0  0  0  0  0  0  0  0  0  0
  186.8990  178.0950  145.9030 C   0  0  0  0  0  0  0  0  0  0  0  0
  184.5910  178.4970  142.5450 C   0  0  0  0  0  0  0  0  0  0  0  0
  186.7040  178.2490  147.3810 C   0  0  0  0  0  3  0  0  0  0  0  0
  187.9830  177.9350  148.1400 C   0  0  0  0  0  0  0  0  0  0  0  0
  188.1610  177.7090  145.3170 C   0  0  1  0  0  3  0  0  0  0  0  0
  186.0380  178.2570  144.9100 C   0  0  0  0  0  0  0  0  0  0  0  0
  183.9740  178.7500  143.7920 C   0  0  0  0  0  3  0  0  0  0  0  0
  187.9700  178.0280  149.5250 O   0  0  0  0  0  1  0  0  0  0  0  0
  186.6550  177.9990  143.6880 C   0  0  0  0  0  0  0  0  0  0  0  0
  185.9420  178.1210  142.4930 C   0  0  0  0  0  3  0  0  0  0  0  0
  189.2360  177.4450  146.0530 C   0  0  0  0  0  3  0  0  0  0  0  0
  189.1270  177.5710  147.5250 C   0  0  0  0  0  3  0  0  0  0  0  0
  189.5480  176.0380  142.8910 C   0  0  0  0  0  3  0  0  0  0  0  0
  190.3890  175.7050  142.0140 O   0  0  0  0  0  0  0  0  0  0  0  0
  188.9060  177.3190  142.8540 N   0  0  0  0  0  0  0  0  0  0  0  0
  189.2020  178.2350  141.7540 C   0  0  0  0  0  2  0  0  0  0  0  0
  188.5100  177.7820  140.4770 C   0  0  0  0  0  2  0  0  0  0  0  0
  189.3720  178.0860  139.2660 C   0  0  0  0  0  2  0  0  0  0  0  0
  187.2170  178.3950  138.0550 O   0  0  0  0  0  1  0  0  0  0  0  0
  188.5520  178.7430  138.2140 C   0  0  0  0  0  0  0  0  0  0  0  0
  189.0580  179.6360  137.4870 O   0  0  0  0  0  0  0  0  0  0  0  0
  183.8420  178.6200  141.2900 C   0  0  0  0  0  3  0  0  0  0  0  0
  184.3010  179.3050  140.2950 N   0  0  0  0  0  2  0  0  0  0  0  0
  2  7  1  0  0  0  0
  3  5  1  0  0  0  0
  4  9  1  0  0  0  0
  5  6  2  0  0  0  0
  6 10  1  0  0  0  0
  7  3  1  0  0  0  0
  7 13  1  1  0  0  0
  8  1  1  0  0  0  0
  8  3  2  0  0  0  0
  9  1  2  0  0  0  0
 11  2  2  0  0  0  0
 11  8  1  0  0  0  0
 12  4  2  0  0  0  0
 12 11  1  0  0  0  0
 13 14  2  0  0  0  0
 14  6  1  0  0  0  0
 16 15  2  0  0  0  0
 17 15  1  0  0  0  0
 17  2  1  0  0  0  0
 18 17  1  0  0  0  0
 19 18  1  0  0  0  0
 20 19  1  0  0  0  0
 21 22  1  0  0  0  0
 22 20  1  0  0  0  0
 23 22  2  0  0  0  0
 24  4  1  0  0  0  0
 25 24  2  0  0  0  0
M  END
>  <MODEL>
4

>  <REMARK>
 VINA RESULT:      -8.9      1.945      4.594
  Name = 
  6 active torsions:
  status: ('A' for Active; 'I' for Inactive)
    1  A    between atoms: C_2  and  N_15
    2  A    between atoms: C_4  and  C_17
    3  A    between atoms: C_8  and  C_25
    4  A    between atoms: C_14  and  N_15
    5  A    between atoms: C_14  and  C_19
    6  A    between atoms: C_19  and  C_25
                            x       y       z     vdW  Elec       q    Type
                         _______ _______ _______ _____ _____    ______ ____

>  <TORSDO>
F 6

$$$$
=
 OpenBabel11042411213D

 25 27  0  0  0  0  0  0  0  0999 V2000
  186.1050  178.4210  146.9400 C   0  0  0  0  0  3  0  0  0  0  0  0
  187.3900  177.8030  143.6740 C   0  0  0  0  0  0  0  0  0  0  0  0
  185.3520  178.4090  144.6150 C   0  0  0  0  0  0  0  0  0  0  0  0
  188.4650  177.8250  147.2110 C   0  0  0  0  0  0  0  0  0  0  0  0
  183.9080  178.7950  144.7190 C   0  0  0  0  0  3  0  0  0  0  0  0
  183.2560  178.8600  143.3480 C   0  0  0  0  0  0  0  0  0  0  0  0
  185.9980  178.1290  143.3540 C   0  0  0  0  0  0  0  0  0  0  0  0
  186.2640  178.2600  145.5650 C   0  0  0  0  0  0  0  0  0  0  0  0
  187.2200  178.2000  147.7630 C   0  0  0  0  0  3  0  0  0  0  0  0
  181.9150  179.2080  143.2690 O   0  0  0  0  0  1  0  0  0  0  0  0
  187.4870  177.8960  145.0070 C   0  0  0  0  0  0  0  0  0  0  0  0
  188.5990  177.6690  145.8220 C   0  0  0  0  0  3  0  0  0  0  0  0
  185.3560  178.2130  142.1930 C   0  0  0  0  0  2  0  0  0  0  0  0
  183.9250  178.5930  142.2070 C   0  0  0  0  0  3  0  0  0  0  0  0
  189.0710  176.1750  142.8370 C   0  0  0  0  0  3  0  0  0  0  0  0
  189.9800  175.8360  142.0340 O   0  0  0  0  0  0  0  0  0  0  0  0
  188.4360  177.4550  142.7420 N   0  0  0  0  0  0  0  0  0  0  0  0
  188.8210  178.3650  141.6640 C   0  0  0  0  0  2  0  0  0  0  0  0
  188.3080  177.8580  140.3240 C   0  0  0  0  0  2  0  0  0  0  0  0
  189.0250  178.5530  139.1810 C   0  0  0  0  0  2  0  0  0  0  0  0
  189.6550  177.3730  137.0800 O   0  0  0  0  0  0  0  0  0  0  0  0
  189.8600  177.5720  138.4380 C   0  0  0  0  0  0  0  0  0  0  0  0
  190.7730  176.9440  139.0340 O   0  0  0  0  0  1  0  0  0  0  0  0
  189.6340  177.5910  148.0650 C   0  0  0  0  0  3  0  0  0  0  0  0
  190.7000  177.0190  147.6080 N   0  0  0  0  0  2  0  0  0  0  0  0
  1  9  1  0  0  0  0
  2 11  1  0  0  0  0
  3  5  2  0  0  0  0
  3  8  1  0  0  0  0
  4  9  2  0  0  0  0
  4 24  1  0  0  0  0
  6  5  1  0  0  0  0
  7  2  2  0  0  0  0
  7  3  1  0  0  0  0
  8  1  2  0  0  0  0
 10  6  1  0  0  0  0
 11  8  1  0  0  0  0
 11 12  2  0  0  0  0
 12  4  1  0  0  0  0
 13 14  1  0  0  0  0
 13  7  1  0  0  0  0
 14  6  2  0  0  0  0
 16 15  2  0  0  0  0
 17 15  1  0  0  0  0
 17  2  1  0  0  0  0
 18 17  1  0  0  0  0
 19 18  1  0  0  0  0
 20 19  1  0  0  0  0
 21 22  2  0  0  0  0
 22 23  1  0  0  0  0
 22 20  1  0  0  0  0
 25 24  2  0  0  0  0
M  END
>  <MODEL>
5

>  <REMARK>
 VINA RESULT:      -8.7      1.196      1.501
  Name = 
  6 active torsions:
  status: ('A' for Active; 'I' for Inactive)
    1  A    between atoms: C_2  and  N_15
    2  A    between atoms: C_4  and  C_17
    3  A    between atoms: C_8  and  C_25
    4  A    between atoms: C_14  and  N_15
    5  A    between atoms: C_14  and  C_19
    6  A    between atoms: C_19  and  C_25
                            x       y       z     vdW  Elec       q    Type
                         _______ _______ _______ _____ _____    ______ ____

>  <TORSDO>
F 6

$$$$
=
 OpenBabel11042411213D

 25 27  0  0  1  0  0  0  0  0999 V2000
  184.1490  178.7380  145.2660 C   0  0  0  0  0  3  0  0  0  0  0  0
  187.2620  177.8150  143.7960 C   0  0  0  0  0  0  0  0  0  0  0  0
  186.4480  178.2410  145.9310 C   0  0  0  0  0  0  0  0  0  0  0  0
  183.7730  178.5920  142.8500 C   0  0  0  0  0  0  0  0  0  0  0  0
  186.4160  178.4000  147.4210 C   0  0  0  0  0  3  0  0  0  0  0  0
  187.7760  178.1100  148.0340 C   0  0  0  0  0  0  0  0  0  0  0  0
  187.6430  177.8730  145.2090 C   0  0  1  0  0  3  0  0  0  0  0  0
  185.4780  178.3850  145.0400 C   0  0  0  0  0  0  0  0  0  0  0  0
  183.2950  178.8400  144.1570 C   0  0  0  0  0  3  0  0  0  0  0  0
  187.9160  178.2090  149.4110 O   0  0  0  0  0  1  0  0  0  0  0  0
  185.9600  178.1320  143.7570 C   0  0  0  0  0  0  0  0  0  0  0  0
  185.1170  178.2370  142.6480 C   0  0  0  0  0  3  0  0  0  0  0  0
  188.7960  177.6300  145.8220 C   0  0  0  0  0  3  0  0  0  0  0  0
  188.8500  177.7610  147.2960 C   0  0  0  0  0  3  0  0  0  0  0  0
  188.4080  178.4800  141.6930 C   0  0  0  0  0  3  0  0  0  0  0  0
  189.1570  178.2270  140.7120 O   0  0  0  0  0  0  0  0  0  0  0  0
  188.1150  177.4840  142.6800 N   0  0  0  0  0  0  0  0  0  0  0  0
  188.7330  176.1630  142.5670 C   0  0  0  0  0  2  0  0  0  0  0  0
  189.8700  176.0160  143.5660 C   0  0  0  0  0  2  0  0  0  0  0  0
  191.1410  176.6460  143.0270 C   0  0  0  0  0  2  0  0  0  0  0  0
  192.0150  177.5450  145.1790 O   0  0  0  0  0  1  0  0  0  0  0  0
  191.5480  177.7830  143.8930 C   0  0  0  0  0  0  0  0  0  0  0  0
  191.5000  178.9600  143.4510 O   0  0  0  0  0  0  0  0  0  0  0  0
  182.8870  178.6970  141.6860 C   0  0  0  0  0  3  0  0  0  0  0  0
  181.6230  178.9310  141.8190 N   0  0  0  0  0  2  0  0  0  0  0  0
  2  7  1  0  0  0  0
  3  5  1  0  0  0  0
  4  9  1  0  0  0  0
  5  6  2  0  0  0  0
  6 10  1  0  0  0  0
  7 13  1  1  0  0  0
  7  3  1  0  0  0  0
  8  1  1  0  0  0  0
  8  3  2  0  0  0  0
  9  1  2  0  0  0  0
 11  2  2  0  0  0  0
 11  8  1  0  0  0  0
 12  4  2  0  0  0  0
 12 11  1  0  0  0  0
 13 14  2  0  0  0  0
 14  6  1  0  0  0  0
 15 17  1  0  0  0  0
 16 15  2  0  0  0  0
 17  2  1  0  0  0  0
 18 17  1  0  0  0  0
 18 19  1  0  0  0  0
 20 19  1  0  0  0  0
 20 22  1  0  0  0  0
 22 21  1  0  0  0  0
 23 22  2  0  0  0  0
 24 25  2  0  0  0  0
 24  4  1  0  0  0  0
M  END
>  <MODEL>
6

>  <REMARK>
 VINA RESULT:      -8.5      2.645      5.580
  Name = 
  6 active torsions:
  status: ('A' for Active; 'I' for Inactive)
    1  A    between atoms: C_2  and  N_15
    2  A    between atoms: C_4  and  C_17
    3  A    between atoms: C_8  and  C_25
    4  A    between atoms: C_14  and  N_15
    5  A    between atoms: C_14  and  C_19
    6  A    between atoms: C_19  and  C_25
                            x       y       z     vdW  Elec       q    Type
                         _______ _______ _______ _____ _____    ______ ____

>  <TORSDO>
F 6

$$$$
=
 OpenBabel11042411213D

 25 27  0  0  0  0  0  0  0  0999 V2000
  186.8120  177.8950  147.1120 C   0  0  0  0  0  3  0  0  0  0  0  0
  188.4710  177.7170  143.9630 C   0  0  0  0  0  0  0  0  0  0  0  0
  189.0250  177.4040  146.1990 C   0  0  0  0  0  0  0  0  0  0  0  0
  185.1500  178.4640  145.4050 C   0  0  0  0  0  0  0  0  0  0  0  0
  189.8390  177.0960  147.4200 C   0  0  0  0  0  3  0  0  0  0  0  0
  191.2710  176.7430  147.0500 C   0  0  0  0  0  0  0  0  0  0  0  0
  189.5740  177.3710  144.8640 C   0  0  0  0  0  0  0  0  0  0  0  0
  187.7470  177.7350  146.0910 C   0  0  0  0  0  0  0  0  0  0  0  0
  185.5040  178.2620  146.7580 C   0  0  0  0  0  3  0  0  0  0  0  0
  192.1580  176.4270  148.0700 O   0  0  0  0  0  1  0  0  0  0  0  0
  187.4090  177.9250  144.7530 C   0  0  0  0  0  0  0  0  0  0  0  0
  186.1110  178.2960  144.3940 C   0  0  0  0  0  3  0  0  0  0  0  0
  190.8400  177.0450  144.6240 C   0  0  0  0  0  2  0  0  0  0  0  0
  191.7130  176.7230  145.7760 C   0  0  0  0  0  3  0  0  0  0  0  0
  189.0150  176.7050  141.7590 C   0  0  0  0  0  3  0  0  0  0  0  0
  189.0660  176.7520  140.5010 O   0  0  0  0  0  0  0  0  0  0  0  0
  188.5240  177.8120  142.5240 N   0  0  0  0  0  0  0  0  0  0  0  0
  188.0320  178.9990  141.8270 C   0  0  0  0  0  2  0  0  0  0  0  0
  186.9520  178.6240  140.8230 C   0  0  0  0  0  2  0  0  0  0  0  0
  185.5760  178.9570  141.3690 C   0  0  0  0  0  2  0  0  0  0  0  0
  184.8630  179.7550  139.1200 O   0  0  0  0  0  0  0  0  0  0  0  0
  184.5900  179.0080  140.2580 C   0  0  0  0  0  0  0  0  0  0  0  0
  183.5210  178.3500  140.3340 O   0  0  0  0  0  1  0  0  0  0  0  0
  183.7860  178.8480  145.0270 C   0  0  0  0  0  3  0  0  0  0  0  0
  183.5580  179.6160  144.0130 N   0  0  0  0  0  2  0  0  0  0  0  0
  2 11  1  0  0  0  0
  2  7  2  0  0  0  0
  3  5  2  0  0  0  0
  4  9  2  0  0  0  0
  6  5  1  0  0  0  0
  6 10  1  0  0  0  0
  7  3  1  0  0  0  0
  8  3  1  0  0  0  0
  8  1  2  0  0  0  0
  9  1  1  0  0  0  0
 11  8  1  0  0  0  0
 12 11  2  0  0  0  0
 12  4  1  0  0  0  0
 13  7  1  0  0  0  0
 13 14  1  0  0  0  0
 14  6  2  0  0  0  0
 15 17  1  0  0  0  0
 16 15  2  0  0  0  0
 17  2  1  0  0  0  0
 18 17  1  0  0  0  0
 19 20  1  0  0  0  0
 19 18  1  0  0  0  0
 21 22  2  0  0  0  0
 22 23  1  0  0  0  0
 22 20  1  0  0  0  0
 24  4  1  0  0  0  0
 25 24  2  0  0  0  0
M  END
>  <MODEL>
7

>  <REMARK>
 VINA RESULT:      -8.4      2.398      4.935
  Name = 
  6 active torsions:
  status: ('A' for Active; 'I' for Inactive)
    1  A    between atoms: C_2  and  N_15
    2  A    between atoms: C_4  and  C_17
    3  A    between atoms: C_8  and  C_25
    4  A    between atoms: C_14  and  N_15
    5  A    between atoms: C_14  and  C_19
    6  A    between atoms: C_19  and  C_25
                            x       y       z     vdW  Elec       q    Type
                         _______ _______ _______ _____ _____    ______ ____

>  <TORSDO>
F 6

$$$$
=
 OpenBabel11042411213D

 25 27  0  0  0  0  0  0  0  0999 V2000
  190.7720  177.2320  142.5520 C   0  0  0  0  0  3  0  0  0  0  0  0
  187.9420  177.7280  144.6610 C   0  0  0  0  0  0  0  0  0  0  0  0
  190.1810  177.1570  144.9220 C   0  0  0  0  0  0  0  0  0  0  0  0
  188.8940  177.8090  141.0890 C   0  0  0  0  0  0  0  0  0  0  0  0
  191.4730  176.7880  145.5870 C   0  0  0  0  0  2  0  0  0  0  0  0
  191.3100  176.7070  147.0960 C   0  0  0  0  0  0  0  0  0  0  0  0
  188.9590  177.3850  145.6580 C   0  0  0  0  0  0  0  0  0  0  0  0
  189.9080  177.3430  143.6390 C   0  0  0  0  0  0  0  0  0  0  0  0
  190.2540  177.4680  141.2690 C   0  0  0  0  0  3  0  0  0  0  0  0
  192.4180  176.3780  147.8630 O   0  0  0  0  0  1  0  0  0  0  0  0
  188.5670  177.6850  143.4760 C   0  0  0  0  0  0  0  0  0  0  0  0
  188.0430  177.9160  142.2010 C   0  0  0  0  0  3  0  0  0  0  0  0
  188.9020  177.2990  146.9830 C   0  0  0  0  0  3  0  0  0  0  0  0
  190.1370  176.9420  147.7180 C   0  0  0  0  0  3  0  0  0  0  0  0
  186.1890  178.7030  146.1270 C   0  0  0  0  0  3  0  0  0  0  0  0
  184.9890  179.0030  146.3700 O   0  0  0  0  0  0  0  0  0  0  0  0
  186.5560  178.0460  144.9090 N   0  0  0  0  0  0  0  0  0  0  0  0
  185.5260  177.7590  143.9120 C   0  0  0  0  0  2  0  0  0  0  0  0
  184.9730  179.0490  143.3240 C   0  0  0  0  0  2  0  0  0  0  0  0
  183.7730  178.7620  142.4410 C   0  0  0  0  0  2  0  0  0  0  0  0
  185.2940  179.3780  140.5660 O   0  0  0  0  0  1  0  0  0  0  0  0
  184.2060  178.6460  141.0230 C   0  0  0  0  0  0  0  0  0  0  0  0
  183.6070  177.8610  140.2440 O   0  0  0  0  0  0  0  0  0  0  0  0
  188.3450  178.0570  139.7520 C   0  0  0  0  0  3  0  0  0  0  0  0
  188.8240  178.9820  138.9870 N   0  0  0  0  0  2  0  0  0  0  0  0
  1  8  1  0  0  0  0
  2 17  1  0  0  0  0
  2  7  1  0  0  0  0
  3  5  1  0  0  0  0
  3  7  1  0  0  0  0
  4  9  1  0  0  0  0
  4 12  2  0  0  0  0
  5  6  1  0  0  0  0
  6 14  2  0  0  0  0
  6 10  1  0  0  0  0
  7 13  2  0  0  0  0
  8  3  2  0  0  0  0
  9  1  2  0  0  0  0
 11  8  1  0  0  0  0
 11  2  2  0  0  0  0
 12 11  1  0  0  0  0
 13 14  1  0  0  0  0
 15 16  2  0  0  0  0
 17 15  1  0  0  0  0
 18 17  1  0  0  0  0
 19 18  1  0  0  0  0
 20 19  1  0  0  0  0
 21 22  1  0  0  0  0
 22 20  1  0  0  0  0
 23 22  2  0  0  0  0
 24  4  1  0  0  0  0
 25 24  2  0  0  0  0
M  END
>  <MODEL>
8

>  <REMARK>
 VINA RESULT:      -8.4      2.491      5.968
  Name = 
  6 active torsions:
  status: ('A' for Active; 'I' for Inactive)
    1  A    between atoms: C_2  and  N_15
    2  A    between atoms: C_4  and  C_17
    3  A    between atoms: C_8  and  C_25
    4  A    between atoms: C_14  and  N_15
    5  A    between atoms: C_14  and  C_19
    6  A    between atoms: C_19  and  C_25
                            x       y       z     vdW  Elec       q    Type
                         _______ _______ _______ _____ _____    ______ ____

>  <TORSDO>
F 6

$$$$
=
 OpenBabel11042411213D

 25 27  0  0  0  0  0  0  0  0999 V2000
  184.7630  178.9040  145.0630 C   0  0  0  0  0  3  0  0  0  0  0  0
  187.5890  177.8240  143.1790 C   0  0  0  0  0  0  0  0  0  0  0  0
  185.4650  178.6590  142.7350 C   0  0  0  0  0  0  0  0  0  0  0  0
  186.4640  178.2030  146.6800 C   0  0  0  0  0  0  0  0  0  0  0  0
  184.2730  179.1420  141.9650 C   0  0  0  0  0  3  0  0  0  0  0  0
  184.5260  179.0820  140.4670 C   0  0  0  0  0  0  0  0  0  0  0  0
  186.6730  178.1930  142.0960 C   0  0  0  0  0  0  0  0  0  0  0  0
  185.6520  178.5710  144.0440 C   0  0  0  0  0  0  0  0  0  0  0  0
  185.1790  178.7160  146.3900 C   0  0  0  0  0  3  0  0  0  0  0  0
  183.5180  179.4990  139.6090 O   0  0  0  0  0  1  0  0  0  0  0  0
  186.9240  178.0700  144.3160 C   0  0  0  0  0  0  0  0  0  0  0  0
  187.3420  177.8750  145.6350 C   0  0  0  0  0  3  0  0  0  0  0  0
  186.8170  178.1770  140.7760 C   0  0  0  0  0  2  0  0  0  0  0  0
  185.6870  178.6410  139.9390 C   0  0  0  0  0  3  0  0  0  0  0  0
  189.1280  175.8960  142.8870 C   0  0  0  0  0  3  0  0  0  0  0  0
  190.2840  175.4110  142.7560 O   0  0  0  0  0  0  0  0  0  0  0  0
  188.9290  177.3050  143.0430 N   0  0  0  0  0  0  0  0  0  0  0  0
  190.0850  178.1990  143.0060 C   0  0  0  0  0  2  0  0  0  0  0  0
  190.5090  178.5880  144.4140 C   0  0  0  0  0  2  0  0  0  0  0  0
  191.6420  177.6990  144.8940 C   0  0  0  0  0  2  0  0  0  0  0  0
  192.0090  176.9490  147.2410 O   0  0  0  0  0  1  0  0  0  0  0  0
  191.2140  176.9450  146.1030 C   0  0  0  0  0  0  0  0  0  0  0  0
  190.1180  176.3290  146.1050 O   0  0  0  0  0  0  0  0  0  0  0  0
  186.9060  178.0030  148.0640 C   0  0  0  0  0  3  0  0  0  0  0  0
  188.1600  177.9680  148.3740 N   0  0  0  0  0  2  0  0  0  0  0  0
  1  9  1  0  0  0  0
  2 11  1  0  0  0  0
  3  8  1  0  0  0  0
  4 24  1  0  0  0  0
  5  3  2  0  0  0  0
  6  5  1  0  0  0  0
  7  3  1  0  0  0  0
  7  2  2  0  0  0  0
  8 11  1  0  0  0  0
  8  1  2  0  0  0  0
  9  4  2  0  0  0  0
 10  6  1  0  0  0  0
 11 12  2  0  0  0  0
 12  4  1  0  0  0  0
 13  7  1  0  0  0  0
 14  6  2  0  0  0  0
 14 13  1  0  0  0  0
 15 17  1  0  0  0  0
 16 15  2  0  0  0  0
 17  2  1  0  0  0  0
 18 17  1  0  0  0  0
 18 19  1  0  0  0  0
 19 20  1  0  0  0  0
 20 22  1  0  0  0  0
 22 23  2  0  0  0  0
 22 21  1  0  0  0  0
 24 25  2  0  0  0  0
M  END
>  <MODEL>
9

>  <REMARK>
 VINA RESULT:      -8.2      2.380      4.516
  Name = 
  6 active torsions:
  status: ('A' for Active; 'I' for Inactive)
    1  A    between atoms: C_2  and  N_15
    2  A    between atoms: C_4  and  C_17
    3  A    between atoms: C_8  and  C_25
    4  A    between atoms: C_14  and  N_15
    5  A    between atoms: C_14  and  C_19
    6  A    between atoms: C_19  and  C_25
                            x       y       z     vdW  Elec       q    Type
                         _______ _______ _______ _____ _____    ______ ____

>  <TORSDO>
F 6

$$$$
