=
 OpenBabel11042411053D

 39 44  0  0  1  0  0  0  0  0999 V2000
  186.7110  178.0260  144.6250 C   0  0  0  0  0  3  0  0  0  0  0  0
  184.1700  178.6560  143.7170 C   0  0  0  0  0  0  0  0  0  0  0  0
  184.8630  178.3760  141.4080 C   0  0  0  0  0  3  0  0  0  0  0  0
  185.6790  178.3210  145.5150 C   0  0  0  0  0  0  0  0  0  0  0  0
  182.8740  178.9520  143.2860 C   0  0  0  0  0  3  0  0  0  0  0  0
  182.5650  178.9660  141.9240 C   0  0  0  0  0  0  0  0  0  0  0  0
  186.4890  178.0560  143.2410 C   0  0  0  0  0  0  0  0  0  0  0  0
  184.4410  178.6240  145.0460 N   0  0  0  0  0  0  0  0  0  0  0  0
  183.5650  178.6750  140.9860 C   0  0  0  0  0  3  0  0  0  0  0  0
  185.1880  178.3700  142.7730 C   0  0  0  0  0  0  0  0  0  0  0  0
  189.8420  177.1550  140.6740 C   0  0  0  0  0  0  0  0  0  0  0  0
  187.8390  178.4550  141.1530 C   0  0  0  0  0  3  0  0  0  0  0  0
  189.0780  178.9380  139.1260 N   0  0  0  0  0  1  0  0  0  0  0  0
  189.6340  176.4540  141.8700 C   0  0  0  0  0  3  0  0  0  0  0  0
  188.9250  178.1730  140.3190 C   0  0  0  0  0  0  0  0  0  0  0  0
  187.6300  177.7420  142.3410 C   0  0  0  0  0  0  0  0  0  0  0  0
  188.5470  176.7440  142.6960 C   0  0  0  0  0  3  0  0  0  0  0  0
  190.9980  175.6460  138.9900 N   0  0  0  0  0  1  0  0  0  0  0  0
  192.0600  177.4920  139.8840 O   0  0  0  0  0  0  0  0  0  0  0  0
  191.0160  176.7870  139.8420 C   0  0  0  0  0  0  0  0  0  0  0  0
  181.2570  179.2610  141.5320 O   0  0  0  0  0  0  0  0  0  0  0  0
  180.2190  179.5540  142.4650 C   0  0  2  0  0  3  0  0  0  0  0  0
  178.9310  179.0530  142.0570 C   0  0  1  0  0  3  0  0  0  0  0  0
  179.2310  180.5370  141.8300 C   0  0  0  0  0  0  0  0  0  0  0  0
  178.9310  181.6460  141.4200 O   0  0  0  0  0  0  0  0  0  0  0  0
  179.1930  176.3180  139.4610 O   0  0  0  0  0  0  0  0  0  0  0  0
  179.1670  176.9380  140.7010 C   0  0  0  0  0  0  0  0  0  0  0  0
  178.9720  178.3490  140.7810 N   0  0  0  0  0  2  0  0  0  0  0  0
  179.3140  176.2500  141.7460 O   0  0  0  0  0  1  0  0  0  0  0  0
  185.9230  178.2550  146.9850 C   0  0  0  0  0  2  0  0  0  0  0  0
  187.3700  178.0310  147.2620 C   0  0  0  0  0  0  0  0  0  0  0  0
  187.9240  178.4500  148.4760 C   0  0  0  0  0  3  0  0  0  0  0  0
  189.5520  177.2480  146.5360 C   0  0  0  0  0  0  0  0  0  0  0  0
  189.2850  178.2550  148.7280 C   0  0  0  0  0  3  0  0  0  0  0  0
  188.1830  177.4270  146.2960 C   0  0  0  0  0  3  0  0  0  0  0  0
  190.0960  177.6510  147.7640 C   0  0  0  0  0  3  0  0  0  0  0  0
  190.4170  176.5660  145.5210 C   0  0  2  0  0  3  0  0  0  0  0  0
  191.7960  176.4670  146.0000 C   0  0  0  0  0  2  0  0  0  0  0  0
  191.4400  177.5020  145.0210 N   0  0  0  0  0  2  0  0  0  0  0  0
  1  4  1  0  0  0  0
  2  8  1  0  0  0  0
  3 10  1  0  0  0  0
  4 30  1  0  0  0  0
  5  2  1  0  0  0  0
  6  5  2  0  0  0  0
  7  1  2  0  0  0  0
  8  4  2  0  0  0  0
  9  3  2  0  0  0  0
  9  6  1  0  0  0  0
 10  7  1  0  0  0  0
 10  2  2  0  0  0  0
 11 14  1  0  0  0  0
 12 16  2  0  0  0  0
 13 15  1  0  0  0  0
 14 17  2  0  0  0  0
 15 11  2  0  0  0  0
 15 12  1  0  0  0  0
 16 17  1  0  0  0  0
 16  7  1  0  0  0  0
 18 20  1  0  0  0  0
 20 19  2  0  0  0  0
 20 11  1  0  0  0  0
 21  6  1  0  0  0  0
 22 21  1  6  0  0  0
 23 28  1  6  0  0  0
 23 22  1  0  0  0  0
 24 23  1  0  0  0  0
 24 22  1  0  0  0  0
 25 24  2  0  0  0  0
 26 27  2  0  0  0  0
 27 28  1  0  0  0  0
 27 29  1  0  0  0  0
 30 31  1  0  0  0  0
 31 32  1  0  0  0  0
 32 34  2  0  0  0  0
 33 36  2  0  0  0  0
 35 33  1  0  0  0  0
 35 31  2  0  0  0  0
 36 34  1  0  0  0  0
 37 38  1  0  0  0  0
 37 33  1  1  0  0  0
 39 37  1  0  0  0  0
 39 38  1  0  0  0  0
M  END
>  <MODEL>
1

>  <REMARK>
 VINA RESULT:     -10.9      0.000      0.000
  Name = 
  8 active torsions:
  status: ('A' for Active; 'I' for Inactive)
    1  A    between atoms: C_3  and  C_37
    2  A    between atoms: O_5  and  C_7
    3  A    between atoms: O_5  and  C_30
    4  A    between atoms: C_6  and  C_8
    5  A    between atoms: C_11  and  N_25
    6  A    between atoms: C_16  and  C_19
    7  A    between atoms: C_24  and  C_37
    8  A    between atoms: C_29  and  C_31
                            x       y       z     vdW  Elec       q    Type
                         _______ _______ _______ _____ _____    ______ ____

>  <TORSDO>
F 8

$$$$
=
 OpenBabel11042411053D

 39 44  0  0  1  0  0  0  0  0999 V2000
  189.5280  178.1850  143.1060 C   0  0  0  0  0  3  0  0  0  0  0  0
  190.8800  177.3350  140.8420 C   0  0  0  0  0  0  0  0  0  0  0  0
  188.8250  177.3100  139.5530 C   0  0  0  0  0  3  0  0  0  0  0  0
  190.9070  177.9810  143.1230 C   0  0  0  0  0  0  0  0  0  0  0  0
  191.5900  176.9300  139.7080 C   0  0  0  0  0  3  0  0  0  0  0  0
  190.9280  176.7100  138.4980 C   0  0  0  0  0  0  0  0  0  0  0  0
  188.7870  177.9500  141.9390 C   0  0  0  0  0  0  0  0  0  0  0  0
  191.5480  177.5660  142.0000 N   0  0  0  0  0  0  0  0  0  0  0  0
  189.5420  176.9030  138.4240 C   0  0  0  0  0  3  0  0  0  0  0  0
  189.4770  177.5230  140.7770 C   0  0  0  0  0  0  0  0  0  0  0  0
  184.5130  178.5470  142.0750 C   0  0  0  0  0  0  0  0  0  0  0  0
  186.6450  178.8040  140.9270 C   0  0  0  0  0  3  0  0  0  0  0  0
  184.6410  179.6420  139.8510 N   0  0  0  0  0  1  0  0  0  0  0  0
  185.1910  177.9080  143.1240 C   0  0  0  0  0  3  0  0  0  0  0  0
  185.2610  178.9970  140.9610 C   0  0  0  0  0  0  0  0  0  0  0  0
  187.3180  178.1770  141.9830 C   0  0  0  0  0  0  0  0  0  0  0  0
  186.5730  177.7210  143.0780 C   0  0  0  0  0  3  0  0  0  0  0  0
  182.1550  178.2720  141.1730 N   0  0  0  0  0  1  0  0  0  0  0  0
  182.5560  179.2740  143.2150 O   0  0  0  0  0  0  0  0  0  0  0  0
  183.0430  178.7190  142.1940 C   0  0  0  0  0  0  0  0  0  0  0  0
  191.6710  176.3120  137.3840 O   0  0  0  0  0  0  0  0  0  0  0  0
  192.3520  175.0600  137.3190 C   0  0  2  0  0  3  0  0  0  0  0  0
  193.7070  175.1740  136.8410 C   0  0  1  0  0  3  0  0  0  0  0  0
  192.6310  174.7130  135.8540 C   0  0  0  0  0  0  0  0  0  0  0  0
  192.2670  174.3700  134.7410 O   0  0  0  0  0  0  0  0  0  0  0  0
  195.4350  178.1810  135.3360 O   0  0  0  0  0  1  0  0  0  0  0  0
  195.1150  176.8560  135.5930 C   0  0  0  0  0  0  0  0  0  0  0  0
  194.0880  176.5470  136.5350 N   0  0  0  0  0  2  0  0  0  0  0  0
  195.7320  175.9380  134.9910 O   0  0  0  0  0  0  0  0  0  0  0  0
  191.6850  178.2650  144.3630 C   0  0  0  0  0  2  0  0  0  0  0  0
  191.1540  177.4670  145.5050 C   0  0  0  0  0  0  0  0  0  0  0  0
  191.9580  176.4990  146.1170 C   0  0  0  0  0  3  0  0  0  0  0  0
  189.3240  176.8920  146.9950 C   0  0  0  0  0  0  0  0  0  0  0  0
  191.4530  175.7400  147.1760 C   0  0  0  0  0  3  0  0  0  0  0  0
  189.8420  177.6650  145.9470 C   0  0  0  0  0  3  0  0  0  0  0  0
  190.1420  175.9390  147.6180 C   0  0  0  0  0  3  0  0  0  0  0  0
  187.9330  177.1280  147.4970 C   0  0  2  0  0  3  0  0  0  0  0  0
  187.2940  178.2160  146.7570 C   0  0  0  0  0  2  0  0  0  0  0  0
  187.8350  178.4700  148.0990 N   0  0  0  0  0  2  0  0  0  0  0  0
  1  4  1  0  0  0  0
  2  8  1  0  0  0  0
  3 10  2  0  0  0  0
  4 30  1  0  0  0  0
  5  2  2  0  0  0  0
  6  5  1  0  0  0  0
  7 16  1  0  0  0  0
  7  1  2  0  0  0  0
  8  4  2  0  0  0  0
  9  6  2  0  0  0  0
  9  3  1  0  0  0  0
 10  2  1  0  0  0  0
 10  7  1  0  0  0  0
 11 20  1  0  0  0  0
 11 14  1  0  0  0  0
 12 15  1  0  0  0  0
 12 16  2  0  0  0  0
 13 15  1  0  0  0  0
 15 11  2  0  0  0  0
 16 17  1  0  0  0  0
 17 14  2  0  0  0  0
 18 20  1  0  0  0  0
 20 19  2  0  0  0  0
 21  6  1  0  0  0  0
 22 21  1  6  0  0  0
 23 28  1  6  0  0  0
 23 22  1  0  0  0  0
 24 23  1  0  0  0  0
 24 22  1  0  0  0  0
 25 24  2  0  0  0  0
 26 27  1  0  0  0  0
 27 28  1  0  0  0  0
 29 27  2  0  0  0  0
 30 31  1  0  0  0  0
 31 35  2  0  0  0  0
 31 32  1  0  0  0  0
 32 34  2  0  0  0  0
 33 36  2  0  0  0  0
 34 36  1  0  0  0  0
 35 33  1  0  0  0  0
 37 33  1  6  0  0  0
 37 39  1  0  0  0  0
 38 37  1  0  0  0  0
 38 39  1  0  0  0  0
M  END
>  <MODEL>
2

>  <REMARK>
 VINA RESULT:     -10.5      2.884      9.064
  Name = 
  8 active torsions:
  status: ('A' for Active; 'I' for Inactive)
    1  A    between atoms: C_3  and  C_37
    2  A    between atoms: O_5  and  C_7
    3  A    between atoms: O_5  and  C_30
    4  A    between atoms: C_6  and  C_8
    5  A    between atoms: C_11  and  N_25
    6  A    between atoms: C_16  and  C_19
    7  A    between atoms: C_24  and  C_37
    8  A    between atoms: C_29  and  C_31
                            x       y       z     vdW  Elec       q    Type
                         _______ _______ _______ _____ _____    ______ ____

>  <TORSDO>
F 8

$$$$
=
 OpenBabel11042411053D

 39 44  0  0  1  0  0  0  0  0999 V2000
  188.9090  178.0830  141.1310 C   0  0  0  0  0  3  0  0  0  0  0  0
  186.1720  178.5050  141.0500 C   0  0  0  0  0  0  0  0  0  0  0  0
  185.9940  178.1910  143.4500 C   0  0  0  0  0  3  0  0  0  0  0  0
  188.2570  178.3650  139.9310 C   0  0  0  0  0  0  0  0  0  0  0  0
  184.7970  178.7460  140.9860 C   0  0  0  0  0  3  0  0  0  0  0  0
  184.0140  178.7090  142.1430 C   0  0  0  0  0  0  0  0  0  0  0  0
  188.1870  177.9910  142.3290 C   0  0  0  0  0  0  0  0  0  0  0  0
  186.9150  178.5700  139.9170 N   0  0  0  0  0  0  0  0  0  0  0  0
  184.6200  178.4310  143.3760 C   0  0  0  0  0  3  0  0  0  0  0  0
  186.7880  178.2150  142.2930 C   0  0  0  0  0  0  0  0  0  0  0  0
  190.3820  177.0320  145.9230 C   0  0  0  0  0  0  0  0  0  0  0  0
  188.2770  177.5290  144.8030 C   0  0  0  0  0  3  0  0  0  0  0  0
  188.2450  177.0750  147.1840 N   0  0  0  0  0  1  0  0  0  0  0  0
  191.0330  177.1710  144.6880 C   0  0  0  0  0  3  0  0  0  0  0  0
  188.9790  177.2130  145.9700 C   0  0  0  0  0  0  0  0  0  0  0  0
  188.9350  177.6780  143.5760 C   0  0  0  0  0  0  0  0  0  0  0  0
  190.3220  177.4850  143.5300 C   0  0  0  0  0  3  0  0  0  0  0  0
  191.9180  175.4750  147.2130 N   0  0  0  0  0  1  0  0  0  0  0  0
  191.2750  177.5200  148.0730 O   0  0  0  0  0  0  0  0  0  0  0  0
  191.2030  176.7030  147.1150 C   0  0  0  0  0  0  0  0  0  0  0  0
  182.6440  178.9600  142.0400 O   0  0  0  0  0  0  0  0  0  0  0  0
  181.7480  178.8130  143.1390 C   0  0  2  0  0  3  0  0  0  0  0  0
  180.4850  178.2270  142.7680 C   0  0  1  0  0  3  0  0  0  0  0  0
  180.5500  179.7470  142.9430 C   0  0  0  0  0  0  0  0  0  0  0  0
  180.0450  180.8570  142.9110 O   0  0  0  0  0  0  0  0  0  0  0  0
  179.6520  176.5020  139.5090 O   0  0  0  0  0  0  0  0  0  0  0  0
  179.7030  176.7570  140.8710 C   0  0  0  0  0  0  0  0  0  0  0  0
  180.4020  177.9060  141.3480 N   0  0  0  0  0  2  0  0  0  0  0  0
  179.1300  175.9750  141.6750 O   0  0  0  0  0  1  0  0  0  0  0  0
  189.0430  178.4900  138.6700 C   0  0  0  0  0  2  0  0  0  0  0  0
  189.3690  177.1410  138.1240 C   0  0  0  0  0  0  0  0  0  0  0  0
  188.3560  176.3370  137.5900 C   0  0  0  0  0  3  0  0  0  0  0  0
  190.9900  175.3840  137.6960 C   0  0  0  0  0  0  0  0  0  0  0  0
  188.6600  175.0660  137.0950 C   0  0  0  0  0  3  0  0  0  0  0  0
  190.6840  176.6660  138.1720 C   0  0  0  0  0  3  0  0  0  0  0  0
  189.9740  174.5920  137.1430 C   0  0  0  0  0  3  0  0  0  0  0  0
  192.4030  174.8860  137.7090 C   0  0  2  0  0  3  0  0  0  0  0  0
  193.3440  176.0040  137.7750 C   0  0  0  0  0  2  0  0  0  0  0  0
  193.1050  175.3300  136.4920 N   0  0  0  0  0  2  0  0  0  0  0  0
  1  7  1  0  0  0  0
  2 10  1  0  0  0  0
  4  1  2  0  0  0  0
  5  2  1  0  0  0  0
  5  6  2  0  0  0  0
  6  9  1  0  0  0  0
  7 16  1  0  0  0  0
  8  4  1  0  0  0  0
  8  2  2  0  0  0  0
  9  3  2  0  0  0  0
 10  7  2  0  0  0  0
 10  3  1  0  0  0  0
 11 15  1  0  0  0  0
 11 20  1  0  0  0  0
 12 15  2  0  0  0  0
 14 11  2  0  0  0  0
 15 13  1  0  0  0  0
 16 12  1  0  0  0  0
 17 16  2  0  0  0  0
 17 14  1  0  0  0  0
 20 18  1  0  0  0  0
 20 19  2  0  0  0  0
 21  6  1  0  0  0  0
 22 21  1  6  0  0  0
 23 28  1  6  0  0  0
 23 24  1  0  0  0  0
 23 22  1  0  0  0  0
 24 22  1  0  0  0  0
 25 24  2  0  0  0  0
 26 27  2  0  0  0  0
 27 28  1  0  0  0  0
 27 29  1  0  0  0  0
 30  4  1  0  0  0  0
 31 35  1  0  0  0  0
 31 30  1  0  0  0  0
 32 31  2  0  0  0  0
 33 35  2  0  0  0  0
 34 36  2  0  0  0  0
 34 32  1  0  0  0  0
 36 33  1  0  0  0  0
 37 33  1  6  0  0  0
 37 38  1  0  0  0  0
 39 37  1  0  0  0  0
 39 38  1  0  0  0  0
M  END
>  <MODEL>
3

>  <REMARK>
 VINA RESULT:     -10.4      2.372      6.062
  Name = 
  8 active torsions:
  status: ('A' for Active; 'I' for Inactive)
    1  A    between atoms: C_3  and  C_37
    2  A    between atoms: O_5  and  C_7
    3  A    between atoms: O_5  and  C_30
    4  A    between atoms: C_6  and  C_8
    5  A    between atoms: C_11  and  N_25
    6  A    between atoms: C_16  and  C_19
    7  A    between atoms: C_24  and  C_37
    8  A    between atoms: C_29  and  C_31
                            x       y       z     vdW  Elec       q    Type
                         _______ _______ _______ _____ _____    ______ ____

>  <TORSDO>
F 8

$$$$
=
 OpenBabel11042411053D

 39 44  0  0  1  0  0  0  0  0999 V2000
  188.8290  178.0750  141.2220 C   0  0  0  0  0  3  0  0  0  0  0  0
  186.0950  178.5080  141.0860 C   0  0  0  0  0  0  0  0  0  0  0  0
  185.8710  178.2180  143.4840 C   0  0  0  0  0  3  0  0  0  0  0  0
  188.2010  178.3490  140.0070 C   0  0  0  0  0  0  0  0  0  0  0  0
  184.7230  178.7540  140.9930 C   0  0  0  0  0  3  0  0  0  0  0  0
  183.9190  178.7310  142.1350 C   0  0  0  0  0  0  0  0  0  0  0  0
  188.0840  177.9980  142.4070 C   0  0  0  0  0  0  0  0  0  0  0  0
  186.8600  178.5590  139.9660 N   0  0  0  0  0  0  0  0  0  0  0  0
  184.4990  178.4630  143.3830 C   0  0  0  0  0  3  0  0  0  0  0  0
  186.6870  178.2270  142.3420 C   0  0  0  0  0  0  0  0  0  0  0  0
  190.2070  177.0650  146.0500 C   0  0  0  0  0  0  0  0  0  0  0  0
  188.1250  177.5560  144.8860 C   0  0  0  0  0  3  0  0  0  0  0  0
  188.0460  177.1220  147.2700 N   0  0  0  0  0  1  0  0  0  0  0  0
  190.8830  177.1920  144.8270 C   0  0  0  0  0  3  0  0  0  0  0  0
  188.8040  177.2490  146.0690 C   0  0  0  0  0  0  0  0  0  0  0  0
  188.8070  177.6940  143.6710 C   0  0  0  0  0  0  0  0  0  0  0  0
  190.1940  177.4980  143.6530 C   0  0  0  0  0  3  0  0  0  0  0  0
  191.8250  175.5830  147.3270 N   0  0  0  0  0  1  0  0  0  0  0  0
  190.9590  177.5080  148.2620 O   0  0  0  0  0  0  0  0  0  0  0  0
  191.0040  176.7440  147.2610 C   0  0  0  0  0  0  0  0  0  0  0  0
  182.5520  178.9870  142.0040 O   0  0  0  0  0  0  0  0  0  0  0  0
  181.6360  178.8660  143.0910 C   0  0  2  0  0  3  0  0  0  0  0  0
  180.3850  178.2590  142.7140 C   0  0  1  0  0  3  0  0  0  0  0  0
  180.4350  179.7830  142.8440 C   0  0  0  0  0  0  0  0  0  0  0  0
  179.9220  180.8870  142.7700 O   0  0  0  0  0  0  0  0  0  0  0  0
  179.6480  176.4150  139.4970 O   0  0  0  0  0  0  0  0  0  0  0  0
  179.6730  176.7110  140.8520 C   0  0  0  0  0  0  0  0  0  0  0  0
  180.3310  177.8940  141.3040 N   0  0  0  0  0  2  0  0  0  0  0  0
  179.1130  175.9360  141.6700 O   0  0  0  0  0  1  0  0  0  0  0  0
  189.0100  178.4580  138.7600 C   0  0  0  0  0  2  0  0  0  0  0  0
  189.3130  177.1030  138.2150 C   0  0  0  0  0  0  0  0  0  0  0  0
  190.5930  176.5590  138.3610 C   0  0  0  0  0  3  0  0  0  0  0  0
  188.6120  175.1280  136.9870 C   0  0  0  0  0  0  0  0  0  0  0  0
  190.8790  175.2960  137.8360 C   0  0  0  0  0  3  0  0  0  0  0  0
  188.3230  176.3870  137.5330 C   0  0  0  0  0  3  0  0  0  0  0  0
  189.8910  174.5800  137.1550 C   0  0  0  0  0  3  0  0  0  0  0  0
  187.5460  174.3410  136.2900 C   0  0  2  0  0  3  0  0  0  0  0  0
  186.2160  174.7930  136.7020 C   0  0  0  0  0  2  0  0  0  0  0  0
  186.7730  173.5590  137.2710 N   0  0  0  0  0  2  0  0  0  0  0  0
  1  7  1  0  0  0  0
  2 10  1  0  0  0  0
  4  1  2  0  0  0  0
  5  2  1  0  0  0  0
  5  6  2  0  0  0  0
  6  9  1  0  0  0  0
  7 16  1  0  0  0  0
  8  4  1  0  0  0  0
  8  2  2  0  0  0  0
  9  3  2  0  0  0  0
 10  7  2  0  0  0  0
 10  3  1  0  0  0  0
 11 15  1  0  0  0  0
 11 20  1  0  0  0  0
 12 15  2  0  0  0  0
 14 11  2  0  0  0  0
 15 13  1  0  0  0  0
 16 12  1  0  0  0  0
 17 16  2  0  0  0  0
 17 14  1  0  0  0  0
 20 18  1  0  0  0  0
 20 19  2  0  0  0  0
 21  6  1  0  0  0  0
 22 21  1  6  0  0  0
 23 28  1  6  0  0  0
 23 24  1  0  0  0  0
 23 22  1  0  0  0  0
 24 22  1  0  0  0  0
 25 24  2  0  0  0  0
 26 27  2  0  0  0  0
 27 28  1  0  0  0  0
 27 29  1  0  0  0  0
 30  4  1  0  0  0  0
 31 32  1  0  0  0  0
 31 30  1  0  0  0  0
 33 36  2  0  0  0  0
 33 35  1  0  0  0  0
 34 32  2  0  0  0  0
 35 31  2  0  0  0  0
 36 34  1  0  0  0  0
 37 38  1  0  0  0  0
 37 33  1  1  0  0  0
 37 39  1  0  0  0  0
 38 39  1  0  0  0  0
M  END
>  <MODEL>
4

>  <REMARK>
 VINA RESULT:     -10.2      2.678      6.250
  Name = 
  8 active torsions:
  status: ('A' for Active; 'I' for Inactive)
    1  A    between atoms: C_3  and  C_37
    2  A    between atoms: O_5  and  C_7
    3  A    between atoms: O_5  and  C_30
    4  A    between atoms: C_6  and  C_8
    5  A    between atoms: C_11  and  N_25
    6  A    between atoms: C_16  and  C_19
    7  A    between atoms: C_24  and  C_37
    8  A    between atoms: C_29  and  C_31
                            x       y       z     vdW  Elec       q    Type
                         _______ _______ _______ _____ _____    ______ ____

>  <TORSDO>
F 8

$$$$
=
 OpenBabel11042411053D

 39 44  0  0  1  0  0  0  0  0999 V2000
  188.9850  177.9320  143.4820 C   0  0  0  0  0  3  0  0  0  0  0  0
  190.7710  177.3090  141.4570 C   0  0  0  0  0  0  0  0  0  0  0  0
  189.0210  177.4680  139.7850 C   0  0  0  0  0  3  0  0  0  0  0  0
  190.3330  177.6990  143.7540 C   0  0  0  0  0  0  0  0  0  0  0  0
  191.6970  177.0170  140.4520 C   0  0  0  0  0  3  0  0  0  0  0  0
  191.2950  176.9460  139.1150 C   0  0  0  0  0  0  0  0  0  0  0  0
  188.4980  177.8420  142.1700 C   0  0  0  0  0  0  0  0  0  0  0  0
  191.1900  177.3970  142.7450 N   0  0  0  0  0  0  0  0  0  0  0  0
  189.9520  177.1740  138.7860 C   0  0  0  0  0  3  0  0  0  0  0  0
  189.4100  177.5310  141.1310 C   0  0  0  0  0  0  0  0  0  0  0  0
  184.2820  178.5070  141.5110 C   0  0  0  0  0  0  0  0  0  0  0  0
  186.5980  178.7770  140.8070 C   0  0  0  0  0  3  0  0  0  0  0  0
  184.8460  179.6960  139.4070 N   0  0  0  0  0  1  0  0  0  0  0  0
  184.7400  177.8110  142.6390 C   0  0  0  0  0  3  0  0  0  0  0  0
  185.2360  178.9920  140.5840 C   0  0  0  0  0  0  0  0  0  0  0  0
  187.0500  178.0920  141.9420 C   0  0  0  0  0  0  0  0  0  0  0  0
  186.1040  177.6010  142.8520 C   0  0  0  0  0  3  0  0  0  0  0  0
  182.0120  179.1960  142.4170 N   0  0  0  0  0  1  0  0  0  0  0  0
  182.2630  178.4160  140.2570 O   0  0  0  0  0  0  0  0  0  0  0  0
  182.8190  178.6990  141.3530 C   0  0  0  0  0  0  0  0  0  0  0  0
  192.2500  176.6570  138.1380 O   0  0  0  0  0  0  0  0  0  0  0  0
  192.2400  175.4480  137.3820 C   0  0  2  0  0  3  0  0  0  0  0  0
  193.4550  174.6840  137.5150 C   0  0  1  0  0  3  0  0  0  0  0  0
  193.2780  175.5440  136.2610 C   0  0  0  0  0  0  0  0  0  0  0  0
  193.6760  175.9930  135.1990 O   0  0  0  0  0  0  0  0  0  0  0  0
  196.3100  175.2060  139.9380 O   0  0  0  0  0  1  0  0  0  0  0  0
  195.4050  174.5550  139.1130 C   0  0  0  0  0  0  0  0  0  0  0  0
  194.4280  175.3130  138.4000 N   0  0  0  0  0  2  0  0  0  0  0  0
  195.4540  173.3020  138.9980 O   0  0  0  0  0  0  0  0  0  0  0  0
  190.8430  177.8290  145.1490 C   0  0  0  0  0  2  0  0  0  0  0  0
  189.7150  177.7740  146.1230 C   0  0  0  0  0  0  0  0  0  0  0  0
  189.9730  177.6070  147.4870 C   0  0  0  0  0  3  0  0  0  0  0  0
  187.3280  177.7750  146.5740 C   0  0  0  0  0  0  0  0  0  0  0  0
  188.9140  177.5400  148.3960 C   0  0  0  0  0  3  0  0  0  0  0  0
  188.3940  177.8630  145.6690 C   0  0  0  0  0  3  0  0  0  0  0  0
  187.5950  177.6280  147.9420 C   0  0  0  0  0  3  0  0  0  0  0  0
  185.9150  177.9080  146.0970 C   0  0  2  0  0  3  0  0  0  0  0  0
  185.5680  179.3140  145.8910 C   0  0  0  0  0  2  0  0  0  0  0  0
  185.1080  178.6230  147.1030 N   0  0  0  0  0  2  0  0  0  0  0  0
  1  4  1  0  0  0  0
  2  8  1  0  0  0  0
  3 10  2  0  0  0  0
  4 30  1  0  0  0  0
  5  2  2  0  0  0  0
  6  5  1  0  0  0  0
  7  1  2  0  0  0  0
  8  4  2  0  0  0  0
  9  6  2  0  0  0  0
  9  3  1  0  0  0  0
 10  2  1  0  0  0  0
 10  7  1  0  0  0  0
 11 14  1  0  0  0  0
 12 16  2  0  0  0  0
 13 15  1  0  0  0  0
 14 17  2  0  0  0  0
 15 12  1  0  0  0  0
 15 11  2  0  0  0  0
 16  7  1  0  0  0  0
 16 17  1  0  0  0  0
 19 20  2  0  0  0  0
 20 11  1  0  0  0  0
 20 18  1  0  0  0  0
 21  6  1  0  0  0  0
 22 23  1  0  0  0  0
 22 21  1  1  0  0  0
 23 28  1  1  0  0  0
 24 22  1  0  0  0  0
 24 23  1  0  0  0  0
 25 24  2  0  0  0  0
 27 26  1  0  0  0  0
 28 27  1  0  0  0  0
 29 27  2  0  0  0  0
 30 31  1  0  0  0  0
 31 32  1  0  0  0  0
 32 34  2  0  0  0  0
 33 36  2  0  0  0  0
 35 31  2  0  0  0  0
 35 33  1  0  0  0  0
 36 34  1  0  0  0  0
 37 33  1  1  0  0  0
 37 39  1  0  0  0  0
 38 37  1  0  0  0  0
 38 39  1  0  0  0  0
M  END
>  <MODEL>
5

>  <REMARK>
 VINA RESULT:     -10.1      2.461      9.013
  Name = 
  8 active torsions:
  status: ('A' for Active; 'I' for Inactive)
    1  A    between atoms: C_3  and  C_37
    2  A    between atoms: O_5  and  C_7
    3  A    between atoms: O_5  and  C_30
    4  A    between atoms: C_6  and  C_8
    5  A    between atoms: C_11  and  N_25
    6  A    between atoms: C_16  and  C_19
    7  A    between atoms: C_24  and  C_37
    8  A    between atoms: C_29  and  C_31
                            x       y       z     vdW  Elec       q    Type
                         _______ _______ _______ _____ _____    ______ ____

>  <TORSDO>
F 8

$$$$
=
 OpenBabel11042411053D

 39 44  0  0  1  0  0  0  0  0999 V2000
  186.6600  178.0430  144.5310 C   0  0  0  0  0  3  0  0  0  0  0  0
  184.1740  178.6960  143.4950 C   0  0  0  0  0  0  0  0  0  0  0  0
  184.9830  178.4230  141.2240 C   0  0  0  0  0  3  0  0  0  0  0  0
  185.5840  178.3400  145.3670 C   0  0  0  0  0  0  0  0  0  0  0  0
  182.9040  179.0040  143.0000 C   0  0  0  0  0  3  0  0  0  0  0  0
  182.6660  179.0270  141.6230 C   0  0  0  0  0  0  0  0  0  0  0  0
  186.5090  178.0820  143.1370 C   0  0  0  0  0  0  0  0  0  0  0  0
  184.3750  178.6550  144.8370 N   0  0  0  0  0  0  0  0  0  0  0  0
  183.7120  178.7340  140.7370 C   0  0  0  0  0  3  0  0  0  0  0  0
  185.2370  178.4080  142.6050 C   0  0  0  0  0  0  0  0  0  0  0  0
  189.9860  177.1790  140.7400 C   0  0  0  0  0  0  0  0  0  0  0  0
  187.8700  178.3490  141.0350 C   0  0  0  0  0  3  0  0  0  0  0  0
  189.1100  178.6960  138.9810 N   0  0  0  0  0  1  0  0  0  0  0  0
  189.8100  176.6080  142.0090 C   0  0  0  0  0  3  0  0  0  0  0  0
  188.9940  178.0660  140.2550 C   0  0  0  0  0  0  0  0  0  0  0  0
  187.6940  177.7650  142.2960 C   0  0  0  0  0  0  0  0  0  0  0  0
  188.6830  176.8980  142.7790 C   0  0  0  0  0  3  0  0  0  0  0  0
  192.4300  177.5270  140.1450 N   0  0  0  0  0  1  0  0  0  0  0  0
  191.1690  175.8710  139.1440 O   0  0  0  0  0  0  0  0  0  0  0  0
  191.2050  176.8200  139.9730 C   0  0  0  0  0  0  0  0  0  0  0  0
  181.3830  179.3340  141.1650 O   0  0  0  0  0  0  0  0  0  0  0  0
  180.4360  178.3340  140.7930 C   0  0  2  0  0  3  0  0  0  0  0  0
  179.1410  178.8730  140.4630 C   0  0  1  0  0  3  0  0  0  0  0  0
  179.3340  178.2630  141.8540 C   0  0  0  0  0  0  0  0  0  0  0  0
  178.9310  177.9750  142.9680 O   0  0  0  0  0  0  0  0  0  0  0  0
  178.9930  182.5480  139.5890 O   0  0  0  0  0  1  0  0  0  0  0  0
  179.0530  181.1720  139.4260 C   0  0  0  0  0  0  0  0  0  0  0  0
  179.0830  180.3250  140.5740 N   0  0  0  0  0  2  0  0  0  0  0  0
  179.0780  180.6820  138.2660 O   0  0  0  0  0  0  0  0  0  0  0  0
  185.7510  178.2640  146.8470 C   0  0  0  0  0  2  0  0  0  0  0  0
  187.1850  178.0610  147.2000 C   0  0  0  0  0  0  0  0  0  0  0  0
  187.6580  178.4420  148.4600 C   0  0  0  0  0  3  0  0  0  0  0  0
  189.4230  177.3550  146.5720 C   0  0  0  0  0  0  0  0  0  0  0  0
  189.0060  178.2670  148.7830 C   0  0  0  0  0  3  0  0  0  0  0  0
  188.0650  177.5140  146.2600 C   0  0  0  0  0  3  0  0  0  0  0  0
  189.8860  177.7200  147.8440 C   0  0  0  0  0  3  0  0  0  0  0  0
  190.3610  176.7350  145.5830 C   0  0  2  0  0  3  0  0  0  0  0  0
  191.6010  176.3170  146.2380 C   0  0  0  0  0  2  0  0  0  0  0  0
  191.5760  177.5590  145.4550 N   0  0  0  0  0  2  0  0  0  0  0  0
  1  4  1  0  0  0  0
  2  8  1  0  0  0  0
  3 10  1  0  0  0  0
  4 30  1  0  0  0  0
  5  2  1  0  0  0  0
  6  5  2  0  0  0  0
  7  1  2  0  0  0  0
  8  4  2  0  0  0  0
  9  3  2  0  0  0  0
  9  6  1  0  0  0  0
 10  7  1  0  0  0  0
 10  2  2  0  0  0  0
 11 14  1  0  0  0  0
 12 16  2  0  0  0  0
 13 15  1  0  0  0  0
 14 17  2  0  0  0  0
 15 11  2  0  0  0  0
 15 12  1  0  0  0  0
 16 17  1  0  0  0  0
 16  7  1  0  0  0  0
 19 20  2  0  0  0  0
 20 18  1  0  0  0  0
 20 11  1  0  0  0  0
 21  6  1  0  0  0  0
 22 21  1  1  0  0  0
 22 24  1  0  0  0  0
 23 28  1  1  0  0  0
 23 22  1  0  0  0  0
 23 24  1  0  0  0  0
 24 25  2  0  0  0  0
 27 26  1  0  0  0  0
 27 28  1  0  0  0  0
 29 27  2  0  0  0  0
 30 31  1  0  0  0  0
 31 32  1  0  0  0  0
 32 34  2  0  0  0  0
 33 36  2  0  0  0  0
 35 33  1  0  0  0  0
 35 31  2  0  0  0  0
 36 34  1  0  0  0  0
 37 38  1  0  0  0  0
 37 33  1  1  0  0  0
 39 37  1  0  0  0  0
 39 38  1  0  0  0  0
M  END
>  <MODEL>
6

>  <REMARK>
 VINA RESULT:     -10.1      1.153      1.859
  Name = 
  8 active torsions:
  status: ('A' for Active; 'I' for Inactive)
    1  A    between atoms: C_3  and  C_37
    2  A    between atoms: O_5  and  C_7
    3  A    between atoms: O_5  and  C_30
    4  A    between atoms: C_6  and  C_8
    5  A    between atoms: C_11  and  N_25
    6  A    between atoms: C_16  and  C_19
    7  A    between atoms: C_24  and  C_37
    8  A    between atoms: C_29  and  C_31
                            x       y       z     vdW  Elec       q    Type
                         _______ _______ _______ _____ _____    ______ ____

>  <TORSDO>
F 8

$$$$
=
 OpenBabel11042411053D

 39 44  0  0  1  0  0  0  0  0999 V2000
  185.9490  178.3210  144.7490 C   0  0  0  0  0  3  0  0  0  0  0  0
  186.1210  178.5330  141.9910 C   0  0  0  0  0  0  0  0  0  0  0  0
  188.4300  177.7920  142.0190 C   0  0  0  0  0  3  0  0  0  0  0  0
  184.8550  178.7300  143.9870 C   0  0  0  0  0  0  0  0  0  0  0  0
  186.1730  178.6250  140.5980 C   0  0  0  0  0  3  0  0  0  0  0  0
  187.3460  178.3070  139.9090 C   0  0  0  0  0  0  0  0  0  0  0  0
  187.1730  178.0200  144.1330 C   0  0  0  0  0  0  0  0  0  0  0  0
  184.9630  178.8240  142.6360 N   0  0  0  0  0  0  0  0  0  0  0  0
  188.4750  177.8880  140.6260 C   0  0  0  0  0  3  0  0  0  0  0  0
  187.2610  178.1200  142.7230 C   0  0  0  0  0  0  0  0  0  0  0  0
  190.4640  176.8510  146.6730 C   0  0  0  0  0  0  0  0  0  0  0  0
  189.5250  177.1780  144.4500 C   0  0  0  0  0  3  0  0  0  0  0  0
  191.8080  176.3870  144.6390 N   0  0  0  0  0  1  0  0  0  0  0  0
  189.2460  177.2850  147.2160 C   0  0  0  0  0  3  0  0  0  0  0  0
  190.5970  176.8030  145.2640 C   0  0  0  0  0  0  0  0  0  0  0  0
  188.3070  177.5980  144.9980 C   0  0  0  0  0  0  0  0  0  0  0  0
  188.1830  177.6580  146.3930 C   0  0  0  0  0  3  0  0  0  0  0  0
  192.0010  175.1160  147.7100 N   0  0  0  0  0  1  0  0  0  0  0  0
  192.0910  177.3360  148.3390 O   0  0  0  0  0  0  0  0  0  0  0  0
  191.5500  176.4630  147.6090 C   0  0  0  0  0  0  0  0  0  0  0  0
  187.3590  178.4050  138.5160 O   0  0  0  0  0  0  0  0  0  0  0  0
  186.8610  177.3740  137.6650 C   0  0  2  0  0  3  0  0  0  0  0  0
  187.9020  176.6670  136.9610 C   0  0  1  0  0  3  0  0  0  0  0  0
  187.1290  177.7510  136.2050 C   0  0  0  0  0  0  0  0  0  0  0  0
  186.9160  178.4270  135.2120 O   0  0  0  0  0  0  0  0  0  0  0  0
  191.5190  176.8130  138.0510 O   0  0  0  0  0  1  0  0  0  0  0  0
  190.2640  176.2940  137.7690 C   0  0  0  0  0  0  0  0  0  0  0  0
  189.2380  177.1570  137.2790 N   0  0  0  0  0  2  0  0  0  0  0  0
  190.0410  175.0680  137.9460 O   0  0  0  0  0  0  0  0  0  0  0  0
  183.5520  179.0170  144.6510 C   0  0  0  0  0  2  0  0  0  0  0  0
  182.4240  178.8010  143.7000 C   0  0  0  0  0  0  0  0  0  0  0  0
  181.1250  178.6160  144.1840 C   0  0  0  0  0  3  0  0  0  0  0  0
  181.6190  178.5140  141.4260 C   0  0  0  0  0  0  0  0  0  0  0  0
  180.0710  178.3970  143.2920 C   0  0  0  0  0  3  0  0  0  0  0  0
  182.6690  178.7540  142.3240 C   0  0  0  0  0  3  0  0  0  0  0  0
  180.3160  178.3510  141.9170 C   0  0  0  0  0  3  0  0  0  0  0  0
  181.8710  178.5020  139.9500 C   0  0  2  0  0  3  0  0  0  0  0  0
  181.1370  177.4100  139.3090 C   0  0  0  0  0  2  0  0  0  0  0  0
  182.5760  177.2650  139.5690 N   0  0  0  0  0  2  0  0  0  0  0  0
  2  8  2  0  0  0  0
  2 10  1  0  0  0  0
  3 10  1  0  0  0  0
  4 30  1  0  0  0  0
  4  1  2  0  0  0  0
  5  2  1  0  0  0  0
  6  5  2  0  0  0  0
  6  9  1  0  0  0  0
  7  1  1  0  0  0  0
  7 16  1  0  0  0  0
  8  4  1  0  0  0  0
  9  3  2  0  0  0  0
 10  7  2  0  0  0  0
 11 14  1  0  0  0  0
 11 20  1  0  0  0  0
 12 16  2  0  0  0  0
 12 15  1  0  0  0  0
 13 15  1  0  0  0  0
 15 11  2  0  0  0  0
 16 17  1  0  0  0  0
 17 14  2  0  0  0  0
 20 18  1  0  0  0  0
 20 19  2  0  0  0  0
 21  6  1  0  0  0  0
 22 21  1  1  0  0  0
 23 28  1  1  0  0  0
 23 22  1  0  0  0  0
 24 23  1  0  0  0  0
 24 22  1  0  0  0  0
 25 24  2  0  0  0  0
 27 29  2  0  0  0  0
 27 26  1  0  0  0  0
 28 27  1  0  0  0  0
 31 32  1  0  0  0  0
 31 30  1  0  0  0  0
 33 36  2  0  0  0  0
 33 35  1  0  0  0  0
 34 32  2  0  0  0  0
 35 31  2  0  0  0  0
 36 34  1  0  0  0  0
 37 33  1  1  0  0  0
 38 39  1  0  0  0  0
 38 37  1  0  0  0  0
 39 37  1  0  0  0  0
M  END
>  <MODEL>
7

>  <REMARK>
 VINA RESULT:     -10.0      3.154      7.758
  Name = 
  8 active torsions:
  status: ('A' for Active; 'I' for Inactive)
    1  A    between atoms: C_3  and  C_37
    2  A    between atoms: O_5  and  C_7
    3  A    between atoms: O_5  and  C_30
    4  A    between atoms: C_6  and  C_8
    5  A    between atoms: C_11  and  N_25
    6  A    between atoms: C_16  and  C_19
    7  A    between atoms: C_24  and  C_37
    8  A    between atoms: C_29  and  C_31
                            x       y       z     vdW  Elec       q    Type
                         _______ _______ _______ _____ _____    ______ ____

>  <TORSDO>
F 8

$$$$
=
 OpenBabel11042411053D

 39 44  0  0  1  0  0  0  0  0999 V2000
  189.0260  178.0630  141.4100 C   0  0  0  0  0  3  0  0  0  0  0  0
  186.2960  178.5380  141.3670 C   0  0  0  0  0  0  0  0  0  0  0  0
  186.1350  178.1710  143.7590 C   0  0  0  0  0  3  0  0  0  0  0  0
  188.3680  178.3860  140.2240 C   0  0  0  0  0  0  0  0  0  0  0  0
  184.9250  178.8050  141.3210 C   0  0  0  0  0  3  0  0  0  0  0  0
  184.1530  178.7560  142.4850 C   0  0  0  0  0  0  0  0  0  0  0  0
  188.3140  177.9570  142.6130 C   0  0  0  0  0  0  0  0  0  0  0  0
  187.0300  178.6160  140.2280 N   0  0  0  0  0  0  0  0  0  0  0  0
  184.7650  178.4380  143.7050 C   0  0  0  0  0  3  0  0  0  0  0  0
  186.9190  178.2070  142.5960 C   0  0  0  0  0  0  0  0  0  0  0  0
  190.5200  176.8700  146.1630 C   0  0  0  0  0  0  0  0  0  0  0  0
  188.4350  177.5320  145.0920 C   0  0  0  0  0  3  0  0  0  0  0  0
  188.4330  177.1250  147.4820 N   0  0  0  0  0  1  0  0  0  0  0  0
  191.1450  176.9290  144.9080 C   0  0  0  0  0  3  0  0  0  0  0  0
  189.1400  177.1770  146.2450 C   0  0  0  0  0  0  0  0  0  0  0  0
  189.0670  177.6010  143.8450 C   0  0  0  0  0  0  0  0  0  0  0  0
  190.4300  177.2850  143.7640 C   0  0  0  0  0  3  0  0  0  0  0  0
  191.7180  177.4470  148.3260 N   0  0  0  0  0  1  0  0  0  0  0  0
  191.7300  175.2990  147.4760 O   0  0  0  0  0  0  0  0  0  0  0  0
  191.3440  176.4910  147.3380 C   0  0  0  0  0  0  0  0  0  0  0  0
  182.7870  179.0350  142.4010 O   0  0  0  0  0  0  0  0  0  0  0  0
  181.8200  178.0540  142.0320 C   0  0  2  0  0  3  0  0  0  0  0  0
  181.0300  178.4370  140.8900 C   0  0  1  0  0  3  0  0  0  0  0  0
  180.4160  178.6100  142.2810 C   0  0  0  0  0  0  0  0  0  0  0  0
  179.5140  178.9600  143.0240 O   0  0  0  0  0  0  0  0  0  0  0  0
  182.3390  181.1610  138.6180 O   0  0  0  0  0  1  0  0  0  0  0  0
  182.0150  179.8940  139.0790 C   0  0  0  0  0  0  0  0  0  0  0  0
  181.3970  179.7440  140.3560 N   0  0  0  0  0  2  0  0  0  0  0  0
  182.2670  178.8870  138.3650 O   0  0  0  0  0  0  0  0  0  0  0  0
  189.1430  178.5250  138.9580 C   0  0  0  0  0  2  0  0  0  0  0  0
  188.3820  177.9460  137.8140 C   0  0  0  0  0  0  0  0  0  0  0  0
  187.8860  178.7810  136.8070 C   0  0  0  0  0  3  0  0  0  0  0  0
  187.3900  176.0230  136.7090 C   0  0  0  0  0  0  0  0  0  0  0  0
  187.1570  178.2390  135.7450 C   0  0  0  0  0  3  0  0  0  0  0  0
  188.1380  176.5690  137.7620 C   0  0  0  0  0  3  0  0  0  0  0  0
  186.9140  176.8630  135.6930 C   0  0  0  0  0  3  0  0  0  0  0  0
  187.1600  174.5460  136.6290 C   0  0  2  0  0  3  0  0  0  0  0  0
  186.0240  174.2460  135.7570 C   0  0  0  0  0  2  0  0  0  0  0  0
  185.8510  174.2070  137.2150 N   0  0  0  0  0  2  0  0  0  0  0  0
  1  7  1  0  0  0  0
  2 10  1  0  0  0  0
  4  8  1  0  0  0  0
  4  1  2  0  0  0  0
  5  2  1  0  0  0  0
  5  6  2  0  0  0  0
  6  9  1  0  0  0  0
  7 16  1  0  0  0  0
  8  2  2  0  0  0  0
  9  3  2  0  0  0  0
 10  7  2  0  0  0  0
 10  3  1  0  0  0  0
 11 15  1  0  0  0  0
 11 20  1  0  0  0  0
 12 15  2  0  0  0  0
 14 11  2  0  0  0  0
 15 13  1  0  0  0  0
 16 12  1  0  0  0  0
 17 16  2  0  0  0  0
 17 14  1  0  0  0  0
 20 19  2  0  0  0  0
 20 18  1  0  0  0  0
 21  6  1  0  0  0  0
 22 24  1  0  0  0  0
 22 21  1  1  0  0  0
 23 28  1  1  0  0  0
 23 22  1  0  0  0  0
 23 24  1  0  0  0  0
 24 25  2  0  0  0  0
 26 27  1  0  0  0  0
 27 28  1  0  0  0  0
 29 27  2  0  0  0  0
 30  4  1  0  0  0  0
 31 30  1  0  0  0  0
 32 31  2  0  0  0  0
 33 35  2  0  0  0  0
 34 32  1  0  0  0  0
 35 31  1  0  0  0  0
 36 34  2  0  0  0  0
 36 33  1  0  0  0  0
 37 33  1  6  0  0  0
 37 39  1  0  0  0  0
 38 37  1  0  0  0  0
 38 39  1  0  0  0  0
M  END
>  <MODEL>
8

>  <REMARK>
 VINA RESULT:      -9.8      3.109      6.753
  Name = 
  8 active torsions:
  status: ('A' for Active; 'I' for Inactive)
    1  A    between atoms: C_3  and  C_37
    2  A    between atoms: O_5  and  C_7
    3  A    between atoms: O_5  and  C_30
    4  A    between atoms: C_6  and  C_8
    5  A    between atoms: C_11  and  N_25
    6  A    between atoms: C_16  and  C_19
    7  A    between atoms: C_24  and  C_37
    8  A    between atoms: C_29  and  C_31
                            x       y       z     vdW  Elec       q    Type
                         _______ _______ _______ _____ _____    ______ ____

>  <TORSDO>
F 8

$$$$
=
 OpenBabel11042411053D

 39 44  0  0  1  0  0  0  0  0999 V2000
  187.4780  178.3420  142.4190 C   0  0  0  0  0  3  0  0  0  0  0  0
  188.4770  177.7760  139.8970 C   0  0  0  0  0  0  0  0  0  0  0  0
  190.4870  176.8050  140.8470 C   0  0  0  0  0  3  0  0  0  0  0  0
  186.7530  178.6530  141.2680 C   0  0  0  0  0  0  0  0  0  0  0  0
  188.9460  177.4790  138.6140 C   0  0  0  0  0  3  0  0  0  0  0  0
  190.1820  176.8510  138.4390 C   0  0  0  0  0  0  0  0  0  0  0  0
  188.7420  177.7440  142.3230 C   0  0  0  0  0  0  0  0  0  0  0  0
  187.2630  178.3640  140.0430 N   0  0  0  0  0  0  0  0  0  0  0  0
  190.9500  176.5140  139.5610 C   0  0  0  0  0  3  0  0  0  0  0  0
  189.2530  177.4460  141.0350 C   0  0  0  0  0  0  0  0  0  0  0  0
  190.8880  176.8230  145.9560 C   0  0  0  0  0  0  0  0  0  0  0  0
  188.7890  177.2180  144.7860 C   0  0  0  0  0  3  0  0  0  0  0  0
  188.7160  176.6960  147.1520 N   0  0  0  0  0  1  0  0  0  0  0  0
  191.5650  177.0380  144.7470 C   0  0  0  0  0  3  0  0  0  0  0  0
  189.4750  176.9150  145.9650 C   0  0  0  0  0  0  0  0  0  0  0  0
  189.4720  177.4440  143.5840 C   0  0  0  0  0  0  0  0  0  0  0  0
  190.8690  177.3390  143.5760 C   0  0  0  0  0  3  0  0  0  0  0  0
  192.4430  175.3070  147.2720 N   0  0  0  0  0  1  0  0  0  0  0  0
  191.7190  177.3260  148.1270 O   0  0  0  0  0  0  0  0  0  0  0  0
  191.6930  176.5130  147.1640 C   0  0  0  0  0  0  0  0  0  0  0  0
  190.6150  176.5650  137.1420 O   0  0  0  0  0  0  0  0  0  0  0  0
  189.8920  175.7120  136.2570 C   0  0  2  0  0  3  0  0  0  0  0  0
  190.5200  175.5680  134.9680 C   0  0  1  0  0  3  0  0  0  0  0  0
  189.3450  176.5410  135.0910 C   0  0  0  0  0  0  0  0  0  0  0  0
  188.5820  177.3710  134.6270 O   0  0  0  0  0  0  0  0  0  0  0  0
  194.1860  176.4420  134.6640 O   0  0  0  0  0  0  0  0  0  0  0  0
  193.0350  175.6770  134.7780 C   0  0  0  0  0  0  0  0  0  0  0  0
  191.7630  176.3210  134.8530 N   0  0  0  0  0  2  0  0  0  0  0  0
  193.1210  174.4210  134.8110 O   0  0  0  0  0  1  0  0  0  0  0  0
  185.3960  179.2600  141.3860 C   0  0  0  0  0  2  0  0  0  0  0  0
  184.8350  179.0190  142.7460 C   0  0  0  0  0  0  0  0  0  0  0  0
  183.4550  178.8630  142.9170 C   0  0  0  0  0  3  0  0  0  0  0  0
  185.1590  178.7870  145.1420 C   0  0  0  0  0  0  0  0  0  0  0  0
  182.9290  178.6540  144.1950 C   0  0  0  0  0  3  0  0  0  0  0  0
  185.6850  178.9760  143.8560 C   0  0  0  0  0  3  0  0  0  0  0  0
  183.7780  178.6110  145.3040 C   0  0  0  0  0  3  0  0  0  0  0  0
  186.0690  178.7020  146.3290 C   0  0  2  0  0  3  0  0  0  0  0  0
  185.3170  178.3500  147.5330 C   0  0  0  0  0  2  0  0  0  0  0  0
  185.7180  179.7440  147.3090 N   0  0  0  0  0  2  0  0  0  0  0  0
  2  8  2  0  0  0  0
  2 10  1  0  0  0  0
  3 10  1  0  0  0  0
  4 30  1  0  0  0  0
  4  1  2  0  0  0  0
  5  2  1  0  0  0  0
  6  5  2  0  0  0  0
  6  9  1  0  0  0  0
  7  1  1  0  0  0  0
  7 16  1  0  0  0  0
  8  4  1  0  0  0  0
  9  3  2  0  0  0  0
 10  7  2  0  0  0  0
 11 15  1  0  0  0  0
 11 20  1  0  0  0  0
 12 15  2  0  0  0  0
 14 11  2  0  0  0  0
 15 13  1  0  0  0  0
 16 12  1  0  0  0  0
 17 16  2  0  0  0  0
 17 14  1  0  0  0  0
 20 18  1  0  0  0  0
 20 19  2  0  0  0  0
 21  6  1  0  0  0  0
 22 21  1  1  0  0  0
 23 28  1  1  0  0  0
 23 24  1  0  0  0  0
 23 22  1  0  0  0  0
 24 22  1  0  0  0  0
 25 24  2  0  0  0  0
 26 27  2  0  0  0  0
 27 29  1  0  0  0  0
 27 28  1  0  0  0  0
 30 31  1  0  0  0  0
 31 32  2  0  0  0  0
 31 35  1  0  0  0  0
 32 34  1  0  0  0  0
 33 36  1  0  0  0  0
 34 36  2  0  0  0  0
 35 33  2  0  0  0  0
 37 33  1  6  0  0  0
 37 39  1  0  0  0  0
 37 38  1  0  0  0  0
 39 38  1  0  0  0  0
M  END
>  <MODEL>
9

>  <REMARK>
 VINA RESULT:      -9.7      4.424      8.455
  Name = 
  8 active torsions:
  status: ('A' for Active; 'I' for Inactive)
    1  A    between atoms: C_3  and  C_37
    2  A    between atoms: O_5  and  C_7
    3  A    between atoms: O_5  and  C_30
    4  A    between atoms: C_6  and  C_8
    5  A    between atoms: C_11  and  N_25
    6  A    between atoms: C_16  and  C_19
    7  A    between atoms: C_24  and  C_37
    8  A    between atoms: C_29  and  C_31
                            x       y       z     vdW  Elec       q    Type
                         _______ _______ _______ _____ _____    ______ ____

>  <TORSDO>
F 8

$$$$
