=
 OpenBabel11042413083D

 32 34  0  0  1  0  0  0  0  0999 V2000
  189.4210  177.4790  146.6870 C   0  0  0  0  0  0  0  0  0  0  0  0
  187.0810  178.0310  145.9620 C   0  0  0  0  0  3  0  0  0  0  0  0
  186.3430  177.5750  143.7080 C   0  0  0  0  0  3  0  0  0  0  0  0
  190.7660  177.0240  146.2960 C   0  0  0  0  0  0  0  0  0  0  0  0
  189.9430  176.5580  144.0270 N   0  0  0  0  0  0  0  0  0  0  0  0
  188.6340  177.0710  144.3540 C   0  0  0  0  0  0  0  0  0  0  0  0
  187.6110  177.0860  143.3920 C   0  0  0  0  0  3  0  0  0  0  0  0
  191.6550  176.8140  147.1640 O   0  0  0  0  0  0  0  0  0  0  0  0
  189.1640  177.7890  147.9580 C   0  0  0  0  0  2  0  0  0  0  0  0
  186.0730  178.0530  144.9960 C   0  0  0  0  0  0  0  0  0  0  0  0
  188.3620  177.5420  145.6560 C   0  0  0  0  0  0  0  0  0  0  0  0
  191.1130  176.8740  144.8480 C   0  0  0  0  0  2  0  0  0  0  0  0
  190.1750  175.8680  142.7610 C   0  0  0  0  0  2  0  0  0  0  0  0
  190.8010  176.8060  141.7400 C   0  0  2  0  0  3  0  0  0  0  0  0
  190.3550  178.1120  141.9570 O   0  0  0  0  0  1  0  0  0  0  0  0
  190.4240  176.3810  140.4030 N   0  0  0  0  0  2  0  0  0  0  0  0
  190.3360  177.5810  139.5790 C   0  0  0  0  0  2  0  0  0  0  0  0
  186.6990  178.1830  138.8660 C   0  0  0  0  0  0  0  0  0  0  0  0
  188.4260  175.8150  136.7780 C   0  0  0  0  0  2  0  0  0  0  0  0
  189.1240  176.0520  138.1130 C   0  0  0  0  0  2  0  0  0  0  0  0
  187.9100  177.8650  139.3470 C   0  0  0  0  0  3  0  0  0  0  0  0
  185.6630  178.6060  139.8420 C   0  0  0  0  0  1  0  0  0  0  0  0
  186.9220  175.9080  136.9150 C   0  0  0  0  0  2  0  0  0  0  0  0
  186.3610  178.2770  137.4350 C   0  0  0  0  0  3  0  0  0  0  0  0
  186.4630  177.2810  136.5580 C   0  0  0  0  0  3  0  0  0  0  0  0
  189.4550  178.4810  137.4490 C   0  0  0  0  0  1  0  0  0  0  0  0
  189.1700  177.5080  138.5950 C   0  0  1  0  0  0  0  0  0  0  0  0
  184.7840  178.5670  145.3440 N   0  0  0  0  0  2  0  0  0  0  0  0
  184.0730  179.5680  144.5580 C   0  0  0  0  0  2  0  0  0  0  0  0
  181.9140  178.6450  144.4010 O   0  0  0  0  0  0  0  0  0  0  0  0
  183.0580  178.6880  142.3500 C   0  0  0  0  0  1  0  0  0  0  0  0
  182.9420  178.9380  143.8150 C   0  0  0  0  0  0  0  0  0  0  0  0
  1  9  2  0  0  0  0
  3 10  1  0  0  0  0
  4  1  1  0  0  0  0
  4  8  2  0  0  0  0
  5  6  1  0  0  0  0
  5 12  1  0  0  0  0
  6 11  2  0  0  0  0
  7  3  2  0  0  0  0
  7  6  1  0  0  0  0
 10 28  1  0  0  0  0
 10  2  2  0  0  0  0
 11  2  1  0  0  0  0
 11  1  1  0  0  0  0
 12  4  1  0  0  0  0
 13  5  1  0  0  0  0
 14 15  1  1  0  0  0
 14 13  1  0  0  0  0
 16 14  1  0  0  0  0
 17 16  1  0  0  0  0
 18 21  2  0  0  0  0
 18 22  1  0  0  0  0
 19 23  1  0  0  0  0
 19 20  1  0  0  0  0
 20 27  1  0  0  0  0
 24 18  1  0  0  0  0
 25 23  1  0  0  0  0
 25 24  2  0  0  0  0
 27 26  1  6  0  0  0
 27 21  1  0  0  0  0
 27 17  1  0  0  0  0
 29 28  1  0  0  0  0
 31 32  1  0  0  0  0
 32 30  2  0  0  0  0
 32 29  1  0  0  0  0
M  END
>  <MODEL>
1

>  <REMARK>
 VINA RESULT:      -8.7      0.000      0.000
  Name = 
  8 active torsions:
  status: ('A' for Active; 'I' for Inactive)
    1  A    between atoms: C_2  and  N_12
    2  A    between atoms: C_2  and  C_17
    3  A    between atoms: C_6  and  N_14
    4  A    between atoms: C_6  and  C_32
    5  A    between atoms: C_7  and  C_16
    6  A    between atoms: C_7  and  N_26
    7  A    between atoms: N_14  and  C_17
    8  A    between atoms: C_25  and  N_26
                            x       y       z     vdW  Elec       q    Type
                         _______ _______ _______ _____ _____    ______ ____

>  <TORSDO>
F 8

$$$$
=
 OpenBabel11042413083D

 32 34  0  0  1  0  0  0  0  0999 V2000
  189.0140  177.4940  146.7870 C   0  0  0  0  0  0  0  0  0  0  0  0
  186.7410  178.1490  145.9440 C   0  0  0  0  0  3  0  0  0  0  0  0
  186.1070  177.7450  143.6490 C   0  0  0  0  0  3  0  0  0  0  0  0
  190.3580  176.9870  146.4620 C   0  0  0  0  0  0  0  0  0  0  0  0
  189.6400  176.5760  144.1480 N   0  0  0  0  0  0  0  0  0  0  0  0
  188.3370  177.1400  144.4110 C   0  0  0  0  0  0  0  0  0  0  0  0
  187.3690  177.2070  143.3960 C   0  0  0  0  0  3  0  0  0  0  0  0
  191.1890  176.7320  147.3750 O   0  0  0  0  0  0  0  0  0  0  0  0
  188.7020  177.8020  148.0460 C   0  0  0  0  0  2  0  0  0  0  0  0
  185.7880  178.2220  144.9270 C   0  0  0  0  0  0  0  0  0  0  0  0
  188.0150  177.6100  145.7020 C   0  0  0  0  0  0  0  0  0  0  0  0
  190.7760  176.8360  145.0340 C   0  0  0  0  0  2  0  0  0  0  0  0
  189.9110  175.8890  142.8890 C   0  0  0  0  0  2  0  0  0  0  0  0
  190.6980  176.7830  141.9420 C   0  0  2  0  0  3  0  0  0  0  0  0
  190.3920  178.1230  142.1890 O   0  0  0  0  0  1  0  0  0  0  0  0
  190.3540  176.4510  140.5710 N   0  0  0  0  0  2  0  0  0  0  0  0
  189.1710  177.2300  140.2230 C   0  0  0  0  0  2  0  0  0  0  0  0
  186.9250  177.2690  137.2150 C   0  0  0  0  0  0  0  0  0  0  0  0
  190.4280  176.6660  136.6580 C   0  0  0  0  0  2  0  0  0  0  0  0
  189.9940  176.3760  138.0910 C   0  0  0  0  0  2  0  0  0  0  0  0
  187.5910  177.0380  138.3560 C   0  0  0  0  0  3  0  0  0  0  0  0
  185.4800  176.9210  137.1830 C   0  0  0  0  0  1  0  0  0  0  0  0
  189.3290  176.3400  135.6700 C   0  0  0  0  0  2  0  0  0  0  0  0
  187.4800  177.9660  136.0430 C   0  0  0  0  0  3  0  0  0  0  0  0
  188.5490  177.5720  135.3540 C   0  0  0  0  0  3  0  0  0  0  0  0
  189.3730  178.8260  138.3430 C   0  0  0  0  0  1  0  0  0  0  0  0
  189.0180  177.3840  138.7120 C   0  0  1  0  0  0  0  0  0  0  0  0
  184.5040  178.7860  145.2110 N   0  0  0  0  0  2  0  0  0  0  0  0
  183.8020  179.6930  144.3120 C   0  0  0  0  0  2  0  0  0  0  0  0
  181.7040  178.6350  144.1700 O   0  0  0  0  0  0  0  0  0  0  0  0
  182.8680  178.6730  142.1290 C   0  0  0  0  0  1  0  0  0  0  0  0
  182.7200  178.9690  143.5820 C   0  0  0  0  0  0  0  0  0  0  0  0
  1  9  2  0  0  0  0
  3 10  1  0  0  0  0
  4  1  1  0  0  0  0
  4  8  2  0  0  0  0
  5  6  1  0  0  0  0
  5 12  1  0  0  0  0
  6 11  2  0  0  0  0
  7  3  2  0  0  0  0
  7  6  1  0  0  0  0
 10 28  1  0  0  0  0
 10  2  2  0  0  0  0
 11  2  1  0  0  0  0
 11  1  1  0  0  0  0
 12  4  1  0  0  0  0
 13  5  1  0  0  0  0
 14 15  1  1  0  0  0
 14 13  1  0  0  0  0
 16 14  1  0  0  0  0
 17 16  1  0  0  0  0
 18 21  2  0  0  0  0
 19 20  1  0  0  0  0
 20 27  1  0  0  0  0
 21 27  1  0  0  0  0
 22 18  1  0  0  0  0
 23 19  1  0  0  0  0
 24 18  1  0  0  0  0
 25 23  1  0  0  0  0
 25 24  2  0  0  0  0
 27 26  1  6  0  0  0
 27 17  1  0  0  0  0
 29 28  1  0  0  0  0
 31 32  1  0  0  0  0
 32 30  2  0  0  0  0
 32 29  1  0  0  0  0
M  END
>  <MODEL>
2

>  <REMARK>
 VINA RESULT:      -8.5      0.886      1.160
  Name = 
  8 active torsions:
  status: ('A' for Active; 'I' for Inactive)
    1  A    between atoms: C_2  and  N_12
    2  A    between atoms: C_2  and  C_17
    3  A    between atoms: C_6  and  N_14
    4  A    between atoms: C_6  and  C_32
    5  A    between atoms: C_7  and  C_16
    6  A    between atoms: C_7  and  N_26
    7  A    between atoms: N_14  and  C_17
    8  A    between atoms: C_25  and  N_26
                            x       y       z     vdW  Elec       q    Type
                         _______ _______ _______ _____ _____    ______ ____

>  <TORSDO>
F 8

$$$$
=
 OpenBabel11042413083D

 32 34  0  0  1  0  0  0  0  0999 V2000
  188.4200  177.6010  146.8630 C   0  0  0  0  0  0  0  0  0  0  0  0
  186.2000  178.2500  145.8850 C   0  0  0  0  0  3  0  0  0  0  0  0
  185.7180  177.8740  143.5490 C   0  0  0  0  0  3  0  0  0  0  0  0
  189.7870  177.1090  146.6180 C   0  0  0  0  0  0  0  0  0  0  0  0
  189.2220  176.7260  144.2570 N   0  0  0  0  0  0  0  0  0  0  0  0
  187.9000  177.2760  144.4430 C   0  0  0  0  0  0  0  0  0  0  0  0
  186.9980  177.3490  143.3690 C   0  0  0  0  0  3  0  0  0  0  0  0
  190.5610  176.8490  147.5780 O   0  0  0  0  0  0  0  0  0  0  0  0
  188.0260  177.8890  148.1030 C   0  0  0  0  0  2  0  0  0  0  0  0
  185.3130  178.3290  144.8100 C   0  0  0  0  0  0  0  0  0  0  0  0
  187.4920  177.7250  145.7170 C   0  0  0  0  0  0  0  0  0  0  0  0
  190.2970  176.9820  145.2170 C   0  0  0  0  0  2  0  0  0  0  0  0
  189.5790  176.0600  143.0080 C   0  0  0  0  0  2  0  0  0  0  0  0
  190.5370  176.9150  142.1920 C   0  0  2  0  0  3  0  0  0  0  0  0
  190.1140  178.2460  142.2030 O   0  0  0  0  0  1  0  0  0  0  0  0
  190.5690  176.4280  140.8240 N   0  0  0  0  0  2  0  0  0  0  0  0
  190.4470  177.5890  139.9500 C   0  0  0  0  0  2  0  0  0  0  0  0
  189.0320  175.2970  137.3360 C   0  0  0  0  0  0  0  0  0  0  0  0
  188.4290  178.8230  136.9480 C   0  0  0  0  0  2  0  0  0  0  0  0
  189.6190  178.5170  137.8510 C   0  0  0  0  0  2  0  0  0  0  0  0
  189.7710  176.0360  138.1750 C   0  0  0  0  0  3  0  0  0  0  0  0
  189.5730  173.9740  136.9290 C   0  0  0  0  0  1  0  0  0  0  0  0
  188.2970  177.7980  135.8410 C   0  0  0  0  0  2  0  0  0  0  0  0
  187.6660  175.6330  136.8970 C   0  0  0  0  0  3  0  0  0  0  0  0
  187.3240  176.7420  136.2430 C   0  0  0  0  0  3  0  0  0  0  0  0
  188.0350  177.3480  139.4550 C   0  0  0  0  0  1  0  0  0  0  0  0
  189.4330  177.3530  138.8330 C   0  0  1  0  0  0  0  0  0  0  0  0
  184.0090  178.8790  145.0190 N   0  0  0  0  0  2  0  0  0  0  0  0
  183.3450  179.7690  144.0750 C   0  0  0  0  0  2  0  0  0  0  0  0
  182.5180  178.7100  142.1420 O   0  0  0  0  0  0  0  0  0  0  0  0
  181.0210  178.6450  143.9510 C   0  0  0  0  0  1  0  0  0  0  0  0
  182.3070  179.0250  143.3010 C   0  0  0  0  0  0  0  0  0  0  0  0
  1  9  2  0  0  0  0
  3 10  1  0  0  0  0
  4  1  1  0  0  0  0
  4  8  2  0  0  0  0
  5  6  1  0  0  0  0
  5 12  1  0  0  0  0
  6 11  2  0  0  0  0
  7  3  2  0  0  0  0
  7  6  1  0  0  0  0
 10 28  1  0  0  0  0
 10  2  2  0  0  0  0
 11  2  1  0  0  0  0
 11  1  1  0  0  0  0
 12  4  1  0  0  0  0
 13  5  1  0  0  0  0
 14 15  1  6  0  0  0
 14 13  1  0  0  0  0
 16 14  1  0  0  0  0
 17 16  1  0  0  0  0
 18 21  2  0  0  0  0
 19 20  1  0  0  0  0
 20 27  1  0  0  0  0
 21 27  1  0  0  0  0
 22 18  1  0  0  0  0
 23 25  1  0  0  0  0
 23 19  1  0  0  0  0
 24 18  1  0  0  0  0
 25 24  2  0  0  0  0
 27 26  1  1  0  0  0
 27 17  1  0  0  0  0
 29 28  1  0  0  0  0
 30 32  2  0  0  0  0
 32 31  1  0  0  0  0
 32 29  1  0  0  0  0
M  END
>  <MODEL>
3

>  <REMARK>
 VINA RESULT:      -8.4      1.086      2.054
  Name = 
  8 active torsions:
  status: ('A' for Active; 'I' for Inactive)
    1  A    between atoms: C_2  and  N_12
    2  A    between atoms: C_2  and  C_17
    3  A    between atoms: C_6  and  N_14
    4  A    between atoms: C_6  and  C_32
    5  A    between atoms: C_7  and  C_16
    6  A    between atoms: C_7  and  N_26
    7  A    between atoms: N_14  and  C_17
    8  A    between atoms: C_25  and  N_26
                            x       y       z     vdW  Elec       q    Type
                         _______ _______ _______ _____ _____    ______ ____

>  <TORSDO>
F 8

$$$$
=
 OpenBabel11042413083D

 32 34  0  0  1  0  0  0  0  0999 V2000
  182.1920  178.5890  141.8360 C   0  0  0  0  0  0  0  0  0  0  0  0
  183.9540  178.5470  140.0470 C   0  0  0  0  0  3  0  0  0  0  0  0
  186.2750  178.9450  140.5850 C   0  0  0  0  0  3  0  0  0  0  0  0
  181.8600  178.8720  143.2420 C   0  0  0  0  0  0  0  0  0  0  0  0
  184.2410  179.2380  143.7280 N   0  0  0  0  0  0  0  0  0  0  0  0
  184.5930  179.0450  142.3410 C   0  0  0  0  0  0  0  0  0  0  0  0
  185.9310  179.1370  141.9240 C   0  0  0  0  0  3  0  0  0  0  0  0
  180.7120  178.6160  143.6980 O   0  0  0  0  0  0  0  0  0  0  0  0
  181.2450  178.1710  140.9960 C   0  0  0  0  0  2  0  0  0  0  0  0
  185.2860  178.6500  139.6390 C   0  0  0  0  0  0  0  0  0  0  0  0
  183.5950  178.7390  141.3910 C   0  0  0  0  0  0  0  0  0  0  0  0
  182.8650  179.5340  144.1310 C   0  0  0  0  0  2  0  0  0  0  0  0
  185.2780  179.3360  144.7500 C   0  0  0  0  0  2  0  0  0  0  0  0
  185.2260  178.1410  145.6910 C   0  0  2  0  0  3  0  0  0  0  0  0
  184.7390  178.5400  146.9380 O   0  0  0  0  0  1  0  0  0  0  0  0
  186.5620  177.5910  145.8450 N   0  0  0  0  0  2  0  0  0  0  0  0
  186.9480  177.0330  144.5540 C   0  0  0  0  0  2  0  0  0  0  0  0
  190.4160  176.8810  145.9820 C   0  0  0  0  0  0  0  0  0  0  0  0
  189.9940  178.5700  142.8330 C   0  0  0  0  0  2  0  0  0  0  0  0
  188.6980  178.4580  143.6280 C   0  0  0  0  0  2  0  0  0  0  0  0
  189.1260  177.0870  145.6820 C   0  0  0  0  0  3  0  0  0  0  0  0
  190.7800  176.7920  147.4200 C   0  0  0  0  0  1  0  0  0  0  0  0
  191.1910  178.7330  143.7460 C   0  0  0  0  0  2  0  0  0  0  0  0
  191.4740  176.6000  144.9970 C   0  0  0  0  0  3  0  0  0  0  0  0
  191.8220  177.4060  143.9960 C   0  0  0  0  0  3  0  0  0  0  0  0
  188.8700  175.9310  143.4530 C   0  0  0  0  0  1  0  0  0  0  0  0
  188.4560  177.1150  144.3290 C   0  0  1  0  0  0  0  0  0  0  0  0
  185.6100  178.4560  138.2590 N   0  0  0  0  0  2  0  0  0  0  0  0
  186.6520  177.5500  137.7930 C   0  0  0  0  0  2  0  0  0  0  0  0
  188.2130  179.2330  137.2730 O   0  0  0  0  0  0  0  0  0  0  0  0
  189.0500  177.6140  138.7540 C   0  0  0  0  0  1  0  0  0  0  0  0
  187.9910  178.2040  137.8880 C   0  0  0  0  0  0  0  0  0  0  0  0
  1  4  1  0  0  0  0
  2 11  1  0  0  0  0
  3  7  2  0  0  0  0
  4  8  2  0  0  0  0
  4 12  1  0  0  0  0
  5 12  1  0  0  0  0
  5 13  1  0  0  0  0
  6  5  1  0  0  0  0
  7  6  1  0  0  0  0
  9  1  2  0  0  0  0
 10  2  2  0  0  0  0
 10  3  1  0  0  0  0
 11  1  1  0  0  0  0
 11  6  2  0  0  0  0
 13 14  1  0  0  0  0
 14 16  1  0  0  0  0
 14 15  1  1  0  0  0
 17 16  1  0  0  0  0
 18 22  1  0  0  0  0
 19 20  1  0  0  0  0
 19 23  1  0  0  0  0
 20 27  1  0  0  0  0
 21 18  2  0  0  0  0
 23 25  1  0  0  0  0
 24 18  1  0  0  0  0
 25 24  2  0  0  0  0
 27 26  1  6  0  0  0
 27 17  1  0  0  0  0
 27 21  1  0  0  0  0
 28 10  1  0  0  0  0
 29 32  1  0  0  0  0
 29 28  1  0  0  0  0
 30 32  2  0  0  0  0
 32 31  1  0  0  0  0
M  END
>  <MODEL>
4

>  <REMARK>
 VINA RESULT:      -8.3      2.370      7.558
  Name = 
  8 active torsions:
  status: ('A' for Active; 'I' for Inactive)
    1  A    between atoms: C_2  and  N_12
    2  A    between atoms: C_2  and  C_17
    3  A    between atoms: C_6  and  N_14
    4  A    between atoms: C_6  and  C_32
    5  A    between atoms: C_7  and  C_16
    6  A    between atoms: C_7  and  N_26
    7  A    between atoms: N_14  and  C_17
    8  A    between atoms: C_25  and  N_26
                            x       y       z     vdW  Elec       q    Type
                         _______ _______ _______ _____ _____    ______ ____

>  <TORSDO>
F 8

$$$$
=
 OpenBabel11042413083D

 32 34  0  0  1  0  0  0  0  0999 V2000
  188.0610  178.0130  137.8020 C   0  0  0  0  0  0  0  0  0  0  0  0
  186.4420  178.6820  139.6010 C   0  0  0  0  0  3  0  0  0  0  0  0
  186.9210  178.2390  141.9260 C   0  0  0  0  0  3  0  0  0  0  0  0
  189.3000  177.2960  137.4530 C   0  0  0  0  0  0  0  0  0  0  0  0
  189.7410  176.9020  139.8380 N   0  0  0  0  0  0  0  0  0  0  0  0
  188.4940  177.5280  140.2120 C   0  0  0  0  0  0  0  0  0  0  0  0
  188.1210  177.6280  141.5630 C   0  0  0  0  0  3  0  0  0  0  0  0
  189.7670  177.3480  136.2830 O   0  0  0  0  0  0  0  0  0  0  0  0
  187.3550  178.6280  136.8540 C   0  0  0  0  0  2  0  0  0  0  0  0
  186.0730  178.7680  140.9450 C   0  0  0  0  0  0  0  0  0  0  0  0
  187.6470  178.0690  139.2220 C   0  0  0  0  0  0  0  0  0  0  0  0
  189.9800  176.4370  138.4710 C   0  0  0  0  0  2  0  0  0  0  0  0
  190.7230  176.5390  140.8550 C   0  0  0  0  0  2  0  0  0  0  0  0
  191.6580  177.7030  141.1460 C   0  0  2  0  0  3  0  0  0  0  0  0
  192.8580  177.5340  140.4530 O   0  0  0  0  0  1  0  0  0  0  0  0
  191.9250  177.7600  142.5730 N   0  0  0  0  0  2  0  0  0  0  0  0
  191.1590  176.6880  143.1970 C   0  0  0  0  0  2  0  0  0  0  0  0
  191.3920  176.5030  146.9390 C   0  0  0  0  0  0  0  0  0  0  0  0
  188.2340  177.4880  145.5240 C   0  0  0  0  0  2  0  0  0  0  0  0
  189.1210  176.7350  144.5380 C   0  0  0  0  0  2  0  0  0  0  0  0
  191.3430  176.3080  145.6140 C   0  0  0  0  0  3  0  0  0  0  0  0
  192.2950  175.6260  147.7290 C   0  0  0  0  0  1  0  0  0  0  0  0
  188.4250  176.9820  146.9380 C   0  0  0  0  0  2  0  0  0  0  0  0
  190.7270  177.6080  147.6520 C   0  0  0  0  0  3  0  0  0  0  0  0
  189.4150  177.8380  147.6530 C   0  0  0  0  0  3  0  0  0  0  0  0
  190.8240  178.6090  144.7180 C   0  0  0  0  0  1  0  0  0  0  0  0
  190.6100  177.1030  144.5600 C   0  0  1  0  0  0  0  0  0  0  0  0
  184.8330  179.3920  141.2900 N   0  0  0  0  0  2  0  0  0  0  0  0
  183.8980  178.8480  142.2670 C   0  0  0  0  0  2  0  0  0  0  0  0
  184.9160  180.3220  143.7940 O   0  0  0  0  0  0  0  0  0  0  0  0
  183.7840  178.5440  144.8310 C   0  0  0  0  0  1  0  0  0  0  0  0
  184.2550  179.3080  143.6420 C   0  0  0  0  0  0  0  0  0  0  0  0
  1 11  1  0  0  0  0
  2 10  1  0  0  0  0
  4  1  1  0  0  0  0
  4 12  1  0  0  0  0
  5  6  1  0  0  0  0
  5 13  1  0  0  0  0
  6  7  2  0  0  0  0
  7  3  1  0  0  0  0
  8  4  2  0  0  0  0
  9  1  2  0  0  0  0
 10 28  1  0  0  0  0
 10  3  2  0  0  0  0
 11  2  2  0  0  0  0
 11  6  1  0  0  0  0
 12  5  1  0  0  0  0
 13 14  1  0  0  0  0
 14 15  1  6  0  0  0
 14 16  1  0  0  0  0
 16 17  1  0  0  0  0
 17 27  1  0  0  0  0
 18 24  1  0  0  0  0
 18 22  1  0  0  0  0
 19 23  1  0  0  0  0
 20 27  1  0  0  0  0
 20 19  1  0  0  0  0
 21 18  2  0  0  0  0
 23 25  1  0  0  0  0
 24 25  2  0  0  0  0
 27 26  1  1  0  0  0
 27 21  1  0  0  0  0
 28 29  1  0  0  0  0
 29 32  1  0  0  0  0
 32 30  2  0  0  0  0
 32 31  1  0  0  0  0
M  END
>  <MODEL>
5

>  <REMARK>
 VINA RESULT:      -8.3      2.092      6.871
  Name = 
  8 active torsions:
  status: ('A' for Active; 'I' for Inactive)
    1  A    between atoms: C_2  and  N_12
    2  A    between atoms: C_2  and  C_17
    3  A    between atoms: C_6  and  N_14
    4  A    between atoms: C_6  and  C_32
    5  A    between atoms: C_7  and  C_16
    6  A    between atoms: C_7  and  N_26
    7  A    between atoms: N_14  and  C_17
    8  A    between atoms: C_25  and  N_26
                            x       y       z     vdW  Elec       q    Type
                         _______ _______ _______ _____ _____    ______ ____

>  <TORSDO>
F 8

$$$$
=
 OpenBabel11042413083D

 32 34  0  0  1  0  0  0  0  0999 V2000
  185.5440  178.6040  145.8680 C   0  0  0  0  0  0  0  0  0  0  0  0
  187.9200  177.7960  145.9770 C   0  0  0  0  0  3  0  0  0  0  0  0
  189.0510  177.0040  143.9960 C   0  0  0  0  0  3  0  0  0  0  0  0
  184.3220  178.7570  145.0600 C   0  0  0  0  0  0  0  0  0  0  0  0
  185.5400  177.9680  143.0760 N   0  0  0  0  0  0  0  0  0  0  0  0
  186.7330  177.7300  143.8550 C   0  0  0  0  0  0  0  0  0  0  0  0
  187.8950  177.2280  143.2470 C   0  0  0  0  0  3  0  0  0  0  0  0
  183.3230  179.3780  145.5130 O   0  0  0  0  0  0  0  0  0  0  0  0
  185.5640  179.0190  147.1350 C   0  0  0  0  0  2  0  0  0  0  0  0
  189.0670  177.2860  145.3670 C   0  0  0  0  0  0  0  0  0  0  0  0
  186.7500  178.0250  145.2350 C   0  0  0  0  0  0  0  0  0  0  0  0
  184.2300  178.1110  143.7130 C   0  0  0  0  0  2  0  0  0  0  0  0
  185.5740  177.8780  141.6200 C   0  0  0  0  0  2  0  0  0  0  0  0
  186.0310  179.1930  141.0060 C   0  0  2  0  0  3  0  0  0  0  0  0
  185.1010  179.6240  140.0580 O   0  0  0  0  0  1  0  0  0  0  0  0
  187.3220  179.0030  140.3690 N   0  0  0  0  0  2  0  0  0  0  0  0
  187.1030  178.1680  139.1930 C   0  0  0  0  0  2  0  0  0  0  0  0
  188.8800  175.9280  136.7610 C   0  0  0  0  0  0  0  0  0  0  0  0
  190.7820  177.1940  139.5400 C   0  0  0  0  0  2  0  0  0  0  0  0
  189.2770  177.2310  139.7820 C   0  0  0  0  0  2  0  0  0  0  0  0
  188.1050  176.5110  137.6860 C   0  0  0  0  0  3  0  0  0  0  0  0
  188.2670  174.8610  135.9280 C   0  0  0  0  0  1  0  0  0  0  0  0
  191.1790  176.0020  138.6950 C   0  0  0  0  0  2  0  0  0  0  0  0
  190.2450  176.3580  136.4140 C   0  0  0  0  0  3  0  0  0  0  0  0
  191.2710  176.4050  137.2620 C   0  0  0  0  0  3  0  0  0  0  0  0
  189.0560  178.8440  137.8340 C   0  0  0  0  0  1  0  0  0  0  0  0
  188.4180  177.6790  138.5920 C   0  0  1  0  0  0  0  0  0  0  0  0
  190.2370  177.0590  146.1600 N   0  0  0  0  0  2  0  0  0  0  0  0
  191.5480  176.7580  145.5980 C   0  0  0  0  0  2  0  0  0  0  0  0
  192.4300  174.5770  145.6480 O   0  0  0  0  0  0  0  0  0  0  0  0
  192.4310  175.6280  147.7480 C   0  0  0  0  0  1  0  0  0  0  0  0
  192.1490  175.5770  146.2860 C   0  0  0  0  0  0  0  0  0  0  0  0
  1  9  2  0  0  0  0
  3 10  2  0  0  0  0
  4  8  2  0  0  0  0
  4  1  1  0  0  0  0
  5 12  1  0  0  0  0
  5  6  1  0  0  0  0
  6 11  1  0  0  0  0
  7  6  2  0  0  0  0
  7  3  1  0  0  0  0
 10  2  1  0  0  0  0
 10 28  1  0  0  0  0
 11  1  1  0  0  0  0
 11  2  2  0  0  0  0
 12  4  1  0  0  0  0
 13  5  1  0  0  0  0
 14 15  1  6  0  0  0
 14 13  1  0  0  0  0
 16 14  1  0  0  0  0
 17 16  1  0  0  0  0
 18 21  2  0  0  0  0
 19 20  1  0  0  0  0
 21 27  1  0  0  0  0
 22 18  1  0  0  0  0
 23 19  1  0  0  0  0
 24 18  1  0  0  0  0
 24 25  2  0  0  0  0
 25 23  1  0  0  0  0
 27 26  1  6  0  0  0
 27 17  1  0  0  0  0
 27 20  1  0  0  0  0
 29 28  1  0  0  0  0
 29 32  1  0  0  0  0
 30 32  2  0  0  0  0
 32 31  1  0  0  0  0
M  END
>  <MODEL>
6

>  <REMARK>
 VINA RESULT:      -8.3      1.913      5.497
  Name = 
  8 active torsions:
  status: ('A' for Active; 'I' for Inactive)
    1  A    between atoms: C_2  and  N_12
    2  A    between atoms: C_2  and  C_17
    3  A    between atoms: C_6  and  N_14
    4  A    between atoms: C_6  and  C_32
    5  A    between atoms: C_7  and  C_16
    6  A    between atoms: C_7  and  N_26
    7  A    between atoms: N_14  and  C_17
    8  A    between atoms: C_25  and  N_26
                            x       y       z     vdW  Elec       q    Type
                         _______ _______ _______ _____ _____    ______ ____

>  <TORSDO>
F 8

$$$$
=
 OpenBabel11042413083D

 32 34  0  0  1  0  0  0  0  0999 V2000
  185.5230  178.5920  145.6000 C   0  0  0  0  0  0  0  0  0  0  0  0
  187.8650  177.6950  145.4630 C   0  0  0  0  0  3  0  0  0  0  0  0
  188.7540  176.8670  143.3760 C   0  0  0  0  0  3  0  0  0  0  0  0
  184.2310  178.7940  144.9230 C   0  0  0  0  0  0  0  0  0  0  0  0
  185.2060  177.9660  142.8240 N   0  0  0  0  0  0  0  0  0  0  0  0
  186.4630  177.6810  143.4750 C   0  0  0  0  0  0  0  0  0  0  0  0
  187.5360  177.1370  142.7510 C   0  0  0  0  0  3  0  0  0  0  0  0
  183.3080  179.4510  145.4760 O   0  0  0  0  0  0  0  0  0  0  0  0
  185.6900  179.0020  146.8570 C   0  0  0  0  0  2  0  0  0  0  0  0
  188.9230  177.1430  144.7380 C   0  0  0  0  0  0  0  0  0  0  0  0
  186.6330  177.9700  144.8450 C   0  0  0  0  0  0  0  0  0  0  0  0
  183.9750  178.1570  143.5930 C   0  0  0  0  0  2  0  0  0  0  0  0
  185.0860  177.8800  141.3710 C   0  0  0  0  0  2  0  0  0  0  0  0
  185.7330  179.0840  140.7020 C   0  0  2  0  0  3  0  0  0  0  0  0
  184.7910  179.7560  139.9210 O   0  0  0  0  0  1  0  0  0  0  0  0
  186.8290  178.6340  139.8620 N   0  0  0  0  0  2  0  0  0  0  0  0
  186.2780  178.3780  138.5360 C   0  0  0  0  0  2  0  0  0  0  0  0
  189.5670  176.6030  138.1870 C   0  0  0  0  0  0  0  0  0  0  0  0
  188.0250  177.8370  135.1800 C   0  0  0  0  0  2  0  0  0  0  0  0
  187.5160  178.5310  136.4390 C   0  0  0  0  0  2  0  0  0  0  0  0
  188.5340  177.4190  138.4410 C   0  0  0  0  0  3  0  0  0  0  0  0
  190.6430  176.5210  139.2080 C   0  0  0  0  0  1  0  0  0  0  0  0
  189.4850  177.4590  135.3080 C   0  0  0  0  0  2  0  0  0  0  0  0
  189.6490  175.6800  137.0420 C   0  0  0  0  0  3  0  0  0  0  0  0
  189.6040  176.0440  135.7610 C   0  0  0  0  0  3  0  0  0  0  0  0
  186.6160  176.2960  137.2440 C   0  0  0  0  0  1  0  0  0  0  0  0
  187.2640  177.6220  137.6490 C   0  0  1  0  0  0  0  0  0  0  0  0
  190.1580  176.8690  145.4050 N   0  0  0  0  0  2  0  0  0  0  0  0
  190.3730  177.0870  146.8310 C   0  0  0  0  0  2  0  0  0  0  0  0
  192.2000  176.7880  148.2840 O   0  0  0  0  0  0  0  0  0  0  0  0
  192.1650  175.2530  146.5060 C   0  0  0  0  0  1  0  0  0  0  0  0
  191.6270  176.4090  147.2770 C   0  0  0  0  0  0  0  0  0  0  0  0
  1  9  2  0  0  0  0
  3 10  1  0  0  0  0
  4  8  2  0  0  0  0
  4  1  1  0  0  0  0
  5  6  1  0  0  0  0
  5 12  1  0  0  0  0
  6 11  2  0  0  0  0
  7  3  2  0  0  0  0
  7  6  1  0  0  0  0
 10 28  1  0  0  0  0
 10  2  2  0  0  0  0
 11  2  1  0  0  0  0
 11  1  1  0  0  0  0
 12  4  1  0  0  0  0
 13  5  1  0  0  0  0
 14 15  1  6  0  0  0
 14 13  1  0  0  0  0
 16 14  1  0  0  0  0
 17 16  1  0  0  0  0
 18 21  2  0  0  0  0
 18 22  1  0  0  0  0
 19 23  1  0  0  0  0
 19 20  1  0  0  0  0
 20 27  1  0  0  0  0
 23 25  1  0  0  0  0
 24 18  1  0  0  0  0
 25 24  2  0  0  0  0
 27 26  1  6  0  0  0
 27 21  1  0  0  0  0
 27 17  1  0  0  0  0
 28 29  1  0  0  0  0
 29 32  1  0  0  0  0
 31 32  1  0  0  0  0
 32 30  2  0  0  0  0
M  END
>  <MODEL>
7

>  <REMARK>
 VINA RESULT:      -8.1      1.851      5.409
  Name = 
  8 active torsions:
  status: ('A' for Active; 'I' for Inactive)
    1  A    between atoms: C_2  and  N_12
    2  A    between atoms: C_2  and  C_17
    3  A    between atoms: C_6  and  N_14
    4  A    between atoms: C_6  and  C_32
    5  A    between atoms: C_7  and  C_16
    6  A    between atoms: C_7  and  N_26
    7  A    between atoms: N_14  and  C_17
    8  A    between atoms: C_25  and  N_26
                            x       y       z     vdW  Elec       q    Type
                         _______ _______ _______ _____ _____    ______ ____

>  <TORSDO>
F 8

$$$$
=
 OpenBabel11042413083D

 32 34  0  0  1  0  0  0  0  0999 V2000
  182.4100  178.6320  141.8930 C   0  0  0  0  0  0  0  0  0  0  0  0
  184.2910  178.5630  140.2310 C   0  0  0  0  0  3  0  0  0  0  0  0
  186.5780  178.8940  140.9340 C   0  0  0  0  0  3  0  0  0  0  0  0
  181.9870  178.9070  143.2760 C   0  0  0  0  0  0  0  0  0  0  0  0
  184.3370  179.2060  143.9310 N   0  0  0  0  0  0  0  0  0  0  0  0
  184.7810  179.0190  142.5690 C   0  0  0  0  0  0  0  0  0  0  0  0
  186.1460  179.0800  142.2480 C   0  0  0  0  0  3  0  0  0  0  0  0
  180.8040  178.6770  143.6480 O   0  0  0  0  0  0  0  0  0  0  0  0
  181.5130  178.2470  140.9840 C   0  0  0  0  0  2  0  0  0  0  0  0
  185.6500  178.6360  139.9180 C   0  0  0  0  0  0  0  0  0  0  0  0
  183.8440  178.7500  141.5490 C   0  0  0  0  0  0  0  0  0  0  0  0
  182.9440  179.5330  144.2410 C   0  0  0  0  0  2  0  0  0  0  0  0
  185.3030  179.2650  145.0240 C   0  0  0  0  0  2  0  0  0  0  0  0
  185.0690  178.1350  146.0150 C   0  0  2  0  0  3  0  0  0  0  0  0
  185.0210  178.6440  147.3150 O   0  0  0  0  0  1  0  0  0  0  0  0
  186.1530  177.1730  145.9110 N   0  0  0  0  0  2  0  0  0  0  0  0
  187.1060  177.4830  146.9700 C   0  0  0  0  0  2  0  0  0  0  0  0
  189.4610  177.2860  144.0530 C   0  0  0  0  0  0  0  0  0  0  0  0
  190.8410  176.7570  147.3340 C   0  0  0  0  0  2  0  0  0  0  0  0
  189.3330  176.5350  147.2780 C   0  0  0  0  0  2  0  0  0  0  0  0
  188.5120  177.1400  144.9890 C   0  0  0  0  0  3  0  0  0  0  0  0
  189.1180  176.8940  142.6620 C   0  0  0  0  0  1  0  0  0  0  0  0
  191.5090  176.3430  146.0400 C   0  0  0  0  0  2  0  0  0  0  0  0
  190.7660  177.9320  144.2730 C   0  0  0  0  0  3  0  0  0  0  0  0
  191.6800  177.5310  145.1550 C   0  0  0  0  0  3  0  0  0  0  0  0
  189.0500  178.9750  146.6350 C   0  0  0  0  0  1  0  0  0  0  0  0
  188.5380  177.5470  146.4430 C   0  0  1  0  0  0  0  0  0  0  0  0
  186.0650  178.4480  138.5610 N   0  0  0  0  0  2  0  0  0  0  0  0
  187.1170  177.5240  138.1580 C   0  0  0  0  0  2  0  0  0  0  0  0
  188.8530  179.1000  138.3780 O   0  0  0  0  0  0  0  0  0  0  0  0
  188.8470  178.0060  136.2990 C   0  0  0  0  0  1  0  0  0  0  0  0
  188.3080  178.2770  137.6610 C   0  0  0  0  0  0  0  0  0  0  0  0
  1  4  1  0  0  0  0
  2 11  1  0  0  0  0
  3  7  2  0  0  0  0
  4  8  2  0  0  0  0
  4 12  1  0  0  0  0
  5 12  1  0  0  0  0
  5 13  1  0  0  0  0
  6  5  1  0  0  0  0
  7  6  1  0  0  0  0
  9  1  2  0  0  0  0
 10  2  2  0  0  0  0
 10  3  1  0  0  0  0
 11  1  1  0  0  0  0
 11  6  2  0  0  0  0
 13 14  1  0  0  0  0
 14 15  1  1  0  0  0
 16 14  1  0  0  0  0
 16 17  1  0  0  0  0
 18 24  1  0  0  0  0
 18 21  2  0  0  0  0
 20 19  1  0  0  0  0
 21 27  1  0  0  0  0
 22 18  1  0  0  0  0
 23 19  1  0  0  0  0
 24 25  2  0  0  0  0
 25 23  1  0  0  0  0
 27 26  1  1  0  0  0
 27 17  1  0  0  0  0
 27 20  1  0  0  0  0
 28 10  1  0  0  0  0
 29 28  1  0  0  0  0
 31 32  1  0  0  0  0
 32 29  1  0  0  0  0
 32 30  2  0  0  0  0
M  END
>  <MODEL>
8

>  <REMARK>
 VINA RESULT:      -8.0      2.324      7.832
  Name = 
  8 active torsions:
  status: ('A' for Active; 'I' for Inactive)
    1  A    between atoms: C_2  and  N_12
    2  A    between atoms: C_2  and  C_17
    3  A    between atoms: C_6  and  N_14
    4  A    between atoms: C_6  and  C_32
    5  A    between atoms: C_7  and  C_16
    6  A    between atoms: C_7  and  N_26
    7  A    between atoms: N_14  and  C_17
    8  A    between atoms: C_25  and  N_26
                            x       y       z     vdW  Elec       q    Type
                         _______ _______ _______ _____ _____    ______ ____

>  <TORSDO>
F 8

$$$$
=
 OpenBabel11042413083D

 32 34  0  0  1  0  0  0  0  0999 V2000
  185.1990  177.4040  137.4540 C   0  0  0  0  0  0  0  0  0  0  0  0
  187.6140  177.1260  136.8250 C   0  0  0  0  0  3  0  0  0  0  0  0
  189.3730  177.8280  138.3240 C   0  0  0  0  0  3  0  0  0  0  0  0
  184.2210  177.9540  138.4090 C   0  0  0  0  0  0  0  0  0  0  0  0
  186.0580  178.6190  139.9000 N   0  0  0  0  0  0  0  0  0  0  0  0
  187.0460  178.1620  138.9520 C   0  0  0  0  0  0  0  0  0  0  0  0
  188.4170  178.2750  139.2360 C   0  0  0  0  0  3  0  0  0  0  0  0
  182.9910  177.7060  138.2880 O   0  0  0  0  0  0  0  0  0  0  0  0
  184.7800  176.7340  136.3810 C   0  0  0  0  0  2  0  0  0  0  0  0
  188.9750  177.2520  137.1110 C   0  0  0  0  0  0  0  0  0  0  0  0
  186.6420  177.5730  137.7350 C   0  0  0  0  0  0  0  0  0  0  0  0
  184.6750  178.8760  139.4970 C   0  0  0  0  0  2  0  0  0  0  0  0
  186.4530  179.0240  141.2460 C   0  0  0  0  0  2  0  0  0  0  0  0
  185.6050  178.3210  142.2950 C   0  0  2  0  0  3  0  0  0  0  0  0
  184.7240  179.2320  142.8830 O   0  0  0  0  0  1  0  0  0  0  0  0
  186.4720  177.7560  143.3140 N   0  0  0  0  0  2  0  0  0  0  0  0
  187.5450  177.0500  142.6240 C   0  0  0  0  0  2  0  0  0  0  0  0
  189.2810  177.2550  145.9460 C   0  0  0  0  0  0  0  0  0  0  0  0
  191.1660  178.2030  143.0320 C   0  0  0  0  0  2  0  0  0  0  0  0
  189.6590  178.2550  142.8090 C   0  0  0  0  0  2  0  0  0  0  0  0
  188.5100  177.3760  144.8560 C   0  0  0  0  0  3  0  0  0  0  0  0
  188.6430  177.4880  147.2670 C   0  0  0  0  0  1  0  0  0  0  0  0
  191.5300  178.5760  144.4530 C   0  0  0  0  0  2  0  0  0  0  0  0
  190.6730  176.7730  145.9420 C   0  0  0  0  0  3  0  0  0  0  0  0
  191.6780  177.3430  145.2780 C   0  0  0  0  0  3  0  0  0  0  0  0
  189.5610  175.7540  143.2330 C   0  0  0  0  0  1  0  0  0  0  0  0
  188.8520  177.0970  143.4120 C   0  0  1  0  0  0  0  0  0  0  0  0
  189.9350  176.7930  136.1550 N   0  0  0  0  0  2  0  0  0  0  0  0
  190.1620  175.3860  135.8490 C   0  0  0  0  0  2  0  0  0  0  0  0
  190.0310  173.8130  137.5950 O   0  0  0  0  0  0  0  0  0  0  0  0
  192.0600  174.9960  137.5590 C   0  0  0  0  0  1  0  0  0  0  0  0
  190.6980  174.6740  137.0470 C   0  0  0  0  0  0  0  0  0  0  0  0
  1 11  1  0  0  0  0
  1  4  1  0  0  0  0
  2 10  2  0  0  0  0
  2 11  1  0  0  0  0
  3  7  2  0  0  0  0
  4 12  1  0  0  0  0
  5 13  1  0  0  0  0
  6  7  1  0  0  0  0
  6  5  1  0  0  0  0
  8  4  2  0  0  0  0
  9  1  2  0  0  0  0
 10  3  1  0  0  0  0
 11  6  2  0  0  0  0
 12  5  1  0  0  0  0
 13 14  1  0  0  0  0
 14 15  1  1  0  0  0
 14 16  1  0  0  0  0
 17 16  1  0  0  0  0
 17 27  1  0  0  0  0
 18 22  1  0  0  0  0
 19 23  1  0  0  0  0
 20 19  1  0  0  0  0
 20 27  1  0  0  0  0
 21 18  2  0  0  0  0
 23 25  1  0  0  0  0
 24 18  1  0  0  0  0
 25 24  2  0  0  0  0
 27 26  1  6  0  0  0
 27 21  1  0  0  0  0
 28 10  1  0  0  0  0
 29 28  1  0  0  0  0
 29 32  1  0  0  0  0
 32 31  1  0  0  0  0
 32 30  2  0  0  0  0
M  END
>  <MODEL>
9

>  <REMARK>
 VINA RESULT:      -7.9      2.611      8.431
  Name = 
  8 active torsions:
  status: ('A' for Active; 'I' for Inactive)
    1  A    between atoms: C_2  and  N_12
    2  A    between atoms: C_2  and  C_17
    3  A    between atoms: C_6  and  N_14
    4  A    between atoms: C_6  and  C_32
    5  A    between atoms: C_7  and  C_16
    6  A    between atoms: C_7  and  N_26
    7  A    between atoms: N_14  and  C_17
    8  A    between atoms: C_25  and  N_26
                            x       y       z     vdW  Elec       q    Type
                         _______ _______ _______ _____ _____    ______ ____

>  <TORSDO>
F 8

$$$$
