=
 OpenBabel11042409593D

 38 42  0  0  1  0  0  0  0  0999 V2000
  189.7460  177.2920  145.0300 C   0  0  0  0  0  0  0  0  0  0  0  0
  187.5060  177.7010  145.8580 C   0  0  0  0  0  3  0  0  0  0  0  0
  187.9570  177.8120  143.5270 N   0  0  0  0  0  0  0  0  0  0  0  0
  189.2710  177.5050  143.7130 C   0  0  0  0  0  0  0  0  0  0  0  0
  191.1900  177.0190  145.3160 C   0  0  0  0  0  1  0  0  0  0  0  0
  187.0670  177.9080  144.5500 C   0  0  0  0  0  0  0  0  0  0  0  0
  188.8460  177.3910  146.1060 C   0  0  0  0  0  0  0  0  0  0  0  0
  184.7610  178.5680  145.3380 C   0  0  0  0  0  0  0  0  0  0  0  0
  181.6700  179.2020  143.3350 N   0  0  0  0  0  2  0  0  0  0  0  0
  185.1540  178.2710  142.9330 C   0  0  0  0  0  0  0  0  0  0  0  0
  183.8120  178.6020  142.7220 C   0  0  0  0  0  0  0  0  0  0  0  0
  185.1970  178.5330  146.7660 C   0  0  0  0  0  1  0  0  0  0  0  0
  185.6480  178.2450  144.2690 C   0  0  0  0  0  0  0  0  0  0  0  0
  186.0320  178.0060  141.7510 C   0  0  0  0  0  1  0  0  0  0  0  0
  182.9810  178.9010  143.7610 C   0  0  0  0  0  0  0  0  0  0  0  0
  181.6440  179.0880  141.8760 C   0  0  1  0  0  3  0  0  0  0  0  0
  183.0700  178.6900  141.4360 C   0  0  0  0  0  2  0  0  0  0  0  0
  183.4230  178.8940  145.0780 C   0  0  0  0  0  3  0  0  0  0  0  0
  180.7710  177.4750  140.3370 O   0  0  0  0  0  0  0  0  0  0  0  0
  180.6590  178.0470  141.4550 C   0  0  0  0  0  0  0  0  0  0  0  0
  179.5970  177.7270  142.2890 O   0  0  0  0  0  1  0  0  0  0  0  0
  190.1380  177.4260  142.5120 C   0  0  0  0  0  0  0  0  0  0  0  0
  189.6840  176.7310  141.3800 C   0  0  0  0  0  3  0  0  0  0  0  0
  190.4900  176.6040  140.2450 C   0  0  0  0  0  0  0  0  0  0  0  0
  192.2420  177.8500  141.3650 C   0  0  0  0  0  3  0  0  0  0  0  0
  191.7730  177.1680  140.2410 C   0  0  0  0  0  3  0  0  0  0  0  0
  191.4300  177.9740  142.4960 C   0  0  0  0  0  3  0  0  0  0  0  0
  189.9990  175.9130  139.1370 O   0  0  0  0  0  0  0  0  0  0  0  0
  189.5280  176.5780  138.0250 N   0  0  0  0  0  2  0  0  0  0  0  0
  188.1290  176.7690  137.8130 C   0  0  0  0  0  0  0  0  0  0  0  0
  187.5040  177.9410  138.2680 C   0  0  0  0  0  0  0  0  0  0  0  0
  186.0010  175.9820  136.9470 C   0  0  0  0  0  3  0  0  0  0  0  0
  187.3710  175.7920  137.1530 C   0  0  0  0  0  3  0  0  0  0  0  0
  185.3830  177.1510  137.3990 C   0  0  0  0  0  3  0  0  0  0  0  0
  188.2360  178.9180  138.9310 O   0  0  0  0  0  1  0  0  0  0  0  0
  186.1330  178.1280  138.0600 C   0  0  0  0  0  3  0  0  0  0  0  0
  189.3040  177.1850  147.4490 N   0  0  0  0  0  2  0  0  0  0  0  0
  189.0390  178.1190  148.5320 C   0  0  0  0  0  1  0  0  0  0  0  0
  1  5  1  0  0  0  0
  1  7  1  0  0  0  0
  2  7  2  0  0  0  0
  3  4  1  0  0  0  0
  3  6  2  0  0  0  0
  4  1  2  0  0  0  0
  6  2  1  0  0  0  0
  7 37  1  0  0  0  0
  8 12  1  0  0  0  0
  9 15  1  0  0  0  0
 10 13  1  0  0  0  0
 11 10  2  0  0  0  0
 11 15  1  0  0  0  0
 13  6  1  0  0  0  0
 13  8  2  0  0  0  0
 14 10  1  0  0  0  0
 15 18  2  0  0  0  0
 16 20  1  1  0  0  0
 16  9  1  0  0  0  0
 17 16  1  0  0  0  0
 17 11  1  0  0  0  0
 18  8  1  0  0  0  0
 19 20  2  0  0  0  0
 20 21  1  0  0  0  0
 22  4  1  0  0  0  0
 23 22  2  0  0  0  0
 24 23  1  0  0  0  0
 25 27  2  0  0  0  0
 26 24  2  0  0  0  0
 26 25  1  0  0  0  0
 27 22  1  0  0  0  0
 28 24  1  0  0  0  0
 29 28  1  0  0  0  0
 30 29  1  0  0  0  0
 30 31  1  0  0  0  0
 31 35  1  0  0  0  0
 32 33  1  0  0  0  0
 32 34  2  0  0  0  0
 33 30  2  0  0  0  0
 34 36  1  0  0  0  0
 36 31  2  0  0  0  0
 37 38  1  0  0  0  0
M  END
>  <MODEL>
1

>  <REMARK>
 VINA RESULT:     -10.5      0.000      0.000
  Name = 
  7 active torsions:
  status: ('A' for Active; 'I' for Inactive)
    1  A    between atoms: C_1  and  C_28
    2  A    between atoms: N_4  and  C_6
    3  A    between atoms: N_4  and  O_23
    4  A    between atoms: N_11  and  C_33
    5  A    between atoms: C_14  and  C_32
    6  A    between atoms: C_20  and  O_23
    7  A    between atoms: C_21  and  CA_25
                            x       y       z     vdW  Elec       q    Type
                         _______ _______ _______ _____ _____    ______ ____

>  <TORSDO>
F 7

$$$$
=
 OpenBabel11042409593D

 38 42  0  0  1  0  0  0  0  0999 V2000
  188.8810  177.8440  139.9840 C   0  0  0  0  0  0  0  0  0  0  0  0
  189.6140  176.8890  137.8810 C   0  0  0  0  0  3  0  0  0  0  0  0
  190.6570  176.2390  139.9160 N   0  0  0  0  0  0  0  0  0  0  0  0
  189.8530  177.0570  140.6510 C   0  0  0  0  0  0  0  0  0  0  0  0
  188.0110  178.8150  140.7180 C   0  0  0  0  0  1  0  0  0  0  0  0
  190.5630  176.1280  138.5650 C   0  0  0  0  0  0  0  0  0  0  0  0
  188.7680  177.7500  138.5860 C   0  0  0  0  0  0  0  0  0  0  0  0
  190.9460  174.1110  137.0950 C   0  0  0  0  0  0  0  0  0  0  0  0
  194.1570  172.7190  135.7820 N   0  0  0  0  0  2  0  0  0  0  0  0
  192.8820  175.4280  137.8320 C   0  0  0  0  0  0  0  0  0  0  0  0
  193.6950  174.5410  137.1190 C   0  0  0  0  0  0  0  0  0  0  0  0
  189.4850  173.8030  137.0700 C   0  0  0  0  0  1  0  0  0  0  0  0
  191.4740  175.2120  137.8310 C   0  0  0  0  0  0  0  0  0  0  0  0
  193.5120  176.5940  138.5270 C   0  0  0  0  0  1  0  0  0  0  0  0
  193.1680  173.4920  136.4270 C   0  0  0  0  0  0  0  0  0  0  0  0
  195.4540  173.3240  136.0820 C   0  0  1  0  0  3  0  0  0  0  0  0
  195.1760  174.5520  136.9750 C   0  0  0  0  0  2  0  0  0  0  0  0
  191.8000  173.2490  136.3940 C   0  0  0  0  0  3  0  0  0  0  0  0
  197.3450  171.8630  136.2300 O   0  0  0  0  0  0  0  0  0  0  0  0
  196.3290  172.3470  136.7970 C   0  0  0  0  0  0  0  0  0  0  0  0
  196.0050  171.9490  138.0860 O   0  0  0  0  0  1  0  0  0  0  0  0
  190.0540  177.0850  142.1210 C   0  0  0  0  0  0  0  0  0  0  0  0
  188.9420  176.9640  142.9690 C   0  0  0  0  0  3  0  0  0  0  0  0
  189.0900  177.0230  144.3580 C   0  0  0  0  0  0  0  0  0  0  0  0
  191.4760  177.3540  144.0770 C   0  0  0  0  0  3  0  0  0  0  0  0
  190.3630  177.2180  144.9100 C   0  0  0  0  0  3  0  0  0  0  0  0
  191.3200  177.2910  142.6890 C   0  0  0  0  0  3  0  0  0  0  0  0
  187.9620  176.8900  145.1670 O   0  0  0  0  0  0  0  0  0  0  0  0
  187.2190  177.9860  145.5530 N   0  0  0  0  0  2  0  0  0  0  0  0
  185.9490  178.2660  144.9630 C   0  0  0  0  0  0  0  0  0  0  0  0
  184.8860  178.7120  145.7630 C   0  0  0  0  0  0  0  0  0  0  0  0
  184.5090  178.3690  143.0100 C   0  0  0  0  0  3  0  0  0  0  0  0
  185.7540  178.0950  143.5850 C   0  0  0  0  0  3  0  0  0  0  0  0
  183.4540  178.8170  143.8100 C   0  0  0  0  0  3  0  0  0  0  0  0
  185.0580  178.8800  147.1320 O   0  0  0  0  0  1  0  0  0  0  0  0
  183.6420  178.9870  145.1840 C   0  0  0  0  0  3  0  0  0  0  0  0
  187.7960  178.5410  137.8870 N   0  0  0  0  0  2  0  0  0  0  0  0
  186.5300  178.0060  137.4110 C   0  0  0  0  0  1  0  0  0  0  0  0
  1  4  1  0  0  0  0
  1  5  1  0  0  0  0
  2  6  2  0  0  0  0
  2  7  1  0  0  0  0
  3  4  2  0  0  0  0
  4 22  1  0  0  0  0
  6  3  1  0  0  0  0
  7  1  2  0  0  0  0
  8 13  1  0  0  0  0
  9 16  1  0  0  0  0
  9 15  1  0  0  0  0
 10 14  1  0  0  0  0
 11 10  1  0  0  0  0
 12  8  1  0  0  0  0
 13 10  2  0  0  0  0
 13  6  1  0  0  0  0
 15 11  2  0  0  0  0
 16 20  1  1  0  0  0
 16 17  1  0  0  0  0
 17 11  1  0  0  0  0
 18 15  1  0  0  0  0
 18  8  2  0  0  0  0
 19 20  2  0  0  0  0
 20 21  1  0  0  0  0
 22 27  2  0  0  0  0
 22 23  1  0  0  0  0
 23 24  2  0  0  0  0
 24 26  1  0  0  0  0
 24 28  1  0  0  0  0
 25 26  2  0  0  0  0
 27 25  1  0  0  0  0
 28 29  1  0  0  0  0
 30 29  1  0  0  0  0
 30 31  1  0  0  0  0
 31 35  1  0  0  0  0
 32 33  1  0  0  0  0
 32 34  2  0  0  0  0
 33 30  2  0  0  0  0
 34 36  1  0  0  0  0
 36 31  2  0  0  0  0
 37  7  1  0  0  0  0
 38 37  1  0  0  0  0
M  END
>  <MODEL>
2

>  <REMARK>
 VINA RESULT:     -10.4      3.861      9.882
  Name = 
  7 active torsions:
  status: ('A' for Active; 'I' for Inactive)
    1  A    between atoms: C_1  and  C_28
    2  A    between atoms: N_4  and  C_6
    3  A    between atoms: N_4  and  O_23
    4  A    between atoms: N_11  and  C_33
    5  A    between atoms: C_14  and  C_32
    6  A    between atoms: C_20  and  O_23
    7  A    between atoms: C_21  and  CA_25
                            x       y       z     vdW  Elec       q    Type
                         _______ _______ _______ _____ _____    ______ ____

>  <TORSDO>
F 7

$$$$
=
 OpenBabel11042409593D

 38 42  0  0  1  0  0  0  0  0999 V2000
  189.7100  177.1720  143.4690 C   0  0  0  0  0  0  0  0  0  0  0  0
  187.8350  177.5270  144.9620 C   0  0  0  0  0  3  0  0  0  0  0  0
  187.5730  177.8380  142.6200 N   0  0  0  0  0  0  0  0  0  0  0  0
  188.8710  177.5050  142.3770 C   0  0  0  0  0  0  0  0  0  0  0  0
  191.1630  176.8630  143.2850 C   0  0  0  0  0  1  0  0  0  0  0  0
  187.0330  177.8530  143.8670 C   0  0  0  0  0  0  0  0  0  0  0  0
  189.1760  177.1850  144.7700 C   0  0  0  0  0  0  0  0  0  0  0  0
  185.1150  178.5570  145.3500 C   0  0  0  0  0  0  0  0  0  0  0  0
  181.5640  179.2840  144.4370 N   0  0  0  0  0  2  0  0  0  0  0  0
  184.7140  178.2770  142.9450 C   0  0  0  0  0  0  0  0  0  0  0  0
  183.3840  178.6410  143.1730 C   0  0  0  0  0  0  0  0  0  0  0  0
  185.9820  178.4970  146.5660 C   0  0  0  0  0  1  0  0  0  0  0  0
  185.6070  178.2250  144.0540 C   0  0  0  0  0  0  0  0  0  0  0  0
  185.1640  178.0040  141.5440 C   0  0  0  0  0  1  0  0  0  0  0  0
  182.9350  178.9490  144.4230 C   0  0  0  0  0  0  0  0  0  0  0  0
  181.0730  179.1860  143.0630 C   0  0  1  0  0  3  0  0  0  0  0  0
  182.2730  178.7600  142.1900 C   0  0  0  0  0  2  0  0  0  0  0  0
  183.7730  178.9170  145.5310 C   0  0  0  0  0  3  0  0  0  0  0  0
  179.6570  177.4880  143.9820 O   0  0  0  0  0  1  0  0  0  0  0  0
  179.9790  178.1740  142.9740 C   0  0  0  0  0  0  0  0  0  0  0  0
  179.3290  177.9670  141.7660 O   0  0  0  0  0  0  0  0  0  0  0  0
  189.3370  177.5240  140.9690 C   0  0  0  0  0  0  0  0  0  0  0  0
  188.7840  178.4540  140.0740 C   0  0  0  0  0  3  0  0  0  0  0  0
  189.1730  178.4750  138.7310 C   0  0  0  0  0  0  0  0  0  0  0  0
  190.6650  176.6090  139.1470 C   0  0  0  0  0  3  0  0  0  0  0  0
  190.1170  177.5480  138.2700 C   0  0  0  0  0  3  0  0  0  0  0  0
  190.2720  176.5950  140.4880 C   0  0  0  0  0  3  0  0  0  0  0  0
  188.6070  179.4200  137.8750 O   0  0  0  0  0  0  0  0  0  0  0  0
  187.7880  179.0470  136.8310 N   0  0  0  0  0  2  0  0  0  0  0  0
  186.7620  178.0700  137.0050 C   0  0  0  0  0  0  0  0  0  0  0  0
  186.8790  176.8110  136.3940 C   0  0  0  0  0  0  0  0  0  0  0  0
  184.6280  177.4010  137.9500 C   0  0  0  0  0  3  0  0  0  0  0  0
  185.6320  178.3590  137.7820 C   0  0  0  0  0  3  0  0  0  0  0  0
  184.7500  176.1480  137.3430 C   0  0  0  0  0  3  0  0  0  0  0  0
  187.9890  176.5080  135.6140 O   0  0  0  0  0  1  0  0  0  0  0  0
  185.8730  175.8540  136.5660 C   0  0  0  0  0  3  0  0  0  0  0  0
  190.0060  176.8570  145.8930 N   0  0  0  0  0  2  0  0  0  0  0  0
  189.5740  177.0100  147.2730 C   0  0  0  0  0  1  0  0  0  0  0  0
  1  7  1  0  0  0  0
  3  6  2  0  0  0  0
  4  3  1  0  0  0  0
  4  1  2  0  0  0  0
  5  1  1  0  0  0  0
  6 13  1  0  0  0  0
  6  2  1  0  0  0  0
  7  2  2  0  0  0  0
  7 37  1  0  0  0  0
  8 18  1  0  0  0  0
  8 12  1  0  0  0  0
 10 11  2  0  0  0  0
 10 13  1  0  0  0  0
 11 15  1  0  0  0  0
 13  8  2  0  0  0  0
 14 10  1  0  0  0  0
 15  9  1  0  0  0  0
 15 18  2  0  0  0  0
 16 20  1  1  0  0  0
 16  9  1  0  0  0  0
 17 16  1  0  0  0  0
 17 11  1  0  0  0  0
 20 19  1  0  0  0  0
 21 20  2  0  0  0  0
 22  4  1  0  0  0  0
 23 22  2  0  0  0  0
 24 23  1  0  0  0  0
 25 27  2  0  0  0  0
 26 24  2  0  0  0  0
 26 25  1  0  0  0  0
 27 22  1  0  0  0  0
 28 24  1  0  0  0  0
 29 30  1  0  0  0  0
 29 28  1  0  0  0  0
 30 33  1  0  0  0  0
 31 36  1  0  0  0  0
 31 30  2  0  0  0  0
 33 32  2  0  0  0  0
 34 32  1  0  0  0  0
 35 31  1  0  0  0  0
 36 34  2  0  0  0  0
 37 38  1  0  0  0  0
M  END
>  <MODEL>
3

>  <REMARK>
 VINA RESULT:     -10.2      1.437      2.048
  Name = 
  7 active torsions:
  status: ('A' for Active; 'I' for Inactive)
    1  A    between atoms: C_1  and  C_28
    2  A    between atoms: N_4  and  C_6
    3  A    between atoms: N_4  and  O_23
    4  A    between atoms: N_11  and  C_33
    5  A    between atoms: C_14  and  C_32
    6  A    between atoms: C_20  and  O_23
    7  A    between atoms: C_21  and  CA_25
                            x       y       z     vdW  Elec       q    Type
                         _______ _______ _______ _____ _____    ______ ____

>  <TORSDO>
F 7

$$$$
=
 OpenBabel11042409593D

 38 42  0  0  1  0  0  0  0  0999 V2000
  183.4190  178.7780  143.4610 C   0  0  0  0  0  0  0  0  0  0  0  0
  183.6130  178.6820  141.0470 C   0  0  0  0  0  3  0  0  0  0  0  0
  185.5440  178.4340  142.4110 N   0  0  0  0  0  0  0  0  0  0  0  0
  184.8170  178.5670  143.5550 C   0  0  0  0  0  0  0  0  0  0  0  0
  182.5700  179.0000  144.6720 C   0  0  0  0  0  1  0  0  0  0  0  0
  184.9880  178.4780  141.1720 C   0  0  0  0  0  0  0  0  0  0  0  0
  182.8210  178.8320  142.1890 C   0  0  0  0  0  0  0  0  0  0  0  0
  185.2520  178.1620  138.6810 C   0  0  0  0  0  0  0  0  0  0  0  0
  188.3800  177.9220  136.6480 N   0  0  0  0  0  2  0  0  0  0  0  0
  187.2650  178.3540  140.0740 C   0  0  0  0  0  0  0  0  0  0  0  0
  188.0250  178.2110  138.9100 C   0  0  0  0  0  0  0  0  0  0  0  0
  183.7720  178.0910  138.4930 C   0  0  0  0  0  1  0  0  0  0  0  0
  185.8450  178.3230  139.9680 C   0  0  0  0  0  0  0  0  0  0  0  0
  187.9640  178.5810  141.3770 C   0  0  0  0  0  1  0  0  0  0  0  0
  187.4370  178.0520  137.6900 C   0  0  0  0  0  0  0  0  0  0  0  0
  189.7120  178.0050  137.2470 C   0  0  1  0  0  3  0  0  0  0  0  0
  189.5060  178.2030  138.7650 C   0  0  0  0  0  2  0  0  0  0  0  0
  186.0560  178.0230  137.5410 C   0  0  0  0  0  3  0  0  0  0  0  0
  189.9590  175.8090  136.3260 O   0  0  0  0  0  0  0  0  0  0  0  0
  190.4780  176.7500  136.9850 C   0  0  0  0  0  0  0  0  0  0  0  0
  191.7620  176.6090  137.4930 O   0  0  0  0  0  1  0  0  0  0  0  0
  185.5440  178.4950  144.8470 C   0  0  0  0  0  0  0  0  0  0  0  0
  186.7880  177.8470  144.9010 C   0  0  0  0  0  3  0  0  0  0  0  0
  187.4830  177.7280  146.1090 C   0  0  0  0  0  0  0  0  0  0  0  0
  185.6810  178.8870  147.2450 C   0  0  0  0  0  3  0  0  0  0  0  0
  186.9250  178.2530  147.2820 C   0  0  0  0  0  3  0  0  0  0  0  0
  184.9940  179.0030  146.0340 C   0  0  0  0  0  3  0  0  0  0  0  0
  188.7210  177.0860  146.1190 O   0  0  0  0  0  0  0  0  0  0  0  0
  189.8500  177.6880  145.6060 N   0  0  0  0  0  2  0  0  0  0  0  0
  190.3080  177.4000  144.2850 C   0  0  0  0  0  0  0  0  0  0  0  0
  191.2480  178.2410  143.6690 C   0  0  0  0  0  0  0  0  0  0  0  0
  190.2730  176.0030  142.2990 C   0  0  0  0  0  3  0  0  0  0  0  0
  189.8230  176.2820  143.5930 C   0  0  0  0  0  3  0  0  0  0  0  0
  191.2110  176.8410  141.6910 C   0  0  0  0  0  3  0  0  0  0  0  0
  191.7350  179.3590  144.3350 O   0  0  0  0  0  1  0  0  0  0  0  0
  191.6970  177.9590  142.3740 C   0  0  0  0  0  3  0  0  0  0  0  0
  181.4090  179.0500  142.0670 N   0  0  0  0  0  2  0  0  0  0  0  0
  180.7260  179.1340  140.7860 C   0  0  0  0  0  1  0  0  0  0  0  0
  1  4  1  0  0  0  0
  1  5  1  0  0  0  0
  2  6  2  0  0  0  0
  2  7  1  0  0  0  0
  3  4  2  0  0  0  0
  4 22  1  0  0  0  0
  6  3  1  0  0  0  0
  7  1  2  0  0  0  0
  8 13  1  0  0  0  0
  9 16  1  0  0  0  0
  9 15  1  0  0  0  0
 10 14  1  0  0  0  0
 11 10  1  0  0  0  0
 12  8  1  0  0  0  0
 13 10  2  0  0  0  0
 13  6  1  0  0  0  0
 15 11  2  0  0  0  0
 16 20  1  1  0  0  0
 16 17  1  0  0  0  0
 17 11  1  0  0  0  0
 18 15  1  0  0  0  0
 18  8  2  0  0  0  0
 19 20  2  0  0  0  0
 20 21  1  0  0  0  0
 22 23  2  0  0  0  0
 22 27  1  0  0  0  0
 23 24  1  0  0  0  0
 24 28  1  0  0  0  0
 24 26  2  0  0  0  0
 25 26  1  0  0  0  0
 27 25  2  0  0  0  0
 29 28  1  0  0  0  0
 30 29  1  0  0  0  0
 31 30  1  0  0  0  0
 31 35  1  0  0  0  0
 32 33  1  0  0  0  0
 33 30  2  0  0  0  0
 34 32  2  0  0  0  0
 34 36  1  0  0  0  0
 36 31  2  0  0  0  0
 37  7  1  0  0  0  0
 38 37  1  0  0  0  0
M  END
>  <MODEL>
4

>  <REMARK>
 VINA RESULT:      -9.7      2.740      7.529
  Name = 
  7 active torsions:
  status: ('A' for Active; 'I' for Inactive)
    1  A    between atoms: C_1  and  C_28
    2  A    between atoms: N_4  and  C_6
    3  A    between atoms: N_4  and  O_23
    4  A    between atoms: N_11  and  C_33
    5  A    between atoms: C_14  and  C_32
    6  A    between atoms: C_20  and  O_23
    7  A    between atoms: C_21  and  CA_25
                            x       y       z     vdW  Elec       q    Type
                         _______ _______ _______ _____ _____    ______ ____

>  <TORSDO>
F 7

$$$$
=
 OpenBabel11042409593D

 38 42  0  0  1  0  0  0  0  0999 V2000
  189.5560  177.2810  144.8380 C   0  0  0  0  0  0  0  0  0  0  0  0
  187.3420  177.6440  145.7530 C   0  0  0  0  0  3  0  0  0  0  0  0
  187.7200  177.8660  143.4160 N   0  0  0  0  0  0  0  0  0  0  0  0
  189.0400  177.5550  143.5470 C   0  0  0  0  0  0  0  0  0  0  0  0
  191.0080  177.0010  145.0660 C   0  0  0  0  0  1  0  0  0  0  0  0
  186.8630  177.9120  144.4690 C   0  0  0  0  0  0  0  0  0  0  0  0
  188.6890  177.3270  145.9450 C   0  0  0  0  0  0  0  0  0  0  0  0
  184.5940  178.5770  145.3540 C   0  0  0  0  0  0  0  0  0  0  0  0
  181.4270  179.2370  143.4810 N   0  0  0  0  0  2  0  0  0  0  0  0
  184.8870  178.2920  142.9340 C   0  0  0  0  0  0  0  0  0  0  0  0
  183.5390  178.6310  142.7790 C   0  0  0  0  0  0  0  0  0  0  0  0
  185.0870  178.5320  146.7630 C   0  0  0  0  0  1  0  0  0  0  0  0
  185.4350  178.2560  144.2480 C   0  0  0  0  0  0  0  0  0  0  0  0
  185.7160  178.0300  141.7160 C   0  0  0  0  0  1  0  0  0  0  0  0
  182.7530  178.9280  143.8520 C   0  0  0  0  0  0  0  0  0  0  0  0
  181.3410  179.1310  142.0240 C   0  0  1  0  0  3  0  0  0  0  0  0
  182.7460  178.7290  141.5240 C   0  0  0  0  0  2  0  0  0  0  0  0
  183.2480  178.9110  145.1500 C   0  0  0  0  0  3  0  0  0  0  0  0
  179.4330  177.7490  142.4460 O   0  0  0  0  0  1  0  0  0  0  0  0
  180.3350  178.0980  141.6380 C   0  0  0  0  0  0  0  0  0  0  0  0
  180.4100  177.4980  140.3890 O   0  0  0  0  0  0  0  0  0  0  0  0
  189.8700  177.5350  142.3180 C   0  0  0  0  0  0  0  0  0  0  0  0
  189.2400  177.5120  141.0630 C   0  0  0  0  0  3  0  0  0  0  0  0
  189.9910  177.4540  139.8850 C   0  0  0  0  0  0  0  0  0  0  0  0
  192.0290  177.4160  141.2000 C   0  0  0  0  0  3  0  0  0  0  0  0
  191.3900  177.4070  139.9580 C   0  0  0  0  0  3  0  0  0  0  0  0
  191.2710  177.4750  142.3730 C   0  0  0  0  0  3  0  0  0  0  0  0
  189.3290  177.4420  138.6580 O   0  0  0  0  0  0  0  0  0  0  0  0
  189.9170  176.9140  137.5280 N   0  0  0  0  0  2  0  0  0  0  0  0
  189.4180  175.7220  136.9200 C   0  0  0  0  0  0  0  0  0  0  0  0
  190.0490  174.4920  137.1650 C   0  0  0  0  0  0  0  0  0  0  0  0
  187.8160  174.6030  135.4800 C   0  0  0  0  0  3  0  0  0  0  0  0
  188.3020  175.7710  136.0750 C   0  0  0  0  0  3  0  0  0  0  0  0
  188.4440  173.3800  135.7290 C   0  0  0  0  0  3  0  0  0  0  0  0
  191.1620  174.4250  137.9940 O   0  0  0  0  0  1  0  0  0  0  0  0
  189.5590  173.3250  136.5690 C   0  0  0  0  0  3  0  0  0  0  0  0
  189.1890  177.0600  147.2620 N   0  0  0  0  0  2  0  0  0  0  0  0
  188.9580  177.9440  148.3940 C   0  0  0  0  0  1  0  0  0  0  0  0
  1  5  1  0  0  0  0
  1  7  1  0  0  0  0
  2  7  2  0  0  0  0
  3  4  1  0  0  0  0
  3  6  2  0  0  0  0
  4  1  2  0  0  0  0
  6  2  1  0  0  0  0
  7 37  1  0  0  0  0
  8 12  1  0  0  0  0
  9 15  1  0  0  0  0
 10 13  1  0  0  0  0
 11 10  2  0  0  0  0
 11 15  1  0  0  0  0
 13  6  1  0  0  0  0
 13  8  2  0  0  0  0
 14 10  1  0  0  0  0
 15 18  2  0  0  0  0
 16 20  1  1  0  0  0
 16  9  1  0  0  0  0
 17 16  1  0  0  0  0
 17 11  1  0  0  0  0
 18  8  1  0  0  0  0
 20 19  1  0  0  0  0
 21 20  2  0  0  0  0
 22 27  1  0  0  0  0
 22  4  1  0  0  0  0
 23 22  2  0  0  0  0
 24 26  2  0  0  0  0
 24 23  1  0  0  0  0
 25 27  2  0  0  0  0
 26 25  1  0  0  0  0
 28 24  1  0  0  0  0
 29 28  1  0  0  0  0
 30 31  1  0  0  0  0
 30 29  1  0  0  0  0
 31 35  1  0  0  0  0
 32 34  2  0  0  0  0
 32 33  1  0  0  0  0
 33 30  2  0  0  0  0
 34 36  1  0  0  0  0
 36 31  2  0  0  0  0
 37 38  1  0  0  0  0
M  END
>  <MODEL>
5

>  <REMARK>
 VINA RESULT:      -9.7      1.236      1.948
  Name = 
  7 active torsions:
  status: ('A' for Active; 'I' for Inactive)
    1  A    between atoms: C_1  and  C_28
    2  A    between atoms: N_4  and  C_6
    3  A    between atoms: N_4  and  O_23
    4  A    between atoms: N_11  and  C_33
    5  A    between atoms: C_14  and  C_32
    6  A    between atoms: C_20  and  O_23
    7  A    between atoms: C_21  and  CA_25
                            x       y       z     vdW  Elec       q    Type
                         _______ _______ _______ _____ _____    ______ ____

>  <TORSDO>
F 7

$$$$
=
 OpenBabel11042409593D

 38 42  0  0  1  0  0  0  0  0999 V2000
  189.8580  177.4550  141.5210 C   0  0  0  0  0  0  0  0  0  0  0  0
  188.3810  177.6960  143.4270 C   0  0  0  0  0  3  0  0  0  0  0  0
  187.5370  177.9600  141.2200 N   0  0  0  0  0  0  0  0  0  0  0  0
  188.7570  177.7150  140.6680 C   0  0  0  0  0  0  0  0  0  0  0  0
  191.2410  177.2470  140.9870 C   0  0  0  0  0  1  0  0  0  0  0  0
  187.3170  177.9520  142.5610 C   0  0  0  0  0  0  0  0  0  0  0  0
  189.6570  177.4460  142.9130 C   0  0  0  0  0  0  0  0  0  0  0  0
  185.7280  178.2670  144.4980 C   0  0  0  0  0  0  0  0  0  0  0  0
  182.0700  179.0350  144.4540 N   0  0  0  0  0  2  0  0  0  0  0  0
  184.8650  178.4710  142.2100 C   0  0  0  0  0  0  0  0  0  0  0  0
  183.6060  178.7310  142.7590 C   0  0  0  0  0  0  0  0  0  0  0  0
  186.8150  177.9910  145.4850 C   0  0  0  0  0  1  0  0  0  0  0  0
  185.9560  178.2250  143.0910 C   0  0  0  0  0  0  0  0  0  0  0  0
  185.0310  178.5070  140.7230 C   0  0  0  0  0  1  0  0  0  0  0  0
  183.4100  178.7600  144.1080 C   0  0  0  0  0  0  0  0  0  0  0  0
  181.3200  179.2030  143.2100 C   0  0  1  0  0  3  0  0  0  0  0  0
  182.3250  179.0080  142.0540 C   0  0  0  0  0  2  0  0  0  0  0  0
  184.4480  178.5330  145.0040 C   0  0  0  0  0  3  0  0  0  0  0  0
  179.6570  177.7720  144.1680 O   0  0  0  0  0  1  0  0  0  0  0  0
  180.2250  178.1900  143.1240 C   0  0  0  0  0  0  0  0  0  0  0  0
  179.8490  177.6860  141.8870 O   0  0  0  0  0  0  0  0  0  0  0  0
  188.8650  177.7500  139.1880 C   0  0  0  0  0  0  0  0  0  0  0  0
  188.9130  176.5420  138.4740 C   0  0  0  0  0  3  0  0  0  0  0  0
  189.0530  176.5360  137.0830 C   0  0  0  0  0  0  0  0  0  0  0  0
  189.1240  178.9600  137.0930 C   0  0  0  0  0  3  0  0  0  0  0  0
  189.1570  177.7520  136.3940 C   0  0  0  0  0  3  0  0  0  0  0  0
  188.9840  178.9570  138.4840 C   0  0  0  0  0  3  0  0  0  0  0  0
  189.0880  175.3160  136.4090 O   0  0  0  0  0  0  0  0  0  0  0  0
  187.9950  174.8480  135.7090 N   0  0  0  0  0  2  0  0  0  0  0  0
  186.7740  174.5220  136.3720 C   0  0  0  0  0  0  0  0  0  0  0  0
  186.6590  173.3130  137.0760 C   0  0  0  0  0  0  0  0  0  0  0  0
  184.4880  175.0780  136.9730 C   0  0  0  0  0  3  0  0  0  0  0  0
  185.6830  175.4010  136.3230 C   0  0  0  0  0  3  0  0  0  0  0  0
  184.3780  173.8750  137.6760 C   0  0  0  0  0  3  0  0  0  0  0  0
  187.7260  172.4250  137.1300 O   0  0  0  0  0  1  0  0  0  0  0  0
  185.4610  172.9940  137.7260 C   0  0  0  0  0  3  0  0  0  0  0  0
  190.7560  177.1910  143.7980 N   0  0  0  0  0  2  0  0  0  0  0  0
  190.7590  177.5890  145.1970 C   0  0  0  0  0  1  0  0  0  0  0  0
  1  7  1  0  0  0  0
  3  6  2  0  0  0  0
  4  3  1  0  0  0  0
  4  1  2  0  0  0  0
  5  1  1  0  0  0  0
  6 13  1  0  0  0  0
  6  2  1  0  0  0  0
  7  2  2  0  0  0  0
  7 37  1  0  0  0  0
  8 18  1  0  0  0  0
  8 12  1  0  0  0  0
 10 11  2  0  0  0  0
 10 13  1  0  0  0  0
 11 15  1  0  0  0  0
 13  8  2  0  0  0  0
 14 10  1  0  0  0  0
 15  9  1  0  0  0  0
 15 18  2  0  0  0  0
 16 20  1  6  0  0  0
 16  9  1  0  0  0  0
 17 11  1  0  0  0  0
 17 16  1  0  0  0  0
 20 19  1  0  0  0  0
 21 20  2  0  0  0  0
 22  4  1  0  0  0  0
 23 22  2  0  0  0  0
 24 23  1  0  0  0  0
 25 27  2  0  0  0  0
 26 24  2  0  0  0  0
 26 25  1  0  0  0  0
 27 22  1  0  0  0  0
 28 24  1  0  0  0  0
 29 30  1  0  0  0  0
 29 28  1  0  0  0  0
 30 31  1  0  0  0  0
 31 35  1  0  0  0  0
 31 36  2  0  0  0  0
 32 34  2  0  0  0  0
 33 30  2  0  0  0  0
 33 32  1  0  0  0  0
 34 36  1  0  0  0  0
 37 38  1  0  0  0  0
M  END
>  <MODEL>
6

>  <REMARK>
 VINA RESULT:      -9.3      1.836      3.182
  Name = 
  7 active torsions:
  status: ('A' for Active; 'I' for Inactive)
    1  A    between atoms: C_1  and  C_28
    2  A    between atoms: N_4  and  C_6
    3  A    between atoms: N_4  and  O_23
    4  A    between atoms: N_11  and  C_33
    5  A    between atoms: C_14  and  C_32
    6  A    between atoms: C_20  and  O_23
    7  A    between atoms: C_21  and  CA_25
                            x       y       z     vdW  Elec       q    Type
                         _______ _______ _______ _____ _____    ______ ____

>  <TORSDO>
F 7

$$$$
=
 OpenBabel11042409593D

 38 42  0  0  1  0  0  0  0  0999 V2000
  189.9710  177.4780  142.9710 C   0  0  0  0  0  0  0  0  0  0  0  0
  188.1850  177.8680  144.5610 C   0  0  0  0  0  3  0  0  0  0  0  0
  187.7280  177.8640  142.2280 N   0  0  0  0  0  0  0  0  0  0  0  0
  189.0290  177.6050  141.9200 C   0  0  0  0  0  0  0  0  0  0  0  0
  191.4280  177.2620  142.7050 C   0  0  0  0  0  1  0  0  0  0  0  0
  187.2810  177.9910  143.5050 C   0  0  0  0  0  0  0  0  0  0  0  0
  189.5340  177.6100  144.3010 C   0  0  0  0  0  0  0  0  0  0  0  0
  185.3590  178.3560  145.1020 C   0  0  0  0  0  0  0  0  0  0  0  0
  181.7720  179.0950  144.3530 N   0  0  0  0  0  2  0  0  0  0  0  0
  184.9360  178.4800  142.6870 C   0  0  0  0  0  0  0  0  0  0  0  0
  183.5970  178.7490  142.9840 C   0  0  0  0  0  0  0  0  0  0  0  0
  186.2440  178.1190  146.2820 C   0  0  0  0  0  1  0  0  0  0  0  0
  185.8450  178.2710  143.7630 C   0  0  0  0  0  0  0  0  0  0  0  0
  185.3760  178.4710  141.2570 C   0  0  0  0  0  1  0  0  0  0  0  0
  183.1540  178.8190  144.2720 C   0  0  0  0  0  0  0  0  0  0  0  0
  181.2660  179.2170  142.9860 C   0  0  1  0  0  3  0  0  0  0  0  0
  182.4690  178.9940  142.0450 C   0  0  0  0  0  2  0  0  0  0  0  0
  184.0070  178.6270  145.3510 C   0  0  0  0  0  3  0  0  0  0  0  0
  179.6800  177.5660  143.6880 O   0  0  0  0  0  1  0  0  0  0  0  0
  180.2080  178.1940  142.7310 C   0  0  0  0  0  0  0  0  0  0  0  0
  179.8220  177.9140  141.4280 O   0  0  0  0  0  0  0  0  0  0  0  0
  189.3890  177.4850  140.4860 C   0  0  0  0  0  0  0  0  0  0  0  0
  190.1480  176.3840  140.0580 C   0  0  0  0  0  3  0  0  0  0  0  0
  190.5370  176.2580  138.7200 C   0  0  0  0  0  0  0  0  0  0  0  0
  189.4300  178.3560  138.2140 C   0  0  0  0  0  3  0  0  0  0  0  0
  190.1740  177.2490  137.7980 C   0  0  0  0  0  3  0  0  0  0  0  0
  189.0440  178.4740  139.5520 C   0  0  0  0  0  3  0  0  0  0  0  0
  191.2830  175.1460  138.3320 O   0  0  0  0  0  0  0  0  0  0  0  0
  192.2540  175.2350  137.3570 N   0  0  0  0  0  2  0  0  0  0  0  0
  193.3080  174.2760  137.2700 C   0  0  0  0  0  0  0  0  0  0  0  0
  194.5080  174.4870  137.9680 C   0  0  0  0  0  0  0  0  0  0  0  0
  194.1910  172.1870  136.4040 C   0  0  0  0  0  3  0  0  0  0  0  0
  193.1560  173.1230  136.4880 C   0  0  0  0  0  3  0  0  0  0  0  0
  195.3820  172.3980  137.1030 C   0  0  0  0  0  3  0  0  0  0  0  0
  194.6810  175.6280  138.7430 O   0  0  0  0  0  1  0  0  0  0  0  0
  195.5410  173.5470  137.8820 C   0  0  0  0  0  3  0  0  0  0  0  0
  190.4690  177.4910  145.3810 N   0  0  0  0  0  2  0  0  0  0  0  0
  190.0780  177.1250  146.7340 C   0  0  0  0  0  1  0  0  0  0  0  0
  1  7  1  0  0  0  0
  3  6  2  0  0  0  0
  4  3  1  0  0  0  0
  4  1  2  0  0  0  0
  5  1  1  0  0  0  0
  6 13  1  0  0  0  0
  6  2  1  0  0  0  0
  7  2  2  0  0  0  0
  7 37  1  0  0  0  0
  8 18  1  0  0  0  0
  8 12  1  0  0  0  0
 10 11  2  0  0  0  0
 10 13  1  0  0  0  0
 11 15  1  0  0  0  0
 13  8  2  0  0  0  0
 14 10  1  0  0  0  0
 15  9  1  0  0  0  0
 15 18  2  0  0  0  0
 16 20  1  6  0  0  0
 16  9  1  0  0  0  0
 17 11  1  0  0  0  0
 17 16  1  0  0  0  0
 20 19  1  0  0  0  0
 21 20  2  0  0  0  0
 22  4  1  0  0  0  0
 23 22  1  0  0  0  0
 24 23  2  0  0  0  0
 25 27  1  0  0  0  0
 26 25  2  0  0  0  0
 26 24  1  0  0  0  0
 27 22  2  0  0  0  0
 28 24  1  0  0  0  0
 29 28  1  0  0  0  0
 30 29  1  0  0  0  0
 30 31  1  0  0  0  0
 31 35  1  0  0  0  0
 32 33  1  0  0  0  0
 32 34  2  0  0  0  0
 33 30  2  0  0  0  0
 34 36  1  0  0  0  0
 36 31  2  0  0  0  0
 37 38  1  0  0  0  0
M  END
>  <MODEL>
7

>  <REMARK>
 VINA RESULT:      -9.3      2.684      4.045
  Name = 
  7 active torsions:
  status: ('A' for Active; 'I' for Inactive)
    1  A    between atoms: C_1  and  C_28
    2  A    between atoms: N_4  and  C_6
    3  A    between atoms: N_4  and  O_23
    4  A    between atoms: N_11  and  C_33
    5  A    between atoms: C_14  and  C_32
    6  A    between atoms: C_20  and  O_23
    7  A    between atoms: C_21  and  CA_25
                            x       y       z     vdW  Elec       q    Type
                         _______ _______ _______ _____ _____    ______ ____

>  <TORSDO>
F 7

$$$$
=
 OpenBabel11042409593D

 38 42  0  0  1  0  0  0  0  0999 V2000
  181.8300  178.9770  139.2570 C   0  0  0  0  0  0  0  0  0  0  0  0
  182.7950  177.8720  137.3290 C   0  0  0  0  0  3  0  0  0  0  0  0
  183.7900  177.6190  139.4730 N   0  0  0  0  0  0  0  0  0  0  0  0
  182.8500  178.4100  140.0610 C   0  0  0  0  0  0  0  0  0  0  0  0
  180.8060  179.9110  139.8220 C   0  0  0  0  0  1  0  0  0  0  0  0
  183.7890  177.3300  138.1450 C   0  0  0  0  0  0  0  0  0  0  0  0
  181.8100  178.6970  137.8790 C   0  0  0  0  0  0  0  0  0  0  0  0
  184.5700  175.0860  137.2910 C   0  0  0  0  0  0  0  0  0  0  0  0
  187.9160  174.1040  135.9440 N   0  0  0  0  0  2  0  0  0  0  0  0
  186.1430  176.9710  137.2850 C   0  0  0  0  0  0  0  0  0  0  0  0
  187.1000  176.1090  136.7420 C   0  0  0  0  0  0  0  0  0  0  0  0
  183.2460  174.4660  137.5940 C   0  0  0  0  0  1  0  0  0  0  0  0
  184.8470  176.4560  137.5750 C   0  0  0  0  0  0  0  0  0  0  0  0
  186.4960  178.4100  137.4960 C   0  0  0  0  0  1  0  0  0  0  0  0
  186.8150  174.8010  136.4840 C   0  0  0  0  0  0  0  0  0  0  0  0
  189.0270  175.0500  135.8390 C   0  0  1  0  0  3  0  0  0  0  0  0
  188.5080  176.4060  136.3650 C   0  0  0  0  0  2  0  0  0  0  0  0
  185.5620  174.2590  136.7460 C   0  0  0  0  0  3  0  0  0  0  0  0
  190.0150  173.7550  137.5930 O   0  0  0  0  0  1  0  0  0  0  0  0
  190.1850  174.5830  136.6580 C   0  0  0  0  0  0  0  0  0  0  0  0
  191.4540  175.0850  136.4050 O   0  0  0  0  0  0  0  0  0  0  0  0
  182.9610  178.6450  141.5210 C   0  0  0  0  0  0  0  0  0  0  0  0
  184.2280  178.6280  142.1260 C   0  0  0  0  0  3  0  0  0  0  0  0
  184.3660  178.8090  143.5060 C   0  0  0  0  0  0  0  0  0  0  0  0
  181.9570  179.0020  143.7090 C   0  0  0  0  0  3  0  0  0  0  0  0
  183.2240  178.9970  144.2960 C   0  0  0  0  0  3  0  0  0  0  0  0
  181.8270  178.8230  142.3290 C   0  0  0  0  0  3  0  0  0  0  0  0
  185.6410  178.7940  144.0690 O   0  0  0  0  0  0  0  0  0  0  0  0
  186.1490  177.6640  144.6740 N   0  0  0  0  0  2  0  0  0  0  0  0
  187.0650  177.7550  145.7650 C   0  0  0  0  0  0  0  0  0  0  0  0
  186.6290  178.2350  147.0100 C   0  0  0  0  0  0  0  0  0  0  0  0
  189.2990  177.4610  146.6720 C   0  0  0  0  0  3  0  0  0  0  0  0
  188.4030  177.3700  145.6020 C   0  0  0  0  0  3  0  0  0  0  0  0
  188.8600  177.9360  147.9100 C   0  0  0  0  0  3  0  0  0  0  0  0
  185.3090  178.6280  147.1900 O   0  0  0  0  0  1  0  0  0  0  0  0
  187.5280  178.3230  148.0790 C   0  0  0  0  0  3  0  0  0  0  0  0
  180.7910  179.2630  137.0440 N   0  0  0  0  0  2  0  0  0  0  0  0
  181.0650  179.8410  135.7380 C   0  0  0  0  0  1  0  0  0  0  0  0
  1  5  1  0  0  0  0
  1  4  1  0  0  0  0
  2  7  1  0  0  0  0
  2  6  2  0  0  0  0
  3  4  2  0  0  0  0
  4 22  1  0  0  0  0
  6  3  1  0  0  0  0
  7  1  2  0  0  0  0
  8 13  1  0  0  0  0
  8 12  1  0  0  0  0
  9 15  1  0  0  0  0
 10 14  1  0  0  0  0
 10 13  2  0  0  0  0
 11 10  1  0  0  0  0
 13  6  1  0  0  0  0
 15 11  2  0  0  0  0
 15 18  1  0  0  0  0
 16  9  1  0  0  0  0
 16 17  1  0  0  0  0
 16 20  1  1  0  0  0
 17 11  1  0  0  0  0
 18  8  2  0  0  0  0
 20 19  1  0  0  0  0
 21 20  2  0  0  0  0
 22 23  2  0  0  0  0
 22 27  1  0  0  0  0
 23 24  1  0  0  0  0
 24 28  1  0  0  0  0
 24 26  2  0  0  0  0
 25 26  1  0  0  0  0
 27 25  2  0  0  0  0
 28 29  1  0  0  0  0
 29 30  1  0  0  0  0
 30 31  1  0  0  0  0
 31 35  1  0  0  0  0
 31 36  2  0  0  0  0
 32 34  2  0  0  0  0
 33 30  2  0  0  0  0
 33 32  1  0  0  0  0
 34 36  1  0  0  0  0
 37  7  1  0  0  0  0
 38 37  1  0  0  0  0
M  END
>  <MODEL>
8

>  <REMARK>
 VINA RESULT:      -9.3      2.988      9.472
  Name = 
  7 active torsions:
  status: ('A' for Active; 'I' for Inactive)
    1  A    between atoms: C_1  and  C_28
    2  A    between atoms: N_4  and  C_6
    3  A    between atoms: N_4  and  O_23
    4  A    between atoms: N_11  and  C_33
    5  A    between atoms: C_14  and  C_32
    6  A    between atoms: C_20  and  O_23
    7  A    between atoms: C_21  and  CA_25
                            x       y       z     vdW  Elec       q    Type
                         _______ _______ _______ _____ _____    ______ ____

>  <TORSDO>
F 7

$$$$
=
 OpenBabel11042409593D

 38 42  0  0  1  0  0  0  0  0999 V2000
  188.2070  177.7650  145.6000 C   0  0  0  0  0  0  0  0  0  0  0  0
  189.9780  177.3820  143.9900 C   0  0  0  0  0  3  0  0  0  0  0  0
  187.7730  177.8720  143.2470 N   0  0  0  0  0  0  0  0  0  0  0  0
  187.3100  177.9750  144.5240 C   0  0  0  0  0  0  0  0  0  0  0  0
  187.7540  177.7940  147.0250 C   0  0  0  0  0  1  0  0  0  0  0  0
  189.0700  177.5910  142.9510 C   0  0  0  0  0  0  0  0  0  0  0  0
  189.5530  177.4680  145.3190 C   0  0  0  0  0  0  0  0  0  0  0  0
  188.6020  177.8420  140.4830 C   0  0  0  0  0  0  0  0  0  0  0  0
  190.8620  177.2130  137.5730 N   0  0  0  0  0  2  0  0  0  0  0  0
  190.8240  177.0840  141.1990 C   0  0  0  0  0  0  0  0  0  0  0  0
  191.1840  177.0210  139.8490 C   0  0  0  0  0  0  0  0  0  0  0  0
  187.1920  178.2560  140.7530 C   0  0  0  0  0  1  0  0  0  0  0  0
  189.5030  177.4980  141.5330 C   0  0  0  0  0  0  0  0  0  0  0  0
  191.8490  176.7650  142.2410 C   0  0  0  0  0  1  0  0  0  0  0  0
  190.3030  177.3490  138.8620 C   0  0  0  0  0  0  0  0  0  0  0  0
  192.2400  176.7520  137.7370 C   0  0  1  0  0  3  0  0  0  0  0  0
  192.4870  176.6170  139.2550 C   0  0  0  0  0  2  0  0  0  0  0  0
  189.0070  177.7630  139.1440 C   0  0  0  0  0  3  0  0  0  0  0  0
  192.8220  175.3810  135.8620 O   0  0  0  0  0  0  0  0  0  0  0  0
  192.4300  175.4350  137.0590 C   0  0  0  0  0  0  0  0  0  0  0  0
  192.1470  174.2610  137.7440 O   0  0  0  0  0  1  0  0  0  0  0  0
  185.8720  178.2910  144.7130 C   0  0  0  0  0  0  0  0  0  0  0  0
  185.0180  178.2970  143.5990 C   0  0  0  0  0  3  0  0  0  0  0  0
  183.6650  178.6270  143.7350 C   0  0  0  0  0  0  0  0  0  0  0  0
  184.0030  178.9770  146.1110 C   0  0  0  0  0  3  0  0  0  0  0  0
  183.1600  178.9670  144.9980 C   0  0  0  0  0  3  0  0  0  0  0  0
  185.3530  178.6450  145.9670 C   0  0  0  0  0  3  0  0  0  0  0  0
  182.8460  178.6140  142.6070 O   0  0  0  0  0  0  0  0  0  0  0  0
  183.2670  179.1440  141.4060 N   0  0  0  0  0  2  0  0  0  0  0  0
  183.4020  178.3280  140.2420 C   0  0  0  0  0  0  0  0  0  0  0  0
  184.0480  178.8330  139.1020 C   0  0  0  0  0  0  0  0  0  0  0  0
  183.0230  176.2280  139.0850 C   0  0  0  0  0  3  0  0  0  0  0  0
  182.8900  177.0240  140.2260 C   0  0  0  0  0  3  0  0  0  0  0  0
  183.6700  176.7320  137.9530 C   0  0  0  0  0  3  0  0  0  0  0  0
  184.5550  180.1270  139.0950 O   0  0  0  0  0  1  0  0  0  0  0  0
  184.1800  178.0330  137.9610 C   0  0  0  0  0  3  0  0  0  0  0  0
  190.4800  177.2460  146.3900 N   0  0  0  0  0  2  0  0  0  0  0  0
  191.6750  176.4280  146.2510 C   0  0  0  0  0  1  0  0  0  0  0  0
  1  5  1  0  0  0  0
  2  7  2  0  0  0  0
  3  4  1  0  0  0  0
  4 22  1  0  0  0  0
  4  1  2  0  0  0  0
  6  3  2  0  0  0  0
  6  2  1  0  0  0  0
  7  1  1  0  0  0  0
  7 37  1  0  0  0  0
  8 12  1  0  0  0  0
  8 13  1  0  0  0  0
  9 16  1  0  0  0  0
  9 15  1  0  0  0  0
 10 13  2  0  0  0  0
 10 14  1  0  0  0  0
 11 10  1  0  0  0  0
 13  6  1  0  0  0  0
 15 18  1  0  0  0  0
 15 11  2  0  0  0  0
 16 20  1  6  0  0  0
 16 17  1  0  0  0  0
 17 11  1  0  0  0  0
 18  8  2  0  0  0  0
 19 20  2  0  0  0  0
 20 21  1  0  0  0  0
 22 27  1  0  0  0  0
 23 24  1  0  0  0  0
 23 22  2  0  0  0  0
 24 26  2  0  0  0  0
 26 25  1  0  0  0  0
 27 25  2  0  0  0  0
 28 24  1  0  0  0  0
 29 28  1  0  0  0  0
 30 29  1  0  0  0  0
 31 30  2  0  0  0  0
 32 33  2  0  0  0  0
 33 30  1  0  0  0  0
 34 36  2  0  0  0  0
 34 32  1  0  0  0  0
 35 31  1  0  0  0  0
 36 31  1  0  0  0  0
 38 37  1  0  0  0  0
M  END
>  <MODEL>
9

>  <REMARK>
 VINA RESULT:      -9.2      1.906      7.107
  Name = 
  7 active torsions:
  status: ('A' for Active; 'I' for Inactive)
    1  A    between atoms: C_1  and  C_28
    2  A    between atoms: N_4  and  C_6
    3  A    between atoms: N_4  and  O_23
    4  A    between atoms: N_11  and  C_33
    5  A    between atoms: C_14  and  C_32
    6  A    between atoms: C_20  and  O_23
    7  A    between atoms: C_21  and  CA_25
                            x       y       z     vdW  Elec       q    Type
                         _______ _______ _______ _____ _____    ______ ____

>  <TORSDO>
F 7

$$$$
