=
 OpenBabel11042410083D

 62 66  0  0  1  0  0  0  0  0999 V2000
  185.7430  178.6640  139.9770 C   0  0  0  0  0  0  0  0  0  0  0  0
  183.3780  179.2710  139.0460 C   0  0  0  0  0  3  0  0  0  0  0  0
  184.5540  178.9680  139.5300 C   0  0  0  0  0  0  0  0  0  0  0  0
  186.7420  179.7740  141.9730 C   0  0  0  0  0  1  0  0  0  0  0  0
  185.9730  178.5680  141.4550 C   0  0  1  0  0  3  0  0  0  0  0  0
  184.6900  178.3810  142.2150 C   0  0  0  0  0  0  0  0  0  0  0  0
  184.0140  177.3750  142.0520 O   0  0  0  0  0  0  0  0  0  0  0  0
  184.1810  179.4580  143.1190 C   0  0  1  0  0  3  0  0  0  0  0  0
  182.9030  179.1460  143.5810 O   0  0  0  0  0  1  0  0  0  0  0  0
  185.1340  179.6370  144.2900 C   0  0  0  0  0  2  0  0  0  0  0  0
  185.1240  178.4280  145.2190 C   0  0  0  0  0  2  0  0  0  0  0  0
  190.9980  176.4240  144.2610 C   0  0  1  0  0  3  0  0  0  0  0  0
  188.2250  177.5950  147.2940 C   0  0  0  0  0  0  0  0  0  0  0  0
  190.5470  176.7730  146.5280 C   0  0  2  0  0  3  0  0  0  0  0  0
  188.6660  177.0410  144.9360 C   0  0  1  0  0  3  0  0  0  0  0  0
  186.8430  177.9260  146.9180 C   0  0  0  0  0  3  0  0  0  0  0  0
  188.5130  177.4020  148.5050 O   0  0  0  0  0  0  0  0  0  0  0  0
  189.6680  177.0570  143.7820 C   0  0  0  0  0  0  0  0  0  0  0  0
  191.5090  176.9110  145.4930 O   0  0  0  0  0  0  0  0  0  0  0  0
  189.1020  176.2990  142.5920 C   0  0  0  0  0  1  0  0  0  0  0  0
  189.9460  178.4870  143.3410 C   0  0  0  0  0  1  0  0  0  0  0  0
  186.5020  178.0020  145.6240 C   0  0  0  0  0  0  0  0  0  0  0  0
  189.2880  177.5970  146.2170 C   0  0  1  0  0  3  0  0  0  0  0  0
  191.1200  177.2040  147.7280 O   0  0  0  0  0  1  0  0  0  0  0  0
  187.4480  177.7200  144.6270 O   0  0  0  0  0  0  0  0  0  0  0  0
  192.3810  174.6350  144.6750 C   0  0  0  0  0  1  0  0  0  0  0  0
  191.1810  175.0350  144.0680 O   0  0  0  0  0  0  0  0  0  0  0  0
  186.8210  178.2950  139.0040 C   0  0  0  0  0  2  0  0  0  0  0  0
  188.1090  177.9290  139.7330 C   0  0  0  0  0  2  0  0  0  0  0  0
  189.3000  178.0920  138.8040 C   0  0  0  0  0  2  0  0  0  0  0  0
  190.5430  177.4750  139.4240 C   0  0  0  0  0  2  0  0  0  0  0  0
  193.3860  177.1890  139.4480 O   0  0  0  0  0  0  0  0  0  0  0  0
  191.3320  176.7970  138.4040 N   0  0  0  0  0  2  0  0  0  0  0  0
  192.7570  176.6790  138.4820 C   0  0  0  0  0  0  0  0  0  0  0  0
  194.5790  175.3970  137.6970 O   0  0  0  0  0  1  0  0  0  0  0  0
  192.9690  175.8830  136.1460 O   0  0  0  0  0  0  0  0  0  0  0  0
  193.4870  175.9590  137.4330 C   0  0  0  0  0  0  0  0  0  0  0  0
  182.7900  178.6120  137.8250 C   0  0  2  0  0  3  0  0  0  0  0  0
  180.7970  178.4940  136.4830 O   0  0  0  0  0  1  0  0  0  0  0  0
  181.3880  179.1670  137.5570 C   0  0  1  0  0  3  0  0  0  0  0  0
  180.4970  179.0990  138.7720 C   0  0  0  0  0  3  0  0  0  0  0  0
  179.5320  179.9930  139.0220 C   0  0  0  0  0  3  0  0  0  0  0  0
  179.2340  181.1470  138.1130 C   0  0  0  0  0  2  0  0  0  0  0  0
  179.9200  182.3990  138.6280 C   0  0  0  0  0  2  0  0  0  0  0  0
  180.7330  184.2390  137.1760 C   0  0  0  0  0  0  0  0  0  0  0  0
  180.4450  182.9840  136.3360 C   0  0  0  0  0  2  0  0  0  0  0  0
  182.0190  184.7330  137.4040 O   0  0  0  0  0  0  0  0  0  0  0  0
  181.0160  182.8050  137.6650 C   0  0  2  0  0  3  0  0  0  0  0  0
  181.4930  184.9010  136.2130 O   0  0  0  0  0  0  0  0  0  0  0  0
  182.8210  177.0800  137.8840 C   0  0  0  0  0  2  0  0  0  0  0  0
  182.2420  176.5650  139.1870 C   0  0  0  0  0  2  0  0  0  0  0  0
  181.5210  175.2490  138.9400 C   0  0  0  0  0  2  0  0  0  0  0  0
  180.3860  175.4090  137.9350 C   0  0  0  0  0  2  0  0  0  0  0  0
  180.3360  174.2410  136.9620 C   0  0  0  0  0  2  0  0  0  0  0  0
  181.2550  174.5080  135.7830 C   0  0  0  0  0  2  0  0  0  0  0  0
  182.2650  173.5050  135.7130 O   0  0  0  0  0  0  0  0  0  0  0  0
  186.1340  173.9920  137.2770 C   0  0  0  0  0  3  0  0  0  0  0  0
  185.6660  174.8830  136.3060 C   0  0  0  0  0  3  0  0  0  0  0  0
  185.3120  172.9560  137.7290 C   0  0  0  0  0  3  0  0  0  0  0  0
  183.5530  173.6860  136.2260 C   0  0  0  0  0  0  0  0  0  0  0  0
  184.3800  174.7320  135.7810 C   0  0  0  0  0  3  0  0  0  0  0  0
  184.0240  172.8050  137.2050 C   0  0  0  0  0  3  0  0  0  0  0  0
  1  5  1  0  0  0  0
  2  3  2  0  0  0  0
  3  1  2  0  0  0  0
  5  4  1  1  0  0  0
  5  6  1  0  0  0  0
  6  8  1  0  0  0  0
  7  6  2  0  0  0  0
  8  9  1  1  0  0  0
  8 10  1  0  0  0  0
 10 11  1  0  0  0  0
 11 22  1  0  0  0  0
 12 27  1  1  0  0  0
 12 19  1  0  0  0  0
 13 17  2  0  0  0  0
 14 24  1  1  0  0  0
 15 25  1  6  0  0  0
 15 23  1  0  0  0  0
 16 13  1  0  0  0  0
 18 12  1  0  0  0  0
 18 15  1  0  0  0  0
 19 14  1  0  0  0  0
 20 18  1  0  0  0  0
 21 18  1  0  0  0  0
 22 16  2  0  0  0  0
 23 14  1  0  0  0  0
 23 13  1  1  0  0  0
 25 22  1  0  0  0  0
 27 26  1  0  0  0  0
 28 29  1  0  0  0  0
 28  1  1  0  0  0  0
 30 31  1  0  0  0  0
 30 29  1  0  0  0  0
 33 34  1  0  0  0  0
 33 31  1  0  0  0  0
 34 32  2  0  0  0  0
 36 37  2  0  0  0  0
 37 35  1  0  0  0  0
 37 34  1  0  0  0  0
 38 50  1  1  0  0  0
 38  2  1  0  0  0  0
 40 39  1  6  0  0  0
 40 38  1  0  0  0  0
 40 41  1  0  0  0  0
 41 42  2  0  0  0  0
 43 44  1  0  0  0  0
 43 42  1  0  0  0  0
 45 47  1  0  0  0  0
 45 48  1  0  0  0  0
 46 45  1  0  0  0  0
 46 48  1  0  0  0  0
 48 44  1  1  0  0  0
 49 45  1  0  0  0  0
 49 47  1  0  0  0  0
 50 51  1  0  0  0  0
 52 51  1  0  0  0  0
 53 52  1  0  0  0  0
 54 53  1  0  0  0  0
 55 54  1  0  0  0  0
 56 55  1  0  0  0  0
 56 60  1  0  0  0  0
 57 59  1  0  0  0  0
 58 57  2  0  0  0  0
 60 62  1  0  0  0  0
 61 60  2  0  0  0  0
 61 58  1  0  0  0  0
 62 59  2  0  0  0  0
M  END
>  <MODEL>
1

>  <REMARK>
 VINA RESULT:      -6.7      0.000      0.000
  Name = 
  27 active torsions:
  status: ('A' for Active; 'I' for Inactive)
    1  A    between atoms: C_2  and  O_51
    2  A    between atoms: C_3  and  C_13
    3  A    between atoms: C_3  and  C_16
    4  A    between atoms: C_5  and  C_62
    5  A    between atoms: C_6  and  C_21
    6  A    between atoms: C_6  and  C_53
    7  A    between atoms: O_7  and  C_27
    8  A    between atoms: O_7  and  C_35
    9  A    between atoms: C_9  and  C_12
   10  A    between atoms: C_9  and  C_36
   11  A    between atoms: C_12  and  C_45
   12  A    between atoms: C_12  and  C_62
   13  A    between atoms: C_13  and  C_40
   14  A    between atoms: C_15  and  C_21
   15  A    between atoms: C_15  and  C_30
   16  A    between atoms: C_16  and  C_28
   17  A    between atoms: C_24  and  C_50
   18  A    between atoms: C_24  and  C_54
   19  A    between atoms: C_27  and  C_50
   20  A    between atoms: C_28  and  C_53
   21  A    between atoms: C_30  and  C_47
   22  A    between atoms: N_31  and  C_40
   23  A    between atoms: C_34  and  C_57
   24  A    between atoms: C_36  and  C_54
   25  A    between atoms: C_41  and  C_44
   26  A    between atoms: C_49  and  C_55
   27  A    between atoms: C_49  and  C_57
                            x       y       z     vdW  Elec       q    Type
                         _______ _______ _______ _____ _____    ______ ____

>  <TORSDO>
F 27

$$$$
=
 OpenBabel11042410083D

 62 66  0  0  1  0  0  0  0  0999 V2000
  190.8770  176.6280  139.0340 C   0  0  0  0  0  0  0  0  0  0  0  0
  189.3830  176.3450  141.1600 C   0  0  0  0  0  3  0  0  0  0  0  0
  190.1150  176.4840  140.0840 C   0  0  0  0  0  0  0  0  0  0  0  0
  189.3590  175.2430  137.6230 C   0  0  0  0  0  1  0  0  0  0  0  0
  190.2900  176.4450  137.6670 C   0  0  1  0  0  3  0  0  0  0  0  0
  189.5930  177.6840  137.1800 C   0  0  0  0  0  0  0  0  0  0  0  0
  189.6260  177.9900  135.9970 O   0  0  0  0  0  0  0  0  0  0  0  0
  188.9180  178.6030  138.1480 C   0  0  1  0  0  3  0  0  0  0  0  0
  188.9580  179.9180  137.6840 O   0  0  0  0  0  1  0  0  0  0  0  0
  187.4780  178.1620  138.3560 C   0  0  0  0  0  2  0  0  0  0  0  0
  186.7690  177.9000  137.0310 C   0  0  0  0  0  2  0  0  0  0  0  0
  180.6630  176.9010  138.1080 C   0  0  1  0  0  3  0  0  0  0  0  0
  184.3490  174.9450  137.1930 C   0  0  0  0  0  0  0  0  0  0  0  0
  181.8160  174.9150  137.6750 C   0  0  2  0  0  3  0  0  0  0  0  0
  183.1510  176.9970  137.8350 C   0  0  1  0  0  3  0  0  0  0  0  0
  185.5870  175.7350  137.1200 C   0  0  0  0  0  3  0  0  0  0  0  0
  184.4150  173.6880  137.2480 O   0  0  0  0  0  0  0  0  0  0  0  0
  181.8610  177.8110  137.7380 C   0  0  0  0  0  0  0  0  0  0  0  0
  180.6160  175.6410  137.4560 O   0  0  0  0  0  0  0  0  0  0  0  0
  181.9360  179.0150  138.6620 C   0  0  0  0  0  1  0  0  0  0  0  0
  181.6600  178.3190  136.3170 C   0  0  0  0  0  1  0  0  0  0  0  0
  185.5310  177.0730  137.1950 C   0  0  0  0  0  0  0  0  0  0  0  0
  183.0240  175.6660  137.0940 C   0  0  1  0  0  3  0  0  0  0  0  0
  181.6930  173.6600  137.0710 O   0  0  0  0  0  1  0  0  0  0  0  0
  184.3010  177.7180  137.3890 O   0  0  0  0  0  0  0  0  0  0  0  0
  179.0870  176.0850  139.5680 C   0  0  0  0  0  1  0  0  0  0  0  0
  180.2440  176.8700  139.4590 O   0  0  0  0  0  0  0  0  0  0  0  0
  192.2880  177.0980  139.2090 C   0  0  0  0  0  2  0  0  0  0  0  0
  193.1580  176.6570  138.0380 C   0  0  0  0  0  2  0  0  0  0  0  0
  193.5070  175.1840  138.1700 C   0  0  0  0  0  2  0  0  0  0  0  0
  193.8890  174.6070  136.8170 C   0  0  0  0  0  2  0  0  0  0  0  0
  195.9480  176.3300  135.8400 O   0  0  0  0  0  0  0  0  0  0  0  0
  195.3100  174.2900  136.7860 N   0  0  0  0  0  2  0  0  0  0  0  0
  196.2950  175.2060  136.2930 C   0  0  0  0  0  0  0  0  0  0  0  0
  198.5330  175.4260  135.5720 O   0  0  0  0  0  0  0  0  0  0  0  0
  198.1600  173.8330  137.1700 O   0  0  0  0  0  1  0  0  0  0  0  0
  197.7130  174.8330  136.3160 C   0  0  0  0  0  0  0  0  0  0  0  0
  189.4980  177.2460  142.3610 C   0  0  2  0  0  3  0  0  0  0  0  0
  188.0250  178.8760  141.3790 O   0  0  0  0  0  1  0  0  0  0  0  0
  188.2230  178.0810  142.5120 C   0  0  1  0  0  3  0  0  0  0  0  0
  187.0050  177.2320  142.7770 C   0  0  0  0  0  3  0  0  0  0  0  0
  185.9460  177.6680  143.4720 C   0  0  0  0  0  3  0  0  0  0  0  0
  185.8620  179.0480  144.0500 C   0  0  0  0  0  2  0  0  0  0  0  0
  184.5840  179.7240  143.5880 C   0  0  0  0  0  2  0  0  0  0  0  0
  182.1370  179.4040  143.3350 C   0  0  0  0  0  0  0  0  0  0  0  0
  182.6420  178.6840  144.5970 C   0  0  0  0  0  2  0  0  0  0  0  0
  181.6800  178.7330  142.1990 O   0  0  0  0  0  0  0  0  0  0  0  0
  183.4980  178.6840  143.4170 C   0  0  2  0  0  3  0  0  0  0  0  0
  180.9090  178.7480  143.2620 O   0  0  0  0  0  0  0  0  0  0  0  0
  190.7710  178.1020  142.3630 C   0  0  0  0  0  2  0  0  0  0  0  0
  191.7340  177.6560  143.4470 C   0  0  0  0  0  2  0  0  0  0  0  0
  191.3290  176.2810  143.9530 C   0  0  0  0  0  2  0  0  0  0  0  0
  192.3650  175.7060  144.9130 C   0  0  0  0  0  2  0  0  0  0  0  0
  191.7050  175.0090  146.0920 C   0  0  0  0  0  2  0  0  0  0  0  0
  191.8570  175.8520  147.3460 C   0  0  0  0  0  2  0  0  0  0  0  0
  191.3310  177.1580  147.1260 O   0  0  0  0  0  0  0  0  0  0  0  0
  187.2670  178.0810  147.6650 C   0  0  0  0  0  3  0  0  0  0  0  0
  188.1760  178.3450  148.6940 C   0  0  0  0  0  3  0  0  0  0  0  0
  187.7140  177.5240  146.4630 C   0  0  0  0  0  3  0  0  0  0  0  0
  189.9830  177.4770  147.3210 C   0  0  0  0  0  0  0  0  0  0  0  0
  189.5300  178.0440  148.5240 C   0  0  0  0  0  3  0  0  0  0  0  0
  189.0690  177.2250  146.2920 C   0  0  0  0  0  3  0  0  0  0  0  0
  1 28  1  0  0  0  0
  1  3  2  0  0  0  0
  3  2  2  0  0  0  0
  5  4  1  1  0  0  0
  5  1  1  0  0  0  0
  6  5  1  0  0  0  0
  6  8  1  0  0  0  0
  7  6  2  0  0  0  0
  8  9  1  6  0  0  0
  8 10  1  0  0  0  0
 11 22  1  0  0  0  0
 11 10  1  0  0  0  0
 12 27  1  1  0  0  0
 13 17  2  0  0  0  0
 14 24  1  6  0  0  0
 15 25  1  6  0  0  0
 16 13  1  0  0  0  0
 16 22  2  0  0  0  0
 18 15  1  0  0  0  0
 18 12  1  0  0  0  0
 18 20  1  0  0  0  0
 19 14  1  0  0  0  0
 19 12  1  0  0  0  0
 21 18  1  0  0  0  0
 22 25  1  0  0  0  0
 23 13  1  1  0  0  0
 23 14  1  0  0  0  0
 23 15  1  0  0  0  0
 27 26  1  0  0  0  0
 29 30  1  0  0  0  0
 29 28  1  0  0  0  0
 31 30  1  0  0  0  0
 32 34  2  0  0  0  0
 33 31  1  0  0  0  0
 34 37  1  0  0  0  0
 34 33  1  0  0  0  0
 35 37  2  0  0  0  0
 37 36  1  0  0  0  0
 38  2  1  6  0  0  0
 38 50  1  0  0  0  0
 38 40  1  0  0  0  0
 40 39  1  6  0  0  0
 40 41  1  0  0  0  0
 41 42  2  0  0  0  0
 42 43  1  0  0  0  0
 44 43  1  0  0  0  0
 45 48  1  0  0  0  0
 45 46  1  0  0  0  0
 47 49  1  0  0  0  0
 47 45  1  0  0  0  0
 48 44  1  1  0  0  0
 48 46  1  0  0  0  0
 49 45  1  0  0  0  0
 50 51  1  0  0  0  0
 51 52  1  0  0  0  0
 52 53  1  0  0  0  0
 53 54  1  0  0  0  0
 54 55  1  0  0  0  0
 56 60  1  0  0  0  0
 56 55  1  0  0  0  0
 57 58  1  0  0  0  0
 59 57  2  0  0  0  0
 60 61  1  0  0  0  0
 61 58  2  0  0  0  0
 62 59  1  0  0  0  0
 62 60  2  0  0  0  0
M  END
>  <MODEL>
2

>  <REMARK>
 VINA RESULT:      -6.6      2.646      9.684
  Name = 
  27 active torsions:
  status: ('A' for Active; 'I' for Inactive)
    1  A    between atoms: C_2  and  O_51
    2  A    between atoms: C_3  and  C_13
    3  A    between atoms: C_3  and  C_16
    4  A    between atoms: C_5  and  C_62
    5  A    between atoms: C_6  and  C_21
    6  A    between atoms: C_6  and  C_53
    7  A    between atoms: O_7  and  C_27
    8  A    between atoms: O_7  and  C_35
    9  A    between atoms: C_9  and  C_12
   10  A    between atoms: C_9  and  C_36
   11  A    between atoms: C_12  and  C_45
   12  A    between atoms: C_12  and  C_62
   13  A    between atoms: C_13  and  C_40
   14  A    between atoms: C_15  and  C_21
   15  A    between atoms: C_15  and  C_30
   16  A    between atoms: C_16  and  C_28
   17  A    between atoms: C_24  and  C_50
   18  A    between atoms: C_24  and  C_54
   19  A    between atoms: C_27  and  C_50
   20  A    between atoms: C_28  and  C_53
   21  A    between atoms: C_30  and  C_47
   22  A    between atoms: N_31  and  C_40
   23  A    between atoms: C_34  and  C_57
   24  A    between atoms: C_36  and  C_54
   25  A    between atoms: C_41  and  C_44
   26  A    between atoms: C_49  and  C_55
   27  A    between atoms: C_49  and  C_57
                            x       y       z     vdW  Elec       q    Type
                         _______ _______ _______ _____ _____    ______ ____

>  <TORSDO>
F 27

$$$$
=
 OpenBabel11042410083D

 62 66  0  0  1  0  0  0  0  0999 V2000
  184.5410  178.5820  143.0760 C   0  0  0  0  0  0  0  0  0  0  0  0
  185.9950  178.4000  140.9120 C   0  0  0  0  0  3  0  0  0  0  0  0
  185.2810  178.5030  142.0030 C   0  0  0  0  0  0  0  0  0  0  0  0
  184.6710  180.8470  144.1080 C   0  0  0  0  0  1  0  0  0  0  0  0
  185.0280  179.3750  144.2510 C   0  0  1  0  0  3  0  0  0  0  0  0
  184.5220  178.8230  145.5540 C   0  0  0  0  0  0  0  0  0  0  0  0
  183.3430  178.9340  145.8590 O   0  0  0  0  0  0  0  0  0  0  0  0
  185.4680  178.2020  146.5320 C   0  0  1  0  0  3  0  0  0  0  0  0
  186.1200  177.1110  145.9590 O   0  0  0  0  0  1  0  0  0  0  0  0
  186.4810  179.2380  146.9930 C   0  0  0  0  0  2  0  0  0  0  0  0
  187.5410  178.6280  147.9040 C   0  0  0  0  0  2  0  0  0  0  0  0
  191.0320  177.1570  142.8950 C   0  0  1  0  0  3  0  0  0  0  0  0
  190.3120  176.1590  146.9860 C   0  0  0  0  0  0  0  0  0  0  0  0
  191.5550  175.8350  144.7500 C   0  0  2  0  0  3  0  0  0  0  0  0
  189.6520  177.4080  144.9710 C   0  0  1  0  0  3  0  0  0  0  0  0
  189.2310  176.8400  147.7160 C   0  0  0  0  0  3  0  0  0  0  0  0
  190.8360  175.1230  147.4740 O   0  0  0  0  0  0  0  0  0  0  0  0
  190.1090  178.1110  143.6930 C   0  0  0  0  0  0  0  0  0  0  0  0
  192.0760  176.5420  143.6350 O   0  0  0  0  0  0  0  0  0  0  0  0
  188.9010  178.5180  142.8640 C   0  0  0  0  0  1  0  0  0  0  0  0
  190.8940  179.3700  144.0320 C   0  0  0  0  0  1  0  0  0  0  0  0
  188.5810  177.8630  147.1440 C   0  0  0  0  0  0  0  0  0  0  0  0
  190.8350  176.7890  145.7150 C   0  0  1  0  0  3  0  0  0  0  0  0
  192.6110  175.1950  145.4050 O   0  0  0  0  0  1  0  0  0  0  0  0
  188.8960  178.2570  145.8350 O   0  0  0  0  0  0  0  0  0  0  0  0
  190.7880  176.7770  140.6420 C   0  0  0  0  0  1  0  0  0  0  0  0
  190.4410  176.3180  141.9210 O   0  0  0  0  0  0  0  0  0  0  0  0
  183.1680  177.9840  143.0670 C   0  0  0  0  0  2  0  0  0  0  0  0
  182.1920  178.8730  142.3060 C   0  0  0  0  0  2  0  0  0  0  0  0
  181.0380  179.2750  143.2080 C   0  0  0  0  0  2  0  0  0  0  0  0
  179.7290  179.2480  142.4360 C   0  0  0  0  0  2  0  0  0  0  0  0
  178.9310  181.8090  141.4520 O   0  0  0  0  0  0  0  0  0  0  0  0
  179.9330  179.7310  141.0770 N   0  0  0  0  0  2  0  0  0  0  0  0
  179.5190  181.0340  140.6510 C   0  0  0  0  0  0  0  0  0  0  0  0
  180.1580  180.6360  138.4120 O   0  0  0  0  0  0  0  0  0  0  0  0
  179.5970  182.7960  138.9110 O   0  0  0  0  0  1  0  0  0  0  0  0
  179.7800  181.4670  139.2740 C   0  0  0  0  0  0  0  0  0  0  0  0
  185.4040  178.4490  139.5280 C   0  0  2  0  0  3  0  0  0  0  0  0
  187.6990  177.9100  139.0470 O   0  0  0  0  0  1  0  0  0  0  0  0
  186.5210  178.4070  138.4810 C   0  0  1  0  0  3  0  0  0  0  0  0
  186.1420  177.6010  137.2640 C   0  0  0  0  0  3  0  0  0  0  0  0
  186.9580  177.4320  136.2150 C   0  0  0  0  0  3  0  0  0  0  0  0
  188.3340  178.0220  136.1490 C   0  0  0  0  0  2  0  0  0  0  0  0
  189.3370  176.9510  135.7600 C   0  0  0  0  0  2  0  0  0  0  0  0
  190.4170  174.8820  136.5990 C   0  0  0  0  0  0  0  0  0  0  0  0
  189.1550  174.5340  135.7920 C   0  0  0  0  0  2  0  0  0  0  0  0
  190.5170  174.7100  137.9810 O   0  0  0  0  0  0  0  0  0  0  0  0
  189.1300  175.7290  136.6290 C   0  0  2  0  0  3  0  0  0  0  0  0
  190.5510  173.6400  137.2200 O   0  0  0  0  0  0  0  0  0  0  0  0
  184.4370  179.6220  139.3180 C   0  0  0  0  0  2  0  0  0  0  0  0
  183.1110  179.1490  138.7530 C   0  0  0  0  0  2  0  0  0  0  0  0
  182.8960  177.6880  139.1140 C   0  0  0  0  0  2  0  0  0  0  0  0
  181.4690  177.2390  138.8200 C   0  0  0  0  0  2  0  0  0  0  0  0
  181.3820  176.4910  137.5000 C   0  0  0  0  0  2  0  0  0  0  0  0
  180.8210  175.0980  137.7270 C   0  0  0  0  0  2  0  0  0  0  0  0
  181.3500  174.1930  136.7620 O   0  0  0  0  0  0  0  0  0  0  0  0
  185.2250  172.5980  137.0710 C   0  0  0  0  0  3  0  0  0  0  0  0
  184.1490  171.7480  136.7970 C   0  0  0  0  0  3  0  0  0  0  0  0
  185.0080  173.9700  137.2300 C   0  0  0  0  0  3  0  0  0  0  0  0
  182.6340  173.6450  136.8560 C   0  0  0  0  0  0  0  0  0  0  0  0
  182.8580  172.2680  136.6900 C   0  0  0  0  0  3  0  0  0  0  0  0
  183.7160  174.4920  137.1200 C   0  0  0  0  0  3  0  0  0  0  0  0
  1  5  1  0  0  0  0
  2  3  2  0  0  0  0
  3  1  2  0  0  0  0
  5  4  1  6  0  0  0
  5  6  1  0  0  0  0
  6  7  2  0  0  0  0
  6  8  1  0  0  0  0
  8  9  1  6  0  0  0
  8 10  1  0  0  0  0
 10 11  1  0  0  0  0
 12 27  1  1  0  0  0
 12 19  1  0  0  0  0
 12 18  1  0  0  0  0
 13 17  2  0  0  0  0
 13 16  1  0  0  0  0
 14 24  1  1  0  0  0
 14 23  1  0  0  0  0
 15 23  1  0  0  0  0
 15 25  1  1  0  0  0
 18 21  1  0  0  0  0
 18 15  1  0  0  0  0
 19 14  1  0  0  0  0
 20 18  1  0  0  0  0
 22 16  2  0  0  0  0
 22 11  1  0  0  0  0
 23 13  1  1  0  0  0
 25 22  1  0  0  0  0
 26 27  1  0  0  0  0
 28  1  1  0  0  0  0
 29 28  1  0  0  0  0
 29 30  1  0  0  0  0
 31 30  1  0  0  0  0
 33 31  1  0  0  0  0
 34 33  1  0  0  0  0
 34 32  2  0  0  0  0
 35 37  2  0  0  0  0
 36 37  1  0  0  0  0
 37 34  1  0  0  0  0
 38 50  1  1  0  0  0
 38  2  1  0  0  0  0
 40 39  1  1  0  0  0
 40 38  1  0  0  0  0
 41 40  1  0  0  0  0
 42 41  2  0  0  0  0
 43 42  1  0  0  0  0
 44 43  1  0  0  0  0
 45 48  1  0  0  0  0
 45 49  1  0  0  0  0
 45 47  1  0  0  0  0
 46 45  1  0  0  0  0
 46 48  1  0  0  0  0
 48 44  1  6  0  0  0
 49 47  1  0  0  0  0
 51 52  1  0  0  0  0
 51 50  1  0  0  0  0
 53 52  1  0  0  0  0
 54 55  1  0  0  0  0
 54 53  1  0  0  0  0
 56 60  1  0  0  0  0
 56 55  1  0  0  0  0
 57 59  1  0  0  0  0
 58 57  2  0  0  0  0
 60 62  1  0  0  0  0
 61 58  1  0  0  0  0
 61 60  2  0  0  0  0
 62 59  2  0  0  0  0
M  END
>  <MODEL>
3

>  <REMARK>
 VINA RESULT:      -6.0      2.574      7.098
  Name = 
  27 active torsions:
  status: ('A' for Active; 'I' for Inactive)
    1  A    between atoms: C_2  and  O_51
    2  A    between atoms: C_3  and  C_13
    3  A    between atoms: C_3  and  C_16
    4  A    between atoms: C_5  and  C_62
    5  A    between atoms: C_6  and  C_21
    6  A    between atoms: C_6  and  C_53
    7  A    between atoms: O_7  and  C_27
    8  A    between atoms: O_7  and  C_35
    9  A    between atoms: C_9  and  C_12
   10  A    between atoms: C_9  and  C_36
   11  A    between atoms: C_12  and  C_45
   12  A    between atoms: C_12  and  C_62
   13  A    between atoms: C_13  and  C_40
   14  A    between atoms: C_15  and  C_21
   15  A    between atoms: C_15  and  C_30
   16  A    between atoms: C_16  and  C_28
   17  A    between atoms: C_24  and  C_50
   18  A    between atoms: C_24  and  C_54
   19  A    between atoms: C_27  and  C_50
   20  A    between atoms: C_28  and  C_53
   21  A    between atoms: C_30  and  C_47
   22  A    between atoms: N_31  and  C_40
   23  A    between atoms: C_34  and  C_57
   24  A    between atoms: C_36  and  C_54
   25  A    between atoms: C_41  and  C_44
   26  A    between atoms: C_49  and  C_55
   27  A    between atoms: C_49  and  C_57
                            x       y       z     vdW  Elec       q    Type
                         _______ _______ _______ _____ _____    ______ ____

>  <TORSDO>
F 27

$$$$
=
 OpenBabel11042410083D

 62 66  0  0  1  0  0  0  0  0999 V2000
  189.9100  177.0620  138.1330 C   0  0  0  0  0  0  0  0  0  0  0  0
  190.8400  174.6410  137.8160 C   0  0  0  0  0  3  0  0  0  0  0  0
  190.3810  175.8530  137.9940 C   0  0  0  0  0  0  0  0  0  0  0  0
  188.7360  178.4040  139.8760 C   0  0  0  0  0  1  0  0  0  0  0  0
  190.0480  177.7600  139.4530 C   0  0  1  0  0  3  0  0  0  0  0  0
  190.5670  176.8430  140.5240 C   0  0  0  0  0  0  0  0  0  0  0  0
  189.7990  176.1420  141.1660 O   0  0  0  0  0  0  0  0  0  0  0  0
  192.0200  176.8370  140.8770 C   0  0  1  0  0  3  0  0  0  0  0  0
  192.6910  177.8650  140.2150 O   0  0  0  0  0  1  0  0  0  0  0  0
  192.1830  176.9860  142.3820 C   0  0  0  0  0  2  0  0  0  0  0  0
  191.5970  178.2990  142.8880 C   0  0  0  0  0  2  0  0  0  0  0  0
  185.9120  177.8280  145.5130 C   0  0  1  0  0  3  0  0  0  0  0  0
  190.0990  177.6490  146.3440 C   0  0  0  0  0  0  0  0  0  0  0  0
  187.6270  177.5180  147.0700 C   0  0  2  0  0  3  0  0  0  0  0  0
  188.2800  178.1550  144.7650 C   0  0  1  0  0  3  0  0  0  0  0  0
  191.0610  177.9330  145.2690 C   0  0  0  0  0  3  0  0  0  0  0  0
  190.4930  177.6160  147.5400 O   0  0  0  0  0  0  0  0  0  0  0  0
  186.8650  177.8230  144.2920 C   0  0  0  0  0  0  0  0  0  0  0  0
  186.3460  177.0830  146.6410 O   0  0  0  0  0  0  0  0  0  0  0  0
  186.4160  178.8330  143.2480 C   0  0  0  0  0  1  0  0  0  0  0  0
  186.8280  176.4410  143.6560 C   0  0  0  0  0  1  0  0  0  0  0  0
  190.6270  178.1010  144.0110 C   0  0  0  0  0  0  0  0  0  0  0  0
  188.6760  177.3000  145.9690 C   0  0  1  0  0  3  0  0  0  0  0  0
  187.9790  176.8040  148.2190 O   0  0  0  0  0  1  0  0  0  0  0  0
  189.2550  178.0510  143.7250 O   0  0  0  0  0  0  0  0  0  0  0  0
  183.9080  178.9510  145.4320 C   0  0  0  0  0  1  0  0  0  0  0  0
  185.2490  179.0350  145.8360 O   0  0  0  0  0  0  0  0  0  0  0  0
  189.3530  177.7770  136.9400 C   0  0  0  0  0  2  0  0  0  0  0  0
  188.5200  176.8340  136.0810 C   0  0  0  0  0  2  0  0  0  0  0  0
  187.1080  177.3720  135.9290 C   0  0  0  0  0  2  0  0  0  0  0  0
  186.2420  176.9230  137.0950 C   0  0  0  0  0  2  0  0  0  0  0  0
  183.5960  177.3860  138.0700 O   0  0  0  0  0  0  0  0  0  0  0  0
  185.8220  178.0730  137.8850 N   0  0  0  0  0  2  0  0  0  0  0  0
  184.4790  178.2390  138.3530 C   0  0  0  0  0  0  0  0  0  0  0  0
  184.8770  179.7640  140.1130 O   0  0  0  0  0  1  0  0  0  0  0  0
  182.9820  180.1390  138.8880 O   0  0  0  0  0  0  0  0  0  0  0  0
  184.1310  179.4080  139.1670 C   0  0  0  0  0  0  0  0  0  0  0  0
  191.5360  174.1950  136.5570 C   0  0  2  0  0  3  0  0  0  0  0  0
  192.2700  176.2050  135.4560 O   0  0  0  0  0  1  0  0  0  0  0  0
  192.7040  175.1350  136.2450 C   0  0  1  0  0  3  0  0  0  0  0  0
  193.3850  175.6440  137.4910 C   0  0  0  0  0  3  0  0  0  0  0  0
  194.5100  175.1070  137.9810 C   0  0  0  0  0  3  0  0  0  0  0  0
  195.2100  173.9500  137.3350 C   0  0  0  0  0  2  0  0  0  0  0  0
  195.2010  172.7550  138.2710 C   0  0  0  0  0  2  0  0  0  0  0  0
  196.6660  170.9940  137.3180 C   0  0  0  0  0  0  0  0  0  0  0  0
  195.9010  171.7160  136.1960 C   0  0  0  0  0  2  0  0  0  0  0  0
  196.4200  169.6690  137.6860 O   0  0  0  0  0  0  0  0  0  0  0  0
  195.2090  171.4780  137.4570 C   0  0  2  0  0  3  0  0  0  0  0  0
  197.0540  169.8920  136.5570 O   0  0  0  0  0  0  0  0  0  0  0  0
  190.5870  174.0120  135.3660 C   0  0  0  0  0  2  0  0  0  0  0  0
  189.3800  173.1760  135.7460 C   0  0  0  0  0  2  0  0  0  0  0  0
  188.2560  173.4240  134.7530 C   0  0  0  0  0  2  0  0  0  0  0  0
  187.0300  172.5720  135.0650 C   0  0  0  0  0  2  0  0  0  0  0  0
  186.0320  173.3290  135.9270 C   0  0  0  0  0  2  0  0  0  0  0  0
  185.8450  172.6140  137.2540 C   0  0  0  0  0  2  0  0  0  0  0  0
  184.4680  172.6130  137.6200 O   0  0  0  0  0  0  0  0  0  0  0  0
  181.5090  170.4970  135.5180 C   0  0  0  0  0  3  0  0  0  0  0  0
  182.8190  170.0080  135.5450 C   0  0  0  0  0  3  0  0  0  0  0  0
  181.1900  171.6770  136.1960 C   0  0  0  0  0  3  0  0  0  0  0  0
  183.4950  171.8930  136.9200 C   0  0  0  0  0  0  0  0  0  0  0  0
  183.8090  170.7020  136.2430 C   0  0  0  0  0  3  0  0  0  0  0  0
  182.1810  172.3720  136.8960 C   0  0  0  0  0  3  0  0  0  0  0  0
  1  5  1  0  0  0  0
  2  3  2  0  0  0  0
  3  1  2  0  0  0  0
  5  4  1  1  0  0  0
  5  6  1  0  0  0  0
  6  8  1  0  0  0  0
  6  7  2  0  0  0  0
  8  9  1  6  0  0  0
  8 10  1  0  0  0  0
 10 11  1  0  0  0  0
 11 22  1  0  0  0  0
 12 27  1  1  0  0  0
 12 19  1  0  0  0  0
 13 17  2  0  0  0  0
 14 24  1  1  0  0  0
 15 25  1  6  0  0  0
 15 23  1  0  0  0  0
 16 13  1  0  0  0  0
 18 15  1  0  0  0  0
 18 12  1  0  0  0  0
 19 14  1  0  0  0  0
 20 18  1  0  0  0  0
 21 18  1  0  0  0  0
 22 16  2  0  0  0  0
 23 13  1  1  0  0  0
 23 14  1  0  0  0  0
 25 22  1  0  0  0  0
 26 27  1  0  0  0  0
 28  1  1  0  0  0  0
 29 28  1  0  0  0  0
 30 29  1  0  0  0  0
 30 31  1  0  0  0  0
 31 33  1  0  0  0  0
 32 34  2  0  0  0  0
 33 34  1  0  0  0  0
 34 37  1  0  0  0  0
 36 37  2  0  0  0  0
 37 35  1  0  0  0  0
 38 50  1  6  0  0  0
 38  2  1  0  0  0  0
 40 39  1  1  0  0  0
 40 38  1  0  0  0  0
 40 41  1  0  0  0  0
 41 42  2  0  0  0  0
 43 42  1  0  0  0  0
 43 44  1  0  0  0  0
 45 48  1  0  0  0  0
 45 47  1  0  0  0  0
 46 45  1  0  0  0  0
 46 48  1  0  0  0  0
 48 44  1  1  0  0  0
 49 45  1  0  0  0  0
 49 47  1  0  0  0  0
 50 51  1  0  0  0  0
 52 53  1  0  0  0  0
 52 51  1  0  0  0  0
 53 54  1  0  0  0  0
 54 55  1  0  0  0  0
 55 56  1  0  0  0  0
 57 58  2  0  0  0  0
 57 59  1  0  0  0  0
 58 61  1  0  0  0  0
 59 62  2  0  0  0  0
 60 56  1  0  0  0  0
 61 60  2  0  0  0  0
 62 60  1  0  0  0  0
M  END
>  <MODEL>
4

>  <REMARK>
 VINA RESULT:      -6.0      2.829      9.336
  Name = 
  27 active torsions:
  status: ('A' for Active; 'I' for Inactive)
    1  A    between atoms: C_2  and  O_51
    2  A    between atoms: C_3  and  C_13
    3  A    between atoms: C_3  and  C_16
    4  A    between atoms: C_5  and  C_62
    5  A    between atoms: C_6  and  C_21
    6  A    between atoms: C_6  and  C_53
    7  A    between atoms: O_7  and  C_27
    8  A    between atoms: O_7  and  C_35
    9  A    between atoms: C_9  and  C_12
   10  A    between atoms: C_9  and  C_36
   11  A    between atoms: C_12  and  C_45
   12  A    between atoms: C_12  and  C_62
   13  A    between atoms: C_13  and  C_40
   14  A    between atoms: C_15  and  C_21
   15  A    between atoms: C_15  and  C_30
   16  A    between atoms: C_16  and  C_28
   17  A    between atoms: C_24  and  C_50
   18  A    between atoms: C_24  and  C_54
   19  A    between atoms: C_27  and  C_50
   20  A    between atoms: C_28  and  C_53
   21  A    between atoms: C_30  and  C_47
   22  A    between atoms: N_31  and  C_40
   23  A    between atoms: C_34  and  C_57
   24  A    between atoms: C_36  and  C_54
   25  A    between atoms: C_41  and  C_44
   26  A    between atoms: C_49  and  C_55
   27  A    between atoms: C_49  and  C_57
                            x       y       z     vdW  Elec       q    Type
                         _______ _______ _______ _____ _____    ______ ____

>  <TORSDO>
F 27

$$$$
=
 OpenBabel11042410083D

 62 66  0  0  1  0  0  0  0  0999 V2000
  187.1740  178.2320  139.8160 C   0  0  0  0  0  0  0  0  0  0  0  0
  185.2030  179.2510  141.1980 C   0  0  0  0  0  3  0  0  0  0  0  0
  186.2030  178.7470  140.5200 C   0  0  0  0  0  0  0  0  0  0  0  0
  188.6450  178.9490  141.6970 C   0  0  0  0  0  1  0  0  0  0  0  0
  188.5900  178.4010  140.2790 C   0  0  1  0  0  3  0  0  0  0  0  0
  189.3770  177.1260  140.1630 C   0  0  0  0  0  0  0  0  0  0  0  0
  189.3160  176.2780  141.0420 O   0  0  0  0  0  0  0  0  0  0  0  0
  190.3100  176.9120  139.0140 C   0  0  1  0  0  3  0  0  0  0  0  0
  190.2690  177.9990  138.1410 O   0  0  0  0  0  1  0  0  0  0  0  0
  191.7250  176.7080  139.5340 C   0  0  0  0  0  2  0  0  0  0  0  0
  192.7710  177.0750  138.4870 C   0  0  0  0  0  2  0  0  0  0  0  0
  196.5880  172.7300  136.0390 C   0  0  1  0  0  3  0  0  0  0  0  0
  192.5780  174.2030  135.9720 C   0  0  0  0  0  0  0  0  0  0  0  0
  194.4160  172.5700  135.1920 C   0  0  2  0  0  3  0  0  0  0  0  0
  194.9120  174.4680  136.7070 C   0  0  1  0  0  3  0  0  0  0  0  0
  192.2330  175.3940  136.7620 C   0  0  0  0  0  3  0  0  0  0  0  0
  191.7790  173.7870  135.0910 O   0  0  0  0  0  0  0  0  0  0  0  0
  196.2110  173.7770  137.1180 C   0  0  0  0  0  0  0  0  0  0  0  0
  195.5490  171.8470  135.6450 O   0  0  0  0  0  0  0  0  0  0  0  0
  197.3170  174.8070  137.2840 C   0  0  0  0  0  1  0  0  0  0  0  0
  196.0330  173.0580  138.4470 C   0  0  0  0  0  1  0  0  0  0  0  0
  193.1330  175.9190  137.6060 C   0  0  0  0  0  0  0  0  0  0  0  0
  193.8430  173.4480  136.3140 C   0  0  1  0  0  3  0  0  0  0  0  0
  193.4500  171.6590  134.7530 O   0  0  0  0  0  1  0  0  0  0  0  0
  194.4170  175.3640  137.7040 O   0  0  0  0  0  0  0  0  0  0  0  0
  198.2440  172.0610  134.5940 C   0  0  0  0  0  1  0  0  0  0  0  0
  197.4340  173.1380  134.9820 O   0  0  0  0  0  0  0  0  0  0  0  0
  186.8480  177.3760  138.6310 C   0  0  0  0  0  2  0  0  0  0  0  0
  186.5640  178.2320  137.4030 C   0  0  0  0  0  2  0  0  0  0  0  0
  185.6840  177.4700  136.4260 C   0  0  0  0  0  2  0  0  0  0  0  0
  185.1110  176.2270  137.0870 C   0  0  0  0  0  2  0  0  0  0  0  0
  184.8810  173.5160  137.9590 O   0  0  0  0  0  0  0  0  0  0  0  0
  185.3780  175.0520  136.2690 N   0  0  0  0  0  2  0  0  0  0  0  0
  185.2310  173.7160  136.7650 C   0  0  0  0  0  0  0  0  0  0  0  0
  186.5030  172.5750  135.1350 O   0  0  0  0  0  0  0  0  0  0  0  0
  184.6280  171.4880  135.8670 O   0  0  0  0  0  1  0  0  0  0  0  0
  185.4910  172.5770  135.8790 C   0  0  0  0  0  0  0  0  0  0  0  0
  183.8970  178.5310  141.4050 C   0  0  2  0  0  3  0  0  0  0  0  0
  183.4230  179.8950  139.4810 O   0  0  0  0  0  1  0  0  0  0  0  0
  182.9520  178.8150  140.2340 C   0  0  1  0  0  3  0  0  0  0  0  0
  182.7460  177.6100  139.3530 C   0  0  0  0  0  3  0  0  0  0  0  0
  181.8370  177.5690  138.3700 C   0  0  0  0  0  3  0  0  0  0  0  0
  180.9370  178.7220  138.0420 C   0  0  0  0  0  2  0  0  0  0  0  0
  181.2510  179.2420  136.6510 C   0  0  0  0  0  2  0  0  0  0  0  0
  180.8380  181.6600  137.0240 C   0  0  0  0  0  0  0  0  0  0  0  0
  179.6490  180.8300  137.5380 C   0  0  0  0  0  2  0  0  0  0  0  0
  180.7670  182.4910  135.9040 O   0  0  0  0  0  0  0  0  0  0  0  0
  180.3200  180.3890  136.3210 C   0  0  2  0  0  3  0  0  0  0  0  0
  180.1760  182.8870  137.0080 O   0  0  0  0  0  0  0  0  0  0  0  0
  183.2540  178.8130  142.7700 C   0  0  0  0  0  2  0  0  0  0  0  0
  184.1050  178.2730  143.9030 C   0  0  0  0  0  2  0  0  0  0  0  0
  184.6030  179.4260  144.7600 C   0  0  0  0  0  2  0  0  0  0  0  0
  185.6960  178.9800  145.7250 C   0  0  0  0  0  2  0  0  0  0  0  0
  186.8580  178.3330  144.9880 C   0  0  0  0  0  2  0  0  0  0  0  0
  187.4100  177.1770  145.8030 C   0  0  0  0  0  2  0  0  0  0  0  0
  188.7720  177.4220  146.1410 O   0  0  0  0  0  0  0  0  0  0  0  0
  191.8000  177.7040  143.2410 C   0  0  0  0  0  3  0  0  0  0  0  0
  191.3860  178.8540  143.9200 C   0  0  0  0  0  3  0  0  0  0  0  0
  191.2140  176.4690  143.5360 C   0  0  0  0  0  3  0  0  0  0  0  0
  189.7850  177.5340  145.1830 C   0  0  0  0  0  0  0  0  0  0  0  0
  190.3830  178.7710  144.8880 C   0  0  0  0  0  3  0  0  0  0  0  0
  190.2100  176.3850  144.5060 C   0  0  0  0  0  3  0  0  0  0  0  0
  1  5  1  0  0  0  0
  1  3  2  0  0  0  0
  3  2  2  0  0  0  0
  5  4  1  1  0  0  0
  6  5  1  0  0  0  0
  6  7  2  0  0  0  0
  8  9  1  6  0  0  0
  8 10  1  0  0  0  0
  8  6  1  0  0  0  0
 11 10  1  0  0  0  0
 12 27  1  6  0  0  0
 12 18  1  0  0  0  0
 13 16  1  0  0  0  0
 14 24  1  1  0  0  0
 14 19  1  0  0  0  0
 14 23  1  0  0  0  0
 15 18  1  0  0  0  0
 15 25  1  1  0  0  0
 16 22  2  0  0  0  0
 17 13  2  0  0  0  0
 18 20  1  0  0  0  0
 18 21  1  0  0  0  0
 19 12  1  0  0  0  0
 22 25  1  0  0  0  0
 22 11  1  0  0  0  0
 23 13  1  6  0  0  0
 23 15  1  0  0  0  0
 26 27  1  0  0  0  0
 28  1  1  0  0  0  0
 29 28  1  0  0  0  0
 30 31  1  0  0  0  0
 30 29  1  0  0  0  0
 33 34  1  0  0  0  0
 33 31  1  0  0  0  0
 34 32  2  0  0  0  0
 35 37  2  0  0  0  0
 36 37  1  0  0  0  0
 37 34  1  0  0  0  0
 38  2  1  6  0  0  0
 38 50  1  0  0  0  0
 40 39  1  6  0  0  0
 40 38  1  0  0  0  0
 41 40  1  0  0  0  0
 42 41  2  0  0  0  0
 43 42  1  0  0  0  0
 44 43  1  0  0  0  0
 45 46  1  0  0  0  0
 47 49  1  0  0  0  0
 47 45  1  0  0  0  0
 48 44  1  1  0  0  0
 48 45  1  0  0  0  0
 48 46  1  0  0  0  0
 49 45  1  0  0  0  0
 50 51  1  0  0  0  0
 51 52  1  0  0  0  0
 52 53  1  0  0  0  0
 54 53  1  0  0  0  0
 54 55  1  0  0  0  0
 55 56  1  0  0  0  0
 57 59  2  0  0  0  0
 57 58  1  0  0  0  0
 58 61  2  0  0  0  0
 59 62  1  0  0  0  0
 60 56  1  0  0  0  0
 61 60  1  0  0  0  0
 62 60  2  0  0  0  0
M  END
>  <MODEL>
5

>  <REMARK>
 VINA RESULT:      -5.7      2.598      8.497
  Name = 
  27 active torsions:
  status: ('A' for Active; 'I' for Inactive)
    1  A    between atoms: C_2  and  O_51
    2  A    between atoms: C_3  and  C_13
    3  A    between atoms: C_3  and  C_16
    4  A    between atoms: C_5  and  C_62
    5  A    between atoms: C_6  and  C_21
    6  A    between atoms: C_6  and  C_53
    7  A    between atoms: O_7  and  C_27
    8  A    between atoms: O_7  and  C_35
    9  A    between atoms: C_9  and  C_12
   10  A    between atoms: C_9  and  C_36
   11  A    between atoms: C_12  and  C_45
   12  A    between atoms: C_12  and  C_62
   13  A    between atoms: C_13  and  C_40
   14  A    between atoms: C_15  and  C_21
   15  A    between atoms: C_15  and  C_30
   16  A    between atoms: C_16  and  C_28
   17  A    between atoms: C_24  and  C_50
   18  A    between atoms: C_24  and  C_54
   19  A    between atoms: C_27  and  C_50
   20  A    between atoms: C_28  and  C_53
   21  A    between atoms: C_30  and  C_47
   22  A    between atoms: N_31  and  C_40
   23  A    between atoms: C_34  and  C_57
   24  A    between atoms: C_36  and  C_54
   25  A    between atoms: C_41  and  C_44
   26  A    between atoms: C_49  and  C_55
   27  A    between atoms: C_49  and  C_57
                            x       y       z     vdW  Elec       q    Type
                         _______ _______ _______ _____ _____    ______ ____

>  <TORSDO>
F 27

$$$$
=
 OpenBabel11042410083D

 62 66  0  0  1  0  0  0  0  0999 V2000
  191.2740  175.7760  137.7970 C   0  0  0  0  0  0  0  0  0  0  0  0
  189.9510  176.3600  139.9740 C   0  0  0  0  0  3  0  0  0  0  0  0
  190.5970  176.0600  138.8760 C   0  0  0  0  0  0  0  0  0  0  0  0
  189.8660  173.8300  137.1290 C   0  0  0  0  0  1  0  0  0  0  0  0
  190.5890  175.0830  136.6570 C   0  0  1  0  0  3  0  0  0  0  0  0
  189.6540  175.9990  135.9200 C   0  0  0  0  0  0  0  0  0  0  0  0
  189.6030  175.9810  134.6980 O   0  0  0  0  0  0  0  0  0  0  0  0
  188.8320  177.0030  136.6640 C   0  0  1  0  0  3  0  0  0  0  0  0
  189.3130  178.2930  136.4410 O   0  0  0  0  0  1  0  0  0  0  0  0
  187.3790  176.9000  136.2280 C   0  0  0  0  0  2  0  0  0  0  0  0
  186.4810  176.4070  137.3570 C   0  0  0  0  0  2  0  0  0  0  0  0
  181.3490  172.9050  136.4410 C   0  0  1  0  0  3  0  0  0  0  0  0
  185.6150  172.8630  136.2130 C   0  0  0  0  0  0  0  0  0  0  0  0
  183.3110  171.7360  135.9460 C   0  0  2  0  0  3  0  0  0  0  0  0
  183.5500  174.0090  136.9050 C   0  0  1  0  0  3  0  0  0  0  0  0
  186.3730  174.0430  136.6580 C   0  0  0  0  0  3  0  0  0  0  0  0
  186.2160  171.7730  136.0210 O   0  0  0  0  0  0  0  0  0  0  0  0
  182.0700  174.2650  136.6200 C   0  0  0  0  0  0  0  0  0  0  0  0
  181.9700  171.9860  135.5550 O   0  0  0  0  0  0  0  0  0  0  0  0
  181.4530  175.0620  137.7580 C   0  0  0  0  0  1  0  0  0  0  0  0
  181.9070  175.0690  135.3390 C   0  0  0  0  0  1  0  0  0  0  0  0
  185.7240  175.1670  136.9910 C   0  0  0  0  0  0  0  0  0  0  0  0
  184.1450  173.0250  135.8980 C   0  0  1  0  0  3  0  0  0  0  0  0
  183.8550  170.7780  135.0850 O   0  0  0  0  0  1  0  0  0  0  0  0
  184.3230  175.2090  136.9610 O   0  0  0  0  0  0  0  0  0  0  0  0
  179.7800  171.3950  137.1750 C   0  0  0  0  0  1  0  0  0  0  0  0
  180.7660  172.3050  137.5820 O   0  0  0  0  0  0  0  0  0  0  0  0
  192.6860  176.2580  137.6670 C   0  0  0  0  0  2  0  0  0  0  0  0
  193.3790  175.6000  136.4800 C   0  0  0  0  0  2  0  0  0  0  0  0
  194.6610  174.9210  136.9320 C   0  0  0  0  0  2  0  0  0  0  0  0
  195.7270  175.0320  135.8550 C   0  0  0  0  0  2  0  0  0  0  0  0
  195.6210  172.2590  136.5370 O   0  0  0  0  0  0  0  0  0  0  0  0
  196.8750  174.2010  136.1940 N   0  0  0  0  0  2  0  0  0  0  0  0
  196.7530  172.8100  136.5150 C   0  0  0  0  0  0  0  0  0  0  0  0
  199.0760  172.4000  136.3980 O   0  0  0  0  0  0  0  0  0  0  0  0
  197.8610  170.8740  137.5920 O   0  0  0  0  0  1  0  0  0  0  0  0
  197.9540  172.0260  136.8210 C   0  0  0  0  0  0  0  0  0  0  0  0
  190.1410  177.6550  140.7190 C   0  0  2  0  0  3  0  0  0  0  0  0
  189.9570  178.5100  142.9600 O   0  0  0  0  0  1  0  0  0  0  0  0
  190.3030  177.3780  142.2160 C   0  0  1  0  0  3  0  0  0  0  0  0
  189.5030  176.1850  142.6730 C   0  0  0  0  0  3  0  0  0  0  0  0
  188.5940  176.2460  143.6550 C   0  0  0  0  0  3  0  0  0  0  0  0
  188.2760  177.5100  144.3940 C   0  0  0  0  0  2  0  0  0  0  0  0
  188.4030  177.2790  145.8890 C   0  0  0  0  0  2  0  0  0  0  0  0
  190.5270  176.8310  147.0910 C   0  0  0  0  0  0  0  0  0  0  0  0
  189.6980  177.8830  147.8470 C   0  0  0  0  0  2  0  0  0  0  0  0
  191.7240  177.1240  146.4340 O   0  0  0  0  0  0  0  0  0  0  0  0
  189.6830  177.9140  146.3890 C   0  0  2  0  0  3  0  0  0  0  0  0
  191.7320  177.0820  147.7460 O   0  0  0  0  0  0  0  0  0  0  0  0
  189.0520  178.6950  140.4210 C   0  0  0  0  0  2  0  0  0  0  0  0
  187.6870  178.0460  140.3030 C   0  0  0  0  0  2  0  0  0  0  0  0
  186.7680  178.5910  141.3850 C   0  0  0  0  0  2  0  0  0  0  0  0
  185.5240  179.2440  140.7920 C   0  0  0  0  0  2  0  0  0  0  0  0
  184.2620  178.4920  141.1810 C   0  0  0  0  0  2  0  0  0  0  0  0
  183.4110  178.2330  139.9500 C   0  0  0  0  0  2  0  0  0  0  0  0
  182.3930  179.2230  139.8420 O   0  0  0  0  0  0  0  0  0  0  0  0
  180.7880  180.4040  136.1430 C   0  0  0  0  0  3  0  0  0  0  0  0
  180.8020  181.3090  137.2090 C   0  0  0  0  0  3  0  0  0  0  0  0
  181.3150  179.1200  136.3090 C   0  0  0  0  0  3  0  0  0  0  0  0
  181.8590  179.6360  138.6160 C   0  0  0  0  0  0  0  0  0  0  0  0
  181.3350  180.9280  138.4420 C   0  0  0  0  0  3  0  0  0  0  0  0
  181.8510  178.7380  137.5430 C   0  0  0  0  0  3  0  0  0  0  0  0
  1  3  2  0  0  0  0
  3  2  2  0  0  0  0
  5  4  1  1  0  0  0
  5  1  1  0  0  0  0
  6  5  1  0  0  0  0
  6  8  1  0  0  0  0
  7  6  2  0  0  0  0
  8  9  1  6  0  0  0
 10  8  1  0  0  0  0
 10 11  1  0  0  0  0
 12 18  1  0  0  0  0
 12 27  1  1  0  0  0
 13 16  1  0  0  0  0
 14 24  1  6  0  0  0
 15 25  1  6  0  0  0
 16 22  2  0  0  0  0
 17 13  2  0  0  0  0
 18 15  1  0  0  0  0
 18 20  1  0  0  0  0
 19 14  1  0  0  0  0
 19 12  1  0  0  0  0
 21 18  1  0  0  0  0
 22 11  1  0  0  0  0
 23 14  1  0  0  0  0
 23 13  1  1  0  0  0
 23 15  1  0  0  0  0
 25 22  1  0  0  0  0
 26 27  1  0  0  0  0
 28  1  1  0  0  0  0
 29 30  1  0  0  0  0
 29 28  1  0  0  0  0
 31 33  1  0  0  0  0
 31 30  1  0  0  0  0
 33 34  1  0  0  0  0
 34 32  2  0  0  0  0
 34 37  1  0  0  0  0
 35 37  2  0  0  0  0
 37 36  1  0  0  0  0
 38  2  1  6  0  0  0
 38 40  1  0  0  0  0
 40 41  1  0  0  0  0
 40 39  1  1  0  0  0
 41 42  2  0  0  0  0
 42 43  1  0  0  0  0
 43 44  1  0  0  0  0
 45 49  1  0  0  0  0
 45 46  1  0  0  0  0
 47 45  1  0  0  0  0
 47 49  1  0  0  0  0
 48 44  1  6  0  0  0
 48 45  1  0  0  0  0
 48 46  1  0  0  0  0
 50 38  1  0  0  0  0
 51 50  1  0  0  0  0
 51 52  1  0  0  0  0
 53 54  1  0  0  0  0
 53 52  1  0  0  0  0
 55 54  1  0  0  0  0
 56 55  1  0  0  0  0
 57 59  2  0  0  0  0
 57 58  1  0  0  0  0
 58 61  2  0  0  0  0
 59 62  1  0  0  0  0
 60 56  1  0  0  0  0
 61 60  1  0  0  0  0
 62 60  2  0  0  0  0
M  END
>  <MODEL>
6

>  <REMARK>
 VINA RESULT:      -5.6      2.557     10.006
  Name = 
  27 active torsions:
  status: ('A' for Active; 'I' for Inactive)
    1  A    between atoms: C_2  and  O_51
    2  A    between atoms: C_3  and  C_13
    3  A    between atoms: C_3  and  C_16
    4  A    between atoms: C_5  and  C_62
    5  A    between atoms: C_6  and  C_21
    6  A    between atoms: C_6  and  C_53
    7  A    between atoms: O_7  and  C_27
    8  A    between atoms: O_7  and  C_35
    9  A    between atoms: C_9  and  C_12
   10  A    between atoms: C_9  and  C_36
   11  A    between atoms: C_12  and  C_45
   12  A    between atoms: C_12  and  C_62
   13  A    between atoms: C_13  and  C_40
   14  A    between atoms: C_15  and  C_21
   15  A    between atoms: C_15  and  C_30
   16  A    between atoms: C_16  and  C_28
   17  A    between atoms: C_24  and  C_50
   18  A    between atoms: C_24  and  C_54
   19  A    between atoms: C_27  and  C_50
   20  A    between atoms: C_28  and  C_53
   21  A    between atoms: C_30  and  C_47
   22  A    between atoms: N_31  and  C_40
   23  A    between atoms: C_34  and  C_57
   24  A    between atoms: C_36  and  C_54
   25  A    between atoms: C_41  and  C_44
   26  A    between atoms: C_49  and  C_55
   27  A    between atoms: C_49  and  C_57
                            x       y       z     vdW  Elec       q    Type
                         _______ _______ _______ _____ _____    ______ ____

>  <TORSDO>
F 27

$$$$
=
 OpenBabel11042410083D

 62 66  0  0  1  0  0  0  0  0999 V2000
  184.1060  178.7350  143.0000 C   0  0  0  0  0  0  0  0  0  0  0  0
  185.3900  178.2790  140.7700 C   0  0  0  0  0  3  0  0  0  0  0  0
  184.7640  178.5150  141.8940 C   0  0  0  0  0  0  0  0  0  0  0  0
  184.7690  180.8660  144.1110 C   0  0  0  0  0  1  0  0  0  0  0  0
  184.8150  179.3460  144.1700 C   0  0  1  0  0  3  0  0  0  0  0  0
  184.2790  178.8420  145.4810 C   0  0  0  0  0  0  0  0  0  0  0  0
  183.1020  178.9990  145.7710 O   0  0  0  0  0  0  0  0  0  0  0  0
  185.1940  178.2150  146.4830 C   0  0  1  0  0  3  0  0  0  0  0  0
  185.8430  177.1110  145.9320 O   0  0  0  0  0  1  0  0  0  0  0  0
  186.2130  179.2400  146.9590 C   0  0  0  0  0  2  0  0  0  0  0  0
  187.2460  178.6200  147.8940 C   0  0  0  0  0  2  0  0  0  0  0  0
  190.7820  177.1720  142.9110 C   0  0  1  0  0  3  0  0  0  0  0  0
  190.1760  176.3140  147.0520 C   0  0  0  0  0  0  0  0  0  0  0  0
  191.4160  175.9770  144.8160 C   0  0  2  0  0  3  0  0  0  0  0  0
  189.4080  177.4190  144.9910 C   0  0  1  0  0  3  0  0  0  0  0  0
  189.0570  176.9490  147.7640 C   0  0  0  0  0  3  0  0  0  0  0  0
  190.7760  175.3400  147.5780 O   0  0  0  0  0  0  0  0  0  0  0  0
  189.8010  178.0950  143.6770 C   0  0  0  0  0  0  0  0  0  0  0  0
  191.8740  176.6670  143.6640 O   0  0  0  0  0  0  0  0  0  0  0  0
  188.5600  178.3770  142.8470 C   0  0  0  0  0  1  0  0  0  0  0  0
  190.4980  179.4200  143.9490 C   0  0  0  0  0  1  0  0  0  0  0  0
  188.3290  177.8970  147.1560 C   0  0  0  0  0  0  0  0  0  0  0  0
  190.6400  176.9210  145.7470 C   0  0  1  0  0  3  0  0  0  0  0  0
  192.5220  175.4430  145.4850 O   0  0  0  0  0  1  0  0  0  0  0  0
  188.6020  178.2520  145.8270 O   0  0  0  0  0  0  0  0  0  0  0  0
  190.6590  176.5970  140.6890 C   0  0  0  0  0  1  0  0  0  0  0  0
  190.2420  176.2510  141.9830 O   0  0  0  0  0  0  0  0  0  0  0  0
  182.6290  178.4890  143.0370 C   0  0  0  0  0  2  0  0  0  0  0  0
  181.8610  179.7130  142.5510 C   0  0  0  0  0  2  0  0  0  0  0  0
  180.4320  179.3310  142.2060 C   0  0  0  0  0  2  0  0  0  0  0  0
  180.1120  177.9430  142.7350 C   0  0  0  0  0  2  0  0  0  0  0  0
  181.2930  176.8110  140.3920 O   0  0  0  0  0  0  0  0  0  0  0  0
  179.4060  177.1680  141.7230 N   0  0  0  0  0  2  0  0  0  0  0  0
  180.0620  176.6170  140.5760 C   0  0  0  0  0  0  0  0  0  0  0  0
  178.9360  174.6540  139.8970 O   0  0  0  0  0  1  0  0  0  0  0  0
  178.9470  176.3640  138.3780 O   0  0  0  0  0  0  0  0  0  0  0  0
  179.2950  175.8230  139.6100 C   0  0  0  0  0  0  0  0  0  0  0  0
  184.7770  178.5170  139.4140 C   0  0  2  0  0  3  0  0  0  0  0  0
  187.1220  178.5970  138.8830 O   0  0  0  0  0  1  0  0  0  0  0  0
  185.8520  178.4090  138.3290 C   0  0  1  0  0  3  0  0  0  0  0  0
  185.7920  177.0990  137.5850 C   0  0  0  0  0  3  0  0  0  0  0  0
  186.6590  176.7660  136.6190 C   0  0  0  0  0  3  0  0  0  0  0  0
  187.7810  177.6610  136.1860 C   0  0  0  0  0  2  0  0  0  0  0  0
  189.0600  177.2670  136.9030 C   0  0  0  0  0  2  0  0  0  0  0  0
  190.7380  175.4400  136.9270 C   0  0  0  0  0  0  0  0  0  0  0  0
  189.9450  175.4190  135.6090 C   0  0  0  0  0  2  0  0  0  0  0  0
  190.6190  174.4560  137.9110 O   0  0  0  0  0  0  0  0  0  0  0  0
  189.2330  175.7650  136.8340 C   0  0  2  0  0  3  0  0  0  0  0  0
  191.2690  174.1560  136.8100 O   0  0  0  0  0  0  0  0  0  0  0  0
  183.9740  179.8210  139.3280 C   0  0  0  0  0  2  0  0  0  0  0  0
  182.5070  179.5490  139.0600 C   0  0  0  0  0  2  0  0  0  0  0  0
  181.9000  180.7220  138.3070 C   0  0  0  0  0  2  0  0  0  0  0  0
  180.5650  180.3530  137.6690 C   0  0  0  0  0  2  0  0  0  0  0  0
  180.6630  180.3300  136.1520 C   0  0  0  0  0  2  0  0  0  0  0  0
  180.5450  178.9030  135.6450 C   0  0  0  0  0  2  0  0  0  0  0  0
  181.7230  178.1700  135.9670 O   0  0  0  0  0  0  0  0  0  0  0  0
  181.6600  174.0600  136.8380 C   0  0  0  0  0  3  0  0  0  0  0  0
  182.4090  174.9240  137.6440 C   0  0  0  0  0  3  0  0  0  0  0  0
  180.9310  174.5670  135.7590 C   0  0  0  0  0  3  0  0  0  0  0  0
  181.7090  176.8060  136.2760 C   0  0  0  0  0  0  0  0  0  0  0  0
  182.4340  176.2920  137.3650 C   0  0  0  0  0  3  0  0  0  0  0  0
  180.9540  175.9370  135.4800 C   0  0  0  0  0  3  0  0  0  0  0  0
  1 28  1  0  0  0  0
  1  5  1  0  0  0  0
  2  3  2  0  0  0  0
  3  1  2  0  0  0  0
  5  4  1  1  0  0  0
  5  6  1  0  0  0  0
  6  7  2  0  0  0  0
  6  8  1  0  0  0  0
  8  9  1  6  0  0  0
  8 10  1  0  0  0  0
 10 11  1  0  0  0  0
 12 27  1  1  0  0  0
 12 19  1  0  0  0  0
 12 18  1  0  0  0  0
 13 17  2  0  0  0  0
 13 16  1  0  0  0  0
 14 24  1  1  0  0  0
 14 23  1  0  0  0  0
 15 23  1  0  0  0  0
 15 25  1  1  0  0  0
 18 21  1  0  0  0  0
 18 15  1  0  0  0  0
 19 14  1  0  0  0  0
 20 18  1  0  0  0  0
 22 16  2  0  0  0  0
 22 11  1  0  0  0  0
 23 13  1  1  0  0  0
 25 22  1  0  0  0  0
 26 27  1  0  0  0  0
 29 28  1  0  0  0  0
 30 29  1  0  0  0  0
 30 31  1  0  0  0  0
 32 34  2  0  0  0  0
 33 31  1  0  0  0  0
 34 33  1  0  0  0  0
 36 37  2  0  0  0  0
 37 35  1  0  0  0  0
 37 34  1  0  0  0  0
 38 50  1  1  0  0  0
 38  2  1  0  0  0  0
 40 39  1  1  0  0  0
 40 38  1  0  0  0  0
 41 40  1  0  0  0  0
 42 41  2  0  0  0  0
 43 42  1  0  0  0  0
 43 44  1  0  0  0  0
 45 47  1  0  0  0  0
 46 48  1  0  0  0  0
 46 45  1  0  0  0  0
 48 44  1  6  0  0  0
 48 45  1  0  0  0  0
 49 45  1  0  0  0  0
 49 47  1  0  0  0  0
 51 50  1  0  0  0  0
 52 51  1  0  0  0  0
 53 52  1  0  0  0  0
 54 53  1  0  0  0  0
 55 56  1  0  0  0  0
 55 54  1  0  0  0  0
 56 60  1  0  0  0  0
 57 58  1  0  0  0  0
 59 57  2  0  0  0  0
 60 61  1  0  0  0  0
 61 58  2  0  0  0  0
 62 59  1  0  0  0  0
 62 60  2  0  0  0  0
M  END
>  <MODEL>
7

>  <REMARK>
 VINA RESULT:      -5.6      2.843      7.076
  Name = 
  27 active torsions:
  status: ('A' for Active; 'I' for Inactive)
    1  A    between atoms: C_2  and  O_51
    2  A    between atoms: C_3  and  C_13
    3  A    between atoms: C_3  and  C_16
    4  A    between atoms: C_5  and  C_62
    5  A    between atoms: C_6  and  C_21
    6  A    between atoms: C_6  and  C_53
    7  A    between atoms: O_7  and  C_27
    8  A    between atoms: O_7  and  C_35
    9  A    between atoms: C_9  and  C_12
   10  A    between atoms: C_9  and  C_36
   11  A    between atoms: C_12  and  C_45
   12  A    between atoms: C_12  and  C_62
   13  A    between atoms: C_13  and  C_40
   14  A    between atoms: C_15  and  C_21
   15  A    between atoms: C_15  and  C_30
   16  A    between atoms: C_16  and  C_28
   17  A    between atoms: C_24  and  C_50
   18  A    between atoms: C_24  and  C_54
   19  A    between atoms: C_27  and  C_50
   20  A    between atoms: C_28  and  C_53
   21  A    between atoms: C_30  and  C_47
   22  A    between atoms: N_31  and  C_40
   23  A    between atoms: C_34  and  C_57
   24  A    between atoms: C_36  and  C_54
   25  A    between atoms: C_41  and  C_44
   26  A    between atoms: C_49  and  C_55
   27  A    between atoms: C_49  and  C_57
                            x       y       z     vdW  Elec       q    Type
                         _______ _______ _______ _____ _____    ______ ____

>  <TORSDO>
F 27

$$$$
=
 OpenBabel11042410083D

 62 66  0  0  1  0  0  0  0  0999 V2000
  189.3700  176.6020  138.1450 C   0  0  0  0  0  0  0  0  0  0  0  0
  189.2360  176.7540  140.7500 C   0  0  0  0  0  3  0  0  0  0  0  0
  189.2840  176.6730  139.4450 C   0  0  0  0  0  0  0  0  0  0  0  0
  187.9170  174.6780  137.5120 C   0  0  0  0  0  1  0  0  0  0  0  0
  188.1760  176.1680  137.3490 C   0  0  1  0  0  3  0  0  0  0  0  0
  186.9500  176.9680  137.6890 C   0  0  0  0  0  0  0  0  0  0  0  0
  186.9360  177.6920  138.6750 O   0  0  0  0  0  0  0  0  0  0  0  0
  185.7030  176.8280  136.8760 C   0  0  1  0  0  3  0  0  0  0  0  0
  184.8310  177.8860  137.1280 O   0  0  0  0  0  1  0  0  0  0  0  0
  186.0590  176.7800  135.3980 C   0  0  0  0  0  2  0  0  0  0  0  0
  185.7680  175.4130  134.7880 C   0  0  0  0  0  2  0  0  0  0  0  0
  180.0900  174.9610  137.4330 C   0  0  1  0  0  3  0  0  0  0  0  0
  183.5710  172.7200  136.3800 C   0  0  0  0  0  0  0  0  0  0  0  0
  181.2060  172.9080  137.3920 C   0  0  2  0  0  3  0  0  0  0  0  0
  182.4530  174.9010  136.6050 C   0  0  1  0  0  3  0  0  0  0  0  0
  184.7290  173.4150  135.7980 C   0  0  0  0  0  3  0  0  0  0  0  0
  183.7020  171.5410  136.8050 O   0  0  0  0  0  0  0  0  0  0  0  0
  181.1390  175.6780  136.5470 C   0  0  0  0  0  0  0  0  0  0  0  0
  179.9580  173.5630  137.2290 O   0  0  0  0  0  0  0  0  0  0  0  0
  181.3600  177.1080  137.0140 C   0  0  0  0  0  1  0  0  0  0  0  0
  180.6120  175.7250  135.1200 C   0  0  0  0  0  1  0  0  0  0  0  0
  184.6320  174.7110  135.4670 C   0  0  0  0  0  0  0  0  0  0  0  0
  182.2260  173.4100  136.3580 C   0  0  1  0  0  3  0  0  0  0  0  0
  181.0110  171.5320  137.2470 O   0  0  0  0  0  1  0  0  0  0  0  0
  183.4460  175.4170  135.7170 O   0  0  0  0  0  0  0  0  0  0  0  0
  179.2370  174.4020  139.4930 C   0  0  0  0  0  1  0  0  0  0  0  0
  179.9750  175.3620  138.7850 O   0  0  0  0  0  0  0  0  0  0  0  0
  190.6180  177.0750  137.4640 C   0  0  0  0  0  2  0  0  0  0  0  0
  191.4990  175.8990  137.0630 C   0  0  0  0  0  2  0  0  0  0  0  0
  192.8060  175.9350  137.8370 C   0  0  0  0  0  2  0  0  0  0  0  0
  193.8110  174.9740  137.2260 C   0  0  0  0  0  2  0  0  0  0  0  0
  195.3640  173.4730  139.0970 O   0  0  0  0  0  0  0  0  0  0  0  0
  195.1600  175.3080  137.6630 N   0  0  0  0  0  2  0  0  0  0  0  0
  195.8890  174.5040  138.5980 C   0  0  0  0  0  0  0  0  0  0  0  0
  198.0420  175.3460  138.1130 O   0  0  0  0  0  0  0  0  0  0  0  0
  197.6810  174.7490  140.2910 O   0  0  0  0  0  1  0  0  0  0  0  0
  197.2550  174.8840  138.9750 C   0  0  0  0  0  0  0  0  0  0  0  0
  189.8800  177.8670  141.5340 C   0  0  2  0  0  3  0  0  0  0  0  0
  191.6300  178.3130  143.1250 O   0  0  0  0  0  1  0  0  0  0  0  0
  191.1420  177.3520  142.2340 C   0  0  1  0  0  3  0  0  0  0  0  0
  190.9140  176.0430  142.9460 C   0  0  0  0  0  3  0  0  0  0  0  0
  191.0040  175.9080  144.2750 C   0  0  0  0  0  3  0  0  0  0  0  0
  191.3340  177.0470  145.1900 C   0  0  0  0  0  2  0  0  0  0  0  0
  190.7790  176.7730  146.5760 C   0  0  0  0  0  2  0  0  0  0  0  0
  188.6640  177.2660  147.7740 C   0  0  0  0  0  0  0  0  0  0  0  0
  188.5450  177.6680  146.2940 C   0  0  0  0  0  2  0  0  0  0  0  0
  188.7050  178.1910  148.8200 O   0  0  0  0  0  0  0  0  0  0  0  0
  189.8230  177.8800  146.9640 C   0  0  2  0  0  3  0  0  0  0  0  0
  187.5550  177.9850  148.2200 O   0  0  0  0  0  0  0  0  0  0  0  0
  188.9150  178.5750  142.4950 C   0  0  0  0  0  2  0  0  0  0  0  0
  187.4960  178.0710  142.3210 C   0  0  0  0  0  2  0  0  0  0  0  0
  187.0350  177.3940  143.6020 C   0  0  0  0  0  2  0  0  0  0  0  0
  185.5910  177.7490  143.9400 C   0  0  0  0  0  2  0  0  0  0  0  0
  185.4540  179.2130  144.3250 C   0  0  0  0  0  2  0  0  0  0  0  0
  184.0710  179.7200  143.9560 C   0  0  0  0  0  2  0  0  0  0  0  0
  183.2190  178.6260  143.6310 O   0  0  0  0  0  0  0  0  0  0  0  0
  179.2430  179.1040  142.3570 C   0  0  0  0  0  3  0  0  0  0  0  0
  179.5280  179.0510  143.7250 C   0  0  0  0  0  3  0  0  0  0  0  0
  180.2800  179.0080  141.4240 C   0  0  0  0  0  3  0  0  0  0  0  0
  181.8900  178.7910  143.2250 C   0  0  0  0  0  0  0  0  0  0  0  0
  180.8460  178.8960  144.1590 C   0  0  0  0  0  3  0  0  0  0  0  0
  181.6000  178.8540  141.8580 C   0  0  0  0  0  3  0  0  0  0  0  0
  1  3  2  0  0  0  0
  3  2  2  0  0  0  0
  5  4  1  1  0  0  0
  5  6  1  0  0  0  0
  5  1  1  0  0  0  0
  6  7  2  0  0  0  0
  8  9  1  6  0  0  0
  8  6  1  0  0  0  0
 10  8  1  0  0  0  0
 11 10  1  0  0  0  0
 11 22  1  0  0  0  0
 12 27  1  1  0  0  0
 13 17  2  0  0  0  0
 14 24  1  6  0  0  0
 15 25  1  6  0  0  0
 16 13  1  0  0  0  0
 18 15  1  0  0  0  0
 18 20  1  0  0  0  0
 18 12  1  0  0  0  0
 19 14  1  0  0  0  0
 19 12  1  0  0  0  0
 21 18  1  0  0  0  0
 22 25  1  0  0  0  0
 22 16  2  0  0  0  0
 23 13  1  1  0  0  0
 23 15  1  0  0  0  0
 23 14  1  0  0  0  0
 27 26  1  0  0  0  0
 28  1  1  0  0  0  0
 29 28  1  0  0  0  0
 29 30  1  0  0  0  0
 31 33  1  0  0  0  0
 31 30  1  0  0  0  0
 33 34  1  0  0  0  0
 34 37  1  0  0  0  0
 34 32  2  0  0  0  0
 35 37  2  0  0  0  0
 37 36  1  0  0  0  0
 38  2  1  1  0  0  0
 38 40  1  0  0  0  0
 38 50  1  0  0  0  0
 40 41  1  0  0  0  0
 40 39  1  1  0  0  0
 41 42  2  0  0  0  0
 42 43  1  0  0  0  0
 43 44  1  0  0  0  0
 45 49  1  0  0  0  0
 45 47  1  0  0  0  0
 46 48  1  0  0  0  0
 46 45  1  0  0  0  0
 48 44  1  6  0  0  0
 48 45  1  0  0  0  0
 49 47  1  0  0  0  0
 51 50  1  0  0  0  0
 51 52  1  0  0  0  0
 52 53  1  0  0  0  0
 53 54  1  0  0  0  0
 55 54  1  0  0  0  0
 56 55  1  0  0  0  0
 57 58  1  0  0  0  0
 58 61  2  0  0  0  0
 59 62  1  0  0  0  0
 59 57  2  0  0  0  0
 60 56  1  0  0  0  0
 60 61  1  0  0  0  0
 62 60  2  0  0  0  0
M  END
>  <MODEL>
8

>  <REMARK>
 VINA RESULT:      -5.6      2.913     10.199
  Name = 
  27 active torsions:
  status: ('A' for Active; 'I' for Inactive)
    1  A    between atoms: C_2  and  O_51
    2  A    between atoms: C_3  and  C_13
    3  A    between atoms: C_3  and  C_16
    4  A    between atoms: C_5  and  C_62
    5  A    between atoms: C_6  and  C_21
    6  A    between atoms: C_6  and  C_53
    7  A    between atoms: O_7  and  C_27
    8  A    between atoms: O_7  and  C_35
    9  A    between atoms: C_9  and  C_12
   10  A    between atoms: C_9  and  C_36
   11  A    between atoms: C_12  and  C_45
   12  A    between atoms: C_12  and  C_62
   13  A    between atoms: C_13  and  C_40
   14  A    between atoms: C_15  and  C_21
   15  A    between atoms: C_15  and  C_30
   16  A    between atoms: C_16  and  C_28
   17  A    between atoms: C_24  and  C_50
   18  A    between atoms: C_24  and  C_54
   19  A    between atoms: C_27  and  C_50
   20  A    between atoms: C_28  and  C_53
   21  A    between atoms: C_30  and  C_47
   22  A    between atoms: N_31  and  C_40
   23  A    between atoms: C_34  and  C_57
   24  A    between atoms: C_36  and  C_54
   25  A    between atoms: C_41  and  C_44
   26  A    between atoms: C_49  and  C_55
   27  A    between atoms: C_49  and  C_57
                            x       y       z     vdW  Elec       q    Type
                         _______ _______ _______ _____ _____    ______ ____

>  <TORSDO>
F 27

$$$$
=
 OpenBabel11042410083D

 62 66  0  0  1  0  0  0  0  0999 V2000
  190.0120  177.2310  138.7070 C   0  0  0  0  0  0  0  0  0  0  0  0
  190.1520  176.3820  136.2400 C   0  0  0  0  0  3  0  0  0  0  0  0
  190.0700  176.8220  137.4690 C   0  0  0  0  0  0  0  0  0  0  0  0
  189.1080  179.3720  137.8040 C   0  0  0  0  0  1  0  0  0  0  0  0
  189.2670  178.4900  139.0340 C   0  0  1  0  0  3  0  0  0  0  0  0
  187.9340  178.2090  139.6700 C   0  0  0  0  0  0  0  0  0  0  0  0
  186.9660  177.9210  138.9800 O   0  0  0  0  0  0  0  0  0  0  0  0
  187.7530  178.3570  141.1460 C   0  0  1  0  0  3  0  0  0  0  0  0
  188.7610  179.1540  141.6870 O   0  0  0  0  0  1  0  0  0  0  0  0
  186.3900  178.9660  141.4370 C   0  0  0  0  0  2  0  0  0  0  0  0
  185.5220  178.0370  142.2790 C   0  0  0  0  0  2  0  0  0  0  0  0
  180.1330  177.8090  139.0610 C   0  0  1  0  0  3  0  0  0  0  0  0
  181.8580  179.0070  142.7810 C   0  0  0  0  0  0  0  0  0  0  0  0
  179.8510  178.7480  141.1820 C   0  0  2  0  0  3  0  0  0  0  0  0
  182.1630  178.1940  140.4780 C   0  0  1  0  0  3  0  0  0  0  0  0
  183.3100  178.8800  142.9780 C   0  0  0  0  0  3  0  0  0  0  0  0
  181.1790  179.6970  143.5860 O   0  0  0  0  0  0  0  0  0  0  0  0
  181.5940  177.3660  139.3270 C   0  0  0  0  0  0  0  0  0  0  0  0
  179.2930  177.8880  140.2020 O   0  0  0  0  0  0  0  0  0  0  0  0
  182.4520  177.5460  138.0840 C   0  0  0  0  0  1  0  0  0  0  0  0
  181.5920  175.8870  139.6870 C   0  0  0  0  0  1  0  0  0  0  0  0
  184.0570  178.2580  142.0550 C   0  0  0  0  0  0  0  0  0  0  0  0
  181.2060  178.2140  141.6710 C   0  0  1  0  0  3  0  0  0  0  0  0
  178.9570  178.8450  142.2520 O   0  0  0  0  0  1  0  0  0  0  0  0
  183.4670  177.7700  140.8800 O   0  0  0  0  0  0  0  0  0  0  0  0
  179.6330  178.2420  136.8600 C   0  0  0  0  0  1  0  0  0  0  0  0
  179.9100  178.8270  138.1050 O   0  0  0  0  0  0  0  0  0  0  0  0
  190.5810  176.3700  139.7930 C   0  0  0  0  0  2  0  0  0  0  0  0
  191.0890  177.2200  140.9510 C   0  0  0  0  0  2  0  0  0  0  0  0
  190.8800  176.4910  142.2680 C   0  0  0  0  0  2  0  0  0  0  0  0
  191.6350  177.1900  143.3860 C   0  0  0  0  0  2  0  0  0  0  0  0
  191.9740  175.9910  145.9570 O   0  0  0  0  0  0  0  0  0  0  0  0
  190.7620  177.3940  144.5340 N   0  0  0  0  0  2  0  0  0  0  0  0
  190.9960  176.7700  145.8020 C   0  0  0  0  0  0  0  0  0  0  0  0
  190.5280  177.0310  148.1030 O   0  0  0  0  0  1  0  0  0  0  0  0
  188.7510  177.3230  146.6920 O   0  0  0  0  0  0  0  0  0  0  0  0
  190.0910  177.0400  146.9250 C   0  0  0  0  0  0  0  0  0  0  0  0
  190.0460  174.9250  135.8730 C   0  0  2  0  0  3  0  0  0  0  0  0
  191.3590  172.9170  135.6880 O   0  0  0  0  0  1  0  0  0  0  0  0
  191.4450  174.3100  135.7660 C   0  0  1  0  0  3  0  0  0  0  0  0
  192.2270  174.8550  134.5980 C   0  0  0  0  0  3  0  0  0  0  0  0
  193.3630  175.5500  134.7380 C   0  0  0  0  0  3  0  0  0  0  0  0
  193.9760  175.8510  136.0720 C   0  0  0  0  0  2  0  0  0  0  0  0
  195.4010  175.3310  136.1150 C   0  0  0  0  0  2  0  0  0  0  0  0
  196.5630  173.1430  136.2400 C   0  0  0  0  0  0  0  0  0  0  0  0
  196.7090  173.7440  134.8320 C   0  0  0  0  0  2  0  0  0  0  0  0
  195.7940  172.0090  136.5150 O   0  0  0  0  0  0  0  0  0  0  0  0
  195.4450  173.9340  135.5330 C   0  0  2  0  0  3  0  0  0  0  0  0
  196.9400  171.8460  135.8950 O   0  0  0  0  0  0  0  0  0  0  0  0
  189.1880  174.6690  134.6270 C   0  0  0  0  0  2  0  0  0  0  0  0
  188.0480  173.7160  134.9280 C   0  0  0  0  0  2  0  0  0  0  0  0
  186.7510  174.4980  135.0580 C   0  0  0  0  0  2  0  0  0  0  0  0
  185.5850  173.5940  135.4440 C   0  0  0  0  0  2  0  0  0  0  0  0
  185.8890  172.8010  136.7050 C   0  0  0  0  0  2  0  0  0  0  0  0
  184.6730  172.7850  137.6150 C   0  0  0  0  0  2  0  0  0  0  0  0
  183.5840  172.1370  136.9650 O   0  0  0  0  0  0  0  0  0  0  0  0
  179.6780  173.6850  136.9270 C   0  0  0  0  0  3  0  0  0  0  0  0
  180.7340  174.4660  136.4480 C   0  0  0  0  0  3  0  0  0  0  0  0
  179.9240  172.3940  137.4040 C   0  0  0  0  0  3  0  0  0  0  0  0
  182.2890  172.6660  136.9390 C   0  0  0  0  0  0  0  0  0  0  0  0
  182.0350  173.9600  136.4530 C   0  0  0  0  0  3  0  0  0  0  0  0
  181.2270  171.8860  137.4080 C   0  0  0  0  0  3  0  0  0  0  0  0
  1  5  1  0  0  0  0
  1 28  1  0  0  0  0
  2  3  2  0  0  0  0
  3  1  2  0  0  0  0
  5  4  1  6  0  0  0
  5  6  1  0  0  0  0
  6  8  1  0  0  0  0
  7  6  2  0  0  0  0
  8 10  1  0  0  0  0
  8  9  1  6  0  0  0
 10 11  1  0  0  0  0
 12 27  1  1  0  0  0
 12 18  1  0  0  0  0
 12 19  1  0  0  0  0
 13 16  1  0  0  0  0
 13 17  2  0  0  0  0
 14 23  1  0  0  0  0
 14 24  1  1  0  0  0
 15 25  1  1  0  0  0
 15 23  1  0  0  0  0
 18 21  1  0  0  0  0
 18 15  1  0  0  0  0
 19 14  1  0  0  0  0
 20 18  1  0  0  0  0
 22 11  1  0  0  0  0
 22 16  2  0  0  0  0
 23 13  1  1  0  0  0
 25 22  1  0  0  0  0
 26 27  1  0  0  0  0
 28 29  1  0  0  0  0
 29 30  1  0  0  0  0
 30 31  1  0  0  0  0
 31 33  1  0  0  0  0
 33 34  1  0  0  0  0
 34 32  2  0  0  0  0
 34 37  1  0  0  0  0
 36 37  2  0  0  0  0
 37 35  1  0  0  0  0
 38 50  1  6  0  0  0
 38  2  1  0  0  0  0
 40 39  1  6  0  0  0
 40 38  1  0  0  0  0
 41 42  2  0  0  0  0
 41 40  1  0  0  0  0
 42 43  1  0  0  0  0
 43 44  1  0  0  0  0
 45 47  1  0  0  0  0
 46 48  1  0  0  0  0
 46 45  1  0  0  0  0
 48 44  1  1  0  0  0
 48 45  1  0  0  0  0
 49 45  1  0  0  0  0
 49 47  1  0  0  0  0
 50 51  1  0  0  0  0
 51 52  1  0  0  0  0
 52 53  1  0  0  0  0
 53 54  1  0  0  0  0
 54 55  1  0  0  0  0
 56 55  1  0  0  0  0
 57 59  1  0  0  0  0
 58 61  1  0  0  0  0
 58 57  2  0  0  0  0
 59 62  2  0  0  0  0
 60 56  1  0  0  0  0
 60 62  1  0  0  0  0
 61 60  2  0  0  0  0
M  END
>  <MODEL>
9

>  <REMARK>
 VINA RESULT:      -5.6      2.697      9.801
  Name = 
  27 active torsions:
  status: ('A' for Active; 'I' for Inactive)
    1  A    between atoms: C_2  and  O_51
    2  A    between atoms: C_3  and  C_13
    3  A    between atoms: C_3  and  C_16
    4  A    between atoms: C_5  and  C_62
    5  A    between atoms: C_6  and  C_21
    6  A    between atoms: C_6  and  C_53
    7  A    between atoms: O_7  and  C_27
    8  A    between atoms: O_7  and  C_35
    9  A    between atoms: C_9  and  C_12
   10  A    between atoms: C_9  and  C_36
   11  A    between atoms: C_12  and  C_45
   12  A    between atoms: C_12  and  C_62
   13  A    between atoms: C_13  and  C_40
   14  A    between atoms: C_15  and  C_21
   15  A    between atoms: C_15  and  C_30
   16  A    between atoms: C_16  and  C_28
   17  A    between atoms: C_24  and  C_50
   18  A    between atoms: C_24  and  C_54
   19  A    between atoms: C_27  and  C_50
   20  A    between atoms: C_28  and  C_53
   21  A    between atoms: C_30  and  C_47
   22  A    between atoms: N_31  and  C_40
   23  A    between atoms: C_34  and  C_57
   24  A    between atoms: C_36  and  C_54
   25  A    between atoms: C_41  and  C_44
   26  A    between atoms: C_49  and  C_55
   27  A    between atoms: C_49  and  C_57
                            x       y       z     vdW  Elec       q    Type
                         _______ _______ _______ _____ _____    ______ ____

>  <TORSDO>
F 27

$$$$
