=
 OpenBabel11042412153D

 34 40  0  0  1  0  0  0  0  0999 V2000
  187.9260  178.2170  136.5060 C   0  0  0  0  0  3  0  0  0  0  0  0
  184.7720  179.3390  141.6300 C   0  0  0  0  0  3  0  0  0  0  0  0
  185.2030  178.2030  146.5540 C   0  0  2  0  0  3  0  0  0  0  0  0
  189.3910  177.8700  138.4050 C   0  0  0  0  0  0  0  0  0  0  0  0
  188.7830  177.9890  140.5170 N   0  0  0  0  0  0  0  0  0  0  0  0
  190.4150  177.3020  139.1690 C   0  0  1  0  0  3  0  0  0  0  0  0
  186.7970  178.0880  141.9880 C   0  0  0  0  0  0  0  0  0  0  0  0
  185.9380  178.7860  141.0950 C   0  0  0  0  0  0  0  0  0  0  0  0
  189.0690  177.1060  142.6110 C   0  0  2  0  0  0  0  0  0  0  0  0
  188.3910  176.1580  143.5880 C   0  0  0  0  0  2  0  0  0  0  0  0
  186.0640  178.8240  139.6480 N   0  0  0  0  0  0  0  0  0  0  0  0
  189.9750  177.4090  140.4850 C   0  0  2  0  0  3  0  0  0  0  0  0
  191.5420  176.4660  138.6700 C   0  0  0  0  0  1  0  0  0  0  0  0
  185.2160  178.4370  143.7860 C   0  0  0  0  0  0  0  0  0  0  0  0
  187.1640  176.8650  144.2310 C   0  0  0  0  0  2  0  0  0  0  0  0
  188.4060  178.2500  139.2810 C   0  0  0  0  0  0  0  0  0  0  0  0
  186.8650  178.5980  137.4160 N   0  0  0  0  0  2  0  0  0  0  0  0
  184.4550  179.1800  142.9410 N   0  0  0  0  0  0  0  0  0  0  0  0
  189.1420  177.8460  136.9560 C   0  0  0  0  0  3  0  0  0  0  0  0
  187.0590  178.5700  138.8400 C   0  0  0  0  0  0  0  0  0  0  0  0
  188.0230  177.3820  141.5460 C   0  0  2  0  0  3  0  0  0  0  0  0
  184.8080  178.2930  145.1450 N   0  0  0  0  0  0  0  0  0  0  0  0
  184.0320  178.6780  146.2480 O   0  0  0  0  0  0  0  0  0  0  0  0
  186.3810  177.8170  143.3150 C   0  0  0  0  0  0  0  0  0  0  0  0
  190.2370  176.5920  141.7260 C   0  0  0  0  0  2  0  0  0  0  0  0
  189.5210  178.3960  143.3320 C   0  0  0  0  0  2  0  0  0  0  0  0
  189.9820  178.1150  144.6500 O   0  0  0  0  0  0  0  0  0  0  0  0
  191.6670  176.7040  145.8170 C   0  0  0  0  0  1  0  0  0  0  0  0
  191.3220  177.8440  144.9290 C   0  0  0  0  0  0  0  0  0  0  0  0
  192.2420  178.5570  144.4450 O   0  0  0  0  0  0  0  0  0  0  0  0
  186.1330  179.3520  146.8970 C   0  0  0  0  0  2  0  0  0  0  0  0
  187.1560  178.9150  147.9290 C   0  0  0  0  0  2  0  0  0  0  0  0
  187.9110  177.8530  147.4310 O   0  0  0  0  0  0  0  0  0  0  0  0
  189.0920  177.8830  148.1730 C   0  0  0  0  0  1  0  0  0  0  0  0
  1 19  2  0  0  0  0
  1 17  1  0  0  0  0
  2 18  1  0  0  0  0
  3 31  1  6  0  0  0
  4  6  1  0  0  0  0
  4 16  2  0  0  0  0
  5 21  1  0  0  0  0
  6 13  1  6  0  0  0
  6 12  1  0  0  0  0
  7 24  2  0  0  0  0
  8  2  2  0  0  0  0
  8  7  1  0  0  0  0
  9 26  1  1  0  0  0
  9 10  1  0  0  0  0
 10 15  1  0  0  0  0
 11  8  1  0  0  0  0
 12  5  1  0  0  0  0
 12 25  1  6  0  0  0
 14 22  1  0  0  0  0
 16  5  1  0  0  0  0
 17 20  1  0  0  0  0
 18 14  2  0  0  0  0
 19  4  1  0  0  0  0
 20 16  1  0  0  0  0
 20 11  2  0  0  0  0
 21  7  1  1  0  0  0
 21  9  1  0  0  0  0
 22 23  1  0  0  0  0
 22  3  1  0  0  0  0
 23  3  1  0  0  0  0
 24 14  1  0  0  0  0
 24 15  1  0  0  0  0
 25  9  1  0  0  0  0
 26 27  1  0  0  0  0
 27 29  1  0  0  0  0
 29 28  1  0  0  0  0
 30 29  2  0  0  0  0
 31 32  1  0  0  0  0
 33 32  1  0  0  0  0
 33 34  1  0  0  0  0
M  END
>  <MODEL>
1

>  <REMARK>
 VINA RESULT:      -9.3      0.000      0.000
  Name = 
  6 active torsions:
  status: ('A' for Active; 'I' for Inactive)
    1  A    between atoms: C_4  and  C_32
    2  A    between atoms: C_10  and  C_11
    3  A    between atoms: C_11  and  O_12
    4  A    between atoms: O_12  and  C_28
    5  A    between atoms: O_13  and  C_25
    6  A    between atoms: C_25  and  C_32
                            x       y       z     vdW  Elec       q    Type
                         _______ _______ _______ _____ _____    ______ ____

>  <TORSDO>
F 6

$$$$
=
 OpenBabel11042412153D

 34 40  0  0  1  0  0  0  0  0999 V2000
  184.5830  178.9170  146.1620 C   0  0  0  0  0  3  0  0  0  0  0  0
  186.8620  177.9670  140.5610 C   0  0  0  0  0  3  0  0  0  0  0  0
  191.4380  177.1840  138.5220 C   0  0  2  0  0  3  0  0  0  0  0  0
  186.7770  177.9100  146.3820 C   0  0  0  0  0  0  0  0  0  0  0  0
  188.1420  177.4620  144.7150 N   0  0  0  0  0  0  0  0  0  0  0  0
  188.0350  177.6440  146.9310 C   0  0  1  0  0  3  0  0  0  0  0  0
  188.5160  177.8970  142.3090 C   0  0  0  0  0  0  0  0  0  0  0  0
  187.1500  178.0160  141.9270 C   0  0  0  0  0  0  0  0  0  0  0  0
  190.3280  177.4070  144.0360 C   0  0  2  0  0  0  0  0  0  0  0  0
  191.3260  178.2140  143.2190 C   0  0  0  0  0  2  0  0  0  0  0  0
  186.0480  178.3660  142.8070 N   0  0  0  0  0  0  0  0  0  0  0  0
  188.8470  177.3680  145.8350 C   0  0  2  0  0  3  0  0  0  0  0  0
  188.4810  177.9330  148.3210 C   0  0  0  0  0  1  0  0  0  0  0  0
  189.1630  177.8310  139.9790 C   0  0  0  0  0  0  0  0  0  0  0  0
  191.0200  178.0360  141.7040 C   0  0  0  0  0  2  0  0  0  0  0  0
  186.9080  177.8090  145.0210 C   0  0  0  0  0  0  0  0  0  0  0  0
  184.7130  178.8430  144.7210 N   0  0  0  0  0  0  0  0  0  0  0  0
  187.8490  177.8510  139.6370 N   0  0  0  0  0  0  0  0  0  0  0  0
  185.5660  178.4930  146.9820 C   0  0  0  0  0  2  0  0  0  0  0  0
  185.9100  178.3370  144.1060 C   0  0  0  0  0  0  0  0  0  0  0  0
  188.9760  178.0140  143.7130 C   0  0  2  0  0  3  0  0  0  0  0  0
  190.1490  177.7320  138.9520 N   0  0  0  0  0  0  0  0  0  0  0  0
  190.5310  177.4580  137.6320 O   0  0  0  0  0  0  0  0  0  0  0  0
  189.5370  177.9160  141.3280 C   0  0  0  0  0  0  0  0  0  0  0  0
  190.3250  177.5300  145.5850 C   0  0  0  0  0  2  0  0  0  0  0  0
  190.4010  175.9110  143.6570 C   0  0  0  0  0  2  0  0  0  0  0  0
  191.7330  175.4170  143.7620 O   0  0  0  0  0  0  0  0  0  0  0  0
  192.2380  175.1620  146.1850 C   0  0  0  0  0  1  0  0  0  0  0  0
  192.1430  174.5970  144.8150 C   0  0  0  0  0  0  0  0  0  0  0  0
  192.4410  173.3890  144.6170 O   0  0  0  0  0  0  0  0  0  0  0  0
  191.4620  175.6860  138.7650 C   0  0  0  0  0  2  0  0  0  0  0  0
  191.7740  174.9460  137.4770 C   0  0  0  0  0  2  0  0  0  0  0  0
  191.0800  173.7370  137.4430 O   0  0  0  0  0  0  0  0  0  0  0  0
  189.7780  174.0900  137.0890 C   0  0  0  0  0  1  0  0  0  0  0  0
  1 19  1  0  0  0  0
  2  8  1  0  0  0  0
  3 31  1  1  0  0  0
  3 22  1  0  0  0  0
  4  6  1  0  0  0  0
  4 19  1  0  0  0  0
  5 16  1  0  0  0  0
  5 12  1  0  0  0  0
  6 13  1  6  0  0  0
  8  7  2  0  0  0  0
  8 11  1  0  0  0  0
  9 26  1  6  0  0  0
  9 25  1  0  0  0  0
 10  9  1  0  0  0  0
 11 20  2  0  0  0  0
 12 25  1  6  0  0  0
 12  6  1  0  0  0  0
 14 24  2  0  0  0  0
 15 10  1  0  0  0  0
 16  4  2  0  0  0  0
 17  1  2  0  0  0  0
 18 14  1  0  0  0  0
 18  2  2  0  0  0  0
 20 17  1  0  0  0  0
 20 16  1  0  0  0  0
 21  7  1  6  0  0  0
 21  9  1  0  0  0  0
 21  5  1  0  0  0  0
 22 14  1  0  0  0  0
 23  3  1  0  0  0  0
 23 22  1  0  0  0  0
 24 15  1  0  0  0  0
 24  7  1  0  0  0  0
 26 27  1  0  0  0  0
 27 29  1  0  0  0  0
 29 28  1  0  0  0  0
 30 29  2  0  0  0  0
 32 31  1  0  0  0  0
 33 32  1  0  0  0  0
 34 33  1  0  0  0  0
M  END
>  <MODEL>
2

>  <REMARK>
 VINA RESULT:      -8.0      2.659      6.968
  Name = 
  6 active torsions:
  status: ('A' for Active; 'I' for Inactive)
    1  A    between atoms: C_4  and  C_32
    2  A    between atoms: C_10  and  C_11
    3  A    between atoms: C_11  and  O_12
    4  A    between atoms: O_12  and  C_28
    5  A    between atoms: O_13  and  C_25
    6  A    between atoms: C_25  and  C_32
                            x       y       z     vdW  Elec       q    Type
                         _______ _______ _______ _____ _____    ______ ____

>  <TORSDO>
F 6

$$$$
=
 OpenBabel11042412153D

 34 40  0  0  1  0  0  0  0  0999 V2000
  183.0330  179.3270  139.4500 C   0  0  0  0  0  3  0  0  0  0  0  0
  184.5830  178.8880  145.3560 C   0  0  0  0  0  3  0  0  0  0  0  0
  188.4550  176.9900  148.0240 C   0  0  2  0  0  3  0  0  0  0  0  0
  185.4200  178.9300  139.5940 C   0  0  0  0  0  0  0  0  0  0  0  0
  186.5350  178.5500  141.4540 N   0  0  0  0  0  0  0  0  0  0  0  0
  186.6790  178.4400  139.2350 C   0  0  1  0  0  3  0  0  0  0  0  0
  186.2370  178.0030  143.8470 C   0  0  0  0  0  0  0  0  0  0  0  0
  184.9970  178.6730  144.0390 C   0  0  0  0  0  0  0  0  0  0  0  0
  188.2520  177.3770  142.4120 C   0  0  2  0  0  0  0  0  0  0  0  0
  188.4970  176.1580  143.2870 C   0  0  0  0  0  2  0  0  0  0  0  0
  184.0330  178.9930  143.0000 N   0  0  0  0  0  0  0  0  0  0  0  0
  187.3320  178.2240  140.4450 C   0  0  2  0  0  3  0  0  0  0  0  0
  187.0930  177.9390  137.8960 C   0  0  0  0  0  1  0  0  0  0  0  0
  186.4540  177.7160  146.2390 C   0  0  0  0  0  0  0  0  0  0  0  0
  188.1180  176.4900  144.7580 C   0  0  0  0  0  2  0  0  0  0  0  0
  185.3780  178.9520  140.9650 C   0  0  0  0  0  0  0  0  0  0  0  0
  182.9640  179.3290  140.8980 N   0  0  0  0  0  2  0  0  0  0  0  0
  185.3170  178.4390  146.4060 N   0  0  0  0  0  0  0  0  0  0  0  0
  184.1960  179.1200  138.8000 C   0  0  0  0  0  3  0  0  0  0  0  0
  184.1320  179.0830  141.6990 C   0  0  0  0  0  0  0  0  0  0  0  0
  186.7600  177.6350  142.5100 C   0  0  2  0  0  3  0  0  0  0  0  0
  187.1610  177.2550  147.3900 N   0  0  0  0  0  0  0  0  0  0  0  0
  187.4270  177.2800  148.7660 O   0  0  0  0  0  0  0  0  0  0  0  0
  186.9150  177.4240  144.9480 C   0  0  0  0  0  0  0  0  0  0  0  0
  188.4140  177.2630  140.8710 C   0  0  0  0  0  2  0  0  0  0  0  0
  189.0850  178.5790  142.9120 C   0  0  0  0  0  2  0  0  0  0  0  0
  190.4660  178.4130  142.6020 O   0  0  0  0  0  0  0  0  0  0  0  0
  191.8040  176.7510  143.8820 C   0  0  0  0  0  1  0  0  0  0  0  0
  191.4240  178.1550  143.5840 C   0  0  0  0  0  0  0  0  0  0  0  0
  191.9620  179.0970  144.2270 O   0  0  0  0  0  0  0  0  0  0  0  0
  189.3430  178.2150  147.9020 C   0  0  0  0  0  2  0  0  0  0  0  0
  190.7500  177.8120  147.5000 C   0  0  0  0  0  2  0  0  0  0  0  0
  190.7920  176.4460  147.2200 O   0  0  0  0  0  0  0  0  0  0  0  0
  192.0580  176.0400  147.6400 C   0  0  0  0  0  1  0  0  0  0  0  0
  1 17  1  0  0  0  0
  2 18  1  0  0  0  0
  3 31  1  6  0  0  0
  3 23  1  0  0  0  0
  4 16  2  0  0  0  0
  5 21  1  0  0  0  0
  6 13  1  1  0  0  0
  6  4  1  0  0  0  0
  6 12  1  0  0  0  0
  7  8  1  0  0  0  0
  7 24  2  0  0  0  0
  8  2  2  0  0  0  0
  9 21  1  0  0  0  0
  9 26  1  1  0  0  0
  9 10  1  0  0  0  0
 10 15  1  0  0  0  0
 11  8  1  0  0  0  0
 12 25  1  1  0  0  0
 12  5  1  0  0  0  0
 14 18  2  0  0  0  0
 14 22  1  0  0  0  0
 15 24  1  0  0  0  0
 16  5  1  0  0  0  0
 16 20  1  0  0  0  0
 17 20  1  0  0  0  0
 19  1  2  0  0  0  0
 19  4  1  0  0  0  0
 20 11  2  0  0  0  0
 21  7  1  1  0  0  0
 22  3  1  0  0  0  0
 22 23  1  0  0  0  0
 24 14  1  0  0  0  0
 25  9  1  0  0  0  0
 27 26  1  0  0  0  0
 27 29  1  0  0  0  0
 29 28  1  0  0  0  0
 29 30  2  0  0  0  0
 32 31  1  0  0  0  0
 33 32  1  0  0  0  0
 33 34  1  0  0  0  0
M  END
>  <MODEL>
3

>  <REMARK>
 VINA RESULT:      -7.9      1.889      3.316
  Name = 
  6 active torsions:
  status: ('A' for Active; 'I' for Inactive)
    1  A    between atoms: C_4  and  C_32
    2  A    between atoms: C_10  and  C_11
    3  A    between atoms: C_11  and  O_12
    4  A    between atoms: O_12  and  C_28
    5  A    between atoms: O_13  and  C_25
    6  A    between atoms: C_25  and  C_32
                            x       y       z     vdW  Elec       q    Type
                         _______ _______ _______ _____ _____    ______ ____

>  <TORSDO>
F 6

$$$$
=
 OpenBabel11042412153D

 34 40  0  0  1  0  0  0  0  0999 V2000
  181.8470  179.2460  143.6670 C   0  0  0  0  0  3  0  0  0  0  0  0
  185.1920  178.1900  138.6510 C   0  0  0  0  0  3  0  0  0  0  0  0
  190.1100  177.6420  137.5410 C   0  0  2  0  0  3  0  0  0  0  0  0
  184.0190  178.4120  144.3490 C   0  0  0  0  0  0  0  0  0  0  0  0
  185.6980  177.9840  142.9920 N   0  0  0  0  0  0  0  0  0  0  0  0
  185.1650  178.2650  145.1350 C   0  0  1  0  0  3  0  0  0  0  0  0
  186.4890  178.3260  140.6740 C   0  0  0  0  0  0  0  0  0  0  0  0
  185.2150  178.3270  140.0400 C   0  0  0  0  0  0  0  0  0  0  0  0
  187.9720  178.0530  142.7320 C   0  0  2  0  0  0  0  0  0  0  0  0
  189.0530  178.8890  142.0650 C   0  0  0  0  0  2  0  0  0  0  0  0
  183.9480  178.6390  140.6790 N   0  0  0  0  0  0  0  0  0  0  0  0
  186.1840  177.9950  144.2270 C   0  0  2  0  0  3  0  0  0  0  0  0
  185.3230  178.6530  146.5630 C   0  0  0  0  0  1  0  0  0  0  0  0
  187.5660  178.1930  138.5120 C   0  0  0  0  0  0  0  0  0  0  0  0
  189.0490  178.6160  140.5340 C   0  0  0  0  0  2  0  0  0  0  0  0
  184.4090  178.2550  143.0430 C   0  0  0  0  0  0  0  0  0  0  0  0
  182.2500  179.1110  142.2810 N   0  0  0  0  0  0  0  0  0  0  0  0
  186.3410  178.1010  137.9330 N   0  0  0  0  0  0  0  0  0  0  0  0
  182.6830  178.9340  144.6780 C   0  0  0  0  0  2  0  0  0  0  0  0
  183.5700  178.6630  141.9300 C   0  0  0  0  0  0  0  0  0  0  0  0
  186.6700  178.5450  142.1290 C   0  0  2  0  0  3  0  0  0  0  0  0
  188.7310  178.1160  137.6920 N   0  0  0  0  0  0  0  0  0  0  0  0
  189.3710  177.8050  136.4840 O   0  0  0  0  0  0  0  0  0  0  0  0
  187.6740  178.3710  139.8980 C   0  0  0  0  0  0  0  0  0  0  0  0
  187.6700  178.2520  144.2430 C   0  0  0  0  0  2  0  0  0  0  0  0
  188.2080  176.5500  142.4660 C   0  0  0  0  0  2  0  0  0  0  0  0
  189.2190  176.0270  143.3210 O   0  0  0  0  0  0  0  0  0  0  0  0
  191.6140  175.8650  143.9750 C   0  0  0  0  0  1  0  0  0  0  0  0
  190.5580  175.9540  142.9350 C   0  0  0  0  0  0  0  0  0  0  0  0
  190.8830  175.9720  141.7170 O   0  0  0  0  0  0  0  0  0  0  0  0
  190.1800  176.1630  137.8760 C   0  0  0  0  0  2  0  0  0  0  0  0
  191.6260  175.7170  138.0020 C   0  0  0  0  0  2  0  0  0  0  0  0
  191.6990  174.3250  137.9660 O   0  0  0  0  0  0  0  0  0  0  0  0
  191.2120  173.9800  136.7060 C   0  0  0  0  0  1  0  0  0  0  0  0
  1 19  1  0  0  0  0
  2  8  1  0  0  0  0
  3 22  1  0  0  0  0
  3 31  1  1  0  0  0
  4 19  1  0  0  0  0
  4  6  1  0  0  0  0
  5 16  1  0  0  0  0
  5 12  1  0  0  0  0
  6 13  1  6  0  0  0
  8  7  2  0  0  0  0
  8 11  1  0  0  0  0
  9 26  1  6  0  0  0
  9 25  1  0  0  0  0
 10  9  1  0  0  0  0
 11 20  2  0  0  0  0
 12 25  1  6  0  0  0
 12  6  1  0  0  0  0
 14 24  2  0  0  0  0
 15 10  1  0  0  0  0
 16  4  2  0  0  0  0
 17  1  2  0  0  0  0
 18 14  1  0  0  0  0
 18  2  2  0  0  0  0
 20 17  1  0  0  0  0
 20 16  1  0  0  0  0
 21  7  1  6  0  0  0
 21  9  1  0  0  0  0
 21  5  1  0  0  0  0
 22 14  1  0  0  0  0
 23  3  1  0  0  0  0
 23 22  1  0  0  0  0
 24 15  1  0  0  0  0
 24  7  1  0  0  0  0
 26 27  1  0  0  0  0
 29 27  1  0  0  0  0
 29 28  1  0  0  0  0
 30 29  2  0  0  0  0
 31 32  1  0  0  0  0
 33 32  1  0  0  0  0
 34 33  1  0  0  0  0
M  END
>  <MODEL>
4

>  <REMARK>
 VINA RESULT:      -7.4      2.613      6.778
  Name = 
  6 active torsions:
  status: ('A' for Active; 'I' for Inactive)
    1  A    between atoms: C_4  and  C_32
    2  A    between atoms: C_10  and  C_11
    3  A    between atoms: C_11  and  O_12
    4  A    between atoms: O_12  and  C_28
    5  A    between atoms: O_13  and  C_25
    6  A    between atoms: C_25  and  C_32
                            x       y       z     vdW  Elec       q    Type
                         _______ _______ _______ _____ _____    ______ ____

>  <TORSDO>
F 6

$$$$
=
 OpenBabel11042412153D

 34 40  0  0  1  0  0  0  0  0999 V2000
  187.7110  177.7440  148.4680 C   0  0  0  0  0  3  0  0  0  0  0  0
  184.3740  178.2930  143.3660 C   0  0  0  0  0  3  0  0  0  0  0  0
  185.2770  178.8450  138.4060 C   0  0  2  0  0  3  0  0  0  0  0  0
  189.1090  177.1870  146.5680 C   0  0  0  0  0  0  0  0  0  0  0  0
  188.5020  177.3340  144.4570 N   0  0  0  0  0  0  0  0  0  0  0  0
  190.2670  177.0930  145.7910 C   0  0  1  0  0  3  0  0  0  0  0  0
  186.7500  178.2570  142.9760 C   0  0  0  0  0  0  0  0  0  0  0  0
  185.6620  178.1580  143.8880 C   0  0  0  0  0  0  0  0  0  0  0  0
  189.1860  177.8520  142.3340 C   0  0  2  0  0  0  0  0  0  0  0  0
  189.1050  178.9790  141.3160 C   0  0  0  0  0  2  0  0  0  0  0  0
  185.7690  178.1110  145.3370 N   0  0  0  0  0  0  0  0  0  0  0  0
  189.8200  177.1900  144.4770 C   0  0  2  0  0  3  0  0  0  0  0  0
  191.6730  177.2160  146.2660 C   0  0  0  0  0  1  0  0  0  0  0  0
  185.2010  178.7410  141.1810 C   0  0  0  0  0  0  0  0  0  0  0  0
  187.6810  179.0140  140.6910 C   0  0  0  0  0  2  0  0  0  0  0  0
  188.0620  177.3590  145.6990 C   0  0  0  0  0  0  0  0  0  0  0  0
  186.5980  177.9560  147.5650 N   0  0  0  0  0  0  0  0  0  0  0  0
  184.1730  178.5500  142.0480 N   0  0  0  0  0  0  0  0  0  0  0  0
  188.9310  177.3920  148.0140 C   0  0  0  0  0  2  0  0  0  0  0  0
  186.7580  177.8240  146.1420 C   0  0  0  0  0  0  0  0  0  0  0  0
  188.1690  178.2150  143.4000 C   0  0  2  0  0  3  0  0  0  0  0  0
  184.9140  179.0310  139.8140 N   0  0  0  0  0  0  0  0  0  0  0  0
  184.0380  179.0800  138.7210 O   0  0  0  0  0  0  0  0  0  0  0  0
  186.5240  178.6600  141.6360 C   0  0  0  0  0  0  0  0  0  0  0  0
  190.4600  177.6950  143.2080 C   0  0  0  0  0  2  0  0  0  0  0  0
  188.8700  176.4950  141.6660 C   0  0  0  0  0  2  0  0  0  0  0  0
  190.0060  175.9840  140.9740 O   0  0  0  0  0  0  0  0  0  0  0  0
  189.7010  176.4800  138.5560 C   0  0  0  0  0  1  0  0  0  0  0  0
  190.4950  176.5730  139.8070 C   0  0  0  0  0  0  0  0  0  0  0  0
  191.6030  177.1740  139.8000 O   0  0  0  0  0  0  0  0  0  0  0  0
  185.4460  177.3650  138.1140 C   0  0  0  0  0  2  0  0  0  0  0  0
  185.6190  177.1370  136.6240 C   0  0  0  0  0  2  0  0  0  0  0  0
  186.8660  176.5670  136.3710 O   0  0  0  0  0  0  0  0  0  0  0  0
  187.5420  177.5230  135.6140 C   0  0  0  0  0  1  0  0  0  0  0  0
  2  8  1  0  0  0  0
  3 31  1  1  0  0  0
  3 23  1  0  0  0  0
  3 22  1  0  0  0  0
  4 19  1  0  0  0  0
  5 12  1  0  0  0  0
  5 16  1  0  0  0  0
  6 13  1  1  0  0  0
  6  4  1  0  0  0  0
  7  8  2  0  0  0  0
  8 11  1  0  0  0  0
  9 26  1  6  0  0  0
  9 25  1  0  0  0  0
  9 21  1  0  0  0  0
 10  9  1  0  0  0  0
 11 20  2  0  0  0  0
 12 25  1  1  0  0  0
 12  6  1  0  0  0  0
 14 24  2  0  0  0  0
 14 18  1  0  0  0  0
 15 10  1  0  0  0  0
 15 24  1  0  0  0  0
 16 20  1  0  0  0  0
 16  4  2  0  0  0  0
 17  1  2  0  0  0  0
 18  2  2  0  0  0  0
 19  1  1  0  0  0  0
 20 17  1  0  0  0  0
 21  7  1  6  0  0  0
 21  5  1  0  0  0  0
 22 14  1  0  0  0  0
 23 22  1  0  0  0  0
 24  7  1  0  0  0  0
 27 26  1  0  0  0  0
 28 29  1  0  0  0  0
 29 27  1  0  0  0  0
 30 29  2  0  0  0  0
 32 31  1  0  0  0  0
 33 32  1  0  0  0  0
 34 33  1  0  0  0  0
M  END
>  <MODEL>
5

>  <REMARK>
 VINA RESULT:      -7.2      2.751      6.754
  Name = 
  6 active torsions:
  status: ('A' for Active; 'I' for Inactive)
    1  A    between atoms: C_4  and  C_32
    2  A    between atoms: C_10  and  C_11
    3  A    between atoms: C_11  and  O_12
    4  A    between atoms: O_12  and  C_28
    5  A    between atoms: O_13  and  C_25
    6  A    between atoms: C_25  and  C_32
                            x       y       z     vdW  Elec       q    Type
                         _______ _______ _______ _____ _____    ______ ____

>  <TORSDO>
F 6

$$$$
=
 OpenBabel11042412153D

 34 40  0  0  1  0  0  0  0  0999 V2000
  191.5510  178.0220  142.9460 C   0  0  0  0  0  3  0  0  0  0  0  0
  185.5860  178.6550  141.7260 C   0  0  0  0  0  3  0  0  0  0  0  0
  182.6450  178.6840  137.5950 C   0  0  2  0  0  3  0  0  0  0  0  0
  191.1140  177.1220  140.7380 C   0  0  0  0  0  0  0  0  0  0  0  0
  189.1760  177.1920  139.6980 N   0  0  0  0  0  0  0  0  0  0  0  0
  191.3460  176.8000  139.3980 C   0  0  1  0  0  3  0  0  0  0  0  0
  186.9390  178.2420  139.7780 C   0  0  0  0  0  0  0  0  0  0  0  0
  186.8450  178.3740  141.1920 C   0  0  0  0  0  0  0  0  0  0  0  0
  188.1350  177.4380  137.6730 C   0  0  2  0  0  0  0  0  0  0  0  0
  187.3940  178.4830  136.8530 C   0  0  0  0  0  2  0  0  0  0  0  0
  187.9640  178.4250  142.1180 N   0  0  0  0  0  0  0  0  0  0  0  0
  190.0920  176.8580  138.7980 C   0  0  2  0  0  3  0  0  0  0  0  0
  192.6640  176.7530  138.7060 C   0  0  0  0  0  1  0  0  0  0  0  0
  184.5950  178.8060  139.5700 C   0  0  0  0  0  0  0  0  0  0  0  0
  185.9620  178.6770  137.4300 C   0  0  0  0  0  2  0  0  0  0  0  0
  189.7720  177.3770  140.8590 C   0  0  0  0  0  0  0  0  0  0  0  0
  190.1390  178.3230  143.0830 N   0  0  0  0  0  2  0  0  0  0  0  0
  184.5050  178.8350  140.9240 N   0  0  0  0  0  0  0  0  0  0  0  0
  192.0470  177.4620  141.8240 C   0  0  0  0  0  3  0  0  0  0  0  0
  189.2150  178.0590  142.0140 C   0  0  0  0  0  0  0  0  0  0  0  0
  188.2220  178.0270  139.0690 C   0  0  2  0  0  3  0  0  0  0  0  0
  183.4220  179.0280  138.7890 N   0  0  0  0  0  0  0  0  0  0  0  0
  182.0300  179.1200  138.6530 O   0  0  0  0  0  0  0  0  0  0  0  0
  185.8330  178.5690  138.9550 C   0  0  0  0  0  0  0  0  0  0  0  0
  189.6380  177.1650  137.3930 C   0  0  0  0  0  2  0  0  0  0  0  0
  187.3730  176.0940  137.6540 C   0  0  0  0  0  2  0  0  0  0  0  0
  187.8030  175.2730  136.5720 O   0  0  0  0  0  0  0  0  0  0  0  0
  189.4460  173.4240  136.8430 C   0  0  0  0  0  1  0  0  0  0  0  0
  188.0470  173.9080  136.7240 C   0  0  0  0  0  0  0  0  0  0  0  0
  187.0970  173.0790  136.7530 O   0  0  0  0  0  0  0  0  0  0  0  0
  182.4830  177.1770  137.5090 C   0  0  0  0  0  2  0  0  0  0  0  0
  183.0030  176.6630  136.1790 C   0  0  0  0  0  2  0  0  0  0  0  0
  184.1190  175.8530  136.3850 O   0  0  0  0  0  0  0  0  0  0  0  0
  183.8040  175.1020  137.5170 C   0  0  0  0  0  1  0  0  0  0  0  0
  1 17  1  0  0  0  0
  3 31  1  1  0  0  0
  3 23  1  0  0  0  0
  3 22  1  0  0  0  0
  4 16  2  0  0  0  0
  4 19  1  0  0  0  0
  5 16  1  0  0  0  0
  6 13  1  6  0  0  0
  6  4  1  0  0  0  0
  7  8  2  0  0  0  0
  8  2  1  0  0  0  0
  8 11  1  0  0  0  0
  9 26  1  1  0  0  0
  9 21  1  0  0  0  0
 10 15  1  0  0  0  0
 10  9  1  0  0  0  0
 12 25  1  6  0  0  0
 12  6  1  0  0  0  0
 12  5  1  0  0  0  0
 14 18  1  0  0  0  0
 15 24  1  0  0  0  0
 16 20  1  0  0  0  0
 18  2  2  0  0  0  0
 19  1  2  0  0  0  0
 20 11  2  0  0  0  0
 20 17  1  0  0  0  0
 21  5  1  0  0  0  0
 21  7  1  1  0  0  0
 22 14  1  0  0  0  0
 23 22  1  0  0  0  0
 24 14  2  0  0  0  0
 24  7  1  0  0  0  0
 25  9  1  0  0  0  0
 27 29  1  0  0  0  0
 27 26  1  0  0  0  0
 29 30  2  0  0  0  0
 29 28  1  0  0  0  0
 32 33  1  0  0  0  0
 32 31  1  0  0  0  0
 33 34  1  0  0  0  0
M  END
>  <MODEL>
6

>  <REMARK>
 VINA RESULT:      -6.3      4.076      6.759
  Name = 
  6 active torsions:
  status: ('A' for Active; 'I' for Inactive)
    1  A    between atoms: C_4  and  C_32
    2  A    between atoms: C_10  and  C_11
    3  A    between atoms: C_11  and  O_12
    4  A    between atoms: O_12  and  C_28
    5  A    between atoms: O_13  and  C_25
    6  A    between atoms: C_25  and  C_32
                            x       y       z     vdW  Elec       q    Type
                         _______ _______ _______ _____ _____    ______ ____

>  <TORSDO>
F 6

$$$$
