=
 OpenBabel11042411133D

 54 58  0  0  1  0  0  0  0  0999 V2000
  189.2520  176.2380  138.1450 C   0  0  1  0  0  3  0  0  0  0  0  0
  190.3670  175.5110  137.4490 C   0  0  0  0  0  0  0  0  0  0  0  0
  194.3020  172.6220  136.2310 N   0  0  0  0  0  2  0  0  0  0  0  0
  192.4540  174.2320  136.0570 C   0  0  0  0  0  0  0  0  0  0  0  0
  193.9000  176.2550  136.3730 C   0  0  0  0  0  3  0  0  0  0  0  0
  192.6240  175.5380  136.5640 C   0  0  0  0  0  0  0  0  0  0  0  0
  194.6670  174.5460  134.7300 C   0  0  0  0  0  2  0  0  0  0  0  0
  191.5870  176.1640  137.2600 C   0  0  0  0  0  3  0  0  0  0  0  0
  191.2090  173.5840  136.2270 C   0  0  0  0  0  0  0  0  0  0  0  0
  190.9780  172.3100  135.7220 O   0  0  0  0  0  1  0  0  0  0  0  0
  193.6710  172.2040  134.9660 C   0  0  0  0  0  2  0  0  0  0  0  0
  193.6430  173.6070  135.3620 C   0  0  1  0  0  0  0  0  0  0  0  0
  190.1770  174.2300  136.9150 C   0  0  0  0  0  3  0  0  0  0  0  0
  194.8550  175.7870  135.5620 C   0  0  0  0  0  3  0  0  0  0  0  0
  189.8230  177.1820  139.1570 C   0  0  0  0  0  0  0  0  0  0  0  0
  189.6400  178.4270  139.0460 O   0  0  0  0  0  0  0  0  0  0  0  0
  190.6180  176.6610  140.2220 N   0  0  0  0  0  2  0  0  0  0  0  0
  191.6310  177.7080  141.2180 S   0  0  0  0  0  0  0  0  0  0  0  0
  189.5590  177.4000  142.8970 C   0  0  0  0  0  3  0  0  0  0  0  0
  189.2670  177.2810  145.3580 C   0  0  0  0  0  0  0  0  0  0  0  0
  190.8540  177.1280  142.7200 C   0  0  0  0  0  0  0  0  0  0  0  0
  188.7400  176.8600  144.0240 C   0  0  0  0  0  2  0  0  0  0  0  0
  191.5050  176.2280  144.9800 C   0  0  0  0  0  3  0  0  0  0  0  0
  191.6670  176.3210  143.6540 C   0  0  0  0  0  3  0  0  0  0  0  0
  190.4760  176.9130  145.7890 C   0  0  0  0  0  3  0  0  0  0  0  0
  188.3530  177.9830  146.3070 C   0  0  0  0  0  2  0  0  0  0  0  0
  186.9110  177.5330  146.1220 C   0  0  0  0  0  2  0  0  0  0  0  0
  185.9950  178.7370  145.9480 C   0  0  0  0  0  2  0  0  0  0  0  0
  185.0430  178.5220  144.8210 C   0  0  0  0  0  0  0  0  0  0  0  0
  182.9670  178.9120  142.5580 C   0  0  0  0  0  3  0  0  0  0  0  0
  185.5190  177.7530  143.6340 C   0  0  0  0  0  2  0  0  0  0  0  0
  182.7500  178.8820  143.8780 C   0  0  0  0  0  3  0  0  0  0  0  0
  183.7810  178.9560  144.9320 C   0  0  0  0  0  3  0  0  0  0  0  0
  185.4290  178.5520  142.3780 C   0  0  0  0  0  3  0  0  0  0  0  0
  184.2790  179.0230  141.8920 C   0  0  0  0  0  3  0  0  0  0  0  0
  188.2680  176.9230  137.1770 C   0  0  2  0  0  3  0  0  0  0  0  0
  186.5400  175.1770  137.1100 C   0  0  0  0  0  3  0  0  0  0  0  0
  186.8480  176.4540  137.3800 C   0  0  0  0  0  0  0  0  0  0  0  0
  185.2760  174.6450  137.3240 O   0  0  0  0  0  1  0  0  0  0  0  0
  186.3030  178.4260  138.6530 O   0  0  0  0  0  1  0  0  0  0  0  0
  185.8800  177.3890  137.8950 N   0  0  0  0  0  0  0  0  0  0  0  0
  184.4630  177.3270  137.5590 C   0  0  0  0  0  2  0  0  0  0  0  0
  183.7060  178.4730  138.2140 C   0  0  0  0  0  2  0  0  0  0  0  0
  182.4710  177.9610  138.9360 C   0  0  2  0  0  3  0  0  0  0  0  0
  182.4740  176.4430  138.9610 C   0  0  0  0  0  1  0  0  0  0  0  0
  181.3280  178.4130  138.2790 O   0  0  0  0  0  0  0  0  0  0  0  0
  181.7160  179.6170  137.6790 C   0  0  0  0  0  2  0  0  0  0  0  0
  180.7030  180.7080  137.9930 C   0  0  1  0  0  3  0  0  0  0  0  0
  180.8770  181.1740  139.2980 O   0  0  0  0  0  1  0  0  0  0  0  0
  180.7990  181.8580  136.9880 C   0  0  0  0  0  2  0  0  0  0  0  0
  180.3490  183.1940  137.5670 C   0  0  0  0  0  2  0  0  0  0  0  0
  181.3300  184.2890  137.1980 C   0  0  0  0  0  1  0  0  0  0  0  0
  189.0540  177.9610  135.1690 O   0  0  0  0  0  1  0  0  0  0  0  0
  188.6920  176.7340  135.7230 C   0  0  0  0  0  2  0  0  0  0  0  0
  1 15  1  1  0  0  0
  2  1  1  0  0  0  0
  4  9  2  0  0  0  0
  4  6  1  0  0  0  0
  5  6  1  0  0  0  0
  6  8  2  0  0  0  0
  7 14  1  0  0  0  0
  8  2  1  0  0  0  0
  9 13  1  0  0  0  0
 10  9  1  0  0  0  0
 11 12  1  0  0  0  0
 11  3  1  0  0  0  0
 12  7  1  6  0  0  0
 12  4  1  0  0  0  0
 12  3  1  0  0  0  0
 13  2  2  0  0  0  0
 14  5  2  0  0  0  0
 15 17  1  0  0  0  0
 16 15  2  0  0  0  0
 17 18  1  0  0  0  0
 18 21  1  0  0  0  0
 19 22  1  0  0  0  0
 20 25  2  0  0  0  0
 20 26  1  0  0  0  0
 21 19  2  0  0  0  0
 21 24  1  0  0  0  0
 22 20  1  0  0  0  0
 23 25  1  0  0  0  0
 24 23  2  0  0  0  0
 27 26  1  0  0  0  0
 28 27  1  0  0  0  0
 29 33  2  0  0  0  0
 29 28  1  0  0  0  0
 30 32  2  0  0  0  0
 31 29  1  0  0  0  0
 32 33  1  0  0  0  0
 34 31  1  0  0  0  0
 35 34  2  0  0  0  0
 35 30  1  0  0  0  0
 36 54  1  6  0  0  0
 36 38  1  0  0  0  0
 36  1  1  0  0  0  0
 37 39  1  0  0  0  0
 37 38  2  0  0  0  0
 38 41  1  0  0  0  0
 41 40  1  0  0  0  0
 42 41  1  0  0  0  0
 42 43  1  0  0  0  0
 43 44  1  0  0  0  0
 44 45  1  6  0  0  0
 46 44  1  0  0  0  0
 47 48  1  0  0  0  0
 47 46  1  0  0  0  0
 48 49  1  1  0  0  0
 50 51  1  0  0  0  0
 50 48  1  0  0  0  0
 52 51  1  0  0  0  0
 53 54  1  0  0  0  0
M  END
>  <MODEL>
1

>  <REMARK>
 VINA RESULT:      -7.9      0.000      0.000
  Name = 
  20 active torsions:
  status: ('A' for Active; 'I' for Inactive)
    1  A    between atoms: C_1  and  C_24
    2  A    between atoms: C_2  and  C_35
    3  A    between atoms: C_3  and  C_11
    4  A    between atoms: C_3  and  C_38
    5  A    between atoms: C_8  and  C_53
    6  A    between atoms: C_9  and  N_33
    7  A    between atoms: C_9  and  C_43
    8  A    between atoms: C_11  and  C_12
    9  A    between atoms: C_13  and  S_29
   10  A    between atoms: C_15  and  C_43
   11  A    between atoms: C_15  and  O_50
   12  A    between atoms: C_17  and  N_33
   13  A    between atoms: C_17  and  C_34
   14  A    between atoms: C_19  and  C_24
   15  A    between atoms: C_23  and  C_35
   16  A    between atoms: C_23  and  C_53
   17  A    between atoms: C_24  and  C_34
   18  A    between atoms: S_29  and  N_51
   19  A    between atoms: C_34  and  C_52
   20  A    between atoms: C_38  and  O_50
                            x       y       z     vdW  Elec       q    Type
                         _______ _______ _______ _____ _____    ______ ____

>  <TORSDO>
F 20

$$$$
=
 OpenBabel11042411133D

 54 58  0  0  1  0  0  0  0  0999 V2000
  189.3730  176.0920  137.9180 C   0  0  1  0  0  3  0  0  0  0  0  0
  190.5200  175.3570  137.2850 C   0  0  0  0  0  0  0  0  0  0  0  0
  194.5200  172.4700  136.2950 N   0  0  0  0  0  2  0  0  0  0  0  0
  192.6700  174.0620  136.0090 C   0  0  0  0  0  0  0  0  0  0  0  0
  194.0880  176.1030  136.3350 C   0  0  0  0  0  3  0  0  0  0  0  0
  192.8110  175.3810  136.4910 C   0  0  0  0  0  0  0  0  0  0  0  0
  194.9330  174.3610  134.7650 C   0  0  0  0  0  2  0  0  0  0  0  0
  191.7430  176.0150  137.1300 C   0  0  0  0  0  3  0  0  0  0  0  0
  191.4240  173.4090  136.1450 C   0  0  0  0  0  0  0  0  0  0  0  0
  191.2220  172.1220  135.6610 O   0  0  0  0  0  1  0  0  0  0  0  0
  193.9440  172.0180  135.0160 C   0  0  0  0  0  2  0  0  0  0  0  0
  193.8910  173.4300  135.3780 C   0  0  1  0  0  0  0  0  0  0  0  0
  190.3610  174.0620  136.7750 C   0  0  0  0  0  3  0  0  0  0  0  0
  195.0790  175.6230  135.5740 C   0  0  0  0  0  3  0  0  0  0  0  0
  189.8980  177.0720  138.9220 C   0  0  0  0  0  0  0  0  0  0  0  0
  189.7090  178.3110  138.7660 O   0  0  0  0  0  0  0  0  0  0  0  0
  190.6550  176.5910  140.0320 N   0  0  0  0  0  2  0  0  0  0  0  0
  191.6210  177.6780  141.0330 S   0  0  0  0  0  0  0  0  0  0  0  0
  189.5660  177.3750  142.7350 C   0  0  0  0  0  3  0  0  0  0  0  0
  189.3090  177.1940  145.1960 C   0  0  0  0  0  0  0  0  0  0  0  0
  190.8520  177.0750  142.5300 C   0  0  0  0  0  0  0  0  0  0  0  0
  188.7510  176.8250  143.8600 C   0  0  0  0  0  2  0  0  0  0  0  0
  191.5130  176.0960  144.7540 C   0  0  0  0  0  3  0  0  0  0  0  0
  191.6570  176.2220  143.4290 C   0  0  0  0  0  3  0  0  0  0  0  0
  190.5140  176.7840  145.5970 C   0  0  0  0  0  3  0  0  0  0  0  0
  188.4270  177.8920  146.1790 C   0  0  0  0  0  2  0  0  0  0  0  0
  186.9730  177.4700  146.0150 C   0  0  0  0  0  2  0  0  0  0  0  0
  186.0840  178.6900  145.8180 C   0  0  0  0  0  2  0  0  0  0  0  0
  185.1350  178.4800  144.6870 C   0  0  0  0  0  0  0  0  0  0  0  0
  183.0860  178.8820  142.4020 C   0  0  0  0  0  3  0  0  0  0  0  0
  185.6030  177.6830  143.5150 C   0  0  0  0  0  2  0  0  0  0  0  0
  182.8590  178.8760  143.7210 C   0  0  0  0  0  3  0  0  0  0  0  0
  183.8830  178.9430  144.7820 C   0  0  0  0  0  3  0  0  0  0  0  0
  185.5410  178.4650  142.2470 C   0  0  0  0  0  3  0  0  0  0  0  0
  184.4050  178.9530  141.7450 C   0  0  0  0  0  3  0  0  0  0  0  0
  188.4180  176.7370  136.8960 C   0  0  2  0  0  3  0  0  0  0  0  0
  186.8630  174.8750  137.2860 C   0  0  0  0  0  3  0  0  0  0  0  0
  187.0220  176.1720  136.9830 C   0  0  0  0  0  0  0  0  0  0  0  0
  185.6160  174.2860  137.4460 O   0  0  0  0  0  1  0  0  0  0  0  0
  185.2300  177.0090  135.6060 O   0  0  0  0  0  1  0  0  0  0  0  0
  185.9050  177.0590  136.7760 N   0  0  0  0  0  0  0  0  0  0  0  0
  185.4030  177.9530  137.8130 C   0  0  0  0  0  2  0  0  0  0  0  0
  184.1190  177.4030  138.4170 C   0  0  0  0  0  2  0  0  0  0  0  0
  182.9040  178.1050  137.8350 C   0  0  2  0  0  3  0  0  0  0  0  0
  182.4780  179.2460  138.7410 C   0  0  0  0  0  1  0  0  0  0  0  0
  181.8550  177.1940  137.7120 O   0  0  0  0  0  0  0  0  0  0  0  0
  181.5690  176.8030  139.0250 C   0  0  0  0  0  2  0  0  0  0  0  0
  180.1480  176.2670  139.1140 C   0  0  1  0  0  3  0  0  0  0  0  0
  180.1410  174.8780  138.9800 O   0  0  0  0  0  1  0  0  0  0  0  0
  179.4780  176.6920  140.4230 C   0  0  0  0  0  2  0  0  0  0  0  0
  179.6340  178.1790  140.7170 C   0  0  0  0  0  2  0  0  0  0  0  0
  179.4540  178.4490  142.1970 C   0  0  0  0  0  1  0  0  0  0  0  0
  189.3620  177.8630  135.0070 O   0  0  0  0  0  1  0  0  0  0  0  0
  188.9580  176.6130  135.4730 C   0  0  0  0  0  2  0  0  0  0  0  0
  1 15  1  1  0  0  0
  2  1  1  0  0  0  0
  4  9  2  0  0  0  0
  4  6  1  0  0  0  0
  5  6  1  0  0  0  0
  6  8  2  0  0  0  0
  7 14  1  0  0  0  0
  8  2  1  0  0  0  0
  9 13  1  0  0  0  0
 10  9  1  0  0  0  0
 11 12  1  0  0  0  0
 11  3  1  0  0  0  0
 12  7  1  6  0  0  0
 12  4  1  0  0  0  0
 12  3  1  0  0  0  0
 13  2  2  0  0  0  0
 14  5  2  0  0  0  0
 15 17  1  0  0  0  0
 16 15  2  0  0  0  0
 17 18  1  0  0  0  0
 18 21  1  0  0  0  0
 19 22  1  0  0  0  0
 20 25  2  0  0  0  0
 20 26  1  0  0  0  0
 21 19  2  0  0  0  0
 21 24  1  0  0  0  0
 22 20  1  0  0  0  0
 23 25  1  0  0  0  0
 24 23  2  0  0  0  0
 27 26  1  0  0  0  0
 28 27  1  0  0  0  0
 29 33  2  0  0  0  0
 29 28  1  0  0  0  0
 30 32  2  0  0  0  0
 31 29  1  0  0  0  0
 32 33  1  0  0  0  0
 34 31  1  0  0  0  0
 35 34  2  0  0  0  0
 35 30  1  0  0  0  0
 36 54  1  6  0  0  0
 36 38  1  0  0  0  0
 36  1  1  0  0  0  0
 37 39  1  0  0  0  0
 38 37  2  0  0  0  0
 40 41  1  0  0  0  0
 41 38  1  0  0  0  0
 41 42  1  0  0  0  0
 42 43  1  0  0  0  0
 44 43  1  0  0  0  0
 44 45  1  1  0  0  0
 46 44  1  0  0  0  0
 46 47  1  0  0  0  0
 47 48  1  0  0  0  0
 48 49  1  1  0  0  0
 48 50  1  0  0  0  0
 50 51  1  0  0  0  0
 51 52  1  0  0  0  0
 53 54  1  0  0  0  0
M  END
>  <MODEL>
2

>  <REMARK>
 VINA RESULT:      -7.8      1.445      2.112
  Name = 
  20 active torsions:
  status: ('A' for Active; 'I' for Inactive)
    1  A    between atoms: C_1  and  C_24
    2  A    between atoms: C_2  and  C_35
    3  A    between atoms: C_3  and  C_11
    4  A    between atoms: C_3  and  C_38
    5  A    between atoms: C_8  and  C_53
    6  A    between atoms: C_9  and  N_33
    7  A    between atoms: C_9  and  C_43
    8  A    between atoms: C_11  and  C_12
    9  A    between atoms: C_13  and  S_29
   10  A    between atoms: C_15  and  C_43
   11  A    between atoms: C_15  and  O_50
   12  A    between atoms: C_17  and  N_33
   13  A    between atoms: C_17  and  C_34
   14  A    between atoms: C_19  and  C_24
   15  A    between atoms: C_23  and  C_35
   16  A    between atoms: C_23  and  C_53
   17  A    between atoms: C_24  and  C_34
   18  A    between atoms: S_29  and  N_51
   19  A    between atoms: C_34  and  C_52
   20  A    between atoms: C_38  and  O_50
                            x       y       z     vdW  Elec       q    Type
                         _______ _______ _______ _____ _____    ______ ____

>  <TORSDO>
F 20

$$$$
=
 OpenBabel11042411133D

 54 58  0  0  1  0  0  0  0  0999 V2000
  190.4850  174.8990  136.7740 C   0  0  1  0  0  3  0  0  0  0  0  0
  191.9820  174.9350  136.6600 C   0  0  0  0  0  0  0  0  0  0  0  0
  196.7960  174.2950  135.3450 N   0  0  0  0  0  2  0  0  0  0  0  0
  194.7940  175.0370  136.5620 C   0  0  0  0  0  0  0  0  0  0  0  0
  194.9170  173.2340  138.2980 C   0  0  0  0  0  3  0  0  0  0  0  0
  194.1390  174.1370  137.4290 C   0  0  0  0  0  0  0  0  0  0  0  0
  197.0140  174.4830  137.7960 C   0  0  0  0  0  2  0  0  0  0  0  0
  192.7430  174.0860  137.4680 C   0  0  0  0  0  3  0  0  0  0  0  0
  194.0220  175.9120  135.7650 C   0  0  0  0  0  0  0  0  0  0  0  0
  194.6160  176.8380  134.9170 O   0  0  0  0  0  1  0  0  0  0  0  0
  197.1000  175.7210  135.5620 C   0  0  0  0  0  2  0  0  0  0  0  0
  196.3060  174.9910  136.5430 C   0  0  1  0  0  0  0  0  0  0  0  0
  192.6260  175.8580  135.8250 C   0  0  0  0  0  3  0  0  0  0  0  0
  196.2410  173.3630  138.4430 C   0  0  0  0  0  3  0  0  0  0  0  0
  189.9900  176.2120  137.2980 C   0  0  0  0  0  0  0  0  0  0  0  0
  190.0770  177.2560  136.5920 O   0  0  0  0  0  0  0  0  0  0  0  0
  189.4640  176.2770  138.6230 N   0  0  0  0  0  2  0  0  0  0  0  0
  189.2220  177.8190  139.4470 S   0  0  0  0  0  0  0  0  0  0  0  0
  189.3150  176.5300  141.8000 C   0  0  0  0  0  3  0  0  0  0  0  0
  190.5540  176.8080  143.9320 C   0  0  0  0  0  0  0  0  0  0  0  0
  190.0410  177.2260  140.9210 C   0  0  0  0  0  0  0  0  0  0  0  0
  189.8880  175.8480  143.0000 C   0  0  0  0  0  2  0  0  0  0  0  0
  192.1760  177.6040  142.2020 C   0  0  0  0  0  3  0  0  0  0  0  0
  191.4910  177.4780  141.0590 C   0  0  0  0  0  3  0  0  0  0  0  0
  191.6240  177.5170  143.5700 C   0  0  0  0  0  3  0  0  0  0  0  0
  190.1200  176.8450  145.3610 C   0  0  0  0  0  2  0  0  0  0  0  0
  189.2430  178.0570  145.6410 C   0  0  0  0  0  2  0  0  0  0  0  0
  188.0820  177.6750  146.5500 C   0  0  0  0  0  2  0  0  0  0  0  0
  186.7810  177.8030  145.8320 C   0  0  0  0  0  0  0  0  0  0  0  0
  184.2050  178.8900  144.5040 C   0  0  0  0  0  3  0  0  0  0  0  0
  186.6390  177.1310  144.5070 C   0  0  0  0  0  2  0  0  0  0  0  0
  184.4490  178.7170  145.8080 C   0  0  0  0  0  3  0  0  0  0  0  0
  185.7660  178.4470  146.4200 C   0  0  0  0  0  3  0  0  0  0  0  0
  186.3100  178.1000  143.4220 C   0  0  0  0  0  3  0  0  0  0  0  0
  185.2020  178.8420  143.4160 C   0  0  0  0  0  3  0  0  0  0  0  0
  189.7800  174.4720  135.4720 C   0  0  2  0  0  3  0  0  0  0  0  0
  188.3450  172.4840  135.3030 C   0  0  0  0  0  3  0  0  0  0  0  0
  188.4840  173.7460  135.7370 C   0  0  0  0  0  0  0  0  0  0  0  0
  187.2110  171.7220  135.5530 O   0  0  0  0  0  1  0  0  0  0  0  0
  187.1310  173.9770  137.7180 O   0  0  0  0  0  1  0  0  0  0  0  0
  187.4550  174.4240  136.4840 N   0  0  0  0  0  0  0  0  0  0  0  0
  186.8040  175.6390  136.0090 C   0  0  0  0  0  2  0  0  0  0  0  0
  186.1720  176.3960  137.1680 C   0  0  0  0  0  2  0  0  0  0  0  0
  185.9740  177.8600  136.8130 C   0  0  2  0  0  3  0  0  0  0  0  0
  187.2170  178.4020  136.1290 C   0  0  0  0  0  1  0  0  0  0  0  0
  185.7270  178.5910  137.9740 O   0  0  0  0  0  0  0  0  0  0  0  0
  184.6370  177.9470  138.5730 C   0  0  0  0  0  2  0  0  0  0  0  0
  184.1220  178.7700  139.7440 C   0  0  1  0  0  3  0  0  0  0  0  0
  185.0400  179.7670  140.0810 O   0  0  0  0  0  1  0  0  0  0  0  0
  182.7510  179.3750  139.4350 C   0  0  0  0  0  2  0  0  0  0  0  0
  181.7220  178.3320  139.0150 C   0  0  0  0  0  2  0  0  0  0  0  0
  181.0950  177.6850  140.2340 C   0  0  0  0  0  1  0  0  0  0  0  0
  190.9600  172.4050  135.2150 O   0  0  0  0  0  1  0  0  0  0  0  0
  190.6980  173.6260  134.5940 C   0  0  0  0  0  2  0  0  0  0  0  0
  1 15  1  6  0  0  0
  2  1  1  0  0  0  0
  2  8  1  0  0  0  0
  3 11  1  0  0  0  0
  3 12  1  0  0  0  0
  4  6  1  0  0  0  0
  5 14  2  0  0  0  0
  6  8  2  0  0  0  0
  6  5  1  0  0  0  0
  7 14  1  0  0  0  0
  9 13  1  0  0  0  0
  9  4  2  0  0  0  0
 10  9  1  0  0  0  0
 12 11  1  6  0  0  0
 12  4  1  0  0  0  0
 12  7  1  0  0  0  0
 13  2  2  0  0  0  0
 15 17  1  0  0  0  0
 16 15  2  0  0  0  0
 17 18  1  0  0  0  0
 18 21  1  0  0  0  0
 19 22  1  0  0  0  0
 20 26  1  0  0  0  0
 21 24  1  0  0  0  0
 21 19  2  0  0  0  0
 22 20  1  0  0  0  0
 23 25  1  0  0  0  0
 24 23  2  0  0  0  0
 25 20  2  0  0  0  0
 26 27  1  0  0  0  0
 27 28  1  0  0  0  0
 29 33  2  0  0  0  0
 29 28  1  0  0  0  0
 30 32  2  0  0  0  0
 31 29  1  0  0  0  0
 32 33  1  0  0  0  0
 34 31  1  0  0  0  0
 35 34  2  0  0  0  0
 35 30  1  0  0  0  0
 36 54  1  1  0  0  0
 36 38  1  0  0  0  0
 36  1  1  0  0  0  0
 37 39  1  0  0  0  0
 37 38  2  0  0  0  0
 38 41  1  0  0  0  0
 41 40  1  0  0  0  0
 42 41  1  0  0  0  0
 42 43  1  0  0  0  0
 44 45  1  1  0  0  0
 44 43  1  0  0  0  0
 44 46  1  0  0  0  0
 46 47  1  0  0  0  0
 47 48  1  0  0  0  0
 48 49  1  6  0  0  0
 50 48  1  0  0  0  0
 51 50  1  0  0  0  0
 51 52  1  0  0  0  0
 54 53  1  0  0  0  0
M  END
>  <MODEL>
3

>  <REMARK>
 VINA RESULT:      -7.6      2.147      3.499
  Name = 
  20 active torsions:
  status: ('A' for Active; 'I' for Inactive)
    1  A    between atoms: C_1  and  C_24
    2  A    between atoms: C_2  and  C_35
    3  A    between atoms: C_3  and  C_11
    4  A    between atoms: C_3  and  C_38
    5  A    between atoms: C_8  and  C_53
    6  A    between atoms: C_9  and  N_33
    7  A    between atoms: C_9  and  C_43
    8  A    between atoms: C_11  and  C_12
    9  A    between atoms: C_13  and  S_29
   10  A    between atoms: C_15  and  C_43
   11  A    between atoms: C_15  and  O_50
   12  A    between atoms: C_17  and  N_33
   13  A    between atoms: C_17  and  C_34
   14  A    between atoms: C_19  and  C_24
   15  A    between atoms: C_23  and  C_35
   16  A    between atoms: C_23  and  C_53
   17  A    between atoms: C_24  and  C_34
   18  A    between atoms: S_29  and  N_51
   19  A    between atoms: C_34  and  C_52
   20  A    between atoms: C_38  and  O_50
                            x       y       z     vdW  Elec       q    Type
                         _______ _______ _______ _____ _____    ______ ____

>  <TORSDO>
F 20

$$$$
=
 OpenBabel11042411133D

 54 58  0  0  1  0  0  0  0  0999 V2000
  182.4910  178.0380  140.3950 C   0  0  1  0  0  3  0  0  0  0  0  0
  183.8280  178.0800  139.7110 C   0  0  0  0  0  0  0  0  0  0  0  0
  187.9640  179.3580  137.1460 N   0  0  0  0  0  2  0  0  0  0  0  0
  186.3320  178.0380  138.4240 C   0  0  0  0  0  0  0  0  0  0  0  0
  185.2730  176.9920  136.4070 C   0  0  0  0  0  3  0  0  0  0  0  0
  185.1820  177.5410  137.7730 C   0  0  0  0  0  0  0  0  0  0  0  0
  187.7630  176.9770  136.5300 C   0  0  0  0  0  2  0  0  0  0  0  0
  183.9420  177.5720  138.4140 C   0  0  0  0  0  3  0  0  0  0  0  0
  186.2180  178.5270  139.7440 C   0  0  0  0  0  0  0  0  0  0  0  0
  187.3240  179.0000  140.4420 O   0  0  0  0  0  1  0  0  0  0  0  0
  188.8400  178.6710  138.1120 C   0  0  0  0  0  2  0  0  0  0  0  0
  187.6250  178.0160  137.6390 C   0  0  1  0  0  0  0  0  0  0  0  0
  184.9720  178.5390  140.3780 C   0  0  0  0  0  3  0  0  0  0  0  0
  186.4530  176.7650  135.8170 C   0  0  0  0  0  3  0  0  0  0  0  0
  182.5570  178.8170  141.6720 C   0  0  0  0  0  0  0  0  0  0  0  0
  181.7080  179.7190  141.9160 O   0  0  0  0  0  0  0  0  0  0  0  0
  183.6200  178.5590  142.5890 N   0  0  0  0  0  2  0  0  0  0  0  0
  183.9930  179.6700  143.9090 S   0  0  0  0  0  0  0  0  0  0  0  0
  185.4740  178.6150  145.8840 C   0  0  0  0  0  3  0  0  0  0  0  0
  187.7650  177.6830  146.0860 C   0  0  0  0  0  0  0  0  0  0  0  0
  185.2250  178.5580  144.5730 C   0  0  0  0  0  0  0  0  0  0  0  0
  186.3640  177.6570  146.6060 C   0  0  0  0  0  2  0  0  0  0  0  0
  187.0800  177.0590  143.7620 C   0  0  0  0  0  3  0  0  0  0  0  0
  185.8550  177.5890  143.6520 C   0  0  0  0  0  3  0  0  0  0  0  0
  188.0600  177.3320  144.8320 C   0  0  0  0  0  3  0  0  0  0  0  0
  188.8850  177.9400  147.0400 C   0  0  0  0  0  2  0  0  0  0  0  0
  189.7810  176.7180  147.1840 C   0  0  0  0  0  2  0  0  0  0  0  0
  191.2220  177.0710  146.8420 C   0  0  0  0  0  2  0  0  0  0  0  0
  191.4210  177.1240  145.3660 C   0  0  0  0  0  0  0  0  0  0  0  0
  191.0730  176.8640  142.3010 C   0  0  0  0  0  3  0  0  0  0  0  0
  191.8130  178.4280  144.7540 C   0  0  0  0  0  2  0  0  0  0  0  0
  191.4110  175.9090  143.1750 C   0  0  0  0  0  3  0  0  0  0  0  0
  191.3140  176.0010  144.6460 C   0  0  0  0  0  3  0  0  0  0  0  0
  190.8240  178.8890  143.7380 C   0  0  0  0  0  3  0  0  0  0  0  0
  190.5400  178.2000  142.6310 C   0  0  0  0  0  3  0  0  0  0  0  0
  181.3240  178.4740  139.4880 C   0  0  2  0  0  3  0  0  0  0  0  0
  179.9370  176.5260  140.0530 C   0  0  0  0  0  3  0  0  0  0  0  0
  180.4440  177.3140  139.0930 C   0  0  0  0  0  0  0  0  0  0  0  0
  179.0710  175.4740  139.7850 O   0  0  0  0  0  1  0  0  0  0  0  0
  179.0120  177.6430  137.1830 O   0  0  0  0  0  1  0  0  0  0  0  0
  180.1470  177.1190  137.6970 N   0  0  0  0  0  0  0  0  0  0  0  0
  181.0660  176.4570  136.7790 C   0  0  0  0  0  2  0  0  0  0  0  0
  181.6270  175.1880  137.4040 C   0  0  0  0  0  2  0  0  0  0  0  0
  182.6200  174.5180  136.4690 C   0  0  2  0  0  3  0  0  0  0  0  0
  181.9630  174.2340  135.1300 C   0  0  0  0  0  1  0  0  0  0  0  0
  183.0560  173.3210  137.0350 O   0  0  0  0  0  0  0  0  0  0  0  0
  184.0890  172.8890  136.1950 C   0  0  0  0  0  2  0  0  0  0  0  0
  185.4390  173.1450  136.8510 C   0  0  1  0  0  3  0  0  0  0  0  0
  185.3610  172.9310  138.2280 O   0  0  0  0  0  1  0  0  0  0  0  0
  186.5310  172.2740  136.2260 C   0  0  0  0  0  2  0  0  0  0  0  0
  187.8020  172.2190  137.0660 C   0  0  0  0  0  2  0  0  0  0  0  0
  188.6700  173.4310  136.7930 C   0  0  0  0  0  1  0  0  0  0  0  0
  181.2310  180.4710  138.1720 O   0  0  0  0  0  1  0  0  0  0  0  0
  181.8250  179.2120  138.2500 C   0  0  0  0  0  2  0  0  0  0  0  0
  1 15  1  1  0  0  0
  2 13  1  0  0  0  0
  2  1  1  0  0  0  0
  3 12  1  0  0  0  0
  3 11  1  0  0  0  0
  4  9  1  0  0  0  0
  5  6  1  0  0  0  0
  6  8  1  0  0  0  0
  6  4  2  0  0  0  0
  8  2  2  0  0  0  0
  9 13  2  0  0  0  0
  9 10  1  0  0  0  0
 12  7  1  6  0  0  0
 12 11  1  0  0  0  0
 12  4  1  0  0  0  0
 14  5  2  0  0  0  0
 14  7  1  0  0  0  0
 15 16  2  0  0  0  0
 15 17  1  0  0  0  0
 17 18  1  0  0  0  0
 18 21  1  0  0  0  0
 19 22  1  0  0  0  0
 20 22  1  0  0  0  0
 20 26  1  0  0  0  0
 21 19  2  0  0  0  0
 23 25  1  0  0  0  0
 24 23  2  0  0  0  0
 24 21  1  0  0  0  0
 25 20  2  0  0  0  0
 26 27  1  0  0  0  0
 28 27  1  0  0  0  0
 29 28  1  0  0  0  0
 30 35  1  0  0  0  0
 30 32  2  0  0  0  0
 31 29  1  0  0  0  0
 32 33  1  0  0  0  0
 33 29  2  0  0  0  0
 34 31  1  0  0  0  0
 35 34  2  0  0  0  0
 36 54  1  6  0  0  0
 36  1  1  0  0  0  0
 38 36  1  0  0  0  0
 38 37  2  0  0  0  0
 39 37  1  0  0  0  0
 40 41  1  0  0  0  0
 41 38  1  0  0  0  0
 42 43  1  0  0  0  0
 42 41  1  0  0  0  0
 44 45  1  6  0  0  0
 44 46  1  0  0  0  0
 44 43  1  0  0  0  0
 47 48  1  0  0  0  0
 47 46  1  0  0  0  0
 48 49  1  1  0  0  0
 50 48  1  0  0  0  0
 50 51  1  0  0  0  0
 52 51  1  0  0  0  0
 53 54  1  0  0  0  0
M  END
>  <MODEL>
4

>  <REMARK>
 VINA RESULT:      -7.5      3.423      7.399
  Name = 
  20 active torsions:
  status: ('A' for Active; 'I' for Inactive)
    1  A    between atoms: C_1  and  C_24
    2  A    between atoms: C_2  and  C_35
    3  A    between atoms: C_3  and  C_11
    4  A    between atoms: C_3  and  C_38
    5  A    between atoms: C_8  and  C_53
    6  A    between atoms: C_9  and  N_33
    7  A    between atoms: C_9  and  C_43
    8  A    between atoms: C_11  and  C_12
    9  A    between atoms: C_13  and  S_29
   10  A    between atoms: C_15  and  C_43
   11  A    between atoms: C_15  and  O_50
   12  A    between atoms: C_17  and  N_33
   13  A    between atoms: C_17  and  C_34
   14  A    between atoms: C_19  and  C_24
   15  A    between atoms: C_23  and  C_35
   16  A    between atoms: C_23  and  C_53
   17  A    between atoms: C_24  and  C_34
   18  A    between atoms: S_29  and  N_51
   19  A    between atoms: C_34  and  C_52
   20  A    between atoms: C_38  and  O_50
                            x       y       z     vdW  Elec       q    Type
                         _______ _______ _______ _____ _____    ______ ____

>  <TORSDO>
F 20

$$$$
=
 OpenBabel11042411133D

 54 58  0  0  1  0  0  0  0  0999 V2000
  189.1670  176.2090  138.0580 C   0  0  1  0  0  3  0  0  0  0  0  0
  190.2790  175.4560  137.3850 C   0  0  0  0  0  0  0  0  0  0  0  0
  194.1710  172.4770  136.2490 N   0  0  0  0  0  2  0  0  0  0  0  0
  192.3620  174.1260  136.0360 C   0  0  0  0  0  0  0  0  0  0  0  0
  193.8460  176.1180  136.3730 C   0  0  0  0  0  3  0  0  0  0  0  0
  192.5520  175.4300  136.5410 C   0  0  0  0  0  0  0  0  0  0  0  0
  194.6060  174.3870  134.7490 C   0  0  0  0  0  2  0  0  0  0  0  0
  191.5160  176.0810  137.2160 C   0  0  0  0  0  3  0  0  0  0  0  0
  191.1010  173.5060  136.1850 C   0  0  0  0  0  0  0  0  0  0  0  0
  190.8520  172.2360  135.6790 O   0  0  0  0  0  1  0  0  0  0  0  0
  193.5550  172.0680  134.9730 C   0  0  0  0  0  2  0  0  0  0  0  0
  193.5510  173.4730  135.3650 C   0  0  1  0  0  0  0  0  0  0  0  0
  190.0710  174.1770  136.8510 C   0  0  0  0  0  3  0  0  0  0  0  0
  194.8060  175.6270  135.5810 C   0  0  0  0  0  3  0  0  0  0  0  0
  189.7370  177.1160  139.1040 C   0  0  0  0  0  0  0  0  0  0  0  0
  189.5160  178.3590  139.0630 O   0  0  0  0  0  0  0  0  0  0  0  0
  190.5740  176.5640  140.1200 N   0  0  0  0  0  2  0  0  0  0  0  0
  191.5820  177.5880  141.1450 S   0  0  0  0  0  0  0  0  0  0  0  0
  189.4240  177.1510  142.6820 C   0  0  0  0  0  3  0  0  0  0  0  0
  188.9430  177.1650  145.1160 C   0  0  0  0  0  0  0  0  0  0  0  0
  190.7530  177.0230  142.6250 C   0  0  0  0  0  0  0  0  0  0  0  0
  188.5810  176.5960  143.7830 C   0  0  0  0  0  2  0  0  0  0  0  0
  191.3090  176.3630  144.9900 C   0  0  0  0  0  3  0  0  0  0  0  0
  191.5700  176.3840  143.6770 C   0  0  0  0  0  3  0  0  0  0  0  0
  190.1450  176.9740  145.6630 C   0  0  0  0  0  3  0  0  0  0  0  0
  187.8790  177.8170  145.9360 C   0  0  0  0  0  2  0  0  0  0  0  0
  186.4920  177.3500  145.5160 C   0  0  0  0  0  2  0  0  0  0  0  0
  185.4970  178.5000  145.5930 C   0  0  0  0  0  2  0  0  0  0  0  0
  184.9040  178.7800  144.2540 C   0  0  0  0  0  0  0  0  0  0  0  0
  183.6910  178.5180  141.4180 C   0  0  0  0  0  3  0  0  0  0  0  0
  183.7220  179.6890  144.1830 C   0  0  0  0  0  2  0  0  0  0  0  0
  184.9740  178.4040  141.7790 C   0  0  0  0  0  3  0  0  0  0  0  0
  185.4840  178.2740  143.1590 C   0  0  0  0  0  3  0  0  0  0  0  0
  182.5380  179.0180  143.5740 C   0  0  0  0  0  3  0  0  0  0  0  0
  182.5290  178.5420  142.3280 C   0  0  0  0  0  3  0  0  0  0  0  0
  188.2390  176.9440  137.0710 C   0  0  2  0  0  3  0  0  0  0  0  0
  185.8370  177.1370  137.5560 C   0  0  0  0  0  3  0  0  0  0  0  0
  186.8380  176.3820  137.0800 C   0  0  0  0  0  0  0  0  0  0  0  0
  184.5110  176.7240  137.5460 O   0  0  0  0  0  1  0  0  0  0  0  0
  186.7310  174.8740  135.2030 O   0  0  0  0  0  1  0  0  0  0  0  0
  186.6220  175.0650  136.5370 N   0  0  0  0  0  0  0  0  0  0  0  0
  186.3810  173.8950  137.3740 C   0  0  0  0  0  2  0  0  0  0  0  0
  185.9120  172.7190  136.5280 C   0  0  0  0  0  2  0  0  0  0  0  0
  184.4390  172.4370  136.7650 C   0  0  2  0  0  3  0  0  0  0  0  0
  183.9570  171.3570  135.8120 C   0  0  0  0  0  1  0  0  0  0  0  0
  183.7030  173.6020  136.5560 O   0  0  0  0  0  0  0  0  0  0  0  0
  182.4530  173.3390  137.1300 C   0  0  0  0  0  2  0  0  0  0  0  0
  181.3710  174.1340  136.4140 C   0  0  1  0  0  3  0  0  0  0  0  0
  180.3130  173.2990  136.0490 O   0  0  0  0  0  1  0  0  0  0  0  0
  180.8740  175.2960  137.2780 C   0  0  0  0  0  2  0  0  0  0  0  0
  180.1050  174.8330  138.5110 C   0  0  0  0  0  2  0  0  0  0  0  0
  180.6320  175.5220  139.7530 C   0  0  0  0  0  1  0  0  0  0  0  0
  188.4390  178.1010  134.9860 O   0  0  0  0  0  1  0  0  0  0  0  0
  188.8100  176.9360  135.6560 C   0  0  0  0  0  2  0  0  0  0  0  0
  1 15  1  1  0  0  0
  2  1  1  0  0  0  0
  4  9  2  0  0  0  0
  4  6  1  0  0  0  0
  5  6  1  0  0  0  0
  6  8  2  0  0  0  0
  7 14  1  0  0  0  0
  8  2  1  0  0  0  0
  9 13  1  0  0  0  0
 10  9  1  0  0  0  0
 11 12  1  0  0  0  0
 11  3  1  0  0  0  0
 12  7  1  6  0  0  0
 12  4  1  0  0  0  0
 12  3  1  0  0  0  0
 13  2  2  0  0  0  0
 14  5  2  0  0  0  0
 15 17  1  0  0  0  0
 16 15  2  0  0  0  0
 17 18  1  0  0  0  0
 18 21  1  0  0  0  0
 19 22  1  0  0  0  0
 20 25  2  0  0  0  0
 20 26  1  0  0  0  0
 21 19  2  0  0  0  0
 21 24  1  0  0  0  0
 22 20  1  0  0  0  0
 23 25  1  0  0  0  0
 24 23  2  0  0  0  0
 27 28  1  0  0  0  0
 27 26  1  0  0  0  0
 29 28  1  0  0  0  0
 30 32  2  0  0  0  0
 30 35  1  0  0  0  0
 31 29  1  0  0  0  0
 32 33  1  0  0  0  0
 33 29  2  0  0  0  0
 34 31  1  0  0  0  0
 35 34  2  0  0  0  0
 36 54  1  6  0  0  0
 36 38  1  0  0  0  0
 36  1  1  0  0  0  0
 38 37  2  0  0  0  0
 39 37  1  0  0  0  0
 40 41  1  0  0  0  0
 41 38  1  0  0  0  0
 41 42  1  0  0  0  0
 43 44  1  0  0  0  0
 43 42  1  0  0  0  0
 44 45  1  6  0  0  0
 46 44  1  0  0  0  0
 46 47  1  0  0  0  0
 48 49  1  1  0  0  0
 48 47  1  0  0  0  0
 48 50  1  0  0  0  0
 50 51  1  0  0  0  0
 51 52  1  0  0  0  0
 53 54  1  0  0  0  0
M  END
>  <MODEL>
5

>  <REMARK>
 VINA RESULT:      -7.5      2.306      3.352
  Name = 
  20 active torsions:
  status: ('A' for Active; 'I' for Inactive)
    1  A    between atoms: C_1  and  C_24
    2  A    between atoms: C_2  and  C_35
    3  A    between atoms: C_3  and  C_11
    4  A    between atoms: C_3  and  C_38
    5  A    between atoms: C_8  and  C_53
    6  A    between atoms: C_9  and  N_33
    7  A    between atoms: C_9  and  C_43
    8  A    between atoms: C_11  and  C_12
    9  A    between atoms: C_13  and  S_29
   10  A    between atoms: C_15  and  C_43
   11  A    between atoms: C_15  and  O_50
   12  A    between atoms: C_17  and  N_33
   13  A    between atoms: C_17  and  C_34
   14  A    between atoms: C_19  and  C_24
   15  A    between atoms: C_23  and  C_35
   16  A    between atoms: C_23  and  C_53
   17  A    between atoms: C_24  and  C_34
   18  A    between atoms: S_29  and  N_51
   19  A    between atoms: C_34  and  C_52
   20  A    between atoms: C_38  and  O_50
                            x       y       z     vdW  Elec       q    Type
                         _______ _______ _______ _____ _____    ______ ____

>  <TORSDO>
F 20

$$$$
=
 OpenBabel11042411133D

 54 58  0  0  1  0  0  0  0  0999 V2000
  188.1430  177.6060  141.2350 C   0  0  1  0  0  3  0  0  0  0  0  0
  188.3680  177.5100  142.7160 C   0  0  0  0  0  0  0  0  0  0  0  0
  189.0620  178.4050  147.6190 N   0  0  0  0  0  2  0  0  0  0  0  0
  188.8380  177.2210  145.4770 C   0  0  0  0  0  0  0  0  0  0  0  0
  191.3030  177.0940  145.0410 C   0  0  0  0  0  3  0  0  0  0  0  0
  189.9140  177.2320  144.5640 C   0  0  0  0  0  0  0  0  0  0  0  0
  190.5060  176.4290  147.3070 C   0  0  0  0  0  2  0  0  0  0  0  0
  189.6740  177.3840  143.1960 C   0  0  0  0  0  3  0  0  0  0  0  0
  187.5170  177.3230  144.9870 C   0  0  0  0  0  0  0  0  0  0  0  0
  186.4200  177.2860  145.8400 O   0  0  0  0  0  1  0  0  0  0  0  0
  188.1970  177.2750  148.0020 C   0  0  0  0  0  2  0  0  0  0  0  0
  189.1870  177.1060  146.9450 C   0  0  1  0  0  0  0  0  0  0  0  0
  187.2930  177.4600  143.6130 C   0  0  0  0  0  3  0  0  0  0  0  0
  191.5820  176.7620  146.3070 C   0  0  0  0  0  3  0  0  0  0  0  0
  187.0690  178.6110  140.9540 C   0  0  0  0  0  0  0  0  0  0  0  0
  187.0970  179.7480  141.5040 O   0  0  0  0  0  0  0  0  0  0  0  0
  185.9870  178.2500  140.0960 N   0  0  0  0  0  2  0  0  0  0  0  0
  184.5080  179.2110  140.0180 S   0  0  0  0  0  0  0  0  0  0  0  0
  183.9350  177.7290  137.8540 C   0  0  0  0  0  3  0  0  0  0  0  0
  181.9130  176.6070  136.9520 C   0  0  0  0  0  0  0  0  0  0  0  0
  183.6430  177.9130  139.1440 C   0  0  0  0  0  0  0  0  0  0  0  0
  183.4060  176.5980  137.0330 C   0  0  0  0  0  2  0  0  0  0  0  0
  181.6210  176.4390  139.4310 C   0  0  0  0  0  3  0  0  0  0  0  0
  182.7010  177.0700  139.9100 C   0  0  0  0  0  3  0  0  0  0  0  0
  181.1460  176.4530  138.0320 C   0  0  0  0  0  3  0  0  0  0  0  0
  181.2640  176.6140  135.6070 C   0  0  0  0  0  2  0  0  0  0  0  0
  180.3640  177.8290  135.4330 C   0  0  0  0  0  2  0  0  0  0  0  0
  181.1930  179.0630  135.1020 C   0  0  0  0  0  2  0  0  0  0  0  0
  180.7800  180.2230  135.9430 C   0  0  0  0  0  0  0  0  0  0  0  0
  180.7560  182.6950  137.8060 C   0  0  0  0  0  3  0  0  0  0  0  0
  179.8480  181.2260  135.3500 C   0  0  0  0  0  2  0  0  0  0  0  0
  180.9270  181.4110  138.1430 C   0  0  0  0  0  3  0  0  0  0  0  0
  181.1920  180.2940  137.2150 C   0  0  0  0  0  3  0  0  0  0  0  0
  180.4380  182.5950  135.3330 C   0  0  0  0  0  3  0  0  0  0  0  0
  180.7960  183.2500  136.4390 C   0  0  0  0  0  3  0  0  0  0  0  0
  189.4320  177.8710  140.4330 C   0  0  2  0  0  3  0  0  0  0  0  0
  189.0510  179.3980  138.5460 C   0  0  0  0  0  3  0  0  0  0  0  0
  189.1540  178.1300  138.9730 C   0  0  0  0  0  0  0  0  0  0  0  0
  188.8560  179.7290  137.2120 O   0  0  0  0  0  1  0  0  0  0  0  0
  187.8800  176.3250  138.0110 O   0  0  0  0  0  1  0  0  0  0  0  0
  189.0480  177.0030  138.0810 N   0  0  0  0  0  0  0  0  0  0  0  0
  190.1180  176.6110  137.1720 C   0  0  0  0  0  2  0  0  0  0  0  0
  189.9410  175.1660  136.7280 C   0  0  0  0  0  2  0  0  0  0  0  0
  191.2880  174.4790  136.5770 C   0  0  2  0  0  3  0  0  0  0  0  0
  191.1200  173.1640  135.8370 C   0  0  0  0  0  1  0  0  0  0  0  0
  191.8300  174.2360  137.8390 O   0  0  0  0  0  0  0  0  0  0  0  0
  193.1710  173.9210  137.5930 C   0  0  0  0  0  2  0  0  0  0  0  0
  193.9500  175.1820  137.2470 C   0  0  1  0  0  3  0  0  0  0  0  0
  194.1130  175.9800  138.3810 O   0  0  0  0  0  1  0  0  0  0  0  0
  195.3050  174.8410  136.6230 C   0  0  0  0  0  2  0  0  0  0  0  0
  195.9030  173.5490  137.1670 C   0  0  0  0  0  2  0  0  0  0  0  0
  196.6330  173.8090  138.4680 C   0  0  0  0  0  1  0  0  0  0  0  0
  191.7240  177.1870  140.3360 O   0  0  0  0  0  1  0  0  0  0  0  0
  190.4320  176.7290  140.5930 C   0  0  0  0  0  2  0  0  0  0  0  0
  1 15  1  1  0  0  0
  1  2  1  0  0  0  0
  2  8  2  0  0  0  0
  2 13  1  0  0  0  0
  3 11  1  0  0  0  0
  4 12  1  0  0  0  0
  5 14  2  0  0  0  0
  6  5  1  0  0  0  0
  6  4  2  0  0  0  0
  8  6  1  0  0  0  0
  9  4  1  0  0  0  0
  9 10  1  0  0  0  0
 12  7  1  1  0  0  0
 12  3  1  0  0  0  0
 12 11  1  0  0  0  0
 13  9  2  0  0  0  0
 14  7  1  0  0  0  0
 15 16  2  0  0  0  0
 17 15  1  0  0  0  0
 18 17  1  0  0  0  0
 19 21  2  0  0  0  0
 20 22  1  0  0  0  0
 20 25  2  0  0  0  0
 21 24  1  0  0  0  0
 21 18  1  0  0  0  0
 22 19  1  0  0  0  0
 23 24  2  0  0  0  0
 25 23  1  0  0  0  0
 26 20  1  0  0  0  0
 27 26  1  0  0  0  0
 28 27  1  0  0  0  0
 28 29  1  0  0  0  0
 29 33  2  0  0  0  0
 30 32  2  0  0  0  0
 31 29  1  0  0  0  0
 33 32  1  0  0  0  0
 34 31  1  0  0  0  0
 34 35  2  0  0  0  0
 35 30  1  0  0  0  0
 36 54  1  6  0  0  0
 36  1  1  0  0  0  0
 37 38  2  0  0  0  0
 38 36  1  0  0  0  0
 39 37  1  0  0  0  0
 40 41  1  0  0  0  0
 41 38  1  0  0  0  0
 42 41  1  0  0  0  0
 43 42  1  0  0  0  0
 44 45  1  1  0  0  0
 44 43  1  0  0  0  0
 44 46  1  0  0  0  0
 47 46  1  0  0  0  0
 48 47  1  0  0  0  0
 48 49  1  1  0  0  0
 50 51  1  0  0  0  0
 50 48  1  0  0  0  0
 51 52  1  0  0  0  0
 53 54  1  0  0  0  0
M  END
>  <MODEL>
6

>  <REMARK>
 VINA RESULT:      -7.1      2.746     10.025
  Name = 
  20 active torsions:
  status: ('A' for Active; 'I' for Inactive)
    1  A    between atoms: C_1  and  C_24
    2  A    between atoms: C_2  and  C_35
    3  A    between atoms: C_3  and  C_11
    4  A    between atoms: C_3  and  C_38
    5  A    between atoms: C_8  and  C_53
    6  A    between atoms: C_9  and  N_33
    7  A    between atoms: C_9  and  C_43
    8  A    between atoms: C_11  and  C_12
    9  A    between atoms: C_13  and  S_29
   10  A    between atoms: C_15  and  C_43
   11  A    between atoms: C_15  and  O_50
   12  A    between atoms: C_17  and  N_33
   13  A    between atoms: C_17  and  C_34
   14  A    between atoms: C_19  and  C_24
   15  A    between atoms: C_23  and  C_35
   16  A    between atoms: C_23  and  C_53
   17  A    between atoms: C_24  and  C_34
   18  A    between atoms: S_29  and  N_51
   19  A    between atoms: C_34  and  C_52
   20  A    between atoms: C_38  and  O_50
                            x       y       z     vdW  Elec       q    Type
                         _______ _______ _______ _____ _____    ______ ____

>  <TORSDO>
F 20

$$$$
=
 OpenBabel11042411133D

 54 58  0  0  1  0  0  0  0  0999 V2000
  191.0380  174.8690  137.3280 C   0  0  1  0  0  3  0  0  0  0  0  0
  192.5280  174.8550  137.1380 C   0  0  0  0  0  0  0  0  0  0  0  0
  197.5150  175.3320  137.6010 N   0  0  0  0  0  2  0  0  0  0  0  0
  195.3030  174.8180  136.6620 C   0  0  0  0  0  0  0  0  0  0  0  0
  195.1080  176.9630  135.3810 C   0  0  0  0  0  3  0  0  0  0  0  0
  194.5030  175.8670  136.1610 C   0  0  0  0  0  0  0  0  0  0  0  0
  197.2450  175.6980  135.1750 C   0  0  0  0  0  2  0  0  0  0  0  0
  193.1280  175.8830  136.4070 C   0  0  0  0  0  3  0  0  0  0  0  0
  194.6890  173.7660  137.3790 C   0  0  0  0  0  0  0  0  0  0  0  0
  195.4250  172.6930  137.8680 O   0  0  0  0  0  1  0  0  0  0  0  0
  197.7500  173.9990  137.0170 C   0  0  0  0  0  2  0  0  0  0  0  0
  196.7900  174.9040  136.3970 C   0  0  1  0  0  0  0  0  0  0  0  0
  193.3090  173.7900  137.6050 C   0  0  0  0  0  3  0  0  0  0  0  0
  196.3760  176.9090  134.9570 C   0  0  0  0  0  3  0  0  0  0  0  0
  190.6410  176.0980  138.0860 C   0  0  0  0  0  0  0  0  0  0  0  0
  189.9480  176.9970  137.5300 O   0  0  0  0  0  0  0  0  0  0  0  0
  191.0950  176.2630  139.4280 N   0  0  0  0  0  2  0  0  0  0  0  0
  191.0030  177.8220  140.2510 S   0  0  0  0  0  0  0  0  0  0  0  0
  189.2440  176.9160  142.0650 C   0  0  0  0  0  3  0  0  0  0  0  0
  189.1760  176.7320  144.5390 C   0  0  0  0  0  0  0  0  0  0  0  0
  190.5460  177.0450  141.7950 C   0  0  0  0  0  0  0  0  0  0  0  0
  188.7080  176.1620  143.2390 C   0  0  0  0  0  2  0  0  0  0  0  0
  191.5940  176.4000  143.9920 C   0  0  0  0  0  3  0  0  0  0  0  0
  191.6270  176.5280  142.6590 C   0  0  0  0  0  3  0  0  0  0  0  0
  190.4660  176.7490  144.8790 C   0  0  0  0  0  3  0  0  0  0  0  0
  188.1610  177.1320  145.5590 C   0  0  0  0  0  2  0  0  0  0  0  0
  187.3370  178.3200  145.0830 C   0  0  0  0  0  2  0  0  0  0  0  0
  185.8660  178.1150  145.4180 C   0  0  0  0  0  2  0  0  0  0  0  0
  184.9970  178.5680  144.2940 C   0  0  0  0  0  0  0  0  0  0  0  0
  183.1390  178.6750  141.8200 C   0  0  0  0  0  3  0  0  0  0  0  0
  183.8960  179.5290  144.5970 C   0  0  0  0  0  2  0  0  0  0  0  0
  184.4610  178.4660  141.8490 C   0  0  0  0  0  3  0  0  0  0  0  0
  185.2690  178.1630  143.0470 C   0  0  0  0  0  3  0  0  0  0  0  0
  182.5590  178.9810  144.2270 C   0  0  0  0  0  3  0  0  0  0  0  0
  182.2270  178.6480  142.9790 C   0  0  0  0  0  3  0  0  0  0  0  0
  190.2500  174.6960  136.0150 C   0  0  2  0  0  3  0  0  0  0  0  0
  188.8000  173.0920  137.1830 C   0  0  0  0  0  3  0  0  0  0  0  0
  188.9110  174.0350  136.2350 C   0  0  0  0  0  0  0  0  0  0  0  0
  187.5960  172.4750  137.4940 O   0  0  0  0  0  1  0  0  0  0  0  0
  187.0700  173.5560  134.7560 O   0  0  0  0  0  1  0  0  0  0  0  0
  187.7890  174.4710  135.4440 N   0  0  0  0  0  0  0  0  0  0  0  0
  187.3270  175.8540  135.4220 C   0  0  0  0  0  2  0  0  0  0  0  0
  185.8360  175.9160  135.1230 C   0  0  0  0  0  2  0  0  0  0  0  0
  185.1680  177.0130  135.9340 C   0  0  2  0  0  3  0  0  0  0  0  0
  186.1560  177.6040  136.9240 C   0  0  0  0  0  1  0  0  0  0  0  0
  184.0790  176.4830  136.6250 O   0  0  0  0  0  0  0  0  0  0  0  0
  183.1220  177.5050  136.6140 C   0  0  0  0  0  2  0  0  0  0  0  0
  182.4260  177.5840  137.9660 C   0  0  1  0  0  3  0  0  0  0  0  0
  183.0490  176.7390  138.8850 O   0  0  0  0  0  1  0  0  0  0  0  0
  182.3910  179.0230  138.4860 C   0  0  0  0  0  2  0  0  0  0  0  0
  181.5390  179.9470  137.6220 C   0  0  0  0  0  2  0  0  0  0  0  0
  181.3720  181.2950  138.2930 C   0  0  0  0  0  1  0  0  0  0  0  0
  190.9480  172.5570  135.1990 O   0  0  0  0  0  1  0  0  0  0  0  0
  191.0610  173.9290  134.9740 C   0  0  0  0  0  2  0  0  0  0  0  0
  1 15  1  6  0  0  0
  2  1  1  0  0  0  0
  2 13  1  0  0  0  0
  4  9  1  0  0  0  0
  5  6  1  0  0  0  0
  6  8  1  0  0  0  0
  6  4  2  0  0  0  0
  8  2  2  0  0  0  0
  9 13  2  0  0  0  0
  9 10  1  0  0  0  0
 11  3  1  0  0  0  0
 12  7  1  6  0  0  0
 12  4  1  0  0  0  0
 12 11  1  0  0  0  0
 12  3  1  0  0  0  0
 14  7  1  0  0  0  0
 14  5  2  0  0  0  0
 15 17  1  0  0  0  0
 16 15  2  0  0  0  0
 17 18  1  0  0  0  0
 18 21  1  0  0  0  0
 19 22  1  0  0  0  0
 20 25  2  0  0  0  0
 20 26  1  0  0  0  0
 21 19  2  0  0  0  0
 21 24  1  0  0  0  0
 22 20  1  0  0  0  0
 23 25  1  0  0  0  0
 24 23  2  0  0  0  0
 27 28  1  0  0  0  0
 27 26  1  0  0  0  0
 29 31  1  0  0  0  0
 29 28  1  0  0  0  0
 30 32  2  0  0  0  0
 30 35  1  0  0  0  0
 32 33  1  0  0  0  0
 33 29  2  0  0  0  0
 34 31  1  0  0  0  0
 35 34  2  0  0  0  0
 36 54  1  6  0  0  0
 36 38  1  0  0  0  0
 36  1  1  0  0  0  0
 37 39  1  0  0  0  0
 38 37  2  0  0  0  0
 40 41  1  0  0  0  0
 41 38  1  0  0  0  0
 42 41  1  0  0  0  0
 43 42  1  0  0  0  0
 43 44  1  0  0  0  0
 44 46  1  0  0  0  0
 44 45  1  1  0  0  0
 47 46  1  0  0  0  0
 47 48  1  0  0  0  0
 48 50  1  0  0  0  0
 48 49  1  1  0  0  0
 51 52  1  0  0  0  0
 51 50  1  0  0  0  0
 54 53  1  0  0  0  0
M  END
>  <MODEL>
7

>  <REMARK>
 VINA RESULT:      -7.1      1.857      3.095
  Name = 
  20 active torsions:
  status: ('A' for Active; 'I' for Inactive)
    1  A    between atoms: C_1  and  C_24
    2  A    between atoms: C_2  and  C_35
    3  A    between atoms: C_3  and  C_11
    4  A    between atoms: C_3  and  C_38
    5  A    between atoms: C_8  and  C_53
    6  A    between atoms: C_9  and  N_33
    7  A    between atoms: C_9  and  C_43
    8  A    between atoms: C_11  and  C_12
    9  A    between atoms: C_13  and  S_29
   10  A    between atoms: C_15  and  C_43
   11  A    between atoms: C_15  and  O_50
   12  A    between atoms: C_17  and  N_33
   13  A    between atoms: C_17  and  C_34
   14  A    between atoms: C_19  and  C_24
   15  A    between atoms: C_23  and  C_35
   16  A    between atoms: C_23  and  C_53
   17  A    between atoms: C_24  and  C_34
   18  A    between atoms: S_29  and  N_51
   19  A    between atoms: C_34  and  C_52
   20  A    between atoms: C_38  and  O_50
                            x       y       z     vdW  Elec       q    Type
                         _______ _______ _______ _____ _____    ______ ____

>  <TORSDO>
F 20

$$$$
=
 OpenBabel11042411133D

 54 58  0  0  1  0  0  0  0  0999 V2000
  189.2400  176.4450  138.4080 C   0  0  1  0  0  3  0  0  0  0  0  0
  190.4970  175.7700  137.9400 C   0  0  0  0  0  0  0  0  0  0  0  0
  194.6610  174.3530  135.4980 N   0  0  0  0  0  2  0  0  0  0  0  0
  192.8200  174.4050  137.1250 C   0  0  0  0  0  0  0  0  0  0  0  0
  191.4060  172.7350  135.9020 C   0  0  0  0  0  3  0  0  0  0  0  0
  191.5440  173.9410  136.7400 C   0  0  0  0  0  0  0  0  0  0  0  0
  193.8070  172.1640  136.2490 C   0  0  0  0  0  2  0  0  0  0  0  0
  190.3950  174.6280  137.1420 C   0  0  0  0  0  3  0  0  0  0  0  0
  192.9180  175.5450  137.9530 C   0  0  0  0  0  0  0  0  0  0  0  0
  194.1490  176.0250  138.3860 O   0  0  0  0  0  1  0  0  0  0  0  0
  195.3830  174.1110  136.7600 C   0  0  0  0  0  2  0  0  0  0  0  0
  194.0130  173.6340  136.6030 C   0  0  1  0  0  0  0  0  0  0  0  0
  191.7590  176.2130  138.3590 C   0  0  0  0  0  3  0  0  0  0  0  0
  192.4470  171.9350  135.6430 C   0  0  0  0  0  3  0  0  0  0  0  0
  189.5580  177.3660  139.5450 C   0  0  0  0  0  0  0  0  0  0  0  0
  189.4560  178.6170  139.4040 O   0  0  0  0  0  0  0  0  0  0  0  0
  190.0240  176.8140  140.7760 N   0  0  0  0  0  2  0  0  0  0  0  0
  190.7770  177.8200  142.0150 S   0  0  0  0  0  0  0  0  0  0  0  0
  188.2180  177.5870  142.7950 C   0  0  0  0  0  3  0  0  0  0  0  0
  186.9720  177.8880  144.9200 C   0  0  0  0  0  0  0  0  0  0  0  0
  189.4850  177.4390  143.1910 C   0  0  0  0  0  0  0  0  0  0  0  0
  187.0360  177.1720  143.6100 C   0  0  0  0  0  2  0  0  0  0  0  0
  189.2090  177.0510  145.6640 C   0  0  0  0  0  3  0  0  0  0  0  0
  189.8840  176.9180  144.5150 C   0  0  0  0  0  3  0  0  0  0  0  0
  187.9200  177.7480  145.8490 C   0  0  0  0  0  3  0  0  0  0  0  0
  185.7320  178.6410  145.2710 C   0  0  0  0  0  2  0  0  0  0  0  0
  184.5180  178.0780  144.5460 C   0  0  0  0  0  2  0  0  0  0  0  0
  183.3180  178.9990  144.7210 C   0  0  0  0  0  2  0  0  0  0  0  0
  182.4790  179.0200  143.4880 C   0  0  0  0  0  0  0  0  0  0  0  0
  181.0510  178.2820  140.8430 C   0  0  0  0  0  3  0  0  0  0  0  0
  181.0520  179.4370  143.6140 C   0  0  0  0  0  2  0  0  0  0  0  0
  182.3270  178.6480  141.0160 C   0  0  0  0  0  3  0  0  0  0  0  0
  183.0400  178.7380  142.3060 C   0  0  0  0  0  3  0  0  0  0  0  0
  180.1160  178.3710  143.1540 C   0  0  0  0  0  3  0  0  0  0  0  0
  180.1020  177.9000  141.9060 C   0  0  0  0  0  3  0  0  0  0  0  0
  188.4590  177.1410  137.2760 C   0  0  2  0  0  3  0  0  0  0  0  0
  186.0170  177.2980  137.5020 C   0  0  0  0  0  3  0  0  0  0  0  0
  187.0720  176.5710  137.1050 C   0  0  0  0  0  0  0  0  0  0  0  0
  184.7050  176.8780  137.3270 O   0  0  0  0  0  1  0  0  0  0  0  0
  187.3230  175.1180  135.1990 O   0  0  0  0  0  1  0  0  0  0  0  0
  186.9310  175.2790  136.4830 N   0  0  0  0  0  0  0  0  0  0  0  0
  186.4690  174.1000  137.2060 C   0  0  0  0  0  2  0  0  0  0  0  0
  185.5850  173.2390  136.3160 C   0  0  0  0  0  2  0  0  0  0  0  0
  184.2170  173.0390  136.9440 C   0  0  2  0  0  3  0  0  0  0  0  0
  183.8270  171.5720  136.8860 C   0  0  0  0  0  1  0  0  0  0  0  0
  183.2730  173.7980  136.2540 O   0  0  0  0  0  0  0  0  0  0  0  0
  182.0450  173.1960  136.5550 C   0  0  0  0  0  2  0  0  0  0  0  0
  180.9090  174.1820  136.3270 C   0  0  1  0  0  3  0  0  0  0  0  0
  179.6820  173.5920  136.6360 O   0  0  0  0  0  1  0  0  0  0  0  0
  181.1160  175.4620  137.1390 C   0  0  0  0  0  2  0  0  0  0  0  0
  180.9810  175.2430  138.6410 C   0  0  0  0  0  2  0  0  0  0  0  0
  182.3100  175.4720  139.3320 C   0  0  0  0  0  1  0  0  0  0  0  0
  188.9530  178.2320  135.2040 O   0  0  0  0  0  1  0  0  0  0  0  0
  189.2250  177.0910  135.9570 C   0  0  0  0  0  2  0  0  0  0  0  0
  1 15  1  1  0  0  0
  2 13  1  0  0  0  0
  2  1  1  0  0  0  0
  3 12  1  0  0  0  0
  3 11  1  0  0  0  0
  4  9  1  0  0  0  0
  5  6  1  0  0  0  0
  6  4  2  0  0  0  0
  6  8  1  0  0  0  0
  8  2  2  0  0  0  0
  9 13  2  0  0  0  0
  9 10  1  0  0  0  0
 12  7  1  6  0  0  0
 12 11  1  0  0  0  0
 12  4  1  0  0  0  0
 14  5  2  0  0  0  0
 14  7  1  0  0  0  0
 15 17  1  0  0  0  0
 16 15  2  0  0  0  0
 17 18  1  0  0  0  0
 18 21  1  0  0  0  0
 19 21  2  0  0  0  0
 19 22  1  0  0  0  0
 20 26  1  0  0  0  0
 20 25  2  0  0  0  0
 21 24  1  0  0  0  0
 22 20  1  0  0  0  0
 23 25  1  0  0  0  0
 24 23  2  0  0  0  0
 27 28  1  0  0  0  0
 27 26  1  0  0  0  0
 29 31  1  0  0  0  0
 29 28  1  0  0  0  0
 30 32  2  0  0  0  0
 30 35  1  0  0  0  0
 32 33  1  0  0  0  0
 33 29  2  0  0  0  0
 34 31  1  0  0  0  0
 35 34  2  0  0  0  0
 36 54  1  6  0  0  0
 36  1  1  0  0  0  0
 38 36  1  0  0  0  0
 38 37  2  0  0  0  0
 39 37  1  0  0  0  0
 40 41  1  0  0  0  0
 41 38  1  0  0  0  0
 41 42  1  0  0  0  0
 43 44  1  0  0  0  0
 43 42  1  0  0  0  0
 44 45  1  6  0  0  0
 46 47  1  0  0  0  0
 46 44  1  0  0  0  0
 48 47  1  0  0  0  0
 48 49  1  1  0  0  0
 48 50  1  0  0  0  0
 50 51  1  0  0  0  0
 51 52  1  0  0  0  0
 53 54  1  0  0  0  0
M  END
>  <MODEL>
8

>  <REMARK>
 VINA RESULT:      -7.0      2.362      3.868
  Name = 
  20 active torsions:
  status: ('A' for Active; 'I' for Inactive)
    1  A    between atoms: C_1  and  C_24
    2  A    between atoms: C_2  and  C_35
    3  A    between atoms: C_3  and  C_11
    4  A    between atoms: C_3  and  C_38
    5  A    between atoms: C_8  and  C_53
    6  A    between atoms: C_9  and  N_33
    7  A    between atoms: C_9  and  C_43
    8  A    between atoms: C_11  and  C_12
    9  A    between atoms: C_13  and  S_29
   10  A    between atoms: C_15  and  C_43
   11  A    between atoms: C_15  and  O_50
   12  A    between atoms: C_17  and  N_33
   13  A    between atoms: C_17  and  C_34
   14  A    between atoms: C_19  and  C_24
   15  A    between atoms: C_23  and  C_35
   16  A    between atoms: C_23  and  C_53
   17  A    between atoms: C_24  and  C_34
   18  A    between atoms: S_29  and  N_51
   19  A    between atoms: C_34  and  C_52
   20  A    between atoms: C_38  and  O_50
                            x       y       z     vdW  Elec       q    Type
                         _______ _______ _______ _____ _____    ______ ____

>  <TORSDO>
F 20

$$$$
=
 OpenBabel11042411133D

 54 58  0  0  1  0  0  0  0  0999 V2000
  190.6280  174.9350  137.3810 C   0  0  1  0  0  3  0  0  0  0  0  0
  192.1080  174.9170  137.1310 C   0  0  0  0  0  0  0  0  0  0  0  0
  196.7310  174.4130  135.2080 N   0  0  0  0  0  2  0  0  0  0  0  0
  194.9020  174.8850  136.7800 C   0  0  0  0  0  0  0  0  0  0  0  0
  195.0150  172.6550  137.9190 C   0  0  0  0  0  3  0  0  0  0  0  0
  194.2470  173.8120  137.4220 C   0  0  0  0  0  0  0  0  0  0  0  0
  197.1610  173.8750  137.5770 C   0  0  0  0  0  2  0  0  0  0  0  0
  192.8600  173.8310  137.5860 C   0  0  0  0  0  3  0  0  0  0  0  0
  194.1430  175.9940  136.3440 C   0  0  0  0  0  0  0  0  0  0  0  0
  194.7410  177.0900  135.7340 O   0  0  0  0  0  1  0  0  0  0  0  0
  197.1680  175.6970  135.7840 C   0  0  0  0  0  2  0  0  0  0  0  0
  196.3990  174.7610  136.5960 C   0  0  1  0  0  0  0  0  0  0  0  0
  192.7560  176.0040  136.5280 C   0  0  0  0  0  3  0  0  0  0  0  0
  196.3530  172.6630  137.9590 C   0  0  0  0  0  3  0  0  0  0  0  0
  190.2760  176.1190  138.2270 C   0  0  0  0  0  0  0  0  0  0  0  0
  189.4000  176.9430  137.8430 O   0  0  0  0  0  0  0  0  0  0  0  0
  190.9780  176.3310  139.4520 N   0  0  0  0  0  2  0  0  0  0  0  0
  190.9050  177.8740  140.3050 S   0  0  0  0  0  0  0  0  0  0  0  0
  189.2270  177.1280  142.2640 C   0  0  0  0  0  3  0  0  0  0  0  0
  189.4000  176.7730  144.7140 C   0  0  0  0  0  0  0  0  0  0  0  0
  190.4950  177.0680  141.8470 C   0  0  0  0  0  0  0  0  0  0  0  0
  188.7040  176.3850  143.4500 C   0  0  0  0  0  2  0  0  0  0  0  0
  191.6540  176.1000  143.8630 C   0  0  0  0  0  3  0  0  0  0  0  0
  191.5620  176.3210  142.5450 C   0  0  0  0  0  3  0  0  0  0  0  0
  190.7040  176.5580  144.8970 C   0  0  0  0  0  3  0  0  0  0  0  0
  188.5840  177.2530  145.8690 C   0  0  0  0  0  2  0  0  0  0  0  0
  187.5290  178.2550  145.4230 C   0  0  0  0  0  2  0  0  0  0  0  0
  186.1640  177.5850  145.3330 C   0  0  0  0  0  2  0  0  0  0  0  0
  185.3140  178.2490  144.3030 C   0  0  0  0  0  0  0  0  0  0  0  0
  183.4620  178.8300  141.8920 C   0  0  0  0  0  3  0  0  0  0  0  0
  184.2520  179.1900  144.7660 C   0  0  0  0  0  2  0  0  0  0  0  0
  184.7740  178.5670  141.8780 C   0  0  0  0  0  3  0  0  0  0  0  0
  185.5690  178.0410  143.0060 C   0  0  0  0  0  3  0  0  0  0  0  0
  182.8940  178.7630  144.3210 C   0  0  0  0  0  3  0  0  0  0  0  0
  182.5490  178.6500  143.0370 C   0  0  0  0  0  3  0  0  0  0  0  0
  189.7860  174.8500  136.0930 C   0  0  2  0  0  3  0  0  0  0  0  0
  188.3100  173.2080  137.1720 C   0  0  0  0  0  3  0  0  0  0  0  0
  188.4210  174.2550  136.3410 C   0  0  0  0  0  0  0  0  0  0  0  0
  187.0890  172.6360  137.5040 O   0  0  0  0  0  1  0  0  0  0  0  0
  186.3620  174.0720  135.1030 O   0  0  0  0  0  1  0  0  0  0  0  0
  187.2800  174.8620  135.7050 N   0  0  0  0  0  0  0  0  0  0  0  0
  187.0130  176.2940  135.7590 C   0  0  0  0  0  2  0  0  0  0  0  0
  185.5490  176.5780  135.4560 C   0  0  0  0  0  2  0  0  0  0  0  0
  184.8560  177.1850  136.6640 C   0  0  2  0  0  3  0  0  0  0  0  0
  185.8850  177.7760  137.6110 C   0  0  0  0  0  1  0  0  0  0  0  0
  184.1270  176.1990  137.3270 O   0  0  0  0  0  0  0  0  0  0  0  0
  183.3060  175.6410  136.3390 C   0  0  0  0  0  2  0  0  0  0  0  0
  182.6840  174.3470  136.8450 C   0  0  1  0  0  3  0  0  0  0  0  0
  183.6780  173.4600  137.2630 O   0  0  0  0  0  1  0  0  0  0  0  0
  181.6850  174.6170  137.9720 C   0  0  0  0  0  2  0  0  0  0  0  0
  180.7620  175.7940  137.6790 C   0  0  0  0  0  2  0  0  0  0  0  0
  180.6130  176.6690  138.9070 C   0  0  0  0  0  1  0  0  0  0  0  0
  190.3330  172.7060  135.1820 O   0  0  0  0  0  1  0  0  0  0  0  0
  190.5170  174.0760  135.0000 C   0  0  0  0  0  2  0  0  0  0  0  0
  1 15  1  6  0  0  0
  2  1  1  0  0  0  0
  2  8  1  0  0  0  0
  3 11  1  0  0  0  0
  3 12  1  0  0  0  0
  4  6  1  0  0  0  0
  5 14  2  0  0  0  0
  6  8  2  0  0  0  0
  6  5  1  0  0  0  0
  7 14  1  0  0  0  0
  9 13  1  0  0  0  0
  9  4  2  0  0  0  0
 10  9  1  0  0  0  0
 12 11  1  1  0  0  0
 12  4  1  0  0  0  0
 12  7  1  0  0  0  0
 13  2  2  0  0  0  0
 15 17  1  0  0  0  0
 16 15  2  0  0  0  0
 17 18  1  0  0  0  0
 18 21  1  0  0  0  0
 19 22  1  0  0  0  0
 20 25  2  0  0  0  0
 20 26  1  0  0  0  0
 21 19  2  0  0  0  0
 21 24  1  0  0  0  0
 22 20  1  0  0  0  0
 23 25  1  0  0  0  0
 24 23  2  0  0  0  0
 27 26  1  0  0  0  0
 28 27  1  0  0  0  0
 29 31  1  0  0  0  0
 29 28  1  0  0  0  0
 30 35  1  0  0  0  0
 32 30  2  0  0  0  0
 32 33  1  0  0  0  0
 33 29  2  0  0  0  0
 34 31  1  0  0  0  0
 35 34  2  0  0  0  0
 36 54  1  6  0  0  0
 36 38  1  0  0  0  0
 36  1  1  0  0  0  0
 37 39  1  0  0  0  0
 38 37  2  0  0  0  0
 40 41  1  0  0  0  0
 41 42  1  0  0  0  0
 41 38  1  0  0  0  0
 43 42  1  0  0  0  0
 43 44  1  0  0  0  0
 44 46  1  0  0  0  0
 44 45  1  1  0  0  0
 47 48  1  0  0  0  0
 47 46  1  0  0  0  0
 48 49  1  1  0  0  0
 48 50  1  0  0  0  0
 51 50  1  0  0  0  0
 51 52  1  0  0  0  0
 54 53  1  0  0  0  0
M  END
>  <MODEL>
9

>  <REMARK>
 VINA RESULT:      -6.8      2.493      3.673
  Name = 
  20 active torsions:
  status: ('A' for Active; 'I' for Inactive)
    1  A    between atoms: C_1  and  C_24
    2  A    between atoms: C_2  and  C_35
    3  A    between atoms: C_3  and  C_11
    4  A    between atoms: C_3  and  C_38
    5  A    between atoms: C_8  and  C_53
    6  A    between atoms: C_9  and  N_33
    7  A    between atoms: C_9  and  C_43
    8  A    between atoms: C_11  and  C_12
    9  A    between atoms: C_13  and  S_29
   10  A    between atoms: C_15  and  C_43
   11  A    between atoms: C_15  and  O_50
   12  A    between atoms: C_17  and  N_33
   13  A    between atoms: C_17  and  C_34
   14  A    between atoms: C_19  and  C_24
   15  A    between atoms: C_23  and  C_35
   16  A    between atoms: C_23  and  C_53
   17  A    between atoms: C_24  and  C_34
   18  A    between atoms: S_29  and  N_51
   19  A    between atoms: C_34  and  C_52
   20  A    between atoms: C_38  and  O_50
                            x       y       z     vdW  Elec       q    Type
                         _______ _______ _______ _____ _____    ______ ____

>  <TORSDO>
F 20

$$$$
