=
 OpenBabel11042409573D

 38 42  0  0  1  0  0  0  0  0999 V2000
  182.4750  179.1270  143.2390 C   0  0  0  0  0  3  0  0  0  0  0  0
  184.5350  178.6100  147.1200 N   0  0  0  0  0  1  0  0  0  0  0  0
  185.9690  177.9410  145.1450 C   0  0  0  0  0  0  0  0  0  0  0  0
  188.2780  177.0640  144.7440 C   0  0  0  0  0  0  0  0  0  0  0  0
  187.2370  177.4670  145.7780 C   0  0  0  0  0  3  0  0  0  0  0  0
  184.5130  178.3760  143.5260 N   0  0  0  0  0  0  0  0  0  0  0  0
  183.9520  178.6760  144.6750 C   0  0  0  0  0  0  0  0  0  0  0  0
  185.7540  177.9220  143.7780 C   0  0  2  0  0  3  0  0  0  0  0  0
  187.9950  177.0500  143.4040 C   0  0  0  0  0  0  0  0  0  0  0  0
  182.6960  179.1440  144.5860 N   0  0  0  0  0  0  0  0  0  0  0  0
  186.6660  177.5090  142.9080 C   0  0  0  0  0  3  0  0  0  0  0  0
  183.6110  178.6460  142.5720 C   0  0  0  0  0  0  0  0  0  0  0  0
  184.8000  178.4280  145.7330 C   0  0  0  0  0  0  0  0  0  0  0  0
  190.1590  177.0550  142.2560 C   0  0  0  0  0  0  0  0  0  0  0  0
  188.9700  176.5400  142.4200 C   0  0  0  0  0  3  0  0  0  0  0  0
  191.3520  177.5610  142.0890 C   0  0  0  0  0  0  0  0  0  0  0  0
  192.0480  178.2570  143.2080 C   0  0  0  0  0  2  0  0  0  0  0  0
  191.1580  179.3260  143.8150 C   0  0  0  0  0  1  0  0  0  0  0  0
  192.1110  177.5130  140.4720 S   0  0  0  0  0  0  0  0  0  0  0  0
  190.6830  176.7700  139.7470 N   0  0  0  0  0  0  0  0  0  0  0  0
  188.7100  177.2780  138.3940 C   0  0  0  0  0  2  0  0  0  0  0  0
  189.2160  176.2640  137.3720 C   0  0  1  0  0  3  0  0  0  0  0  0
  189.9070  177.8520  139.1450 C   0  0  0  0  0  2  0  0  0  0  0  0
  191.1590  175.8970  138.6760 C   0  0  0  0  0  2  0  0  0  0  0  0
  190.0220  175.2390  138.0330 N   0  0  0  0  0  2  0  0  0  0  0  0
  188.0360  175.6110  136.6820 C   0  0  0  0  0  1  0  0  0  0  0  0
  189.9860  177.0120  146.5770 C   0  0  0  0  0  1  0  0  0  0  0  0
  189.5210  176.6810  145.2750 O   0  0  0  0  0  0  0  0  0  0  0  0
  183.7950  178.4530  141.1160 C   0  0  0  0  0  0  0  0  0  0  0  0
  184.8480  178.8810  140.5760 O   0  0  0  0  0  0  0  0  0  0  0  0
  181.1930  179.7490  139.8370 C   0  0  0  0  0  1  0  0  0  0  0  0
  182.7910  176.4380  139.8940 C   0  0  0  0  0  3  0  0  0  0  0  0
  182.7840  177.7710  140.2730 C   0  0  0  0  0  0  0  0  0  0  0  0
  181.6500  176.2940  139.1270 C   0  0  0  0  0  0  0  0  0  0  0  0
  180.9910  177.4260  139.0360 O   0  0  0  0  0  0  0  0  0  0  0  0
  181.6460  178.3340  139.7130 C   0  0  0  0  0  0  0  0  0  0  0  0
  180.2430  174.4030  138.9520 O   0  0  0  0  0  0  0  0  0  0  0  0
  181.2250  175.0470  138.4970 C   0  0  0  0  0  3  0  0  0  0  0  0
  1 10  1  0  0  0  0
  3 13  2  0  0  0  0
  3  5  1  0  0  0  0
  4 28  1  0  0  0  0
  4  5  2  0  0  0  0
  6  8  1  0  0  0  0
  6  7  1  0  0  0  0
  7 13  1  0  0  0  0
  8 11  1  1  0  0  0
  8  3  1  0  0  0  0
  9  4  1  0  0  0  0
 10  7  2  0  0  0  0
 11  9  2  0  0  0  0
 12  1  2  0  0  0  0
 12  6  1  0  0  0  0
 13  2  1  0  0  0  0
 14 15  2  0  0  0  0
 15  9  1  0  0  0  0
 16 14  2  0  0  0  0
 16 17  1  0  0  0  0
 17 18  1  0  0  0  0
 19 16  1  0  0  0  0
 20 19  1  0  0  0  0
 21 23  1  0  0  0  0
 22 26  1  1  0  0  0
 22 25  1  0  0  0  0
 22 21  1  0  0  0  0
 23 20  1  0  0  0  0
 24 20  1  0  0  0  0
 25 24  1  0  0  0  0
 28 27  1  0  0  0  0
 29 12  1  0  0  0  0
 30 29  2  0  0  0  0
 32 33  1  0  0  0  0
 33 29  1  0  0  0  0
 34 32  2  0  0  0  0
 35 34  1  0  0  0  0
 35 36  1  0  0  0  0
 36 31  1  0  0  0  0
 36 33  2  0  0  0  0
 38 37  2  0  0  0  0
 38 34  1  0  0  0  0
M  END
>  <MODEL>
1

>  <REMARK>
 VINA RESULT:      -8.9      0.000      0.000
  Name = 
  8 active torsions:
  status: ('A' for Active; 'I' for Inactive)
    1  A    between atoms: N_4  and  S_35
    2  A    between atoms: C_6  and  O_38
    3  A    between atoms: C_10  and  C_23
    4  A    between atoms: C_10  and  C_29
    5  A    between atoms: C_12  and  C_25
    6  A    between atoms: C_18  and  C_28
    7  A    between atoms: C_26  and  C_36
    8  A    between atoms: S_35  and  C_36
                            x       y       z     vdW  Elec       q    Type
                         _______ _______ _______ _____ _____    ______ ____

>  <TORSDO>
F 8

$$$$
=
 OpenBabel11042409573D

 38 42  0  0  1  0  0  0  0  0999 V2000
  183.9660  179.3220  143.6430 C   0  0  0  0  0  3  0  0  0  0  0  0
  186.6080  178.1020  146.9760 N   0  0  0  0  0  1  0  0  0  0  0  0
  187.6100  177.6340  144.7000 C   0  0  0  0  0  0  0  0  0  0  0  0
  189.7230  176.6690  143.7690 C   0  0  0  0  0  0  0  0  0  0  0  0
  188.9180  176.9870  145.0210 C   0  0  0  0  0  3  0  0  0  0  0  0
  185.9440  178.4000  143.4480 N   0  0  0  0  0  0  0  0  0  0  0  0
  185.6200  178.5650  144.7110 C   0  0  0  0  0  0  0  0  0  0  0  0
  187.1620  177.8310  143.4050 C   0  0  2  0  0  3  0  0  0  0  0  0
  189.2130  176.8720  142.5130 C   0  0  0  0  0  0  0  0  0  0  0  0
  184.4170  179.1260  144.9170 N   0  0  0  0  0  0  0  0  0  0  0  0
  187.8670  177.4880  142.3350 C   0  0  0  0  0  3  0  0  0  0  0  0
  184.9200  178.8680  142.7210 C   0  0  0  0  0  0  0  0  0  0  0  0
  186.6110  178.1080  145.5520 C   0  0  0  0  0  0  0  0  0  0  0  0
  189.7230  176.9340  140.1180 C   0  0  0  0  0  0  0  0  0  0  0  0
  189.9510  176.4460  141.3090 C   0  0  0  0  0  3  0  0  0  0  0  0
  189.5040  177.4190  138.9260 C   0  0  0  0  0  0  0  0  0  0  0  0
  188.9590  178.7960  138.7510 C   0  0  0  0  0  2  0  0  0  0  0  0
  188.9520  179.1910  137.2850 C   0  0  0  0  0  1  0  0  0  0  0  0
  189.7560  176.3820  137.4920 S   0  0  0  0  0  0  0  0  0  0  0  0
  191.2670  175.7390  138.1370 N   0  0  0  0  0  0  0  0  0  0  0  0
  192.9610  174.0160  137.7540 C   0  0  0  0  0  2  0  0  0  0  0  0
  193.9950  175.1330  137.6410 C   0  0  1  0  0  3  0  0  0  0  0  0
  191.6020  174.5660  137.3330 C   0  0  0  0  0  2  0  0  0  0  0  0
  192.2920  176.7570  137.9080 C   0  0  0  0  0  2  0  0  0  0  0  0
  193.5760  176.2910  138.4280 N   0  0  0  0  0  2  0  0  0  0  0  0
  195.3330  174.6350  138.1460 C   0  0  0  0  0  1  0  0  0  0  0  0
  191.7360  176.2880  145.2110 C   0  0  0  0  0  1  0  0  0  0  0  0
  190.9980  176.1290  144.0060 O   0  0  0  0  0  0  0  0  0  0  0  0
  184.8310  178.8780  141.2430 C   0  0  0  0  0  0  0  0  0  0  0  0
  185.7200  179.4810  140.5870 O   0  0  0  0  0  0  0  0  0  0  0  0
  184.8640  177.9290  138.2120 C   0  0  0  0  0  1  0  0  0  0  0  0
  182.4890  177.8640  141.0190 C   0  0  0  0  0  3  0  0  0  0  0  0
  183.7340  178.2020  140.5110 C   0  0  0  0  0  0  0  0  0  0  0  0
  181.8380  177.2640  139.9570 C   0  0  0  0  0  0  0  0  0  0  0  0
  182.5980  177.2320  138.8880 O   0  0  0  0  0  0  0  0  0  0  0  0
  183.7450  177.7870  139.1870 C   0  0  0  0  0  0  0  0  0  0  0  0
  179.6000  177.2990  140.7160 O   0  0  0  0  0  0  0  0  0  0  0  0
  180.4770  176.7350  140.0110 C   0  0  0  0  0  3  0  0  0  0  0  0
  1 10  1  0  0  0  0
  3  5  1  0  0  0  0
  3 13  2  0  0  0  0
  4 28  1  0  0  0  0
  4  5  2  0  0  0  0
  6  7  1  0  0  0  0
  7 10  2  0  0  0  0
  7 13  1  0  0  0  0
  8 11  1  1  0  0  0
  8  6  1  0  0  0  0
  8  3  1  0  0  0  0
  9  4  1  0  0  0  0
 11  9  2  0  0  0  0
 12  6  1  0  0  0  0
 12  1  2  0  0  0  0
 13  2  1  0  0  0  0
 14 15  2  0  0  0  0
 15  9  1  0  0  0  0
 16 14  2  0  0  0  0
 17 16  1  0  0  0  0
 18 17  1  0  0  0  0
 19 20  1  0  0  0  0
 19 16  1  0  0  0  0
 22 21  1  0  0  0  0
 22 26  1  1  0  0  0
 22 25  1  0  0  0  0
 23 21  1  0  0  0  0
 23 20  1  0  0  0  0
 24 20  1  0  0  0  0
 24 25  1  0  0  0  0
 28 27  1  0  0  0  0
 29 12  1  0  0  0  0
 30 29  2  0  0  0  0
 31 36  1  0  0  0  0
 33 32  1  0  0  0  0
 33 29  1  0  0  0  0
 34 38  1  0  0  0  0
 34 32  2  0  0  0  0
 35 36  1  0  0  0  0
 35 34  1  0  0  0  0
 36 33  2  0  0  0  0
 38 37  2  0  0  0  0
M  END
>  <MODEL>
2

>  <REMARK>
 VINA RESULT:      -8.5      1.888      3.075
  Name = 
  8 active torsions:
  status: ('A' for Active; 'I' for Inactive)
    1  A    between atoms: N_4  and  S_35
    2  A    between atoms: C_6  and  O_38
    3  A    between atoms: C_10  and  C_23
    4  A    between atoms: C_10  and  C_29
    5  A    between atoms: C_12  and  C_25
    6  A    between atoms: C_18  and  C_28
    7  A    between atoms: C_26  and  C_36
    8  A    between atoms: S_35  and  C_36
                            x       y       z     vdW  Elec       q    Type
                         _______ _______ _______ _____ _____    ______ ____

>  <TORSDO>
F 8

$$$$
=
 OpenBabel11042409573D

 38 42  0  0  1  0  0  0  0  0999 V2000
  183.6970  178.8720  143.7430 C   0  0  0  0  0  3  0  0  0  0  0  0
  186.8720  177.7430  146.6100 N   0  0  0  0  0  1  0  0  0  0  0  0
  187.6370  177.6420  144.2010 C   0  0  0  0  0  0  0  0  0  0  0  0
  189.7270  177.0880  142.9420 C   0  0  0  0  0  0  0  0  0  0  0  0
  189.0500  177.1650  144.3020 C   0  0  0  0  0  3  0  0  0  0  0  0
  185.7410  178.2710  143.2320 N   0  0  0  0  0  0  0  0  0  0  0  0
  185.5570  178.2680  144.5330 C   0  0  0  0  0  0  0  0  0  0  0  0
  187.0090  177.8920  142.9930 C   0  0  2  0  0  3  0  0  0  0  0  0
  189.0430  177.3300  141.7800 C   0  0  0  0  0  0  0  0  0  0  0  0
  184.3250  178.6250  144.9310 N   0  0  0  0  0  0  0  0  0  0  0  0
  187.6150  177.7570  141.8200 C   0  0  0  0  0  3  0  0  0  0  0  0
  184.5810  178.6500  142.6770 C   0  0  0  0  0  0  0  0  0  0  0  0
  186.6970  177.8830  145.2050 C   0  0  0  0  0  0  0  0  0  0  0  0
  189.0080  177.1240  139.3400 C   0  0  0  0  0  0  0  0  0  0  0  0
  189.6760  177.1320  140.4620 C   0  0  0  0  0  3  0  0  0  0  0  0
  188.3470  177.1190  138.2130 C   0  0  0  0  0  0  0  0  0  0  0  0
  187.0680  177.8730  138.0750 C   0  0  0  0  0  2  0  0  0  0  0  0
  187.0630  178.6970  136.8000 C   0  0  0  0  0  1  0  0  0  0  0  0
  188.9260  176.1100  136.8560 S   0  0  0  0  0  0  0  0  0  0  0  0
  187.5430  175.0220  136.9840 N   0  0  0  0  0  0  0  0  0  0  0  0
  185.6090  174.1910  135.7380 C   0  0  0  0  0  2  0  0  0  0  0  0
  186.1730  172.7830  135.9050 C   0  0  1  0  0  3  0  0  0  0  0  0
  186.7650  175.1860  135.7590 C   0  0  0  0  0  2  0  0  0  0  0  0
  188.0760  173.6610  137.0090 C   0  0  0  0  0  2  0  0  0  0  0  0
  186.9790  172.7020  137.1220 N   0  0  0  0  0  2  0  0  0  0  0  0
  185.0350  171.7880  135.9840 C   0  0  0  0  0  1  0  0  0  0  0  0
  191.6760  175.8970  143.9730 C   0  0  0  0  0  1  0  0  0  0  0  0
  191.0830  176.7190  142.9770 O   0  0  0  0  0  0  0  0  0  0  0  0
  184.3090  178.7860  141.2290 C   0  0  0  0  0  0  0  0  0  0  0  0
  185.0030  179.5900  140.5540 O   0  0  0  0  0  0  0  0  0  0  0  0
  181.1830  179.3480  141.3000 C   0  0  0  0  0  1  0  0  0  0  0  0
  183.4320  176.8850  139.7520 C   0  0  0  0  0  3  0  0  0  0  0  0
  183.2490  178.0070  140.5460 C   0  0  0  0  0  0  0  0  0  0  0  0
  182.1550  176.5320  139.3580 C   0  0  0  0  0  0  0  0  0  0  0  0
  181.2590  177.3510  139.8570 O   0  0  0  0  0  0  0  0  0  0  0  0
  181.8830  178.2490  140.5750 C   0  0  0  0  0  0  0  0  0  0  0  0
  182.7100  174.9080  137.7330 O   0  0  0  0  0  0  0  0  0  0  0  0
  181.8360  175.3950  138.4980 C   0  0  0  0  0  3  0  0  0  0  0  0
  1 10  1  0  0  0  0
  3  5  1  0  0  0  0
  3 13  2  0  0  0  0
  4 28  1  0  0  0  0
  4  5  2  0  0  0  0
  6  7  1  0  0  0  0
  7 10  2  0  0  0  0
  7 13  1  0  0  0  0
  8 11  1  6  0  0  0
  8  6  1  0  0  0  0
  8  3  1  0  0  0  0
  9 11  2  0  0  0  0
  9  4  1  0  0  0  0
 12  6  1  0  0  0  0
 12  1  2  0  0  0  0
 13  2  1  0  0  0  0
 14 15  2  0  0  0  0
 15  9  1  0  0  0  0
 16 14  2  0  0  0  0
 17 16  1  0  0  0  0
 18 17  1  0  0  0  0
 19 20  1  0  0  0  0
 19 16  1  0  0  0  0
 20 24  1  0  0  0  0
 21 23  1  0  0  0  0
 21 22  1  0  0  0  0
 22 26  1  1  0  0  0
 22 25  1  0  0  0  0
 23 20  1  0  0  0  0
 24 25  1  0  0  0  0
 28 27  1  0  0  0  0
 29 12  1  0  0  0  0
 30 29  2  0  0  0  0
 32 33  1  0  0  0  0
 33 36  2  0  0  0  0
 33 29  1  0  0  0  0
 34 32  2  0  0  0  0
 34 35  1  0  0  0  0
 35 36  1  0  0  0  0
 36 31  1  0  0  0  0
 37 38  2  0  0  0  0
 38 34  1  0  0  0  0
M  END
>  <MODEL>
3

>  <REMARK>
 VINA RESULT:      -8.5      2.066      3.304
  Name = 
  8 active torsions:
  status: ('A' for Active; 'I' for Inactive)
    1  A    between atoms: N_4  and  S_35
    2  A    between atoms: C_6  and  O_38
    3  A    between atoms: C_10  and  C_23
    4  A    between atoms: C_10  and  C_29
    5  A    between atoms: C_12  and  C_25
    6  A    between atoms: C_18  and  C_28
    7  A    between atoms: C_26  and  C_36
    8  A    between atoms: S_35  and  C_36
                            x       y       z     vdW  Elec       q    Type
                         _______ _______ _______ _____ _____    ______ ____

>  <TORSDO>
F 8

$$$$
=
 OpenBabel11042409573D

 38 42  0  0  1  0  0  0  0  0999 V2000
  184.0540  178.6520  139.1310 C   0  0  0  0  0  3  0  0  0  0  0  0
  186.0780  177.4840  135.3750 N   0  0  0  0  0  1  0  0  0  0  0  0
  187.6500  177.5710  137.3560 C   0  0  0  0  0  0  0  0  0  0  0  0
  190.0750  177.1620  137.8170 C   0  0  0  0  0  0  0  0  0  0  0  0
  188.9770  177.2230  136.7650 C   0  0  0  0  0  2  0  0  0  0  0  0
  186.1830  178.1840  138.9060 N   0  0  0  0  0  0  0  0  0  0  0  0
  185.5480  178.0670  137.7620 C   0  0  0  0  0  0  0  0  0  0  0  0
  187.4770  177.8850  138.6930 C   0  0  0  0  0  0  0  0  0  0  0  0
  189.8420  177.5040  139.1230 C   0  0  0  0  0  0  0  0  0  0  0  0
  184.2340  178.3380  137.8140 N   0  0  0  0  0  0  0  0  0  0  0  0
  188.4710  177.8780  139.5720 C   0  0  0  0  0  3  0  0  0  0  0  0
  185.2740  178.5570  139.8170 C   0  0  0  0  0  0  0  0  0  0  0  0
  186.3990  177.6880  136.7460 C   0  0  0  0  0  0  0  0  0  0  0  0
  190.8160  177.1520  141.3430 C   0  0  0  0  0  0  0  0  0  0  0  0
  190.9390  177.5610  140.1080 C   0  0  0  0  0  3  0  0  0  0  0  0
  190.7030  176.7420  142.5770 C   0  0  0  0  0  0  0  0  0  0  0  0
  189.7230  175.6780  142.9410 C   0  0  0  0  0  2  0  0  0  0  0  0
  188.3030  176.2080  142.8770 C   0  0  0  0  0  1  0  0  0  0  0  0
  191.6540  177.5400  143.8630 S   0  0  0  0  0  0  0  0  0  0  0  0
  190.4550  177.1400  145.0940 N   0  0  0  0  0  0  0  0  0  0  0  0
  190.2140  176.6630  147.4810 C   0  0  0  0  0  2  0  0  0  0  0  0
  189.2620  177.8530  147.5690 C   0  0  1  0  0  3  0  0  0  0  0  0
  191.1900  176.9020  146.3340 C   0  0  0  0  0  2  0  0  0  0  0  0
  189.6240  178.3280  145.2760 C   0  0  0  0  0  2  0  0  0  0  0  0
  188.5970  178.0640  146.2840 N   0  0  0  0  0  2  0  0  0  0  0  0
  188.2230  177.5910  148.6390 C   0  0  0  0  0  1  0  0  0  0  0  0
  191.5440  175.9010  136.2260 C   0  0  0  0  0  1  0  0  0  0  0  0
  191.3330  176.7640  137.3360 O   0  0  0  0  0  0  0  0  0  0  0  0
  185.5320  178.8230  141.2500 C   0  0  0  0  0  0  0  0  0  0  0  0
  186.7050  179.0970  141.6150 O   0  0  0  0  0  0  0  0  0  0  0  0
  185.8620  178.1760  144.3430 C   0  0  0  0  0  1  0  0  0  0  0  0
  183.1070  179.0120  142.0560 C   0  0  0  0  0  3  0  0  0  0  0  0
  184.4570  178.7800  142.2700 C   0  0  0  0  0  0  0  0  0  0  0  0
  182.5300  178.8520  143.3010 C   0  0  0  0  0  0  0  0  0  0  0  0
  183.4290  178.5480  144.2080 O   0  0  0  0  0  0  0  0  0  0  0  0
  184.5980  178.4970  143.6220 C   0  0  0  0  0  0  0  0  0  0  0  0
  180.4070  178.0000  143.8960 O   0  0  0  0  0  0  0  0  0  0  0  0
  181.1040  179.0000  143.5800 C   0  0  0  0  0  3  0  0  0  0  0  0
  1 12  2  0  0  0  0
  2 13  1  0  0  0  0
  3  8  1  0  0  0  0
  4  9  2  0  0  0  0
  5  3  1  0  0  0  0
  5  4  1  0  0  0  0
  6 12  1  0  0  0  0
  7 10  2  0  0  0  0
  7  6  1  0  0  0  0
  8  6  1  0  0  0  0
  8 11  2  0  0  0  0
  9 11  1  0  0  0  0
  9 15  1  0  0  0  0
 10  1  1  0  0  0  0
 12 29  1  0  0  0  0
 13  3  2  0  0  0  0
 13  7  1  0  0  0  0
 14 16  2  0  0  0  0
 15 14  2  0  0  0  0
 16 17  1  0  0  0  0
 16 19  1  0  0  0  0
 18 17  1  0  0  0  0
 19 20  1  0  0  0  0
 20 24  1  0  0  0  0
 20 23  1  0  0  0  0
 21 22  1  0  0  0  0
 22 26  1  1  0  0  0
 23 21  1  0  0  0  0
 24 25  1  0  0  0  0
 25 22  1  0  0  0  0
 27 28  1  0  0  0  0
 28  4  1  0  0  0  0
 29 30  2  0  0  0  0
 29 33  1  0  0  0  0
 32 33  1  0  0  0  0
 32 34  2  0  0  0  0
 33 36  2  0  0  0  0
 34 38  1  0  0  0  0
 34 35  1  0  0  0  0
 36 35  1  0  0  0  0
 36 31  1  0  0  0  0
 38 37  2  0  0  0  0
M  END
>  <MODEL>
4

>  <REMARK>
 VINA RESULT:      -8.4      2.973      6.611
  Name = 
  8 active torsions:
  status: ('A' for Active; 'I' for Inactive)
    1  A    between atoms: N_4  and  S_35
    2  A    between atoms: C_6  and  O_38
    3  A    between atoms: C_10  and  C_23
    4  A    between atoms: C_10  and  C_29
    5  A    between atoms: C_12  and  C_25
    6  A    between atoms: C_18  and  C_28
    7  A    between atoms: C_26  and  C_36
    8  A    between atoms: S_35  and  C_36
                            x       y       z     vdW  Elec       q    Type
                         _______ _______ _______ _____ _____    ______ ____

>  <TORSDO>
F 8

$$$$
=
 OpenBabel11042409573D

 38 42  0  0  1  0  0  0  0  0999 V2000
  185.6540  177.2970  135.5520 C   0  0  0  0  0  3  0  0  0  0  0  0
  181.7110  176.4730  137.3820 N   0  0  0  0  0  1  0  0  0  0  0  0
  183.3370  177.5580  138.9890 C   0  0  0  0  0  0  0  0  0  0  0  0
  183.3530  178.3310  141.3690 C   0  0  0  0  0  0  0  0  0  0  0  0
  182.5630  177.6440  140.2650 C   0  0  0  0  0  3  0  0  0  0  0  0
  185.0750  177.7390  137.6190 N   0  0  0  0  0  0  0  0  0  0  0  0
  184.0830  177.1900  136.9550 C   0  0  0  0  0  0  0  0  0  0  0  0
  184.6510  177.9790  138.8730 C   0  0  2  0  0  3  0  0  0  0  0  0
  184.6590  178.7080  141.1940 C   0  0  0  0  0  0  0  0  0  0  0  0
  184.3570  176.8870  135.6760 N   0  0  0  0  0  0  0  0  0  0  0  0
  185.3280  178.5220  139.8760 C   0  0  0  0  0  3  0  0  0  0  0  0
  186.1060  177.8310  136.7680 C   0  0  0  0  0  0  0  0  0  0  0  0
  182.9640  177.0430  137.7460 C   0  0  0  0  0  0  0  0  0  0  0  0
  186.1210  178.5160  143.1510 C   0  0  0  0  0  0  0  0  0  0  0  0
  185.4530  179.2600  142.3090 C   0  0  0  0  0  3  0  0  0  0  0  0
  186.7950  177.7810  143.9940 C   0  0  0  0  0  0  0  0  0  0  0  0
  187.3090  176.4390  143.5930 C   0  0  0  0  0  2  0  0  0  0  0  0
  188.4250  176.5730  142.5730 C   0  0  0  0  0  1  0  0  0  0  0  0
  187.0080  178.3400  145.6780 S   0  0  0  0  0  0  0  0  0  0  0  0
  188.4040  177.2890  145.9230 N   0  0  0  0  0  0  0  0  0  0  0  0
  190.8480  177.2560  145.8160 C   0  0  0  0  0  2  0  0  0  0  0  0
  190.8550  176.8770  147.2940 C   0  0  1  0  0  3  0  0  0  0  0  0
  189.5820  178.0550  145.5230 C   0  0  0  0  0  2  0  0  0  0  0  0
  188.4920  177.0330  147.3600 C   0  0  0  0  0  2  0  0  0  0  0  0
  189.6290  176.1570  147.6370 N   0  0  0  0  0  2  0  0  0  0  0  0
  192.0550  176.0000  147.5840 C   0  0  0  0  0  1  0  0  0  0  0  0
  181.3840  179.1450  142.6870 C   0  0  0  0  0  1  0  0  0  0  0  0
  182.6520  178.5130  142.5730 O   0  0  0  0  0  0  0  0  0  0  0  0
  187.4470  178.3760  137.0770 C   0  0  0  0  0  0  0  0  0  0  0  0
  187.6490  179.6090  136.9290 O   0  0  0  0  0  0  0  0  0  0  0  0
  188.8880  178.5280  139.9040 C   0  0  0  0  0  1  0  0  0  0  0  0
  189.1750  176.4980  136.8520 C   0  0  0  0  0  3  0  0  0  0  0  0
  188.5590  177.5200  137.5560 C   0  0  0  0  0  0  0  0  0  0  0  0
  190.1380  176.0170  137.7190 C   0  0  0  0  0  0  0  0  0  0  0  0
  190.1280  176.6750  138.8550 O   0  0  0  0  0  0  0  0  0  0  0  0
  189.1910  177.5850  138.7900 C   0  0  0  0  0  0  0  0  0  0  0  0
  190.7150  173.7260  137.6350 O   0  0  0  0  0  0  0  0  0  0  0  0
  191.0530  174.9190  137.4170 C   0  0  0  0  0  3  0  0  0  0  0  0
  1 10  1  0  0  0  0
  1 12  2  0  0  0  0
  2 13  1  0  0  0  0
  3  5  1  0  0  0  0
  4 28  1  0  0  0  0
  5  4  2  0  0  0  0
  6  8  1  0  0  0  0
  7  6  1  0  0  0  0
  7 13  1  0  0  0  0
  8  3  1  0  0  0  0
  8 11  1  1  0  0  0
  9  4  1  0  0  0  0
  9 15  1  0  0  0  0
 10  7  2  0  0  0  0
 11  9  2  0  0  0  0
 12 29  1  0  0  0  0
 12  6  1  0  0  0  0
 13  3  2  0  0  0  0
 14 16  2  0  0  0  0
 15 14  2  0  0  0  0
 16 19  1  0  0  0  0
 17 16  1  0  0  0  0
 18 17  1  0  0  0  0
 19 20  1  0  0  0  0
 20 24  1  0  0  0  0
 21 22  1  0  0  0  0
 22 26  1  6  0  0  0
 22 25  1  0  0  0  0
 23 21  1  0  0  0  0
 23 20  1  0  0  0  0
 24 25  1  0  0  0  0
 28 27  1  0  0  0  0
 29 33  1  0  0  0  0
 30 29  2  0  0  0  0
 32 33  1  0  0  0  0
 32 34  2  0  0  0  0
 33 36  2  0  0  0  0
 34 35  1  0  0  0  0
 36 35  1  0  0  0  0
 36 31  1  0  0  0  0
 38 37  2  0  0  0  0
 38 34  1  0  0  0  0
M  END
>  <MODEL>
5

>  <REMARK>
 VINA RESULT:      -8.3      3.403      7.544
  Name = 
  8 active torsions:
  status: ('A' for Active; 'I' for Inactive)
    1  A    between atoms: N_4  and  S_35
    2  A    between atoms: C_6  and  O_38
    3  A    between atoms: C_10  and  C_23
    4  A    between atoms: C_10  and  C_29
    5  A    between atoms: C_12  and  C_25
    6  A    between atoms: C_18  and  C_28
    7  A    between atoms: C_26  and  C_36
    8  A    between atoms: S_35  and  C_36
                            x       y       z     vdW  Elec       q    Type
                         _______ _______ _______ _____ _____    ______ ____

>  <TORSDO>
F 8

$$$$
=
 OpenBabel11042409573D

 38 42  0  0  1  0  0  0  0  0999 V2000
  183.4510  178.8230  143.9150 C   0  0  0  0  0  3  0  0  0  0  0  0
  186.8740  177.7130  146.4900 N   0  0  0  0  0  1  0  0  0  0  0  0
  187.4440  177.6870  144.0250 C   0  0  0  0  0  0  0  0  0  0  0  0
  189.4390  177.2170  142.5900 C   0  0  0  0  0  0  0  0  0  0  0  0
  188.8720  177.2450  144.0010 C   0  0  0  0  0  3  0  0  0  0  0  0
  185.4610  178.2880  143.2270 N   0  0  0  0  0  0  0  0  0  0  0  0
  185.3840  178.2500  144.5380 C   0  0  0  0  0  0  0  0  0  0  0  0
  186.7150  177.9480  142.8780 C   0  0  2  0  0  3  0  0  0  0  0  0
  188.6580  177.4680  141.4930 C   0  0  0  0  0  0  0  0  0  0  0  0
  184.1790  178.5660  145.0420 N   0  0  0  0  0  0  0  0  0  0  0  0
  187.2280  177.8560  141.6580 C   0  0  0  0  0  3  0  0  0  0  0  0
  184.2520  178.6490  142.7770 C   0  0  0  0  0  0  0  0  0  0  0  0
  186.5830  177.8800  145.1060 C   0  0  0  0  0  0  0  0  0  0  0  0
  188.4360  177.3620  139.0550 C   0  0  0  0  0  0  0  0  0  0  0  0
  189.1870  177.3160  140.1240 C   0  0  0  0  0  3  0  0  0  0  0  0
  187.6930  177.4100  137.9830 C   0  0  0  0  0  0  0  0  0  0  0  0
  186.4180  178.1830  137.9720 C   0  0  0  0  0  2  0  0  0  0  0  0
  185.3450  177.4420  137.1950 C   0  0  0  0  0  1  0  0  0  0  0  0
  188.1540  176.4500  136.5470 S   0  0  0  0  0  0  0  0  0  0  0  0
  189.6860  175.9670  137.2760 N   0  0  0  0  0  0  0  0  0  0  0  0
  191.2180  174.0720  137.4930 C   0  0  0  0  0  2  0  0  0  0  0  0
  192.2980  174.9400  136.8550 C   0  0  1  0  0  3  0  0  0  0  0  0
  189.8550  174.5440  136.9950 C   0  0  0  0  0  2  0  0  0  0  0  0
  190.7380  176.7000  136.5730 C   0  0  0  0  0  2  0  0  0  0  0  0
  192.0430  176.3520  137.1350 N   0  0  0  0  0  2  0  0  0  0  0  0
  193.6520  174.5520  137.4110 C   0  0  0  0  0  1  0  0  0  0  0  0
  191.8360  177.4940  143.2680 C   0  0  0  0  0  1  0  0  0  0  0  0
  190.8020  176.8840  142.5070 O   0  0  0  0  0  0  0  0  0  0  0  0
  183.8600  178.8110  141.3590 C   0  0  0  0  0  0  0  0  0  0  0  0
  184.4940  179.6310  140.6440 O   0  0  0  0  0  0  0  0  0  0  0  0
  180.7570  179.4600  141.5520 C   0  0  0  0  0  1  0  0  0  0  0  0
  182.8680  176.8870  139.9870 C   0  0  0  0  0  3  0  0  0  0  0  0
  182.7500  178.0390  140.7500 C   0  0  0  0  0  0  0  0  0  0  0  0
  181.5650  176.5570  139.6630 C   0  0  0  0  0  0  0  0  0  0  0  0
  180.7140  177.4160  140.1750 O   0  0  0  0  0  0  0  0  0  0  0  0
  181.3940  178.3190  140.8330 C   0  0  0  0  0  0  0  0  0  0  0  0
  182.0210  174.8260  138.1200 O   0  0  0  0  0  0  0  0  0  0  0  0
  181.1790  175.4020  138.8570 C   0  0  0  0  0  3  0  0  0  0  0  0
  1 10  1  0  0  0  0
  3 13  2  0  0  0  0
  4  5  2  0  0  0  0
  5  3  1  0  0  0  0
  6  7  1  0  0  0  0
  7 10  2  0  0  0  0
  7 13  1  0  0  0  0
  8 11  1  6  0  0  0
  8  6  1  0  0  0  0
  8  3  1  0  0  0  0
  9 11  2  0  0  0  0
  9  4  1  0  0  0  0
 12  6  1  0  0  0  0
 12  1  2  0  0  0  0
 13  2  1  0  0  0  0
 14 15  2  0  0  0  0
 15  9  1  0  0  0  0
 16 14  2  0  0  0  0
 17 16  1  0  0  0  0
 18 17  1  0  0  0  0
 19 20  1  0  0  0  0
 19 16  1  0  0  0  0
 22 25  1  0  0  0  0
 22 26  1  1  0  0  0
 22 21  1  0  0  0  0
 23 20  1  0  0  0  0
 23 21  1  0  0  0  0
 24 25  1  0  0  0  0
 24 20  1  0  0  0  0
 28  4  1  0  0  0  0
 28 27  1  0  0  0  0
 29 12  1  0  0  0  0
 30 29  2  0  0  0  0
 32 33  1  0  0  0  0
 33 36  2  0  0  0  0
 33 29  1  0  0  0  0
 34 32  2  0  0  0  0
 34 35  1  0  0  0  0
 35 36  1  0  0  0  0
 36 31  1  0  0  0  0
 37 38  2  0  0  0  0
 38 34  1  0  0  0  0
M  END
>  <MODEL>
6

>  <REMARK>
 VINA RESULT:      -8.3      1.835      3.230
  Name = 
  8 active torsions:
  status: ('A' for Active; 'I' for Inactive)
    1  A    between atoms: N_4  and  S_35
    2  A    between atoms: C_6  and  O_38
    3  A    between atoms: C_10  and  C_23
    4  A    between atoms: C_10  and  C_29
    5  A    between atoms: C_12  and  C_25
    6  A    between atoms: C_18  and  C_28
    7  A    between atoms: C_26  and  C_36
    8  A    between atoms: S_35  and  C_36
                            x       y       z     vdW  Elec       q    Type
                         _______ _______ _______ _____ _____    ______ ____

>  <TORSDO>
F 8

$$$$
=
 OpenBabel11042409573D

 38 42  0  0  1  0  0  0  0  0999 V2000
  188.8820  177.1130  145.5100 C   0  0  0  0  0  3  0  0  0  0  0  0
  185.4620  179.4530  147.0600 N   0  0  0  0  0  1  0  0  0  0  0  0
  185.1390  178.7010  144.6660 C   0  0  0  0  0  0  0  0  0  0  0  0
  183.3930  178.8910  142.8830 C   0  0  0  0  0  0  0  0  0  0  0  0
  183.8120  179.2800  144.2930 C   0  0  0  0  0  3  0  0  0  0  0  0
  187.0620  177.6230  144.4020 N   0  0  0  0  0  0  0  0  0  0  0  0
  187.0210  178.0980  145.6260 C   0  0  0  0  0  0  0  0  0  0  0  0
  185.9200  177.9740  143.7840 C   0  0  2  0  0  3  0  0  0  0  0  0
  184.2230  178.1840  142.0530 C   0  0  0  0  0  0  0  0  0  0  0  0
  188.1040  177.8290  146.3740 N   0  0  0  0  0  0  0  0  0  0  0  0
  185.5470  177.7030  142.5400 C   0  0  0  0  0  3  0  0  0  0  0  0
  188.2330  176.9830  144.2740 C   0  0  0  0  0  0  0  0  0  0  0  0
  185.8500  178.7860  145.8640 C   0  0  0  0  0  0  0  0  0  0  0  0
  182.7300  177.3630  140.2920 C   0  0  0  0  0  0  0  0  0  0  0  0
  183.8570  177.9200  140.6480 C   0  0  0  0  0  3  0  0  0  0  0  0
  181.6040  176.8100  139.9290 C   0  0  0  0  0  0  0  0  0  0  0  0
  180.3830  176.9390  140.7750 C   0  0  0  0  0  2  0  0  0  0  0  0
  179.5210  175.6930  140.6710 C   0  0  0  0  0  1  0  0  0  0  0  0
  181.5530  175.7990  138.4560 S   0  0  0  0  0  0  0  0  0  0  0  0
  183.2450  176.1350  138.0830 N   0  0  0  0  0  0  0  0  0  0  0  0
  185.2900  175.0880  137.2440 C   0  0  0  0  0  2  0  0  0  0  0  0
  185.2930  176.1190  136.1190 C   0  0  1  0  0  3  0  0  0  0  0  0
  183.8510  174.8640  137.6960 C   0  0  0  0  0  2  0  0  0  0  0  0
  183.2530  177.0190  136.9180 C   0  0  0  0  0  2  0  0  0  0  0  0
  184.6310  177.3470  136.5560 N   0  0  0  0  0  2  0  0  0  0  0  0
  186.7210  176.4280  135.7210 C   0  0  0  0  0  1  0  0  0  0  0  0
  180.9620  179.3060  143.3260 C   0  0  0  0  0  1  0  0  0  0  0  0
  182.1180  179.3400  142.5000 O   0  0  0  0  0  0  0  0  0  0  0  0
  188.7240  176.2960  143.0580 C   0  0  0  0  0  0  0  0  0  0  0  0
  188.7130  175.0380  143.0250 O   0  0  0  0  0  0  0  0  0  0  0  0
  191.7190  177.2040  142.5100 C   0  0  0  0  0  1  0  0  0  0  0  0
  188.4760  177.4770  140.7980 C   0  0  0  0  0  3  0  0  0  0  0  0
  189.2270  177.0390  141.8780 C   0  0  0  0  0  0  0  0  0  0  0  0
  189.3920  178.1100  139.9780 C   0  0  0  0  0  0  0  0  0  0  0  0
  190.5980  178.0740  140.4940 O   0  0  0  0  0  0  0  0  0  0  0  0
  190.5340  177.4380  141.6360 C   0  0  0  0  0  0  0  0  0  0  0  0
  189.5510  178.2970  137.6270 O   0  0  0  0  0  0  0  0  0  0  0  0
  189.0660  178.7400  138.7010 C   0  0  0  0  0  3  0  0  0  0  0  0
  1 10  1  0  0  0  0
  3 13  2  0  0  0  0
  4  5  2  0  0  0  0
  5  3  1  0  0  0  0
  6  7  1  0  0  0  0
  7 13  1  0  0  0  0
  7 10  2  0  0  0  0
  8 11  1  6  0  0  0
  8  6  1  0  0  0  0
  8  3  1  0  0  0  0
  9 11  2  0  0  0  0
  9  4  1  0  0  0  0
 12  6  1  0  0  0  0
 12  1  2  0  0  0  0
 13  2  1  0  0  0  0
 14 15  2  0  0  0  0
 15  9  1  0  0  0  0
 16 14  2  0  0  0  0
 16 17  1  0  0  0  0
 18 17  1  0  0  0  0
 19 16  1  0  0  0  0
 20 19  1  0  0  0  0
 21 23  1  0  0  0  0
 22 26  1  1  0  0  0
 22 25  1  0  0  0  0
 22 21  1  0  0  0  0
 23 20  1  0  0  0  0
 24 20  1  0  0  0  0
 25 24  1  0  0  0  0
 28  4  1  0  0  0  0
 28 27  1  0  0  0  0
 29 12  1  0  0  0  0
 30 29  2  0  0  0  0
 32 33  1  0  0  0  0
 33 29  1  0  0  0  0
 34 35  1  0  0  0  0
 34 32  2  0  0  0  0
 35 36  1  0  0  0  0
 36 33  2  0  0  0  0
 36 31  1  0  0  0  0
 37 38  2  0  0  0  0
 38 34  1  0  0  0  0
M  END
>  <MODEL>
7

>  <REMARK>
 VINA RESULT:      -8.1      3.067      7.105
  Name = 
  8 active torsions:
  status: ('A' for Active; 'I' for Inactive)
    1  A    between atoms: N_4  and  S_35
    2  A    between atoms: C_6  and  O_38
    3  A    between atoms: C_10  and  C_23
    4  A    between atoms: C_10  and  C_29
    5  A    between atoms: C_12  and  C_25
    6  A    between atoms: C_18  and  C_28
    7  A    between atoms: C_26  and  C_36
    8  A    between atoms: S_35  and  C_36
                            x       y       z     vdW  Elec       q    Type
                         _______ _______ _______ _____ _____    ______ ____

>  <TORSDO>
F 8

$$$$
=
 OpenBabel11042409573D

 38 42  0  0  1  0  0  0  0  0999 V2000
  190.1220  177.0600  143.6970 C   0  0  0  0  0  3  0  0  0  0  0  0
  192.2760  177.1330  139.8340 N   0  0  0  0  0  1  0  0  0  0  0  0
  189.8130  177.6580  139.5990 C   0  0  0  0  0  0  0  0  0  0  0  0
  188.2070  178.2350  137.7680 C   0  0  0  0  0  0  0  0  0  0  0  0
  189.6340  177.8480  138.1270 C   0  0  0  0  0  2  0  0  0  0  0  0
  189.2400  177.4890  141.7370 N   0  0  0  0  0  0  0  0  0  0  0  0
  190.5290  177.2560  141.6370 C   0  0  0  0  0  0  0  0  0  0  0  0
  188.7680  177.7410  140.5030 C   0  0  0  0  0  0  0  0  0  0  0  0
  187.2130  178.2810  138.7110 C   0  0  0  0  0  0  0  0  0  0  0  0
  191.1470  176.9820  142.7980 N   0  0  0  0  0  0  0  0  0  0  0  0
  187.5220  178.0240  140.1460 C   0  0  0  0  0  3  0  0  0  0  0  0
  188.9260  177.3760  143.0350 C   0  0  0  0  0  0  0  0  0  0  0  0
  190.9590  177.3410  140.3300 C   0  0  0  0  0  0  0  0  0  0  0  0
  184.8150  178.4560  139.1750 C   0  0  0  0  0  0  0  0  0  0  0  0
  185.8100  178.5360  138.3330 C   0  0  0  0  0  3  0  0  0  0  0  0
  183.8150  178.3820  140.0120 C   0  0  0  0  0  0  0  0  0  0  0  0
  184.0200  178.6230  141.4690 C   0  0  0  0  0  2  0  0  0  0  0  0
  182.6940  178.6280  142.2070 C   0  0  0  0  0  1  0  0  0  0  0  0
  182.2050  177.8800  139.4200 S   0  0  0  0  0  0  0  0  0  0  0  0
  182.1180  179.2380  138.2970 N   0  0  0  0  0  0  0  0  0  0  0  0
  180.8700  180.0830  136.3700 C   0  0  0  0  0  2  0  0  0  0  0  0
  180.5250  181.3160  137.2010 C   0  0  1  0  0  3  0  0  0  0  0  0
  181.0900  178.9050  137.3130 C   0  0  0  0  0  2  0  0  0  0  0  0
  181.6570  180.3930  139.0660 C   0  0  0  0  0  2  0  0  0  0  0  0
  181.5680  181.5640  138.1940 N   0  0  0  0  0  2  0  0  0  0  0  0
  180.3980  182.5190  136.2900 C   0  0  0  0  0  1  0  0  0  0  0  0
  187.9680  177.5220  135.3780 C   0  0  0  0  0  1  0  0  0  0  0  0
  187.9920  178.5040  136.4060 O   0  0  0  0  0  0  0  0  0  0  0  0
  187.5790  177.5430  143.6260 C   0  0  0  0  0  0  0  0  0  0  0  0
  186.5740  177.4790  142.8710 O   0  0  0  0  0  0  0  0  0  0  0  0
  185.0070  178.7950  145.0070 C   0  0  0  0  0  1  0  0  0  0  0  0
  188.2720  177.5000  146.0920 C   0  0  0  0  0  3  0  0  0  0  0  0
  187.3730  177.7800  145.0750 C   0  0  0  0  0  0  0  0  0  0  0  0
  187.6220  177.9000  147.2440 C   0  0  0  0  0  0  0  0  0  0  0  0
  186.4320  178.3850  146.9750 O   0  0  0  0  0  0  0  0  0  0  0  0
  186.2510  178.3270  145.6810 C   0  0  0  0  0  0  0  0  0  0  0  0
  189.3280  178.2530  148.8410 O   0  0  0  0  0  0  0  0  0  0  0  0
  188.1800  177.8000  148.5900 C   0  0  0  0  0  3  0  0  0  0  0  0
  2 13  1  0  0  0  0
  3 13  2  0  0  0  0
  3  8  1  0  0  0  0
  4  5  1  0  0  0  0
  4  9  2  0  0  0  0
  5  3  1  0  0  0  0
  6 12  1  0  0  0  0
  7  6  1  0  0  0  0
  7 10  2  0  0  0  0
  8  6  1  0  0  0  0
  9 11  1  0  0  0  0
 10  1  1  0  0  0  0
 11  8  2  0  0  0  0
 12 29  1  0  0  0  0
 12  1  2  0  0  0  0
 13  7  1  0  0  0  0
 14 16  2  0  0  0  0
 15  9  1  0  0  0  0
 15 14  2  0  0  0  0
 16 17  1  0  0  0  0
 17 18  1  0  0  0  0
 19 16  1  0  0  0  0
 20 24  1  0  0  0  0
 20 19  1  0  0  0  0
 21 22  1  0  0  0  0
 21 23  1  0  0  0  0
 22 26  1  6  0  0  0
 22 25  1  0  0  0  0
 23 20  1  0  0  0  0
 25 24  1  0  0  0  0
 27 28  1  0  0  0  0
 28  4  1  0  0  0  0
 29 33  1  0  0  0  0
 30 29  2  0  0  0  0
 31 36  1  0  0  0  0
 32 34  2  0  0  0  0
 33 36  2  0  0  0  0
 33 32  1  0  0  0  0
 34 38  1  0  0  0  0
 35 34  1  0  0  0  0
 36 35  1  0  0  0  0
 38 37  2  0  0  0  0
M  END
>  <MODEL>
8

>  <REMARK>
 VINA RESULT:      -8.1      3.446      8.428
  Name = 
  8 active torsions:
  status: ('A' for Active; 'I' for Inactive)
    1  A    between atoms: N_4  and  S_35
    2  A    between atoms: C_6  and  O_38
    3  A    between atoms: C_10  and  C_23
    4  A    between atoms: C_10  and  C_29
    5  A    between atoms: C_12  and  C_25
    6  A    between atoms: C_18  and  C_28
    7  A    between atoms: C_26  and  C_36
    8  A    between atoms: S_35  and  C_36
                            x       y       z     vdW  Elec       q    Type
                         _______ _______ _______ _____ _____    ______ ____

>  <TORSDO>
F 8

$$$$
=
 OpenBabel11042409573D

 38 42  0  0  1  0  0  0  0  0999 V2000
  192.0650  177.4500  140.8950 C   0  0  0  0  0  3  0  0  0  0  0  0
  191.3230  177.4910  145.2560 N   0  0  0  0  0  1  0  0  0  0  0  0
  189.1990  177.6640  143.8920 C   0  0  0  0  0  0  0  0  0  0  0  0
  186.7380  177.8420  144.3100 C   0  0  0  0  0  0  0  0  0  0  0  0
  188.1270  177.7820  144.9270 C   0  0  0  0  0  3  0  0  0  0  0  0
  190.1080  177.6050  141.8670 N   0  0  0  0  0  0  0  0  0  0  0  0
  191.0720  177.5130  142.7550 C   0  0  0  0  0  0  0  0  0  0  0  0
  188.9420  177.6980  142.5320 C   0  0  2  0  0  3  0  0  0  0  0  0
  186.5530  177.8910  142.9530 C   0  0  0  0  0  0  0  0  0  0  0  0
  192.3080  177.4150  142.2380 N   0  0  0  0  0  0  0  0  0  0  0  0
  187.7200  177.8100  142.0290 C   0  0  0  0  0  3  0  0  0  0  0  0
  190.6870  177.5690  140.6590 C   0  0  0  0  0  0  0  0  0  0  0  0
  190.5810  177.5450  144.0420 C   0  0  0  0  0  0  0  0  0  0  0  0
  185.0110  178.4020  141.1190 C   0  0  0  0  0  0  0  0  0  0  0  0
  185.2110  178.0730  142.3680 C   0  0  0  0  0  3  0  0  0  0  0  0
  184.8030  178.7260  139.8710 C   0  0  0  0  0  0  0  0  0  0  0  0
  185.7930  178.3710  138.8150 C   0  0  0  0  0  2  0  0  0  0  0  0
  185.0950  177.8290  137.5820 C   0  0  0  0  0  1  0  0  0  0  0  0
  183.3680  179.7020  139.4420 S   0  0  0  0  0  0  0  0  0  0  0  0
  182.2720  178.5580  140.2170 N   0  0  0  0  0  0  0  0  0  0  0  0
  179.9390  178.2610  140.8910 C   0  0  0  0  0  2  0  0  0  0  0  0
  179.8930  177.0260  139.9960 C   0  0  1  0  0  3  0  0  0  0  0  0
  180.9790  179.2280  140.3340 C   0  0  0  0  0  2  0  0  0  0  0  0
  182.1200  177.4300  139.2980 C   0  0  0  0  0  2  0  0  0  0  0  0
  181.2240  176.4330  139.8830 N   0  0  0  0  0  2  0  0  0  0  0  0
  178.9360  176.0110  140.5860 C   0  0  0  0  0  1  0  0  0  0  0  0
  185.6770  178.6310  146.4380 C   0  0  0  0  0  1  0  0  0  0  0  0
  185.6810  177.8750  145.2340 O   0  0  0  0  0  0  0  0  0  0  0  0
  189.9940  177.6550  139.3550 C   0  0  0  0  0  0  0  0  0  0  0  0
  189.4400  178.7380  139.0320 O   0  0  0  0  0  0  0  0  0  0  0  0
  192.4150  176.3730  137.7480 C   0  0  0  0  0  1  0  0  0  0  0  0
  188.7980  175.7930  138.0620 C   0  0  0  0  0  3  0  0  0  0  0  0
  189.9310  176.5110  138.4140 C   0  0  0  0  0  0  0  0  0  0  0  0
  189.2570  174.8450  137.1680 C   0  0  0  0  0  0  0  0  0  0  0  0
  190.5510  174.9580  136.9760 O   0  0  0  0  0  0  0  0  0  0  0  0
  190.9870  175.9490  137.7100 C   0  0  0  0  0  0  0  0  0  0  0  0
  187.2040  173.7240  136.8310 O   0  0  0  0  0  0  0  0  0  0  0  0
  188.4170  173.8440  136.5150 C   0  0  0  0  0  3  0  0  0  0  0  0
  1 10  1  0  0  0  0
  3 13  2  0  0  0  0
  3  5  1  0  0  0  0
  4  5  2  0  0  0  0
  4 28  1  0  0  0  0
  6  8  1  0  0  0  0
  6  7  1  0  0  0  0
  7 13  1  0  0  0  0
  8 11  1  1  0  0  0
  8  3  1  0  0  0  0
  9  4  1  0  0  0  0
 10  7  2  0  0  0  0
 11  9  2  0  0  0  0
 12  1  2  0  0  0  0
 12  6  1  0  0  0  0
 13  2  1  0  0  0  0
 14 15  2  0  0  0  0
 15  9  1  0  0  0  0
 16 14  2  0  0  0  0
 17 16  1  0  0  0  0
 18 17  1  0  0  0  0
 19 16  1  0  0  0  0
 19 20  1  0  0  0  0
 20 23  1  0  0  0  0
 22 26  1  1  0  0  0
 22 21  1  0  0  0  0
 23 21  1  0  0  0  0
 24 25  1  0  0  0  0
 24 20  1  0  0  0  0
 25 22  1  0  0  0  0
 28 27  1  0  0  0  0
 29 12  1  0  0  0  0
 30 29  2  0  0  0  0
 32 33  1  0  0  0  0
 33 29  1  0  0  0  0
 34 32  2  0  0  0  0
 35 34  1  0  0  0  0
 35 36  1  0  0  0  0
 36 31  1  0  0  0  0
 36 33  2  0  0  0  0
 38 37  2  0  0  0  0
 38 34  1  0  0  0  0
M  END
>  <MODEL>
9

>  <REMARK>
 VINA RESULT:      -7.9      3.277      7.427
  Name = 
  8 active torsions:
  status: ('A' for Active; 'I' for Inactive)
    1  A    between atoms: N_4  and  S_35
    2  A    between atoms: C_6  and  O_38
    3  A    between atoms: C_10  and  C_23
    4  A    between atoms: C_10  and  C_29
    5  A    between atoms: C_12  and  C_25
    6  A    between atoms: C_18  and  C_28
    7  A    between atoms: C_26  and  C_36
    8  A    between atoms: S_35  and  C_36
                            x       y       z     vdW  Elec       q    Type
                         _______ _______ _______ _____ _____    ______ ____

>  <TORSDO>
F 8

$$$$
