=
 OpenBabel11042412313D

 31 34  0  0  1  0  0  0  0  0999 V2000
  188.9170  176.8150  142.4510 C   0  0  2  0  0  3  0  0  0  0  0  0
  189.4070  177.7080  141.3980 N   0  0  0  0  0  2  0  0  0  0  0  0
  185.9420  179.0020  141.8200 C   0  0  0  0  0  0  0  0  0  0  0  0
  187.5350  177.2790  142.8530 C   0  0  0  0  0  2  0  0  0  0  0  0
  185.7370  179.7980  140.8620 O   0  0  0  0  0  0  0  0  0  0  0  0
  187.1760  178.2590  141.8560 N   0  0  0  0  0  0  0  0  0  0  0  0
  188.2570  178.4640  140.9120 C   0  0  2  0  0  3  0  0  0  0  0  0
  182.6280  178.6380  143.5750 N   0  0  0  0  0  0  0  0  0  0  0  0
  184.9050  178.8690  142.8780 C   0  0  0  0  0  0  0  0  0  0  0  0
  183.0880  178.6330  141.2190 N   0  0  0  0  0  1  0  0  0  0  0  0
  183.5370  178.7240  142.5680 C   0  0  0  0  0  0  0  0  0  0  0  0
  184.2930  178.8400  145.2150 C   0  0  0  0  0  0  0  0  0  0  0  0
  185.2690  178.9340  144.2270 C   0  0  0  0  0  3  0  0  0  0  0  0
  182.9920  178.6950  144.8580 N   0  0  0  0  0  0  0  0  0  0  0  0
  184.6570  178.9010  146.5890 N   0  0  0  0  0  1  0  0  0  0  0  0
  187.8540  177.9510  139.5360 C   0  0  0  0  0  2  0  0  0  0  0  0
  189.0210  178.0580  138.5680 C   0  0  1  0  0  3  0  0  0  0  0  0
  189.1130  176.7930  137.7360 C   0  0  1  0  0  3  0  0  0  0  0  0
  188.6050  178.8370  137.3330 C   0  0  0  0  0  2  0  0  0  0  0  0
  188.7080  177.5750  136.4980 C   0  0  0  0  0  2  0  0  0  0  0  0
  194.5020  176.7550  136.2280 O   0  0  0  0  0  0  0  0  0  0  0  0
  191.0830  176.1960  136.4340 C   0  0  0  0  0  3  0  0  0  0  0  0
  191.2650  175.9680  138.8190 N   0  0  0  0  0  2  0  0  0  0  0  0
  193.5870  176.4230  138.3360 N   0  0  0  0  0  2  0  0  0  0  0  0
  192.4510  176.7200  139.2010 C   0  0  0  0  0  2  0  0  0  0  0  0
  190.5320  176.3170  137.6410 C   0  0  0  0  0  0  0  0  0  0  0  0
  193.5360  176.3260  136.9090 C   0  0  0  0  0  0  0  0  0  0  0  0
  192.4330  175.5930  136.2140 C   0  0  0  0  0  2  0  0  0  0  0  0
  189.8440  176.8600  143.6520 C   0  0  0  0  0  2  0  0  0  0  0  0
  189.3060  177.3170  146.2820 S   0  0  0  0  0  1  0  0  0  0  0  0
  189.4230  177.9700  144.5950 C   0  0  0  0  0  2  0  0  0  0  0  0
  1  4  1  0  0  0  0
  1 29  1  1  0  0  0
  2  1  1  0  0  0  0
  3  6  1  0  0  0  0
  3  9  1  0  0  0  0
  5  3  2  0  0  0  0
  6  4  1  0  0  0  0
  7 16  1  6  0  0  0
  7  2  1  0  0  0  0
  7  6  1  0  0  0  0
  8 14  1  0  0  0  0
  9 13  2  0  0  0  0
 10 11  1  0  0  0  0
 11  9  1  0  0  0  0
 11  8  2  0  0  0  0
 12 15  1  0  0  0  0
 13 12  1  0  0  0  0
 14 12  2  0  0  0  0
 17 16  1  1  0  0  0
 18 26  1  6  0  0  0
 18 17  1  0  0  0  0
 19 17  1  0  0  0  0
 20 19  1  0  0  0  0
 20 18  1  0  0  0  0
 21 27  2  0  0  0  0
 22 26  2  0  0  0  0
 23 25  1  0  0  0  0
 24 25  1  0  0  0  0
 26 23  1  0  0  0  0
 27 24  1  0  0  0  0
 28 22  1  0  0  0  0
 28 27  1  0  0  0  0
 29 31  1  0  0  0  0
 31 30  1  0  0  0  0
M  END
>  <MODEL>
1

>  <REMARK>
 VINA RESULT:      -8.6      0.000      0.000
  Name = 
  6 active torsions:
  status: ('A' for Active; 'I' for Inactive)
    1  A    between atoms: C_1  and  C_10
    2  A    between atoms: C_1  and  C_29
    3  A    between atoms: C_2  and  C_16
    4  A    between atoms: C_5  and  C_8
    5  A    between atoms: C_11  and  C_26
    6  A    between atoms: C_14  and  C_16
                            x       y       z     vdW  Elec       q    Type
                         _______ _______ _______ _____ _____    ______ ____

>  <TORSDO>
F 6

$$$$
=
 OpenBabel11042412313D

 31 34  0  0  1  0  0  0  0  0999 V2000
  184.5100  178.2620  143.1280 C   0  0  2  0  0  3  0  0  0  0  0  0
  185.7570  178.9760  142.8410 N   0  0  0  0  0  2  0  0  0  0  0  0
  183.9770  179.3930  139.5970 C   0  0  0  0  0  0  0  0  0  0  0  0
  183.5870  178.4340  141.9420 C   0  0  0  0  0  2  0  0  0  0  0  0
  184.8210  179.8600  138.7820 O   0  0  0  0  0  0  0  0  0  0  0  0
  184.4160  179.0240  140.9190 N   0  0  0  0  0  0  0  0  0  0  0  0
  185.7570  179.2730  141.4110 C   0  0  2  0  0  3  0  0  0  0  0  0
  180.7540  177.9610  138.2730 N   0  0  0  0  0  0  0  0  0  0  0  0
  182.5620  179.2510  139.1620 C   0  0  0  0  0  0  0  0  0  0  0  0
  182.8450  176.8470  138.6580 N   0  0  0  0  0  1  0  0  0  0  0  0
  182.0470  178.0280  138.6860 C   0  0  0  0  0  0  0  0  0  0  0  0
  180.3960  180.2320  138.7390 C   0  0  0  0  0  0  0  0  0  0  0  0
  181.7110  180.3600  139.1740 C   0  0  0  0  0  3  0  0  0  0  0  0
  179.9520  179.0280  138.2960 N   0  0  0  0  0  0  0  0  0  0  0  0
  179.5230  181.3560  138.7510 N   0  0  0  0  0  1  0  0  0  0  0  0
  186.7510  178.3630  140.7020 C   0  0  0  0  0  2  0  0  0  0  0  0
  188.1480  178.5640  141.2660 C   0  0  1  0  0  3  0  0  0  0  0  0
  188.6000  177.3020  141.9780 C   0  0  1  0  0  3  0  0  0  0  0  0
  189.1870  178.3230  140.1850 C   0  0  0  0  0  2  0  0  0  0  0  0
  189.6460  177.0670  140.9020 C   0  0  0  0  0  2  0  0  0  0  0  0
  190.5330  176.4990  147.1670 O   0  0  0  0  0  0  0  0  0  0  0  0
  188.5830  177.3100  144.4130 C   0  0  0  0  0  3  0  0  0  0  0  0
  190.4980  178.3000  143.3510 N   0  0  0  0  0  2  0  0  0  0  0  0
  191.5720  177.5640  145.3850 N   0  0  0  0  0  2  0  0  0  0  0  0
  191.6590  177.6420  143.9310 C   0  0  0  0  0  2  0  0  0  0  0  0
  189.2350  177.6290  143.2960 C   0  0  0  0  0  0  0  0  0  0  0  0
  190.4050  177.1890  146.1230 C   0  0  0  0  0  0  0  0  0  0  0  0
  189.0510  177.7200  145.7720 C   0  0  0  0  0  2  0  0  0  0  0  0
  183.8550  178.8270  144.3750 C   0  0  0  0  0  2  0  0  0  0  0  0
  185.3660  178.3440  146.5890 S   0  0  0  0  0  1  0  0  0  0  0  0
  184.8970  179.4840  145.2590 C   0  0  0  0  0  2  0  0  0  0  0  0
  1 29  1  1  0  0  0
  2  1  1  0  0  0  0
  3  6  1  0  0  0  0
  4  1  1  0  0  0  0
  5  3  2  0  0  0  0
  6  7  1  0  0  0  0
  6  4  1  0  0  0  0
  7 16  1  6  0  0  0
  7  2  1  0  0  0  0
  8 14  2  0  0  0  0
  8 11  1  0  0  0  0
  9 13  1  0  0  0  0
  9  3  1  0  0  0  0
 10 11  1  0  0  0  0
 11  9  2  0  0  0  0
 12 15  1  0  0  0  0
 12 13  2  0  0  0  0
 14 12  1  0  0  0  0
 17 16  1  6  0  0  0
 17 18  1  0  0  0  0
 18 26  1  1  0  0  0
 19 20  1  0  0  0  0
 19 17  1  0  0  0  0
 20 18  1  0  0  0  0
 22 28  1  0  0  0  0
 23 25  1  0  0  0  0
 24 27  1  0  0  0  0
 25 24  1  0  0  0  0
 26 23  1  0  0  0  0
 26 22  2  0  0  0  0
 27 21  2  0  0  0  0
 28 27  1  0  0  0  0
 29 31  1  0  0  0  0
 31 30  1  0  0  0  0
M  END
>  <MODEL>
2

>  <REMARK>
 VINA RESULT:      -8.4      3.585      5.959
  Name = 
  6 active torsions:
  status: ('A' for Active; 'I' for Inactive)
    1  A    between atoms: C_1  and  C_10
    2  A    between atoms: C_1  and  C_29
    3  A    between atoms: C_2  and  C_16
    4  A    between atoms: C_5  and  C_8
    5  A    between atoms: C_11  and  C_26
    6  A    between atoms: C_14  and  C_16
                            x       y       z     vdW  Elec       q    Type
                         _______ _______ _______ _____ _____    ______ ____

>  <TORSDO>
F 6

$$$$
=
 OpenBabel11042412313D

 31 34  0  0  1  0  0  0  0  0999 V2000
  184.0190  178.3600  142.9460 C   0  0  2  0  0  3  0  0  0  0  0  0
  185.2560  179.1450  142.9190 N   0  0  0  0  0  2  0  0  0  0  0  0
  184.6610  178.6950  139.2710 C   0  0  0  0  0  0  0  0  0  0  0  0
  183.5440  178.1840  141.5210 C   0  0  0  0  0  2  0  0  0  0  0  0
  185.7090  179.0860  138.6860 O   0  0  0  0  0  0  0  0  0  0  0  0
  184.6430  178.6510  140.7110 N   0  0  0  0  0  0  0  0  0  0  0  0
  185.7260  179.1480  141.5370 C   0  0  2  0  0  3  0  0  0  0  0  0
  181.3520  178.7750  137.4710 N   0  0  0  0  0  0  0  0  0  0  0  0
  183.4840  178.3040  138.4510 C   0  0  0  0  0  0  0  0  0  0  0  0
  182.4500  180.5380  138.6740 N   0  0  0  0  0  1  0  0  0  0  0  0
  182.4190  179.1940  138.2020 C   0  0  0  0  0  0  0  0  0  0  0  0
  182.2700  176.6330  137.1980 C   0  0  0  0  0  0  0  0  0  0  0  0
  183.3870  177.0060  137.9390 C   0  0  0  0  0  3  0  0  0  0  0  0
  181.2780  177.5340  136.9840 N   0  0  0  0  0  0  0  0  0  0  0  0
  182.1670  175.3150  136.6710 N   0  0  0  0  0  1  0  0  0  0  0  0
  186.9410  178.2390  141.4090 C   0  0  0  0  0  2  0  0  0  0  0  0
  187.8270  178.3630  142.6380 C   0  0  1  0  0  3  0  0  0  0  0  0
  188.0380  176.9930  143.2570 C   0  0  1  0  0  3  0  0  0  0  0  0
  189.2880  178.3990  142.2270 C   0  0  0  0  0  2  0  0  0  0  0  0
  189.5020  177.0350  142.8550 C   0  0  0  0  0  2  0  0  0  0  0  0
  188.8890  178.6820  148.5230 O   0  0  0  0  0  0  0  0  0  0  0  0
  188.9710  176.9680  145.5070 C   0  0  0  0  0  3  0  0  0  0  0  0
  186.5800  177.1530  145.3390 N   0  0  0  0  0  2  0  0  0  0  0  0
  186.8740  178.3400  147.4220 N   0  0  0  0  0  2  0  0  0  0  0  0
  186.2160  178.3260  146.1200 C   0  0  0  0  0  2  0  0  0  0  0  0
  187.8790  177.0500  144.7470 C   0  0  0  0  0  0  0  0  0  0  0  0
  188.2530  178.0340  147.6540 C   0  0  0  0  0  0  0  0  0  0  0  0
  188.9170  176.8650  146.9970 C   0  0  0  0  0  2  0  0  0  0  0  0
  182.9570  179.0820  143.7560 C   0  0  0  0  0  2  0  0  0  0  0  0
  180.2900  178.5760  143.9730 S   0  0  0  0  0  1  0  0  0  0  0  0
  181.6690  179.1770  142.9610 C   0  0  0  0  0  2  0  0  0  0  0  0
  1 29  1  1  0  0  0
  2  1  1  0  0  0  0
  3  6  1  0  0  0  0
  4  1  1  0  0  0  0
  5  3  2  0  0  0  0
  6  4  1  0  0  0  0
  6  7  1  0  0  0  0
  7 16  1  1  0  0  0
  7  2  1  0  0  0  0
  8 11  1  0  0  0  0
  9  3  1  0  0  0  0
 11  9  2  0  0  0  0
 11 10  1  0  0  0  0
 12 13  2  0  0  0  0
 13  9  1  0  0  0  0
 14 12  1  0  0  0  0
 14  8  2  0  0  0  0
 15 12  1  0  0  0  0
 17 16  1  6  0  0  0
 17 18  1  0  0  0  0
 18 26  1  1  0  0  0
 19 17  1  0  0  0  0
 19 20  1  0  0  0  0
 20 18  1  0  0  0  0
 22 28  1  0  0  0  0
 23 25  1  0  0  0  0
 24 27  1  0  0  0  0
 25 24  1  0  0  0  0
 26 23  1  0  0  0  0
 26 22  2  0  0  0  0
 27 21  2  0  0  0  0
 28 27  1  0  0  0  0
 31 29  1  0  0  0  0
 31 30  1  0  0  0  0
M  END
>  <MODEL>
3

>  <REMARK>
 VINA RESULT:      -8.3      4.656      7.429
  Name = 
  6 active torsions:
  status: ('A' for Active; 'I' for Inactive)
    1  A    between atoms: C_1  and  C_10
    2  A    between atoms: C_1  and  C_29
    3  A    between atoms: C_2  and  C_16
    4  A    between atoms: C_5  and  C_8
    5  A    between atoms: C_11  and  C_26
    6  A    between atoms: C_14  and  C_16
                            x       y       z     vdW  Elec       q    Type
                         _______ _______ _______ _____ _____    ______ ____

>  <TORSDO>
F 6

$$$$
=
 OpenBabel11042412313D

 31 34  0  0  1  0  0  0  0  0999 V2000
  187.9590  177.8530  137.7500 C   0  0  2  0  0  3  0  0  0  0  0  0
  188.0770  178.5190  139.0500 N   0  0  0  0  0  2  0  0  0  0  0  0
  191.3280  176.7080  138.9210 C   0  0  0  0  0  0  0  0  0  0  0  0
  189.2690  177.1530  137.4610 C   0  0  0  0  0  2  0  0  0  0  0  0
  191.8360  176.8020  140.0730 O   0  0  0  0  0  0  0  0  0  0  0  0
  190.0020  177.2280  138.7010 N   0  0  0  0  0  0  0  0  0  0  0  0
  189.2600  177.9680  139.7040 C   0  0  2  0  0  3  0  0  0  0  0  0
  192.5710  174.2530  136.3480 N   0  0  0  0  0  0  0  0  0  0  0  0
  192.1200  176.0720  137.8360 C   0  0  0  0  0  0  0  0  0  0  0  0
  190.6440  174.0900  137.7710 N   0  0  0  0  0  1  0  0  0  0  0  0
  191.7940  174.8020  137.3190 C   0  0  0  0  0  0  0  0  0  0  0  0
  194.0130  176.1030  136.3350 C   0  0  0  0  0  0  0  0  0  0  0  0
  193.2550  176.7140  137.3290 C   0  0  0  0  0  3  0  0  0  0  0  0
  193.6470  174.8820  135.8700 N   0  0  0  0  0  0  0  0  0  0  0  0
  195.1660  176.7520  135.8120 N   0  0  0  0  0  1  0  0  0  0  0  0
  188.8320  177.0370  140.8300 C   0  0  0  0  0  2  0  0  0  0  0  0
  188.6140  177.8220  142.1130 C   0  0  1  0  0  3  0  0  0  0  0  0
  188.4620  176.8640  143.2800 C   0  0  1  0  0  3  0  0  0  0  0  0
  189.9470  178.2880  142.6720 C   0  0  0  0  0  2  0  0  0  0  0  0
  189.7900  177.3390  143.8450 C   0  0  0  0  0  2  0  0  0  0  0  0
  185.6470  179.7540  147.1580 O   0  0  0  0  0  0  0  0  0  0  0  0
  187.5300  177.3760  145.4710 C   0  0  0  0  0  3  0  0  0  0  0  0
  186.0190  177.5050  143.6060 N   0  0  0  0  0  2  0  0  0  0  0  0
  184.9630  179.1520  145.0220 N   0  0  0  0  0  2  0  0  0  0  0  0
  185.4160  178.8280  143.6740 C   0  0  0  0  0  2  0  0  0  0  0  0
  187.3180  177.2700  144.1600 C   0  0  0  0  0  0  0  0  0  0  0  0
  185.7060  178.9160  146.2220 C   0  0  0  0  0  0  0  0  0  0  0  0
  186.4320  177.6280  146.4530 C   0  0  0  0  0  2  0  0  0  0  0  0
  187.6690  178.8710  136.6620 C   0  0  0  0  0  2  0  0  0  0  0  0
  185.7480  177.0170  136.1260 S   0  0  0  0  0  1  0  0  0  0  0  0
  186.9660  178.2030  135.4960 C   0  0  0  0  0  2  0  0  0  0  0  0
  1 29  1  6  0  0  0
  1  2  1  0  0  0  0
  2  7  1  0  0  0  0
  3  5  2  0  0  0  0
  4  1  1  0  0  0  0
  4  6  1  0  0  0  0
  6  3  1  0  0  0  0
  6  7  1  0  0  0  0
  7 16  1  1  0  0  0
  8 11  1  0  0  0  0
  9  3  1  0  0  0  0
 11 10  1  0  0  0  0
 11  9  2  0  0  0  0
 12 13  2  0  0  0  0
 13  9  1  0  0  0  0
 14 12  1  0  0  0  0
 14  8  2  0  0  0  0
 15 12  1  0  0  0  0
 17 16  1  6  0  0  0
 17 19  1  0  0  0  0
 17 18  1  0  0  0  0
 18 20  1  0  0  0  0
 18 26  1  1  0  0  0
 19 20  1  0  0  0  0
 22 28  1  0  0  0  0
 23 25  1  0  0  0  0
 23 26  1  0  0  0  0
 24 27  1  0  0  0  0
 25 24  1  0  0  0  0
 26 22  2  0  0  0  0
 27 28  1  0  0  0  0
 27 21  2  0  0  0  0
 31 30  1  0  0  0  0
 31 29  1  0  0  0  0
M  END
>  <MODEL>
4

>  <REMARK>
 VINA RESULT:      -8.3      2.948      9.287
  Name = 
  6 active torsions:
  status: ('A' for Active; 'I' for Inactive)
    1  A    between atoms: C_1  and  C_10
    2  A    between atoms: C_1  and  C_29
    3  A    between atoms: C_2  and  C_16
    4  A    between atoms: C_5  and  C_8
    5  A    between atoms: C_11  and  C_26
    6  A    between atoms: C_14  and  C_16
                            x       y       z     vdW  Elec       q    Type
                         _______ _______ _______ _____ _____    ______ ____

>  <TORSDO>
F 6

$$$$
=
 OpenBabel11042412313D

 31 34  0  0  1  0  0  0  0  0999 V2000
  183.7350  178.3820  142.9530 C   0  0  2  0  0  3  0  0  0  0  0  0
  185.0430  179.0430  142.9240 N   0  0  0  0  0  2  0  0  0  0  0  0
  184.1890  179.0770  139.3000 C   0  0  0  0  0  0  0  0  0  0  0  0
  183.1610  178.4180  141.5540 C   0  0  0  0  0  2  0  0  0  0  0  0
  185.2350  179.4310  138.6890 O   0  0  0  0  0  0  0  0  0  0  0  0
  184.2520  178.8690  140.7250 N   0  0  0  0  0  0  0  0  0  0  0  0
  185.4280  179.1620  141.5210 C   0  0  2  0  0  3  0  0  0  0  0  0
  181.4340  177.5580  137.2270 N   0  0  0  0  0  0  0  0  0  0  0  0
  182.9320  178.8970  138.5280 C   0  0  0  0  0  0  0  0  0  0  0  0
  183.3880  176.5000  138.1340 N   0  0  0  0  0  1  0  0  0  0  0  0
  182.5810  177.6600  137.9500 C   0  0  0  0  0  0  0  0  0  0  0  0
  180.9180  179.8220  137.5660 C   0  0  0  0  0  0  0  0  0  0  0  0
  182.0790  179.9850  138.3160 C   0  0  0  0  0  3  0  0  0  0  0  0
  180.6270  178.6050  137.0390 N   0  0  0  0  0  0  0  0  0  0  0  0
  180.0430  180.9230  137.3500 N   0  0  0  0  0  1  0  0  0  0  0  0
  186.5330  178.1620  141.2100 C   0  0  0  0  0  2  0  0  0  0  0  0
  187.7040  178.3540  142.1590 C   0  0  1  0  0  3  0  0  0  0  0  0
  187.8150  177.1560  143.0850 C   0  0  1  0  0  3  0  0  0  0  0  0
  189.0000  177.9460  141.4800 C   0  0  0  0  0  2  0  0  0  0  0  0
  189.1160  176.7540  142.4120 C   0  0  0  0  0  2  0  0  0  0  0  0
  187.8470  176.8910  148.6740 O   0  0  0  0  0  0  0  0  0  0  0  0
  187.0290  177.5210  145.3600 C   0  0  0  0  0  3  0  0  0  0  0  0
  189.3160  178.1070  144.9090 N   0  0  0  0  0  2  0  0  0  0  0  0
  189.5550  177.5520  147.2470 N   0  0  0  0  0  2  0  0  0  0  0  0
  190.1100  177.4050  145.9060 C   0  0  0  0  0  2  0  0  0  0  0  0
  188.0440  177.5930  144.5000 C   0  0  0  0  0  0  0  0  0  0  0  0
  188.1690  177.4320  147.5850 C   0  0  0  0  0  0  0  0  0  0  0  0
  187.1020  178.0660  146.7500 C   0  0  0  0  0  2  0  0  0  0  0  0
  182.8030  179.1030  143.9100 C   0  0  0  0  0  2  0  0  0  0  0  0
  180.1430  178.5280  144.0070 S   0  0  0  0  0  1  0  0  0  0  0  0
  181.4970  179.4360  143.2140 C   0  0  0  0  0  2  0  0  0  0  0  0
  1 29  1  1  0  0  0
  2  1  1  0  0  0  0
  3  6  1  0  0  0  0
  4  1  1  0  0  0  0
  5  3  2  0  0  0  0
  6  7  1  0  0  0  0
  6  4  1  0  0  0  0
  7 16  1  6  0  0  0
  7  2  1  0  0  0  0
  8 11  1  0  0  0  0
  9  3  1  0  0  0  0
 11 10  1  0  0  0  0
 11  9  2  0  0  0  0
 12 13  2  0  0  0  0
 13  9  1  0  0  0  0
 14  8  2  0  0  0  0
 14 12  1  0  0  0  0
 15 12  1  0  0  0  0
 17 16  1  6  0  0  0
 17 18  1  0  0  0  0
 18 26  1  1  0  0  0
 19 17  1  0  0  0  0
 19 20  1  0  0  0  0
 20 18  1  0  0  0  0
 22 28  1  0  0  0  0
 23 25  1  0  0  0  0
 24 27  1  0  0  0  0
 25 24  1  0  0  0  0
 26 23  1  0  0  0  0
 26 22  2  0  0  0  0
 27 21  2  0  0  0  0
 28 27  1  0  0  0  0
 31 29  1  0  0  0  0
 31 30  1  0  0  0  0
M  END
>  <MODEL>
5

>  <REMARK>
 VINA RESULT:      -8.2      4.404      7.311
  Name = 
  6 active torsions:
  status: ('A' for Active; 'I' for Inactive)
    1  A    between atoms: C_1  and  C_10
    2  A    between atoms: C_1  and  C_29
    3  A    between atoms: C_2  and  C_16
    4  A    between atoms: C_5  and  C_8
    5  A    between atoms: C_11  and  C_26
    6  A    between atoms: C_14  and  C_16
                            x       y       z     vdW  Elec       q    Type
                         _______ _______ _______ _____ _____    ______ ____

>  <TORSDO>
F 6

$$$$
=
 OpenBabel11042412313D

 31 34  0  0  1  0  0  0  0  0999 V2000
  184.9660  178.7910  143.1570 C   0  0  2  0  0  3  0  0  0  0  0  0
  185.9050  179.5130  142.2950 N   0  0  0  0  0  2  0  0  0  0  0  0
  183.4610  178.2960  139.7630 C   0  0  0  0  0  0  0  0  0  0  0  0
  183.8090  178.3220  142.3020 C   0  0  0  0  0  2  0  0  0  0  0  0
  183.9760  178.5180  138.6320 O   0  0  0  0  0  0  0  0  0  0  0  0
  184.2370  178.5680  140.9470 N   0  0  0  0  0  0  0  0  0  0  0  0
  185.5410  179.2010  140.9160 C   0  0  2  0  0  3  0  0  0  0  0  0
  179.7160  178.0810  140.1170 N   0  0  0  0  0  0  0  0  0  0  0  0
  182.0720  177.7710  139.8290 C   0  0  0  0  0  0  0  0  0  0  0  0
  181.1160  180.0310  140.1260 N   0  0  0  0  0  1  0  0  0  0  0  0
  180.9630  178.6170  140.0340 C   0  0  0  0  0  0  0  0  0  0  0  0
  180.5390  175.9040  139.8250 C   0  0  0  0  0  0  0  0  0  0  0  0
  181.8370  176.3950  139.7320 C   0  0  0  0  0  3  0  0  0  0  0  0
  179.5090  176.7660  140.0170 N   0  0  0  0  0  0  0  0  0  0  0  0
  180.2930  174.5060  139.7240 N   0  0  0  0  0  1  0  0  0  0  0  0
  186.5700  178.2500  140.3200 C   0  0  0  0  0  2  0  0  0  0  0  0
  187.9470  178.5270  140.9020 C   0  0  1  0  0  3  0  0  0  0  0  0
  188.4610  177.2890  141.6140 C   0  0  1  0  0  3  0  0  0  0  0  0
  189.0100  178.3500  139.8320 C   0  0  0  0  0  2  0  0  0  0  0  0
  189.5310  177.1190  140.5500 C   0  0  0  0  0  2  0  0  0  0  0  0
  190.1590  176.6330  146.9050 O   0  0  0  0  0  0  0  0  0  0  0  0
  188.3530  177.4070  144.0440 C   0  0  0  0  0  3  0  0  0  0  0  0
  190.3510  178.2600  143.0160 N   0  0  0  0  0  2  0  0  0  0  0  0
  191.3130  177.5690  145.1210 N   0  0  0  0  0  2  0  0  0  0  0  0
  191.4580  177.5770  143.6700 C   0  0  0  0  0  2  0  0  0  0  0  0
  189.0610  177.6460  142.9400 C   0  0  0  0  0  0  0  0  0  0  0  0
  190.1020  177.2810  145.8280 C   0  0  0  0  0  0  0  0  0  0  0  0
  188.7890  177.8560  145.4010 C   0  0  0  0  0  2  0  0  0  0  0  0
  184.4540  179.7040  144.2570 C   0  0  0  0  0  2  0  0  0  0  0  0
  185.3320  178.6260  146.5990 S   0  0  0  0  0  1  0  0  0  0  0  0
  183.9660  178.8820  145.4340 C   0  0  0  0  0  2  0  0  0  0  0  0
  1 29  1  1  0  0  0
  2  1  1  0  0  0  0
  3  9  1  0  0  0  0
  3  6  1  0  0  0  0
  4  1  1  0  0  0  0
  5  3  2  0  0  0  0
  6  4  1  0  0  0  0
  7 16  1  1  0  0  0
  7  6  1  0  0  0  0
  7  2  1  0  0  0  0
  9 11  2  0  0  0  0
 11  8  1  0  0  0  0
 11 10  1  0  0  0  0
 12 14  1  0  0  0  0
 13 12  2  0  0  0  0
 13  9  1  0  0  0  0
 14  8  2  0  0  0  0
 15 12  1  0  0  0  0
 17 16  1  6  0  0  0
 17 18  1  0  0  0  0
 18 26  1  1  0  0  0
 19 20  1  0  0  0  0
 19 17  1  0  0  0  0
 20 18  1  0  0  0  0
 22 28  1  0  0  0  0
 23 25  1  0  0  0  0
 24 27  1  0  0  0  0
 25 24  1  0  0  0  0
 26 23  1  0  0  0  0
 26 22  2  0  0  0  0
 27 21  2  0  0  0  0
 28 27  1  0  0  0  0
 29 31  1  0  0  0  0
 31 30  1  0  0  0  0
M  END
>  <MODEL>
6

>  <REMARK>
 VINA RESULT:      -8.0      3.584      5.747
  Name = 
  6 active torsions:
  status: ('A' for Active; 'I' for Inactive)
    1  A    between atoms: C_1  and  C_10
    2  A    between atoms: C_1  and  C_29
    3  A    between atoms: C_2  and  C_16
    4  A    between atoms: C_5  and  C_8
    5  A    between atoms: C_11  and  C_26
    6  A    between atoms: C_14  and  C_16
                            x       y       z     vdW  Elec       q    Type
                         _______ _______ _______ _____ _____    ______ ____

>  <TORSDO>
F 6

$$$$
=
 OpenBabel11042412313D

 31 34  0  0  1  0  0  0  0  0999 V2000
  187.3720  177.6050  138.6630 C   0  0  2  0  0  3  0  0  0  0  0  0
  187.7490  178.3860  139.8450 N   0  0  0  0  0  2  0  0  0  0  0  0
  190.8980  176.4890  139.2540 C   0  0  0  0  0  0  0  0  0  0  0  0
  188.5940  176.8490  138.1910 C   0  0  0  0  0  2  0  0  0  0  0  0
  191.6250  176.6770  140.2680 O   0  0  0  0  0  0  0  0  0  0  0  0
  189.5590  177.0210  139.2500 N   0  0  0  0  0  0  0  0  0  0  0  0
  189.0350  177.8680  140.3030 C   0  0  2  0  0  3  0  0  0  0  0  0
  193.1630  175.3450  136.4690 N   0  0  0  0  0  0  0  0  0  0  0  0
  191.4560  175.7360  138.1000 C   0  0  0  0  0  0  0  0  0  0  0  0
  193.5430  177.0610  138.1040 N   0  0  0  0  0  1  0  0  0  0  0  0
  192.7140  176.0460  137.5440 C   0  0  0  0  0  0  0  0  0  0  0  0
  191.2210  174.0310  136.4040 C   0  0  0  0  0  0  0  0  0  0  0  0
  190.7090  174.7150  137.5030 C   0  0  0  0  0  3  0  0  0  0  0  0
  192.4400  174.3690  135.9140 N   0  0  0  0  0  0  0  0  0  0  0  0
  190.4680  172.9890  135.7940 N   0  0  0  0  0  1  0  0  0  0  0  0
  188.8330  177.0570  141.5760 C   0  0  0  0  0  2  0  0  0  0  0  0
  188.4140  177.9630  142.7210 C   0  0  1  0  0  3  0  0  0  0  0  0
  187.4710  177.2160  143.6460 C   0  0  1  0  0  3  0  0  0  0  0  0
  189.4770  177.9590  143.8050 C   0  0  0  0  0  2  0  0  0  0  0  0
  188.5300  177.2220  144.7350 C   0  0  0  0  0  2  0  0  0  0  0  0
  182.1220  178.6950  144.3670 O   0  0  0  0  0  0  0  0  0  0  0  0
  185.3320  178.2570  143.1220 C   0  0  0  0  0  3  0  0  0  0  0  0
  186.2370  178.7070  145.3030 N   0  0  0  0  0  2  0  0  0  0  0  0
  183.8940  178.9060  145.8520 N   0  0  0  0  0  2  0  0  0  0  0  0
  185.1870  178.3600  146.2480 C   0  0  0  0  0  2  0  0  0  0  0  0
  186.2990  178.0730  144.0210 C   0  0  0  0  0  0  0  0  0  0  0  0
  183.3570  178.8770  144.5260 C   0  0  0  0  0  0  0  0  0  0  0  0
  184.1970  179.2060  143.3330 C   0  0  0  0  0  2  0  0  0  0  0  0
  186.8790  178.5250  137.5610 C   0  0  0  0  0  2  0  0  0  0  0  0
  186.8340  177.8300  134.9290 S   0  0  0  0  0  1  0  0  0  0  0  0
  187.7870  178.4240  136.3520 C   0  0  0  0  0  2  0  0  0  0  0  0
  1 29  1  6  0  0  0
  1  2  1  0  0  0  0
  2  7  1  0  0  0  0
  3  5  2  0  0  0  0
  4  1  1  0  0  0  0
  4  6  1  0  0  0  0
  6  3  1  0  0  0  0
  6  7  1  0  0  0  0
  7 16  1  1  0  0  0
  8 11  1  0  0  0  0
  9  3  1  0  0  0  0
 11  9  2  0  0  0  0
 11 10  1  0  0  0  0
 12 13  2  0  0  0  0
 13  9  1  0  0  0  0
 14 12  1  0  0  0  0
 14  8  2  0  0  0  0
 15 12  1  0  0  0  0
 17 16  1  6  0  0  0
 17 18  1  0  0  0  0
 17 19  1  0  0  0  0
 18 26  1  1  0  0  0
 18 20  1  0  0  0  0
 19 20  1  0  0  0  0
 21 27  2  0  0  0  0
 22 28  1  0  0  0  0
 22 26  2  0  0  0  0
 23 25  1  0  0  0  0
 24 25  1  0  0  0  0
 26 23  1  0  0  0  0
 27 24  1  0  0  0  0
 28 27  1  0  0  0  0
 30 31  1  0  0  0  0
 31 29  1  0  0  0  0
M  END
>  <MODEL>
7

>  <REMARK>
 VINA RESULT:      -8.0      2.931      9.289
  Name = 
  6 active torsions:
  status: ('A' for Active; 'I' for Inactive)
    1  A    between atoms: C_1  and  C_10
    2  A    between atoms: C_1  and  C_29
    3  A    between atoms: C_2  and  C_16
    4  A    between atoms: C_5  and  C_8
    5  A    between atoms: C_11  and  C_26
    6  A    between atoms: C_14  and  C_16
                            x       y       z     vdW  Elec       q    Type
                         _______ _______ _______ _____ _____    ______ ____

>  <TORSDO>
F 6

$$$$
=
 OpenBabel11042412313D

 31 34  0  0  1  0  0  0  0  0999 V2000
  186.8180  178.8210  141.0980 C   0  0  2  0  0  3  0  0  0  0  0  0
  186.5750  177.9440  142.2460 N   0  0  0  0  0  2  0  0  0  0  0  0
  183.0920  178.4430  141.0290 C   0  0  0  0  0  0  0  0  0  0  0  0
  185.5010  179.0350  140.3850 C   0  0  0  0  0  2  0  0  0  0  0  0
  182.3300  177.9740  141.9200 O   0  0  0  0  0  0  0  0  0  0  0  0
  184.5110  178.4860  141.2790 N   0  0  0  0  0  0  0  0  0  0  0  0
  185.1310  177.9060  142.4540 C   0  0  2  0  0  3  0  0  0  0  0  0
  181.8690  178.5960  137.4690 N   0  0  0  0  0  0  0  0  0  0  0  0
  182.4960  178.9240  139.7550 C   0  0  0  0  0  0  0  0  0  0  0  0
  182.8040  176.7310  138.6570 N   0  0  0  0  0  1  0  0  0  0  0  0
  182.3940  178.0960  138.6190 C   0  0  0  0  0  0  0  0  0  0  0  0
  181.5270  180.7040  138.4400 C   0  0  0  0  0  0  0  0  0  0  0  0
  182.0570  180.2470  139.6430 C   0  0  0  0  0  3  0  0  0  0  0  0
  181.4490  179.8600  137.3800 N   0  0  0  0  0  0  0  0  0  0  0  0
  181.0750  182.0480  138.3200 N   0  0  0  0  0  1  0  0  0  0  0  0
  184.7720  178.7200  143.6900 C   0  0  0  0  0  2  0  0  0  0  0  0
  185.3120  178.0480  144.9420 C   0  0  1  0  0  3  0  0  0  0  0  0
  186.4560  178.8670  145.5100 C   0  0  1  0  0  3  0  0  0  0  0  0
  184.4560  178.4150  146.1420 C   0  0  0  0  0  2  0  0  0  0  0  0
  185.6040  179.2250  146.7150 C   0  0  0  0  0  2  0  0  0  0  0  0
  191.7630  177.2100  146.1410 O   0  0  0  0  0  0  0  0  0  0  0  0
  188.5310  177.7090  144.9790 C   0  0  0  0  0  3  0  0  0  0  0  0
  187.6860  177.4270  147.2110 N   0  0  0  0  0  2  0  0  0  0  0  0
  190.0380  177.1610  147.6940 N   0  0  0  0  0  2  0  0  0  0  0  0
  188.7830  177.7840  148.1000 C   0  0  0  0  0  2  0  0  0  0  0  0
  187.6050  177.9850  145.8970 C   0  0  0  0  0  0  0  0  0  0  0  0
  190.5290  177.0900  146.3520 C   0  0  0  0  0  0  0  0  0  0  0  0
  189.6340  176.7270  145.2090 C   0  0  0  0  0  2  0  0  0  0  0  0
  187.8170  178.1810  140.1500 C   0  0  0  0  0  2  0  0  0  0  0  0
  190.2310  176.9790  139.7740 S   0  0  0  0  0  1  0  0  0  0  0  0
  188.9870  177.6150  140.9300 C   0  0  0  0  0  2  0  0  0  0  0  0
  1 29  1  6  0  0  0
  1  2  1  0  0  0  0
  2  7  1  0  0  0  0
  3  6  1  0  0  0  0
  3  5  2  0  0  0  0
  4  1  1  0  0  0  0
  4  6  1  0  0  0  0
  6  7  1  0  0  0  0
  7 16  1  1  0  0  0
  8 11  1  0  0  0  0
  9  3  1  0  0  0  0
 11 10  1  0  0  0  0
 11  9  2  0  0  0  0
 12 13  2  0  0  0  0
 13  9  1  0  0  0  0
 14  8  2  0  0  0  0
 14 12  1  0  0  0  0
 15 12  1  0  0  0  0
 17 16  1  6  0  0  0
 17 18  1  0  0  0  0
 17 19  1  0  0  0  0
 18 26  1  1  0  0  0
 18 20  1  0  0  0  0
 19 20  1  0  0  0  0
 21 27  2  0  0  0  0
 22 28  1  0  0  0  0
 22 26  2  0  0  0  0
 23 25  1  0  0  0  0
 24 25  1  0  0  0  0
 26 23  1  0  0  0  0
 27 24  1  0  0  0  0
 28 27  1  0  0  0  0
 29 31  1  0  0  0  0
 30 31  1  0  0  0  0
M  END
>  <MODEL>
8

>  <REMARK>
 VINA RESULT:      -8.0      4.047      7.130
  Name = 
  6 active torsions:
  status: ('A' for Active; 'I' for Inactive)
    1  A    between atoms: C_1  and  C_10
    2  A    between atoms: C_1  and  C_29
    3  A    between atoms: C_2  and  C_16
    4  A    between atoms: C_5  and  C_8
    5  A    between atoms: C_11  and  C_26
    6  A    between atoms: C_14  and  C_16
                            x       y       z     vdW  Elec       q    Type
                         _______ _______ _______ _____ _____    ______ ____

>  <TORSDO>
F 6

$$$$
=
 OpenBabel11042412313D

 31 34  0  0  1  0  0  0  0  0999 V2000
  185.8160  179.0220  141.0010 C   0  0  2  0  0  3  0  0  0  0  0  0
  185.9360  178.1490  142.1710 N   0  0  0  0  0  2  0  0  0  0  0  0
  182.2470  178.6410  142.0710 C   0  0  0  0  0  0  0  0  0  0  0  0
  184.3450  179.2330  140.7220 C   0  0  0  0  0  2  0  0  0  0  0  0
  181.7940  178.1740  143.1530 O   0  0  0  0  0  0  0  0  0  0  0  0
  183.6740  178.6860  141.8770 N   0  0  0  0  0  0  0  0  0  0  0  0
  184.6240  178.1100  142.8090 C   0  0  2  0  0  3  0  0  0  0  0  0
  179.3990  180.4180  140.3610 N   0  0  0  0  0  0  0  0  0  0  0  0
  181.2900  179.1180  141.0380 C   0  0  0  0  0  0  0  0  0  0  0  0
  180.1380  180.6090  142.6370 N   0  0  0  0  0  1  0  0  0  0  0  0
  180.2660  180.0390  141.3370 C   0  0  0  0  0  0  0  0  0  0  0  0
  180.4450  179.0410  138.7760 C   0  0  0  0  0  0  0  0  0  0  0  0
  181.3600  178.6160  139.7340 C   0  0  0  0  0  3  0  0  0  0  0  0
  179.4830  179.9350  139.1200 N   0  0  0  0  0  0  0  0  0  0  0  0
  180.5130  178.5380  137.4470 N   0  0  0  0  0  1  0  0  0  0  0  0
  184.6570  178.9270  144.0930 C   0  0  0  0  0  2  0  0  0  0  0  0
  185.2960  178.1250  145.2150 C   0  0  1  0  0  3  0  0  0  0  0  0
  186.4740  178.8920  145.7860 C   0  0  1  0  0  3  0  0  0  0  0  0
  184.5320  178.3390  146.5100 C   0  0  0  0  0  2  0  0  0  0  0  0
  185.7140  179.0970  147.0850 C   0  0  0  0  0  2  0  0  0  0  0  0
  191.8210  177.2430  145.7800 O   0  0  0  0  0  0  0  0  0  0  0  0
  188.4970  177.8150  144.9630 C   0  0  0  0  0  3  0  0  0  0  0  0
  187.8560  177.3070  147.2230 N   0  0  0  0  0  2  0  0  0  0  0  0
  190.2410  177.0230  147.4670 N   0  0  0  0  0  2  0  0  0  0  0  0
  189.0260  177.5890  148.0410 C   0  0  0  0  0  2  0  0  0  0  0  0
  187.6560  177.9900  145.9810 C   0  0  0  0  0  0  0  0  0  0  0  0
  190.6110  177.0880  146.0860 C   0  0  0  0  0  0  0  0  0  0  0  0
  189.6190  176.8280  144.9970 C   0  0  0  0  0  2  0  0  0  0  0  0
  186.4800  178.3810  139.7960 C   0  0  0  0  0  2  0  0  0  0  0  0
  188.8290  178.3150  138.4200 S   0  0  0  0  0  1  0  0  0  0  0  0
  187.9760  178.2740  140.0190 C   0  0  0  0  0  2  0  0  0  0  0  0
  1 29  1  6  0  0  0
  1  2  1  0  0  0  0
  2  7  1  0  0  0  0
  3  5  2  0  0  0  0
  4  1  1  0  0  0  0
  4  6  1  0  0  0  0
  6  3  1  0  0  0  0
  6  7  1  0  0  0  0
  7 16  1  1  0  0  0
  8 11  1  0  0  0  0
  9 11  2  0  0  0  0
  9  3  1  0  0  0  0
 11 10  1  0  0  0  0
 12 14  1  0  0  0  0
 12 13  2  0  0  0  0
 13  9  1  0  0  0  0
 14  8  2  0  0  0  0
 15 12  1  0  0  0  0
 17 16  1  6  0  0  0
 17 18  1  0  0  0  0
 17 19  1  0  0  0  0
 18 26  1  1  0  0  0
 18 20  1  0  0  0  0
 19 20  1  0  0  0  0
 21 27  2  0  0  0  0
 22 28  1  0  0  0  0
 22 26  2  0  0  0  0
 23 25  1  0  0  0  0
 24 25  1  0  0  0  0
 26 23  1  0  0  0  0
 27 24  1  0  0  0  0
 28 27  1  0  0  0  0
 29 31  1  0  0  0  0
 30 31  1  0  0  0  0
M  END
>  <MODEL>
9

>  <REMARK>
 VINA RESULT:      -7.9      4.228      7.272
  Name = 
  6 active torsions:
  status: ('A' for Active; 'I' for Inactive)
    1  A    between atoms: C_1  and  C_10
    2  A    between atoms: C_1  and  C_29
    3  A    between atoms: C_2  and  C_16
    4  A    between atoms: C_5  and  C_8
    5  A    between atoms: C_11  and  C_26
    6  A    between atoms: C_14  and  C_16
                            x       y       z     vdW  Elec       q    Type
                         _______ _______ _______ _____ _____    ______ ____

>  <TORSDO>
F 6

$$$$
