=
 OpenBabel11032420523D

 42 45  0  0  1  0  0  0  0  0999 V2000
  189.7490  178.3360  141.8250 C   0  0  0  0  0  2  0  0  0  0  0  0
  189.1660  178.0090  140.4620 C   0  0  2  0  0  3  0  0  0  0  0  0
  192.0840  176.3090  136.9260 C   0  0  0  0  0  0  0  0  0  0  0  0
  182.6440  179.2840  140.5280 O   0  0  0  0  0  0  0  0  0  0  0  0
  183.3070  178.7350  141.4480 C   0  0  0  0  0  0  0  0  0  0  0  0
  189.8080  176.2540  136.2060 C   0  0  0  0  0  0  0  0  0  0  0  0
  185.3800  178.4970  139.9890 C   0  0  0  0  0  0  0  0  0  0  0  0
  184.6590  178.3320  141.2170 N   0  0  0  0  0  2  0  0  0  0  0  0
  191.6310  176.1870  138.3680 C   0  0  1  0  0  3  0  0  0  0  0  0
  187.7000  177.8940  140.7110 C   0  0  2  0  0  3  0  0  0  0  0  0
  185.8520  179.1220  137.9310 N   0  0  0  0  0  2  0  0  0  0  0  0
  192.5790  176.7380  139.2340 O   0  0  0  0  0  1  0  0  0  0  0  0
  190.2830  176.8840  138.5590 C   0  0  2  0  0  3  0  0  0  0  0  0
  189.0080  176.0630  135.2520 O   0  0  0  0  0  0  0  0  0  0  0  0
  186.7650  178.0820  139.7600 C   0  0  2  0  0  3  0  0  0  0  0  0
  184.9000  179.0990  138.9570 N   0  0  0  0  0  0  0  0  0  0  0  0
  189.7610  176.6990  139.9790 C   0  0  0  0  0  2  0  0  0  0  0  0
  191.2160  176.2990  135.9560 N   0  0  0  0  0  0  0  0  0  0  0  0
  188.7330  177.8660  142.8570 C   0  0  0  0  0  2  0  0  0  0  0  0
  187.3840  177.8730  142.1650 C   0  0  0  0  0  2  0  0  0  0  0  0
  187.0230  178.3360  138.3010 C   0  0  1  0  0  3  0  0  0  0  0  0
  187.9750  175.9940  137.9040 C   0  0  0  0  0  2  0  0  0  0  0  0
  189.3250  176.4200  137.5460 N   0  0  0  0  0  0  0  0  0  0  0  0
  186.9500  177.0370  137.4920 C   0  0  0  0  0  2  0  0  0  0  0  0
  183.3250  178.6330  143.9230 C   0  0  0  0  0  3  0  0  0  0  0  0
  182.7490  178.5440  142.7550 N   0  0  0  0  0  0  0  0  0  0  0  0
  185.1430  180.3920  143.6940 C   0  0  0  0  0  1  0  0  0  0  0  0
  184.7510  179.0150  144.2020 C   0  0  1  0  0  3  0  0  0  0  0  0
  184.4550  178.8340  146.5510 O   0  0  0  0  0  0  0  0  0  0  0  0
  185.2100  178.7050  145.5990 C   0  0  0  0  0  0  0  0  0  0  0  0
  186.7350  176.7580  145.4680 C   0  0  0  0  0  1  0  0  0  0  0  0
  186.6150  178.2310  145.8090 C   0  0  0  0  0  3  0  0  0  0  0  0
  187.0570  178.4670  147.2410 C   0  0  0  0  0  1  0  0  0  0  0  0
  193.5380  176.3960  136.5900 C   0  0  0  0  0  2  0  0  0  0  0  0
  194.2800  175.2350  137.1630 C   0  0  0  0  0  3  0  0  0  0  0  0
  194.9810  175.3760  138.2410 N   0  0  0  0  0  0  0  0  0  0  0  0
  195.7080  174.2960  138.8300 C   0  0  0  0  0  0  0  0  0  0  0  0
  195.4960  172.7950  138.2060 S   0  0  0  0  0  0  0  0  0  0  0  0
  197.7770  175.0810  140.1450 C   0  0  0  0  0  0  0  0  0  0  0  0
  198.3880  175.7570  139.0510 N   0  0  0  0  0  1  0  0  0  0  0  0
  196.4650  174.5110  140.0350 N   0  0  0  0  0  2  0  0  0  0  0  0
  198.3870  175.0100  141.2430 O   0  0  0  0  0  0  0  0  0  0  0  0
  1 19  1  0  0  0  0
  2 17  1  1  0  0  0
  2 10  1  0  0  0  0
  2  1  1  0  0  0  0
  3  9  1  0  0  0  0
  4  5  2  0  0  0  0
  5 26  1  0  0  0  0
  6 23  1  0  0  0  0
  7  8  1  0  0  0  0
  8  5  1  0  0  0  0
  9 13  1  0  0  0  0
  9 12  1  1  0  0  0
 10 20  1  1  0  0  0
 11 21  1  0  0  0  0
 11 16  1  0  0  0  0
 13 17  1  1  0  0  0
 14  6  2  0  0  0  0
 15  7  1  1  0  0  0
 15 10  1  0  0  0  0
 16  7  2  0  0  0  0
 18  6  1  0  0  0  0
 18  3  2  0  0  0  0
 20 19  1  0  0  0  0
 21 24  1  6  0  0  0
 21 15  1  0  0  0  0
 23 22  1  0  0  0  0
 23 13  1  0  0  0  0
 24 22  1  0  0  0  0
 25 28  1  0  0  0  0
 26 25  2  0  0  0  0
 28 27  1  1  0  0  0
 28 30  1  0  0  0  0
 30 32  1  0  0  0  0
 30 29  2  0  0  0  0
 31 32  1  0  0  0  0
 32 33  1  0  0  0  0
 34  3  1  0  0  0  0
 34 35  1  0  0  0  0
 35 36  2  0  0  0  0
 36 37  1  0  0  0  0
 37 41  1  0  0  0  0
 38 37  2  0  0  0  0
 39 42  2  0  0  0  0
 40 39  1  0  0  0  0
 41 39  1  0  0  0  0
M  END
>  <MODEL>
1

>  <REMARK>
 VINA RESULT:      -8.1      0.000      0.000
  Name = 
  8 active torsions:
  status: ('A' for Active; 'I' for Inactive)
    1  A    between atoms: C_3  and  C_13
    2  A    between atoms: C_6  and  C_25
    3  A    between atoms: C_8  and  N_33
    4  A    between atoms: C_11  and  C_14
    5  A    between atoms: C_11  and  C_25
    6  A    between atoms: C_13  and  C_15
    7  A    between atoms: N_20  and  C_21
    8  A    between atoms: C_21  and  N_24
                            x       y       z     vdW  Elec       q    Type
                         _______ _______ _______ _____ _____    ______ ____

>  <TORSDO>
F 8

$$$$
=
 OpenBabel11032420523D

 42 45  0  0  1  0  0  0  0  0999 V2000
  190.4460  176.9660  141.5590 C   0  0  0  0  0  2  0  0  0  0  0  0
  189.4550  177.0200  140.4100 C   0  0  2  0  0  3  0  0  0  0  0  0
  184.8980  178.6010  141.2150 C   0  0  0  0  0  0  0  0  0  0  0  0
  192.4390  174.8850  134.8690 O   0  0  0  0  0  0  0  0  0  0  0  0
  192.9400  175.6410  135.7430 C   0  0  0  0  0  0  0  0  0  0  0  0
  185.2400  178.2450  138.8790 C   0  0  0  0  0  0  0  0  0  0  0  0
  190.7110  175.9580  136.9330 C   0  0  0  0  0  0  0  0  0  0  0  0
  192.1170  176.1900  136.7760 N   0  0  0  0  0  2  0  0  0  0  0  0
  186.3820  178.8580  141.3930 C   0  0  1  0  0  3  0  0  0  0  0  0
  190.3090  176.9670  139.1890 C   0  0  2  0  0  3  0  0  0  0  0  0
  188.6990  175.1270  136.6060 N   0  0  0  0  0  2  0  0  0  0  0  0
  186.7820  178.5660  142.7000 O   0  0  0  0  0  1  0  0  0  0  0  0
  187.1860  178.0160  140.4010 C   0  0  2  0  0  3  0  0  0  0  0  0
  184.7200  178.1910  137.7330 O   0  0  0  0  0  0  0  0  0  0  0  0
  189.8760  176.5230  137.9940 C   0  0  2  0  0  3  0  0  0  0  0  0
  190.0330  175.1600  136.1840 N   0  0  0  0  0  0  0  0  0  0  0  0
  188.6770  178.3200  140.4980 C   0  0  0  0  0  2  0  0  0  0  0  0
  184.4050  178.3590  140.0350 N   0  0  0  0  0  0  0  0  0  0  0  0
  191.7830  177.4300  141.0010 C   0  0  0  0  0  2  0  0  0  0  0  0
  191.7510  177.1440  139.5130 C   0  0  0  0  0  2  0  0  0  0  0  0
  188.4690  176.1090  137.6590 C   0  0  1  0  0  3  0  0  0  0  0  0
  187.5460  178.4820  137.9110 C   0  0  0  0  0  2  0  0  0  0  0  0
  186.6650  178.2000  139.0410 N   0  0  0  0  0  0  0  0  0  0  0  0
  187.6910  177.2620  137.0180 C   0  0  0  0  0  2  0  0  0  0  0  0
  195.3330  175.2150  136.2210 C   0  0  0  0  0  3  0  0  0  0  0  0
  194.3440  175.9310  135.7590 N   0  0  0  0  0  0  0  0  0  0  0  0
  195.5790  172.7120  135.8710 C   0  0  0  0  0  1  0  0  0  0  0  0
  195.2510  173.8440  136.8290 C   0  0  1  0  0  3  0  0  0  0  0  0
  195.4730  172.9390  139.0130 O   0  0  0  0  0  0  0  0  0  0  0  0
  195.8940  173.7300  138.1830 C   0  0  0  0  0  0  0  0  0  0  0  0
  198.3490  173.9880  137.9710 C   0  0  0  0  0  1  0  0  0  0  0  0
  197.0680  174.6040  138.5000 C   0  0  0  0  0  3  0  0  0  0  0  0
  197.1850  174.8320  139.9950 C   0  0  0  0  0  1  0  0  0  0  0  0
  183.9690  178.6690  142.3840 C   0  0  0  0  0  2  0  0  0  0  0  0
  182.5680  178.9080  141.9280 C   0  0  0  0  0  3  0  0  0  0  0  0
  181.5940  178.8950  142.7800 N   0  0  0  0  0  0  0  0  0  0  0  0
  180.2370  179.1200  142.3950 C   0  0  0  0  0  0  0  0  0  0  0  0
  179.1820  179.6170  143.5480 S   0  0  0  0  0  0  0  0  0  0  0  0
  179.4270  177.4460  140.6140 C   0  0  0  0  0  0  0  0  0  0  0  0
  179.2100  176.3720  141.5230 N   0  0  0  0  0  1  0  0  0  0  0  0
  179.7930  178.7550  141.0760 N   0  0  0  0  0  2  0  0  0  0  0  0
  179.2620  177.2530  139.3820 O   0  0  0  0  0  0  0  0  0  0  0  0
  2 17  1  6  0  0  0
  2  1  1  0  0  0  0
  3  9  1  0  0  0  0
  3 34  1  0  0  0  0
  4  5  2  0  0  0  0
  5 26  1  0  0  0  0
  5  8  1  0  0  0  0
  6 23  1  0  0  0  0
  6 18  1  0  0  0  0
  8  7  1  0  0  0  0
  9 12  1  1  0  0  0
 10 20  1  1  0  0  0
 10  2  1  0  0  0  0
 11 21  1  0  0  0  0
 13 17  1  6  0  0  0
 13  9  1  0  0  0  0
 14  6  2  0  0  0  0
 15  7  1  1  0  0  0
 15 10  1  0  0  0  0
 16 11  1  0  0  0  0
 16  7  2  0  0  0  0
 18  3  2  0  0  0  0
 19  1  1  0  0  0  0
 20 19  1  0  0  0  0
 21 24  1  6  0  0  0
 21 15  1  0  0  0  0
 22 23  1  0  0  0  0
 23 13  1  0  0  0  0
 24 22  1  0  0  0  0
 25 28  1  0  0  0  0
 26 25  2  0  0  0  0
 28 27  1  6  0  0  0
 28 30  1  0  0  0  0
 30 32  1  0  0  0  0
 30 29  2  0  0  0  0
 31 32  1  0  0  0  0
 32 33  1  0  0  0  0
 35 34  1  0  0  0  0
 35 36  2  0  0  0  0
 37 36  1  0  0  0  0
 37 38  2  0  0  0  0
 39 41  1  0  0  0  0
 39 40  1  0  0  0  0
 41 37  1  0  0  0  0
 42 39  2  0  0  0  0
M  END
>  <MODEL>
2

>  <REMARK>
 VINA RESULT:      -7.5      3.854     11.114
  Name = 
  8 active torsions:
  status: ('A' for Active; 'I' for Inactive)
    1  A    between atoms: C_3  and  C_13
    2  A    between atoms: C_6  and  C_25
    3  A    between atoms: C_8  and  N_33
    4  A    between atoms: C_11  and  C_14
    5  A    between atoms: C_11  and  C_25
    6  A    between atoms: C_13  and  C_15
    7  A    between atoms: N_20  and  C_21
    8  A    between atoms: C_21  and  N_24
                            x       y       z     vdW  Elec       q    Type
                         _______ _______ _______ _____ _____    ______ ____

>  <TORSDO>
F 8

$$$$
=
 OpenBabel11032420523D

 42 45  0  0  1  0  0  0  0  0999 V2000
  185.9060  177.6320  138.2810 C   0  0  0  0  0  2  0  0  0  0  0  0
  186.9370  177.6130  139.3960 C   0  0  2  0  0  3  0  0  0  0  0  0
  191.6420  176.8140  138.3310 C   0  0  0  0  0  0  0  0  0  0  0  0
  183.8820  178.7220  145.1920 O   0  0  0  0  0  0  0  0  0  0  0  0
  183.6540  179.3130  144.1030 C   0  0  0  0  0  0  0  0  0  0  0  0
  191.4080  177.3630  140.6430 C   0  0  0  0  0  0  0  0  0  0  0  0
  185.6930  178.2890  142.9720 C   0  0  0  0  0  0  0  0  0  0  0  0
  184.5270  179.1240  142.9860 N   0  0  0  0  0  2  0  0  0  0  0  0
  190.3840  177.6000  138.0170 C   0  0  1  0  0  3  0  0  0  0  0  0
  186.2560  178.2970  140.5330 C   0  0  2  0  0  3  0  0  0  0  0  0
  187.2080  176.8350  143.6320 N   0  0  0  0  0  2  0  0  0  0  0  0
  189.7770  177.1190  136.8530 O   0  0  0  0  0  1  0  0  0  0  0  0
  189.4040  177.5180  139.1880 C   0  0  2  0  0  3  0  0  0  0  0  0
  191.9670  177.4490  141.7690 O   0  0  0  0  0  0  0  0  0  0  0  0
  186.5810  178.0990  141.8250 C   0  0  2  0  0  3  0  0  0  0  0  0
  186.0510  177.5500  143.9640 N   0  0  0  0  0  0  0  0  0  0  0  0
  188.1670  178.3730  138.9350 C   0  0  0  0  0  2  0  0  0  0  0  0
  192.1030  176.7590  139.5480 N   0  0  0  0  0  0  0  0  0  0  0  0
  184.9360  178.7580  138.6040 C   0  0  0  0  0  2  0  0  0  0  0  0
  184.9900  178.9530  140.1070 C   0  0  0  0  0  2  0  0  0  0  0  0
  187.7190  177.2590  142.3340 C   0  0  1  0  0  3  0  0  0  0  0  0
  189.5050  178.8260  141.3850 C   0  0  0  0  0  2  0  0  0  0  0  0
  190.0820  177.8720  140.4420 N   0  0  0  0  0  0  0  0  0  0  0  0
  188.9590  178.1150  142.6110 C   0  0  0  0  0  2  0  0  0  0  0  0
  181.2810  179.8130  143.5960 C   0  0  0  0  0  3  0  0  0  0  0  0
  182.4970  180.1440  143.9350 N   0  0  0  0  0  0  0  0  0  0  0  0
  179.7790  177.9190  144.3750 C   0  0  0  0  0  1  0  0  0  0  0  0
  180.7600  178.4290  143.3330 C   0  0  1  0  0  3  0  0  0  0  0  0
  179.2310  177.7710  141.6400 O   0  0  0  0  0  0  0  0  0  0  0  0
  180.3490  178.1850  141.9080 C   0  0  0  0  0  0  0  0  0  0  0  0
  180.8460  179.5920  139.9320 C   0  0  0  0  0  1  0  0  0  0  0  0
  181.3350  178.4600  140.8150 C   0  0  0  0  0  3  0  0  0  0  0  0
  181.5750  177.2180  139.9780 C   0  0  0  0  0  1  0  0  0  0  0  0
  192.4020  176.1260  137.2420 C   0  0  0  0  0  2  0  0  0  0  0  0
  193.3280  175.1050  137.8120 C   0  0  0  0  0  3  0  0  0  0  0  0
  194.5020  175.4500  138.2320 N   0  0  0  0  0  0  0  0  0  0  0  0
  195.4250  174.5120  138.7870 C   0  0  0  0  0  0  0  0  0  0  0  0
  195.4790  173.0090  138.1360 S   0  0  0  0  0  0  0  0  0  0  0  0
  197.5560  175.1280  140.0950 C   0  0  0  0  0  0  0  0  0  0  0  0
  198.3570  175.3770  138.9450 N   0  0  0  0  0  1  0  0  0  0  0  0
  196.1540  174.8420  139.9830 N   0  0  0  0  0  2  0  0  0  0  0  0
  198.0800  175.1920  141.2360 O   0  0  0  0  0  0  0  0  0  0  0  0
  1 19  1  0  0  0  0
  2  1  1  6  0  0  0
  2 10  1  0  0  0  0
  3 18  2  0  0  0  0
  5  4  2  0  0  0  0
  6 14  2  0  0  0  0
  7  8  1  0  0  0  0
  7 16  2  0  0  0  0
  8  5  1  0  0  0  0
  9 12  1  6  0  0  0
  9  3  1  0  0  0  0
  9 13  1  0  0  0  0
 10 20  1  1  0  0  0
 10 15  1  0  0  0  0
 11 16  1  0  0  0  0
 13 17  1  6  0  0  0
 13 23  1  0  0  0  0
 15 21  1  0  0  0  0
 15  7  1  1  0  0  0
 17  2  1  0  0  0  0
 18  6  1  0  0  0  0
 19 20  1  0  0  0  0
 21 24  1  1  0  0  0
 21 11  1  0  0  0  0
 22 24  1  0  0  0  0
 23  6  1  0  0  0  0
 23 22  1  0  0  0  0
 25 26  2  0  0  0  0
 26  5  1  0  0  0  0
 28 25  1  0  0  0  0
 28 27  1  1  0  0  0
 29 30  2  0  0  0  0
 30 28  1  0  0  0  0
 31 32  1  0  0  0  0
 32 30  1  0  0  0  0
 33 32  1  0  0  0  0
 34 35  1  0  0  0  0
 34  3  1  0  0  0  0
 35 36  2  0  0  0  0
 36 37  1  0  0  0  0
 37 41  1  0  0  0  0
 38 37  2  0  0  0  0
 39 42  2  0  0  0  0
 40 39  1  0  0  0  0
 41 39  1  0  0  0  0
M  END
>  <MODEL>
3

>  <REMARK>
 VINA RESULT:      -7.5      2.098      4.269
  Name = 
  8 active torsions:
  status: ('A' for Active; 'I' for Inactive)
    1  A    between atoms: C_3  and  C_13
    2  A    between atoms: C_6  and  C_25
    3  A    between atoms: C_8  and  N_33
    4  A    between atoms: C_11  and  C_14
    5  A    between atoms: C_11  and  C_25
    6  A    between atoms: C_13  and  C_15
    7  A    between atoms: N_20  and  C_21
    8  A    between atoms: C_21  and  N_24
                            x       y       z     vdW  Elec       q    Type
                         _______ _______ _______ _____ _____    ______ ____

>  <TORSDO>
F 8

$$$$
=
 OpenBabel11032420523D

 42 45  0  0  1  0  0  0  0  0999 V2000
  190.4820  177.8780  141.3340 C   0  0  0  0  0  2  0  0  0  0  0  0
  189.9390  177.6600  139.9330 C   0  0  2  0  0  3  0  0  0  0  0  0
  192.9380  176.1370  136.3840 C   0  0  0  0  0  0  0  0  0  0  0  0
  183.4490  179.0880  139.8740 O   0  0  0  0  0  0  0  0  0  0  0  0
  184.0670  178.4600  140.7740 C   0  0  0  0  0  0  0  0  0  0  0  0
  190.6880  176.1880  135.5880 C   0  0  0  0  0  0  0  0  0  0  0  0
  186.1840  178.2720  139.3710 C   0  0  0  0  0  0  0  0  0  0  0  0
  185.4180  178.0410  140.5610 N   0  0  0  0  0  2  0  0  0  0  0  0
  192.4330  175.9260  137.7980 C   0  0  1  0  0  3  0  0  0  0  0  0
  188.4630  177.5640  140.1250 C   0  0  2  0  0  3  0  0  0  0  0  0
  186.7400  179.0270  137.3780 N   0  0  0  0  0  2  0  0  0  0  0  0
  193.3630  176.3930  138.7310 O   0  0  0  0  0  1  0  0  0  0  0  0
  191.0950  176.6410  137.9930 C   0  0  2  0  0  3  0  0  0  0  0  0
  189.9170  176.0830  134.5970 O   0  0  0  0  0  0  0  0  0  0  0  0
  187.5660  177.8410  139.1600 C   0  0  2  0  0  3  0  0  0  0  0  0
  185.7530  178.9570  138.3690 N   0  0  0  0  0  0  0  0  0  0  0  0
  190.5210  176.3720  139.3790 C   0  0  0  0  0  2  0  0  0  0  0  0
  192.1040  176.2150  135.3870 N   0  0  0  0  0  0  0  0  0  0  0  0
  189.4210  177.3620  142.2960 C   0  0  0  0  0  2  0  0  0  0  0  0
  188.0970  177.4500  141.5630 C   0  0  0  0  0  2  0  0  0  0  0  0
  187.8800  178.1880  137.7300 C   0  0  1  0  0  3  0  0  0  0  0  0
  188.7920  175.8570  137.2030 C   0  0  0  0  0  2  0  0  0  0  0  0
  190.1630  176.2720  136.9200 N   0  0  0  0  0  0  0  0  0  0  0  0
  187.8050  176.9510  136.8310 C   0  0  0  0  0  2  0  0  0  0  0  0
  183.9680  178.2970  143.2440 C   0  0  0  0  0  3  0  0  0  0  0  0
  183.4610  178.1940  142.0470 N   0  0  0  0  0  0  0  0  0  0  0  0
  185.4320  180.2730  143.8790 C   0  0  0  0  0  1  0  0  0  0  0  0
  185.3430  178.7820  143.6070 C   0  0  1  0  0  3  0  0  0  0  0  0
  186.4300  176.7900  144.3060 O   0  0  0  0  0  0  0  0  0  0  0  0
  186.0590  177.9150  144.6040 C   0  0  0  0  0  0  0  0  0  0  0  0
  187.5260  177.7830  146.5960 C   0  0  0  0  0  1  0  0  0  0  0  0
  186.3160  178.4560  145.9770 C   0  0  0  0  0  3  0  0  0  0  0  0
  185.1050  178.2620  146.8700 C   0  0  0  0  0  1  0  0  0  0  0  0
  194.4050  176.2110  136.1030 C   0  0  0  0  0  2  0  0  0  0  0  0
  194.9640  174.8480  135.8650 C   0  0  0  0  0  3  0  0  0  0  0  0
  194.1730  173.8330  135.7290 N   0  0  0  0  0  0  0  0  0  0  0  0
  194.6560  172.5090  135.4990 C   0  0  0  0  0  0  0  0  0  0  0  0
  193.5910  171.3810  134.9700 S   0  0  0  0  0  0  0  0  0  0  0  0
  196.5000  171.9840  137.2170 C   0  0  0  0  0  0  0  0  0  0  0  0
  195.6240  171.8890  138.3350 N   0  0  0  0  0  1  0  0  0  0  0  0
  195.9970  172.1560  135.8850 N   0  0  0  0  0  2  0  0  0  0  0  0
  197.7410  171.8810  137.3970 O   0  0  0  0  0  0  0  0  0  0  0  0
  1 19  1  0  0  0  0
  2 17  1  1  0  0  0
  2 10  1  0  0  0  0
  2  1  1  0  0  0  0
  3  9  1  0  0  0  0
  4  5  2  0  0  0  0
  5 26  1  0  0  0  0
  6 23  1  0  0  0  0
  7  8  1  0  0  0  0
  8  5  1  0  0  0  0
  9 13  1  0  0  0  0
  9 12  1  1  0  0  0
 10 20  1  1  0  0  0
 11 21  1  0  0  0  0
 11 16  1  0  0  0  0
 13 17  1  1  0  0  0
 14  6  2  0  0  0  0
 15  7  1  1  0  0  0
 15 10  1  0  0  0  0
 16  7  2  0  0  0  0
 18  6  1  0  0  0  0
 18  3  2  0  0  0  0
 20 19  1  0  0  0  0
 21 24  1  6  0  0  0
 21 15  1  0  0  0  0
 23 22  1  0  0  0  0
 23 13  1  0  0  0  0
 24 22  1  0  0  0  0
 25 28  1  0  0  0  0
 26 25  2  0  0  0  0
 28 27  1  1  0  0  0
 28 30  1  0  0  0  0
 29 30  2  0  0  0  0
 30 32  1  0  0  0  0
 32 31  1  0  0  0  0
 32 33  1  0  0  0  0
 34  3  1  0  0  0  0
 35 34  1  0  0  0  0
 36 35  2  0  0  0  0
 37 36  1  0  0  0  0
 37 41  1  0  0  0  0
 38 37  2  0  0  0  0
 39 42  2  0  0  0  0
 39 40  1  0  0  0  0
 41 39  1  0  0  0  0
M  END
>  <MODEL>
4

>  <REMARK>
 VINA RESULT:      -7.4      1.953      2.108
  Name = 
  8 active torsions:
  status: ('A' for Active; 'I' for Inactive)
    1  A    between atoms: C_3  and  C_13
    2  A    between atoms: C_6  and  C_25
    3  A    between atoms: C_8  and  N_33
    4  A    between atoms: C_11  and  C_14
    5  A    between atoms: C_11  and  C_25
    6  A    between atoms: C_13  and  C_15
    7  A    between atoms: N_20  and  C_21
    8  A    between atoms: C_21  and  N_24
                            x       y       z     vdW  Elec       q    Type
                         _______ _______ _______ _____ _____    ______ ____

>  <TORSDO>
F 8

$$$$
=
 OpenBabel11032420523D

 42 45  0  0  1  0  0  0  0  0999 V2000
  187.7160  179.0030  138.5090 C   0  0  0  0  0  2  0  0  0  0  0  0
  188.2760  178.4690  139.8150 C   0  0  2  0  0  3  0  0  0  0  0  0
  185.5890  178.7320  143.8910 C   0  0  0  0  0  0  0  0  0  0  0  0
  194.3740  176.0570  138.7340 O   0  0  0  0  0  0  0  0  0  0  0  0
  193.3690  175.9110  137.9870 C   0  0  0  0  0  0  0  0  0  0  0  0
  187.5890  177.4980  144.3090 C   0  0  0  0  0  0  0  0  0  0  0  0
  191.7750  176.8760  139.7230 C   0  0  0  0  0  0  0  0  0  0  0  0
  192.0720  176.3030  138.4420 N   0  0  0  0  0  2  0  0  0  0  0  0
  185.6450  178.3300  142.4310 C   0  0  1  0  0  3  0  0  0  0  0  0
  189.3960  177.5780  139.3940 C   0  0  2  0  0  3  0  0  0  0  0  0
  192.0750  177.7370  141.7270 N   0  0  0  0  0  2  0  0  0  0  0  0
  184.9840  179.2690  141.6330 O   0  0  0  0  0  1  0  0  0  0  0  0
  187.0990  178.1910  141.9770 C   0  0  2  0  0  3  0  0  0  0  0  0
  188.3290  176.9470  145.1670 O   0  0  0  0  0  0  0  0  0  0  0  0
  190.4450  177.2750  140.1820 C   0  0  2  0  0  3  0  0  0  0  0  0
  192.6750  177.1680  140.5970 N   0  0  0  0  0  0  0  0  0  0  0  0
  187.1840  177.7000  140.5360 C   0  0  0  0  0  2  0  0  0  0  0  0
  186.4820  178.2980  144.7340 N   0  0  0  0  0  0  0  0  0  0  0  0
  188.1340  178.0230  137.4240 C   0  0  0  0  0  2  0  0  0  0  0  0
  189.3880  177.3350  137.9260 C   0  0  0  0  0  2  0  0  0  0  0  0
  190.6230  177.6840  141.6180 C   0  0  1  0  0  3  0  0  0  0  0  0
  188.6810  176.2320  142.4330 C   0  0  0  0  0  2  0  0  0  0  0  0
  187.8380  177.3270  142.9070 N   0  0  0  0  0  0  0  0  0  0  0  0
  190.1530  176.5810  142.5710 C   0  0  0  0  0  2  0  0  0  0  0  0
  193.8300  174.2030  136.2540 C   0  0  0  0  0  3  0  0  0  0  0  0
  193.5020  175.4010  136.6530 N   0  0  0  0  0  0  0  0  0  0  0  0
  193.8570  171.6700  136.4430 C   0  0  0  0  0  1  0  0  0  0  0  0
  194.1150  173.0060  137.1170 C   0  0  1  0  0  3  0  0  0  0  0  0
  195.4300  172.9660  139.0930 O   0  0  0  0  0  0  0  0  0  0  0  0
  195.4080  173.0890  137.8780 C   0  0  0  0  0  0  0  0  0  0  0  0
  197.5500  172.0820  137.1490 C   0  0  0  0  0  1  0  0  0  0  0  0
  196.6790  173.3230  137.1200 C   0  0  0  0  0  3  0  0  0  0  0  0
  197.4410  174.5020  137.6920 C   0  0  0  0  0  1  0  0  0  0  0  0
  184.4800  179.5970  144.4010 C   0  0  0  0  0  2  0  0  0  0  0  0
  183.1550  178.9700  144.1210 C   0  0  0  0  0  3  0  0  0  0  0  0
  182.3230  179.5360  143.3070 N   0  0  0  0  0  0  0  0  0  0  0  0
  181.0440  178.9770  143.0060 C   0  0  0  0  0  0  0  0  0  0  0  0
  180.0600  178.5860  144.2570 S   0  0  0  0  0  0  0  0  0  0  0  0
  180.1350  179.4670  140.6470 C   0  0  0  0  0  0  0  0  0  0  0  0
  180.0550  180.8770  140.8200 N   0  0  0  0  0  1  0  0  0  0  0  0
  180.7170  178.6220  141.6500 N   0  0  0  0  0  2  0  0  0  0  0  0
  179.7170  178.9530  139.5770 O   0  0  0  0  0  0  0  0  0  0  0  0
  2  1  1  6  0  0  0
  2 17  1  0  0  0  0
  3 34  1  0  0  0  0
  3 18  2  0  0  0  0
  5  8  1  0  0  0  0
  5  4  2  0  0  0  0
  6 18  1  0  0  0  0
  6 14  2  0  0  0  0
  7 16  2  0  0  0  0
  8  7  1  0  0  0  0
  9 12  1  6  0  0  0
  9  3  1  0  0  0  0
 10 20  1  6  0  0  0
 10  2  1  0  0  0  0
 10 15  1  0  0  0  0
 13 17  1  6  0  0  0
 13  9  1  0  0  0  0
 13 23  1  0  0  0  0
 15  7  1  6  0  0  0
 15 21  1  0  0  0  0
 16 11  1  0  0  0  0
 19 20  1  0  0  0  0
 19  1  1  0  0  0  0
 21 11  1  0  0  0  0
 21 24  1  1  0  0  0
 22 24  1  0  0  0  0
 22 23  1  0  0  0  0
 23  6  1  0  0  0  0
 25 26  2  0  0  0  0
 25 28  1  0  0  0  0
 26  5  1  0  0  0  0
 28 27  1  6  0  0  0
 28 30  1  0  0  0  0
 30 29  2  0  0  0  0
 32 31  1  0  0  0  0
 32 33  1  0  0  0  0
 32 30  1  0  0  0  0
 35 34  1  0  0  0  0
 36 35  2  0  0  0  0
 37 36  1  0  0  0  0
 37 38  2  0  0  0  0
 39 40  1  0  0  0  0
 39 41  1  0  0  0  0
 41 37  1  0  0  0  0
 42 39  2  0  0  0  0
M  END
>  <MODEL>
5

>  <REMARK>
 VINA RESULT:      -7.3      3.808     11.372
  Name = 
  8 active torsions:
  status: ('A' for Active; 'I' for Inactive)
    1  A    between atoms: C_3  and  C_13
    2  A    between atoms: C_6  and  C_25
    3  A    between atoms: C_8  and  N_33
    4  A    between atoms: C_11  and  C_14
    5  A    between atoms: C_11  and  C_25
    6  A    between atoms: C_13  and  C_15
    7  A    between atoms: N_20  and  C_21
    8  A    between atoms: C_21  and  N_24
                            x       y       z     vdW  Elec       q    Type
                         _______ _______ _______ _____ _____    ______ ____

>  <TORSDO>
F 8

$$$$
=
 OpenBabel11032420523D

 42 45  0  0  1  0  0  0  0  0999 V2000
  190.7410  176.9410  141.6850 C   0  0  0  0  0  2  0  0  0  0  0  0
  189.9100  176.9890  140.4150 C   0  0  2  0  0  3  0  0  0  0  0  0
  185.2890  178.5770  140.6040 C   0  0  0  0  0  0  0  0  0  0  0  0
  193.5950  174.8230  135.3270 O   0  0  0  0  0  0  0  0  0  0  0  0
  193.9780  175.5840  136.2560 C   0  0  0  0  0  0  0  0  0  0  0  0
  185.9350  178.2080  138.3360 C   0  0  0  0  0  0  0  0  0  0  0  0
  191.6120  175.9080  137.1400 C   0  0  0  0  0  0  0  0  0  0  0  0
  193.0270  176.1380  137.1680 N   0  0  0  0  0  2  0  0  0  0  0  0
  186.7360  178.8330  140.9750 C   0  0  1  0  0  3  0  0  0  0  0  0
  190.9180  176.9290  139.3180 C   0  0  2  0  0  3  0  0  0  0  0  0
  189.6590  175.0760  136.5550 N   0  0  0  0  0  2  0  0  0  0  0  0
  186.9600  178.5480  142.3250 O   0  0  0  0  0  1  0  0  0  0  0  0
  187.6640  177.9850  140.1020 C   0  0  2  0  0  3  0  0  0  0  0  0
  185.5710  178.1480  137.1320 O   0  0  0  0  0  0  0  0  0  0  0  0
  190.6450  176.4790  138.0780 C   0  0  2  0  0  3  0  0  0  0  0  0
  191.0380  175.1060  136.3120 N   0  0  0  0  0  0  0  0  0  0  0  0
  189.1280  178.2900  140.3930 C   0  0  0  0  0  2  0  0  0  0  0  0
  184.9550  178.3280  139.3710 N   0  0  0  0  0  0  0  0  0  0  0  0
  192.1410  177.4010  141.3060 C   0  0  0  0  0  2  0  0  0  0  0  0
  192.3040  177.1070  139.8280 C   0  0  0  0  0  2  0  0  0  0  0  0
  189.2940  176.0640  137.5630 C   0  0  1  0  0  3  0  0  0  0  0  0
  188.3490  178.4390  137.6800 C   0  0  0  0  0  2  0  0  0  0  0  0
  187.3260  178.1630  138.6840 N   0  0  0  0  0  0  0  0  0  0  0  0
  188.6080  177.2140  136.8190 C   0  0  0  0  0  2  0  0  0  0  0  0
  196.3720  175.0530  136.6020 C   0  0  0  0  0  3  0  0  0  0  0  0
  195.3680  175.8740  136.4550 N   0  0  0  0  0  0  0  0  0  0  0  0
  197.6010  172.9060  136.0270 C   0  0  0  0  0  1  0  0  0  0  0  0
  196.3310  173.5520  136.5510 C   0  0  1  0  0  3  0  0  0  0  0  0
  195.9500  173.3910  138.8890 O   0  0  0  0  0  0  0  0  0  0  0  0
  195.7590  172.9090  137.7830 C   0  0  0  0  0  0  0  0  0  0  0  0
  195.8350  170.4350  137.6930 C   0  0  0  0  0  1  0  0  0  0  0  0
  194.9440  171.6600  137.6340 C   0  0  0  0  0  3  0  0  0  0  0  0
  194.1700  171.6730  136.3300 C   0  0  0  0  0  1  0  0  0  0  0  0
  184.2140  178.6510  141.6410 C   0  0  0  0  0  2  0  0  0  0  0  0
  182.8660  178.6370  141.0010 C   0  0  0  0  0  3  0  0  0  0  0  0
  181.8150  178.3460  141.6980 N   0  0  0  0  0  0  0  0  0  0  0  0
  180.5030  178.3200  141.1340 C   0  0  0  0  0  0  0  0  0  0  0  0
  179.8880  179.7220  140.5510 S   0  0  0  0  0  0  0  0  0  0  0  0
  179.8620  175.9070  140.5020 C   0  0  0  0  0  0  0  0  0  0  0  0
  181.0430  175.6430  139.7510 N   0  0  0  0  0  1  0  0  0  0  0  0
  179.7000  177.1300  141.2350 N   0  0  0  0  0  2  0  0  0  0  0  0
  178.9560  175.0360  140.5510 O   0  0  0  0  0  0  0  0  0  0  0  0
  2 17  1  6  0  0  0
  2  1  1  0  0  0  0
  3  9  1  0  0  0  0
  3 34  1  0  0  0  0
  4  5  2  0  0  0  0
  5 26  1  0  0  0  0
  5  8  1  0  0  0  0
  6 23  1  0  0  0  0
  6 18  1  0  0  0  0
  7  8  1  0  0  0  0
  9 12  1  1  0  0  0
 10 20  1  1  0  0  0
 10  2  1  0  0  0  0
 11 21  1  0  0  0  0
 13 17  1  6  0  0  0
 13  9  1  0  0  0  0
 14  6  2  0  0  0  0
 15  7  1  1  0  0  0
 15 10  1  0  0  0  0
 16 11  1  0  0  0  0
 16  7  2  0  0  0  0
 18  3  2  0  0  0  0
 19  1  1  0  0  0  0
 20 19  1  0  0  0  0
 21 24  1  6  0  0  0
 21 15  1  0  0  0  0
 22 23  1  0  0  0  0
 23 13  1  0  0  0  0
 24 22  1  0  0  0  0
 26 25  2  0  0  0  0
 28 27  1  1  0  0  0
 28 25  1  0  0  0  0
 28 30  1  0  0  0  0
 30 29  2  0  0  0  0
 32 31  1  0  0  0  0
 32 30  1  0  0  0  0
 33 32  1  0  0  0  0
 35 34  1  0  0  0  0
 35 36  2  0  0  0  0
 37 41  1  0  0  0  0
 37 36  1  0  0  0  0
 38 37  2  0  0  0  0
 39 42  2  0  0  0  0
 39 41  1  0  0  0  0
 40 39  1  0  0  0  0
M  END
>  <MODEL>
6

>  <REMARK>
 VINA RESULT:      -7.3      3.826     11.100
  Name = 
  8 active torsions:
  status: ('A' for Active; 'I' for Inactive)
    1  A    between atoms: C_3  and  C_13
    2  A    between atoms: C_6  and  C_25
    3  A    between atoms: C_8  and  N_33
    4  A    between atoms: C_11  and  C_14
    5  A    between atoms: C_11  and  C_25
    6  A    between atoms: C_13  and  C_15
    7  A    between atoms: N_20  and  C_21
    8  A    between atoms: C_21  and  N_24
                            x       y       z     vdW  Elec       q    Type
                         _______ _______ _______ _____ _____    ______ ____

>  <TORSDO>
F 8

$$$$
=
 OpenBabel11032420523D

 42 45  0  0  1  0  0  0  0  0999 V2000
  187.2820  178.4750  140.7630 C   0  0  0  0  0  2  0  0  0  0  0  0
  185.9440  178.7040  141.4420 C   0  0  2  0  0  3  0  0  0  0  0  0
  181.9520  179.4810  138.7280 C   0  0  0  0  0  0  0  0  0  0  0  0
  186.7790  178.4280  148.0290 O   0  0  0  0  0  0  0  0  0  0  0  0
  187.3070  177.6650  147.1770 C   0  0  0  0  0  0  0  0  0  0  0  0
  181.3510  179.2970  141.0310 C   0  0  0  0  0  0  0  0  0  0  0  0
  185.8590  178.5630  145.2850 C   0  0  0  0  0  0  0  0  0  0  0  0
  186.8770  177.7030  145.8130 N   0  0  0  0  0  2  0  0  0  0  0  0
  183.1700  178.6130  138.9760 C   0  0  1  0  0  3  0  0  0  0  0  0
  186.1450  178.1880  142.8270 C   0  0  2  0  0  3  0  0  0  0  0  0
  184.3390  180.1530  145.1780 N   0  0  0  0  0  2  0  0  0  0  0  0
  184.1700  178.8830  138.0360 O   0  0  0  0  0  1  0  0  0  0  0  0
  183.7060  178.8470  140.3890 C   0  0  2  0  0  3  0  0  0  0  0  0
  180.4440  179.4100  141.8970 O   0  0  0  0  0  0  0  0  0  0  0  0
  185.4250  178.5980  143.8880 C   0  0  2  0  0  3  0  0  0  0  0  0
  185.2540  179.4620  145.9810 N   0  0  0  0  0  0  0  0  0  0  0  0
  184.8780  177.9230  140.6960 C   0  0  0  0  0  2  0  0  0  0  0  0
  181.1170  179.7430  139.6920 N   0  0  0  0  0  0  0  0  0  0  0  0
  187.9880  177.3820  141.5510 C   0  0  0  0  0  2  0  0  0  0  0  0
  187.4190  177.4310  142.9560 C   0  0  0  0  0  2  0  0  0  0  0  0
  184.2580  179.5460  143.8550 C   0  0  1  0  0  3  0  0  0  0  0  0
  182.7650  177.9080  142.5750 C   0  0  0  0  0  2  0  0  0  0  0  0
  182.6200  178.7190  141.3700 N   0  0  0  0  0  0  0  0  0  0  0  0
  182.9280  178.7870  143.8040 C   0  0  0  0  0  2  0  0  0  0  0  0
  189.4960  176.5370  146.9040 C   0  0  0  0  0  3  0  0  0  0  0  0
  188.3780  176.7790  147.5320 N   0  0  0  0  0  0  0  0  0  0  0  0
  189.9690  178.6980  145.6560 C   0  0  0  0  0  1  0  0  0  0  0  0
  189.9780  177.1790  145.6340 C   0  0  1  0  0  3  0  0  0  0  0  0
  192.0550  176.0400  145.7990 O   0  0  0  0  0  0  0  0  0  0  0  0
  191.2280  176.5650  145.0690 C   0  0  0  0  0  0  0  0  0  0  0  0
  191.2420  178.0100  143.0570 C   0  0  0  0  0  1  0  0  0  0  0  0
  191.4450  176.6040  143.5870 C   0  0  0  0  0  3  0  0  0  0  0  0
  190.5070  175.6450  142.8780 C   0  0  0  0  0  1  0  0  0  0  0  0
  181.6610  180.0110  137.3600 C   0  0  0  0  0  2  0  0  0  0  0  0
  180.6960  181.1480  137.4320 C   0  0  0  0  0  3  0  0  0  0  0  0
  180.3540  181.7820  136.3570 N   0  0  0  0  0  0  0  0  0  0  0  0
  179.4340  182.8740  136.3710 C   0  0  0  0  0  0  0  0  0  0  0  0
  179.1280  183.6410  134.9550 S   0  0  0  0  0  0  0  0  0  0  0  0
  179.2980  184.6030  138.2750 C   0  0  0  0  0  0  0  0  0  0  0  0
  180.0320  185.6150  137.5950 N   0  0  0  0  0  1  0  0  0  0  0  0
  178.9340  183.3770  137.6240 N   0  0  0  0  0  2  0  0  0  0  0  0
  178.9310  184.8000  139.4620 O   0  0  0  0  0  0  0  0  0  0  0  0
  1  2  1  0  0  0  0
  1 19  1  0  0  0  0
  2 17  1  6  0  0  0
  2 10  1  0  0  0  0
  3  9  1  0  0  0  0
  3 18  2  0  0  0  0
  5 26  1  0  0  0  0
  5  4  2  0  0  0  0
  6 23  1  0  0  0  0
  6 14  2  0  0  0  0
  7  8  1  0  0  0  0
  7 16  2  0  0  0  0
  8  5  1  0  0  0  0
  9 12  1  6  0  0  0
  9 13  1  0  0  0  0
 10 20  1  1  0  0  0
 10 15  1  0  0  0  0
 11 16  1  0  0  0  0
 13 17  1  1  0  0  0
 13 23  1  0  0  0  0
 15  7  1  1  0  0  0
 18  6  1  0  0  0  0
 19 20  1  0  0  0  0
 21 24  1  1  0  0  0
 21 15  1  0  0  0  0
 21 11  1  0  0  0  0
 22 24  1  0  0  0  0
 23 22  1  0  0  0  0
 25 26  2  0  0  0  0
 28 27  1  1  0  0  0
 28 25  1  0  0  0  0
 30 28  1  0  0  0  0
 30 29  2  0  0  0  0
 31 32  1  0  0  0  0
 32 30  1  0  0  0  0
 33 32  1  0  0  0  0
 34 35  1  0  0  0  0
 34  3  1  0  0  0  0
 36 37  1  0  0  0  0
 36 35  2  0  0  0  0
 37 41  1  0  0  0  0
 38 37  2  0  0  0  0
 39 42  2  0  0  0  0
 40 39  1  0  0  0  0
 41 39  1  0  0  0  0
M  END
>  <MODEL>
7

>  <REMARK>
 VINA RESULT:      -7.3      6.100     10.632
  Name = 
  8 active torsions:
  status: ('A' for Active; 'I' for Inactive)
    1  A    between atoms: C_3  and  C_13
    2  A    between atoms: C_6  and  C_25
    3  A    between atoms: C_8  and  N_33
    4  A    between atoms: C_11  and  C_14
    5  A    between atoms: C_11  and  C_25
    6  A    between atoms: C_13  and  C_15
    7  A    between atoms: N_20  and  C_21
    8  A    between atoms: C_21  and  N_24
                            x       y       z     vdW  Elec       q    Type
                         _______ _______ _______ _____ _____    ______ ____

>  <TORSDO>
F 8

$$$$
=
 OpenBabel11032420523D

 42 45  0  0  1  0  0  0  0  0999 V2000
  187.0160  174.2210  136.3510 C   0  0  0  0  0  2  0  0  0  0  0  0
  188.0930  175.0670  137.0060 C   0  0  2  0  0  3  0  0  0  0  0  0
  192.8040  174.0620  136.1640 C   0  0  0  0  0  0  0  0  0  0  0  0
  185.2100  179.7530  140.7330 O   0  0  0  0  0  0  0  0  0  0  0  0
  184.8440  179.3800  139.5860 C   0  0  0  0  0  0  0  0  0  0  0  0
  192.6110  176.0710  137.4400 C   0  0  0  0  0  0  0  0  0  0  0  0
  186.9490  177.9940  139.2220 C   0  0  0  0  0  0  0  0  0  0  0  0
  185.6770  178.5130  138.8120 N   0  0  0  0  0  2  0  0  0  0  0  0
  191.4320  174.3080  135.5690 C   0  0  1  0  0  3  0  0  0  0  0  0
  187.3790  176.3080  137.4230 C   0  0  2  0  0  3  0  0  0  0  0  0
  188.6900  177.5410  140.4910 N   0  0  0  0  0  2  0  0  0  0  0  0
  190.8420  173.1050  135.1690 O   0  0  0  0  0  1  0  0  0  0  0  0
  190.5340  175.0160  136.5850 C   0  0  2  0  0  3  0  0  0  0  0  0
  193.2080  176.9660  138.0950 O   0  0  0  0  0  0  0  0  0  0  0  0
  187.7950  177.1060  138.4250 C   0  0  2  0  0  3  0  0  0  0  0  0
  187.4600  178.2020  140.3860 N   0  0  0  0  0  0  0  0  0  0  0  0
  189.1760  175.3550  135.9820 C   0  0  0  0  0  2  0  0  0  0  0  0
  193.3290  174.9160  136.9940 N   0  0  0  0  0  0  0  0  0  0  0  0
  185.9110  175.1780  135.9270 C   0  0  0  0  0  2  0  0  0  0  0  0
  186.0120  176.3830  136.8410 C   0  0  0  0  0  2  0  0  0  0  0  0
  189.0670  176.9520  139.2120 C   0  0  1  0  0  3  0  0  0  0  0  0
  190.5570  177.4980  137.2050 C   0  0  0  0  0  2  0  0  0  0  0  0
  191.2170  176.1980  137.1270 N   0  0  0  0  0  0  0  0  0  0  0  0
  190.1830  177.8320  138.6390 C   0  0  0  0  0  2  0  0  0  0  0  0
  182.3880  179.2710  139.2810 C   0  0  0  0  0  3  0  0  0  0  0  0
  183.5720  179.7680  139.0480 N   0  0  0  0  0  0  0  0  0  0  0  0
  181.7210  178.6280  141.6450 C   0  0  0  0  0  1  0  0  0  0  0  0
  182.0420  178.1640  140.2350 C   0  0  1  0  0  3  0  0  0  0  0  0
  179.9510  177.4510  139.3640 O   0  0  0  0  0  0  0  0  0  0  0  0
  181.0910  177.1430  139.6770 C   0  0  0  0  0  0  0  0  0  0  0  0
  182.8620  175.7000  138.7190 C   0  0  0  0  0  1  0  0  0  0  0  0
  181.5650  175.7320  139.5050 C   0  0  0  0  0  3  0  0  0  0  0  0
  180.5160  174.8900  138.8040 C   0  0  0  0  0  1  0  0  0  0  0  0
  193.5990  172.8570  135.7720 C   0  0  0  0  0  2  0  0  0  0  0  0
  195.0430  173.0540  136.0910 C   0  0  0  0  0  3  0  0  0  0  0  0
  195.5970  172.3860  137.0510 N   0  0  0  0  0  0  0  0  0  0  0  0
  196.9750  172.5370  137.3950 C   0  0  0  0  0  0  0  0  0  0  0  0
  198.0330  171.4140  136.8430 S   0  0  0  0  0  0  0  0  0  0  0  0
  197.8290  174.8800  138.0360 C   0  0  0  0  0  0  0  0  0  0  0  0
  197.6810  175.4410  136.7360 N   0  0  0  0  0  1  0  0  0  0  0  0
  197.3740  173.5520  138.3340 N   0  0  0  0  0  2  0  0  0  0  0  0
  198.3390  175.5750  138.9520 O   0  0  0  0  0  0  0  0  0  0  0  0
  1  2  1  0  0  0  0
  2 17  1  6  0  0  0
  2 10  1  0  0  0  0
  3 18  2  0  0  0  0
  5  4  2  0  0  0  0
  6 14  2  0  0  0  0
  7 16  2  0  0  0  0
  8  7  1  0  0  0  0
  8  5  1  0  0  0  0
  9 12  1  1  0  0  0
  9  3  1  0  0  0  0
  9 13  1  0  0  0  0
 10 20  1  1  0  0  0
 10 15  1  0  0  0  0
 13 17  1  6  0  0  0
 13 23  1  0  0  0  0
 15 21  1  0  0  0  0
 15  7  1  1  0  0  0
 16 11  1  0  0  0  0
 18  6  1  0  0  0  0
 19  1  1  0  0  0  0
 19 20  1  0  0  0  0
 21 24  1  6  0  0  0
 21 11  1  0  0  0  0
 22 24  1  0  0  0  0
 23 22  1  0  0  0  0
 23  6  1  0  0  0  0
 25 28  1  0  0  0  0
 26 25  2  0  0  0  0
 26  5  1  0  0  0  0
 28 27  1  1  0  0  0
 29 30  2  0  0  0  0
 30 28  1  0  0  0  0
 31 32  1  0  0  0  0
 32 30  1  0  0  0  0
 33 32  1  0  0  0  0
 34 35  1  0  0  0  0
 34  3  1  0  0  0  0
 35 36  2  0  0  0  0
 36 37  1  0  0  0  0
 37 41  1  0  0  0  0
 38 37  2  0  0  0  0
 39 41  1  0  0  0  0
 39 42  2  0  0  0  0
 40 39  1  0  0  0  0
M  END
>  <MODEL>
8

>  <REMARK>
 VINA RESULT:      -7.2      3.061      4.702
  Name = 
  8 active torsions:
  status: ('A' for Active; 'I' for Inactive)
    1  A    between atoms: C_3  and  C_13
    2  A    between atoms: C_6  and  C_25
    3  A    between atoms: C_8  and  N_33
    4  A    between atoms: C_11  and  C_14
    5  A    between atoms: C_11  and  C_25
    6  A    between atoms: C_13  and  C_15
    7  A    between atoms: N_20  and  C_21
    8  A    between atoms: C_21  and  N_24
                            x       y       z     vdW  Elec       q    Type
                         _______ _______ _______ _____ _____    ______ ____

>  <TORSDO>
F 8

$$$$
=
 OpenBabel11032420523D

 42 45  0  0  1  0  0  0  0  0999 V2000
  184.8060  178.0480  141.1260 C   0  0  0  0  0  2  0  0  0  0  0  0
  185.7090  177.7890  139.9330 C   0  0  2  0  0  3  0  0  0  0  0  0
  183.7700  177.4530  135.4570 C   0  0  0  0  0  0  0  0  0  0  0  0
  191.9940  177.2990  142.0350 O   0  0  0  0  0  0  0  0  0  0  0  0
  191.1370  178.1350  142.4290 C   0  0  0  0  0  0  0  0  0  0  0  0
  186.1530  177.3970  135.3220 C   0  0  0  0  0  0  0  0  0  0  0  0
  189.4860  177.5020  140.5970 C   0  0  0  0  0  0  0  0  0  0  0  0
  189.8890  178.2630  141.7440 N   0  0  0  0  0  2  0  0  0  0  0  0
  183.8610  178.2460  136.7450 C   0  0  1  0  0  3  0  0  0  0  0  0
  187.0720  178.1400  140.4250 C   0  0  2  0  0  3  0  0  0  0  0  0
  189.5170  175.9850  139.0020 N   0  0  0  0  0  2  0  0  0  0  0  0
  182.7200  178.0510  137.5290 O   0  0  0  0  0  1  0  0  0  0  0  0
  185.1090  177.8380  137.5300 C   0  0  2  0  0  3  0  0  0  0  0  0
  187.1650  177.2190  134.5940 O   0  0  0  0  0  0  0  0  0  0  0  0
  188.2060  177.6380  139.9010 C   0  0  2  0  0  3  0  0  0  0  0  0
  190.1920  176.5510  140.0900 N   0  0  0  0  0  0  0  0  0  0  0  0
  185.2720  178.6840  138.7880 C   0  0  0  0  0  2  0  0  0  0  0  0
  184.8480  177.1130  134.8100 N   0  0  0  0  0  0  0  0  0  0  0  0
  185.5480  179.0220  142.0290 C   0  0  0  0  0  2  0  0  0  0  0  0
  187.0240  178.8360  141.7390 C   0  0  0  0  0  2  0  0  0  0  0  0
  188.3060  176.7390  138.7000 C   0  0  1  0  0  3  0  0  0  0  0  0
  187.5230  178.5570  137.0800 C   0  0  0  0  0  2  0  0  0  0  0  0
  186.2930  177.8920  136.6620 N   0  0  0  0  0  0  0  0  0  0  0  0
  188.5980  177.5420  137.4290 C   0  0  0  0  0  2  0  0  0  0  0  0
  191.1450  178.6580  144.8510 C   0  0  0  0  0  3  0  0  0  0  0  0
  191.3640  178.9390  143.5960 N   0  0  0  0  0  0  0  0  0  0  0  0
  191.5960  176.6500  146.3380 C   0  0  0  0  0  1  0  0  0  0  0  0
  190.6270  177.3640  145.4120 C   0  0  1  0  0  3  0  0  0  0  0  0
  188.9640  177.3700  147.1070 O   0  0  0  0  0  0  0  0  0  0  0  0
  189.2110  177.4310  145.9120 C   0  0  0  0  0  0  0  0  0  0  0  0
  186.7650  177.6910  145.6250 C   0  0  0  0  0  1  0  0  0  0  0  0
  188.1010  177.5770  144.9170 C   0  0  0  0  0  3  0  0  0  0  0  0
  188.0780  176.4030  143.9570 C   0  0  0  0  0  1  0  0  0  0  0  0
  182.4400  177.0890  134.8800 C   0  0  0  0  0  2  0  0  0  0  0  0
  182.1930  175.6230  135.0130 C   0  0  0  0  0  3  0  0  0  0  0  0
  182.6780  174.9680  136.0180 N   0  0  0  0  0  0  0  0  0  0  0  0
  182.4710  173.5660  136.1920 C   0  0  0  0  0  0  0  0  0  0  0  0
  181.0870  173.0770  136.9230 S   0  0  0  0  0  0  0  0  0  0  0  0
  184.7490  172.4400  136.6070 C   0  0  0  0  0  0  0  0  0  0  0  0
  184.9340  172.9820  137.9110 N   0  0  0  0  0  1  0  0  0  0  0  0
  183.5270  172.6390  135.8820 N   0  0  0  0  0  2  0  0  0  0  0  0
  185.6620  171.7440  136.0940 O   0  0  0  0  0  0  0  0  0  0  0  0
  1 19  1  0  0  0  0
  2 17  1  6  0  0  0
  2 10  1  0  0  0  0
  2  1  1  0  0  0  0
  3  9  1  0  0  0  0
  4  5  2  0  0  0  0
  5 26  1  0  0  0  0
  6 23  1  0  0  0  0
  7  8  1  0  0  0  0
  8  5  1  0  0  0  0
  9 12  1  1  0  0  0
  9 13  1  0  0  0  0
 10 20  1  1  0  0  0
 11 16  1  0  0  0  0
 13 17  1  1  0  0  0
 14  6  2  0  0  0  0
 15 10  1  0  0  0  0
 15  7  1  1  0  0  0
 16  7  2  0  0  0  0
 18  6  1  0  0  0  0
 18  3  2  0  0  0  0
 20 19  1  0  0  0  0
 21 24  1  6  0  0  0
 21 11  1  0  0  0  0
 21 15  1  0  0  0  0
 22 24  1  0  0  0  0
 23 22  1  0  0  0  0
 23 13  1  0  0  0  0
 25 28  1  0  0  0  0
 26 25  2  0  0  0  0
 28 30  1  0  0  0  0
 28 27  1  1  0  0  0
 30 29  2  0  0  0  0
 32 31  1  0  0  0  0
 32 30  1  0  0  0  0
 33 32  1  0  0  0  0
 34 35  1  0  0  0  0
 34  3  1  0  0  0  0
 35 36  2  0  0  0  0
 36 37  1  0  0  0  0
 37 38  2  0  0  0  0
 39 40  1  0  0  0  0
 41 37  1  0  0  0  0
 41 39  1  0  0  0  0
 42 39  2  0  0  0  0
M  END
>  <MODEL>
9

>  <REMARK>
 VINA RESULT:      -7.2      4.350      7.858
  Name = 
  8 active torsions:
  status: ('A' for Active; 'I' for Inactive)
    1  A    between atoms: C_3  and  C_13
    2  A    between atoms: C_6  and  C_25
    3  A    between atoms: C_8  and  N_33
    4  A    between atoms: C_11  and  C_14
    5  A    between atoms: C_11  and  C_25
    6  A    between atoms: C_13  and  C_15
    7  A    between atoms: N_20  and  C_21
    8  A    between atoms: C_21  and  N_24
                            x       y       z     vdW  Elec       q    Type
                         _______ _______ _______ _____ _____    ______ ____

>  <TORSDO>
F 8

$$$$
