=
 OpenBabel11032419273D

 36 39  0  0  1  0  0  0  0  0999 V2000
  186.2700  178.3880  143.1760 C   0  0  0  0  0  0  0  0  0  0  0  0
  187.2990  178.0800  142.2810 C   0  0  0  0  0  3  0  0  0  0  0  0
  185.8860  178.8160  140.4640 C   0  0  0  0  0  3  0  0  0  0  0  0
  185.0920  178.8870  142.7140 N   0  0  0  0  0  0  0  0  0  0  0  0
  184.8810  179.1080  141.3890 C   0  0  0  0  0  3  0  0  0  0  0  0
  187.1140  178.2980  140.9070 C   0  0  0  0  0  0  0  0  0  0  0  0
  187.8380  177.7760  138.5520 C   0  0  0  0  0  2  0  0  0  0  0  0
  188.1580  177.9790  139.9700 N   0  0  0  0  0  0  0  0  0  0  0  0
  190.2230  176.6290  139.9110 C   0  0  0  0  0  2  0  0  0  0  0  0
  189.0680  177.3540  137.7510 C   0  0  0  0  0  2  0  0  0  0  0  0
  189.8000  176.2350  138.4890 C   0  0  1  0  0  3  0  0  0  0  0  0
  189.5520  177.9090  140.4150 C   0  0  0  0  0  2  0  0  0  0  0  0
  192.0670  172.6850  135.8140 C   0  0  0  0  0  1  0  0  0  0  0  0
  192.0590  174.0420  136.4230 C   0  0  0  0  0  0  0  0  0  0  0  0
  190.9720  175.7500  137.7040 C   0  0  0  0  0  0  0  0  0  0  0  0
  193.1410  176.1070  136.8220 C   0  0  0  0  0  0  0  0  0  0  0  0
  193.1330  174.8620  136.2750 N   0  0  0  0  0  0  0  0  0  0  0  0
  194.2770  176.9440  136.6640 N   0  0  0  0  0  1  0  0  0  0  0  0
  190.9470  174.4720  137.1470 C   0  0  0  0  0  3  0  0  0  0  0  0
  192.0690  176.5420  137.5350 N   0  0  0  0  0  0  0  0  0  0  0  0
  186.4450  178.1090  144.6280 C   0  0  0  0  0  2  0  0  0  0  0  0
  185.8070  179.0360  146.9180 N   0  0  0  0  0  0  0  0  0  0  0  0
  184.6710  178.3320  146.3050 C   0  0  0  0  0  2  0  0  0  0  0  0
  185.5850  179.0780  145.4460 C   0  0  2  0  0  3  0  0  0  0  0  0
  186.7420  177.9980  147.3550 C   0  0  0  0  0  2  0  0  0  0  0  0
  187.6700  178.5460  148.4300 C   0  0  0  0  0  2  0  0  0  0  0  0
  189.1150  178.1560  148.1570 C   0  0  0  0  0  2  0  0  0  0  0  0
  189.1800  176.7770  147.5120 C   0  0  0  0  0  2  0  0  0  0  0  0
  190.2620  176.6820  146.4360 C   0  0  2  0  0  3  0  0  0  0  0  0
  192.0620  177.0340  147.9580 O   0  0  0  0  0  1  0  0  0  0  0  0
  191.5940  176.3360  147.0220 C   0  0  0  0  0  0  0  0  0  0  0  0
  192.3260  175.2600  146.5320 O   0  0  0  0  0  0  0  0  0  0  0  0
  190.3550  177.9360  145.5620 C   0  0  0  0  0  2  0  0  0  0  0  0
  191.6940  179.1250  143.9480 O   0  0  0  0  0  1  0  0  0  0  0  0
  191.4940  177.8800  144.5450 C   0  0  2  0  0  3  0  0  0  0  0  0
  191.2440  176.8230  143.4840 C   0  0  0  0  0  1  0  0  0  0  0  0
  1 21  1  0  0  0  0
  2  1  2  0  0  0  0
  3  6  2  0  0  0  0
  3  5  1  0  0  0  0
  4  1  1  0  0  0  0
  5  4  2  0  0  0  0
  6  2  1  0  0  0  0
  7  8  1  0  0  0  0
  8 12  1  0  0  0  0
  8  6  1  0  0  0  0
  9 12  1  0  0  0  0
 10 11  1  0  0  0  0
 10  7  1  0  0  0  0
 11 15  1  6  0  0  0
 11  9  1  0  0  0  0
 13 14  1  0  0  0  0
 14 19  2  0  0  0  0
 16 20  1  0  0  0  0
 17 14  1  0  0  0  0
 17 16  2  0  0  0  0
 18 16  1  0  0  0  0
 19 15  1  0  0  0  0
 20 15  2  0  0  0  0
 22 25  1  0  0  0  0
 23 22  1  0  0  0  0
 24 21  1  6  0  0  0
 24 23  1  0  0  0  0
 24 22  1  0  0  0  0
 25 26  1  0  0  0  0
 27 26  1  0  0  0  0
 28 27  1  0  0  0  0
 29 33  1  1  0  0  0
 29 31  1  0  0  0  0
 29 28  1  0  0  0  0
 31 30  1  0  0  0  0
 32 31  2  0  0  0  0
 34 35  1  0  0  0  0
 35 36  1  6  0  0  0
 35 33  1  0  0  0  0
M  END
>  <MODEL>
1

>  <REMARK>
 VINA RESULT:      -8.3      0.000      0.000
  Name = 
  12 active torsions:
  status: ('A' for Active; 'I' for Inactive)
    1  A    between atoms: C_4  and  C_27
    2  A    between atoms: N_5  and  C_25
    3  A    between atoms: C_6  and  C_17
    4  A    between atoms: C_6  and  C_30
    5  A    between atoms: C_9  and  N_10
    6  A    between atoms: C_9  and  C_30
    7  A    between atoms: C_11  and  C_29
    8  A    between atoms: C_17  and  C_36
    9  A    between atoms: C_18  and  C_22
   10  A    between atoms: C_19  and  C_36
   11  A    between atoms: C_22  and  C_36
   12  A    between atoms: C_27  and  C_31
                            x       y       z     vdW  Elec       q    Type
                         _______ _______ _______ _____ _____    ______ ____

>  <TORSDO>
F 12

$$$$
=
 OpenBabel11032419273D

 36 39  0  0  1  0  0  0  0  0999 V2000
  188.1500  177.4540  146.6990 C   0  0  0  0  0  0  0  0  0  0  0  0
  187.3040  177.7600  145.6290 C   0  0  0  0  0  3  0  0  0  0  0  0
  185.9120  179.0290  147.1440 C   0  0  0  0  0  3  0  0  0  0  0  0
  187.8700  177.9220  147.9450 N   0  0  0  0  0  0  0  0  0  0  0  0
  186.7800  178.6990  148.1870 C   0  0  0  0  0  3  0  0  0  0  0  0
  186.1720  178.5600  145.8450 C   0  0  0  0  0  0  0  0  0  0  0  0
  183.8460  179.0350  145.0030 C   0  0  0  0  0  2  0  0  0  0  0  0
  185.2850  178.8800  144.7580 N   0  0  0  0  0  0  0  0  0  0  0  0
  185.0290  178.3120  142.3710 C   0  0  0  0  0  2  0  0  0  0  0  0
  183.0760  179.2760  143.7060 C   0  0  0  0  0  2  0  0  0  0  0  0
  183.5200  178.2640  142.6520 C   0  0  1  0  0  3  0  0  0  0  0  0
  185.8190  179.1060  143.4130 C   0  0  0  0  0  2  0  0  0  0  0  0
  183.1200  177.7680  137.7030 C   0  0  0  0  0  1  0  0  0  0  0  0
  182.5550  178.1890  139.0120 C   0  0  0  0  0  0  0  0  0  0  0  0
  182.7420  178.4260  141.3890 C   0  0  0  0  0  0  0  0  0  0  0  0
  180.7790  179.1260  140.2630 C   0  0  0  0  0  0  0  0  0  0  0  0
  181.3130  178.7380  139.0740 N   0  0  0  0  0  0  0  0  0  0  0  0
  179.4830  179.7060  140.3050 N   0  0  0  0  0  1  0  0  0  0  0  0
  183.3020  178.0210  140.1780 C   0  0  0  0  0  3  0  0  0  0  0  0
  181.4940  178.9740  141.4090 N   0  0  0  0  0  0  0  0  0  0  0  0
  189.3220  176.5620  146.4830 C   0  0  0  0  0  2  0  0  0  0  0  0
  191.7230  177.4110  146.6480 N   0  0  0  0  0  0  0  0  0  0  0  0
  191.5980  176.0780  147.2550 C   0  0  0  0  0  2  0  0  0  0  0  0
  190.4840  177.0130  147.3730 C   0  0  2  0  0  3  0  0  0  0  0  0
  191.6630  177.2070  145.2000 C   0  0  0  0  0  2  0  0  0  0  0  0
  191.8070  178.5380  144.4760 C   0  0  0  0  0  2  0  0  0  0  0  0
  191.2950  178.4430  143.0460 C   0  0  0  0  0  2  0  0  0  0  0  0
  189.7730  178.4890  143.0240 C   0  0  0  0  0  2  0  0  0  0  0  0
  189.1680  177.4510  142.0780 C   0  0  2  0  0  3  0  0  0  0  0  0
  188.0380  175.7090  143.2480 O   0  0  0  0  0  1  0  0  0  0  0  0
  189.1070  176.0970  142.7110 C   0  0  0  0  0  0  0  0  0  0  0  0
  190.2260  175.2710  142.7270 O   0  0  0  0  0  0  0  0  0  0  0  0
  189.8700  177.3920  140.7190 C   0  0  0  0  0  2  0  0  0  0  0  0
  187.8950  178.6130  140.0740 O   0  0  0  0  0  1  0  0  0  0  0  0
  189.0390  177.9850  139.5830 C   0  0  2  0  0  3  0  0  0  0  0  0
  188.6600  176.9310  138.5580 C   0  0  0  0  0  1  0  0  0  0  0  0
  1  4  1  0  0  0  0
  2  6  1  0  0  0  0
  2  1  2  0  0  0  0
  3  5  1  0  0  0  0
  4  5  2  0  0  0  0
  6  3  2  0  0  0  0
  8  7  1  0  0  0  0
  8  6  1  0  0  0  0
  9 11  1  0  0  0  0
  9 12  1  0  0  0  0
 10  7  1  0  0  0  0
 11 15  1  6  0  0  0
 11 10  1  0  0  0  0
 12  8  1  0  0  0  0
 13 14  1  0  0  0  0
 14 17  1  0  0  0  0
 14 19  2  0  0  0  0
 15 20  2  0  0  0  0
 16 18  1  0  0  0  0
 16 20  1  0  0  0  0
 17 16  2  0  0  0  0
 19 15  1  0  0  0  0
 21  1  1  0  0  0  0
 22 23  1  0  0  0  0
 22 24  1  0  0  0  0
 23 24  1  0  0  0  0
 24 21  1  6  0  0  0
 25 22  1  0  0  0  0
 26 25  1  0  0  0  0
 27 26  1  0  0  0  0
 28 27  1  0  0  0  0
 29 33  1  6  0  0  0
 29 31  1  0  0  0  0
 29 28  1  0  0  0  0
 31 32  2  0  0  0  0
 31 30  1  0  0  0  0
 35 36  1  6  0  0  0
 35 34  1  0  0  0  0
 35 33  1  0  0  0  0
M  END
>  <MODEL>
2

>  <REMARK>
 VINA RESULT:      -8.1      3.965      7.541
  Name = 
  12 active torsions:
  status: ('A' for Active; 'I' for Inactive)
    1  A    between atoms: C_4  and  C_27
    2  A    between atoms: N_5  and  C_25
    3  A    between atoms: C_6  and  C_17
    4  A    between atoms: C_6  and  C_30
    5  A    between atoms: C_9  and  N_10
    6  A    between atoms: C_9  and  C_30
    7  A    between atoms: C_11  and  C_29
    8  A    between atoms: C_17  and  C_36
    9  A    between atoms: C_18  and  C_22
   10  A    between atoms: C_19  and  C_36
   11  A    between atoms: C_22  and  C_36
   12  A    between atoms: C_27  and  C_31
                            x       y       z     vdW  Elec       q    Type
                         _______ _______ _______ _____ _____    ______ ____

>  <TORSDO>
F 12

$$$$
=
 OpenBabel11032419273D

 36 39  0  0  1  0  0  0  0  0999 V2000
  188.9100  176.3600  137.3560 C   0  0  0  0  0  0  0  0  0  0  0  0
  188.9590  176.6980  138.7120 C   0  0  0  0  0  3  0  0  0  0  0  0
  191.3720  176.6240  138.6040 C   0  0  0  0  0  3  0  0  0  0  0  0
  190.0630  176.1590  136.6620 N   0  0  0  0  0  0  0  0  0  0  0  0
  191.2820  176.2850  137.2520 C   0  0  0  0  0  3  0  0  0  0  0  0
  190.2010  176.8370  139.3490 C   0  0  0  0  0  0  0  0  0  0  0  0
  191.5680  177.4680  141.3690 C   0  0  0  0  0  2  0  0  0  0  0  0
  190.2710  177.1760  140.7470 N   0  0  0  0  0  0  0  0  0  0  0  0
  189.1750  176.5110  142.8540 C   0  0  0  0  0  2  0  0  0  0  0  0
  191.4310  177.7080  142.8710 C   0  0  0  0  0  2  0  0  0  0  0  0
  190.5690  176.6080  143.4880 C   0  0  1  0  0  3  0  0  0  0  0  0
  189.0450  177.2850  141.5400 C   0  0  0  0  0  2  0  0  0  0  0  0
  187.9790  177.9370  147.5410 C   0  0  0  0  0  1  0  0  0  0  0  0
  189.2210  177.4140  146.9110 C   0  0  0  0  0  0  0  0  0  0  0  0
  190.4670  176.7720  144.9680 C   0  0  0  0  0  0  0  0  0  0  0  0
  191.4310  176.5990  147.1240 C   0  0  0  0  0  0  0  0  0  0  0  0
  190.2890  177.0820  147.6820 N   0  0  0  0  0  0  0  0  0  0  0  0
  192.5400  176.2670  147.9470 N   0  0  0  0  0  1  0  0  0  0  0  0
  189.2880  177.2660  145.5260 C   0  0  0  0  0  3  0  0  0  0  0  0
  191.5170  176.4510  145.7750 N   0  0  0  0  0  0  0  0  0  0  0  0
  187.5940  176.1610  136.6910 C   0  0  0  0  0  2  0  0  0  0  0  0
  185.5050  177.5960  136.9890 N   0  0  0  0  0  0  0  0  0  0  0  0
  185.7880  177.3770  135.5640 C   0  0  0  0  0  2  0  0  0  0  0  0
  186.9070  177.5150  136.4910 C   0  0  2  0  0  3  0  0  0  0  0  0
  184.9760  176.3300  137.5000 C   0  0  0  0  0  2  0  0  0  0  0  0
  183.4540  176.3680  137.5190 C   0  0  0  0  0  2  0  0  0  0  0  0
  182.9450  177.4760  138.4300 C   0  0  0  0  0  2  0  0  0  0  0  0
  183.3070  177.1790  139.8800 C   0  0  0  0  0  2  0  0  0  0  0  0
  183.6950  178.4370  140.6570 C   0  0  2  0  0  3  0  0  0  0  0  0
  184.4540  180.2080  139.2540 O   0  0  0  0  0  0  0  0  0  0  0  0
  184.7650  179.2110  139.9550 C   0  0  0  0  0  0  0  0  0  0  0  0
  186.0980  178.8290  140.0570 O   0  0  0  0  0  1  0  0  0  0  0  0
  184.0850  178.1520  142.1100 C   0  0  0  0  0  2  0  0  0  0  0  0
  184.6760  179.6470  143.9070 O   0  0  0  0  0  1  0  0  0  0  0  0
  183.6280  179.2380  143.0820 C   0  0  2  0  0  3  0  0  0  0  0  0
  182.4500  178.7760  143.9210 C   0  0  0  0  0  1  0  0  0  0  0  0
  1  2  1  0  0  0  0
  2  6  2  0  0  0  0
  3  6  1  0  0  0  0
  4  5  1  0  0  0  0
  4  1  2  0  0  0  0
  5  3  2  0  0  0  0
  6  8  1  0  0  0  0
  7 10  1  0  0  0  0
  8  7  1  0  0  0  0
  8 12  1  0  0  0  0
  9 11  1  0  0  0  0
 10 11  1  0  0  0  0
 11 15  1  1  0  0  0
 12  9  1  0  0  0  0
 14 13  1  0  0  0  0
 14 17  1  0  0  0  0
 15 19  1  0  0  0  0
 15 20  2  0  0  0  0
 16 17  2  0  0  0  0
 16 18  1  0  0  0  0
 19 14  2  0  0  0  0
 20 16  1  0  0  0  0
 21  1  1  0  0  0  0
 22 25  1  0  0  0  0
 23 24  1  0  0  0  0
 23 22  1  0  0  0  0
 24 21  1  1  0  0  0
 24 22  1  0  0  0  0
 25 26  1  0  0  0  0
 26 27  1  0  0  0  0
 27 28  1  0  0  0  0
 29 28  1  6  0  0  0
 29 33  1  0  0  0  0
 30 31  2  0  0  0  0
 31 32  1  0  0  0  0
 31 29  1  0  0  0  0
 33 35  1  0  0  0  0
 35 34  1  0  0  0  0
 35 36  1  1  0  0  0
M  END
>  <MODEL>
3

>  <REMARK>
 VINA RESULT:      -8.0      3.498      8.748
  Name = 
  12 active torsions:
  status: ('A' for Active; 'I' for Inactive)
    1  A    between atoms: C_4  and  C_27
    2  A    between atoms: N_5  and  C_25
    3  A    between atoms: C_6  and  C_17
    4  A    between atoms: C_6  and  C_30
    5  A    between atoms: C_9  and  N_10
    6  A    between atoms: C_9  and  C_30
    7  A    between atoms: C_11  and  C_29
    8  A    between atoms: C_17  and  C_36
    9  A    between atoms: C_18  and  C_22
   10  A    between atoms: C_19  and  C_36
   11  A    between atoms: C_22  and  C_36
   12  A    between atoms: C_27  and  C_31
                            x       y       z     vdW  Elec       q    Type
                         _______ _______ _______ _____ _____    ______ ____

>  <TORSDO>
F 12

$$$$
=
 OpenBabel11032419273D

 36 39  0  0  1  0  0  0  0  0999 V2000
  187.8730  177.4820  145.7290 C   0  0  0  0  0  0  0  0  0  0  0  0
  186.9550  177.7950  144.7220 C   0  0  0  0  0  3  0  0  0  0  0  0
  185.5020  178.7540  146.4000 C   0  0  0  0  0  3  0  0  0  0  0  0
  187.5980  177.7960  147.0240 N   0  0  0  0  0  0  0  0  0  0  0  0
  186.4440  178.4220  147.3770 C   0  0  0  0  0  3  0  0  0  0  0  0
  185.7540  178.4420  145.0540 C   0  0  0  0  0  0  0  0  0  0  0  0
  183.3580  178.7620  144.3450 C   0  0  0  0  0  2  0  0  0  0  0  0
  184.7920  178.7660  144.0330 N   0  0  0  0  0  0  0  0  0  0  0  0
  184.4800  178.3770  141.6170 C   0  0  0  0  0  2  0  0  0  0  0  0
  182.5110  179.0360  143.1040 C   0  0  0  0  0  2  0  0  0  0  0  0
  182.9970  178.1620  141.9490 C   0  0  1  0  0  3  0  0  0  0  0  0
  185.2420  179.1530  142.6940 C   0  0  0  0  0  2  0  0  0  0  0  0
  179.4090  176.5800  138.8640 C   0  0  0  0  0  1  0  0  0  0  0  0
  180.4290  177.5890  139.2550 C   0  0  0  0  0  0  0  0  0  0  0  0
  182.1500  178.3540  140.7360 C   0  0  0  0  0  0  0  0  0  0  0  0
  181.5320  179.6410  138.8470 C   0  0  0  0  0  0  0  0  0  0  0  0
  180.6070  178.7060  138.5020 N   0  0  0  0  0  0  0  0  0  0  0  0
  181.7100  180.7960  138.0400 N   0  0  0  0  0  1  0  0  0  0  0  0
  181.2030  177.3870  140.3980 C   0  0  0  0  0  3  0  0  0  0  0  0
  182.2990  179.4600  139.9540 N   0  0  0  0  0  0  0  0  0  0  0  0
  189.1220  176.7490  145.3870 C   0  0  0  0  0  2  0  0  0  0  0  0
  191.5300  177.4550  144.9190 N   0  0  0  0  0  0  0  0  0  0  0  0
  191.4420  176.7030  146.1790 C   0  0  0  0  0  2  0  0  0  0  0  0
  190.3380  177.5820  145.8040 C   0  0  2  0  0  3  0  0  0  0  0  0
  191.3770  176.4700  143.8460 C   0  0  0  0  0  2  0  0  0  0  0  0
  191.5870  177.1340  142.4920 C   0  0  0  0  0  2  0  0  0  0  0  0
  190.3420  177.8920  142.0540 C   0  0  0  0  0  2  0  0  0  0  0  0
  189.4990  177.0340  141.1190 C   0  0  0  0  0  2  0  0  0  0  0  0
  189.6700  177.4250  139.6500 C   0  0  2  0  0  3  0  0  0  0  0  0
  187.6530  178.6670  139.9120 O   0  0  0  0  0  1  0  0  0  0  0  0
  188.7100  178.5010  139.2520 C   0  0  0  0  0  0  0  0  0  0  0  0
  188.9680  179.3080  138.1490 O   0  0  0  0  0  0  0  0  0  0  0  0
  189.5870  176.2320  138.6940 C   0  0  0  0  0  2  0  0  0  0  0  0
  191.1620  174.5340  138.0280 O   0  0  0  0  0  1  0  0  0  0  0  0
  190.9170  175.9070  138.0180 C   0  0  2  0  0  3  0  0  0  0  0  0
  192.0700  176.6510  138.6660 C   0  0  0  0  0  1  0  0  0  0  0  0
  1  4  1  0  0  0  0
  2  6  1  0  0  0  0
  2  1  2  0  0  0  0
  3  5  1  0  0  0  0
  4  5  2  0  0  0  0
  6  3  2  0  0  0  0
  8  7  1  0  0  0  0
  8  6  1  0  0  0  0
  9 11  1  0  0  0  0
  9 12  1  0  0  0  0
 10  7  1  0  0  0  0
 11 15  1  6  0  0  0
 11 10  1  0  0  0  0
 12  8  1  0  0  0  0
 13 14  1  0  0  0  0
 14 19  2  0  0  0  0
 16 20  1  0  0  0  0
 17 16  2  0  0  0  0
 17 14  1  0  0  0  0
 18 16  1  0  0  0  0
 19 15  1  0  0  0  0
 20 15  2  0  0  0  0
 21  1  1  0  0  0  0
 22 24  1  0  0  0  0
 22 23  1  0  0  0  0
 24 21  1  6  0  0  0
 24 23  1  0  0  0  0
 25 22  1  0  0  0  0
 26 25  1  0  0  0  0
 27 26  1  0  0  0  0
 28 27  1  0  0  0  0
 29 33  1  6  0  0  0
 29 28  1  0  0  0  0
 31 29  1  0  0  0  0
 31 30  1  0  0  0  0
 32 31  2  0  0  0  0
 35 34  1  0  0  0  0
 35 36  1  1  0  0  0
 35 33  1  0  0  0  0
M  END
>  <MODEL>
4

>  <REMARK>
 VINA RESULT:      -7.9      3.804      8.086
  Name = 
  12 active torsions:
  status: ('A' for Active; 'I' for Inactive)
    1  A    between atoms: C_4  and  C_27
    2  A    between atoms: N_5  and  C_25
    3  A    between atoms: C_6  and  C_17
    4  A    between atoms: C_6  and  C_30
    5  A    between atoms: C_9  and  N_10
    6  A    between atoms: C_9  and  C_30
    7  A    between atoms: C_11  and  C_29
    8  A    between atoms: C_17  and  C_36
    9  A    between atoms: C_18  and  C_22
   10  A    between atoms: C_19  and  C_36
   11  A    between atoms: C_22  and  C_36
   12  A    between atoms: C_27  and  C_31
                            x       y       z     vdW  Elec       q    Type
                         _______ _______ _______ _____ _____    ______ ____

>  <TORSDO>
F 12

$$$$
=
 OpenBabel11032419273D

 36 39  0  0  1  0  0  0  0  0999 V2000
  188.6820  176.6980  137.3190 C   0  0  0  0  0  0  0  0  0  0  0  0
  188.4040  177.0930  138.6310 C   0  0  0  0  0  3  0  0  0  0  0  0
  190.7330  176.7570  139.1830 C   0  0  0  0  0  3  0  0  0  0  0  0
  189.9470  176.3410  136.9680 N   0  0  0  0  0  0  0  0  0  0  0  0
  190.9700  176.3650  137.8630 C   0  0  0  0  0  3  0  0  0  0  0  0
  189.4380  177.1290  139.5790 C   0  0  0  0  0  0  0  0  0  0  0  0
  190.0010  177.0090  142.0310 C   0  0  0  0  0  2  0  0  0  0  0  0
  189.1710  177.5250  140.9370 N   0  0  0  0  0  0  0  0  0  0  0  0
  187.2090  177.9830  142.3620 C   0  0  0  0  0  2  0  0  0  0  0  0
  189.4900  177.4740  143.3940 C   0  0  0  0  0  2  0  0  0  0  0  0
  187.9800  177.2590  143.4750 C   0  0  1  0  0  3  0  0  0  0  0  0
  188.1040  178.4870  141.2270 C   0  0  0  0  0  2  0  0  0  0  0  0
  188.6100  177.7860  148.3970 C   0  0  0  0  0  1  0  0  0  0  0  0
  187.7590  177.8900  147.1810 C   0  0  0  0  0  0  0  0  0  0  0  0
  187.4540  177.6410  144.8170 C   0  0  0  0  0  0  0  0  0  0  0  0
  185.6870  178.4370  146.1790 C   0  0  0  0  0  0  0  0  0  0  0  0
  186.4780  178.3320  147.2810 N   0  0  0  0  0  0  0  0  0  0  0  0
  184.3480  178.8920  146.3070 N   0  0  0  0  0  1  0  0  0  0  0  0
  188.2780  177.5310  145.9370 C   0  0  0  0  0  3  0  0  0  0  0  0
  186.1740  178.0880  144.9590 N   0  0  0  0  0  0  0  0  0  0  0  0
  187.5780  176.6070  136.3250 C   0  0  0  0  0  2  0  0  0  0  0  0
  186.0540  174.6210  135.8300 N   0  0  0  0  0  0  0  0  0  0  0  0
  186.9830  174.3060  136.9250 C   0  0  0  0  0  2  0  0  0  0  0  0
  187.4420  175.1620  135.8350 C   0  0  2  0  0  3  0  0  0  0  0  0
  185.0530  175.5300  136.3930 C   0  0  0  0  0  2  0  0  0  0  0  0
  184.1490  174.7790  137.3620 C   0  0  0  0  0  2  0  0  0  0  0  0
  183.3580  175.7440  138.2320 C   0  0  0  0  0  2  0  0  0  0  0  0
  183.5720  177.1780  137.7650 C   0  0  0  0  0  2  0  0  0  0  0  0
  183.4230  178.1940  138.8980 C   0  0  2  0  0  3  0  0  0  0  0  0
  185.5910  178.9420  138.2490 O   0  0  0  0  0  0  0  0  0  0  0  0
  184.6910  178.9540  139.1270 C   0  0  0  0  0  0  0  0  0  0  0  0
  184.8900  179.6600  140.3090 O   0  0  0  0  0  1  0  0  0  0  0  0
  182.9100  177.5740  140.2010 C   0  0  0  0  0  2  0  0  0  0  0  0
  182.1220  178.7950  142.1230 O   0  0  0  0  0  1  0  0  0  0  0  0
  181.7740  178.3680  140.8420 C   0  0  2  0  0  3  0  0  0  0  0  0
  180.4870  177.5650  140.8870 C   0  0  0  0  0  1  0  0  0  0  0  0
  1  2  1  0  0  0  0
  2  6  2  0  0  0  0
  3  6  1  0  0  0  0
  4  1  2  0  0  0  0
  4  5  1  0  0  0  0
  5  3  2  0  0  0  0
  6  8  1  0  0  0  0
  7 10  1  0  0  0  0
  8 12  1  0  0  0  0
  8  7  1  0  0  0  0
  9 11  1  0  0  0  0
 10 11  1  0  0  0  0
 11 15  1  1  0  0  0
 12  9  1  0  0  0  0
 14 17  1  0  0  0  0
 14 13  1  0  0  0  0
 15 20  2  0  0  0  0
 15 19  1  0  0  0  0
 16 18  1  0  0  0  0
 16 17  2  0  0  0  0
 19 14  2  0  0  0  0
 20 16  1  0  0  0  0
 21  1  1  0  0  0  0
 22 24  1  0  0  0  0
 22 25  1  0  0  0  0
 22 23  1  0  0  0  0
 24 21  1  1  0  0  0
 24 23  1  0  0  0  0
 25 26  1  0  0  0  0
 26 27  1  0  0  0  0
 28 27  1  0  0  0  0
 29 28  1  6  0  0  0
 29 31  1  0  0  0  0
 29 33  1  0  0  0  0
 30 31  2  0  0  0  0
 31 32  1  0  0  0  0
 33 35  1  0  0  0  0
 35 36  1  1  0  0  0
 35 34  1  0  0  0  0
M  END
>  <MODEL>
5

>  <REMARK>
 VINA RESULT:      -7.9      3.555      9.576
  Name = 
  12 active torsions:
  status: ('A' for Active; 'I' for Inactive)
    1  A    between atoms: C_4  and  C_27
    2  A    between atoms: N_5  and  C_25
    3  A    between atoms: C_6  and  C_17
    4  A    between atoms: C_6  and  C_30
    5  A    between atoms: C_9  and  N_10
    6  A    between atoms: C_9  and  C_30
    7  A    between atoms: C_11  and  C_29
    8  A    between atoms: C_17  and  C_36
    9  A    between atoms: C_18  and  C_22
   10  A    between atoms: C_19  and  C_36
   11  A    between atoms: C_22  and  C_36
   12  A    between atoms: C_27  and  C_31
                            x       y       z     vdW  Elec       q    Type
                         _______ _______ _______ _____ _____    ______ ____

>  <TORSDO>
F 12

$$$$
=
 OpenBabel11032419273D

 36 39  0  0  1  0  0  0  0  0999 V2000
  188.0110  178.0600  137.8170 C   0  0  0  0  0  0  0  0  0  0  0  0
  187.9950  177.8110  139.1920 C   0  0  0  0  0  3  0  0  0  0  0  0
  190.3370  177.2240  139.0720 C   0  0  0  0  0  3  0  0  0  0  0  0
  189.1580  177.8880  137.1060 N   0  0  0  0  0  0  0  0  0  0  0  0
  190.3120  177.4820  137.7000 C   0  0  0  0  0  3  0  0  0  0  0  0
  189.1700  177.3910  139.8360 C   0  0  0  0  0  0  0  0  0  0  0  0
  188.0420  177.5480  142.0820 C   0  0  0  0  0  2  0  0  0  0  0  0
  189.1720  177.1210  141.2500 N   0  0  0  0  0  0  0  0  0  0  0  0
  190.7950  177.0810  143.1080 C   0  0  0  0  0  2  0  0  0  0  0  0
  188.2870  177.2510  143.5610 C   0  0  0  0  0  2  0  0  0  0  0  0
  189.6850  177.7240  143.9520 C   0  0  1  0  0  3  0  0  0  0  0  0
  190.2760  176.3720  141.8550 C   0  0  0  0  0  2  0  0  0  0  0  0
  188.2750  178.1830  148.7160 C   0  0  0  0  0  1  0  0  0  0  0  0
  189.2580  177.7360  147.6930 C   0  0  0  0  0  0  0  0  0  0  0  0
  189.9370  177.5110  145.4070 C   0  0  0  0  0  0  0  0  0  0  0  0
  191.3190  176.7090  147.1550 C   0  0  0  0  0  0  0  0  0  0  0  0
  190.4110  177.1270  148.0760 N   0  0  0  0  0  0  0  0  0  0  0  0
  192.5230  176.0840  147.5770 N   0  0  0  0  0  1  0  0  0  0  0  0
  188.9940  177.9430  146.3390 C   0  0  0  0  0  3  0  0  0  0  0  0
  191.0820  176.9060  145.8310 N   0  0  0  0  0  0  0  0  0  0  0  0
  186.7540  178.4540  137.1230 C   0  0  0  0  0  2  0  0  0  0  0  0
  185.1450  176.6510  136.3020 N   0  0  0  0  0  0  0  0  0  0  0  0
  186.4530  176.0700  136.6360 C   0  0  0  0  0  2  0  0  0  0  0  0
  186.4040  177.4100  136.0590 C   0  0  2  0  0  3  0  0  0  0  0  0
  184.4970  176.9580  137.5790 C   0  0  0  0  0  2  0  0  0  0  0  0
  183.0210  177.2570  137.3590 C   0  0  0  0  0  2  0  0  0  0  0  0
  182.2690  177.3050  138.6810 C   0  0  0  0  0  2  0  0  0  0  0  0
  183.2400  177.1900  139.8490 C   0  0  0  0  0  2  0  0  0  0  0  0
  183.3280  178.4780  140.6680 C   0  0  2  0  0  3  0  0  0  0  0  0
  185.5340  179.3800  140.6300 O   0  0  0  0  0  1  0  0  0  0  0  0
  184.3780  179.4010  140.1350 C   0  0  0  0  0  0  0  0  0  0  0  0
  184.0840  180.2910  139.1090 O   0  0  0  0  0  0  0  0  0  0  0  0
  183.5250  178.2290  142.1660 C   0  0  0  0  0  2  0  0  0  0  0  0
  182.6540  178.6420  144.3750 O   0  0  0  0  0  1  0  0  0  0  0  0
  182.5870  179.0540  143.0440 C   0  0  2  0  0  3  0  0  0  0  0  0
  181.1540  178.9900  142.5460 C   0  0  0  0  0  1  0  0  0  0  0  0
  1  2  1  0  0  0  0
  2  6  2  0  0  0  0
  3  6  1  0  0  0  0
  4  5  1  0  0  0  0
  4  1  2  0  0  0  0
  5  3  2  0  0  0  0
  6  8  1  0  0  0  0
  7 10  1  0  0  0  0
  8 12  1  0  0  0  0
  8  7  1  0  0  0  0
  9 11  1  0  0  0  0
 10 11  1  0  0  0  0
 11 15  1  1  0  0  0
 12  9  1  0  0  0  0
 14 17  1  0  0  0  0
 14 13  1  0  0  0  0
 15 20  2  0  0  0  0
 15 19  1  0  0  0  0
 16 18  1  0  0  0  0
 16 17  2  0  0  0  0
 19 14  2  0  0  0  0
 20 16  1  0  0  0  0
 21  1  1  0  0  0  0
 22 23  1  0  0  0  0
 22 25  1  0  0  0  0
 24 22  1  0  0  0  0
 24 23  1  0  0  0  0
 24 21  1  1  0  0  0
 26 25  1  0  0  0  0
 26 27  1  0  0  0  0
 27 28  1  0  0  0  0
 29 28  1  6  0  0  0
 29 33  1  0  0  0  0
 31 30  1  0  0  0  0
 31 29  1  0  0  0  0
 32 31  2  0  0  0  0
 33 35  1  0  0  0  0
 35 36  1  6  0  0  0
 35 34  1  0  0  0  0
M  END
>  <MODEL>
6

>  <REMARK>
 VINA RESULT:      -7.7      3.723      8.923
  Name = 
  12 active torsions:
  status: ('A' for Active; 'I' for Inactive)
    1  A    between atoms: C_4  and  C_27
    2  A    between atoms: N_5  and  C_25
    3  A    between atoms: C_6  and  C_17
    4  A    between atoms: C_6  and  C_30
    5  A    between atoms: C_9  and  N_10
    6  A    between atoms: C_9  and  C_30
    7  A    between atoms: C_11  and  C_29
    8  A    between atoms: C_17  and  C_36
    9  A    between atoms: C_18  and  C_22
   10  A    between atoms: C_19  and  C_36
   11  A    between atoms: C_22  and  C_36
   12  A    between atoms: C_27  and  C_31
                            x       y       z     vdW  Elec       q    Type
                         _______ _______ _______ _____ _____    ______ ____

>  <TORSDO>
F 12

$$$$
=
 OpenBabel11032419273D

 36 39  0  0  1  0  0  0  0  0999 V2000
  187.9380  177.5740  145.4590 C   0  0  0  0  0  0  0  0  0  0  0  0
  186.9080  177.9340  144.5850 C   0  0  0  0  0  3  0  0  0  0  0  0
  185.6170  178.6950  146.4810 C   0  0  0  0  0  3  0  0  0  0  0  0
  187.7940  177.7700  146.7980 N   0  0  0  0  0  0  0  0  0  0  0  0
  186.6660  178.3200  147.3220 C   0  0  0  0  0  3  0  0  0  0  0  0
  185.7320  178.5060  145.0940 C   0  0  0  0  0  0  0  0  0  0  0  0
  183.2690  178.8360  144.6830 C   0  0  0  0  0  2  0  0  0  0  0  0
  184.6570  178.8750  144.2100 N   0  0  0  0  0  0  0  0  0  0  0  0
  184.0720  178.6210  141.8270 C   0  0  0  0  0  2  0  0  0  0  0  0
  182.2830  179.1700  143.5650 C   0  0  0  0  0  2  0  0  0  0  0  0
  182.6380  178.3690  142.3140 C   0  0  1  0  0  3  0  0  0  0  0  0
  184.9480  179.3430  142.8530 C   0  0  0  0  0  2  0  0  0  0  0  0
  180.7300  177.2260  137.8470 C   0  0  0  0  0  1  0  0  0  0  0  0
  180.7450  178.0700  139.0720 C   0  0  0  0  0  0  0  0  0  0  0  0
  181.6560  178.6200  141.2180 C   0  0  0  0  0  0  0  0  0  0  0  0
  179.8570  179.8710  140.3210 C   0  0  0  0  0  0  0  0  0  0  0  0
  179.8600  179.0930  139.2070 N   0  0  0  0  0  0  0  0  0  0  0  0
  178.9310  180.9420  140.4380 N   0  0  0  0  0  1  0  0  0  0  0  0
  181.6700  177.8100  140.0830 C   0  0  0  0  0  3  0  0  0  0  0  0
  180.7540  179.6370  141.3150 N   0  0  0  0  0  0  0  0  0  0  0  0
  189.1640  176.9190  144.9280 C   0  0  0  0  0  2  0  0  0  0  0  0
  191.5600  177.5970  144.3660 N   0  0  0  0  0  0  0  0  0  0  0  0
  191.5040  176.9010  145.6600 C   0  0  0  0  0  2  0  0  0  0  0  0
  190.3920  177.7660  145.2760 C   0  0  2  0  0  3  0  0  0  0  0  0
  191.3780  176.5670  143.3420 C   0  0  0  0  0  2  0  0  0  0  0  0
  191.4480  177.1890  141.9540 C   0  0  0  0  0  2  0  0  0  0  0  0
  190.2090  176.8490  141.1380 C   0  0  0  0  0  2  0  0  0  0  0  0
  190.1270  177.7380  139.9030 C   0  0  0  0  0  2  0  0  0  0  0  0
  189.9670  176.9350  138.6120 C   0  0  2  0  0  3  0  0  0  0  0  0
  192.3010  176.5920  138.2720 O   0  0  0  0  0  1  0  0  0  0  0  0
  191.1580  176.0700  138.3480 C   0  0  0  0  0  0  0  0  0  0  0  0
  191.0140  174.6990  138.1710 O   0  0  0  0  0  0  0  0  0  0  0  0
  189.6400  177.8070  137.3960 C   0  0  0  0  0  2  0  0  0  0  0  0
  187.4980  178.9120  137.3850 O   0  0  0  0  0  1  0  0  0  0  0  0
  188.1680  177.7530  136.9920 C   0  0  2  0  0  3  0  0  0  0  0  0
  187.4770  176.5280  137.5640 C   0  0  0  0  0  1  0  0  0  0  0  0
  1  4  1  0  0  0  0
  2  6  1  0  0  0  0
  2  1  2  0  0  0  0
  3  5  1  0  0  0  0
  4  5  2  0  0  0  0
  6  3  2  0  0  0  0
  8  7  1  0  0  0  0
  8  6  1  0  0  0  0
  9 11  1  0  0  0  0
  9 12  1  0  0  0  0
 10  7  1  0  0  0  0
 11 15  1  6  0  0  0
 11 10  1  0  0  0  0
 12  8  1  0  0  0  0
 13 14  1  0  0  0  0
 14 17  1  0  0  0  0
 14 19  2  0  0  0  0
 15 20  2  0  0  0  0
 16 18  1  0  0  0  0
 16 20  1  0  0  0  0
 17 16  2  0  0  0  0
 19 15  1  0  0  0  0
 21  1  1  0  0  0  0
 22 24  1  0  0  0  0
 22 23  1  0  0  0  0
 24 21  1  6  0  0  0
 24 23  1  0  0  0  0
 25 22  1  0  0  0  0
 26 25  1  0  0  0  0
 27 26  1  0  0  0  0
 28 27  1  0  0  0  0
 29 33  1  6  0  0  0
 29 28  1  0  0  0  0
 30 31  1  0  0  0  0
 31 29  1  0  0  0  0
 32 31  2  0  0  0  0
 35 34  1  0  0  0  0
 35 33  1  0  0  0  0
 35 36  1  1  0  0  0
M  END
>  <MODEL>
7

>  <REMARK>
 VINA RESULT:      -7.7      3.815      8.622
  Name = 
  12 active torsions:
  status: ('A' for Active; 'I' for Inactive)
    1  A    between atoms: C_4  and  C_27
    2  A    between atoms: N_5  and  C_25
    3  A    between atoms: C_6  and  C_17
    4  A    between atoms: C_6  and  C_30
    5  A    between atoms: C_9  and  N_10
    6  A    between atoms: C_9  and  C_30
    7  A    between atoms: C_11  and  C_29
    8  A    between atoms: C_17  and  C_36
    9  A    between atoms: C_18  and  C_22
   10  A    between atoms: C_19  and  C_36
   11  A    between atoms: C_22  and  C_36
   12  A    between atoms: C_27  and  C_31
                            x       y       z     vdW  Elec       q    Type
                         _______ _______ _______ _____ _____    ______ ____

>  <TORSDO>
F 12

$$$$
=
 OpenBabel11032419273D

 36 39  0  0  1  0  0  0  0  0999 V2000
  188.0130  177.4480  145.2630 C   0  0  0  0  0  0  0  0  0  0  0  0
  186.9290  177.8780  144.4920 C   0  0  0  0  0  3  0  0  0  0  0  0
  185.8090  178.5610  146.5230 C   0  0  0  0  0  3  0  0  0  0  0  0
  187.9790  177.5720  146.6170 N   0  0  0  0  0  0  0  0  0  0  0  0
  186.9110  178.1170  147.2570 C   0  0  0  0  0  3  0  0  0  0  0  0
  185.8110  178.4460  145.1230 C   0  0  0  0  0  0  0  0  0  0  0  0
  183.3530  178.9720  144.9650 C   0  0  0  0  0  2  0  0  0  0  0  0
  184.6810  178.8870  144.3480 N   0  0  0  0  0  0  0  0  0  0  0  0
  183.8250  178.6400  142.0470 C   0  0  0  0  0  2  0  0  0  0  0  0
  182.2830  179.3670  143.9490 C   0  0  0  0  0  2  0  0  0  0  0  0
  182.4360  178.5170  142.6890 C   0  0  1  0  0  3  0  0  0  0  0  0
  184.8620  179.3060  142.9550 C   0  0  0  0  0  2  0  0  0  0  0  0
  179.7680  177.2980  138.6530 C   0  0  0  0  0  1  0  0  0  0  0  0
  180.0890  178.2410  139.7570 C   0  0  0  0  0  0  0  0  0  0  0  0
  181.3660  178.8290  141.6970 C   0  0  0  0  0  0  0  0  0  0  0  0
  179.6870  180.2840  140.8790 C   0  0  0  0  0  0  0  0  0  0  0  0
  179.4090  179.4120  139.8730 N   0  0  0  0  0  0  0  0  0  0  0  0
  178.9710  181.5070  140.9760 N   0  0  0  0  0  1  0  0  0  0  0  0
  181.0910  177.9220  140.6740 C   0  0  0  0  0  3  0  0  0  0  0  0
  180.6620  179.9930  141.7790 N   0  0  0  0  0  0  0  0  0  0  0  0
  189.1770  176.7970  144.6020 C   0  0  0  0  0  2  0  0  0  0  0  0
  191.5430  177.5670  144.0320 N   0  0  0  0  0  0  0  0  0  0  0  0
  191.5710  176.5040  145.0460 C   0  0  0  0  0  2  0  0  0  0  0  0
  190.4740  177.4670  145.0650 C   0  0  2  0  0  3  0  0  0  0  0  0
  191.2140  176.9130  142.7640 C   0  0  0  0  0  2  0  0  0  0  0  0
  192.0600  177.4940  141.6390 C   0  0  0  0  0  2  0  0  0  0  0  0
  191.4520  177.1840  140.2790 C   0  0  0  0  0  2  0  0  0  0  0  0
  189.9920  176.7750  140.4320 C   0  0  0  0  0  2  0  0  0  0  0  0
  189.0710  177.5130  139.4600 C   0  0  2  0  0  3  0  0  0  0  0  0
  188.2200  178.6490  141.3740 O   0  0  0  0  0  1  0  0  0  0  0  0
  188.0230  178.2980  140.1830 C   0  0  0  0  0  0  0  0  0  0  0  0
  186.8270  178.6300  139.5550 O   0  0  0  0  0  0  0  0  0  0  0  0
  188.4420  176.5940  138.4080 C   0  0  0  0  0  2  0  0  0  0  0  0
  190.1510  177.5330  136.9910 O   0  0  0  0  0  1  0  0  0  0  0  0
  188.9100  176.8970  136.9860 C   0  0  2  0  0  3  0  0  0  0  0  0
  187.8930  177.7340  136.2300 C   0  0  0  0  0  1  0  0  0  0  0  0
  1  4  1  0  0  0  0
  2  6  1  0  0  0  0
  2  1  2  0  0  0  0
  3  5  1  0  0  0  0
  4  5  2  0  0  0  0
  6  3  2  0  0  0  0
  8  7  1  0  0  0  0
  8  6  1  0  0  0  0
  9 11  1  0  0  0  0
  9 12  1  0  0  0  0
 10  7  1  0  0  0  0
 11 15  1  6  0  0  0
 11 10  1  0  0  0  0
 12  8  1  0  0  0  0
 13 14  1  0  0  0  0
 14 17  1  0  0  0  0
 14 19  2  0  0  0  0
 15 20  2  0  0  0  0
 16 18  1  0  0  0  0
 16 20  1  0  0  0  0
 17 16  2  0  0  0  0
 19 15  1  0  0  0  0
 21  1  1  0  0  0  0
 22 23  1  0  0  0  0
 22 24  1  0  0  0  0
 23 24  1  0  0  0  0
 24 21  1  6  0  0  0
 25 22  1  0  0  0  0
 26 25  1  0  0  0  0
 27 28  1  0  0  0  0
 27 26  1  0  0  0  0
 29 33  1  6  0  0  0
 29 31  1  0  0  0  0
 29 28  1  0  0  0  0
 31 30  1  0  0  0  0
 32 31  2  0  0  0  0
 35 36  1  1  0  0  0
 35 34  1  0  0  0  0
 35 33  1  0  0  0  0
M  END
>  <MODEL>
8

>  <REMARK>
 VINA RESULT:      -7.7      3.634      8.822
  Name = 
  12 active torsions:
  status: ('A' for Active; 'I' for Inactive)
    1  A    between atoms: C_4  and  C_27
    2  A    between atoms: N_5  and  C_25
    3  A    between atoms: C_6  and  C_17
    4  A    between atoms: C_6  and  C_30
    5  A    between atoms: C_9  and  N_10
    6  A    between atoms: C_9  and  C_30
    7  A    between atoms: C_11  and  C_29
    8  A    between atoms: C_17  and  C_36
    9  A    between atoms: C_18  and  C_22
   10  A    between atoms: C_19  and  C_36
   11  A    between atoms: C_22  and  C_36
   12  A    between atoms: C_27  and  C_31
                            x       y       z     vdW  Elec       q    Type
                         _______ _______ _______ _____ _____    ______ ____

>  <TORSDO>
F 12

$$$$
=
 OpenBabel11032419273D

 36 39  0  0  1  0  0  0  0  0999 V2000
  189.5450  176.8180  137.7520 C   0  0  0  0  0  0  0  0  0  0  0  0
  189.0960  177.2270  139.0110 C   0  0  0  0  0  3  0  0  0  0  0  0
  191.3450  176.9640  139.8550 C   0  0  0  0  0  3  0  0  0  0  0  0
  190.8530  176.4910  137.5680 N   0  0  0  0  0  0  0  0  0  0  0  0
  191.7550  176.5570  138.5840 C   0  0  0  0  0  3  0  0  0  0  0  0
  190.0020  177.3070  140.0800 C   0  0  0  0  0  0  0  0  0  0  0  0
  190.3800  177.4340  142.5670 C   0  0  0  0  0  2  0  0  0  0  0  0
  189.5570  177.7180  141.3860 N   0  0  0  0  0  0  0  0  0  0  0  0
  187.4370  177.8660  142.6400 C   0  0  0  0  0  2  0  0  0  0  0  0
  189.6830  177.8650  143.8560 C   0  0  0  0  0  2  0  0  0  0  0  0
  188.2400  177.3660  143.8490 C   0  0  1  0  0  3  0  0  0  0  0  0
  188.3080  178.4690  141.5350 C   0  0  0  0  0  2  0  0  0  0  0  0
  188.2710  177.8700  148.8140 C   0  0  0  0  0  1  0  0  0  0  0  0
  187.5640  177.9500  147.5080 C   0  0  0  0  0  0  0  0  0  0  0  0
  187.5450  177.7130  145.1240 C   0  0  0  0  0  0  0  0  0  0  0  0
  185.6010  178.4200  146.2750 C   0  0  0  0  0  0  0  0  0  0  0  0
  186.2610  178.3380  147.4600 N   0  0  0  0  0  0  0  0  0  0  0  0
  184.2370  178.8180  146.2480 N   0  0  0  0  0  1  0  0  0  0  0  0
  188.2380  177.6260  146.3310 C   0  0  0  0  0  3  0  0  0  0  0  0
  186.2400  178.1040  145.1180 N   0  0  0  0  0  0  0  0  0  0  0  0
  188.5770  176.6810  136.6300 C   0  0  0  0  0  2  0  0  0  0  0  0
  186.3420  177.9140  136.5970 N   0  0  0  0  0  0  0  0  0  0  0  0
  186.9590  177.9170  135.2630 C   0  0  0  0  0  2  0  0  0  0  0  0
  187.8210  178.0000  136.4380 C   0  0  2  0  0  3  0  0  0  0  0  0
  185.8400  176.5560  136.8110 C   0  0  0  0  0  2  0  0  0  0  0  0
  184.5190  176.3640  136.0790 C   0  0  0  0  0  2  0  0  0  0  0  0
  183.3410  176.7390  136.9660 C   0  0  0  0  0  2  0  0  0  0  0  0
  183.4430  176.0300  138.3100 C   0  0  0  0  0  2  0  0  0  0  0  0
  182.9210  176.8850  139.4660 C   0  0  2  0  0  3  0  0  0  0  0  0
  181.0100  175.4600  139.4610 O   0  0  0  0  0  0  0  0  0  0  0  0
  181.4890  176.5800  139.7740 C   0  0  0  0  0  0  0  0  0  0  0  0
  180.6790  177.5290  140.3880 O   0  0  0  0  0  1  0  0  0  0  0  0
  183.1290  178.3860  139.2480 C   0  0  0  0  0  2  0  0  0  0  0  0
  185.3900  179.0500  139.7520 O   0  0  0  0  0  1  0  0  0  0  0  0
  184.0900  179.0150  140.2550 C   0  0  2  0  0  3  0  0  0  0  0  0
  184.0620  178.2840  141.5850 C   0  0  0  0  0  1  0  0  0  0  0  0
  1  2  1  0  0  0  0
  2  6  2  0  0  0  0
  3  6  1  0  0  0  0
  4  1  2  0  0  0  0
  4  5  1  0  0  0  0
  5  3  2  0  0  0  0
  6  8  1  0  0  0  0
  7 10  1  0  0  0  0
  8 12  1  0  0  0  0
  8  7  1  0  0  0  0
  9 11  1  0  0  0  0
 11 10  1  0  0  0  0
 11 15  1  1  0  0  0
 12  9  1  0  0  0  0
 14 13  1  0  0  0  0
 15 19  1  0  0  0  0
 16 17  2  0  0  0  0
 17 14  1  0  0  0  0
 18 16  1  0  0  0  0
 19 14  2  0  0  0  0
 20 15  2  0  0  0  0
 20 16  1  0  0  0  0
 21  1  1  0  0  0  0
 22 25  1  0  0  0  0
 23 24  1  0  0  0  0
 23 22  1  0  0  0  0
 24 22  1  0  0  0  0
 24 21  1  1  0  0  0
 26 25  1  0  0  0  0
 26 27  1  0  0  0  0
 27 28  1  0  0  0  0
 29 28  1  6  0  0  0
 29 31  1  0  0  0  0
 30 31  2  0  0  0  0
 31 32  1  0  0  0  0
 33 29  1  0  0  0  0
 33 35  1  0  0  0  0
 34 35  1  0  0  0  0
 35 36  1  1  0  0  0
M  END
>  <MODEL>
9

>  <REMARK>
 VINA RESULT:      -7.7      3.817      9.688
  Name = 
  12 active torsions:
  status: ('A' for Active; 'I' for Inactive)
    1  A    between atoms: C_4  and  C_27
    2  A    between atoms: N_5  and  C_25
    3  A    between atoms: C_6  and  C_17
    4  A    between atoms: C_6  and  C_30
    5  A    between atoms: C_9  and  N_10
    6  A    between atoms: C_9  and  C_30
    7  A    between atoms: C_11  and  C_29
    8  A    between atoms: C_17  and  C_36
    9  A    between atoms: C_18  and  C_22
   10  A    between atoms: C_19  and  C_36
   11  A    between atoms: C_22  and  C_36
   12  A    between atoms: C_27  and  C_31
                            x       y       z     vdW  Elec       q    Type
                         _______ _______ _______ _____ _____    ______ ____

>  <TORSDO>
F 12

$$$$
