=
 OpenBabel11042412083D

 37 40  0  0  1  0  0  0  0  0999 V2000
  190.3120  177.3620  144.6260 C   0  0  2  0  0  3  0  0  0  0  0  0
  188.4090  178.2430  145.6500 C   0  0  2  0  0  3  0  0  0  0  0  0
  190.2050  176.7200  145.9320 N   0  0  0  0  0  0  0  0  0  0  0  0
  189.2280  178.3240  144.4520 N   0  0  0  0  0  2  0  0  0  0  0  0
  189.2420  177.5110  146.6730 C   0  0  0  0  0  2  0  0  0  0  0  0
  187.1190  177.4630  145.3650 C   0  0  2  0  0  3  0  0  0  0  0  0
  186.2460  178.1680  144.3730 C   0  0  0  0  0  0  0  0  0  0  0  0
  184.3770  179.3270  143.8740 N   0  0  0  0  0  0  0  0  0  0  0  0
  186.3470  177.2470  146.6110 N   0  0  0  0  0  2  0  0  0  0  0  0
  184.8250  178.9340  146.2100 N   0  0  0  0  0  2  0  0  0  0  0  0
  186.2430  178.1380  143.0550 C   0  0  0  0  0  3  0  0  0  0  0  0
  185.0410  178.9450  142.6220 C   0  0  0  0  0  2  0  0  0  0  0  0
  185.8250  178.4780  147.0980 N   0  0  0  0  0  2  0  0  0  0  0  0
  185.1250  178.8950  144.8240 C   0  0  0  0  0  0  0  0  0  0  0  0
  191.1020  175.4520  143.4790 O   0  0  0  0  0  0  0  0  0  0  0  0
  190.2610  176.3350  143.5360 C   0  0  0  0  0  0  0  0  0  0  0  0
  189.1470  176.3590  142.5380 C   0  0  0  0  0  2  0  0  0  0  0  0
  189.6350  176.8860  141.1970 C   0  0  0  0  0  2  0  0  0  0  0  0
  189.0780  178.2040  140.9440 N   0  0  0  0  0  2  0  0  0  0  0  0
  188.2550  178.0860  139.7530 C   0  0  0  0  0  2  0  0  0  0  0  0
  189.1120  178.2650  138.5160 C   0  0  2  0  0  3  0  0  0  0  0  0
  188.9280  179.5500  138.0010 O   0  0  0  0  0  1  0  0  0  0  0  0
  188.7100  177.2310  137.4780 C   0  0  0  0  0  2  0  0  0  0  0  0
  191.6570  174.1310  137.1990 C   0  0  0  0  0  3  0  0  0  0  0  0
  189.3460  174.8400  137.0970 C   0  0  0  0  0  3  0  0  0  0  0  0
  189.7360  176.1550  137.3700 C   0  0  0  0  0  0  0  0  0  0  0  0
  191.0890  176.4550  137.5610 C   0  0  0  0  0  3  0  0  0  0  0  0
  192.0570  175.4460  137.4770 C   0  0  0  0  0  0  0  0  0  0  0  0
  190.3060  173.8290  137.0100 C   0  0  0  0  0  3  0  0  0  0  0  0
  193.4780  175.7700  137.6800 C   0  0  0  0  0  0  0  0  0  0  0  0
  194.3670  174.7880  138.1050 O   0  0  0  0  0  1  0  0  0  0  0  0
  193.9040  176.9380  137.4700 O   0  0  0  0  0  0  0  0  0  0  0  0
  191.4900  176.8830  146.5950 C   0  0  0  0  0  2  0  0  0  0  0  0
  192.9570  175.8410  148.2900 C   0  0  0  0  0  1  0  0  0  0  0  0
  190.8660  174.8940  147.7430 F   0  0  0  0  0  0  0  0  0  0  0  0
  192.5340  174.7780  146.2250 F   0  0  0  0  0  0  0  0  0  0  0  0
  191.9460  175.5640  147.1990 C   0  0  0  0  0  0  0  0  0  0  0  0
  1 16  1  6  0  0  0
  1  3  1  0  0  0  0
  2  5  1  1  0  0  0
  3 33  1  0  0  0  0
  3  5  1  0  0  0  0
  4  1  1  0  0  0  0
  4  2  1  0  0  0  0
  6  7  1  6  0  0  0
  6  2  1  0  0  0  0
  6  9  1  0  0  0  0
  7 14  1  0  0  0  0
  8 14  2  0  0  0  0
  9 13  1  0  0  0  0
 10 13  1  0  0  0  0
 11  7  2  0  0  0  0
 12 11  1  0  0  0  0
 12  8  1  0  0  0  0
 14 10  1  0  0  0  0
 15 16  2  0  0  0  0
 17 16  1  0  0  0  0
 18 17  1  0  0  0  0
 19 18  1  0  0  0  0
 20 19  1  0  0  0  0
 21 22  1  6  0  0  0
 21 20  1  0  0  0  0
 23 21  1  0  0  0  0
 24 28  1  0  0  0  0
 25 26  2  0  0  0  0
 26 23  1  0  0  0  0
 26 27  1  0  0  0  0
 28 27  2  0  0  0  0
 28 30  1  0  0  0  0
 29 25  1  0  0  0  0
 29 24  2  0  0  0  0
 30 31  1  0  0  0  0
 32 30  2  0  0  0  0
 33 37  1  0  0  0  0
 36 37  1  0  0  0  0
 37 35  1  0  0  0  0
 37 34  1  0  0  0  0
M  END
>  <MODEL>
1

>  <REMARK>
 VINA RESULT:      -8.3      0.000      0.000
  Name = 
  12 active torsions:
  status: ('A' for Active; 'I' for Inactive)
    1  A    between atoms: C_1  and  C_27
    2  A    between atoms: C_2  and  N_8
    3  A    between atoms: C_2  and  C_35
    4  A    between atoms: C_3  and  C_4
    5  A    between atoms: C_5  and  C_32
    6  A    between atoms: C_7  and  N_15
    7  A    between atoms: C_7  and  C_26
    8  A    between atoms: C_11  and  C_18
    9  A    between atoms: C_11  and  C_29
   10  A    between atoms: N_15  and  C_18
   11  A    between atoms: C_24  and  C_29
   12  A    between atoms: C_26  and  C_27
                            x       y       z     vdW  Elec       q    Type
                         _______ _______ _______ _____ _____    ______ ____

>  <TORSDO>
F 12

$$$$
=
 OpenBabel11042412083D

 37 40  0  0  1  0  0  0  0  0999 V2000
  185.5840  179.3210  141.3080 C   0  0  2  0  0  3  0  0  0  0  0  0
  183.6580  178.6960  140.1480 C   0  0  2  0  0  3  0  0  0  0  0  0
  184.7010  178.6800  142.2770 N   0  0  0  0  0  0  0  0  0  0  0  0
  184.9410  179.3650  139.9980 N   0  0  0  0  0  2  0  0  0  0  0  0
  183.4050  178.6110  141.6320 C   0  0  0  0  0  2  0  0  0  0  0  0
  183.7150  177.2880  139.5410 C   0  0  2  0  0  3  0  0  0  0  0  0
  183.8770  177.3250  138.0530 C   0  0  0  0  0  0  0  0  0  0  0  0
  183.0510  177.0150  135.9770 N   0  0  0  0  0  0  0  0  0  0  0  0
  182.4880  176.5240  139.8680 N   0  0  0  0  0  2  0  0  0  0  0  0
  181.4940  176.8290  137.8090 N   0  0  0  0  0  2  0  0  0  0  0  0
  184.9610  177.4040  137.3070 C   0  0  0  0  0  3  0  0  0  0  0  0
  184.4940  177.2590  135.8770 C   0  0  0  0  0  2  0  0  0  0  0  0
  181.3610  177.0700  139.1950 N   0  0  0  0  0  2  0  0  0  0  0  0
  182.7570  177.1040  137.2240 C   0  0  0  0  0  0  0  0  0  0  0  0
  187.4590  178.2120  142.2250 O   0  0  0  0  0  0  0  0  0  0  0  0
  186.8810  178.5780  141.2130 C   0  0  0  0  0  0  0  0  0  0  0  0
  187.4520  178.2370  139.8740 C   0  0  0  0  0  2  0  0  0  0  0  0
  188.9720  178.2860  139.9060 C   0  0  0  0  0  2  0  0  0  0  0  0
  189.5050  177.0020  140.3280 N   0  0  0  0  0  2  0  0  0  0  0  0
  190.7940  177.2680  140.9420 C   0  0  0  0  0  2  0  0  0  0  0  0
  190.7600  176.8710  142.4040 C   0  0  2  0  0  3  0  0  0  0  0  0
  189.8350  175.8410  142.5880 O   0  0  0  0  0  1  0  0  0  0  0  0
  190.3600  178.0770  143.2390 C   0  0  0  0  0  2  0  0  0  0  0  0
  189.7090  176.9970  147.3350 C   0  0  0  0  0  3  0  0  0  0  0  0
  188.8740  177.8790  145.2420 C   0  0  0  0  0  3  0  0  0  0  0  0
  190.1310  177.6910  144.6600 C   0  0  0  0  0  0  0  0  0  0  0  0
  191.1780  177.1580  145.4190 C   0  0  0  0  0  3  0  0  0  0  0  0
  190.9740  176.8080  146.7600 C   0  0  0  0  0  0  0  0  0  0  0  0
  188.6630  177.5300  146.5790 C   0  0  0  0  0  3  0  0  0  0  0  0
  192.0810  176.2480  147.5520 C   0  0  0  0  0  0  0  0  0  0  0  0
  192.7090  175.0750  147.1490 O   0  0  0  0  0  0  0  0  0  0  0  0
  192.4710  176.8270  148.6020 O   0  0  0  0  0  1  0  0  0  0  0  0
  184.5690  179.5900  143.4040 C   0  0  0  0  0  2  0  0  0  0  0  0
  183.7110  178.6930  145.5420 C   0  0  0  0  0  1  0  0  0  0  0  0
  185.5140  177.6590  144.4230 F   0  0  0  0  0  0  0  0  0  0  0  0
  185.8580  179.6640  145.4010 F   0  0  0  0  0  0  0  0  0  0  0  0
  184.9520  178.8920  144.6990 C   0  0  0  0  0  0  0  0  0  0  0  0
  1 16  1  6  0  0  0
  1  3  1  0  0  0  0
  2  5  1  1  0  0  0
  3 33  1  0  0  0  0
  4  2  1  0  0  0  0
  4  1  1  0  0  0  0
  5  3  1  0  0  0  0
  6  7  1  6  0  0  0
  6  9  1  0  0  0  0
  6  2  1  0  0  0  0
  8 14  2  0  0  0  0
 10 13  1  0  0  0  0
 11  7  2  0  0  0  0
 12  8  1  0  0  0  0
 12 11  1  0  0  0  0
 13  9  1  0  0  0  0
 14 10  1  0  0  0  0
 14  7  1  0  0  0  0
 16 15  2  0  0  0  0
 17 18  1  0  0  0  0
 17 16  1  0  0  0  0
 18 19  1  0  0  0  0
 19 20  1  0  0  0  0
 20 21  1  0  0  0  0
 21 22  1  6  0  0  0
 21 23  1  0  0  0  0
 23 26  1  0  0  0  0
 25 29  1  0  0  0  0
 26 25  2  0  0  0  0
 26 27  1  0  0  0  0
 27 28  2  0  0  0  0
 28 24  1  0  0  0  0
 28 30  1  0  0  0  0
 29 24  2  0  0  0  0
 30 32  1  0  0  0  0
 31 30  2  0  0  0  0
 33 37  1  0  0  0  0
 35 37  1  0  0  0  0
 37 36  1  0  0  0  0
 37 34  1  0  0  0  0
M  END
>  <MODEL>
2

>  <REMARK>
 VINA RESULT:      -8.3      3.708      7.552
  Name = 
  12 active torsions:
  status: ('A' for Active; 'I' for Inactive)
    1  A    between atoms: C_1  and  C_27
    2  A    between atoms: C_2  and  N_8
    3  A    between atoms: C_2  and  C_35
    4  A    between atoms: C_3  and  C_4
    5  A    between atoms: C_5  and  C_32
    6  A    between atoms: C_7  and  N_15
    7  A    between atoms: C_7  and  C_26
    8  A    between atoms: C_11  and  C_18
    9  A    between atoms: C_11  and  C_29
   10  A    between atoms: N_15  and  C_18
   11  A    between atoms: C_24  and  C_29
   12  A    between atoms: C_26  and  C_27
                            x       y       z     vdW  Elec       q    Type
                         _______ _______ _______ _____ _____    ______ ____

>  <TORSDO>
F 12

$$$$
=
 OpenBabel11042412083D

 37 40  0  0  1  0  0  0  0  0999 V2000
  189.9750  178.1790  142.4850 C   0  0  2  0  0  3  0  0  0  0  0  0
  191.1570  177.7570  144.4520 C   0  0  2  0  0  3  0  0  0  0  0  0
  190.9460  177.1340  142.1750 N   0  0  0  0  0  0  0  0  0  0  0  0
  190.1150  178.5930  143.8780 N   0  0  0  0  0  2  0  0  0  0  0  0
  191.8770  177.1300  143.2850 C   0  0  0  0  0  2  0  0  0  0  0  0
  190.5400  176.6660  145.3390 C   0  0  2  0  0  3  0  0  0  0  0  0
  189.4880  177.2150  146.2510 C   0  0  0  0  0  0  0  0  0  0  0  0
  188.7760  177.7820  148.3160 N   0  0  0  0  0  0  0  0  0  0  0  0
  191.5810  176.0010  146.1570 N   0  0  0  0  0  2  0  0  0  0  0  0
  191.0940  177.1530  148.0950 N   0  0  0  0  0  2  0  0  0  0  0  0
  188.2000  177.4160  146.0570 C   0  0  0  0  0  3  0  0  0  0  0  0
  187.6400  177.8580  147.3900 C   0  0  0  0  0  2  0  0  0  0  0  0
  192.0980  176.8940  147.1360 N   0  0  0  0  0  2  0  0  0  0  0  0
  189.7960  177.4540  147.6070 C   0  0  0  0  0  0  0  0  0  0  0  0
  188.2560  176.5600  142.5780 O   0  0  0  0  0  0  0  0  0  0  0  0
  188.5830  177.6860  142.2380 C   0  0  0  0  0  0  0  0  0  0  0  0
  187.5680  178.5910  141.6160 C   0  0  0  0  0  2  0  0  0  0  0  0
  186.2140  178.4280  142.2900 C   0  0  0  0  0  2  0  0  0  0  0  0
  185.3210  179.5010  141.8850 N   0  0  0  0  0  2  0  0  0  0  0  0
  184.3110  178.9020  141.0310 C   0  0  0  0  0  2  0  0  0  0  0  0
  184.6670  179.1300  139.5750 C   0  0  2  0  0  3  0  0  0  0  0  0
  184.1180  180.3390  139.1430 O   0  0  0  0  0  1  0  0  0  0  0  0
  184.1140  177.9860  138.7420 C   0  0  0  0  0  2  0  0  0  0  0  0
  186.7010  177.0830  135.4460 C   0  0  0  0  0  3  0  0  0  0  0  0
  184.5410  176.9100  136.5230 C   0  0  0  0  0  3  0  0  0  0  0  0
  185.0100  177.6810  137.5910 C   0  0  0  0  0  0  0  0  0  0  0  0
  186.3280  178.1500  137.5850 C   0  0  0  0  0  3  0  0  0  0  0  0
  187.1810  177.8550  136.5140 C   0  0  0  0  0  0  0  0  0  0  0  0
  185.3860  176.6120  135.4510 C   0  0  0  0  0  3  0  0  0  0  0  0
  188.5660  178.3510  136.5160 C   0  0  0  0  0  0  0  0  0  0  0  0
  189.5820  177.5960  135.9420 O   0  0  0  0  0  0  0  0  0  0  0  0
  188.8450  179.4660  137.0360 O   0  0  0  0  0  1  0  0  0  0  0  0
  191.6840  177.5720  141.0000 C   0  0  0  0  0  2  0  0  0  0  0  0
  192.0200  176.7650  138.6870 C   0  0  0  0  0  1  0  0  0  0  0  0
  190.2060  176.0030  139.9930 F   0  0  0  0  0  0  0  0  0  0  0  0
  190.1790  178.1340  139.2460 F   0  0  0  0  0  0  0  0  0  0  0  0
  190.9810  177.1180  139.7300 C   0  0  0  0  0  0  0  0  0  0  0  0
  1 16  1  1  0  0  0
  1  4  1  0  0  0  0
  2  5  1  6  0  0  0
  2  6  1  0  0  0  0
  3  1  1  0  0  0  0
  3  5  1  0  0  0  0
  4  2  1  0  0  0  0
  6  9  1  1  0  0  0
  6  7  1  0  0  0  0
  7 14  1  0  0  0  0
  9 13  1  0  0  0  0
 11  7  2  0  0  0  0
 11 12  1  0  0  0  0
 12  8  1  0  0  0  0
 13 10  1  0  0  0  0
 14 10  1  0  0  0  0
 14  8  2  0  0  0  0
 16 15  2  0  0  0  0
 17 16  1  0  0  0  0
 17 18  1  0  0  0  0
 19 18  1  0  0  0  0
 20 19  1  0  0  0  0
 21 22  1  6  0  0  0
 21 20  1  0  0  0  0
 23 21  1  0  0  0  0
 24 29  2  0  0  0  0
 24 28  1  0  0  0  0
 25 26  2  0  0  0  0
 26 23  1  0  0  0  0
 27 26  1  0  0  0  0
 28 30  1  0  0  0  0
 28 27  2  0  0  0  0
 29 25  1  0  0  0  0
 30 32  1  0  0  0  0
 31 30  2  0  0  0  0
 33  3  1  0  0  0  0
 34 37  1  0  0  0  0
 36 37  1  0  0  0  0
 37 35  1  0  0  0  0
 37 33  1  0  0  0  0
M  END
>  <MODEL>
3

>  <REMARK>
 VINA RESULT:      -8.2      3.042      5.318
  Name = 
  12 active torsions:
  status: ('A' for Active; 'I' for Inactive)
    1  A    between atoms: C_1  and  C_27
    2  A    between atoms: C_2  and  N_8
    3  A    between atoms: C_2  and  C_35
    4  A    between atoms: C_3  and  C_4
    5  A    between atoms: C_5  and  C_32
    6  A    between atoms: C_7  and  N_15
    7  A    between atoms: C_7  and  C_26
    8  A    between atoms: C_11  and  C_18
    9  A    between atoms: C_11  and  C_29
   10  A    between atoms: N_15  and  C_18
   11  A    between atoms: C_24  and  C_29
   12  A    between atoms: C_26  and  C_27
                            x       y       z     vdW  Elec       q    Type
                         _______ _______ _______ _____ _____    ______ ____

>  <TORSDO>
F 12

$$$$
=
 OpenBabel11042412083D

 37 40  0  0  1  0  0  0  0  0999 V2000
  189.9560  178.2750  142.2570 C   0  0  2  0  0  3  0  0  0  0  0  0
  191.1900  177.6550  144.1380 C   0  0  2  0  0  3  0  0  0  0  0  0
  190.8140  177.1680  141.8480 N   0  0  0  0  0  0  0  0  0  0  0  0
  190.1990  178.6040  143.6590 N   0  0  0  0  0  2  0  0  0  0  0  0
  191.7950  177.0290  142.9060 C   0  0  0  0  0  2  0  0  0  0  0  0
  190.5240  176.5770  145.0040 C   0  0  2  0  0  3  0  0  0  0  0  0
  189.5370  177.1630  145.9650 C   0  0  0  0  0  0  0  0  0  0  0  0
  188.9200  177.7020  148.0670 N   0  0  0  0  0  0  0  0  0  0  0  0
  191.5390  175.8150  145.7690 N   0  0  0  0  0  2  0  0  0  0  0  0
  191.1830  176.9260  147.7580 N   0  0  0  0  0  2  0  0  0  0  0  0
  188.2600  177.4560  145.8150 C   0  0  0  0  0  3  0  0  0  0  0  0
  187.7680  177.8870  147.1780 C   0  0  0  0  0  2  0  0  0  0  0  0
  192.1410  176.6350  146.7620 N   0  0  0  0  0  2  0  0  0  0  0  0
  189.8960  177.3310  147.3180 C   0  0  0  0  0  0  0  0  0  0  0  0
  188.0880  176.8400  142.4510 O   0  0  0  0  0  0  0  0  0  0  0  0
  188.5140  177.9150  142.0620 C   0  0  0  0  0  0  0  0  0  0  0  0
  187.5780  178.8960  141.4310 C   0  0  0  0  0  2  0  0  0  0  0  0
  186.7920  178.2430  140.3040 C   0  0  0  0  0  2  0  0  0  0  0  0
  185.5950  179.0160  140.0150 N   0  0  0  0  0  2  0  0  0  0  0  0
  184.8900  178.3110  138.9590 C   0  0  0  0  0  2  0  0  0  0  0  0
  183.6350  177.6710  139.5170 C   0  0  2  0  0  3  0  0  0  0  0  0
  183.1090  176.7790  138.5800 O   0  0  0  0  0  1  0  0  0  0  0  0
  182.6160  178.7560  139.8230 C   0  0  0  0  0  2  0  0  0  0  0  0
  181.5360  178.7580  143.9710 C   0  0  0  0  0  3  0  0  0  0  0  0
  180.8930  178.7250  141.6380 C   0  0  0  0  0  3  0  0  0  0  0  0
  182.2410  178.7450  141.2650 C   0  0  0  0  0  0  0  0  0  0  0  0
  183.2350  178.7760  142.2490 C   0  0  0  0  0  3  0  0  0  0  0  0
  182.8900  178.7820  143.6060 C   0  0  0  0  0  0  0  0  0  0  0  0
  180.5420  178.7300  142.9910 C   0  0  0  0  0  3  0  0  0  0  0  0
  183.9420  178.8140  144.6340 C   0  0  0  0  0  0  0  0  0  0  0  0
  185.2520  178.4820  144.3080 O   0  0  0  0  0  0  0  0  0  0  0  0
  183.6670  179.1440  145.8200 O   0  0  0  0  0  1  0  0  0  0  0  0
  191.5300  177.6010  140.6570 C   0  0  0  0  0  2  0  0  0  0  0  0
  191.8420  176.6180  138.4100 C   0  0  0  0  0  1  0  0  0  0  0  0
  189.9500  176.0890  139.7200 F   0  0  0  0  0  0  0  0  0  0  0  0
  190.1070  178.1620  138.8360 F   0  0  0  0  0  0  0  0  0  0  0  0
  190.8160  177.1200  139.4040 C   0  0  0  0  0  0  0  0  0  0  0  0
  1 16  1  1  0  0  0
  1  4  1  0  0  0  0
  2  5  1  6  0  0  0
  2  6  1  0  0  0  0
  3  1  1  0  0  0  0
  3  5  1  0  0  0  0
  4  2  1  0  0  0  0
  6  9  1  1  0  0  0
  6  7  1  0  0  0  0
  7 14  1  0  0  0  0
  9 13  1  0  0  0  0
 11  7  2  0  0  0  0
 11 12  1  0  0  0  0
 12  8  1  0  0  0  0
 13 10  1  0  0  0  0
 14 10  1  0  0  0  0
 14  8  2  0  0  0  0
 16 15  2  0  0  0  0
 17 16  1  0  0  0  0
 18 17  1  0  0  0  0
 19 18  1  0  0  0  0
 20 21  1  0  0  0  0
 20 19  1  0  0  0  0
 21 22  1  6  0  0  0
 21 23  1  0  0  0  0
 23 26  1  0  0  0  0
 25 29  1  0  0  0  0
 26 25  2  0  0  0  0
 26 27  1  0  0  0  0
 27 28  2  0  0  0  0
 28 24  1  0  0  0  0
 28 30  1  0  0  0  0
 29 24  2  0  0  0  0
 30 32  1  0  0  0  0
 31 30  2  0  0  0  0
 33  3  1  0  0  0  0
 34 37  1  0  0  0  0
 36 37  1  0  0  0  0
 37 35  1  0  0  0  0
 37 33  1  0  0  0  0
M  END
>  <MODEL>
4

>  <REMARK>
 VINA RESULT:      -8.1      3.592      7.416
  Name = 
  12 active torsions:
  status: ('A' for Active; 'I' for Inactive)
    1  A    between atoms: C_1  and  C_27
    2  A    between atoms: C_2  and  N_8
    3  A    between atoms: C_2  and  C_35
    4  A    between atoms: C_3  and  C_4
    5  A    between atoms: C_5  and  C_32
    6  A    between atoms: C_7  and  N_15
    7  A    between atoms: C_7  and  C_26
    8  A    between atoms: C_11  and  C_18
    9  A    between atoms: C_11  and  C_29
   10  A    between atoms: N_15  and  C_18
   11  A    between atoms: C_24  and  C_29
   12  A    between atoms: C_26  and  C_27
                            x       y       z     vdW  Elec       q    Type
                         _______ _______ _______ _____ _____    ______ ____

>  <TORSDO>
F 12

$$$$
=
 OpenBabel11042412083D

 37 40  0  0  1  0  0  0  0  0999 V2000
  187.9310  178.1470  138.0980 C   0  0  2  0  0  3  0  0  0  0  0  0
  189.6080  176.8200  137.1620 C   0  0  2  0  0  3  0  0  0  0  0  0
  187.2820  176.9350  137.6090 N   0  0  0  0  0  0  0  0  0  0  0  0
  189.3610  178.1020  137.8020 N   0  0  0  0  0  2  0  0  0  0  0  0
  188.2560  176.2960  136.7460 C   0  0  0  0  0  2  0  0  0  0  0  0
  190.2690  175.8490  138.1490 C   0  0  2  0  0  3  0  0  0  0  0  0
  191.6630  176.2680  138.4980 C   0  0  0  0  0  0  0  0  0  0  0  0
  193.8950  175.9670  138.3790 N   0  0  0  0  0  0  0  0  0  0  0  0
  190.3110  174.4770  137.5890 N   0  0  0  0  0  2  0  0  0  0  0  0
  192.5290  174.5700  136.9660 N   0  0  0  0  0  2  0  0  0  0  0  0
  192.1060  177.0950  139.4250 C   0  0  0  0  0  3  0  0  0  0  0  0
  193.6140  177.0010  139.3810 C   0  0  0  0  0  2  0  0  0  0  0  0
  191.2100  174.4090  136.4890 N   0  0  0  0  0  2  0  0  0  0  0  0
  192.7590  175.6230  137.8890 C   0  0  0  0  0  0  0  0  0  0  0  0
  186.6440  178.6620  140.0120 O   0  0  0  0  0  0  0  0  0  0  0  0
  187.7220  178.2910  139.5740 C   0  0  0  0  0  0  0  0  0  0  0  0
  188.8200  177.9330  140.5240 C   0  0  0  0  0  2  0  0  0  0  0  0
  188.2540  177.5430  141.8810 C   0  0  0  0  0  2  0  0  0  0  0  0
  189.1310  176.5850  142.5320 N   0  0  0  0  0  2  0  0  0  0  0  0
  190.4060  177.2530  142.7260 C   0  0  0  0  0  2  0  0  0  0  0  0
  190.3230  178.1860  143.9170 C   0  0  2  0  0  3  0  0  0  0  0  0
  191.3270  179.1520  143.8260 O   0  0  0  0  0  1  0  0  0  0  0  0
  190.4960  177.3810  145.1940 C   0  0  0  0  0  2  0  0  0  0  0  0
  187.1960  177.9750  147.8640 C   0  0  0  0  0  3  0  0  0  0  0  0
  189.5300  177.4470  147.5020 C   0  0  0  0  0  3  0  0  0  0  0  0
  189.3520  177.5980  146.1230 C   0  0  0  0  0  0  0  0  0  0  0  0
  188.0920  177.9350  145.6160 C   0  0  0  0  0  3  0  0  0  0  0  0
  187.0070  178.1260  146.4820 C   0  0  0  0  0  0  0  0  0  0  0  0
  188.4530  177.6360  148.3710 C   0  0  0  0  0  3  0  0  0  0  0  0
  185.6860  178.4800  145.9410 C   0  0  0  0  0  0  0  0  0  0  0  0
  185.3700  178.1920  144.6180 O   0  0  0  0  0  0  0  0  0  0  0  0
  184.8270  179.0460  146.6710 O   0  0  0  0  0  1  0  0  0  0  0  0
  186.1750  177.3550  136.7640 C   0  0  0  0  0  2  0  0  0  0  0  0
  183.8360  176.8600  136.1320 C   0  0  0  0  0  1  0  0  0  0  0  0
  185.0950  175.3420  137.4290 F   0  0  0  0  0  0  0  0  0  0  0  0
  184.4300  177.2800  138.3790 F   0  0  0  0  0  0  0  0  0  0  0  0
  184.8820  176.6910  137.2130 C   0  0  0  0  0  0  0  0  0  0  0  0
  1 16  1  1  0  0  0
  2  5  1  1  0  0  0
  2  4  1  0  0  0  0
  2  6  1  0  0  0  0
  3  1  1  0  0  0  0
  4  1  1  0  0  0  0
  5  3  1  0  0  0  0
  6  9  1  6  0  0  0
  6  7  1  0  0  0  0
  7 11  2  0  0  0  0
  8 12  1  0  0  0  0
 10 14  1  0  0  0  0
 12 11  1  0  0  0  0
 13 10  1  0  0  0  0
 13  9  1  0  0  0  0
 14  8  2  0  0  0  0
 14  7  1  0  0  0  0
 16 15  2  0  0  0  0
 16 17  1  0  0  0  0
 17 18  1  0  0  0  0
 18 19  1  0  0  0  0
 19 20  1  0  0  0  0
 20 21  1  0  0  0  0
 21 22  1  6  0  0  0
 21 23  1  0  0  0  0
 23 26  1  0  0  0  0
 24 29  1  0  0  0  0
 25 29  2  0  0  0  0
 26 25  1  0  0  0  0
 27 26  2  0  0  0  0
 27 28  1  0  0  0  0
 28 24  2  0  0  0  0
 30 28  1  0  0  0  0
 30 32  1  0  0  0  0
 31 30  2  0  0  0  0
 33 37  1  0  0  0  0
 33  3  1  0  0  0  0
 34 37  1  0  0  0  0
 37 35  1  0  0  0  0
 37 36  1  0  0  0  0
M  END
>  <MODEL>
5

>  <REMARK>
 VINA RESULT:      -8.0      4.196      9.622
  Name = 
  12 active torsions:
  status: ('A' for Active; 'I' for Inactive)
    1  A    between atoms: C_1  and  C_27
    2  A    between atoms: C_2  and  N_8
    3  A    between atoms: C_2  and  C_35
    4  A    between atoms: C_3  and  C_4
    5  A    between atoms: C_5  and  C_32
    6  A    between atoms: C_7  and  N_15
    7  A    between atoms: C_7  and  C_26
    8  A    between atoms: C_11  and  C_18
    9  A    between atoms: C_11  and  C_29
   10  A    between atoms: N_15  and  C_18
   11  A    between atoms: C_24  and  C_29
   12  A    between atoms: C_26  and  C_27
                            x       y       z     vdW  Elec       q    Type
                         _______ _______ _______ _____ _____    ______ ____

>  <TORSDO>
F 12

$$$$
=
 OpenBabel11042412083D

 37 40  0  0  1  0  0  0  0  0999 V2000
  186.9150  177.1880  144.7890 C   0  0  2  0  0  3  0  0  0  0  0  0
  188.9560  176.9380  143.6840 C   0  0  2  0  0  3  0  0  0  0  0  0
  187.9470  177.6690  145.7010 N   0  0  0  0  0  0  0  0  0  0  0  0
  187.5270  176.7060  143.5530 N   0  0  0  0  0  2  0  0  0  0  0  0
  189.2020  177.1970  145.1500 C   0  0  0  0  0  2  0  0  0  0  0  0
  189.3780  178.1570  142.8540 C   0  0  2  0  0  3  0  0  0  0  0  0
  189.1400  177.9490  141.3910 C   0  0  0  0  0  0  0  0  0  0  0  0
  189.9170  177.6100  139.3010 N   0  0  0  0  0  0  0  0  0  0  0  0
  190.8130  178.4660  143.0640 N   0  0  0  0  0  2  0  0  0  0  0  0
  191.5260  177.5020  141.0930 N   0  0  0  0  0  2  0  0  0  0  0  0
  188.0640  178.1530  140.6570 C   0  0  0  0  0  3  0  0  0  0  0  0
  188.4790  177.8930  139.2270 C   0  0  0  0  0  2  0  0  0  0  0  0
  191.6330  177.4490  142.5010 N   0  0  0  0  0  2  0  0  0  0  0  0
  190.2210  177.6160  140.5480 C   0  0  0  0  0  0  0  0  0  0  0  0
  185.6770  179.1290  145.3200 O   0  0  0  0  0  0  0  0  0  0  0  0
  185.9400  178.2820  144.4810 C   0  0  0  0  0  0  0  0  0  0  0  0
  185.3200  178.3720  143.1240 C   0  0  0  0  0  2  0  0  0  0  0  0
  183.9290  178.9840  143.2050 C   0  0  0  0  0  2  0  0  0  0  0  0
  183.1650  178.6500  142.0140 N   0  0  0  0  0  2  0  0  0  0  0  0
  184.1280  178.4300  140.9500 C   0  0  0  0  0  2  0  0  0  0  0  0
  183.6420  179.0840  139.6730 C   0  0  2  0  0  3  0  0  0  0  0  0
  184.5070  180.1220  139.3200 O   0  0  0  0  0  1  0  0  0  0  0  0
  182.2430  179.6340  139.8960 C   0  0  0  0  0  2  0  0  0  0  0  0
  180.7840  181.5320  136.3400 C   0  0  0  0  0  3  0  0  0  0  0  0
  181.3270  179.5200  137.5700 C   0  0  0  0  0  3  0  0  0  0  0  0
  181.7250  180.2940  138.6640 C   0  0  0  0  0  0  0  0  0  0  0  0
  181.6550  181.6890  138.5920 C   0  0  0  0  0  3  0  0  0  0  0  0
  181.1850  182.3170  137.4320 C   0  0  0  0  0  0  0  0  0  0  0  0
  180.8550  180.1390  136.4090 C   0  0  0  0  0  3  0  0  0  0  0  0
  181.1140  183.7850  137.3640 C   0  0  0  0  0  0  0  0  0  0  0  0
  182.2560  184.5510  137.5680 O   0  0  0  0  0  1  0  0  0  0  0  0
  180.0200  184.3620  137.1210 O   0  0  0  0  0  0  0  0  0  0  0  0
  187.7530  176.9800  146.9680 C   0  0  0  0  0  2  0  0  0  0  0  0
  189.4180  178.2720  148.2600 C   0  0  0  0  0  1  0  0  0  0  0  0
  187.2390  179.1050  147.9040 F   0  0  0  0  0  0  0  0  0  0  0  0
  187.5100  177.3540  149.3040 F   0  0  0  0  0  0  0  0  0  0  0  0
  187.9470  177.9400  148.1310 C   0  0  0  0  0  0  0  0  0  0  0  0
  1 16  1  6  0  0  0
  1  3  1  0  0  0  0
  2  5  1  1  0  0  0
  3 33  1  0  0  0  0
  4  2  1  0  0  0  0
  4  1  1  0  0  0  0
  5  3  1  0  0  0  0
  6  7  1  6  0  0  0
  6  9  1  0  0  0  0
  6  2  1  0  0  0  0
  8 14  2  0  0  0  0
 10 13  1  0  0  0  0
 11  7  2  0  0  0  0
 12  8  1  0  0  0  0
 12 11  1  0  0  0  0
 13  9  1  0  0  0  0
 14 10  1  0  0  0  0
 14  7  1  0  0  0  0
 16 15  2  0  0  0  0
 17 18  1  0  0  0  0
 17 16  1  0  0  0  0
 19 18  1  0  0  0  0
 20 19  1  0  0  0  0
 21 22  1  1  0  0  0
 21 23  1  0  0  0  0
 21 20  1  0  0  0  0
 24 29  2  0  0  0  0
 24 28  1  0  0  0  0
 25 26  2  0  0  0  0
 26 23  1  0  0  0  0
 27 26  1  0  0  0  0
 28 27  2  0  0  0  0
 29 25  1  0  0  0  0
 30 28  1  0  0  0  0
 30 31  1  0  0  0  0
 32 30  2  0  0  0  0
 33 37  1  0  0  0  0
 35 37  1  0  0  0  0
 37 34  1  0  0  0  0
 37 36  1  0  0  0  0
M  END
>  <MODEL>
6

>  <REMARK>
 VINA RESULT:      -8.0      4.440      7.782
  Name = 
  12 active torsions:
  status: ('A' for Active; 'I' for Inactive)
    1  A    between atoms: C_1  and  C_27
    2  A    between atoms: C_2  and  N_8
    3  A    between atoms: C_2  and  C_35
    4  A    between atoms: C_3  and  C_4
    5  A    between atoms: C_5  and  C_32
    6  A    between atoms: C_7  and  N_15
    7  A    between atoms: C_7  and  C_26
    8  A    between atoms: C_11  and  C_18
    9  A    between atoms: C_11  and  C_29
   10  A    between atoms: N_15  and  C_18
   11  A    between atoms: C_24  and  C_29
   12  A    between atoms: C_26  and  C_27
                            x       y       z     vdW  Elec       q    Type
                         _______ _______ _______ _____ _____    ______ ____

>  <TORSDO>
F 12

$$$$
=
 OpenBabel11042412083D

 37 40  0  0  1  0  0  0  0  0999 V2000
  188.2220  177.7100  136.1490 C   0  0  2  0  0  3  0  0  0  0  0  0
  189.2870  175.6560  135.8440 C   0  0  2  0  0  3  0  0  0  0  0  0
  187.2280  176.6780  136.4250 N   0  0  0  0  0  0  0  0  0  0  0  0
  189.4870  177.0940  135.7610 N   0  0  0  0  0  2  0  0  0  0  0  0
  187.7940  175.4480  135.9090 C   0  0  0  0  0  2  0  0  0  0  0  0
  189.9530  175.0960  137.1080 C   0  0  2  0  0  3  0  0  0  0  0  0
  191.4050  175.4500  137.1790 C   0  0  0  0  0  0  0  0  0  0  0  0
  193.5800  174.8600  137.0780 N   0  0  0  0  0  0  0  0  0  0  0  0
  189.8180  173.6210  137.1640 N   0  0  0  0  0  2  0  0  0  0  0  0
  191.9660  173.1850  136.4430 N   0  0  0  0  0  2  0  0  0  0  0  0
  192.0080  176.5210  137.6570 C   0  0  0  0  0  3  0  0  0  0  0  0
  193.4900  176.2370  137.5770 C   0  0  0  0  0  2  0  0  0  0  0  0
  190.5960  173.0060  136.1450 N   0  0  0  0  0  2  0  0  0  0  0  0
  192.3760  174.4860  136.8350 C   0  0  0  0  0  0  0  0  0  0  0  0
  188.8150  179.7240  137.2350 O   0  0  0  0  0  0  0  0  0  0  0  0
  188.4260  178.5730  137.3570 C   0  0  0  0  0  0  0  0  0  0  0  0
  188.1070  178.0430  138.7180 C   0  0  0  0  0  2  0  0  0  0  0  0
  189.3450  178.0450  139.6020 C   0  0  0  0  0  2  0  0  0  0  0  0
  188.9830  177.7160  140.9710 N   0  0  0  0  0  2  0  0  0  0  0  0
  190.1860  177.2130  141.6090 C   0  0  0  0  0  2  0  0  0  0  0  0
  189.8250  176.4930  142.8930 C   0  0  2  0  0  3  0  0  0  0  0  0
  190.3140  175.1850  142.8500 O   0  0  0  0  0  1  0  0  0  0  0  0
  188.3130  176.4720  143.0440 C   0  0  0  0  0  2  0  0  0  0  0  0
  187.1400  177.9390  146.8970 C   0  0  0  0  0  3  0  0  0  0  0  0
  186.5770  177.3500  144.6180 C   0  0  0  0  0  3  0  0  0  0  0  0
  187.9030  176.9720  144.3870 C   0  0  0  0  0  0  0  0  0  0  0  0
  188.8480  177.0810  145.4120 C   0  0  0  0  0  3  0  0  0  0  0  0
  188.4730  177.5650  146.6730 C   0  0  0  0  0  0  0  0  0  0  0  0
  186.1960  177.8330  145.8730 C   0  0  0  0  0  3  0  0  0  0  0  0
  189.4730  177.6770  147.7460 C   0  0  0  0  0  0  0  0  0  0  0  0
  190.5980  176.8600  147.7450 O   0  0  0  0  0  0  0  0  0  0  0  0
  189.3210  178.5150  148.6760 O   0  0  0  0  0  1  0  0  0  0  0  0
  186.0590  176.9830  135.6150 C   0  0  0  0  0  2  0  0  0  0  0  0
  184.5190  175.8230  137.1630 C   0  0  0  0  0  1  0  0  0  0  0  0
  185.0670  178.0990  137.4670 F   0  0  0  0  0  0  0  0  0  0  0  0
  183.7470  177.5290  135.7260 F   0  0  0  0  0  0  0  0  0  0  0  0
  184.8290  177.1450  136.4950 C   0  0  0  0  0  0  0  0  0  0  0  0
  1  3  1  0  0  0  0
  1 16  1  1  0  0  0
  2  5  1  1  0  0  0
  2  6  1  0  0  0  0
  4  2  1  0  0  0  0
  4  1  1  0  0  0  0
  5  3  1  0  0  0  0
  6  9  1  6  0  0  0
  6  7  1  0  0  0  0
  7 11  2  0  0  0  0
  8 12  1  0  0  0  0
 10 14  1  0  0  0  0
 12 11  1  0  0  0  0
 13 10  1  0  0  0  0
 13  9  1  0  0  0  0
 14  8  2  0  0  0  0
 14  7  1  0  0  0  0
 15 16  2  0  0  0  0
 16 17  1  0  0  0  0
 17 18  1  0  0  0  0
 18 19  1  0  0  0  0
 19 20  1  0  0  0  0
 20 21  1  0  0  0  0
 21 22  1  6  0  0  0
 21 23  1  0  0  0  0
 23 26  1  0  0  0  0
 25 29  1  0  0  0  0
 26 25  2  0  0  0  0
 26 27  1  0  0  0  0
 27 28  2  0  0  0  0
 28 24  1  0  0  0  0
 28 30  1  0  0  0  0
 29 24  2  0  0  0  0
 30 32  1  0  0  0  0
 31 30  2  0  0  0  0
 33  3  1  0  0  0  0
 33 37  1  0  0  0  0
 36 37  1  0  0  0  0
 37 34  1  0  0  0  0
 37 35  1  0  0  0  0
M  END
>  <MODEL>
7

>  <REMARK>
 VINA RESULT:      -7.9      4.403      9.835
  Name = 
  12 active torsions:
  status: ('A' for Active; 'I' for Inactive)
    1  A    between atoms: C_1  and  C_27
    2  A    between atoms: C_2  and  N_8
    3  A    between atoms: C_2  and  C_35
    4  A    between atoms: C_3  and  C_4
    5  A    between atoms: C_5  and  C_32
    6  A    between atoms: C_7  and  N_15
    7  A    between atoms: C_7  and  C_26
    8  A    between atoms: C_11  and  C_18
    9  A    between atoms: C_11  and  C_29
   10  A    between atoms: N_15  and  C_18
   11  A    between atoms: C_24  and  C_29
   12  A    between atoms: C_26  and  C_27
                            x       y       z     vdW  Elec       q    Type
                         _______ _______ _______ _____ _____    ______ ____

>  <TORSDO>
F 12

$$$$
=
 OpenBabel11042412083D

 37 40  0  0  1  0  0  0  0  0999 V2000
  191.6350  175.7690  138.3540 C   0  0  2  0  0  3  0  0  0  0  0  0
  189.6790  176.2370  137.1700 C   0  0  2  0  0  3  0  0  0  0  0  0
  192.0340  176.0480  136.9780 N   0  0  0  0  0  0  0  0  0  0  0  0
  190.1830  175.8530  138.4790 N   0  0  0  0  0  2  0  0  0  0  0  0
  190.8110  175.9970  136.2030 C   0  0  0  0  0  2  0  0  0  0  0  0
  189.2840  177.7200  137.1630 C   0  0  2  0  0  3  0  0  0  0  0  0
  188.1080  177.9910  138.0490 C   0  0  0  0  0  0  0  0  0  0  0  0
  185.9340  178.5270  138.3220 N   0  0  0  0  0  0  0  0  0  0  0  0
  188.9600  178.1720  135.7890 N   0  0  0  0  0  2  0  0  0  0  0  0
  186.6730  178.0790  136.0700 N   0  0  0  0  0  2  0  0  0  0  0  0
  188.0450  178.2530  139.3390 C   0  0  0  0  0  3  0  0  0  0  0  0
  186.5970  178.5740  139.6300 C   0  0  0  0  0  2  0  0  0  0  0  0
  187.7600  177.5630  135.3300 N   0  0  0  0  0  2  0  0  0  0  0  0
  186.8290  178.1540  137.4790 C   0  0  0  0  0  0  0  0  0  0  0  0
  193.4870  176.9390  139.2410 O   0  0  0  0  0  0  0  0  0  0  0  0
  192.2840  176.7410  139.2910 C   0  0  0  0  0  0  0  0  0  0  0  0
  191.4500  177.5120  140.2640 C   0  0  0  0  0  2  0  0  0  0  0  0
  192.0410  177.4320  141.6640 C   0  0  0  0  0  2  0  0  0  0  0  0
  191.0040  177.6470  142.6580 N   0  0  0  0  0  2  0  0  0  0  0  0
  191.6780  178.0270  143.8870 C   0  0  0  0  0  2  0  0  0  0  0  0
  190.9500  177.4380  145.0780 C   0  0  2  0  0  3  0  0  0  0  0  0
  191.7090  176.4010  145.6240 O   0  0  0  0  0  1  0  0  0  0  0  0
  189.6010  176.9050  144.6230 C   0  0  0  0  0  2  0  0  0  0  0  0
  186.4290  178.3660  147.1090 C   0  0  0  0  0  3  0  0  0  0  0  0
  188.6460  177.4230  146.8780 C   0  0  0  0  0  3  0  0  0  0  0  0
  188.5030  177.4230  145.4860 C   0  0  0  0  0  0  0  0  0  0  0  0
  187.3190  177.8920  144.9080 C   0  0  0  0  0  3  0  0  0  0  0  0
  186.2760  178.3670  145.7140 C   0  0  0  0  0  0  0  0  0  0  0  0
  187.6110  177.8950  147.6880 C   0  0  0  0  0  3  0  0  0  0  0  0
  185.0330  178.8580  145.0990 C   0  0  0  0  0  0  0  0  0  0  0  0
  183.8790  178.9940  145.8620 O   0  0  0  0  0  1  0  0  0  0  0  0
  185.0030  179.1620  143.8750 O   0  0  0  0  0  0  0  0  0  0  0  0
  192.8630  174.9350  136.5400 C   0  0  0  0  0  2  0  0  0  0  0  0
  195.3110  174.9090  136.8890 C   0  0  0  0  0  1  0  0  0  0  0  0
  194.3900  174.9990  134.7170 F   0  0  0  0  0  0  0  0  0  0  0  0
  194.2200  176.8220  136.0380 F   0  0  0  0  0  0  0  0  0  0  0  0
  194.1970  175.4410  136.0130 C   0  0  0  0  0  0  0  0  0  0  0  0
  1  4  1  0  0  0  0
  1 16  1  1  0  0  0
  2  5  1  6  0  0  0
  2  4  1  0  0  0  0
  3  1  1  0  0  0  0
  5  3  1  0  0  0  0
  6  9  1  6  0  0  0
  6  2  1  0  0  0  0
  6  7  1  0  0  0  0
  7 11  2  0  0  0  0
  8 12  1  0  0  0  0
 10 14  1  0  0  0  0
 11 12  1  0  0  0  0
 13  9  1  0  0  0  0
 13 10  1  0  0  0  0
 14  7  1  0  0  0  0
 14  8  2  0  0  0  0
 15 16  2  0  0  0  0
 16 17  1  0  0  0  0
 17 18  1  0  0  0  0
 18 19  1  0  0  0  0
 19 20  1  0  0  0  0
 20 21  1  0  0  0  0
 21 22  1  6  0  0  0
 23 21  1  0  0  0  0
 23 26  1  0  0  0  0
 24 29  1  0  0  0  0
 25 29  2  0  0  0  0
 26 25  1  0  0  0  0
 27 26  2  0  0  0  0
 27 28  1  0  0  0  0
 28 24  2  0  0  0  0
 30 28  1  0  0  0  0
 30 31  1  0  0  0  0
 32 30  2  0  0  0  0
 33  3  1  0  0  0  0
 35 37  1  0  0  0  0
 37 36  1  0  0  0  0
 37 33  1  0  0  0  0
 37 34  1  0  0  0  0
M  END
>  <MODEL>
8

>  <REMARK>
 VINA RESULT:      -7.9      3.978      9.001
  Name = 
  12 active torsions:
  status: ('A' for Active; 'I' for Inactive)
    1  A    between atoms: C_1  and  C_27
    2  A    between atoms: C_2  and  N_8
    3  A    between atoms: C_2  and  C_35
    4  A    between atoms: C_3  and  C_4
    5  A    between atoms: C_5  and  C_32
    6  A    between atoms: C_7  and  N_15
    7  A    between atoms: C_7  and  C_26
    8  A    between atoms: C_11  and  C_18
    9  A    between atoms: C_11  and  C_29
   10  A    between atoms: N_15  and  C_18
   11  A    between atoms: C_24  and  C_29
   12  A    between atoms: C_26  and  C_27
                            x       y       z     vdW  Elec       q    Type
                         _______ _______ _______ _____ _____    ______ ____

>  <TORSDO>
F 12

$$$$
=
 OpenBabel11042412083D

 37 40  0  0  1  0  0  0  0  0999 V2000
  185.3580  179.2210  141.0630 C   0  0  2  0  0  3  0  0  0  0  0  0
  183.6600  178.4390  139.6660 C   0  0  2  0  0  3  0  0  0  0  0  0
  184.4360  178.4670  141.9060 N   0  0  0  0  0  0  0  0  0  0  0  0
  184.8750  179.2360  139.6840 N   0  0  0  0  0  2  0  0  0  0  0  0
  183.2400  178.2880  141.1060 C   0  0  0  0  0  2  0  0  0  0  0  0
  183.9330  177.0610  139.0480 C   0  0  2  0  0  3  0  0  0  0  0  0
  184.2740  177.1580  137.5930 C   0  0  0  0  0  0  0  0  0  0  0  0
  183.7480  176.8270  135.4250 N   0  0  0  0  0  0  0  0  0  0  0  0
  182.7590  176.1710  139.2050 N   0  0  0  0  0  2  0  0  0  0  0  0
  182.0020  176.4370  137.0420 N   0  0  0  0  0  2  0  0  0  0  0  0
  185.4290  177.3630  136.9910 C   0  0  0  0  0  3  0  0  0  0  0  0
  185.1600  177.2150  135.5110 C   0  0  0  0  0  2  0  0  0  0  0  0
  181.6740  176.6240  138.4030 N   0  0  0  0  0  2  0  0  0  0  0  0
  183.2940  176.8520  136.6260 C   0  0  0  0  0  0  0  0  0  0  0  0
  187.2550  178.3730  142.1890 O   0  0  0  0  0  0  0  0  0  0  0  0
  186.7270  178.6140  141.1150 C   0  0  0  0  0  0  0  0  0  0  0  0
  187.4340  178.2530  139.8480 C   0  0  0  0  0  2  0  0  0  0  0  0
  188.9410  178.3710  140.0190 C   0  0  0  0  0  2  0  0  0  0  0  0
  189.5160  177.0680  140.3050 N   0  0  0  0  0  2  0  0  0  0  0  0
  190.8140  177.3090  140.9100 C   0  0  0  0  0  2  0  0  0  0  0  0
  190.8190  176.8030  142.3380 C   0  0  2  0  0  3  0  0  0  0  0  0
  189.7670  175.9020  142.5190 O   0  0  0  0  0  1  0  0  0  0  0  0
  190.6570  177.9800  143.2850 C   0  0  0  0  0  2  0  0  0  0  0  0
  190.4860  176.6360  147.3510 C   0  0  0  0  0  3  0  0  0  0  0  0
  191.6790  176.8230  145.2540 C   0  0  0  0  0  3  0  0  0  0  0  0
  190.6020  177.5230  144.7020 C   0  0  0  0  0  0  0  0  0  0  0  0
  189.4650  177.7750  145.4760 C   0  0  0  0  0  3  0  0  0  0  0  0
  189.3990  177.3340  146.8040 C   0  0  0  0  0  0  0  0  0  0  0  0
  191.6220  176.3810  146.5780 C   0  0  0  0  0  3  0  0  0  0  0  0
  188.1990  177.6030  147.6130 C   0  0  0  0  0  0  0  0  0  0  0  0
  186.9340  177.4940  147.0470 O   0  0  0  0  0  0  0  0  0  0  0  0
  188.3060  177.9340  148.8250 O   0  0  0  0  0  1  0  0  0  0  0  0
  184.0780  179.3280  143.0220 C   0  0  0  0  0  2  0  0  0  0  0  0
  185.4490  179.6430  145.0550 C   0  0  0  0  0  1  0  0  0  0  0  0
  183.4030  178.4680  145.1360 F   0  0  0  0  0  0  0  0  0  0  0  0
  185.1620  177.5040  144.0980 F   0  0  0  0  0  0  0  0  0  0  0  0
  184.5090  178.6990  144.3380 C   0  0  0  0  0  0  0  0  0  0  0  0
  1 16  1  6  0  0  0
  1  3  1  0  0  0  0
  2  4  1  0  0  0  0
  2  5  1  1  0  0  0
  3 33  1  0  0  0  0
  4  1  1  0  0  0  0
  5  3  1  0  0  0  0
  6  7  1  6  0  0  0
  6  9  1  0  0  0  0
  6  2  1  0  0  0  0
  8 12  1  0  0  0  0
  8 14  2  0  0  0  0
 10 13  1  0  0  0  0
 11  7  2  0  0  0  0
 12 11  1  0  0  0  0
 13  9  1  0  0  0  0
 14 10  1  0  0  0  0
 14  7  1  0  0  0  0
 16 15  2  0  0  0  0
 17 18  1  0  0  0  0
 17 16  1  0  0  0  0
 18 19  1  0  0  0  0
 19 20  1  0  0  0  0
 20 21  1  0  0  0  0
 21 22  1  6  0  0  0
 21 23  1  0  0  0  0
 23 26  1  0  0  0  0
 25 29  1  0  0  0  0
 26 25  2  0  0  0  0
 26 27  1  0  0  0  0
 27 28  2  0  0  0  0
 28 24  1  0  0  0  0
 28 30  1  0  0  0  0
 29 24  2  0  0  0  0
 30 32  1  0  0  0  0
 31 30  2  0  0  0  0
 33 37  1  0  0  0  0
 36 37  1  0  0  0  0
 37 34  1  0  0  0  0
 37 35  1  0  0  0  0
M  END
>  <MODEL>
9

>  <REMARK>
 VINA RESULT:      -7.8      3.992      7.970
  Name = 
  12 active torsions:
  status: ('A' for Active; 'I' for Inactive)
    1  A    between atoms: C_1  and  C_27
    2  A    between atoms: C_2  and  N_8
    3  A    between atoms: C_2  and  C_35
    4  A    between atoms: C_3  and  C_4
    5  A    between atoms: C_5  and  C_32
    6  A    between atoms: C_7  and  N_15
    7  A    between atoms: C_7  and  C_26
    8  A    between atoms: C_11  and  C_18
    9  A    between atoms: C_11  and  C_29
   10  A    between atoms: N_15  and  C_18
   11  A    between atoms: C_24  and  C_29
   12  A    between atoms: C_26  and  C_27
                            x       y       z     vdW  Elec       q    Type
                         _______ _______ _______ _____ _____    ______ ____

>  <TORSDO>
F 12

$$$$
