=
 OpenBabel11042411253D

 57 63  0  0  1  0  0  0  0  0999 V2000
  193.1480  176.4160  137.2500 C   0  0  0  0  0  0  0  0  0  0  0  0
  190.7330  176.3920  137.5790 C   0  0  0  0  0  0  0  0  0  0  0  0
  191.8470  176.3180  136.7360 C   0  0  0  0  0  3  0  0  0  0  0  0
  191.2940  177.6060  141.5750 C   0  0  0  0  0  3  0  0  0  0  0  0
  192.2270  176.6800  139.4790 C   0  0  0  0  0  0  0  0  0  0  0  0
  189.7510  176.6110  139.9210 C   0  0  0  0  0  2  0  0  0  0  0  0
  190.9210  176.5700  138.9650 C   0  0  0  0  0  0  0  0  0  0  0  0
  192.4380  176.8520  140.9520 C   0  0  0  0  0  2  0  0  0  0  0  0
  193.3290  176.5970  138.6260 C   0  0  0  0  0  3  0  0  0  0  0  0
  190.0380  177.4910  141.1180 C   0  0  0  0  0  0  0  0  0  0  0  0
  188.7340  177.5420  136.7000 C   0  0  0  0  0  3  0  0  0  0  0  0
  189.3900  176.3400  136.9760 C   0  0  0  0  0  0  0  0  0  0  0  0
  186.8170  178.7190  135.9400 F   0  0  0  0  0  0  0  0  0  0  0  0
  189.4070  173.8230  137.0990 C   0  0  0  0  0  1  0  0  0  0  0  0
  187.4440  177.5400  136.1750 C   0  0  0  0  0  0  0  0  0  0  0  0
  187.4200  175.1060  136.2200 C   0  0  0  0  0  0  0  0  0  0  0  0
  188.7340  175.1120  136.7390 C   0  0  0  0  0  0  0  0  0  0  0  0
  186.7820  176.3320  135.9390 C   0  0  0  0  0  0  0  0  0  0  0  0
  185.5170  176.3620  135.4490 F   0  0  0  0  0  0  0  0  0  0  0  0
  186.5610  173.3590  134.5940 C   0  0  0  0  0  1  0  0  0  0  0  0
  186.6970  173.7900  136.0470 C   0  0  2  0  0  3  0  0  0  0  0  0
  184.3310  173.0880  136.3300 C   0  0  0  0  0  3  0  0  0  0  0  0
  185.3950  173.7440  136.7940 C   0  0  0  0  0  3  0  0  0  0  0  0
  183.0530  173.0860  137.0960 C   0  0  0  0  0  2  0  0  0  0  0  0
  182.1010  174.1170  136.5100 C   0  0  2  0  0  3  0  0  0  0  0  0
  182.1760  175.4190  137.3050 C   0  0  1  0  0  3  0  0  0  0  0  0
  180.9060  175.9910  137.3870 O   0  0  0  0  0  1  0  0  0  0  0  0
  181.7240  175.7820  139.4440 C   0  0  0  0  0  1  0  0  0  0  0  0
  182.6430  175.1590  138.5980 O   0  0  0  0  0  0  0  0  0  0  0  0
  180.7430  173.5890  136.5350 N   0  0  0  0  0  2  0  0  0  0  0  0
  180.0380  171.4320  136.8230 C   0  0  0  0  0  1  0  0  0  0  0  0
  179.9430  172.9340  138.4930 O   0  0  0  0  0  1  0  0  0  0  0  0
  180.7270  172.5370  137.4630 N   0  0  0  0  0  0  0  0  0  0  0  0
  194.8120  177.5080  135.7110 N   0  0  0  0  0  1  0  0  0  0  0  0
  194.8730  175.2310  136.1320 O   0  0  0  0  0  0  0  0  0  0  0  0
  194.3110  176.3370  136.3500 C   0  0  0  0  0  0  0  0  0  0  0  0
  188.8280  179.6020  141.6630 C   0  0  0  0  0  1  0  0  0  0  0  0
  188.9560  178.1570  141.7940 N   0  0  0  0  0  0  0  0  0  0  0  0
  184.4380  178.5680  143.9710 C   0  0  0  0  0  0  0  0  0  0  0  0
  186.6110  177.9690  144.3190 C   0  0  0  0  0  0  0  0  0  0  0  0
  184.6450  178.5950  145.6740 S   0  0  0  0  0  0  0  0  0  0  0  0
  186.2710  178.1270  145.6310 C   0  0  0  0  0  0  0  0  0  0  0  0
  187.8210  177.5300  143.8960 C   0  0  0  0  0  0  0  0  0  0  0  0
  188.7990  177.2260  144.8580 C   0  0  0  0  0  3  0  0  0  0  0  0
  187.8740  177.3730  142.3990 C   0  0  1  0  0  3  0  0  0  0  0  0
  188.4860  177.4050  146.2330 C   0  0  0  0  0  0  0  0  0  0  0  0
  187.2000  177.8510  146.6360 C   0  0  0  0  0  3  0  0  0  0  0  0
  189.5110  177.0960  147.2630 C   0  0  0  0  0  1  0  0  0  0  0  0
  185.6570  178.2000  143.3950 C   0  0  0  0  0  0  0  0  0  0  0  0
  186.2150  177.9110  141.7250 S   0  0  0  0  0  0  0  0  0  0  0  0
  181.9360  178.9930  143.9520 C   0  0  0  0  0  3  0  0  0  0  0  0
  183.2020  178.7870  143.2820 N   0  0  0  0  0  0  0  0  0  0  0  0
  181.5330  178.6350  141.6610 C   0  0  2  0  0  3  0  0  0  0  0  0
  180.8930  179.0060  142.9260 N   0  0  0  0  0  0  0  0  0  0  0  0
  183.0350  178.6290  141.8600 C   0  0  0  0  0  2  0  0  0  0  0  0
  182.0660  179.5210  139.3490 C   0  0  0  0  0  1  0  0  0  0  0  0
  181.1140  179.5790  140.5360 C   0  0  0  0  0  2  0  0  0  0  0  0
  1  9  1  0  0  0  0
  2  7  2  0  0  0  0
  3  1  2  0  0  0  0
  3  2  1  0  0  0  0
  5  8  1  0  0  0  0
  6 10  1  0  0  0  0
  7  5  1  0  0  0  0
  7  6  1  0  0  0  0
  8  4  1  0  0  0  0
  9  5  2  0  0  0  0
 10  4  2  0  0  0  0
 10 38  1  0  0  0  0
 11 12  1  0  0  0  0
 12  2  1  0  0  0  0
 13 15  1  0  0  0  0
 15 11  2  0  0  0  0
 16 17  1  0  0  0  0
 17 12  2  0  0  0  0
 17 14  1  0  0  0  0
 18 15  1  0  0  0  0
 18 16  2  0  0  0  0
 19 18  1  0  0  0  0
 21 20  1  6  0  0  0
 21 16  1  0  0  0  0
 21 23  1  0  0  0  0
 22 23  2  0  0  0  0
 22 24  1  0  0  0  0
 25 30  1  0  0  0  0
 25 24  1  1  0  0  0
 25 26  1  0  0  0  0
 26 27  1  1  0  0  0
 26 29  1  0  0  0  0
 29 28  1  0  0  0  0
 30 33  1  0  0  0  0
 31 33  1  0  0  0  0
 33 32  1  0  0  0  0
 34 36  1  0  0  0  0
 35 36  2  0  0  0  0
 36  1  1  0  0  0  0
 37 38  1  0  0  0  0
 39 41  1  0  0  0  0
 40 42  1  0  0  0  0
 42 41  1  0  0  0  0
 42 47  2  0  0  0  0
 43 40  2  0  0  0  0
 43 44  1  0  0  0  0
 44 46  2  0  0  0  0
 45 38  1  6  0  0  0
 45 43  1  0  0  0  0
 46 47  1  0  0  0  0
 46 48  1  0  0  0  0
 49 39  2  0  0  0  0
 49 40  1  0  0  0  0
 50 45  1  0  0  0  0
 50 49  1  0  0  0  0
 52 51  1  0  0  0  0
 52 39  1  0  0  0  0
 53 57  1  6  0  0  0
 53 55  1  0  0  0  0
 53 54  1  0  0  0  0
 54 51  2  0  0  0  0
 55 52  1  0  0  0  0
 56 57  1  0  0  0  0
M  END
>  <MODEL>
1

>  <REMARK>
 VINA RESULT:      -7.3      0.000      0.000
  Name = 
  14 active torsions:
  status: ('A' for Active; 'I' for Inactive)
    1  A    between atoms: C_1  and  N_15
    2  A    between atoms: C_3  and  C_17
    3  A    between atoms: C_7  and  C_9
    4  A    between atoms: O_8  and  C_40
    5  A    between atoms: C_20  and  C_57
    6  A    between atoms: N_25  and  C_44
    7  A    between atoms: N_25  and  C_54
    8  A    between atoms: C_26  and  C_33
    9  A    between atoms: C_28  and  C_50
   10  A    between atoms: C_34  and  C_50
   11  A    between atoms: N_39  and  N_52
   12  A    between atoms: C_40  and  C_48
   13  A    between atoms: C_48  and  N_52
   14  A    between atoms: C_48  and  C_57
                            x       y       z     vdW  Elec       q    Type
                         _______ _______ _______ _____ _____    ______ ____

>  <TORSDO>
F 14

$$$$
=
 OpenBabel11042411253D

 57 63  0  0  1  0  0  0  0  0999 V2000
  180.3690  179.9500  139.9420 C   0  0  0  0  0  0  0  0  0  0  0  0
  182.4750  178.7340  140.1080 C   0  0  0  0  0  0  0  0  0  0  0  0
  181.6570  179.8090  140.4760 C   0  0  0  0  0  3  0  0  0  0  0  0
  181.2990  176.3110  136.8680 C   0  0  0  0  0  3  0  0  0  0  0  0
  180.7060  177.9280  138.6440 C   0  0  0  0  0  0  0  0  0  0  0  0
  182.8240  176.5780  138.7940 C   0  0  0  0  0  2  0  0  0  0  0  0
  181.9960  177.7810  139.1870 C   0  0  0  0  0  0  0  0  0  0  0  0
  180.1820  176.9100  137.6780 C   0  0  0  0  0  2  0  0  0  0  0  0
  179.8990  179.0020  139.0250 C   0  0  0  0  0  3  0  0  0  0  0  0
  182.5280  176.1340  137.3780 C   0  0  0  0  0  0  0  0  0  0  0  0
  184.9200  178.7300  139.7710 C   0  0  0  0  0  3  0  0  0  0  0  0
  183.8410  178.6700  140.6560 C   0  0  0  0  0  0  0  0  0  0  0  0
  187.2580  178.6570  139.3610 F   0  0  0  0  0  0  0  0  0  0  0  0
  182.9170  178.3480  142.9790 C   0  0  0  0  0  1  0  0  0  0  0  0
  186.2270  178.6230  140.2420 C   0  0  0  0  0  0  0  0  0  0  0  0
  185.3970  178.3600  142.5150 C   0  0  0  0  0  0  0  0  0  0  0  0
  184.0730  178.4830  142.0360 C   0  0  0  0  0  0  0  0  0  0  0  0
  186.4710  178.4340  141.6040 C   0  0  0  0  0  0  0  0  0  0  0  0
  187.7540  178.3100  142.0290 F   0  0  0  0  0  0  0  0  0  0  0  0
  185.5550  179.3190  144.8580 C   0  0  0  0  0  1  0  0  0  0  0  0
  185.6330  178.0780  143.9820 C   0  0  2  0  0  3  0  0  0  0  0  0
  187.8400  177.6760  145.0470 C   0  0  0  0  0  3  0  0  0  0  0  0
  186.8750  177.2700  144.2210 C   0  0  0  0  0  3  0  0  0  0  0  0
  189.0660  176.8510  145.2400 C   0  0  0  0  0  2  0  0  0  0  0  0
  190.2840  177.7560  145.3420 C   0  0  2  0  0  3  0  0  0  0  0  0
  190.5810  178.3980  143.9890 C   0  0  1  0  0  3  0  0  0  0  0  0
  191.0200  179.7090  144.1790 O   0  0  0  0  0  1  0  0  0  0  0  0
  190.9130  176.9810  142.3180 C   0  0  0  0  0  1  0  0  0  0  0  0
  191.5800  177.6750  143.3300 O   0  0  0  0  0  0  0  0  0  0  0  0
  191.4290  176.9740  145.7920 N   0  0  0  0  0  2  0  0  0  0  0  0
  190.3990  177.5580  147.7490 C   0  0  0  0  0  1  0  0  0  0  0  0
  192.3010  176.3600  147.7310 O   0  0  0  0  0  1  0  0  0  0  0  0
  191.1240  176.4980  147.0750 N   0  0  0  0  0  0  0  0  0  0  0  0
  179.1950  181.3050  141.7070 N   0  0  0  0  0  1  0  0  0  0  0  0
  179.0650  181.8740  139.4650 O   0  0  0  0  0  0  0  0  0  0  0  0
  179.5190  181.0860  140.3370 C   0  0  0  0  0  0  0  0  0  0  0  0
  183.7060  175.8320  135.2010 C   0  0  0  0  0  1  0  0  0  0  0  0
  183.5470  175.4760  136.6050 N   0  0  0  0  0  0  0  0  0  0  0  0
  188.1460  173.5160  136.0340 C   0  0  0  0  0  0  0  0  0  0  0  0
  185.9330  173.0090  136.2460 C   0  0  0  0  0  0  0  0  0  0  0  0
  187.9940  171.9120  135.4470 S   0  0  0  0  0  0  0  0  0  0  0  0
  186.3280  171.8130  135.7200 C   0  0  0  0  0  0  0  0  0  0  0  0
  184.6700  173.2770  136.6580 C   0  0  0  0  0  0  0  0  0  0  0  0
  183.6950  172.2750  136.5300 C   0  0  0  0  0  3  0  0  0  0  0  0
  184.5560  174.6470  137.2730 C   0  0  1  0  0  3  0  0  0  0  0  0
  184.0660  171.0260  135.9620 C   0  0  0  0  0  0  0  0  0  0  0  0
  185.4050  170.7780  135.5570 C   0  0  0  0  0  3  0  0  0  0  0  0
  183.0460  169.9570  135.8130 C   0  0  0  0  0  1  0  0  0  0  0  0
  186.8790  173.9520  136.4270 C   0  0  0  0  0  0  0  0  0  0  0  0
  186.2430  175.4480  137.1650 S   0  0  0  0  0  0  0  0  0  0  0  0
  189.7020  175.4320  135.4430 C   0  0  0  0  0  3  0  0  0  0  0  0
  189.3780  174.2320  136.1840 N   0  0  0  0  0  0  0  0  0  0  0  0
  191.6450  174.6580  136.5240 C   0  0  2  0  0  3  0  0  0  0  0  0
  191.0960  175.7660  135.7370 N   0  0  0  0  0  0  0  0  0  0  0  0
  190.5090  173.7400  136.9270 C   0  0  0  0  0  2  0  0  0  0  0  0
  193.2450  176.4080  137.4130 C   0  0  0  0  0  1  0  0  0  0  0  0
  192.4160  175.1730  137.7370 C   0  0  0  0  0  2  0  0  0  0  0  0
  1 36  1  0  0  0  0
  1  3  1  0  0  0  0
  2  3  2  0  0  0  0
  2 12  1  0  0  0  0
  4 10  2  0  0  0  0
  4  8  1  0  0  0  0
  5  9  1  0  0  0  0
  5  7  2  0  0  0  0
  6  7  1  0  0  0  0
  7  2  1  0  0  0  0
  8  5  1  0  0  0  0
  9  1  2  0  0  0  0
 10  6  1  0  0  0  0
 11 15  2  0  0  0  0
 11 12  1  0  0  0  0
 12 17  2  0  0  0  0
 13 15  1  0  0  0  0
 15 18  1  0  0  0  0
 16 21  1  0  0  0  0
 17 16  1  0  0  0  0
 17 14  1  0  0  0  0
 18 19  1  0  0  0  0
 18 16  2  0  0  0  0
 21 23  1  0  0  0  0
 21 20  1  1  0  0  0
 22 24  1  0  0  0  0
 23 22  2  0  0  0  0
 25 24  1  6  0  0  0
 25 30  1  0  0  0  0
 26 27  1  1  0  0  0
 26 25  1  0  0  0  0
 28 29  1  0  0  0  0
 29 26  1  0  0  0  0
 30 33  1  0  0  0  0
 33 32  1  0  0  0  0
 33 31  1  0  0  0  0
 35 36  2  0  0  0  0
 36 34  1  0  0  0  0
 37 38  1  0  0  0  0
 38 10  1  0  0  0  0
 39 52  1  0  0  0  0
 39 49  2  0  0  0  0
 40 49  1  0  0  0  0
 40 43  1  0  0  0  0
 41 42  1  0  0  0  0
 41 39  1  0  0  0  0
 42 40  2  0  0  0  0
 43 45  1  0  0  0  0
 44 43  2  0  0  0  0
 45 38  1  6  0  0  0
 46 44  1  0  0  0  0
 47 42  1  0  0  0  0
 47 46  2  0  0  0  0
 48 46  1  0  0  0  0
 49 50  1  0  0  0  0
 50 45  1  0  0  0  0
 51 54  2  0  0  0  0
 51 52  1  0  0  0  0
 52 55  1  0  0  0  0
 53 55  1  0  0  0  0
 53 57  1  1  0  0  0
 54 53  1  0  0  0  0
 56 57  1  0  0  0  0
M  END
>  <MODEL>
2

>  <REMARK>
 VINA RESULT:      -7.3      3.669     11.145
  Name = 
  14 active torsions:
  status: ('A' for Active; 'I' for Inactive)
    1  A    between atoms: C_1  and  N_15
    2  A    between atoms: C_3  and  C_17
    3  A    between atoms: C_7  and  C_9
    4  A    between atoms: O_8  and  C_40
    5  A    between atoms: C_20  and  C_57
    6  A    between atoms: N_25  and  C_44
    7  A    between atoms: N_25  and  C_54
    8  A    between atoms: C_26  and  C_33
    9  A    between atoms: C_28  and  C_50
   10  A    between atoms: C_34  and  C_50
   11  A    between atoms: N_39  and  N_52
   12  A    between atoms: C_40  and  C_48
   13  A    between atoms: C_48  and  N_52
   14  A    between atoms: C_48  and  C_57
                            x       y       z     vdW  Elec       q    Type
                         _______ _______ _______ _____ _____    ______ ____

>  <TORSDO>
F 14

$$$$
=
 OpenBabel11042411253D

 57 63  0  0  1  0  0  0  0  0999 V2000
  193.0500  176.3790  136.9320 C   0  0  0  0  0  0  0  0  0  0  0  0
  190.6560  176.4390  137.3870 C   0  0  0  0  0  0  0  0  0  0  0  0
  191.7220  176.3690  136.4830 C   0  0  0  0  0  3  0  0  0  0  0  0
  191.4730  177.3760  141.4130 C   0  0  0  0  0  3  0  0  0  0  0  0
  192.2550  176.5430  139.2190 C   0  0  0  0  0  0  0  0  0  0  0  0
  189.8040  176.5550  139.7870 C   0  0  0  0  0  2  0  0  0  0  0  0
  190.9220  176.5230  138.7690 C   0  0  0  0  0  0  0  0  0  0  0  0
  192.5480  176.6140  140.6860 C   0  0  0  0  0  2  0  0  0  0  0  0
  193.3080  176.4660  138.3060 C   0  0  0  0  0  3  0  0  0  0  0  0
  190.1910  177.3450  141.0170 C   0  0  0  0  0  0  0  0  0  0  0  0
  188.7420  177.7230  136.5060 C   0  0  0  0  0  3  0  0  0  0  0  0
  189.2840  176.4840  136.8540 C   0  0  0  0  0  0  0  0  0  0  0  0
  186.9170  179.0340  135.7370 F   0  0  0  0  0  0  0  0  0  0  0  0
  189.0480  173.9980  137.1920 C   0  0  0  0  0  1  0  0  0  0  0  0
  187.4310  177.8170  136.0440 C   0  0  0  0  0  0  0  0  0  0  0  0
  187.1580  175.4110  136.2990 C   0  0  0  0  0  0  0  0  0  0  0  0
  188.4930  175.3180  136.7540 C   0  0  0  0  0  0  0  0  0  0  0  0
  186.6360  176.6730  135.9440 C   0  0  0  0  0  0  0  0  0  0  0  0
  185.3550  176.7990  135.5120 F   0  0  0  0  0  0  0  0  0  0  0  0
  185.8970  173.7370  134.8710 C   0  0  0  0  0  1  0  0  0  0  0  0
  186.2950  174.1710  136.2740 C   0  0  2  0  0  3  0  0  0  0  0  0
  183.9060  174.6130  136.7940 C   0  0  0  0  0  3  0  0  0  0  0  0
  185.1240  174.2640  137.2100 C   0  0  0  0  0  3  0  0  0  0  0  0
  182.7780  174.7110  137.7620 C   0  0  0  0  0  2  0  0  0  0  0  0
  181.8940  175.8960  137.4030 C   0  0  2  0  0  3  0  0  0  0  0  0
  182.6950  177.1940  137.4780 C   0  0  1  0  0  3  0  0  0  0  0  0
  181.8740  178.2700  137.1350 O   0  0  0  0  0  1  0  0  0  0  0  0
  184.2850  178.2160  138.6350 C   0  0  0  0  0  1  0  0  0  0  0  0
  183.1730  177.3830  138.7780 O   0  0  0  0  0  0  0  0  0  0  0  0
  180.7620  175.9480  138.3190 N   0  0  0  0  0  2  0  0  0  0  0  0
  179.2920  174.2050  138.1340 C   0  0  0  0  0  1  0  0  0  0  0  0
  180.2800  174.7090  140.0890 O   0  0  0  0  0  1  0  0  0  0  0  0
  180.5280  174.6370  138.7600 N   0  0  0  0  0  0  0  0  0  0  0  0
  195.4860  176.0220  136.4140 N   0  0  0  0  0  1  0  0  0  0  0  0
  193.9550  176.5000  134.7420 O   0  0  0  0  0  0  0  0  0  0  0  0
  194.1620  176.3050  135.9700 C   0  0  0  0  0  0  0  0  0  0  0  0
  189.0380  179.4590  141.6650 C   0  0  0  0  0  1  0  0  0  0  0  0
  189.1770  178.0150  141.7880 N   0  0  0  0  0  0  0  0  0  0  0  0
  184.8200  178.4240  144.2710 C   0  0  0  0  0  0  0  0  0  0  0  0
  187.0230  177.8700  144.4800 C   0  0  0  0  0  0  0  0  0  0  0  0
  185.1470  178.5090  145.9520 S   0  0  0  0  0  0  0  0  0  0  0  0
  186.7740  178.0650  145.8070 C   0  0  0  0  0  0  0  0  0  0  0  0
  188.2070  177.4370  143.9840 C   0  0  0  0  0  0  0  0  0  0  0  0
  189.2560  177.1790  144.8820 C   0  0  0  0  0  3  0  0  0  0  0  0
  188.1560  177.2330  142.4930 C   0  0  1  0  0  3  0  0  0  0  0  0
  189.0390  177.3970  146.2700 C   0  0  0  0  0  0  0  0  0  0  0  0
  187.7770  177.8360  146.7510 C   0  0  0  0  0  3  0  0  0  0  0  0
  190.1400  177.1370  147.2330 C   0  0  0  0  0  1  0  0  0  0  0  0
  186.0000  178.0570  143.6200 C   0  0  0  0  0  0  0  0  0  0  0  0
  186.4430  177.7240  141.9240 S   0  0  0  0  0  0  0  0  0  0  0  0
  183.3240  178.6730  142.2350 C   0  0  0  0  0  3  0  0  0  0  0  0
  183.5330  178.6020  143.6650 N   0  0  0  0  0  0  0  0  0  0  0  0
  181.3470  179.3360  143.3270 C   0  0  2  0  0  3  0  0  0  0  0  0
  181.9220  179.0300  142.0150 N   0  0  0  0  0  0  0  0  0  0  0  0
  182.3390  178.9310  144.3990 C   0  0  0  0  0  2  0  0  0  0  0  0
  178.9990  179.5170  144.2600 C   0  0  0  0  0  1  0  0  0  0  0  0
  179.9980  178.6450  143.5120 C   0  0  0  0  0  2  0  0  0  0  0  0
  1  9  1  0  0  0  0
  2  7  2  0  0  0  0
  3  1  2  0  0  0  0
  3  2  1  0  0  0  0
  5  8  1  0  0  0  0
  6 10  1  0  0  0  0
  7  5  1  0  0  0  0
  7  6  1  0  0  0  0
  8  4  1  0  0  0  0
  9  5  2  0  0  0  0
 10  4  2  0  0  0  0
 10 38  1  0  0  0  0
 11 12  1  0  0  0  0
 12  2  1  0  0  0  0
 13 15  1  0  0  0  0
 15 11  2  0  0  0  0
 16 17  1  0  0  0  0
 17 12  2  0  0  0  0
 17 14  1  0  0  0  0
 18 15  1  0  0  0  0
 18 16  2  0  0  0  0
 19 18  1  0  0  0  0
 21 20  1  6  0  0  0
 21 16  1  0  0  0  0
 21 23  1  0  0  0  0
 22 23  2  0  0  0  0
 22 24  1  0  0  0  0
 25 26  1  0  0  0  0
 25 24  1  1  0  0  0
 25 30  1  0  0  0  0
 26 27  1  1  0  0  0
 26 29  1  0  0  0  0
 28 29  1  0  0  0  0
 30 33  1  0  0  0  0
 31 33  1  0  0  0  0
 33 32  1  0  0  0  0
 35 36  2  0  0  0  0
 36 34  1  0  0  0  0
 36  1  1  0  0  0  0
 37 38  1  0  0  0  0
 39 41  1  0  0  0  0
 40 42  1  0  0  0  0
 42 41  1  0  0  0  0
 42 47  2  0  0  0  0
 43 40  2  0  0  0  0
 43 44  1  0  0  0  0
 44 46  2  0  0  0  0
 45 38  1  6  0  0  0
 45 43  1  0  0  0  0
 46 47  1  0  0  0  0
 46 48  1  0  0  0  0
 49 39  2  0  0  0  0
 49 40  1  0  0  0  0
 50 45  1  0  0  0  0
 50 49  1  0  0  0  0
 51 52  1  0  0  0  0
 52 39  1  0  0  0  0
 52 55  1  0  0  0  0
 53 57  1  1  0  0  0
 53 55  1  0  0  0  0
 54 51  2  0  0  0  0
 54 53  1  0  0  0  0
 57 56  1  0  0  0  0
M  END
>  <MODEL>
3

>  <REMARK>
 VINA RESULT:      -7.3      1.241      1.594
  Name = 
  14 active torsions:
  status: ('A' for Active; 'I' for Inactive)
    1  A    between atoms: C_1  and  N_15
    2  A    between atoms: C_3  and  C_17
    3  A    between atoms: C_7  and  C_9
    4  A    between atoms: O_8  and  C_40
    5  A    between atoms: C_20  and  C_57
    6  A    between atoms: N_25  and  C_44
    7  A    between atoms: N_25  and  C_54
    8  A    between atoms: C_26  and  C_33
    9  A    between atoms: C_28  and  C_50
   10  A    between atoms: C_34  and  C_50
   11  A    between atoms: N_39  and  N_52
   12  A    between atoms: C_40  and  C_48
   13  A    between atoms: C_48  and  N_52
   14  A    between atoms: C_48  and  C_57
                            x       y       z     vdW  Elec       q    Type
                         _______ _______ _______ _____ _____    ______ ____

>  <TORSDO>
F 14

$$$$
=
 OpenBabel11042411253D

 57 63  0  0  1  0  0  0  0  0999 V2000
  181.0140  181.1120  137.9150 C   0  0  0  0  0  0  0  0  0  0  0  0
  182.6350  179.4360  138.6250 C   0  0  0  0  0  0  0  0  0  0  0  0
  182.1500  180.7480  138.6520 C   0  0  0  0  0  3  0  0  0  0  0  0
  181.0700  176.7570  135.7740 C   0  0  0  0  0  3  0  0  0  0  0  0
  180.8390  178.8350  137.0960 C   0  0  0  0  0  0  0  0  0  0  0  0
  182.4320  177.0260  137.8180 C   0  0  0  0  0  2  0  0  0  0  0  0
  181.9730  178.4670  137.8440 C   0  0  0  0  0  0  0  0  0  0  0  0
  180.1190  177.8090  136.2770 C   0  0  0  0  0  2  0  0  0  0  0  0
  180.3630  180.1470  137.1380 C   0  0  0  0  0  3  0  0  0  0  0  0
  182.1400  176.3700  136.4870 C   0  0  0  0  0  0  0  0  0  0  0  0
  185.0580  178.9710  138.6630 C   0  0  0  0  0  3  0  0  0  0  0  0
  183.8650  179.1250  139.3730 C   0  0  0  0  0  0  0  0  0  0  0  0
  187.3770  178.4590  138.6120 F   0  0  0  0  0  0  0  0  0  0  0  0
  182.5560  179.0110  141.5230 C   0  0  0  0  0  1  0  0  0  0  0  0
  186.2360  178.6290  139.3250 C   0  0  0  0  0  0  0  0  0  0  0  0
  185.0360  178.5550  141.4420 C   0  0  0  0  0  0  0  0  0  0  0  0
  183.8460  178.9160  140.7700 C   0  0  0  0  0  0  0  0  0  0  0  0
  186.2300  178.4150  140.7050 C   0  0  0  0  0  0  0  0  0  0  0  0
  187.3880  178.0610  141.3190 F   0  0  0  0  0  0  0  0  0  0  0  0
  184.1950  179.2730  143.7250 C   0  0  0  0  0  1  0  0  0  0  0  0
  184.9890  178.2530  142.9220 C   0  0  2  0  0  3  0  0  0  0  0  0
  186.7060  176.7820  143.9510 C   0  0  0  0  0  3  0  0  0  0  0  0
  186.3480  177.9850  143.5000 C   0  0  0  0  0  3  0  0  0  0  0  0
  188.0600  176.5670  144.5340 C   0  0  0  0  0  2  0  0  0  0  0  0
  188.7210  177.9090  144.8070 C   0  0  2  0  0  3  0  0  0  0  0  0
  190.0850  177.9760  144.1240 C   0  0  1  0  0  3  0  0  0  0  0  0
  189.9820  177.4780  142.8240 O   0  0  0  0  0  1  0  0  0  0  0  0
  191.9160  179.2160  143.9780 C   0  0  0  0  0  1  0  0  0  0  0  0
  190.5250  179.3020  144.0700 O   0  0  0  0  0  0  0  0  0  0  0  0
  188.8690  178.0900  146.2460 N   0  0  0  0  0  2  0  0  0  0  0  0
  186.8840  178.2810  147.3660 C   0  0  0  0  0  1  0  0  0  0  0  0
  188.4200  176.7450  147.9450 O   0  0  0  0  0  1  0  0  0  0  0  0
  187.8610  177.3340  146.8620 N   0  0  0  0  0  0  0  0  0  0  0  0
  181.0860  183.4950  137.1100 N   0  0  0  0  0  1  0  0  0  0  0  0
  179.5810  182.8160  138.7360 O   0  0  0  0  0  0  0  0  0  0  0  0
  180.5150  182.4970  137.9520 C   0  0  0  0  0  0  0  0  0  0  0  0
  182.9810  174.9820  134.5940 C   0  0  0  0  0  1  0  0  0  0  0  0
  182.9770  175.2990  136.0150 N   0  0  0  0  0  0  0  0  0  0  0  0
  187.8270  173.9850  136.2820 C   0  0  0  0  0  0  0  0  0  0  0  0
  185.6910  173.1840  136.2770 C   0  0  0  0  0  0  0  0  0  0  0  0
  187.9710  172.3210  135.8900 S   0  0  0  0  0  0  0  0  0  0  0  0
  186.3090  172.0100  135.9620 C   0  0  0  0  0  0  0  0  0  0  0  0
  184.3590  173.3080  136.4900 C   0  0  0  0  0  0  0  0  0  0  0  0
  183.5510  172.1650  136.3700 C   0  0  0  0  0  3  0  0  0  0  0  0
  183.9800  174.7050  136.9060 C   0  0  1  0  0  3  0  0  0  0  0  0
  184.1590  170.9300  136.0180 C   0  0  0  0  0  0  0  0  0  0  0  0
  185.5620  170.8380  135.8190 C   0  0  0  0  0  3  0  0  0  0  0  0
  183.3180  169.7130  135.8790 C   0  0  0  0  0  1  0  0  0  0  0  0
  186.4700  174.2700  136.4530 C   0  0  0  0  0  0  0  0  0  0  0  0
  185.5460  175.7280  136.9080 S   0  0  0  0  0  0  0  0  0  0  0  0
  189.0380  176.1710  135.8370 C   0  0  0  0  0  3  0  0  0  0  0  0
  188.9200  174.8860  136.4920 N   0  0  0  0  0  0  0  0  0  0  0  0
  191.0840  175.6630  136.8840 C   0  0  2  0  0  3  0  0  0  0  0  0
  190.3550  176.7130  136.1670 N   0  0  0  0  0  0  0  0  0  0  0  0
  190.1190  174.5410  137.2120 C   0  0  0  0  0  2  0  0  0  0  0  0
  190.7570  176.5340  139.2390 C   0  0  0  0  0  1  0  0  0  0  0  0
  191.7580  176.2170  138.1360 C   0  0  0  0  0  2  0  0  0  0  0  0
  1 36  1  0  0  0  0
  1  3  1  0  0  0  0
  2  3  2  0  0  0  0
  2 12  1  0  0  0  0
  4  8  1  0  0  0  0
  4 10  2  0  0  0  0
  5  9  1  0  0  0  0
  5  7  2  0  0  0  0
  6  7  1  0  0  0  0
  7  2  1  0  0  0  0
  8  5  1  0  0  0  0
  9  1  2  0  0  0  0
 10  6  1  0  0  0  0
 11 15  2  0  0  0  0
 11 12  1  0  0  0  0
 12 17  2  0  0  0  0
 13 15  1  0  0  0  0
 15 18  1  0  0  0  0
 16 21  1  0  0  0  0
 17 16  1  0  0  0  0
 17 14  1  0  0  0  0
 18 19  1  0  0  0  0
 18 16  2  0  0  0  0
 21 23  1  0  0  0  0
 21 20  1  1  0  0  0
 22 24  1  0  0  0  0
 23 22  2  0  0  0  0
 25 24  1  1  0  0  0
 25 30  1  0  0  0  0
 26 27  1  6  0  0  0
 26 25  1  0  0  0  0
 28 29  1  0  0  0  0
 29 26  1  0  0  0  0
 30 33  1  0  0  0  0
 33 31  1  0  0  0  0
 33 32  1  0  0  0  0
 34 36  1  0  0  0  0
 36 35  2  0  0  0  0
 37 38  1  0  0  0  0
 38 10  1  0  0  0  0
 39 49  2  0  0  0  0
 39 52  1  0  0  0  0
 40 49  1  0  0  0  0
 40 43  1  0  0  0  0
 41 42  1  0  0  0  0
 41 39  1  0  0  0  0
 42 40  2  0  0  0  0
 43 45  1  0  0  0  0
 44 43  2  0  0  0  0
 45 38  1  6  0  0  0
 45 50  1  0  0  0  0
 46 44  1  0  0  0  0
 47 42  1  0  0  0  0
 47 46  2  0  0  0  0
 48 46  1  0  0  0  0
 49 50  1  0  0  0  0
 51 54  2  0  0  0  0
 51 52  1  0  0  0  0
 52 55  1  0  0  0  0
 53 55  1  0  0  0  0
 53 57  1  1  0  0  0
 54 53  1  0  0  0  0
 57 56  1  0  0  0  0
M  END
>  <MODEL>
4

>  <REMARK>
 VINA RESULT:      -6.6      3.772     10.610
  Name = 
  14 active torsions:
  status: ('A' for Active; 'I' for Inactive)
    1  A    between atoms: C_1  and  N_15
    2  A    between atoms: C_3  and  C_17
    3  A    between atoms: C_7  and  C_9
    4  A    between atoms: O_8  and  C_40
    5  A    between atoms: C_20  and  C_57
    6  A    between atoms: N_25  and  C_44
    7  A    between atoms: N_25  and  C_54
    8  A    between atoms: C_26  and  C_33
    9  A    between atoms: C_28  and  C_50
   10  A    between atoms: C_34  and  C_50
   11  A    between atoms: N_39  and  N_52
   12  A    between atoms: C_40  and  C_48
   13  A    between atoms: C_48  and  N_52
   14  A    between atoms: C_48  and  C_57
                            x       y       z     vdW  Elec       q    Type
                         _______ _______ _______ _____ _____    ______ ____

>  <TORSDO>
F 14

$$$$
=
 OpenBabel11042411253D

 57 63  0  0  1  0  0  0  0  0999 V2000
  193.0830  176.4750  137.5560 C   0  0  0  0  0  0  0  0  0  0  0  0
  190.6470  176.4980  137.6460 C   0  0  0  0  0  0  0  0  0  0  0  0
  191.8380  176.4150  136.9150 C   0  0  0  0  0  3  0  0  0  0  0  0
  190.8350  177.6250  141.7010 C   0  0  0  0  0  3  0  0  0  0  0  0
  191.9510  176.7170  139.6890 C   0  0  0  0  0  0  0  0  0  0  0  0
  189.4430  176.6950  139.8840 C   0  0  0  0  0  2  0  0  0  0  0  0
  190.7010  176.6460  139.0460 C   0  0  0  0  0  0  0  0  0  0  0  0
  192.0190  176.8580  141.1780 C   0  0  0  0  0  2  0  0  0  0  0  0
  193.1310  176.6270  138.9470 C   0  0  0  0  0  3  0  0  0  0  0  0
  189.6280  177.5460  141.1210 C   0  0  0  0  0  0  0  0  0  0  0  0
  188.8670  177.6960  136.4270 C   0  0  0  0  0  3  0  0  0  0  0  0
  189.3690  176.4860  136.9130 C   0  0  0  0  0  0  0  0  0  0  0  0
  187.1580  178.9280  135.3310 F   0  0  0  0  0  0  0  0  0  0  0  0
  189.1230  174.0140  137.3340 C   0  0  0  0  0  1  0  0  0  0  0  0
  187.6380  177.7390  135.7710 C   0  0  0  0  0  0  0  0  0  0  0  0
  187.3680  175.3420  136.1010 C   0  0  0  0  0  0  0  0  0  0  0  0
  188.6200  175.3000  136.7530 C   0  0  0  0  0  0  0  0  0  0  0  0
  186.8850  176.5730  135.6100 C   0  0  0  0  0  0  0  0  0  0  0  0
  185.6820  176.6500  134.9870 F   0  0  0  0  0  0  0  0  0  0  0  0
  186.4180  173.5370  134.5940 C   0  0  0  0  0  1  0  0  0  0  0  0
  186.5370  174.0830  136.0090 C   0  0  2  0  0  3  0  0  0  0  0  0
  184.8310  175.3420  137.3030 C   0  0  0  0  0  3  0  0  0  0  0  0
  185.2090  174.2160  136.6960 C   0  0  0  0  0  3  0  0  0  0  0  0
  183.5120  175.4240  137.9900 C   0  0  0  0  0  2  0  0  0  0  0  0
  182.7640  176.6630  137.5210 C   0  0  2  0  0  3  0  0  0  0  0  0
  181.9500  176.3480  136.2680 C   0  0  1  0  0  3  0  0  0  0  0  0
  180.5890  176.4520  136.5570 O   0  0  0  0  0  1  0  0  0  0  0  0
  181.0700  177.9020  134.9560 C   0  0  0  0  0  1  0  0  0  0  0  0
  182.2710  177.2550  135.2530 O   0  0  0  0  0  0  0  0  0  0  0  0
  183.7210  177.7280  137.2460 N   0  0  0  0  0  2  0  0  0  0  0  0
  183.3860  179.3080  138.8660 C   0  0  0  0  0  1  0  0  0  0  0  0
  185.4530  178.6590  138.2630 O   0  0  0  0  0  1  0  0  0  0  0  0
  184.2080  178.1740  138.4840 N   0  0  0  0  0  0  0  0  0  0  0  0
  194.5600  177.2730  135.6820 N   0  0  0  0  0  1  0  0  0  0  0  0
  195.1980  175.5230  137.0590 O   0  0  0  0  0  0  0  0  0  0  0  0
  194.3280  176.3870  136.7740 C   0  0  0  0  0  0  0  0  0  0  0  0
  188.2930  179.6340  141.4010 C   0  0  0  0  0  1  0  0  0  0  0  0
  188.4980  178.2230  141.7010 N   0  0  0  0  0  0  0  0  0  0  0  0
  184.1560  178.6960  144.1990 C   0  0  0  0  0  0  0  0  0  0  0  0
  186.3380  178.0600  144.3870 C   0  0  0  0  0  0  0  0  0  0  0  0
  184.4850  178.7110  145.8820 S   0  0  0  0  0  0  0  0  0  0  0  0
  186.0950  178.2170  145.7200 C   0  0  0  0  0  0  0  0  0  0  0  0
  187.5070  177.6030  143.8760 C   0  0  0  0  0  0  0  0  0  0  0  0
  188.5460  177.2780  144.7640 C   0  0  0  0  0  3  0  0  0  0  0  0
  187.4490  177.4540  142.3780 C   0  0  1  0  0  3  0  0  0  0  0  0
  188.3360  177.4550  146.1580 C   0  0  0  0  0  0  0  0  0  0  0  0
  187.0890  177.9200  146.6550 C   0  0  0  0  0  3  0  0  0  0  0  0
  189.4260  177.1230  147.1110 C   0  0  0  0  0  1  0  0  0  0  0  0
  185.3230  178.3110  143.5350 C   0  0  0  0  0  0  0  0  0  0  0  0
  185.7550  178.0230  141.8280 S   0  0  0  0  0  0  0  0  0  0  0  0
  181.7040  179.3340  144.3510 C   0  0  0  0  0  3  0  0  0  0  0  0
  182.8770  178.9400  143.6010 N   0  0  0  0  0  0  0  0  0  0  0  0
  181.0470  178.7430  142.1690 C   0  0  2  0  0  3  0  0  0  0  0  0
  180.5680  179.3160  143.4300 N   0  0  0  0  0  0  0  0  0  0  0  0
  182.5570  178.6280  142.2320 C   0  0  0  0  0  2  0  0  0  0  0  0
  179.9840  178.7250  139.8700 C   0  0  0  0  0  1  0  0  0  0  0  0
  180.5910  179.5780  140.9760 C   0  0  0  0  0  2  0  0  0  0  0  0
  1  9  1  0  0  0  0
  2  7  2  0  0  0  0
  3  1  2  0  0  0  0
  3  2  1  0  0  0  0
  5  8  1  0  0  0  0
  6 10  1  0  0  0  0
  7  5  1  0  0  0  0
  7  6  1  0  0  0  0
  8  4  1  0  0  0  0
  9  5  2  0  0  0  0
 10 38  1  0  0  0  0
 10  4  2  0  0  0  0
 11 12  1  0  0  0  0
 12  2  1  0  0  0  0
 13 15  1  0  0  0  0
 15 11  2  0  0  0  0
 16 17  1  0  0  0  0
 17 12  2  0  0  0  0
 17 14  1  0  0  0  0
 18 15  1  0  0  0  0
 18 16  2  0  0  0  0
 19 18  1  0  0  0  0
 21 20  1  6  0  0  0
 21 16  1  0  0  0  0
 21 23  1  0  0  0  0
 22 24  1  0  0  0  0
 23 22  2  0  0  0  0
 25 24  1  6  0  0  0
 26 27  1  1  0  0  0
 26 25  1  0  0  0  0
 28 29  1  0  0  0  0
 29 26  1  0  0  0  0
 30 25  1  0  0  0  0
 30 33  1  0  0  0  0
 32 33  1  0  0  0  0
 33 31  1  0  0  0  0
 34 36  1  0  0  0  0
 36 35  2  0  0  0  0
 36  1  1  0  0  0  0
 37 38  1  0  0  0  0
 39 41  1  0  0  0  0
 40 42  1  0  0  0  0
 42 41  1  0  0  0  0
 42 47  2  0  0  0  0
 43 40  2  0  0  0  0
 43 44  1  0  0  0  0
 44 46  2  0  0  0  0
 45 38  1  6  0  0  0
 45 43  1  0  0  0  0
 46 47  1  0  0  0  0
 46 48  1  0  0  0  0
 49 39  2  0  0  0  0
 49 40  1  0  0  0  0
 50 45  1  0  0  0  0
 50 49  1  0  0  0  0
 52 39  1  0  0  0  0
 52 51  1  0  0  0  0
 53 57  1  6  0  0  0
 53 55  1  0  0  0  0
 53 54  1  0  0  0  0
 54 51  2  0  0  0  0
 55 52  1  0  0  0  0
 56 57  1  0  0  0  0
M  END
>  <MODEL>
5

>  <REMARK>
 VINA RESULT:      -6.5      1.621      2.258
  Name = 
  14 active torsions:
  status: ('A' for Active; 'I' for Inactive)
    1  A    between atoms: C_1  and  N_15
    2  A    between atoms: C_3  and  C_17
    3  A    between atoms: C_7  and  C_9
    4  A    between atoms: O_8  and  C_40
    5  A    between atoms: C_20  and  C_57
    6  A    between atoms: N_25  and  C_44
    7  A    between atoms: N_25  and  C_54
    8  A    between atoms: C_26  and  C_33
    9  A    between atoms: C_28  and  C_50
   10  A    between atoms: C_34  and  C_50
   11  A    between atoms: N_39  and  N_52
   12  A    between atoms: C_40  and  C_48
   13  A    between atoms: C_48  and  N_52
   14  A    between atoms: C_48  and  C_57
                            x       y       z     vdW  Elec       q    Type
                         _______ _______ _______ _____ _____    ______ ____

>  <TORSDO>
F 14

$$$$
=
 OpenBabel11042411253D

 57 63  0  0  1  0  0  0  0  0999 V2000
  187.7350  177.8890  144.7830 C   0  0  0  0  0  0  0  0  0  0  0  0
  187.6650  177.8390  142.3470 C   0  0  0  0  0  0  0  0  0  0  0  0
  188.3890  177.8160  143.5450 C   0  0  0  0  0  3  0  0  0  0  0  0
  183.5700  178.8220  142.4720 C   0  0  0  0  0  3  0  0  0  0  0  0
  185.6040  178.0210  143.6290 C   0  0  0  0  0  0  0  0  0  0  0  0
  185.4310  177.9200  141.1210 C   0  0  0  0  0  2  0  0  0  0  0  0
  186.2600  177.9380  142.3860 C   0  0  0  0  0  0  0  0  0  0  0  0
  184.1100  178.1090  143.6820 C   0  0  0  0  0  2  0  0  0  0  0  0
  186.3390  177.9910  144.8160 C   0  0  0  0  0  3  0  0  0  0  0  0
  184.1630  178.7310  141.2720 C   0  0  0  0  0  0  0  0  0  0  0  0
  187.7660  178.2630  139.9170 C   0  0  0  0  0  3  0  0  0  0  0  0
  188.4090  177.8190  141.0760 C   0  0  0  0  0  0  0  0  0  0  0  0
  187.7620  178.6260  137.5710 F   0  0  0  0  0  0  0  0  0  0  0  0
  190.3860  176.7600  142.2240 C   0  0  0  0  0  1  0  0  0  0  0  0
  188.4150  178.2150  138.6860 C   0  0  0  0  0  0  0  0  0  0  0  0
  190.3760  177.2380  139.7470 C   0  0  0  0  0  0  0  0  0  0  0  0
  189.7200  177.3010  140.9960 C   0  0  0  0  0  0  0  0  0  0  0  0
  189.7110  177.7010  138.5920 C   0  0  0  0  0  0  0  0  0  0  0  0
  190.3090  177.6460  137.3750 F   0  0  0  0  0  0  0  0  0  0  0  0
  192.8620  177.5050  140.1730 C   0  0  0  0  0  1  0  0  0  0  0  0
  191.7470  176.6070  139.6590 C   0  0  2  0  0  3  0  0  0  0  0  0
  193.2190  176.1810  137.7040 C   0  0  0  0  0  3  0  0  0  0  0  0
  192.0350  176.0370  138.3000 C   0  0  0  0  0  3  0  0  0  0  0  0
  193.4540  175.6150  136.3460 C   0  0  0  0  0  2  0  0  0  0  0  0
  194.6390  174.6620  136.3840 C   0  0  2  0  0  3  0  0  0  0  0  0
  194.2080  173.3030  136.9300 C   0  0  1  0  0  3  0  0  0  0  0  0
  194.5190  172.3070  136.0030 O   0  0  0  0  0  1  0  0  0  0  0  0
  195.4290  171.7650  137.9560 C   0  0  0  0  0  1  0  0  0  0  0  0
  194.8790  173.0370  138.1270 O   0  0  0  0  0  0  0  0  0  0  0  0
  195.6880  175.2310  137.2220 N   0  0  0  0  0  2  0  0  0  0  0  0
  197.9220  174.7900  137.4380 C   0  0  0  0  0  1  0  0  0  0  0  0
  197.1690  176.4120  136.0760 O   0  0  0  0  0  1  0  0  0  0  0  0
  196.8840  175.1550  136.4930 N   0  0  0  0  0  0  0  0  0  0  0  0
  189.7680  177.2000  146.0960 N   0  0  0  0  0  1  0  0  0  0  0  0
  188.0610  178.4260  147.0700 O   0  0  0  0  0  0  0  0  0  0  0  0
  188.5090  177.8650  146.0360 C   0  0  0  0  0  0  0  0  0  0  0  0
  184.4390  179.9220  139.0990 C   0  0  0  0  0  1  0  0  0  0  0  0
  183.5680  179.3540  140.1190 N   0  0  0  0  0  0  0  0  0  0  0  0
  180.2530  177.5260  136.8060 C   0  0  0  0  0  0  0  0  0  0  0  0
  181.0480  179.4370  137.7640 C   0  0  0  0  0  0  0  0  0  0  0  0
  179.7630  178.7920  135.7580 S   0  0  0  0  0  0  0  0  0  0  0  0
  180.4570  180.0260  136.6850 C   0  0  0  0  0  0  0  0  0  0  0  0
  181.6480  180.1200  138.7690 C   0  0  0  0  0  0  0  0  0  0  0  0
  181.6810  181.5220  138.7000 C   0  0  0  0  0  3  0  0  0  0  0  0
  182.1320  179.2060  139.8640 C   0  0  1  0  0  3  0  0  0  0  0  0
  181.0970  182.1670  137.5760 C   0  0  0  0  0  0  0  0  0  0  0  0
  180.4630  181.4160  136.5520 C   0  0  0  0  0  3  0  0  0  0  0  0
  181.1300  183.6490  137.4850 C   0  0  0  0  0  1  0  0  0  0  0  0
  180.9650  178.0950  137.8640 C   0  0  0  0  0  0  0  0  0  0  0  0
  181.7340  177.4540  139.3420 S   0  0  0  0  0  0  0  0  0  0  0  0
  179.4790  175.5520  135.4090 C   0  0  0  0  0  3  0  0  0  0  0  0
  179.9000  176.1440  136.6610 N   0  0  0  0  0  0  0  0  0  0  0  0
  179.0480  174.0310  137.1530 C   0  0  2  0  0  3  0  0  0  0  0  0
  179.0440  174.1860  135.6950 N   0  0  0  0  0  0  0  0  0  0  0  0
  179.7270  175.2390  137.7660 C   0  0  0  0  0  2  0  0  0  0  0  0
  181.1700  172.6500  137.0830 C   0  0  0  0  0  1  0  0  0  0  0  0
  179.7280  172.7280  137.5650 C   0  0  0  0  0  2  0  0  0  0  0  0
  1  9  1  0  0  0  0
  1 36  1  0  0  0  0
  2  7  2  0  0  0  0
  2  3  1  0  0  0  0
  3  1  2  0  0  0  0
  4  8  1  0  0  0  0
  5  8  1  0  0  0  0
  5  9  2  0  0  0  0
  6 10  1  0  0  0  0
  6  7  1  0  0  0  0
  7  5  1  0  0  0  0
 10  4  2  0  0  0  0
 11 12  1  0  0  0  0
 12  2  1  0  0  0  0
 13 15  1  0  0  0  0
 15 11  2  0  0  0  0
 16 17  1  0  0  0  0
 17 12  2  0  0  0  0
 17 14  1  0  0  0  0
 18 15  1  0  0  0  0
 18 16  2  0  0  0  0
 19 18  1  0  0  0  0
 21 16  1  0  0  0  0
 21 20  1  6  0  0  0
 22 23  2  0  0  0  0
 23 21  1  0  0  0  0
 24 22  1  0  0  0  0
 25 24  1  1  0  0  0
 25 26  1  0  0  0  0
 25 30  1  0  0  0  0
 26 27  1  6  0  0  0
 26 29  1  0  0  0  0
 28 29  1  0  0  0  0
 32 33  1  0  0  0  0
 33 30  1  0  0  0  0
 33 31  1  0  0  0  0
 36 34  1  0  0  0  0
 36 35  2  0  0  0  0
 37 38  1  0  0  0  0
 38 10  1  0  0  0  0
 39 49  2  0  0  0  0
 40 49  1  0  0  0  0
 40 43  1  0  0  0  0
 41 42  1  0  0  0  0
 41 39  1  0  0  0  0
 42 40  2  0  0  0  0
 43 45  1  0  0  0  0
 44 43  2  0  0  0  0
 45 38  1  6  0  0  0
 46 44  1  0  0  0  0
 47 42  1  0  0  0  0
 47 46  2  0  0  0  0
 48 46  1  0  0  0  0
 49 50  1  0  0  0  0
 50 45  1  0  0  0  0
 51 54  2  0  0  0  0
 51 52  1  0  0  0  0
 52 39  1  0  0  0  0
 52 55  1  0  0  0  0
 53 57  1  6  0  0  0
 53 55  1  0  0  0  0
 54 53  1  0  0  0  0
 56 57  1  0  0  0  0
M  END
>  <MODEL>
6

>  <REMARK>
 VINA RESULT:      -6.2      3.808      9.623
  Name = 
  14 active torsions:
  status: ('A' for Active; 'I' for Inactive)
    1  A    between atoms: C_1  and  N_15
    2  A    between atoms: C_3  and  C_17
    3  A    between atoms: C_7  and  C_9
    4  A    between atoms: O_8  and  C_40
    5  A    between atoms: C_20  and  C_57
    6  A    between atoms: N_25  and  C_44
    7  A    between atoms: N_25  and  C_54
    8  A    between atoms: C_26  and  C_33
    9  A    between atoms: C_28  and  C_50
   10  A    between atoms: C_34  and  C_50
   11  A    between atoms: N_39  and  N_52
   12  A    between atoms: C_40  and  C_48
   13  A    between atoms: C_48  and  N_52
   14  A    between atoms: C_48  and  C_57
                            x       y       z     vdW  Elec       q    Type
                         _______ _______ _______ _____ _____    ______ ____

>  <TORSDO>
F 14

$$$$
=
 OpenBabel11042411253D

 57 63  0  0  1  0  0  0  0  0999 V2000
  189.0460  177.5430  145.8100 C   0  0  0  0  0  0  0  0  0  0  0  0
  187.8310  178.0420  143.7570 C   0  0  0  0  0  0  0  0  0  0  0  0
  187.8430  177.7910  145.1340 C   0  0  0  0  0  3  0  0  0  0  0  0
  191.3500  177.3610  141.5420 C   0  0  0  0  0  3  0  0  0  0  0  0
  190.2510  177.7830  143.7180 C   0  0  0  0  0  0  0  0  0  0  0  0
  189.0870  178.3540  141.5610 C   0  0  0  0  0  2  0  0  0  0  0  0
  189.0450  178.0430  143.0410 C   0  0  0  0  0  0  0  0  0  0  0  0
  191.5470  177.7990  142.9680 C   0  0  0  0  0  2  0  0  0  0  0  0
  190.2480  177.5410  145.0930 C   0  0  0  0  0  3  0  0  0  0  0  0
  190.2190  177.6260  140.8700 C   0  0  0  0  0  0  0  0  0  0  0  0
  186.4900  178.2310  141.6940 C   0  0  0  0  0  3  0  0  0  0  0  0
  186.5330  178.2400  143.0900 C   0  0  0  0  0  0  0  0  0  0  0  0
  185.2800  178.4770  139.6650 F   0  0  0  0  0  0  0  0  0  0  0  0
  185.4120  178.5800  145.3210 C   0  0  0  0  0  1  0  0  0  0  0  0
  185.2920  178.4630  141.0210 C   0  0  0  0  0  0  0  0  0  0  0  0
  184.1430  178.7510  143.1480 C   0  0  0  0  0  0  0  0  0  0  0  0
  185.3570  178.5020  143.8270 C   0  0  0  0  0  0  0  0  0  0  0  0
  184.1230  178.7270  141.7370 C   0  0  0  0  0  0  0  0  0  0  0  0
  182.9760  178.9720  141.0540 F   0  0  0  0  0  0  0  0  0  0  0  0
  183.1230  179.0700  145.4480 C   0  0  0  0  0  1  0  0  0  0  0  0
  182.9090  179.1110  143.9420 C   0  0  2  0  0  3  0  0  0  0  0  0
  180.5710  178.9480  143.1180 C   0  0  0  0  0  3  0  0  0  0  0  0
  181.6950  178.3430  143.5040 C   0  0  0  0  0  3  0  0  0  0  0  0
  179.3840  178.1450  142.7090 C   0  0  0  0  0  2  0  0  0  0  0  0
  179.1370  178.3170  141.2180 C   0  0  2  0  0  3  0  0  0  0  0  0
  179.5320  177.0490  140.4660 C   0  0  1  0  0  3  0  0  0  0  0  0
  180.8970  177.0810  140.1790 O   0  0  0  0  0  1  0  0  0  0  0  0
  179.3970  174.8380  140.3870 C   0  0  0  0  0  1  0  0  0  0  0  0
  179.2570  175.9250  141.2520 O   0  0  0  0  0  0  0  0  0  0  0  0
  179.9080  179.4540  140.7300 N   0  0  0  0  0  2  0  0  0  0  0  0
  179.3250  180.1400  138.6270 C   0  0  0  0  0  1  0  0  0  0  0  0
  179.3380  181.5620  140.3680 O   0  0  0  0  0  1  0  0  0  0  0  0
  179.0180  180.2880  140.0370 N   0  0  0  0  0  0  0  0  0  0  0  0
  187.8740  177.5180  148.0370 N   0  0  0  0  0  1  0  0  0  0  0  0
  190.0810  176.8460  147.8280 O   0  0  0  0  0  0  0  0  0  0  0  0
  189.0440  177.2790  147.2590 C   0  0  0  0  0  0  0  0  0  0  0  0
  189.5800  178.2560  138.5430 C   0  0  0  0  0  1  0  0  0  0  0  0
  190.1010  177.2710  139.4800 N   0  0  0  0  0  0  0  0  0  0  0  0
  193.2920  175.4850  136.0240 C   0  0  0  0  0  0  0  0  0  0  0  0
  191.1170  175.4800  136.7110 C   0  0  0  0  0  0  0  0  0  0  0  0
  192.3920  174.9480  134.6660 S   0  0  0  0  0  0  0  0  0  0  0  0
  190.8910  175.0380  135.4400 C   0  0  0  0  0  0  0  0  0  0  0  0
  190.1520  175.6090  137.6540 C   0  0  0  0  0  0  0  0  0  0  0  0
  188.8300  175.2820  137.3100 C   0  0  0  0  0  3  0  0  0  0  0  0
  190.7160  176.0350  138.9840 C   0  0  1  0  0  3  0  0  0  0  0  0
  188.5550  174.8430  135.9870 C   0  0  0  0  0  0  0  0  0  0  0  0
  189.5970  174.7050  135.0320 C   0  0  0  0  0  3  0  0  0  0  0  0
  187.1610  174.5010  135.6050 C   0  0  0  0  0  1  0  0  0  0  0  0
  192.3930  175.7360  137.0630 C   0  0  0  0  0  0  0  0  0  0  0  0
  192.5590  176.2590  138.7620 S   0  0  0  0  0  0  0  0  0  0  0  0
  195.5120  176.5040  135.3350 C   0  0  0  0  0  3  0  0  0  0  0  0
  194.7210  175.5610  136.0950 N   0  0  0  0  0  0  0  0  0  0  0  0
  196.9490  174.9030  136.2920 C   0  0  2  0  0  3  0  0  0  0  0  0
  196.9190  176.1610  135.5410 N   0  0  0  0  0  0  0  0  0  0  0  0
  195.5440  174.5880  136.7660 C   0  0  0  0  0  2  0  0  0  0  0  0
  199.0230  173.9160  137.3590 C   0  0  0  0  0  1  0  0  0  0  0  0
  197.9360  174.9780  137.4530 C   0  0  0  0  0  2  0  0  0  0  0  0
  1 36  1  0  0  0  0
  2  3  2  0  0  0  0
  3  1  1  0  0  0  0
  4  8  1  0  0  0  0
  5  9  1  0  0  0  0
  6  7  1  0  0  0  0
  7  5  2  0  0  0  0
  7  2  1  0  0  0  0
  8  5  1  0  0  0  0
  9  1  2  0  0  0  0
 10  4  2  0  0  0  0
 10  6  1  0  0  0  0
 11 12  1  0  0  0  0
 12  2  1  0  0  0  0
 12 17  2  0  0  0  0
 13 15  1  0  0  0  0
 15 11  2  0  0  0  0
 15 18  1  0  0  0  0
 16 17  1  0  0  0  0
 16 21  1  0  0  0  0
 17 14  1  0  0  0  0
 18 16  2  0  0  0  0
 19 18  1  0  0  0  0
 21 20  1  1  0  0  0
 22 23  2  0  0  0  0
 23 21  1  0  0  0  0
 24 22  1  0  0  0  0
 25 24  1  1  0  0  0
 26 27  1  1  0  0  0
 26 25  1  0  0  0  0
 26 29  1  0  0  0  0
 28 29  1  0  0  0  0
 30 25  1  0  0  0  0
 31 33  1  0  0  0  0
 33 32  1  0  0  0  0
 33 30  1  0  0  0  0
 36 35  2  0  0  0  0
 36 34  1  0  0  0  0
 37 38  1  0  0  0  0
 38 10  1  0  0  0  0
 39 52  1  0  0  0  0
 39 49  2  0  0  0  0
 40 49  1  0  0  0  0
 40 43  1  0  0  0  0
 41 42  1  0  0  0  0
 41 39  1  0  0  0  0
 42 40  2  0  0  0  0
 43 45  1  0  0  0  0
 44 43  2  0  0  0  0
 45 38  1  6  0  0  0
 46 44  1  0  0  0  0
 47 42  1  0  0  0  0
 47 46  2  0  0  0  0
 48 46  1  0  0  0  0
 49 50  1  0  0  0  0
 50 45  1  0  0  0  0
 51 54  2  0  0  0  0
 51 52  1  0  0  0  0
 52 55  1  0  0  0  0
 53 55  1  0  0  0  0
 53 57  1  1  0  0  0
 54 53  1  0  0  0  0
 56 57  1  0  0  0  0
M  END
>  <MODEL>
7

>  <REMARK>
 VINA RESULT:      -6.1      3.587      9.711
  Name = 
  14 active torsions:
  status: ('A' for Active; 'I' for Inactive)
    1  A    between atoms: C_1  and  N_15
    2  A    between atoms: C_3  and  C_17
    3  A    between atoms: C_7  and  C_9
    4  A    between atoms: O_8  and  C_40
    5  A    between atoms: C_20  and  C_57
    6  A    between atoms: N_25  and  C_44
    7  A    between atoms: N_25  and  C_54
    8  A    between atoms: C_26  and  C_33
    9  A    between atoms: C_28  and  C_50
   10  A    between atoms: C_34  and  C_50
   11  A    between atoms: N_39  and  N_52
   12  A    between atoms: C_40  and  C_48
   13  A    between atoms: C_48  and  N_52
   14  A    between atoms: C_48  and  C_57
                            x       y       z     vdW  Elec       q    Type
                         _______ _______ _______ _____ _____    ______ ____

>  <TORSDO>
F 14

$$$$
=
 OpenBabel11042411253D

 57 63  0  0  1  0  0  0  0  0999 V2000
  185.6480  178.6050  145.3190 C   0  0  0  0  0  0  0  0  0  0  0  0
  185.9970  178.2710  142.9300 C   0  0  0  0  0  0  0  0  0  0  0  0
  186.5060  178.4200  144.2260 C   0  0  0  0  0  3  0  0  0  0  0  0
  181.9180  179.0750  142.2500 C   0  0  0  0  0  3  0  0  0  0  0  0
  183.7440  178.5060  143.8190 C   0  0  0  0  0  0  0  0  0  0  0  0
  184.0050  178.1080  141.3490 C   0  0  0  0  0  2  0  0  0  0  0  0
  184.6040  178.3100  142.7230 C   0  0  0  0  0  0  0  0  0  0  0  0
  182.2610  178.5320  143.6100 C   0  0  0  0  0  2  0  0  0  0  0  0
  184.2650  178.6470  145.1060 C   0  0  0  0  0  3  0  0  0  0  0  0
  182.7100  178.8720  141.1860 C   0  0  0  0  0  0  0  0  0  0  0  0
  186.5210  178.4750  140.5270 C   0  0  0  0  0  3  0  0  0  0  0  0
  186.9480  178.1360  141.8130 C   0  0  0  0  0  0  0  0  0  0  0  0
  186.9250  178.6280  138.1920 F   0  0  0  0  0  0  0  0  0  0  0  0
  188.6820  177.1850  143.3740 C   0  0  0  0  0  1  0  0  0  0  0  0
  187.3710  178.3170  139.4350 C   0  0  0  0  0  0  0  0  0  0  0  0
  189.1060  177.4400  140.9000 C   0  0  0  0  0  0  0  0  0  0  0  0
  188.2460  177.6140  142.0080 C   0  0  0  0  0  0  0  0  0  0  0  0
  188.6550  177.7980  139.6120 C   0  0  0  0  0  0  0  0  0  0  0  0
  189.4520  177.6340  138.5260 F   0  0  0  0  0  0  0  0  0  0  0  0
  190.9970  176.9640  142.5210 C   0  0  0  0  0  1  0  0  0  0  0  0
  190.4610  176.8030  141.1060 C   0  0  2  0  0  3  0  0  0  0  0  0
  192.0750  176.3150  139.2820 C   0  0  0  0  0  3  0  0  0  0  0  0
  191.4550  177.2070  140.0560 C   0  0  0  0  0  3  0  0  0  0  0  0
  193.0680  176.7600  138.2650 C   0  0  0  0  0  2  0  0  0  0  0  0
  193.5350  175.5670  137.4460 C   0  0  2  0  0  3  0  0  0  0  0  0
  192.4010  175.0570  136.5600 C   0  0  1  0  0  3  0  0  0  0  0  0
  192.1170  176.0020  135.5740 O   0  0  0  0  0  1  0  0  0  0  0  0
  191.6680  173.0230  136.0730 C   0  0  0  0  0  1  0  0  0  0  0  0
  192.7800  173.8580  135.9460 O   0  0  0  0  0  0  0  0  0  0  0  0
  193.9850  174.5110  138.3460 N   0  0  0  0  0  2  0  0  0  0  0  0
  195.7600  173.0720  138.2540 C   0  0  0  0  0  1  0  0  0  0  0  0
  195.8550  174.9840  139.4310 O   0  0  0  0  0  1  0  0  0  0  0  0
  195.3850  174.4730  138.2680 N   0  0  0  0  0  0  0  0  0  0  0  0
  187.2670  177.9350  147.1250 N   0  0  0  0  0  1  0  0  0  0  0  0
  185.7180  179.6250  147.4610 O   0  0  0  0  0  0  0  0  0  0  0  0
  186.1960  178.7620  146.6770 C   0  0  0  0  0  0  0  0  0  0  0  0
  183.2390  180.1260  139.0950 C   0  0  0  0  0  1  0  0  0  0  0  0
  182.3060  179.3300  139.8820 N   0  0  0  0  0  0  0  0  0  0  0  0
  180.6330  176.1180  136.3890 C   0  0  0  0  0  0  0  0  0  0  0  0
  180.7650  178.3220  136.9640 C   0  0  0  0  0  0  0  0  0  0  0  0
  180.3560  176.9810  134.9330 S   0  0  0  0  0  0  0  0  0  0  0  0
  180.5030  178.5110  135.6390 C   0  0  0  0  0  0  0  0  0  0  0  0
  180.8780  179.3250  137.8680 C   0  0  0  0  0  0  0  0  0  0  0  0
  180.7290  180.6490  137.4220 C   0  0  0  0  0  3  0  0  0  0  0  0
  181.0820  178.8060  139.2670 C   0  0  1  0  0  3  0  0  0  0  0  0
  180.4810  180.8840  136.0430 C   0  0  0  0  0  0  0  0  0  0  0  0
  180.3530  179.8030  135.1300 C   0  0  0  0  0  3  0  0  0  0  0  0
  180.3290  182.2780  135.5540 C   0  0  0  0  0  1  0  0  0  0  0  0
  180.8470  177.0510  137.4070 C   0  0  0  0  0  0  0  0  0  0  0  0
  181.1450  176.9400  139.1640 S   0  0  0  0  0  0  0  0  0  0  0  0
  179.3090  173.9670  136.6340 C   0  0  0  0  0  3  0  0  0  0  0  0
  180.5550  174.6960  136.5390 N   0  0  0  0  0  0  0  0  0  0  0  0
  181.0770  172.5250  137.2120 C   0  0  2  0  0  3  0  0  0  0  0  0
  179.6360  172.5770  136.9510 N   0  0  0  0  0  0  0  0  0  0  0  0
  181.6900  173.8530  136.8160 C   0  0  0  0  0  2  0  0  0  0  0  0
  183.1960  171.1880  136.8440 C   0  0  0  0  0  1  0  0  0  0  0  0
  181.7280  171.3580  136.4760 C   0  0  0  0  0  2  0  0  0  0  0  0
  1 36  1  0  0  0  0
  2  3  1  0  0  0  0
  3  1  2  0  0  0  0
  4  8  1  0  0  0  0
  5  9  2  0  0  0  0
  6  7  1  0  0  0  0
  7  2  2  0  0  0  0
  7  5  1  0  0  0  0
  8  5  1  0  0  0  0
  9  1  1  0  0  0  0
 10  6  1  0  0  0  0
 10  4  2  0  0  0  0
 11 12  1  0  0  0  0
 12 17  2  0  0  0  0
 12  2  1  0  0  0  0
 13 15  1  0  0  0  0
 15 18  1  0  0  0  0
 15 11  2  0  0  0  0
 16 21  1  0  0  0  0
 16 17  1  0  0  0  0
 17 14  1  0  0  0  0
 18 16  2  0  0  0  0
 19 18  1  0  0  0  0
 21 20  1  1  0  0  0
 22 23  2  0  0  0  0
 23 21  1  0  0  0  0
 24 22  1  0  0  0  0
 25 24  1  1  0  0  0
 25 30  1  0  0  0  0
 26 27  1  6  0  0  0
 26 25  1  0  0  0  0
 29 28  1  0  0  0  0
 29 26  1  0  0  0  0
 31 33  1  0  0  0  0
 33 30  1  0  0  0  0
 33 32  1  0  0  0  0
 36 34  1  0  0  0  0
 36 35  2  0  0  0  0
 37 38  1  0  0  0  0
 38 10  1  0  0  0  0
 39 52  1  0  0  0  0
 39 49  2  0  0  0  0
 40 49  1  0  0  0  0
 40 43  1  0  0  0  0
 41 42  1  0  0  0  0
 41 39  1  0  0  0  0
 42 40  2  0  0  0  0
 43 45  1  0  0  0  0
 44 43  2  0  0  0  0
 45 38  1  6  0  0  0
 46 44  1  0  0  0  0
 47 42  1  0  0  0  0
 47 46  2  0  0  0  0
 48 46  1  0  0  0  0
 49 50  1  0  0  0  0
 50 45  1  0  0  0  0
 51 54  2  0  0  0  0
 52 51  1  0  0  0  0
 52 55  1  0  0  0  0
 53 57  1  6  0  0  0
 54 53  1  0  0  0  0
 55 53  1  0  0  0  0
 57 56  1  0  0  0  0
M  END
>  <MODEL>
8

>  <REMARK>
 VINA RESULT:      -5.9      3.729      9.900
  Name = 
  14 active torsions:
  status: ('A' for Active; 'I' for Inactive)
    1  A    between atoms: C_1  and  N_15
    2  A    between atoms: C_3  and  C_17
    3  A    between atoms: C_7  and  C_9
    4  A    between atoms: O_8  and  C_40
    5  A    between atoms: C_20  and  C_57
    6  A    between atoms: N_25  and  C_44
    7  A    between atoms: N_25  and  C_54
    8  A    between atoms: C_26  and  C_33
    9  A    between atoms: C_28  and  C_50
   10  A    between atoms: C_34  and  C_50
   11  A    between atoms: N_39  and  N_52
   12  A    between atoms: C_40  and  C_48
   13  A    between atoms: C_48  and  N_52
   14  A    between atoms: C_48  and  C_57
                            x       y       z     vdW  Elec       q    Type
                         _______ _______ _______ _____ _____    ______ ____

>  <TORSDO>
F 14

$$$$
=
 OpenBabel11042411253D

 57 63  0  0  1  0  0  0  0  0999 V2000
  185.7360  178.6880  145.6760 C   0  0  0  0  0  0  0  0  0  0  0  0
  186.1380  178.3600  143.2940 C   0  0  0  0  0  0  0  0  0  0  0  0
  186.6180  178.5320  144.5980 C   0  0  0  0  0  3  0  0  0  0  0  0
  182.0440  179.0080  142.5420 C   0  0  0  0  0  3  0  0  0  0  0  0
  183.8620  178.5130  144.1430 C   0  0  0  0  0  0  0  0  0  0  0  0
  184.1810  178.1180  141.6790 C   0  0  0  0  0  2  0  0  0  0  0  0
  184.7480  178.3460  143.0630 C   0  0  0  0  0  0  0  0  0  0  0  0
  182.3830  178.4820  143.9090 C   0  0  0  0  0  2  0  0  0  0  0  0
  184.3560  178.6770  145.4390 C   0  0  0  0  0  3  0  0  0  0  0  0
  182.8610  178.8320  141.4920 C   0  0  0  0  0  0  0  0  0  0  0  0
  186.6650  178.4540  140.8850 C   0  0  0  0  0  3  0  0  0  0  0  0
  187.1120  178.2580  142.1940 C   0  0  0  0  0  0  0  0  0  0  0  0
  187.0790  178.4870  138.5470 F   0  0  0  0  0  0  0  0  0  0  0  0
  188.9250  177.6260  143.8260 C   0  0  0  0  0  1  0  0  0  0  0  0
  187.5420  178.3190  139.8110 C   0  0  0  0  0  0  0  0  0  0  0  0
  189.3470  177.7540  141.3420 C   0  0  0  0  0  0  0  0  0  0  0  0
  188.4590  177.9050  142.4310 C   0  0  0  0  0  0  0  0  0  0  0  0
  188.8750  177.9660  140.0300 C   0  0  0  0  0  0  0  0  0  0  0  0
  189.7000  177.8190  138.9620 F   0  0  0  0  0  0  0  0  0  0  0  0
  191.3700  177.8790  142.8670 C   0  0  0  0  0  1  0  0  0  0  0  0
  190.7640  177.2950  141.6000 C   0  0  2  0  0  3  0  0  0  0  0  0
  192.1300  176.4150  139.7210 C   0  0  0  0  0  3  0  0  0  0  0  0
  191.6510  177.4580  140.3990 C   0  0  0  0  0  3  0  0  0  0  0  0
  193.0230  176.6240  138.5460 C   0  0  0  0  0  2  0  0  0  0  0  0
  192.6420  175.6600  137.4340 C   0  0  2  0  0  3  0  0  0  0  0  0
  193.7520  175.5950  136.3870 C   0  0  1  0  0  3  0  0  0  0  0  0
  194.5530  176.7330  136.4830 O   0  0  0  0  0  1  0  0  0  0  0  0
  195.8540  174.8930  136.3890 C   0  0  0  0  0  1  0  0  0  0  0  0
  194.5430  174.4620  136.6030 O   0  0  0  0  0  0  0  0  0  0  0  0
  191.3950  176.1000  136.8200 N   0  0  0  0  0  2  0  0  0  0  0  0
  189.2490  175.3500  136.5700 C   0  0  0  0  0  1  0  0  0  0  0  0
  190.8200  174.1060  137.5880 O   0  0  0  0  0  1  0  0  0  0  0  0
  190.6430  174.9490  136.5440 N   0  0  0  0  0  0  0  0  0  0  0  0
  187.1040  177.8870  147.6290 N   0  0  0  0  0  1  0  0  0  0  0  0
  185.9450  179.8910  147.7100 O   0  0  0  0  0  0  0  0  0  0  0  0
  186.2540  178.8680  147.0420 C   0  0  0  0  0  0  0  0  0  0  0  0
  183.4860  179.7210  139.2470 C   0  0  0  0  0  1  0  0  0  0  0  0
  182.4620  179.2710  140.1800 N   0  0  0  0  0  0  0  0  0  0  0  0
  179.7830  177.6000  136.2630 C   0  0  0  0  0  0  0  0  0  0  0  0
  180.2660  179.4380  137.5240 C   0  0  0  0  0  0  0  0  0  0  0  0
  179.3140  178.9410  135.3020 S   0  0  0  0  0  0  0  0  0  0  0  0
  179.7640  180.1050  136.4440 C   0  0  0  0  0  0  0  0  0  0  0  0
  180.6660  180.0400  138.6700 C   0  0  0  0  0  0  0  0  0  0  0  0
  180.5750  181.4390  138.7600 C   0  0  0  0  0  3  0  0  0  0  0  0
  181.0900  179.0420  139.7150 C   0  0  1  0  0  3  0  0  0  0  0  0
  180.0810  182.1670  137.6440 C   0  0  0  0  0  0  0  0  0  0  0  0
  179.6560  181.4970  136.4660 C   0  0  0  0  0  3  0  0  0  0  0  0
  179.9860  183.6470  137.7200 C   0  0  0  0  0  1  0  0  0  0  0  0
  180.2970  178.0910  137.4650 C   0  0  0  0  0  0  0  0  0  0  0  0
  180.9290  177.3400  138.9560 S   0  0  0  0  0  0  0  0  0  0  0  0
  179.2060  175.7730  134.5990 C   0  0  0  0  0  3  0  0  0  0  0  0
  179.5830  176.2230  135.9210 N   0  0  0  0  0  0  0  0  0  0  0  0
  178.9820  173.9780  136.1050 C   0  0  2  0  0  3  0  0  0  0  0  0
  178.9310  174.3390  134.6860 N   0  0  0  0  0  0  0  0  0  0  0  0
  179.5350  175.1550  136.8850 C   0  0  0  0  0  2  0  0  0  0  0  0
  180.9020  172.9110  137.3670 C   0  0  0  0  0  1  0  0  0  0  0  0
  179.8110  172.7150  136.3220 C   0  0  0  0  0  2  0  0  0  0  0  0
  1 36  1  0  0  0  0
  2  3  1  0  0  0  0
  3  1  2  0  0  0  0
  4  8  1  0  0  0  0
  5  9  2  0  0  0  0
  6  7  1  0  0  0  0
  7  2  2  0  0  0  0
  7  5  1  0  0  0  0
  8  5  1  0  0  0  0
  9  1  1  0  0  0  0
 10  6  1  0  0  0  0
 10  4  2  0  0  0  0
 11 12  1  0  0  0  0
 12 17  2  0  0  0  0
 12  2  1  0  0  0  0
 13 15  1  0  0  0  0
 15 18  1  0  0  0  0
 15 11  2  0  0  0  0
 16 21  1  0  0  0  0
 16 17  1  0  0  0  0
 17 14  1  0  0  0  0
 18 16  2  0  0  0  0
 19 18  1  0  0  0  0
 21 20  1  1  0  0  0
 22 23  2  0  0  0  0
 23 21  1  0  0  0  0
 24 22  1  0  0  0  0
 25 24  1  1  0  0  0
 26 27  1  1  0  0  0
 26 29  1  0  0  0  0
 26 25  1  0  0  0  0
 28 29  1  0  0  0  0
 30 25  1  0  0  0  0
 33 31  1  0  0  0  0
 33 30  1  0  0  0  0
 33 32  1  0  0  0  0
 36 34  1  0  0  0  0
 36 35  2  0  0  0  0
 37 38  1  0  0  0  0
 38 10  1  0  0  0  0
 39 49  2  0  0  0  0
 40 43  1  0  0  0  0
 41 39  1  0  0  0  0
 41 42  1  0  0  0  0
 42 47  1  0  0  0  0
 42 40  2  0  0  0  0
 43 44  2  0  0  0  0
 43 45  1  0  0  0  0
 45 38  1  6  0  0  0
 46 48  1  0  0  0  0
 46 44  1  0  0  0  0
 47 46  2  0  0  0  0
 49 40  1  0  0  0  0
 49 50  1  0  0  0  0
 50 45  1  0  0  0  0
 51 54  2  0  0  0  0
 51 52  1  0  0  0  0
 52 39  1  0  0  0  0
 52 55  1  0  0  0  0
 53 57  1  6  0  0  0
 53 55  1  0  0  0  0
 54 53  1  0  0  0  0
 57 56  1  0  0  0  0
M  END
>  <MODEL>
9

>  <REMARK>
 VINA RESULT:      -5.8      3.411      9.705
  Name = 
  14 active torsions:
  status: ('A' for Active; 'I' for Inactive)
    1  A    between atoms: C_1  and  N_15
    2  A    between atoms: C_3  and  C_17
    3  A    between atoms: C_7  and  C_9
    4  A    between atoms: O_8  and  C_40
    5  A    between atoms: C_20  and  C_57
    6  A    between atoms: N_25  and  C_44
    7  A    between atoms: N_25  and  C_54
    8  A    between atoms: C_26  and  C_33
    9  A    between atoms: C_28  and  C_50
   10  A    between atoms: C_34  and  C_50
   11  A    between atoms: N_39  and  N_52
   12  A    between atoms: C_40  and  C_48
   13  A    between atoms: C_48  and  N_52
   14  A    between atoms: C_48  and  C_57
                            x       y       z     vdW  Elec       q    Type
                         _______ _______ _______ _____ _____    ______ ____

>  <TORSDO>
F 14

$$$$
