=
 OpenBabel11042412073D

 37 38  0  0  1  0  0  0  0  0999 V2000
  181.0040  178.7700  140.1720 O   0  0  0  0  0  0  0  0  0  0  0  0
  181.6840  178.6960  139.0100 O   0  0  0  0  0  0  0  0  0  0  0  0
  182.9290  178.3260  140.9080 C   0  0  0  0  0  0  0  0  0  0  0  0
  183.0120  178.4350  139.4270 C   0  0  2  0  0  3  0  0  0  0  0  0
  181.7380  178.5380  141.3050 N   0  0  0  0  0  0  0  0  0  0  0  0
  183.9040  179.5690  139.0160 C   0  0  0  0  0  0  0  0  0  0  0  0
  185.2280  179.3240  138.5380 N   0  0  0  0  0  2  0  0  0  0  0  0
  183.4850  180.7550  139.0850 O   0  0  0  0  0  0  0  0  0  0  0  0
  185.7640  177.9820  138.3650 C   0  0  0  0  0  2  0  0  0  0  0  0
  187.2980  178.9070  136.7930 O   0  0  0  0  0  0  0  0  0  0  0  0
  188.1020  177.0900  138.0400 N   0  0  0  0  0  2  0  0  0  0  0  0
  189.4070  177.0270  137.4560 C   0  0  0  0  0  0  0  0  0  0  0  0
  189.7790  177.8830  136.6080 O   0  0  0  0  0  0  0  0  0  0  0  0
  187.0920  178.0450  137.6920 C   0  0  0  0  0  0  0  0  0  0  0  0
  190.3360  175.9300  137.8490 C   0  0  0  0  0  2  0  0  0  0  0  0
  191.7290  176.4800  138.1090 C   0  0  0  0  0  2  0  0  0  0  0  0
  193.4010  175.2000  136.7380 C   0  0  0  0  0  0  0  0  0  0  0  0
  194.2540  174.2780  136.6540 O   0  0  0  0  0  1  0  0  0  0  0  0
  193.1280  175.9890  135.6260 O   0  0  0  0  0  0  0  0  0  0  0  0
  192.7180  175.4220  137.9710 N   0  0  0  0  0  2  0  0  0  0  0  0
  184.0580  178.0300  141.8400 C   0  0  0  0  0  2  0  0  0  0  0  0
  185.2580  179.5790  143.3540 C   0  0  0  0  0  2  0  0  0  0  0  0
  183.9420  178.8730  143.0950 C   0  0  2  0  0  3  0  0  0  0  0  0
  184.9030  178.3300  144.1320 C   0  0  2  0  0  3  0  0  0  0  0  0
  184.4280  178.7280  145.5160 C   0  0  0  0  0  2  0  0  0  0  0  0
  185.6270  178.9950  146.4050 C   0  0  0  0  0  2  0  0  0  0  0  0
  186.5880  177.8180  146.3720 C   0  0  0  0  0  2  0  0  0  0  0  0
  187.8260  177.9540  147.7000 S   0  0  0  0  0  0  0  0  0  0  0  0
  189.2160  177.5680  146.5880 C   0  0  1  0  0  3  0  0  0  0  0  0
  190.2120  176.6580  147.2950 C   0  0  0  0  0  2  0  0  0  0  0  0
  192.3600  175.7640  147.1810 C   0  0  0  0  0  1  0  0  0  0  0  0
  191.5570  176.9110  146.8030 N   0  0  0  0  0  2  0  0  0  0  0  0
  188.7240  176.9920  145.2550 C   0  0  0  0  0  2  0  0  0  0  0  0
  189.2000  177.7820  144.0410 C   0  0  0  0  0  2  0  0  0  0  0  0
  188.5530  177.2460  142.7730 C   0  0  0  0  0  2  0  0  0  0  0  0
  189.5000  177.3920  141.5920 C   0  0  0  0  0  2  0  0  0  0  0  0
  190.1570  176.1810  141.3530 O   0  0  0  0  0  1  0  0  0  0  0  0
  1  5  1  0  0  0  0
  2  4  1  0  0  0  0
  2  1  1  0  0  0  0
  3  5  2  0  0  0  0
  3 21  1  0  0  0  0
  4  6  1  1  0  0  0
  4  3  1  0  0  0  0
  6  8  2  0  0  0  0
  7  6  1  0  0  0  0
  9  7  1  0  0  0  0
 10 14  2  0  0  0  0
 12 15  1  0  0  0  0
 12 11  1  0  0  0  0
 13 12  2  0  0  0  0
 14 11  1  0  0  0  0
 14  9  1  0  0  0  0
 15 16  1  0  0  0  0
 17 20  1  0  0  0  0
 18 17  1  0  0  0  0
 19 17  2  0  0  0  0
 20 16  1  0  0  0  0
 22 24  1  0  0  0  0
 23 21  1  6  0  0  0
 23 22  1  0  0  0  0
 23 24  1  0  0  0  0
 24 25  1  1  0  0  0
 25 26  1  0  0  0  0
 27 26  1  0  0  0  0
 27 28  1  0  0  0  0
 29 33  1  6  0  0  0
 29 30  1  0  0  0  0
 29 28  1  0  0  0  0
 32 31  1  0  0  0  0
 32 30  1  0  0  0  0
 34 33  1  0  0  0  0
 35 34  1  0  0  0  0
 36 35  1  0  0  0  0
 37 36  1  0  0  0  0
M  END
>  <MODEL>
1

>  <REMARK>
 VINA RESULT:      -6.6      0.000      0.000
  Name = 
  19 active torsions:
  status: ('A' for Active; 'I' for Inactive)
    1  A    between atoms: C_2  and  C_29
    2  A    between atoms: C_2  and  C_37
    3  A    between atoms: C_3  and  C_6
    4  A    between atoms: C_3  and  C_29
    5  A    between atoms: C_4  and  C_16
    6  A    between atoms: C_4  and  S_21
    7  A    between atoms: C_7  and  C_27
    8  A    between atoms: C_7  and  C_32
    9  A    between atoms: C_10  and  N_22
   10  A    between atoms: C_10  and  C_35
   11  A    between atoms: C_15  and  C_25
   12  A    between atoms: C_15  and  C_26
   13  A    between atoms: C_16  and  C_20
   14  A    between atoms: C_17  and  C_34
   15  A    between atoms: C_18  and  N_24
   16  A    between atoms: C_18  and  C_37
   17  A    between atoms: C_20  and  C_33
   18  A    between atoms: S_21  and  C_37
   19  A    between atoms: N_30  and  C_32
                            x       y       z     vdW  Elec       q    Type
                         _______ _______ _______ _____ _____    ______ ____

>  <TORSDO>
F 19

$$$$
=
 OpenBabel11042412073D

 37 38  0  0  1  0  0  0  0  0999 V2000
  191.7570  177.4260  145.8070 O   0  0  0  0  0  0  0  0  0  0  0  0
  191.5360  177.6930  144.5040 O   0  0  0  0  0  0  0  0  0  0  0  0
  189.6610  177.2080  145.7450 C   0  0  0  0  0  0  0  0  0  0  0  0
  190.1360  177.5270  144.3710 C   0  0  2  0  0  3  0  0  0  0  0  0
  190.6420  177.1490  146.5530 N   0  0  0  0  0  0  0  0  0  0  0  0
  189.8470  176.4010  143.4220 C   0  0  0  0  0  0  0  0  0  0  0  0
  188.7480  176.4750  142.5120 N   0  0  0  0  0  2  0  0  0  0  0  0
  190.5810  175.3780  143.4190 O   0  0  0  0  0  0  0  0  0  0  0  0
  187.8930  177.6470  142.4060 C   0  0  0  0  0  2  0  0  0  0  0  0
  187.0400  179.0110  140.6470 O   0  0  0  0  0  0  0  0  0  0  0  0
  188.8570  177.6440  140.0750 N   0  0  0  0  0  2  0  0  0  0  0  0
  188.9580  178.0330  138.7010 C   0  0  0  0  0  0  0  0  0  0  0  0
  188.2170  178.9390  138.2300 O   0  0  0  0  0  0  0  0  0  0  0  0
  187.9010  178.1610  141.0070 C   0  0  0  0  0  0  0  0  0  0  0  0
  189.9450  177.3560  137.8140 C   0  0  0  0  0  2  0  0  0  0  0  0
  190.7230  176.3040  138.5890 C   0  0  0  0  0  2  0  0  0  0  0  0
  192.7500  177.1880  139.7800 C   0  0  0  0  0  0  0  0  0  0  0  0
  193.9770  177.4680  139.7680 O   0  0  0  0  0  0  0  0  0  0  0  0
  192.0030  177.4170  140.9300 O   0  0  0  0  0  1  0  0  0  0  0  0
  192.1360  176.6450  138.6130 N   0  0  0  0  0  2  0  0  0  0  0  0
  188.2470  176.9640  146.1590 C   0  0  0  0  0  2  0  0  0  0  0  0
  186.3080  178.2530  147.0020 C   0  0  0  0  0  2  0  0  0  0  0  0
  187.4170  178.2190  145.9690 C   0  0  2  0  0  3  0  0  0  0  0  0
  186.0090  177.8120  145.5850 C   0  0  2  0  0  3  0  0  0  0  0  0
  185.3410  178.9530  144.8440 C   0  0  0  0  0  2  0  0  0  0  0  0
  183.8490  178.9290  145.1150 C   0  0  0  0  0  2  0  0  0  0  0  0
  183.0730  179.2660  143.8520 C   0  0  0  0  0  2  0  0  0  0  0  0
  183.8860  178.5600  142.3840 S   0  0  0  0  0  0  0  0  0  0  0  0
  182.3350  178.4850  141.4300 C   0  0  1  0  0  3  0  0  0  0  0  0
  181.2190  179.1860  142.1930 C   0  0  0  0  0  2  0  0  0  0  0  0
  179.2230  178.8740  143.3520 C   0  0  0  0  0  1  0  0  0  0  0  0
  180.0720  178.3020  142.3250 N   0  0  0  0  0  2  0  0  0  0  0  0
  182.5240  179.0330  140.0110 C   0  0  0  0  0  2  0  0  0  0  0  0
  181.9540  178.1230  138.9280 C   0  0  0  0  0  2  0  0  0  0  0  0
  182.8530  178.1320  137.7020 C   0  0  0  0  0  2  0  0  0  0  0  0
  182.1010  177.6050  136.4890 C   0  0  0  0  0  2  0  0  0  0  0  0
  181.3350  176.4920  136.8480 O   0  0  0  0  0  1  0  0  0  0  0  0
  1  5  1  0  0  0  0
  2  1  1  0  0  0  0
  3 21  1  0  0  0  0
  3  5  2  0  0  0  0
  4  6  1  6  0  0  0
  4  2  1  0  0  0  0
  4  3  1  0  0  0  0
  7  6  1  0  0  0  0
  8  6  2  0  0  0  0
  9  7  1  0  0  0  0
 10 14  2  0  0  0  0
 11 14  1  0  0  0  0
 12 11  1  0  0  0  0
 13 12  2  0  0  0  0
 14  9  1  0  0  0  0
 15 16  1  0  0  0  0
 15 12  1  0  0  0  0
 16 20  1  0  0  0  0
 17 19  1  0  0  0  0
 18 17  2  0  0  0  0
 20 17  1  0  0  0  0
 23 21  1  1  0  0  0
 23 22  1  0  0  0  0
 24 25  1  6  0  0  0
 24 23  1  0  0  0  0
 24 22  1  0  0  0  0
 25 26  1  0  0  0  0
 27 26  1  0  0  0  0
 28 27  1  0  0  0  0
 29 33  1  6  0  0  0
 29 30  1  0  0  0  0
 29 28  1  0  0  0  0
 30 32  1  0  0  0  0
 32 31  1  0  0  0  0
 34 33  1  0  0  0  0
 35 34  1  0  0  0  0
 36 37  1  0  0  0  0
 36 35  1  0  0  0  0
M  END
>  <MODEL>
2

>  <REMARK>
 VINA RESULT:      -6.6      2.538      7.238
  Name = 
  19 active torsions:
  status: ('A' for Active; 'I' for Inactive)
    1  A    between atoms: C_2  and  C_29
    2  A    between atoms: C_2  and  C_37
    3  A    between atoms: C_3  and  C_6
    4  A    between atoms: C_3  and  C_29
    5  A    between atoms: C_4  and  C_16
    6  A    between atoms: C_4  and  S_21
    7  A    between atoms: C_7  and  C_27
    8  A    between atoms: C_7  and  C_32
    9  A    between atoms: C_10  and  N_22
   10  A    between atoms: C_10  and  C_35
   11  A    between atoms: C_15  and  C_25
   12  A    between atoms: C_15  and  C_26
   13  A    between atoms: C_16  and  C_20
   14  A    between atoms: C_17  and  C_34
   15  A    between atoms: C_18  and  N_24
   16  A    between atoms: C_18  and  C_37
   17  A    between atoms: C_20  and  C_33
   18  A    between atoms: S_21  and  C_37
   19  A    between atoms: N_30  and  C_32
                            x       y       z     vdW  Elec       q    Type
                         _______ _______ _______ _____ _____    ______ ____

>  <TORSDO>
F 19

$$$$
=
 OpenBabel11042412073D

 37 38  0  0  1  0  0  0  0  0999 V2000
  191.9950  176.7650  146.6940 O   0  0  0  0  0  0  0  0  0  0  0  0
  190.9290  176.2590  147.3470 O   0  0  0  0  0  0  0  0  0  0  0  0
  190.4380  177.6770  145.6030 C   0  0  0  0  0  0  0  0  0  0  0  0
  189.8290  176.8630  146.6890 C   0  0  2  0  0  3  0  0  0  0  0  0
  191.7080  177.6000  145.6470 N   0  0  0  0  0  0  0  0  0  0  0  0
  189.0730  177.7260  147.6550 C   0  0  0  0  0  0  0  0  0  0  0  0
  187.6660  177.9270  147.5130 N   0  0  0  0  0  2  0  0  0  0  0  0
  189.6800  178.2810  148.6100 O   0  0  0  0  0  0  0  0  0  0  0  0
  186.8800  177.2710  146.4780 C   0  0  0  0  0  2  0  0  0  0  0  0
  185.0440  178.6430  147.1330 O   0  0  0  0  0  0  0  0  0  0  0  0
  185.1470  178.1140  144.8510 N   0  0  0  0  0  2  0  0  0  0  0  0
  183.9670  178.8170  144.4440 C   0  0  0  0  0  0  0  0  0  0  0  0
  183.3130  179.5130  145.2680 O   0  0  0  0  0  0  0  0  0  0  0  0
  185.6510  178.0630  146.1900 C   0  0  0  0  0  0  0  0  0  0  0  0
  183.5040  178.7200  143.0310 C   0  0  0  0  0  2  0  0  0  0  0  0
  184.6420  178.2800  142.1260 C   0  0  0  0  0  2  0  0  0  0  0  0
  184.4070  179.2180  139.8070 C   0  0  0  0  0  0  0  0  0  0  0  0
  184.6610  180.1280  138.9760 O   0  0  0  0  0  0  0  0  0  0  0  0
  183.6340  178.1290  139.4200 O   0  0  0  0  0  1  0  0  0  0  0  0
  184.9180  179.3090  141.1350 N   0  0  0  0  0  2  0  0  0  0  0  0
  189.7060  178.5000  144.5950 C   0  0  0  0  0  2  0  0  0  0  0  0
  189.0890  178.1540  142.2220 C   0  0  0  0  0  2  0  0  0  0  0  0
  190.2420  178.2290  143.2020 C   0  0  2  0  0  3  0  0  0  0  0  0
  189.7270  176.8820  142.7400 C   0  0  2  0  0  3  0  0  0  0  0  0
  190.6540  176.3270  141.6760 C   0  0  0  0  0  2  0  0  0  0  0  0
  190.8680  177.3700  140.5970 C   0  0  0  0  0  2  0  0  0  0  0  0
  191.2050  176.7040  139.2720 C   0  0  0  0  0  2  0  0  0  0  0  0
  189.6890  176.2300  138.3820 S   0  0  0  0  0  0  0  0  0  0  0  0
  190.1600  177.1430  136.8780 C   0  0  1  0  0  3  0  0  0  0  0  0
  190.7650  176.1890  135.8570 C   0  0  0  0  0  2  0  0  0  0  0  0
  189.3780  174.5920  134.8800 C   0  0  0  0  0  1  0  0  0  0  0  0
  190.2190  174.8530  136.0330 N   0  0  0  0  0  2  0  0  0  0  0  0
  188.9810  177.9460  136.3180 C   0  0  0  0  0  2  0  0  0  0  0  0
  187.8110  178.0640  137.2890 C   0  0  0  0  0  2  0  0  0  0  0  0
  186.4910  177.9020  136.5520 C   0  0  0  0  0  2  0  0  0  0  0  0
  185.7120  176.7210  137.1100 C   0  0  0  0  0  2  0  0  0  0  0  0
  186.4910  175.5620  137.0510 O   0  0  0  0  0  1  0  0  0  0  0  0
  1  2  1  0  0  0  0
  3  5  2  0  0  0  0
  3  4  1  0  0  0  0
  4  2  1  0  0  0  0
  4  6  1  1  0  0  0
  5  1  1  0  0  0  0
  6  8  2  0  0  0  0
  7  6  1  0  0  0  0
  9  7  1  0  0  0  0
 11 14  1  0  0  0  0
 12 11  1  0  0  0  0
 12 13  2  0  0  0  0
 14  9  1  0  0  0  0
 14 10  2  0  0  0  0
 15 12  1  0  0  0  0
 16 15  1  0  0  0  0
 17 20  1  0  0  0  0
 18 17  2  0  0  0  0
 19 17  1  0  0  0  0
 20 16  1  0  0  0  0
 21  3  1  0  0  0  0
 22 24  1  0  0  0  0
 22 23  1  0  0  0  0
 23 21  1  1  0  0  0
 24 25  1  6  0  0  0
 24 23  1  0  0  0  0
 26 25  1  0  0  0  0
 27 26  1  0  0  0  0
 28 27  1  0  0  0  0
 29 30  1  6  0  0  0
 29 28  1  0  0  0  0
 30 32  1  0  0  0  0
 31 32  1  0  0  0  0
 33 29  1  0  0  0  0
 33 34  1  0  0  0  0
 35 36  1  0  0  0  0
 35 34  1  0  0  0  0
 37 36  1  0  0  0  0
M  END
>  <MODEL>
3

>  <REMARK>
 VINA RESULT:      -6.5      3.447      9.322
  Name = 
  19 active torsions:
  status: ('A' for Active; 'I' for Inactive)
    1  A    between atoms: C_2  and  C_29
    2  A    between atoms: C_2  and  C_37
    3  A    between atoms: C_3  and  C_6
    4  A    between atoms: C_3  and  C_29
    5  A    between atoms: C_4  and  C_16
    6  A    between atoms: C_4  and  S_21
    7  A    between atoms: C_7  and  C_27
    8  A    between atoms: C_7  and  C_32
    9  A    between atoms: C_10  and  N_22
   10  A    between atoms: C_10  and  C_35
   11  A    between atoms: C_15  and  C_25
   12  A    between atoms: C_15  and  C_26
   13  A    between atoms: C_16  and  C_20
   14  A    between atoms: C_17  and  C_34
   15  A    between atoms: C_18  and  N_24
   16  A    between atoms: C_18  and  C_37
   17  A    between atoms: C_20  and  C_33
   18  A    between atoms: S_21  and  C_37
   19  A    between atoms: N_30  and  C_32
                            x       y       z     vdW  Elec       q    Type
                         _______ _______ _______ _____ _____    ______ ____

>  <TORSDO>
F 19

$$$$
=
 OpenBabel11042412073D

 37 38  0  0  1  0  0  0  0  0999 V2000
  186.5920  178.6330  140.2910 O   0  0  0  0  0  0  0  0  0  0  0  0
  185.6080  178.9610  139.4280 O   0  0  0  0  0  0  0  0  0  0  0  0
  185.0830  179.1840  141.6560 C   0  0  0  0  0  0  0  0  0  0  0  0
  184.5320  179.3100  140.2800 C   0  0  2  0  0  3  0  0  0  0  0  0
  186.2880  178.7750  141.6180 N   0  0  0  0  0  0  0  0  0  0  0  0
  183.3880  178.3640  140.0650 C   0  0  0  0  0  0  0  0  0  0  0  0
  182.2480  178.7550  139.2970 N   0  0  0  0  0  2  0  0  0  0  0  0
  183.4280  177.2060  140.5600 O   0  0  0  0  0  0  0  0  0  0  0  0
  182.1520  180.0480  138.6370 C   0  0  0  0  0  2  0  0  0  0  0  0
  181.4520  178.7640  136.7560 O   0  0  0  0  0  0  0  0  0  0  0  0
  180.9550  181.0540  136.6580 N   0  0  0  0  0  2  0  0  0  0  0  0
  180.3170  181.0510  135.3760 C   0  0  0  0  0  0  0  0  0  0  0  0
  180.1290  179.9720  134.7490 O   0  0  0  0  0  0  0  0  0  0  0  0
  181.4920  179.8970  137.3100 C   0  0  0  0  0  0  0  0  0  0  0  0
  179.8750  182.3390  134.7710 C   0  0  0  0  0  2  0  0  0  0  0  0
  180.8230  183.4620  135.1590 C   0  0  0  0  0  2  0  0  0  0  0  0
  180.8290  184.8830  137.2310 C   0  0  0  0  0  0  0  0  0  0  0  0
  180.2290  185.6770  138.0020 O   0  0  0  0  0  1  0  0  0  0  0  0
  182.1350  184.5010  137.5180 O   0  0  0  0  0  0  0  0  0  0  0  0
  180.1620  184.3780  136.0760 N   0  0  0  0  0  2  0  0  0  0  0  0
  184.3570  179.4650  142.9310 C   0  0  0  0  0  2  0  0  0  0  0  0
  184.0050  178.7600  145.2780 C   0  0  0  0  0  2  0  0  0  0  0  0
  184.8060  178.5070  144.0170 C   0  0  2  0  0  3  0  0  0  0  0  0
  185.4090  179.3110  145.1500 C   0  0  2  0  0  3  0  0  0  0  0  0
  186.3570  178.4310  145.9420 C   0  0  0  0  0  2  0  0  0  0  0  0
  186.5520  177.1150  145.2150 C   0  0  0  0  0  2  0  0  0  0  0  0
  187.9300  177.0590  144.5740 C   0  0  0  0  0  2  0  0  0  0  0  0
  189.2000  177.6960  145.7120 S   0  0  0  0  0  0  0  0  0  0  0  0
  190.5650  177.3260  144.5640 C   0  0  1  0  0  3  0  0  0  0  0  0
  191.5830  176.4170  145.2390 C   0  0  0  0  0  2  0  0  0  0  0  0
  192.0630  175.7560  147.4210 C   0  0  0  0  0  1  0  0  0  0  0  0
  191.8970  176.9170  146.5680 N   0  0  0  0  0  2  0  0  0  0  0  0
  190.0440  176.7570  143.2390 C   0  0  0  0  0  2  0  0  0  0  0  0
  189.9830  177.7890  142.1180 C   0  0  0  0  0  2  0  0  0  0  0  0
  189.7470  177.1050  140.7810 C   0  0  0  0  0  2  0  0  0  0  0  0
  190.9430  177.3050  139.8630 C   0  0  0  0  0  2  0  0  0  0  0  0
  192.1020  177.4960  140.6220 O   0  0  0  0  0  1  0  0  0  0  0  0
  1  5  1  0  0  0  0
  2  4  1  0  0  0  0
  2  1  1  0  0  0  0
  3 21  1  0  0  0  0
  4  6  1  1  0  0  0
  4  3  1  0  0  0  0
  5  3  2  0  0  0  0
  6  8  2  0  0  0  0
  7  6  1  0  0  0  0
  9  7  1  0  0  0  0
 10 14  2  0  0  0  0
 11 14  1  0  0  0  0
 12 11  1  0  0  0  0
 13 12  2  0  0  0  0
 14  9  1  0  0  0  0
 15 16  1  0  0  0  0
 15 12  1  0  0  0  0
 16 20  1  0  0  0  0
 17 19  2  0  0  0  0
 17 18  1  0  0  0  0
 20 17  1  0  0  0  0
 23 21  1  6  0  0  0
 23 24  1  0  0  0  0
 23 22  1  0  0  0  0
 24 22  1  0  0  0  0
 24 25  1  1  0  0  0
 26 25  1  0  0  0  0
 27 26  1  0  0  0  0
 27 28  1  0  0  0  0
 29 33  1  6  0  0  0
 29 30  1  0  0  0  0
 29 28  1  0  0  0  0
 30 32  1  0  0  0  0
 32 31  1  0  0  0  0
 34 33  1  0  0  0  0
 35 34  1  0  0  0  0
 36 37  1  0  0  0  0
 36 35  1  0  0  0  0
M  END
>  <MODEL>
4

>  <REMARK>
 VINA RESULT:      -6.5      3.324      7.153
  Name = 
  19 active torsions:
  status: ('A' for Active; 'I' for Inactive)
    1  A    between atoms: C_2  and  C_29
    2  A    between atoms: C_2  and  C_37
    3  A    between atoms: C_3  and  C_6
    4  A    between atoms: C_3  and  C_29
    5  A    between atoms: C_4  and  C_16
    6  A    between atoms: C_4  and  S_21
    7  A    between atoms: C_7  and  C_27
    8  A    between atoms: C_7  and  C_32
    9  A    between atoms: C_10  and  N_22
   10  A    between atoms: C_10  and  C_35
   11  A    between atoms: C_15  and  C_25
   12  A    between atoms: C_15  and  C_26
   13  A    between atoms: C_16  and  C_20
   14  A    between atoms: C_17  and  C_34
   15  A    between atoms: C_18  and  N_24
   16  A    between atoms: C_18  and  C_37
   17  A    between atoms: C_20  and  C_33
   18  A    between atoms: S_21  and  C_37
   19  A    between atoms: N_30  and  C_32
                            x       y       z     vdW  Elec       q    Type
                         _______ _______ _______ _____ _____    ______ ____

>  <TORSDO>
F 19

$$$$
=
 OpenBabel11042412073D

 37 38  0  0  1  0  0  0  0  0999 V2000
  191.8910  176.4970  147.0880 O   0  0  0  0  0  0  0  0  0  0  0  0
  190.7590  176.1890  147.7530 O   0  0  0  0  0  0  0  0  0  0  0  0
  190.4790  177.4820  145.8710 C   0  0  0  0  0  0  0  0  0  0  0  0
  189.7540  176.8560  147.0100 C   0  0  2  0  0  3  0  0  0  0  0  0
  191.7290  177.2560  145.9600 N   0  0  0  0  0  0  0  0  0  0  0  0
  189.0930  177.8940  147.8690 C   0  0  0  0  0  0  0  0  0  0  0  0
  187.6890  178.1380  147.7730 N   0  0  0  0  0  2  0  0  0  0  0  0
  189.7780  178.5590  148.6900 O   0  0  0  0  0  0  0  0  0  0  0  0
  186.8160  177.3690  146.8980 C   0  0  0  0  0  2  0  0  0  0  0  0
  185.4590  179.2810  146.4690 O   0  0  0  0  0  0  0  0  0  0  0  0
  186.0080  177.9890  144.5900 N   0  0  0  0  0  2  0  0  0  0  0  0
  185.3060  178.7700  143.6170 C   0  0  0  0  0  0  0  0  0  0  0  0
  184.7280  179.8430  143.9430 O   0  0  0  0  0  0  0  0  0  0  0  0
  186.0670  178.2840  145.9910 C   0  0  0  0  0  0  0  0  0  0  0  0
  185.2530  178.3070  142.2020 C   0  0  0  0  0  2  0  0  0  0  0  0
  183.8630  178.5180  141.6240 C   0  0  0  0  0  2  0  0  0  0  0  0
  184.1000  178.6230  139.1250 C   0  0  0  0  0  0  0  0  0  0  0  0
  184.0130  178.0570  138.0040 O   0  0  0  0  0  0  0  0  0  0  0  0
  184.5140  179.9480  139.1960 O   0  0  0  0  0  1  0  0  0  0  0  0
  183.7690  177.9010  140.3100 N   0  0  0  0  0  2  0  0  0  0  0  0
  189.8720  178.2860  144.7690 C   0  0  0  0  0  2  0  0  0  0  0  0
  190.6330  178.4280  142.4170 C   0  0  0  0  0  2  0  0  0  0  0  0
  189.9730  177.5410  143.4530 C   0  0  2  0  0  3  0  0  0  0  0  0
  189.1280  178.2620  142.4240 C   0  0  2  0  0  3  0  0  0  0  0  0
  188.7340  177.2920  141.3270 C   0  0  0  0  0  2  0  0  0  0  0  0
  189.3440  177.7380  140.0130 C   0  0  0  0  0  2  0  0  0  0  0  0
  188.2650  178.2500  139.0710 C   0  0  0  0  0  2  0  0  0  0  0  0
  188.9750  178.6930  137.4540 S   0  0  0  0  0  0  0  0  0  0  0  0
  189.0110  176.9650  136.8780 C   0  0  1  0  0  3  0  0  0  0  0  0
  188.1590  176.8140  135.6250 C   0  0  0  0  0  2  0  0  0  0  0  0
  186.6420  175.5250  136.8360 C   0  0  0  0  0  1  0  0  0  0  0  0
  186.7550  176.6950  135.9860 N   0  0  0  0  0  2  0  0  0  0  0  0
  190.4490  176.4700  136.6840 C   0  0  0  0  0  2  0  0  0  0  0  0
  190.7450  175.1650  137.4170 C   0  0  0  0  0  2  0  0  0  0  0  0
  192.2460  174.9490  137.5290 C   0  0  0  0  0  2  0  0  0  0  0  0
  192.9710  176.2840  137.5890 C   0  0  0  0  0  2  0  0  0  0  0  0
  194.2020  176.1900  136.9310 O   0  0  0  0  0  1  0  0  0  0  0  0
  1  2  1  0  0  0  0
  3  5  2  0  0  0  0
  3  4  1  0  0  0  0
  4  2  1  0  0  0  0
  4  6  1  1  0  0  0
  5  1  1  0  0  0  0
  6  8  2  0  0  0  0
  7  6  1  0  0  0  0
  9  7  1  0  0  0  0
 11 14  1  0  0  0  0
 12 13  2  0  0  0  0
 12 11  1  0  0  0  0
 14 10  2  0  0  0  0
 14  9  1  0  0  0  0
 15 12  1  0  0  0  0
 16 15  1  0  0  0  0
 17 19  1  0  0  0  0
 17 20  1  0  0  0  0
 18 17  2  0  0  0  0
 20 16  1  0  0  0  0
 21  3  1  0  0  0  0
 22 24  1  0  0  0  0
 22 23  1  0  0  0  0
 23 21  1  1  0  0  0
 24 25  1  6  0  0  0
 24 23  1  0  0  0  0
 26 25  1  0  0  0  0
 27 26  1  0  0  0  0
 28 27  1  0  0  0  0
 29 30  1  6  0  0  0
 29 28  1  0  0  0  0
 30 32  1  0  0  0  0
 32 31  1  0  0  0  0
 33 29  1  0  0  0  0
 33 34  1  0  0  0  0
 34 35  1  0  0  0  0
 35 36  1  0  0  0  0
 37 36  1  0  0  0  0
M  END
>  <MODEL>
5

>  <REMARK>
 VINA RESULT:      -6.5      3.448      9.168
  Name = 
  19 active torsions:
  status: ('A' for Active; 'I' for Inactive)
    1  A    between atoms: C_2  and  C_29
    2  A    between atoms: C_2  and  C_37
    3  A    between atoms: C_3  and  C_6
    4  A    between atoms: C_3  and  C_29
    5  A    between atoms: C_4  and  C_16
    6  A    between atoms: C_4  and  S_21
    7  A    between atoms: C_7  and  C_27
    8  A    between atoms: C_7  and  C_32
    9  A    between atoms: C_10  and  N_22
   10  A    between atoms: C_10  and  C_35
   11  A    between atoms: C_15  and  C_25
   12  A    between atoms: C_15  and  C_26
   13  A    between atoms: C_16  and  C_20
   14  A    between atoms: C_17  and  C_34
   15  A    between atoms: C_18  and  N_24
   16  A    between atoms: C_18  and  C_37
   17  A    between atoms: C_20  and  C_33
   18  A    between atoms: S_21  and  C_37
   19  A    between atoms: N_30  and  C_32
                            x       y       z     vdW  Elec       q    Type
                         _______ _______ _______ _____ _____    ______ ____

>  <TORSDO>
F 19

$$$$
=
 OpenBabel11042412073D

 37 38  0  0  1  0  0  0  0  0999 V2000
  191.7690  177.3050  146.3030 O   0  0  0  0  0  0  0  0  0  0  0  0
  191.7650  177.6190  144.9920 O   0  0  0  0  0  0  0  0  0  0  0  0
  189.7110  177.1030  145.8910 C   0  0  0  0  0  0  0  0  0  0  0  0
  190.4060  177.4660  144.6260 C   0  0  2  0  0  3  0  0  0  0  0  0
  190.5470  177.0090  146.8460 N   0  0  0  0  0  0  0  0  0  0  0  0
  190.2750  176.3770  143.6030 C   0  0  0  0  0  0  0  0  0  0  0  0
  189.2690  176.4390  142.5900 N   0  0  0  0  0  2  0  0  0  0  0  0
  191.0620  175.3940  143.6280 O   0  0  0  0  0  0  0  0  0  0  0  0
  188.3640  177.5700  142.4510 C   0  0  0  0  0  2  0  0  0  0  0  0
  187.6890  179.0740  140.7300 O   0  0  0  0  0  0  0  0  0  0  0  0
  189.3560  177.5360  140.1320 N   0  0  0  0  0  2  0  0  0  0  0  0
  189.5180  177.9570  138.7730 C   0  0  0  0  0  0  0  0  0  0  0  0
  188.8870  178.9530  138.3240 O   0  0  0  0  0  0  0  0  0  0  0  0
  188.4480  178.1240  141.0700 C   0  0  0  0  0  0  0  0  0  0  0  0
  190.4390  177.2050  137.8750 C   0  0  0  0  0  2  0  0  0  0  0  0
  189.8780  175.8260  137.5710 C   0  0  0  0  0  2  0  0  0  0  0  0
  187.7780  175.8620  136.1930 C   0  0  0  0  0  0  0  0  0  0  0  0
  187.2240  175.8740  135.0630 O   0  0  0  0  0  0  0  0  0  0  0  0
  186.9960  175.8710  137.3420 O   0  0  0  0  0  1  0  0  0  0  0  0
  189.2010  175.8340  136.2840 N   0  0  0  0  0  2  0  0  0  0  0  0
  188.2490  176.8540  146.0590 C   0  0  0  0  0  2  0  0  0  0  0  0
  186.3220  178.2670  146.7060 C   0  0  0  0  0  2  0  0  0  0  0  0
  187.4570  178.1010  145.7170 C   0  0  2  0  0  3  0  0  0  0  0  0
  186.0510  177.6890  145.3330 C   0  0  2  0  0  3  0  0  0  0  0  0
  185.4340  178.7640  144.4590 C   0  0  0  0  0  2  0  0  0  0  0  0
  183.9770  178.9480  144.8350 C   0  0  0  0  0  2  0  0  0  0  0  0
  183.0820  178.7220  143.6270 C   0  0  0  0  0  2  0  0  0  0  0  0
  184.0730  178.5710  142.1060 S   0  0  0  0  0  0  0  0  0  0  0  0
  182.6970  179.0900  141.0320 C   0  0  1  0  0  3  0  0  0  0  0  0
  183.1740  179.2050  139.5910 C   0  0  0  0  0  2  0  0  0  0  0  0
  185.1780  178.6490  138.5410 C   0  0  0  0  0  1  0  0  0  0  0  0
  184.5970  179.5050  139.5570 N   0  0  0  0  0  2  0  0  0  0  0  0
  181.4850  178.1630  141.1860 C   0  0  0  0  0  2  0  0  0  0  0  0
  180.5680  178.1550  139.9680 C   0  0  0  0  0  2  0  0  0  0  0  0
  180.2310  176.7280  139.5680 C   0  0  0  0  0  2  0  0  0  0  0  0
  181.4570  175.8370  139.6950 C   0  0  0  0  0  2  0  0  0  0  0  0
  181.7010  175.1820  138.4840 O   0  0  0  0  0  1  0  0  0  0  0  0
  1  5  1  0  0  0  0
  2  1  1  0  0  0  0
  3 21  1  0  0  0  0
  3  5  2  0  0  0  0
  4  6  1  6  0  0  0
  4  2  1  0  0  0  0
  4  3  1  0  0  0  0
  6  8  2  0  0  0  0
  7  6  1  0  0  0  0
  9  7  1  0  0  0  0
 10 14  2  0  0  0  0
 11 14  1  0  0  0  0
 12 11  1  0  0  0  0
 13 12  2  0  0  0  0
 14  9  1  0  0  0  0
 15 12  1  0  0  0  0
 16 15  1  0  0  0  0
 17 20  1  0  0  0  0
 17 19  1  0  0  0  0
 18 17  2  0  0  0  0
 20 16  1  0  0  0  0
 23 21  1  1  0  0  0
 23 22  1  0  0  0  0
 24 25  1  6  0  0  0
 24 23  1  0  0  0  0
 24 22  1  0  0  0  0
 25 26  1  0  0  0  0
 27 26  1  0  0  0  0
 28 27  1  0  0  0  0
 29 30  1  6  0  0  0
 29 33  1  0  0  0  0
 29 28  1  0  0  0  0
 31 32  1  0  0  0  0
 32 30  1  0  0  0  0
 34 33  1  0  0  0  0
 35 36  1  0  0  0  0
 35 34  1  0  0  0  0
 37 36  1  0  0  0  0
M  END
>  <MODEL>
6

>  <REMARK>
 VINA RESULT:      -6.4      2.804      7.293
  Name = 
  19 active torsions:
  status: ('A' for Active; 'I' for Inactive)
    1  A    between atoms: C_2  and  C_29
    2  A    between atoms: C_2  and  C_37
    3  A    between atoms: C_3  and  C_6
    4  A    between atoms: C_3  and  C_29
    5  A    between atoms: C_4  and  C_16
    6  A    between atoms: C_4  and  S_21
    7  A    between atoms: C_7  and  C_27
    8  A    between atoms: C_7  and  C_32
    9  A    between atoms: C_10  and  N_22
   10  A    between atoms: C_10  and  C_35
   11  A    between atoms: C_15  and  C_25
   12  A    between atoms: C_15  and  C_26
   13  A    between atoms: C_16  and  C_20
   14  A    between atoms: C_17  and  C_34
   15  A    between atoms: C_18  and  N_24
   16  A    between atoms: C_18  and  C_37
   17  A    between atoms: C_20  and  C_33
   18  A    between atoms: S_21  and  C_37
   19  A    between atoms: N_30  and  C_32
                            x       y       z     vdW  Elec       q    Type
                         _______ _______ _______ _____ _____    ______ ____

>  <TORSDO>
F 19

$$$$
=
 OpenBabel11042412073D

 37 38  0  0  1  0  0  0  0  0999 V2000
  191.6570  177.2340  146.2830 O   0  0  0  0  0  0  0  0  0  0  0  0
  191.6820  177.6310  144.9940 O   0  0  0  0  0  0  0  0  0  0  0  0
  189.5990  177.1390  145.8370 C   0  0  0  0  0  0  0  0  0  0  0  0
  190.3220  177.5550  144.6050 C   0  0  2  0  0  3  0  0  0  0  0  0
  190.4180  176.9510  146.7930 N   0  0  0  0  0  0  0  0  0  0  0  0
  190.1630  176.5390  143.5130 C   0  0  0  0  0  0  0  0  0  0  0  0
  189.1980  176.7230  142.4760 N   0  0  0  0  0  2  0  0  0  0  0  0
  190.8900  175.5100  143.5020 O   0  0  0  0  0  0  0  0  0  0  0  0
  188.3660  177.9130  142.3800 C   0  0  0  0  0  2  0  0  0  0  0  0
  187.4330  179.2330  140.6280 O   0  0  0  0  0  0  0  0  0  0  0  0
  189.1630  177.7860  139.9890 N   0  0  0  0  0  2  0  0  0  0  0  0
  189.1780  178.1170  138.5970 C   0  0  0  0  0  0  0  0  0  0  0  0
  188.4340  179.0280  138.1400 O   0  0  0  0  0  0  0  0  0  0  0  0
  188.2910  178.3710  140.9630 C   0  0  0  0  0  0  0  0  0  0  0  0
  190.0790  177.3730  137.6730 C   0  0  0  0  0  2  0  0  0  0  0  0
  190.7690  176.2330  138.4050 C   0  0  0  0  0  2  0  0  0  0  0  0
  193.1400  176.7320  139.0670 C   0  0  0  0  0  0  0  0  0  0  0  0
  193.9550  177.2020  139.9030 O   0  0  0  0  0  1  0  0  0  0  0  0
  193.6120  176.1850  137.8790 O   0  0  0  0  0  0  0  0  0  0  0  0
  191.7420  176.7610  139.3480 N   0  0  0  0  0  2  0  0  0  0  0  0
  188.1260  176.9360  145.9740 C   0  0  0  0  0  2  0  0  0  0  0  0
  186.2700  178.4620  146.5720 C   0  0  0  0  0  2  0  0  0  0  0  0
  187.3800  178.1950  145.5760 C   0  0  2  0  0  3  0  0  0  0  0  0
  185.9510  177.8230  145.2370 C   0  0  2  0  0  3  0  0  0  0  0  0
  185.3630  178.8730  144.3150 C   0  0  0  0  0  2  0  0  0  0  0  0
  183.8800  179.0200  144.5950 C   0  0  0  0  0  2  0  0  0  0  0  0
  183.0670  178.6550  143.3630 C   0  0  0  0  0  2  0  0  0  0  0  0
  184.1390  178.5140  141.8980 S   0  0  0  0  0  0  0  0  0  0  0  0
  182.8280  179.0590  140.7560 C   0  0  1  0  0  3  0  0  0  0  0  0
  183.4200  179.3540  139.3850 C   0  0  0  0  0  2  0  0  0  0  0  0
  185.0710  178.1730  138.2400 C   0  0  0  0  0  1  0  0  0  0  0  0
  184.8420  179.0460  139.3760 N   0  0  0  0  0  2  0  0  0  0  0  0
  181.6760  178.0500  140.7030 C   0  0  0  0  0  2  0  0  0  0  0  0
  181.5620  177.3280  139.3650 C   0  0  0  0  0  2  0  0  0  0  0  0
  181.8970  175.8540  139.5260 C   0  0  0  0  0  2  0  0  0  0  0  0
  181.1540  175.0240  138.4920 C   0  0  0  0  0  2  0  0  0  0  0  0
  179.8680  174.7240  138.9520 O   0  0  0  0  0  1  0  0  0  0  0  0
  1  5  1  0  0  0  0
  2  1  1  0  0  0  0
  3 21  1  0  0  0  0
  3  5  2  0  0  0  0
  4  6  1  6  0  0  0
  4  2  1  0  0  0  0
  4  3  1  0  0  0  0
  7  6  1  0  0  0  0
  8  6  2  0  0  0  0
  9  7  1  0  0  0  0
 10 14  2  0  0  0  0
 11 14  1  0  0  0  0
 12 11  1  0  0  0  0
 13 12  2  0  0  0  0
 14  9  1  0  0  0  0
 15 16  1  0  0  0  0
 15 12  1  0  0  0  0
 16 20  1  0  0  0  0
 17 20  1  0  0  0  0
 17 18  1  0  0  0  0
 19 17  2  0  0  0  0
 23 21  1  1  0  0  0
 23 22  1  0  0  0  0
 24 25  1  6  0  0  0
 24 23  1  0  0  0  0
 24 22  1  0  0  0  0
 25 26  1  0  0  0  0
 27 26  1  0  0  0  0
 28 27  1  0  0  0  0
 29 30  1  6  0  0  0
 29 28  1  0  0  0  0
 31 32  1  0  0  0  0
 32 30  1  0  0  0  0
 33 29  1  0  0  0  0
 34 35  1  0  0  0  0
 34 33  1  0  0  0  0
 36 37  1  0  0  0  0
 36 35  1  0  0  0  0
M  END
>  <MODEL>
7

>  <REMARK>
 VINA RESULT:      -6.3      2.572      7.075
  Name = 
  19 active torsions:
  status: ('A' for Active; 'I' for Inactive)
    1  A    between atoms: C_2  and  C_29
    2  A    between atoms: C_2  and  C_37
    3  A    between atoms: C_3  and  C_6
    4  A    between atoms: C_3  and  C_29
    5  A    between atoms: C_4  and  C_16
    6  A    between atoms: C_4  and  S_21
    7  A    between atoms: C_7  and  C_27
    8  A    between atoms: C_7  and  C_32
    9  A    between atoms: C_10  and  N_22
   10  A    between atoms: C_10  and  C_35
   11  A    between atoms: C_15  and  C_25
   12  A    between atoms: C_15  and  C_26
   13  A    between atoms: C_16  and  C_20
   14  A    between atoms: C_17  and  C_34
   15  A    between atoms: C_18  and  N_24
   16  A    between atoms: C_18  and  C_37
   17  A    between atoms: C_20  and  C_33
   18  A    between atoms: S_21  and  C_37
   19  A    between atoms: N_30  and  C_32
                            x       y       z     vdW  Elec       q    Type
                         _______ _______ _______ _____ _____    ______ ____

>  <TORSDO>
F 19

$$$$
=
 OpenBabel11042412073D

 37 38  0  0  1  0  0  0  0  0999 V2000
  191.7080  177.3770  145.7260 O   0  0  0  0  0  0  0  0  0  0  0  0
  191.6640  177.7510  144.4310 O   0  0  0  0  0  0  0  0  0  0  0  0
  189.6370  177.2020  145.3690 C   0  0  0  0  0  0  0  0  0  0  0  0
  190.2930  177.6210  144.1010 C   0  0  2  0  0  3  0  0  0  0  0  0
  190.5020  177.0610  146.2930 N   0  0  0  0  0  0  0  0  0  0  0  0
  190.1250  176.5800  143.0340 C   0  0  0  0  0  0  0  0  0  0  0  0
  189.3280  176.8390  141.8770 N   0  0  0  0  0  2  0  0  0  0  0  0
  190.6940  175.4630  143.1510 O   0  0  0  0  0  0  0  0  0  0  0  0
  188.6900  178.1250  141.6340 C   0  0  0  0  0  2  0  0  0  0  0  0
  187.1230  178.6330  139.9120 O   0  0  0  0  0  0  0  0  0  0  0  0
  189.2000  177.8270  139.1820 N   0  0  0  0  0  2  0  0  0  0  0  0
  188.9270  177.8570  137.7760 C   0  0  0  0  0  0  0  0  0  0  0  0
  187.8390  178.3200  137.3380 O   0  0  0  0  0  0  0  0  0  0  0  0
  188.2830  178.2310  140.2050 C   0  0  0  0  0  0  0  0  0  0  0  0
  189.9400  177.3290  136.8190 C   0  0  0  0  0  2  0  0  0  0  0  0
  189.3470  176.2060  135.9830 C   0  0  0  0  0  2  0  0  0  0  0  0
  190.9100  174.2620  136.2840 C   0  0  0  0  0  0  0  0  0  0  0  0
  191.8230  173.5250  135.8270 O   0  0  0  0  0  0  0  0  0  0  0  0
  190.4060  174.0230  137.5570 O   0  0  0  0  0  1  0  0  0  0  0  0
  190.4060  175.3360  135.4930 N   0  0  0  0  0  2  0  0  0  0  0  0
  188.1790  176.9520  145.5720 C   0  0  0  0  0  2  0  0  0  0  0  0
  186.9180  178.1150  147.3580 C   0  0  0  0  0  2  0  0  0  0  0  0
  187.4690  178.2370  145.9520 C   0  0  2  0  0  3  0  0  0  0  0  0
  186.0010  177.9320  146.1670 C   0  0  2  0  0  3  0  0  0  0  0  0
  185.1900  179.1980  145.9700 C   0  0  0  0  0  2  0  0  0  0  0  0
  184.0420  178.9210  145.0190 C   0  0  0  0  0  2  0  0  0  0  0  0
  184.3240  179.5270  143.6530 C   0  0  0  0  0  2  0  0  0  0  0  0
  184.8650  178.2480  142.4760 S   0  0  0  0  0  0  0  0  0  0  0  0
  183.6080  178.7040  141.2390 C   0  0  1  0  0  3  0  0  0  0  0  0
  183.5200  177.6310  140.1630 C   0  0  0  0  0  2  0  0  0  0  0  0
  183.8030  179.6220  138.9870 C   0  0  0  0  0  1  0  0  0  0  0  0
  183.9130  178.1800  138.8750 N   0  0  0  0  0  2  0  0  0  0  0  0
  182.2560  179.0010  141.8980 C   0  0  0  0  0  2  0  0  0  0  0  0
  181.0830  178.3030  141.2170 C   0  0  0  0  0  2  0  0  0  0  0  0
  179.7800  178.6510  141.9180 C   0  0  0  0  0  2  0  0  0  0  0  0
  180.0490  179.5100  143.1440 C   0  0  0  0  0  2  0  0  0  0  0  0
  179.7140  180.8410  142.8790 O   0  0  0  0  0  1  0  0  0  0  0  0
  1  5  1  0  0  0  0
  2  1  1  0  0  0  0
  3 21  1  0  0  0  0
  3  5  2  0  0  0  0
  4  6  1  6  0  0  0
  4  2  1  0  0  0  0
  4  3  1  0  0  0  0
  6  8  2  0  0  0  0
  7  6  1  0  0  0  0
  9  7  1  0  0  0  0
 10 14  2  0  0  0  0
 11 14  1  0  0  0  0
 12 11  1  0  0  0  0
 13 12  2  0  0  0  0
 14  9  1  0  0  0  0
 15 12  1  0  0  0  0
 16 15  1  0  0  0  0
 17 19  1  0  0  0  0
 18 17  2  0  0  0  0
 20 16  1  0  0  0  0
 20 17  1  0  0  0  0
 23 21  1  6  0  0  0
 23 24  1  0  0  0  0
 23 22  1  0  0  0  0
 24 25  1  1  0  0  0
 24 22  1  0  0  0  0
 26 25  1  0  0  0  0
 27 26  1  0  0  0  0
 28 27  1  0  0  0  0
 29 30  1  6  0  0  0
 29 33  1  0  0  0  0
 29 28  1  0  0  0  0
 32 31  1  0  0  0  0
 32 30  1  0  0  0  0
 34 33  1  0  0  0  0
 34 35  1  0  0  0  0
 35 36  1  0  0  0  0
 37 36  1  0  0  0  0
M  END
>  <MODEL>
8

>  <REMARK>
 VINA RESULT:      -6.2      2.425      7.033
  Name = 
  19 active torsions:
  status: ('A' for Active; 'I' for Inactive)
    1  A    between atoms: C_2  and  C_29
    2  A    between atoms: C_2  and  C_37
    3  A    between atoms: C_3  and  C_6
    4  A    between atoms: C_3  and  C_29
    5  A    between atoms: C_4  and  C_16
    6  A    between atoms: C_4  and  S_21
    7  A    between atoms: C_7  and  C_27
    8  A    between atoms: C_7  and  C_32
    9  A    between atoms: C_10  and  N_22
   10  A    between atoms: C_10  and  C_35
   11  A    between atoms: C_15  and  C_25
   12  A    between atoms: C_15  and  C_26
   13  A    between atoms: C_16  and  C_20
   14  A    between atoms: C_17  and  C_34
   15  A    between atoms: C_18  and  N_24
   16  A    between atoms: C_18  and  C_37
   17  A    between atoms: C_20  and  C_33
   18  A    between atoms: S_21  and  C_37
   19  A    between atoms: N_30  and  C_32
                            x       y       z     vdW  Elec       q    Type
                         _______ _______ _______ _____ _____    ______ ____

>  <TORSDO>
F 19

$$$$
=
 OpenBabel11042412073D

 37 38  0  0  1  0  0  0  0  0999 V2000
  191.6890  175.8340  147.6050 O   0  0  0  0  0  0  0  0  0  0  0  0
  190.3660  175.7470  147.8520 O   0  0  0  0  0  0  0  0  0  0  0  0
  190.9570  177.1200  146.1030 C   0  0  0  0  0  0  0  0  0  0  0  0
  189.7990  176.6250  146.8960 C   0  0  2  0  0  3  0  0  0  0  0  0
  192.0450  176.6410  146.5570 N   0  0  0  0  0  0  0  0  0  0  0  0
  189.0990  177.7530  147.5950 C   0  0  0  0  0  0  0  0  0  0  0  0
  187.7860  178.1550  147.2040 N   0  0  0  0  0  2  0  0  0  0  0  0
  189.6700  178.3530  148.5440 O   0  0  0  0  0  0  0  0  0  0  0  0
  187.0330  177.4720  146.1630 C   0  0  0  0  0  2  0  0  0  0  0  0
  185.0620  178.5510  146.9580 O   0  0  0  0  0  0  0  0  0  0  0  0
  185.1910  178.2680  144.6340 N   0  0  0  0  0  2  0  0  0  0  0  0
  183.9330  178.8680  144.3040 C   0  0  0  0  0  0  0  0  0  0  0  0
  183.2150  179.3980  145.1960 O   0  0  0  0  0  0  0  0  0  0  0  0
  185.7170  178.1420  145.9600 C   0  0  0  0  0  0  0  0  0  0  0  0
  183.4630  178.8610  142.8900 C   0  0  0  0  0  2  0  0  0  0  0  0
  184.5530  178.3370  141.9690 C   0  0  0  0  0  2  0  0  0  0  0  0
  184.2380  179.3580  139.6960 C   0  0  0  0  0  0  0  0  0  0  0  0
  184.5440  180.2410  138.8530 O   0  0  0  0  0  0  0  0  0  0  0  0
  183.2750  178.4070  139.3760 O   0  0  0  0  0  1  0  0  0  0  0  0
  184.8840  179.3380  140.9670 N   0  0  0  0  0  2  0  0  0  0  0  0
  190.9010  178.0610  144.9450 C   0  0  0  0  0  2  0  0  0  0  0  0
  191.3110  178.1030  142.5030 C   0  0  0  0  0  2  0  0  0  0  0  0
  190.7360  177.2930  143.6470 C   0  0  2  0  0  3  0  0  0  0  0  0
  189.8150  178.0780  142.7360 C   0  0  2  0  0  3  0  0  0  0  0  0
  189.1760  177.1350  141.7350 C   0  0  0  0  0  2  0  0  0  0  0  0
  188.3240  177.9290  140.7640 C   0  0  0  0  0  2  0  0  0  0  0  0
  189.0920  178.2020  139.4810 C   0  0  0  0  0  2  0  0  0  0  0  0
  190.2730  176.8600  139.1340 S   0  0  0  0  0  0  0  0  0  0  0  0
  189.3720  176.3080  137.6500 C   0  0  1  0  0  3  0  0  0  0  0  0
  188.1890  177.2290  137.3850 C   0  0  0  0  0  2  0  0  0  0  0  0
  186.8540  178.2130  135.7480 C   0  0  0  0  0  1  0  0  0  0  0  0
  187.7640  177.1110  135.9990 N   0  0  0  0  0  2  0  0  0  0  0  0
  190.3080  176.1780  136.4430 C   0  0  0  0  0  2  0  0  0  0  0  0
  190.5260  174.7350  135.9970 C   0  0  0  0  0  2  0  0  0  0  0  0
  189.8060  173.7770  136.9320 C   0  0  0  0  0  2  0  0  0  0  0  0
  188.7390  173.0000  136.1780 C   0  0  0  0  0  2  0  0  0  0  0  0
  187.4880  173.2090  136.7660 O   0  0  0  0  0  1  0  0  0  0  0  0
  1  2  1  0  0  0  0
  3  5  2  0  0  0  0
  3  4  1  0  0  0  0
  4  6  1  1  0  0  0
  4  2  1  0  0  0  0
  5  1  1  0  0  0  0
  6  8  2  0  0  0  0
  7  6  1  0  0  0  0
  9  7  1  0  0  0  0
 11 14  1  0  0  0  0
 12 11  1  0  0  0  0
 12 13  2  0  0  0  0
 14  9  1  0  0  0  0
 14 10  2  0  0  0  0
 15 12  1  0  0  0  0
 16 15  1  0  0  0  0
 17 20  1  0  0  0  0
 18 17  2  0  0  0  0
 19 17  1  0  0  0  0
 20 16  1  0  0  0  0
 21  3  1  0  0  0  0
 22 24  1  0  0  0  0
 22 23  1  0  0  0  0
 23 21  1  1  0  0  0
 24 25  1  6  0  0  0
 24 23  1  0  0  0  0
 26 25  1  0  0  0  0
 27 26  1  0  0  0  0
 28 27  1  0  0  0  0
 29 33  1  6  0  0  0
 29 28  1  0  0  0  0
 30 29  1  0  0  0  0
 31 32  1  0  0  0  0
 32 30  1  0  0  0  0
 34 33  1  0  0  0  0
 34 35  1  0  0  0  0
 36 37  1  0  0  0  0
 36 35  1  0  0  0  0
M  END
>  <MODEL>
9

>  <REMARK>
 VINA RESULT:      -6.2      3.511      9.367
  Name = 
  19 active torsions:
  status: ('A' for Active; 'I' for Inactive)
    1  A    between atoms: C_2  and  C_29
    2  A    between atoms: C_2  and  C_37
    3  A    between atoms: C_3  and  C_6
    4  A    between atoms: C_3  and  C_29
    5  A    between atoms: C_4  and  C_16
    6  A    between atoms: C_4  and  S_21
    7  A    between atoms: C_7  and  C_27
    8  A    between atoms: C_7  and  C_32
    9  A    between atoms: C_10  and  N_22
   10  A    between atoms: C_10  and  C_35
   11  A    between atoms: C_15  and  C_25
   12  A    between atoms: C_15  and  C_26
   13  A    between atoms: C_16  and  C_20
   14  A    between atoms: C_17  and  C_34
   15  A    between atoms: C_18  and  N_24
   16  A    between atoms: C_18  and  C_37
   17  A    between atoms: C_20  and  C_33
   18  A    between atoms: S_21  and  C_37
   19  A    between atoms: N_30  and  C_32
                            x       y       z     vdW  Elec       q    Type
                         _______ _______ _______ _____ _____    ______ ____

>  <TORSDO>
F 19

$$$$
