=
 OpenBabel11042412183D

 34 37  0  0  1  0  0  0  0  0999 V2000
  188.6410  179.0070  136.8590 C   0  0  0  0  0  1  0  0  0  0  0  0
  189.2240  178.6420  139.2470 C   0  0  0  0  0  2  0  0  0  0  0  0
  188.7280  177.9720  137.9750 C   0  0  2  0  0  0  0  0  0  0  0  0
  189.8200  176.9650  137.6480 C   0  0  0  0  0  2  0  0  0  0  0  0
  190.3900  176.5170  138.9770 C   0  0  2  0  0  3  0  0  0  0  0  0
  190.0850  177.6220  139.9740 C   0  0  2  0  0  3  0  0  0  0  0  0
  185.6410  177.2410  135.9900 C   0  0  2  0  0  3  0  0  0  0  0  0
  185.8160  178.6600  139.3400 N   0  0  0  0  0  1  0  0  0  0  0  0
  186.7810  176.2180  136.0410 C   0  0  0  0  0  2  0  0  0  0  0  0
  187.3060  176.0230  137.4680 C   0  0  0  0  0  2  0  0  0  0  0  0
  187.4310  177.2910  138.2190 N   0  0  2  0  0  0  0  0  0  0  0  0
  185.1700  177.5690  137.3300 N   0  0  0  0  0  2  0  0  0  0  0  0
  186.2780  178.2050  138.0420 C   0  0  1  0  0  3  0  0  0  0  0  0
  184.4880  176.7040  135.1640 C   0  0  0  0  0  2  0  0  0  0  0  0
  184.5290  175.2530  135.1430 N   0  0  0  0  0  1  0  0  0  0  0  0
  190.3710  178.4380  142.7570 N   0  0  0  0  0  0  0  0  0  0  0  0
  190.2780  178.7180  144.1190 N   0  0  0  0  0  2  0  0  0  0  0  0
  189.5090  177.5400  142.4330 C   0  0  0  0  0  0  0  0  0  0  0  0
  188.6860  177.0630  143.5740 C   0  0  0  0  0  2  0  0  0  0  0  0
  189.2250  177.9180  144.7260 C   0  0  1  0  0  3  0  0  0  0  0  0
  189.3480  177.0630  141.0950 N   0  0  0  0  0  2  0  0  0  0  0  0
  189.7830  177.0520  145.8070 C   0  0  0  0  0  0  0  0  0  0  0  0
  191.0870  176.5860  145.7080 O   0  0  0  0  0  0  0  0  0  0  0  0
  189.0880  176.7570  146.8160 O   0  0  0  0  0  1  0  0  0  0  0  0
  191.7710  176.3430  138.8660 O   0  0  0  0  0  0  0  0  0  0  0  0
  192.0300  176.3870  137.4920 C   0  0  0  0  0  2  0  0  0  0  0  0
  193.5160  176.2180  137.2350 C   0  0  0  0  0  2  0  0  0  0  0  0
  194.1410  175.7200  138.3800 O   0  0  0  0  0  0  0  0  0  0  0  0
  196.8160  174.0460  136.7600 C   0  0  1  0  0  3  0  0  0  0  0  0
  195.8340  174.1520  138.9610 C   0  0  0  0  0  2  0  0  0  0  0  0
  194.7620  174.5390  137.9710 C   0  0  2  0  0  3  0  0  0  0  0  0
  196.8740  173.4250  138.1430 C   0  0  0  0  0  2  0  0  0  0  0  0
  196.8930  173.0420  135.7960 O   0  0  0  0  0  1  0  0  0  0  0  0
  195.4800  174.7620  136.6530 C   0  0  0  0  0  2  0  0  0  0  0  0
  2  6  1  0  0  0  0
  3  1  1  6  0  0  0
  3 11  1  0  0  0  0
  3  2  1  0  0  0  0
  4  3  1  0  0  0  0
  4  5  1  0  0  0  0
  5 25  1  6  0  0  0
  5  6  1  0  0  0  0
  6 21  1  1  0  0  0
  7 14  1  6  0  0  0
  7  9  1  0  0  0  0
  7 12  1  0  0  0  0
  9 10  1  0  0  0  0
 11 10  1  6  0  0  0
 12 13  1  0  0  0  0
 13 11  1  0  0  0  0
 13  8  1  1  0  0  0
 15 14  1  0  0  0  0
 16 17  1  0  0  0  0
 17 20  1  0  0  0  0
 18 16  2  0  0  0  0
 18 19  1  0  0  0  0
 19 20  1  0  0  0  0
 20 22  1  1  0  0  0
 21 18  1  0  0  0  0
 22 24  1  0  0  0  0
 23 22  2  0  0  0  0
 26 25  1  0  0  0  0
 27 26  1  0  0  0  0
 27 28  1  0  0  0  0
 29 33  1  6  0  0  0
 29 32  1  0  0  0  0
 31 28  1  1  0  0  0
 31 30  1  0  0  0  0
 32 30  1  0  0  0  0
 34 29  1  0  0  0  0
 34 31  1  0  0  0  0
M  END
>  <MODEL>
1

>  <REMARK>
 VINA RESULT:      -6.8      0.000      0.000
  Name = 
  9 active torsions:
  status: ('A' for Active; 'I' for Inactive)
    1  A    between atoms: C_1  and  C_10
    2  A    between atoms: C_6  and  C_30
    3  A    between atoms: O_11  and  C_12
    4  A    between atoms: O_11  and  C_31
    5  A    between atoms: C_12  and  C_26
    6  A    between atoms: O_15  and  C_16
    7  A    between atoms: O_15  and  C_26
    8  A    between atoms: N_20  and  C_25
    9  A    between atoms: N_33  and  C_34
                            x       y       z     vdW  Elec       q    Type
                         _______ _______ _______ _____ _____    ______ ____

>  <TORSDO>
F 9

$$$$
=
 OpenBabel11042412183D

 34 37  0  0  1  0  0  0  0  0999 V2000
  191.8030  176.7730  137.5840 C   0  0  0  0  0  1  0  0  0  0  0  0
  189.7420  178.1370  137.8420 C   0  0  0  0  0  2  0  0  0  0  0  0
  190.3230  176.7350  137.9460 C   0  0  2  0  0  0  0  0  0  0  0  0
  190.1700  176.3890  139.4190 C   0  0  0  0  0  2  0  0  0  0  0  0
  188.9180  177.0990  139.8900 C   0  0  2  0  0  3  0  0  0  0  0  0
  188.6940  178.2610  138.9360 C   0  0  2  0  0  3  0  0  0  0  0  0
  191.1360  174.0880  135.4290 C   0  0  2  0  0  3  0  0  0  0  0  0
  188.7020  176.7750  135.0840 N   0  0  0  0  0  1  0  0  0  0  0  0
  190.9600  173.7150  136.9050 C   0  0  0  0  0  2  0  0  0  0  0  0
  189.7230  174.3820  137.5160 C   0  0  0  0  0  2  0  0  0  0  0  0
  189.5550  175.7900  137.0950 N   0  0  2  0  0  0  0  0  0  0  0  0
  189.9500  174.7610  134.9120 N   0  0  0  0  0  2  0  0  0  0  0  0
  189.8000  176.0140  135.6500 C   0  0  1  0  0  3  0  0  0  0  0  0
  191.4170  172.8470  134.6020 C   0  0  0  0  0  2  0  0  0  0  0  0
  192.2790  171.9450  135.3440 N   0  0  0  0  0  1  0  0  0  0  0  0
  186.2170  179.0360  140.2610 N   0  0  0  0  0  0  0  0  0  0  0  0
  184.9350  179.4110  140.6570 N   0  0  0  0  0  2  0  0  0  0  0  0
  186.1920  178.5930  139.0530 C   0  0  0  0  0  0  0  0  0  0  0  0
  184.8390  178.6010  138.4410 C   0  0  0  0  0  2  0  0  0  0  0  0
  183.9910  179.1980  139.5700 C   0  0  1  0  0  3  0  0  0  0  0  0
  187.3640  178.1560  138.3610 N   0  0  0  0  0  2  0  0  0  0  0  0
  182.9200  178.2430  139.9860 C   0  0  0  0  0  0  0  0  0  0  0  0
  183.0980  176.8830  139.7770 O   0  0  0  0  0  0  0  0  0  0  0  0
  181.8690  178.6590  140.5420 O   0  0  0  0  0  1  0  0  0  0  0  0
  189.1040  177.5770  141.1890 O   0  0  0  0  0  0  0  0  0  0  0  0
  190.1310  176.7900  141.7180 C   0  0  0  0  0  2  0  0  0  0  0  0
  190.4850  177.2630  143.1160 C   0  0  0  0  0  2  0  0  0  0  0  0
  189.7310  176.5600  144.0580 O   0  0  0  0  0  0  0  0  0  0  0  0
  186.8310  177.5780  145.8280 C   0  0  1  0  0  3  0  0  0  0  0  0
  189.1970  177.3480  146.2390 C   0  0  0  0  0  2  0  0  0  0  0  0
  189.0140  177.5350  144.7520 C   0  0  2  0  0  3  0  0  0  0  0  0
  187.9140  177.8520  146.8540 C   0  0  0  0  0  2  0  0  0  0  0  0
  185.9780  178.6780  145.7460 O   0  0  0  0  0  1  0  0  0  0  0  0
  187.5290  177.3670  144.4960 C   0  0  0  0  0  2  0  0  0  0  0  0
  2  3  1  0  0  0  0
  2  6  1  0  0  0  0
  3  1  1  6  0  0  0
  3  4  1  0  0  0  0
  4  5  1  0  0  0  0
  5 25  1  1  0  0  0
  6 21  1  6  0  0  0
  6  5  1  0  0  0  0
  7 14  1  6  0  0  0
  7  9  1  0  0  0  0
  9 10  1  0  0  0  0
 11 10  1  1  0  0  0
 11  3  1  0  0  0  0
 12  7  1  0  0  0  0
 12 13  1  0  0  0  0
 13  8  1  6  0  0  0
 13 11  1  0  0  0  0
 14 15  1  0  0  0  0
 16 17  1  0  0  0  0
 18 16  2  0  0  0  0
 19 18  1  0  0  0  0
 19 20  1  0  0  0  0
 20 22  1  1  0  0  0
 20 17  1  0  0  0  0
 21 18  1  0  0  0  0
 22 24  1  0  0  0  0
 23 22  2  0  0  0  0
 25 26  1  0  0  0  0
 26 27  1  0  0  0  0
 27 28  1  0  0  0  0
 29 33  1  6  0  0  0
 29 32  1  0  0  0  0
 30 32  1  0  0  0  0
 31 28  1  6  0  0  0
 31 30  1  0  0  0  0
 34 31  1  0  0  0  0
 34 29  1  0  0  0  0
M  END
>  <MODEL>
2

>  <REMARK>
 VINA RESULT:      -6.7      3.650      7.464
  Name = 
  9 active torsions:
  status: ('A' for Active; 'I' for Inactive)
    1  A    between atoms: C_1  and  C_10
    2  A    between atoms: C_6  and  C_30
    3  A    between atoms: O_11  and  C_12
    4  A    between atoms: O_11  and  C_31
    5  A    between atoms: C_12  and  C_26
    6  A    between atoms: O_15  and  C_16
    7  A    between atoms: O_15  and  C_26
    8  A    between atoms: N_20  and  C_25
    9  A    between atoms: N_33  and  C_34
                            x       y       z     vdW  Elec       q    Type
                         _______ _______ _______ _____ _____    ______ ____

>  <TORSDO>
F 9

$$$$
=
 OpenBabel11042412183D

 34 37  0  0  1  0  0  0  0  0999 V2000
  183.0520  176.6950  135.3890 C   0  0  0  0  0  1  0  0  0  0  0  0
  182.9960  177.9090  137.5570 C   0  0  0  0  0  2  0  0  0  0  0  0
  183.5820  176.7150  136.8180 C   0  0  2  0  0  0  0  0  0  0  0  0
  185.0760  177.0010  136.8000 C   0  0  0  0  0  2  0  0  0  0  0  0
  185.3750  177.7600  138.0750 C   0  0  2  0  0  3  0  0  0  0  0  0
  184.0700  178.4070  138.5100 C   0  0  2  0  0  3  0  0  0  0  0  0
  182.8740  173.1560  135.9030 C   0  0  2  0  0  3  0  0  0  0  0  0
  181.0030  175.2420  138.2290 N   0  0  0  0  0  1  0  0  0  0  0  0
  184.3120  173.6020  136.1940 C   0  0  0  0  0  2  0  0  0  0  0  0
  184.3920  174.4740  137.4520 C   0  0  0  0  0  2  0  0  0  0  0  0
  183.2900  175.4560  137.5500 N   0  0  2  0  0  0  0  0  0  0  0  0
  181.9950  173.4480  137.0290 N   0  0  0  0  0  2  0  0  0  0  0  0
  181.9620  174.9000  137.1960 C   0  0  1  0  0  3  0  0  0  0  0  0
  182.8360  171.6710  135.5990 C   0  0  0  0  0  2  0  0  0  0  0  0
  183.4700  170.9300  136.6740 N   0  0  0  0  0  1  0  0  0  0  0  0
  185.3310  179.4410  140.9250 N   0  0  0  0  0  0  0  0  0  0  0  0
  185.7270  179.8410  142.1990 N   0  0  0  0  0  2  0  0  0  0  0  0
  184.3900  178.5680  141.0110 C   0  0  0  0  0  0  0  0  0  0  0  0
  184.0080  178.2370  142.4080 C   0  0  0  0  0  2  0  0  0  0  0  0
  184.9360  179.1560  143.2100 C   0  0  1  0  0  3  0  0  0  0  0  0
  183.7600  177.9880  139.8670 N   0  0  0  0  0  2  0  0  0  0  0  0
  185.8170  178.3560  144.1120 C   0  0  0  0  0  0  0  0  0  0  0  0
  186.5660  177.3120  143.5880 O   0  0  0  0  0  0  0  0  0  0  0  0
  185.9020  178.6330  145.3380 O   0  0  0  0  0  1  0  0  0  0  0  0
  186.3350  178.7430  137.8280 O   0  0  0  0  0  0  0  0  0  0  0  0
  187.2900  178.1190  137.0190 C   0  0  0  0  0  2  0  0  0  0  0  0
  188.6810  178.3490  137.5800 C   0  0  0  0  0  2  0  0  0  0  0  0
  189.0400  177.2830  138.4070 O   0  0  0  0  0  0  0  0  0  0  0  0
  189.7880  177.2880  141.8750 C   0  0  1  0  0  3  0  0  0  0  0  0
  190.9820  177.2120  139.7800 C   0  0  0  0  0  2  0  0  0  0  0  0
  189.6500  177.8720  139.5150 C   0  0  2  0  0  3  0  0  0  0  0  0
  191.1800  177.3210  141.2730 C   0  0  0  0  0  2  0  0  0  0  0  0
  189.6960  178.2420  142.8880 O   0  0  0  0  0  1  0  0  0  0  0  0
  188.8160  177.6270  140.7580 C   0  0  0  0  0  2  0  0  0  0  0  0
  2  6  1  0  0  0  0
  3  1  1  6  0  0  0
  3 11  1  0  0  0  0
  3  2  1  0  0  0  0
  4  3  1  0  0  0  0
  4  5  1  0  0  0  0
  5 25  1  6  0  0  0
  5  6  1  0  0  0  0
  6 21  1  1  0  0  0
  7 14  1  1  0  0  0
  7  9  1  0  0  0  0
  7 12  1  0  0  0  0
  9 10  1  0  0  0  0
 11 10  1  6  0  0  0
 12 13  1  0  0  0  0
 13 11  1  0  0  0  0
 13  8  1  1  0  0  0
 14 15  1  0  0  0  0
 16 18  2  0  0  0  0
 16 17  1  0  0  0  0
 17 20  1  0  0  0  0
 18 19  1  0  0  0  0
 19 20  1  0  0  0  0
 20 22  1  1  0  0  0
 21 18  1  0  0  0  0
 22 24  1  0  0  0  0
 23 22  2  0  0  0  0
 26 27  1  0  0  0  0
 26 25  1  0  0  0  0
 27 28  1  0  0  0  0
 29 33  1  1  0  0  0
 30 32  1  0  0  0  0
 31 28  1  6  0  0  0
 31 30  1  0  0  0  0
 31 34  1  0  0  0  0
 32 29  1  0  0  0  0
 34 29  1  0  0  0  0
M  END
>  <MODEL>
3

>  <REMARK>
 VINA RESULT:      -6.6      3.939      5.875
  Name = 
  9 active torsions:
  status: ('A' for Active; 'I' for Inactive)
    1  A    between atoms: C_1  and  C_10
    2  A    between atoms: C_6  and  C_30
    3  A    between atoms: O_11  and  C_12
    4  A    between atoms: O_11  and  C_31
    5  A    between atoms: C_12  and  C_26
    6  A    between atoms: O_15  and  C_16
    7  A    between atoms: O_15  and  C_26
    8  A    between atoms: N_20  and  C_25
    9  A    between atoms: N_33  and  C_34
                            x       y       z     vdW  Elec       q    Type
                         _______ _______ _______ _____ _____    ______ ____

>  <TORSDO>
F 9

$$$$
=
 OpenBabel11042412183D

 34 37  0  0  1  0  0  0  0  0999 V2000
  189.1210  179.0930  137.2260 C   0  0  0  0  0  1  0  0  0  0  0  0
  186.8160  178.2580  136.8200 C   0  0  0  0  0  2  0  0  0  0  0  0
  188.0270  178.1640  137.7370 C   0  0  2  0  0  0  0  0  0  0  0  0
  187.5090  178.6760  139.0720 C   0  0  0  0  0  2  0  0  0  0  0  0
  186.0470  178.2840  139.1340 C   0  0  2  0  0  3  0  0  0  0  0  0
  185.5860  178.1010  137.6980 C   0  0  2  0  0  3  0  0  0  0  0  0
  191.3030  176.3640  137.5740 C   0  0  2  0  0  3  0  0  0  0  0  0
  188.2270  175.4920  135.8300 N   0  0  0  0  0  1  0  0  0  0  0  0
  190.7550  176.8390  138.9250 C   0  0  0  0  0  2  0  0  0  0  0  0
  189.2660  176.5090  139.0810 C   0  0  0  0  0  2  0  0  0  0  0  0
  188.4840  176.7550  137.8490 N   0  0  2  0  0  0  0  0  0  0  0  0
  190.3500  175.4930  136.8980 N   0  0  0  0  0  2  0  0  0  0  0  0
  189.1550  176.2860  136.6130 C   0  0  1  0  0  3  0  0  0  0  0  0
  192.6160  175.6280  137.7690 C   0  0  0  0  0  2  0  0  0  0  0  0
  193.7260  176.5050  137.4460 N   0  0  0  0  0  1  0  0  0  0  0  0
  182.7490  177.4340  137.7190 N   0  0  0  0  0  0  0  0  0  0  0  0
  181.4670  176.8990  137.6120 N   0  0  0  0  0  2  0  0  0  0  0  0
  183.6270  176.5140  137.5210 C   0  0  0  0  0  0  0  0  0  0  0  0
  183.0410  175.1770  137.2490 C   0  0  0  0  0  2  0  0  0  0  0  0
  181.5390  175.4810  137.2930 C   0  0  1  0  0  3  0  0  0  0  0  0
  185.0340  176.7650  137.5410 N   0  0  0  0  0  2  0  0  0  0  0  0
  180.8700  174.6710  138.3540 C   0  0  0  0  0  0  0  0  0  0  0  0
  180.4420  173.3830  138.0640 O   0  0  0  0  0  0  0  0  0  0  0  0
  180.7080  175.1380  139.5130 O   0  0  0  0  0  1  0  0  0  0  0  0
  185.3100  179.3000  139.7460 O   0  0  0  0  0  0  0  0  0  0  0  0
  184.5790  178.6590  140.7510 C   0  0  0  0  0  2  0  0  0  0  0  0
  185.1280  179.0330  142.1160 C   0  0  0  0  0  2  0  0  0  0  0  0
  185.6640  177.9010  142.7350 O   0  0  0  0  0  0  0  0  0  0  0  0
  185.3610  178.3950  146.2350 C   0  0  1  0  0  3  0  0  0  0  0  0
  186.8090  177.2170  144.7060 C   0  0  0  0  0  2  0  0  0  0  0  0
  186.1860  178.3620  143.9440 C   0  0  2  0  0  3  0  0  0  0  0  0
  186.6390  177.5810  146.1610 C   0  0  0  0  0  2  0  0  0  0  0  0
  185.5520  179.4850  147.0830 O   0  0  0  0  0  1  0  0  0  0  0  0
  185.0670  178.8830  144.8270 C   0  0  0  0  0  2  0  0  0  0  0  0
  2  6  1  0  0  0  0
  2  3  1  0  0  0  0
  3  1  1  6  0  0  0
  3 11  1  0  0  0  0
  3  4  1  0  0  0  0
  4  5  1  0  0  0  0
  5 25  1  6  0  0  0
  6 21  1  1  0  0  0
  6  5  1  0  0  0  0
  7 14  1  1  0  0  0
  7  9  1  0  0  0  0
  9 10  1  0  0  0  0
 11 10  1  1  0  0  0
 12  7  1  0  0  0  0
 13  8  1  1  0  0  0
 13 12  1  0  0  0  0
 13 11  1  0  0  0  0
 15 14  1  0  0  0  0
 17 16  1  0  0  0  0
 18 21  1  0  0  0  0
 18 16  2  0  0  0  0
 19 20  1  0  0  0  0
 19 18  1  0  0  0  0
 20 17  1  0  0  0  0
 20 22  1  1  0  0  0
 22 24  1  0  0  0  0
 23 22  2  0  0  0  0
 25 26  1  0  0  0  0
 26 27  1  0  0  0  0
 27 28  1  0  0  0  0
 29 33  1  1  0  0  0
 30 32  1  0  0  0  0
 31 28  1  6  0  0  0
 31 30  1  0  0  0  0
 31 34  1  0  0  0  0
 32 29  1  0  0  0  0
 34 29  1  0  0  0  0
M  END
>  <MODEL>
4

>  <REMARK>
 VINA RESULT:      -6.5      4.326      9.083
  Name = 
  9 active torsions:
  status: ('A' for Active; 'I' for Inactive)
    1  A    between atoms: C_1  and  C_10
    2  A    between atoms: C_6  and  C_30
    3  A    between atoms: O_11  and  C_12
    4  A    between atoms: O_11  and  C_31
    5  A    between atoms: C_12  and  C_26
    6  A    between atoms: O_15  and  C_16
    7  A    between atoms: O_15  and  C_26
    8  A    between atoms: N_20  and  C_25
    9  A    between atoms: N_33  and  C_34
                            x       y       z     vdW  Elec       q    Type
                         _______ _______ _______ _____ _____    ______ ____

>  <TORSDO>
F 9

$$$$
=
 OpenBabel11042412183D

 34 37  0  0  1  0  0  0  0  0999 V2000
  192.2470  173.9160  135.8870 C   0  0  0  0  0  1  0  0  0  0  0  0
  191.4350  175.0250  137.9580 C   0  0  0  0  0  2  0  0  0  0  0  0
  192.0800  175.2540  136.5990 C   0  0  2  0  0  0  0  0  0  0  0  0
  191.0600  176.1000  135.8540 C   0  0  0  0  0  2  0  0  0  0  0  0
  190.3720  176.9490  136.9020 C   0  0  2  0  0  3  0  0  0  0  0  0
  190.5380  176.2220  138.2260 C   0  0  2  0  0  3  0  0  0  0  0  0
  195.6580  174.6380  135.6930 C   0  0  2  0  0  3  0  0  0  0  0  0
  194.3650  175.7360  138.9150 N   0  0  0  0  0  1  0  0  0  0  0  0
  194.7430  175.4010  134.7290 C   0  0  0  0  0  2  0  0  0  0  0  0
  193.9050  176.4580  135.4590 C   0  0  0  0  0  2  0  0  0  0  0  0
  193.3670  175.9800  136.7510 N   0  0  2  0  0  0  0  0  0  0  0  0
  195.6970  175.2800  137.0010 N   0  0  0  0  0  2  0  0  0  0  0  0
  194.3470  175.2180  137.5600 C   0  0  1  0  0  3  0  0  0  0  0  0
  197.0630  174.5520  135.1270 C   0  0  0  0  0  2  0  0  0  0  0  0
  197.9130  175.5440  135.7610 N   0  0  0  0  0  1  0  0  0  0  0  0
  190.1680  176.1360  141.1150 N   0  0  0  0  0  0  0  0  0  0  0  0
  190.2110  176.2290  142.5050 N   0  0  0  0  0  2  0  0  0  0  0  0
  190.9790  176.9880  140.5930 C   0  0  0  0  0  0  0  0  0  0  0  0
  191.7060  177.8110  141.5930 C   0  0  0  0  0  2  0  0  0  0  0  0
  191.1710  177.2430  142.9120 C   0  0  1  0  0  3  0  0  0  0  0  0
  191.1740  177.1120  139.1830 N   0  0  0  0  0  2  0  0  0  0  0  0
  190.4980  178.3120  143.7100 C   0  0  0  0  0  0  0  0  0  0  0  0
  189.2560  178.0620  144.2780 O   0  0  0  0  0  1  0  0  0  0  0  0
  191.0550  179.4280  143.8880 O   0  0  0  0  0  0  0  0  0  0  0  0
  189.0160  177.0750  136.5940 O   0  0  0  0  0  0  0  0  0  0  0  0
  188.6220  178.2800  137.1850 C   0  0  0  0  0  2  0  0  0  0  0  0
  187.4610  178.0430  138.1320 C   0  0  0  0  0  2  0  0  0  0  0  0
  187.7290  178.6380  139.3670 O   0  0  0  0  0  0  0  0  0  0  0  0
  185.5910  179.1740  142.1460 C   0  0  1  0  0  3  0  0  0  0  0  0
  185.3900  178.8100  139.7700 C   0  0  0  0  0  2  0  0  0  0  0  0
  186.7030  178.2070  140.2090 C   0  0  2  0  0  3  0  0  0  0  0  0
  184.5820  178.9430  141.0380 C   0  0  0  0  0  2  0  0  0  0  0  0
  185.2390  178.4160  143.2620 O   0  0  0  0  0  1  0  0  0  0  0  0
  186.9400  178.7160  141.6170 C   0  0  0  0  0  2  0  0  0  0  0  0
  2  6  1  0  0  0  0
  3  1  1  6  0  0  0
  3 11  1  0  0  0  0
  3  2  1  0  0  0  0
  4  3  1  0  0  0  0
  4  5  1  0  0  0  0
  5 25  1  6  0  0  0
  5  6  1  0  0  0  0
  6 21  1  1  0  0  0
  7 14  1  6  0  0  0
  7 12  1  0  0  0  0
  9 10  1  0  0  0  0
  9  7  1  0  0  0  0
 11 10  1  6  0  0  0
 11 13  1  0  0  0  0
 12 13  1  0  0  0  0
 13  8  1  1  0  0  0
 14 15  1  0  0  0  0
 16 17  1  0  0  0  0
 17 20  1  0  0  0  0
 18 16  2  0  0  0  0
 18 19  1  0  0  0  0
 19 20  1  0  0  0  0
 20 22  1  1  0  0  0
 21 18  1  0  0  0  0
 22 24  2  0  0  0  0
 22 23  1  0  0  0  0
 25 26  1  0  0  0  0
 26 27  1  0  0  0  0
 27 28  1  0  0  0  0
 29 33  1  1  0  0  0
 30 31  1  0  0  0  0
 30 32  1  0  0  0  0
 31 28  1  6  0  0  0
 31 34  1  0  0  0  0
 32 29  1  0  0  0  0
 34 29  1  0  0  0  0
M  END
>  <MODEL>
5

>  <REMARK>
 VINA RESULT:      -6.3      3.518      7.848
  Name = 
  9 active torsions:
  status: ('A' for Active; 'I' for Inactive)
    1  A    between atoms: C_1  and  C_10
    2  A    between atoms: C_6  and  C_30
    3  A    between atoms: O_11  and  C_12
    4  A    between atoms: O_11  and  C_31
    5  A    between atoms: C_12  and  C_26
    6  A    between atoms: O_15  and  C_16
    7  A    between atoms: O_15  and  C_26
    8  A    between atoms: N_20  and  C_25
    9  A    between atoms: N_33  and  C_34
                            x       y       z     vdW  Elec       q    Type
                         _______ _______ _______ _____ _____    ______ ____

>  <TORSDO>
F 9

$$$$
=
 OpenBabel11042412183D

 34 37  0  0  1  0  0  0  0  0999 V2000
  186.1780  176.6920  134.7040 C   0  0  0  0  0  1  0  0  0  0  0  0
  185.2120  177.8110  136.7020 C   0  0  0  0  0  2  0  0  0  0  0  0
  186.0780  176.6550  136.2250 C   0  0  2  0  0  0  0  0  0  0  0  0
  187.4420  176.9520  136.8290 C   0  0  0  0  0  2  0  0  0  0  0  0
  187.1760  177.6580  138.1410 C   0  0  2  0  0  3  0  0  0  0  0  0
  185.7920  178.2760  138.0280 C   0  0  2  0  0  3  0  0  0  0  0  0
  186.0850  173.0930  135.0760 C   0  0  2  0  0  3  0  0  0  0  0  0
  183.2230  175.0230  136.2380 N   0  0  0  0  0  1  0  0  0  0  0  0
  187.1860  173.5990  136.0150 C   0  0  0  0  0  2  0  0  0  0  0  0
  186.6120  174.4380  137.1630 C   0  0  0  0  0  2  0  0  0  0  0  0
  185.5440  175.3630  136.7270 N   0  0  2  0  0  0  0  0  0  0  0  0
  184.7630  173.3110  135.6500 N   0  0  0  0  0  2  0  0  0  0  0  0
  184.5750  174.7550  135.7840 C   0  0  1  0  0  3  0  0  0  0  0  0
  186.2770  171.6160  134.7870 C   0  0  0  0  0  2  0  0  0  0  0  0
  185.1260  170.8670  135.2570 N   0  0  0  0  0  1  0  0  0  0  0  0
  185.7140  179.4190  140.7080 N   0  0  0  0  0  0  0  0  0  0  0  0
  185.4520  179.8430  142.0080 N   0  0  0  0  0  2  0  0  0  0  0  0
  184.9470  178.4310  140.4040 C   0  0  0  0  0  0  0  0  0  0  0  0
  184.0280  178.0300  141.5000 C   0  0  0  0  0  2  0  0  0  0  0  0
  184.3850  179.0460  142.5920 C   0  0  1  0  0  3  0  0  0  0  0  0
  184.9650  177.7970  139.1240 N   0  0  0  0  0  2  0  0  0  0  0  0
  184.8640  178.3480  143.8220 C   0  0  0  0  0  0  0  0  0  0  0  0
  186.0630  177.6500  143.7910 O   0  0  0  0  0  0  0  0  0  0  0  0
  184.2010  178.4040  144.8920 O   0  0  0  0  0  1  0  0  0  0  0  0
  188.1290  178.6580  138.3430 O   0  0  0  0  0  0  0  0  0  0  0  0
  189.1690  178.0300  139.0350 C   0  0  0  0  0  2  0  0  0  0  0  0
  188.6620  177.4800  140.3560 C   0  0  0  0  0  2  0  0  0  0  0  0
  189.1010  178.2910  141.4050 O   0  0  0  0  0  0  0  0  0  0  0  0
  191.5000  176.8180  143.5630 C   0  0  1  0  0  3  0  0  0  0  0  0
  189.4980  178.1510  143.7470 C   0  0  0  0  0  2  0  0  0  0  0  0
  189.4250  177.4070  142.4350 C   0  0  2  0  0  3  0  0  0  0  0  0
  190.5200  177.3980  144.5640 C   0  0  0  0  0  2  0  0  0  0  0  0
  191.8110  175.5070  143.9200 O   0  0  0  0  0  1  0  0  0  0  0  0
  190.8100  176.8330  142.2100 C   0  0  0  0  0  2  0  0  0  0  0  0
  2  6  1  0  0  0  0
  3  1  1  6  0  0  0
  3  2  1  0  0  0  0
  3 11  1  0  0  0  0
  3  4  1  0  0  0  0
  4  5  1  0  0  0  0
  5 25  1  6  0  0  0
  6  5  1  0  0  0  0
  6 21  1  1  0  0  0
  7 14  1  1  0  0  0
  7 12  1  0  0  0  0
  7  9  1  0  0  0  0
  9 10  1  0  0  0  0
 11 10  1  6  0  0  0
 12 13  1  0  0  0  0
 13  8  1  1  0  0  0
 13 11  1  0  0  0  0
 14 15  1  0  0  0  0
 16 17  1  0  0  0  0
 17 20  1  0  0  0  0
 18 16  2  0  0  0  0
 18 19  1  0  0  0  0
 19 20  1  0  0  0  0
 20 22  1  1  0  0  0
 21 18  1  0  0  0  0
 22 24  1  0  0  0  0
 23 22  2  0  0  0  0
 25 26  1  0  0  0  0
 26 27  1  0  0  0  0
 27 28  1  0  0  0  0
 29 33  1  1  0  0  0
 29 32  1  0  0  0  0
 30 32  1  0  0  0  0
 31 28  1  6  0  0  0
 31 30  1  0  0  0  0
 34 31  1  0  0  0  0
 34 29  1  0  0  0  0
M  END
>  <MODEL>
6

>  <REMARK>
 VINA RESULT:      -6.3      4.222      5.635
  Name = 
  9 active torsions:
  status: ('A' for Active; 'I' for Inactive)
    1  A    between atoms: C_1  and  C_10
    2  A    between atoms: C_6  and  C_30
    3  A    between atoms: O_11  and  C_12
    4  A    between atoms: O_11  and  C_31
    5  A    between atoms: C_12  and  C_26
    6  A    between atoms: O_15  and  C_16
    7  A    between atoms: O_15  and  C_26
    8  A    between atoms: N_20  and  C_25
    9  A    between atoms: N_33  and  C_34
                            x       y       z     vdW  Elec       q    Type
                         _______ _______ _______ _____ _____    ______ ____

>  <TORSDO>
F 9

$$$$
=
 OpenBabel11042412183D

 34 37  0  0  1  0  0  0  0  0999 V2000
  190.9560  176.7810  136.0790 C   0  0  0  0  0  1  0  0  0  0  0  0
  188.7120  177.7690  136.4920 C   0  0  0  0  0  2  0  0  0  0  0  0
  189.6520  176.6280  136.8540 C   0  0  2  0  0  0  0  0  0  0  0  0
  189.9160  176.8350  138.3370 C   0  0  0  0  0  2  0  0  0  0  0  0
  188.6520  177.4440  138.9080 C   0  0  2  0  0  3  0  0  0  0  0  0
  187.9300  178.1100  137.7490 C   0  0  2  0  0  3  0  0  0  0  0  0
  190.5310  173.4550  135.0760 C   0  0  2  0  0  3  0  0  0  0  0  0
  187.4320  175.3460  134.7940 N   0  0  0  0  0  1  0  0  0  0  0  0
  190.8380  173.6080  136.5700 C   0  0  0  0  0  2  0  0  0  0  0  0
  189.6530  174.2100  137.3350 C   0  0  0  0  0  2  0  0  0  0  0  0
  188.9960  175.3180  136.6080 N   0  0  2  0  0  0  0  0  0  0  0  0
  189.1150  173.6690  134.8060 N   0  0  0  0  0  2  0  0  0  0  0  0
  188.8040  175.0520  135.1620 C   0  0  1  0  0  3  0  0  0  0  0  0
  190.9380  172.0750  134.5940 C   0  0  0  0  0  2  0  0  0  0  0  0
  192.3230  171.8170  134.9470 N   0  0  0  0  0  1  0  0  0  0  0  0
  185.5410  179.3330  138.8840 N   0  0  0  0  0  0  0  0  0  0  0  0
  184.2720  179.7690  139.2600 N   0  0  0  0  0  2  0  0  0  0  0  0
  185.4480  178.2460  138.2020 C   0  0  0  0  0  0  0  0  0  0  0  0
  184.0520  177.7740  138.0180 C   0  0  0  0  0  2  0  0  0  0  0  0
  183.2560  178.8660  138.7430 C   0  0  1  0  0  3  0  0  0  0  0  0
  186.5830  177.5720  137.6540 N   0  0  0  0  0  2  0  0  0  0  0  0
  182.4570  178.2800  139.8600 C   0  0  0  0  0  0  0  0  0  0  0  0
  182.7280  176.9890  140.2930 O   0  0  0  0  0  0  0  0  0  0  0  0
  181.5550  178.9530  140.4270 O   0  0  0  0  0  1  0  0  0  0  0  0
  188.9800  178.3960  139.8760 O   0  0  0  0  0  0  0  0  0  0  0  0
  188.0620  178.1890  140.9100 C   0  0  0  0  0  2  0  0  0  0  0  0
  188.6710  177.3030  141.9810 C   0  0  0  0  0  2  0  0  0  0  0  0
  187.7460  177.0970  143.0070 O   0  0  0  0  0  0  0  0  0  0  0  0
  190.3770  177.8050  145.2790 C   0  0  1  0  0  3  0  0  0  0  0  0
  187.9890  177.4680  145.3450 C   0  0  0  0  0  2  0  0  0  0  0  0
  188.5110  176.7530  144.1220 C   0  0  2  0  0  3  0  0  0  0  0  0
  189.2000  177.6660  146.2250 C   0  0  0  0  0  2  0  0  0  0  0  0
  191.4590  177.0760  145.7710 O   0  0  0  0  0  1  0  0  0  0  0  0
  189.9380  177.2350  143.9410 C   0  0  0  0  0  2  0  0  0  0  0  0
  2  3  1  0  0  0  0
  2  6  1  0  0  0  0
  3  1  1  6  0  0  0
  3  4  1  0  0  0  0
  4  5  1  0  0  0  0
  5 25  1  1  0  0  0
  6 21  1  6  0  0  0
  6  5  1  0  0  0  0
  7 14  1  1  0  0  0
  7  9  1  0  0  0  0
  9 10  1  0  0  0  0
 11  3  1  0  0  0  0
 11 10  1  6  0  0  0
 12  7  1  0  0  0  0
 12 13  1  0  0  0  0
 13  8  1  1  0  0  0
 13 11  1  0  0  0  0
 14 15  1  0  0  0  0
 16 17  1  0  0  0  0
 18 16  2  0  0  0  0
 19 18  1  0  0  0  0
 19 20  1  0  0  0  0
 20 17  1  0  0  0  0
 20 22  1  1  0  0  0
 21 18  1  0  0  0  0
 22 23  2  0  0  0  0
 22 24  1  0  0  0  0
 25 26  1  0  0  0  0
 26 27  1  0  0  0  0
 27 28  1  0  0  0  0
 29 33  1  1  0  0  0
 29 32  1  0  0  0  0
 30 32  1  0  0  0  0
 31 28  1  6  0  0  0
 31 30  1  0  0  0  0
 34 31  1  0  0  0  0
 34 29  1  0  0  0  0
M  END
>  <MODEL>
7

>  <REMARK>
 VINA RESULT:      -6.3      3.773      7.231
  Name = 
  9 active torsions:
  status: ('A' for Active; 'I' for Inactive)
    1  A    between atoms: C_1  and  C_10
    2  A    between atoms: C_6  and  C_30
    3  A    between atoms: O_11  and  C_12
    4  A    between atoms: O_11  and  C_31
    5  A    between atoms: C_12  and  C_26
    6  A    between atoms: O_15  and  C_16
    7  A    between atoms: O_15  and  C_26
    8  A    between atoms: N_20  and  C_25
    9  A    between atoms: N_33  and  C_34
                            x       y       z     vdW  Elec       q    Type
                         _______ _______ _______ _____ _____    ______ ____

>  <TORSDO>
F 9

$$$$
=
 OpenBabel11042412183D

 34 37  0  0  1  0  0  0  0  0999 V2000
  190.0980  176.0880  142.9530 C   0  0  0  0  0  1  0  0  0  0  0  0
  187.7590  176.7750  142.4710 C   0  0  0  0  0  2  0  0  0  0  0  0
  189.1310  177.2650  142.9100 C   0  0  2  0  0  0  0  0  0  0  0  0
  189.5440  178.2200  141.8010 C   0  0  0  0  0  2  0  0  0  0  0  0
  188.2650  178.8460  141.2860 C   0  0  2  0  0  3  0  0  0  0  0  0
  187.1410  177.8860  141.6380 C   0  0  2  0  0  3  0  0  0  0  0  0
  190.5040  176.7740  146.3560 C   0  0  2  0  0  3  0  0  0  0  0  0
  187.0460  177.4660  145.4450 N   0  0  0  0  0  1  0  0  0  0  0  0
  191.2580  177.6480  145.3470 C   0  0  0  0  0  2  0  0  0  0  0  0
  190.3150  178.6040  144.6080 C   0  0  0  0  0  2  0  0  0  0  0  0
  189.0380  177.9710  144.2130 N   0  0  2  0  0  0  0  0  0  0  0  0
  189.1400  177.2520  146.5480 N   0  0  0  0  0  2  0  0  0  0  0  0
  188.4430  177.1180  145.2700 C   0  0  1  0  0  3  0  0  0  0  0  0
  191.2300  176.7620  147.6880 C   0  0  0  0  0  2  0  0  0  0  0  0
  192.4410  175.9680  147.5830 N   0  0  0  0  0  1  0  0  0  0  0  0
  184.2570  177.6080  141.3310 N   0  0  0  0  0  0  0  0  0  0  0  0
  182.8670  177.5740  141.4200 N   0  0  0  0  0  2  0  0  0  0  0  0
  184.7380  178.3760  142.2440 C   0  0  0  0  0  0  0  0  0  0  0  0
  183.7020  178.9990  143.1070 C   0  0  0  0  0  2  0  0  0  0  0  0
  182.4140  178.4030  142.5270 C   0  0  1  0  0  3  0  0  0  0  0  0
  186.1390  178.5910  142.4200 N   0  0  0  0  0  2  0  0  0  0  0  0
  181.5080  179.4840  142.0360 C   0  0  0  0  0  0  0  0  0  0  0  0
  181.4150  179.7330  140.6740 O   0  0  0  0  0  0  0  0  0  0  0  0
  180.8140  180.1570  142.8440 O   0  0  0  0  0  1  0  0  0  0  0  0
  188.3400  179.0050  139.9010 O   0  0  0  0  0  0  0  0  0  0  0  0
  187.5520  177.9760  139.3770 C   0  0  0  0  0  2  0  0  0  0  0  0
  188.3000  177.2560  138.2700 C   0  0  0  0  0  2  0  0  0  0  0  0
  189.3790  176.5520  138.8100 O   0  0  0  0  0  0  0  0  0  0  0  0
  192.6880  175.9640  137.6750 C   0  0  1  0  0  3  0  0  0  0  0  0
  190.4730  176.1430  136.7360 C   0  0  0  0  0  2  0  0  0  0  0  0
  190.4770  176.9200  138.0320 C   0  0  2  0  0  3  0  0  0  0  0  0
  191.9290  176.0040  136.3630 C   0  0  0  0  0  2  0  0  0  0  0  0
  193.8350  176.7510  137.5740 O   0  0  0  0  0  1  0  0  0  0  0  0
  191.7640  176.5360  138.7370 C   0  0  0  0  0  2  0  0  0  0  0  0
  2  3  1  0  0  0  0
  3  1  1  1  0  0  0
  3 11  1  0  0  0  0
  4  3  1  0  0  0  0
  5 25  1  6  0  0  0
  5  6  1  0  0  0  0
  5  4  1  0  0  0  0
  6 21  1  1  0  0  0
  6  2  1  0  0  0  0
  7 12  1  0  0  0  0
  7 14  1  1  0  0  0
  9  7  1  0  0  0  0
 10  9  1  0  0  0  0
 11 10  1  1  0  0  0
 11 13  1  0  0  0  0
 13  8  1  1  0  0  0
 13 12  1  0  0  0  0
 15 14  1  0  0  0  0
 16 17  1  0  0  0  0
 16 18  2  0  0  0  0
 17 20  1  0  0  0  0
 18 21  1  0  0  0  0
 18 19  1  0  0  0  0
 20 22  1  6  0  0  0
 20 19  1  0  0  0  0
 22 24  1  0  0  0  0
 23 22  2  0  0  0  0
 26 25  1  0  0  0  0
 27 28  1  0  0  0  0
 27 26  1  0  0  0  0
 29 33  1  6  0  0  0
 29 34  1  0  0  0  0
 30 31  1  0  0  0  0
 31 34  1  0  0  0  0
 31 28  1  1  0  0  0
 32 30  1  0  0  0  0
 32 29  1  0  0  0  0
M  END
>  <MODEL>
8

>  <REMARK>
 VINA RESULT:      -6.3      3.729      7.473
  Name = 
  9 active torsions:
  status: ('A' for Active; 'I' for Inactive)
    1  A    between atoms: C_1  and  C_10
    2  A    between atoms: C_6  and  C_30
    3  A    between atoms: O_11  and  C_12
    4  A    between atoms: O_11  and  C_31
    5  A    between atoms: C_12  and  C_26
    6  A    between atoms: O_15  and  C_16
    7  A    between atoms: O_15  and  C_26
    8  A    between atoms: N_20  and  C_25
    9  A    between atoms: N_33  and  C_34
                            x       y       z     vdW  Elec       q    Type
                         _______ _______ _______ _____ _____    ______ ____

>  <TORSDO>
F 9

$$$$
=
 OpenBabel11042412183D

 34 37  0  0  1  0  0  0  0  0999 V2000
  191.2950  175.6520  144.1210 C   0  0  0  0  0  1  0  0  0  0  0  0
  190.1580  175.9870  141.9360 C   0  0  0  0  0  2  0  0  0  0  0  0
  190.8240  176.6900  143.1090 C   0  0  2  0  0  0  0  0  0  0  0  0
  192.0320  177.3710  142.4830 C   0  0  0  0  0  2  0  0  0  0  0  0
  191.6250  177.7330  141.0700 C   0  0  2  0  0  3  0  0  0  0  0  0
  190.4900  176.7950  140.6920 C   0  0  2  0  0  3  0  0  0  0  0  0
  189.1110  177.1570  146.4030 C   0  0  2  0  0  3  0  0  0  0  0  0
  187.6070  177.3730  143.0930 N   0  0  0  0  0  1  0  0  0  0  0  0
  190.4790  177.8020  146.1510 C   0  0  0  0  0  2  0  0  0  0  0  0
  190.5410  178.4830  144.7780 C   0  0  0  0  0  2  0  0  0  0  0  0
  189.9010  177.6890  143.7070 N   0  0  2  0  0  0  0  0  0  0  0  0
  188.1400  177.5760  145.4000 N   0  0  0  0  0  2  0  0  0  0  0  0
  188.6070  177.0850  144.1040 C   0  0  1  0  0  3  0  0  0  0  0  0
  188.6040  177.5220  147.7850 C   0  0  0  0  0  2  0  0  0  0  0  0
  187.3470  178.2400  147.6770 N   0  0  0  0  0  1  0  0  0  0  0  0
  188.9230  176.3780  138.2710 N   0  0  0  0  0  0  0  0  0  0  0  0
  187.9930  176.3130  137.2360 N   0  0  0  0  0  2  0  0  0  0  0  0
  188.5870  177.2950  139.1080 C   0  0  0  0  0  0  0  0  0  0  0  0
  187.3390  178.0120  138.7390 C   0  0  0  0  0  2  0  0  0  0  0  0
  186.9360  177.2900  137.4480 C   0  0  1  0  0  3  0  0  0  0  0  0
  189.3350  177.5810  140.2910 N   0  0  0  0  0  2  0  0  0  0  0  0
  186.8730  178.2510  136.3060 C   0  0  0  0  0  0  0  0  0  0  0  0
  186.4350  177.8110  135.0650 O   0  0  0  0  0  0  0  0  0  0  0  0
  187.1940  179.4590  136.4650 O   0  0  0  0  0  1  0  0  0  0  0  0
  192.7050  177.5470  140.2040 O   0  0  0  0  0  0  0  0  0  0  0  0
  192.2030  176.7550  139.1660 C   0  0  0  0  0  2  0  0  0  0  0  0
  193.3190  176.3770  138.2100 C   0  0  0  0  0  2  0  0  0  0  0  0
  194.3230  175.6960  138.9010 O   0  0  0  0  0  0  0  0  0  0  0  0
  195.4030  172.4330  138.0220 C   0  0  1  0  0  3  0  0  0  0  0  0
  193.7580  174.0380  137.2900 C   0  0  0  0  0  2  0  0  0  0  0  0
  194.8640  174.8070  137.9710 C   0  0  2  0  0  3  0  0  0  0  0  0
  194.3690  172.7010  136.9460 C   0  0  0  0  0  2  0  0  0  0  0  0
  196.5590  171.9160  137.4390 O   0  0  0  0  0  1  0  0  0  0  0  0
  195.7110  173.7680  138.6810 C   0  0  0  0  0  2  0  0  0  0  0  0
  2  3  1  0  0  0  0
  3 11  1  0  0  0  0
  3  1  1  1  0  0  0
  4  3  1  0  0  0  0
  5 25  1  6  0  0  0
  5  4  1  0  0  0  0
  6 21  1  1  0  0  0
  6  5  1  0  0  0  0
  6  2  1  0  0  0  0
  7 14  1  1  0  0  0
  9  7  1  0  0  0  0
 10  9  1  0  0  0  0
 11 13  1  0  0  0  0
 11 10  1  1  0  0  0
 12  7  1  0  0  0  0
 13  8  1  6  0  0  0
 13 12  1  0  0  0  0
 15 14  1  0  0  0  0
 16 18  2  0  0  0  0
 17 20  1  0  0  0  0
 17 16  1  0  0  0  0
 18 21  1  0  0  0  0
 19 18  1  0  0  0  0
 20 22  1  6  0  0  0
 20 19  1  0  0  0  0
 22 24  1  0  0  0  0
 23 22  2  0  0  0  0
 26 25  1  0  0  0  0
 27 28  1  0  0  0  0
 27 26  1  0  0  0  0
 29 33  1  6  0  0  0
 29 34  1  0  0  0  0
 30 31  1  0  0  0  0
 31 34  1  0  0  0  0
 31 28  1  1  0  0  0
 32 30  1  0  0  0  0
 32 29  1  0  0  0  0
M  END
>  <MODEL>
9

>  <REMARK>
 VINA RESULT:      -6.3      2.426      6.783
  Name = 
  9 active torsions:
  status: ('A' for Active; 'I' for Inactive)
    1  A    between atoms: C_1  and  C_10
    2  A    between atoms: C_6  and  C_30
    3  A    between atoms: O_11  and  C_12
    4  A    between atoms: O_11  and  C_31
    5  A    between atoms: C_12  and  C_26
    6  A    between atoms: O_15  and  C_16
    7  A    between atoms: O_15  and  C_26
    8  A    between atoms: N_20  and  C_25
    9  A    between atoms: N_33  and  C_34
                            x       y       z     vdW  Elec       q    Type
                         _______ _______ _______ _____ _____    ______ ____

>  <TORSDO>
F 9

$$$$
