=
 OpenBabel11032420223D

 55 59  0  0  1  0  0  0  0  0999 V2000
  186.6770  177.4770  144.1710 C   0  0  2  0  0  3  0  0  0  0  0  0
  186.8090  178.2480  145.5040 C   0  0  2  0  0  3  0  0  0  0  0  0
  187.3730  177.3880  146.5770 C   0  0  2  0  0  3  0  0  0  0  0  0
  186.0010  177.7070  146.5260 O   0  0  0  0  0  0  0  0  0  0  0  0
  188.0760  178.2600  147.6060 C   0  0  0  0  0  2  0  0  0  0  0  0
  189.4580  177.7210  147.9380 C   0  0  0  0  0  2  0  0  0  0  0  0
  189.7310  176.5860  147.1630 O   0  0  0  0  0  0  0  0  0  0  0  0
  190.9950  176.1770  147.5900 C   0  0  0  0  0  2  0  0  0  0  0  0
  191.9640  176.1520  146.4170 C   0  0  0  0  0  2  0  0  0  0  0  0
  191.3740  176.8350  145.1850 C   0  0  1  0  0  3  0  0  0  0  0  0
  191.6950  178.1950  145.1990 O   0  0  0  0  0  1  0  0  0  0  0  0
  192.0320  177.2050  142.7720 C   0  0  0  0  0  1  0  0  0  0  0  0
  191.8450  176.1860  143.8850 C   0  0  2  0  0  3  0  0  0  0  0  0
  190.9280  175.2170  143.4760 O   0  0  0  0  0  1  0  0  0  0  0  0
  187.8390  175.9590  142.7180 O   0  0  0  0  0  1  0  0  0  0  0  0
  188.0060  177.1050  143.4930 C   0  0  1  0  0  3  0  0  0  0  0  0
  188.5010  178.2380  142.6060 C   0  0  0  0  0  2  0  0  0  0  0  0
  187.7460  178.2180  138.9070 C   0  0  1  0  0  3  0  0  0  0  0  0
  187.3100  178.5460  140.3550 C   0  0  0  0  0  2  0  0  0  0  0  0
  188.9340  177.3730  139.0000 N   0  0  0  0  0  2  0  0  0  0  0  0
  188.3070  177.9150  141.2050 N   0  0  0  0  0  0  0  0  0  0  0  0
  190.2560  176.6610  140.8050 O   0  0  0  0  0  0  0  0  0  0  0  0
  189.2410  177.2650  140.3730 C   0  0  0  0  0  0  0  0  0  0  0  0
  186.6650  177.5350  138.1340 C   0  0  0  0  0  3  0  0  0  0  0  0
  185.4330  178.0260  138.0410 C   0  0  0  0  0  3  0  0  0  0  0  0
  182.7570  175.6680  138.4150 C   0  0  0  0  0  3  0  0  0  0  0  0
  184.4370  177.2970  137.2700 C   0  0  0  0  0  3  0  0  0  0  0  0
  183.6090  176.4810  137.8550 C   0  0  0  0  0  0  0  0  0  0  0  0
  181.5040  175.2060  137.7130 C   0  0  1  0  0  3  0  0  0  0  0  0
  182.1450  174.5010  135.5040 O   0  0  0  0  0  1  0  0  0  0  0  0
  180.3910  173.2550  136.5110 C   0  0  0  0  0  1  0  0  0  0  0  0
  182.6420  173.1440  137.2500 O   0  0  0  0  0  1  0  0  0  0  0  0
  181.6880  174.0220  136.7350 C   0  0  0  0  0  0  0  0  0  0  0  0
  180.2690  175.1280  138.6220 C   0  0  0  0  0  2  0  0  0  0  0  0
  180.6140  175.1830  140.1040 C   0  0  0  0  0  2  0  0  0  0  0  0
  179.3060  173.7240  141.6130 C   0  0  0  0  0  1  0  0  0  0  0  0
  179.3460  175.0740  140.9250 C   0  0  0  0  0  2  0  0  0  0  0  0
  185.8510  178.1890  143.2870 O   0  0  0  0  0  0  0  0  0  0  0  0
  184.6330  178.3470  143.9570 C   0  0  0  0  0  2  0  0  0  0  0  0
  183.8700  178.7360  141.5140 C   0  0  0  0  0  2  0  0  0  0  0  0
  183.5510  178.6670  142.9830 C   0  0  0  0  0  0  0  0  0  0  0  0
  182.6450  178.3700  140.6640 C   0  0  0  0  0  2  0  0  0  0  0  0
  182.3350  179.0080  143.4210 C   0  0  0  0  0  3  0  0  0  0  0  0
  181.2500  179.3100  142.4700 C   0  0  0  0  0  3  0  0  0  0  0  0
  181.4010  179.0640  141.1630 C   0  0  0  0  0  0  0  0  0  0  0  0
  180.3580  182.2390  137.9680 C   0  0  0  0  0  3  0  0  0  0  0  0
  180.6530  181.0520  135.8550 C   0  0  0  0  0  3  0  0  0  0  0  0
  180.3610  181.0000  138.6090 C   0  0  0  0  0  0  0  0  0  0  0  0
  180.5050  179.8290  137.9220 C   0  0  0  0  0  0  0  0  0  0  0  0
  180.2270  180.7780  139.9610 O   0  0  0  0  0  0  0  0  0  0  0  0
  180.5030  182.2570  136.5720 C   0  0  0  0  0  3  0  0  0  0  0  0
  180.4730  178.6810  138.8670 C   0  0  0  0  0  2  0  0  0  0  0  0
  180.6550  179.8210  136.5320 C   0  0  0  0  0  0  0  0  0  0  0  0
  180.2740  179.3770  140.2330 C   0  0  1  0  0  3  0  0  0  0  0  0
  180.8560  178.3240  135.6390 Cl  0  0  0  0  0  0  0  0  0  0  0  0
  1 38  1  6  0  0  0
  2  1  1  6  0  0  0
  2  4  1  0  0  0  0
  2  3  1  0  0  0  0
  3  5  1  1  0  0  0
  4  3  1  0  0  0  0
  5  6  1  0  0  0  0
  7  8  1  0  0  0  0
  7  6  1  0  0  0  0
  9  8  1  0  0  0  0
 10 11  1  6  0  0  0
 10  9  1  0  0  0  0
 13 12  1  6  0  0  0
 13 10  1  0  0  0  0
 14 13  1  0  0  0  0
 16 15  1  6  0  0  0
 16  1  1  0  0  0  0
 17 16  1  0  0  0  0
 18 24  1  1  0  0  0
 18 20  1  0  0  0  0
 18 19  1  0  0  0  0
 19 21  1  0  0  0  0
 20 23  1  0  0  0  0
 21 17  1  0  0  0  0
 23 22  2  0  0  0  0
 23 21  1  0  0  0  0
 25 24  2  0  0  0  0
 27 28  2  0  0  0  0
 27 25  1  0  0  0  0
 28 26  2  0  0  0  0
 29 26  1  1  0  0  0
 29 34  1  0  0  0  0
 30 33  1  0  0  0  0
 31 33  1  0  0  0  0
 33 32  1  0  0  0  0
 33 29  1  0  0  0  0
 34 35  1  0  0  0  0
 35 37  1  0  0  0  0
 37 36  1  0  0  0  0
 38 39  1  0  0  0  0
 40 41  1  0  0  0  0
 41 43  2  0  0  0  0
 41 39  1  0  0  0  0
 42 45  1  0  0  0  0
 42 40  1  0  0  0  0
 44 43  1  0  0  0  0
 45 44  2  0  0  0  0
 46 48  1  0  0  0  0
 47 53  2  0  0  0  0
 47 51  1  0  0  0  0
 48 50  1  0  0  0  0
 49 48  2  0  0  0  0
 49 52  1  0  0  0  0
 50 54  1  0  0  0  0
 51 46  2  0  0  0  0
 52 54  1  0  0  0  0
 53 49  1  0  0  0  0
 54 45  1  1  0  0  0
 55 53  1  0  0  0  0
M  END
>  <MODEL>
1

>  <REMARK>
 VINA RESULT:      -7.1      0.000      0.000
  Name = 
  22 active torsions:
  status: ('A' for Active; 'I' for Inactive)
    1  A    between atoms: C_2  and  C_22
    2  A    between atoms: C_3  and  O_18
    3  A    between atoms: C_3  and  C_25
    4  A    between atoms: C_3  and  C_53
    5  A    between atoms: C_4  and  C_7
    6  A    between atoms: C_5  and  N_16
    7  A    between atoms: C_5  and  C_53
    8  A    between atoms: C_11  and  C_14
    9  A    between atoms: C_12  and  C_17
   10  A    between atoms: C_12  and  C_45
   11  A    between atoms: C_14  and  O_18
   12  A    between atoms: C_17  and  C_26
   13  A    between atoms: C_19  and  C_38
   14  A    between atoms: C_22  and  C_48
   15  A    between atoms: C_22  and  C_54
   16  A    between atoms: C_26  and  O_31
   17  A    between atoms: O_31  and  C_44
   18  A    between atoms: C_33  and  C_39
   19  A    between atoms: C_35  and  C_52
   20  A    between atoms: C_39  and  C_44
   21  A    between atoms: C_40  and  C_41
   22  A    between atoms: C_40  and  C_54
                            x       y       z     vdW  Elec       q    Type
                         _______ _______ _______ _____ _____    ______ ____

>  <TORSDO>
F 22

$$$$
=
 OpenBabel11032420223D

 55 59  0  0  1  0  0  0  0  0999 V2000
  181.0240  176.0660  139.3230 C   0  0  2  0  0  3  0  0  0  0  0  0
  180.6930  175.1400  138.1310 C   0  0  2  0  0  3  0  0  0  0  0  0
  179.9500  173.9310  138.5700 C   0  0  2  0  0  3  0  0  0  0  0  0
  181.3170  173.8800  138.2330 O   0  0  0  0  0  0  0  0  0  0  0  0
  179.1060  173.4090  137.4170 C   0  0  0  0  0  2  0  0  0  0  0  0
  179.4340  171.9570  137.1040 C   0  0  0  0  0  2  0  0  0  0  0  0
  179.3690  171.7370  135.7220 O   0  0  0  0  0  0  0  0  0  0  0  0
  180.5590  172.2790  135.2350 C   0  0  0  0  0  2  0  0  0  0  0  0
  181.7490  171.4800  135.7460 C   0  0  0  0  0  2  0  0  0  0  0  0
  183.0670  172.2070  135.4900 C   0  0  1  0  0  3  0  0  0  0  0  0
  182.8440  173.5860  135.4390 O   0  0  0  0  0  1  0  0  0  0  0  0
  184.5290  173.0950  137.3520 C   0  0  0  0  0  1  0  0  0  0  0  0
  184.1230  171.8730  136.5420 C   0  0  2  0  0  3  0  0  0  0  0  0
  185.2510  171.3280  135.9280 O   0  0  0  0  0  1  0  0  0  0  0  0
  179.7690  175.8820  141.3620 O   0  0  0  0  0  1  0  0  0  0  0  0
  179.8120  176.5470  140.1380 C   0  0  1  0  0  3  0  0  0  0  0  0
  179.8820  178.0460  140.3870 C   0  0  0  0  0  2  0  0  0  0  0  0
  182.2580  179.3730  143.0040 C   0  0  1  0  0  3  0  0  0  0  0  0
  182.0170  178.8220  141.5780 C   0  0  0  0  0  2  0  0  0  0  0  0
  181.0410  179.1220  143.7690 N   0  0  0  0  0  2  0  0  0  0  0  0
  180.6490  178.3320  141.5850 N   0  0  0  0  0  0  0  0  0  0  0  0
  178.9310  178.2700  143.1900 O   0  0  0  0  0  0  0  0  0  0  0  0
  180.1150  178.5460  142.8720 C   0  0  0  0  0  0  0  0  0  0  0  0
  183.4420  178.7400  143.6600 C   0  0  0  0  0  3  0  0  0  0  0  0
  183.7870  178.9990  144.9170 C   0  0  0  0  0  3  0  0  0  0  0  0
  186.8900  177.4750  143.9640 C   0  0  0  0  0  3  0  0  0  0  0  0
  184.9570  178.3420  145.4800 C   0  0  0  0  0  3  0  0  0  0  0  0
  185.9110  177.9070  144.7090 C   0  0  0  0  0  0  0  0  0  0  0  0
  188.2490  177.1440  144.5310 C   0  0  1  0  0  3  0  0  0  0  0  0
  190.4410  176.2880  144.0370 O   0  0  0  0  0  1  0  0  0  0  0  0
  189.9270  178.4030  143.0870 C   0  0  0  0  0  1  0  0  0  0  0  0
  188.9220  176.3830  142.3570 O   0  0  0  0  0  1  0  0  0  0  0  0
  189.3920  177.0370  143.4960 C   0  0  0  0  0  0  0  0  0  0  0  0
  188.5910  177.9040  145.8210 C   0  0  0  0  0  2  0  0  0  0  0  0
  189.1250  177.0010  146.9230 C   0  0  0  0  0  2  0  0  0  0  0  0
  187.4430  178.3470  148.1370 C   0  0  0  0  0  1  0  0  0  0  0  0
  188.7310  177.5600  148.2740 C   0  0  0  0  0  2  0  0  0  0  0  0
  181.7900  177.1570  138.8830 O   0  0  0  0  0  0  0  0  0  0  0  0
  182.2690  176.7940  137.6200 C   0  0  0  0  0  2  0  0  0  0  0  0
  184.1690  178.4250  138.2770 C   0  0  0  0  0  2  0  0  0  0  0  0
  183.6690  177.2740  137.4470 C   0  0  0  0  0  0  0  0  0  0  0  0
  185.6840  178.3290  138.5040 C   0  0  0  0  0  2  0  0  0  0  0  0
  184.4360  176.7650  136.4770 C   0  0  0  0  0  3  0  0  0  0  0  0
  185.8290  177.2180  136.3050 C   0  0  0  0  0  3  0  0  0  0  0  0
  186.4120  177.9960  137.2230 C   0  0  0  0  0  0  0  0  0  0  0  0
  190.4590  177.6930  139.4370 C   0  0  0  0  0  3  0  0  0  0  0  0
  191.6820  175.9950  138.1770 C   0  0  0  0  0  3  0  0  0  0  0  0
  189.5760  177.7850  138.3620 C   0  0  0  0  0  0  0  0  0  0  0  0
  189.7200  177.0240  137.2370 C   0  0  0  0  0  0  0  0  0  0  0  0
  188.4810  178.6140  138.2720 O   0  0  0  0  0  0  0  0  0  0  0  0
  191.5260  176.7850  139.3350 C   0  0  0  0  0  3  0  0  0  0  0  0
  188.6350  177.3380  136.2710 C   0  0  0  0  0  2  0  0  0  0  0  0
  190.7720  176.1120  137.1130 C   0  0  0  0  0  0  0  0  0  0  0  0
  187.8280  178.4260  137.0150 C   0  0  1  0  0  3  0  0  0  0  0  0
  190.9610  175.1170  135.6800 Cl  0  0  0  0  0  0  0  0  0  0  0  0
  1 38  1  6  0  0  0
  1 16  1  0  0  0  0
  2  4  1  0  0  0  0
  2  3  1  0  0  0  0
  2  1  1  1  0  0  0
  3  5  1  6  0  0  0
  4  3  1  0  0  0  0
  6  5  1  0  0  0  0
  7  6  1  0  0  0  0
  8  7  1  0  0  0  0
  8  9  1  0  0  0  0
 10 11  1  1  0  0  0
 10  9  1  0  0  0  0
 10 13  1  0  0  0  0
 13 12  1  6  0  0  0
 14 13  1  0  0  0  0
 16 17  1  0  0  0  0
 16 15  1  1  0  0  0
 17 21  1  0  0  0  0
 18 24  1  1  0  0  0
 18 20  1  0  0  0  0
 19 21  1  0  0  0  0
 19 18  1  0  0  0  0
 21 23  1  0  0  0  0
 23 22  2  0  0  0  0
 23 20  1  0  0  0  0
 24 25  2  0  0  0  0
 25 27  1  0  0  0  0
 26 28  2  0  0  0  0
 28 27  2  0  0  0  0
 29 26  1  6  0  0  0
 29 34  1  0  0  0  0
 31 33  1  0  0  0  0
 32 33  1  0  0  0  0
 33 30  1  0  0  0  0
 33 29  1  0  0  0  0
 34 35  1  0  0  0  0
 35 37  1  0  0  0  0
 36 37  1  0  0  0  0
 39 38  1  0  0  0  0
 40 42  1  0  0  0  0
 41 39  1  0  0  0  0
 41 40  1  0  0  0  0
 43 41  2  0  0  0  0
 44 43  1  0  0  0  0
 44 45  2  0  0  0  0
 45 42  1  0  0  0  0
 47 51  2  0  0  0  0
 48 46  2  0  0  0  0
 49 48  1  0  0  0  0
 50 48  1  0  0  0  0
 51 46  1  0  0  0  0
 52 54  1  0  0  0  0
 52 49  1  0  0  0  0
 53 49  2  0  0  0  0
 53 47  1  0  0  0  0
 54 45  1  1  0  0  0
 54 50  1  0  0  0  0
 55 53  1  0  0  0  0
M  END
>  <MODEL>
2

>  <REMARK>
 VINA RESULT:      -7.0      3.144     10.265
  Name = 
  22 active torsions:
  status: ('A' for Active; 'I' for Inactive)
    1  A    between atoms: C_2  and  C_22
    2  A    between atoms: C_3  and  O_18
    3  A    between atoms: C_3  and  C_25
    4  A    between atoms: C_3  and  C_53
    5  A    between atoms: C_4  and  C_7
    6  A    between atoms: C_5  and  N_16
    7  A    between atoms: C_5  and  C_53
    8  A    between atoms: C_11  and  C_14
    9  A    between atoms: C_12  and  C_17
   10  A    between atoms: C_12  and  C_45
   11  A    between atoms: C_14  and  O_18
   12  A    between atoms: C_17  and  C_26
   13  A    between atoms: C_19  and  C_38
   14  A    between atoms: C_22  and  C_48
   15  A    between atoms: C_22  and  C_54
   16  A    between atoms: C_26  and  O_31
   17  A    between atoms: O_31  and  C_44
   18  A    between atoms: C_33  and  C_39
   19  A    between atoms: C_35  and  C_52
   20  A    between atoms: C_39  and  C_44
   21  A    between atoms: C_40  and  C_41
   22  A    between atoms: C_40  and  C_54
                            x       y       z     vdW  Elec       q    Type
                         _______ _______ _______ _____ _____    ______ ____

>  <TORSDO>
F 22

$$$$
=
 OpenBabel11032420223D

 55 59  0  0  1  0  0  0  0  0999 V2000
  186.5080  177.6050  143.6710 C   0  0  2  0  0  3  0  0  0  0  0  0
  186.2570  178.4260  144.9570 C   0  0  2  0  0  3  0  0  0  0  0  0
  186.3010  177.5680  146.1690 C   0  0  2  0  0  3  0  0  0  0  0  0
  185.0830  178.0320  145.6320 O   0  0  0  0  0  0  0  0  0  0  0  0
  186.6980  178.4120  147.3710 C   0  0  0  0  0  2  0  0  0  0  0  0
  187.7290  177.6990  148.2310 C   0  0  0  0  0  2  0  0  0  0  0  0
  188.8450  178.5230  148.4270 O   0  0  0  0  0  0  0  0  0  0  0  0
  189.9310  177.7060  148.1100 C   0  0  0  0  0  2  0  0  0  0  0  0
  190.0770  177.5880  146.6000 C   0  0  0  0  0  2  0  0  0  0  0  0
  191.3140  176.7810  146.2150 C   0  0  1  0  0  3  0  0  0  0  0  0
  191.3930  175.6300  147.0040 O   0  0  0  0  0  1  0  0  0  0  0  0
  192.0940  175.1300  144.4650 C   0  0  0  0  0  1  0  0  0  0  0  0
  191.3260  176.4160  144.7320 C   0  0  2  0  0  3  0  0  0  0  0  0
  191.8910  177.4550  143.9900 O   0  0  0  0  0  1  0  0  0  0  0  0
  188.0150  176.0240  142.6740 O   0  0  0  0  0  1  0  0  0  0  0  0
  187.9710  177.1930  143.4310 C   0  0  1  0  0  3  0  0  0  0  0  0
  188.7320  178.2890  142.7020 C   0  0  0  0  0  2  0  0  0  0  0  0
  188.9460  178.1920  138.9340 C   0  0  1  0  0  3  0  0  0  0  0  0
  188.1400  178.5080  140.2160 C   0  0  0  0  0  2  0  0  0  0  0  0
  190.1120  177.4160  139.3440 N   0  0  0  0  0  2  0  0  0  0  0  0
  188.9180  177.9430  141.3060 N   0  0  0  0  0  0  0  0  0  0  0  0
  190.9670  176.7950  141.4410 O   0  0  0  0  0  0  0  0  0  0  0  0
  190.0660  177.3370  140.7530 C   0  0  0  0  0  0  0  0  0  0  0  0
  188.1340  177.4430  137.9280 C   0  0  0  0  0  3  0  0  0  0  0  0
  187.2730  178.0440  137.1110 C   0  0  0  0  0  3  0  0  0  0  0  0
  185.7370  174.8250  136.7450 C   0  0  0  0  0  3  0  0  0  0  0  0
  186.5190  177.2410  136.1620 C   0  0  0  0  0  3  0  0  0  0  0  0
  186.1420  176.0320  136.4640 C   0  0  0  0  0  0  0  0  0  0  0  0
  184.6580  174.1320  135.9500 C   0  0  1  0  0  3  0  0  0  0  0  0
  184.5130  172.4830  137.6950 O   0  0  0  0  0  1  0  0  0  0  0  0
  185.4200  171.7220  135.6360 C   0  0  0  0  0  1  0  0  0  0  0  0
  183.1310  172.2800  135.9100 O   0  0  0  0  0  1  0  0  0  0  0  0
  184.4160  172.6480  136.3110 C   0  0  0  0  0  0  0  0  0  0  0  0
  183.3930  174.9780  135.7420 C   0  0  0  0  0  2  0  0  0  0  0  0
  182.7870  175.4760  137.0460 C   0  0  0  0  0  2  0  0  0  0  0  0
  182.5610  177.5140  135.6640 C   0  0  0  0  0  1  0  0  0  0  0  0
  182.7970  176.9910  137.0670 C   0  0  0  0  0  2  0  0  0  0  0  0
  185.9960  178.2900  142.5580 O   0  0  0  0  0  0  0  0  0  0  0  0
  185.0220  179.1560  143.0660 C   0  0  0  0  0  2  0  0  0  0  0  0
  183.6510  178.6190  140.9370 C   0  0  0  0  0  2  0  0  0  0  0  0
  183.7090  178.8860  142.4160 C   0  0  0  0  0  0  0  0  0  0  0  0
  182.4640  177.7140  140.5820 C   0  0  0  0  0  2  0  0  0  0  0  0
  182.5780  178.9970  143.1210 C   0  0  0  0  0  3  0  0  0  0  0  0
  181.2730  178.7160  142.4970 C   0  0  0  0  0  3  0  0  0  0  0  0
  181.2030  178.1610  141.2820 C   0  0  0  0  0  0  0  0  0  0  0  0
  179.1690  178.3560  137.1350 C   0  0  0  0  0  3  0  0  0  0  0  0
  179.0120  176.0150  136.4570 C   0  0  0  0  0  3  0  0  0  0  0  0
  179.4220  177.9130  138.4330 C   0  0  0  0  0  0  0  0  0  0  0  0
  179.4740  176.5850  138.7490 C   0  0  0  0  0  0  0  0  0  0  0  0
  179.6450  178.7030  139.5380 O   0  0  0  0  0  0  0  0  0  0  0  0
  178.9600  177.3880  136.1390 C   0  0  0  0  0  3  0  0  0  0  0  0
  179.7610  176.4210  140.1980 C   0  0  0  0  0  2  0  0  0  0  0  0
  179.2710  175.6030  137.7740 C   0  0  0  0  0  0  0  0  0  0  0  0
  179.8600  177.8830  140.6880 C   0  0  1  0  0  3  0  0  0  0  0  0
  179.3500  173.8940  138.1640 Cl  0  0  0  0  0  0  0  0  0  0  0  0
  1 38  1  6  0  0  0
  2  1  1  6  0  0  0
  2  4  1  0  0  0  0
  2  3  1  0  0  0  0
  3  5  1  1  0  0  0
  4  3  1  0  0  0  0
  5  6  1  0  0  0  0
  6  7  1  0  0  0  0
  8  7  1  0  0  0  0
  9  8  1  0  0  0  0
 10  9  1  0  0  0  0
 10 11  1  1  0  0  0
 13 12  1  1  0  0  0
 13 10  1  0  0  0  0
 14 13  1  0  0  0  0
 16 15  1  6  0  0  0
 16  1  1  0  0  0  0
 17 16  1  0  0  0  0
 18 24  1  6  0  0  0
 18 20  1  0  0  0  0
 18 19  1  0  0  0  0
 19 21  1  0  0  0  0
 20 23  1  0  0  0  0
 21 17  1  0  0  0  0
 23 21  1  0  0  0  0
 23 22  2  0  0  0  0
 25 24  2  0  0  0  0
 27 28  2  0  0  0  0
 27 25  1  0  0  0  0
 28 26  2  0  0  0  0
 29 34  1  1  0  0  0
 29 33  1  0  0  0  0
 29 26  1  0  0  0  0
 31 33  1  0  0  0  0
 32 33  1  0  0  0  0
 33 30  1  0  0  0  0
 34 35  1  0  0  0  0
 35 37  1  0  0  0  0
 36 37  1  0  0  0  0
 38 39  1  0  0  0  0
 40 41  1  0  0  0  0
 41 39  1  0  0  0  0
 41 43  2  0  0  0  0
 42 40  1  0  0  0  0
 42 45  1  0  0  0  0
 44 43  1  0  0  0  0
 45 44  2  0  0  0  0
 46 48  1  0  0  0  0
 47 53  2  0  0  0  0
 48 49  2  0  0  0  0
 48 50  1  0  0  0  0
 49 52  1  0  0  0  0
 50 54  1  0  0  0  0
 51 47  1  0  0  0  0
 51 46  2  0  0  0  0
 52 54  1  0  0  0  0
 53 55  1  0  0  0  0
 53 49  1  0  0  0  0
 54 45  1  6  0  0  0
M  END
>  <MODEL>
3

>  <REMARK>
 VINA RESULT:      -6.5      1.866      2.845
  Name = 
  22 active torsions:
  status: ('A' for Active; 'I' for Inactive)
    1  A    between atoms: C_2  and  C_22
    2  A    between atoms: C_3  and  O_18
    3  A    between atoms: C_3  and  C_25
    4  A    between atoms: C_3  and  C_53
    5  A    between atoms: C_4  and  C_7
    6  A    between atoms: C_5  and  N_16
    7  A    between atoms: C_5  and  C_53
    8  A    between atoms: C_11  and  C_14
    9  A    between atoms: C_12  and  C_17
   10  A    between atoms: C_12  and  C_45
   11  A    between atoms: C_14  and  O_18
   12  A    between atoms: C_17  and  C_26
   13  A    between atoms: C_19  and  C_38
   14  A    between atoms: C_22  and  C_48
   15  A    between atoms: C_22  and  C_54
   16  A    between atoms: C_26  and  O_31
   17  A    between atoms: O_31  and  C_44
   18  A    between atoms: C_33  and  C_39
   19  A    between atoms: C_35  and  C_52
   20  A    between atoms: C_39  and  C_44
   21  A    between atoms: C_40  and  C_41
   22  A    between atoms: C_40  and  C_54
                            x       y       z     vdW  Elec       q    Type
                         _______ _______ _______ _____ _____    ______ ____

>  <TORSDO>
F 22

$$$$
=
 OpenBabel11032420223D

 55 59  0  0  1  0  0  0  0  0999 V2000
  183.3190  179.5410  143.9990 C   0  0  2  0  0  3  0  0  0  0  0  0
  183.9470  178.8970  145.2570 C   0  0  2  0  0  3  0  0  0  0  0  0
  185.3890  179.2330  145.3780 C   0  0  2  0  0  3  0  0  0  0  0  0
  184.9570  177.9650  144.9420 O   0  0  0  0  0  0  0  0  0  0  0  0
  185.8010  179.1710  146.8420 C   0  0  0  0  0  2  0  0  0  0  0  0
  186.7330  177.9990  147.1060 C   0  0  0  0  0  2  0  0  0  0  0  0
  188.0670  178.4050  146.9730 O   0  0  0  0  0  0  0  0  0  0  0  0
  188.5440  177.6580  145.8960 C   0  0  0  0  0  2  0  0  0  0  0  0
  189.9460  177.1440  146.1930 C   0  0  0  0  0  2  0  0  0  0  0  0
  190.8300  177.1690  144.9480 C   0  0  1  0  0  3  0  0  0  0  0  0
  191.7230  176.0950  144.9810 O   0  0  0  0  0  1  0  0  0  0  0  0
  190.1710  175.8330  142.9040 C   0  0  0  0  0  1  0  0  0  0  0  0
  190.0100  177.1440  143.6590 C   0  0  2  0  0  3  0  0  0  0  0  0
  190.3890  178.2030  142.8330 O   0  0  0  0  0  1  0  0  0  0  0  0
  181.3920  178.1900  144.4760 O   0  0  0  0  0  1  0  0  0  0  0  0
  182.0810  178.8190  143.4410 C   0  0  1  0  0  3  0  0  0  0  0  0
  181.1480  179.7980  142.7430 C   0  0  0  0  0  2  0  0  0  0  0  0
  180.0810  177.9410  139.6340 C   0  0  1  0  0  3  0  0  0  0  0  0
  180.8410  177.9590  140.9820 C   0  0  0  0  0  2  0  0  0  0  0  0
  179.7460  179.3260  139.3150 N   0  0  0  0  0  2  0  0  0  0  0  0
  180.8530  179.3520  141.3950 N   0  0  0  0  0  0  0  0  0  0  0  0
  179.9890  181.3440  140.4900 O   0  0  0  0  0  0  0  0  0  0  0  0
  180.1870  180.1060  140.4060 C   0  0  0  0  0  0  0  0  0  0  0  0
  180.8890  177.3220  138.5400 C   0  0  0  0  0  3  0  0  0  0  0  0
  181.9930  177.8860  138.0580 C   0  0  0  0  0  3  0  0  0  0  0  0
  183.7200  174.8330  137.3100 C   0  0  0  0  0  3  0  0  0  0  0  0
  182.7210  177.2180  136.9900 C   0  0  0  0  0  3  0  0  0  0  0  0
  183.2210  176.0290  137.1670 C   0  0  0  0  0  0  0  0  0  0  0  0
  184.1340  173.9870  136.1310 C   0  0  1  0  0  3  0  0  0  0  0  0
  184.0330  171.7430  136.9920 O   0  0  0  0  0  1  0  0  0  0  0  0
  186.0120  172.9530  137.5070 C   0  0  0  0  0  1  0  0  0  0  0  0
  185.5000  172.1870  135.3220 O   0  0  0  0  0  1  0  0  0  0  0  0
  184.9150  172.6990  136.4800 C   0  0  0  0  0  0  0  0  0  0  0  0
  183.0460  173.8320  135.0590 C   0  0  0  0  0  2  0  0  0  0  0  0
  181.7090  173.3740  135.6250 C   0  0  0  0  0  2  0  0  0  0  0  0
  179.7680  174.8150  136.1460 C   0  0  0  0  0  1  0  0  0  0  0  0
  180.5930  174.2060  135.0300 C   0  0  0  0  0  2  0  0  0  0  0  0
  184.2950  179.6930  143.0020 O   0  0  0  0  0  0  0  0  0  0  0  0
  184.0890  178.6350  142.1100 C   0  0  0  0  0  2  0  0  0  0  0  0
  186.5990  178.8580  141.5170 C   0  0  0  0  0  2  0  0  0  0  0  0
  185.1770  178.6040  141.0930 C   0  0  0  0  0  0  0  0  0  0  0  0
  187.5890  178.1290  140.5990 C   0  0  0  0  0  2  0  0  0  0  0  0
  184.8790  178.4700  139.7970 C   0  0  0  0  0  3  0  0  0  0  0  0
  185.9450  178.4200  138.7810 C   0  0  0  0  0  3  0  0  0  0  0  0
  187.2290  178.3120  139.1430 C   0  0  0  0  0  0  0  0  0  0  0  0
  191.3240  176.2770  138.4630 C   0  0  0  0  0  3  0  0  0  0  0  0
  190.8250  174.4910  136.8740 C   0  0  0  0  0  3  0  0  0  0  0  0
  190.0900  176.8420  138.1420 C   0  0  0  0  0  0  0  0  0  0  0  0
  189.2460  176.2710  137.2320 C   0  0  0  0  0  0  0  0  0  0  0  0
  189.5590  178.0000  138.6630 O   0  0  0  0  0  0  0  0  0  0  0  0
  191.6910  175.0870  137.8150 C   0  0  0  0  0  3  0  0  0  0  0  0
  188.0140  177.0920  137.1000 C   0  0  0  0  0  2  0  0  0  0  0  0
  189.5880  175.0850  136.5760 C   0  0  0  0  0  0  0  0  0  0  0  0
  188.2790  178.2550  138.0820 C   0  0  1  0  0  3  0  0  0  0  0  0
  188.5070  174.3330  135.4160 Cl  0  0  0  0  0  0  0  0  0  0  0  0
  1 38  1  6  0  0  0
  2  1  1  6  0  0  0
  2  3  1  0  0  0  0
  3  5  1  1  0  0  0
  4  2  1  0  0  0  0
  4  3  1  0  0  0  0
  5  6  1  0  0  0  0
  7  6  1  0  0  0  0
  8  9  1  0  0  0  0
  8  7  1  0  0  0  0
 10 11  1  1  0  0  0
 10  9  1  0  0  0  0
 13 12  1  6  0  0  0
 13 10  1  0  0  0  0
 14 13  1  0  0  0  0
 16  1  1  0  0  0  0
 16 15  1  1  0  0  0
 17 16  1  0  0  0  0
 18 24  1  6  0  0  0
 18 19  1  0  0  0  0
 19 21  1  0  0  0  0
 20 18  1  0  0  0  0
 20 23  1  0  0  0  0
 21 17  1  0  0  0  0
 23 22  2  0  0  0  0
 23 21  1  0  0  0  0
 25 24  2  0  0  0  0
 27 28  2  0  0  0  0
 27 25  1  0  0  0  0
 28 26  2  0  0  0  0
 29 34  1  1  0  0  0
 29 33  1  0  0  0  0
 29 26  1  0  0  0  0
 32 33  1  0  0  0  0
 33 30  1  0  0  0  0
 33 31  1  0  0  0  0
 34 35  1  0  0  0  0
 37 35  1  0  0  0  0
 37 36  1  0  0  0  0
 39 38  1  0  0  0  0
 41 40  1  0  0  0  0
 41 39  1  0  0  0  0
 42 40  1  0  0  0  0
 43 41  2  0  0  0  0
 44 45  2  0  0  0  0
 44 43  1  0  0  0  0
 45 42  1  0  0  0  0
 47 51  1  0  0  0  0
 48 46  1  0  0  0  0
 48 50  1  0  0  0  0
 49 48  2  0  0  0  0
 51 46  2  0  0  0  0
 52 49  1  0  0  0  0
 52 54  1  0  0  0  0
 53 47  2  0  0  0  0
 53 49  1  0  0  0  0
 54 50  1  0  0  0  0
 54 45  1  1  0  0  0
 55 53  1  0  0  0  0
M  END
>  <MODEL>
4

>  <REMARK>
 VINA RESULT:      -6.1      2.904      6.307
  Name = 
  22 active torsions:
  status: ('A' for Active; 'I' for Inactive)
    1  A    between atoms: C_2  and  C_22
    2  A    between atoms: C_3  and  O_18
    3  A    between atoms: C_3  and  C_25
    4  A    between atoms: C_3  and  C_53
    5  A    between atoms: C_4  and  C_7
    6  A    between atoms: C_5  and  N_16
    7  A    between atoms: C_5  and  C_53
    8  A    between atoms: C_11  and  C_14
    9  A    between atoms: C_12  and  C_17
   10  A    between atoms: C_12  and  C_45
   11  A    between atoms: C_14  and  O_18
   12  A    between atoms: C_17  and  C_26
   13  A    between atoms: C_19  and  C_38
   14  A    between atoms: C_22  and  C_48
   15  A    between atoms: C_22  and  C_54
   16  A    between atoms: C_26  and  O_31
   17  A    between atoms: O_31  and  C_44
   18  A    between atoms: C_33  and  C_39
   19  A    between atoms: C_35  and  C_52
   20  A    between atoms: C_39  and  C_44
   21  A    between atoms: C_40  and  C_41
   22  A    between atoms: C_40  and  C_54
                            x       y       z     vdW  Elec       q    Type
                         _______ _______ _______ _____ _____    ______ ____

>  <TORSDO>
F 22

$$$$
=
 OpenBabel11032420223D

 55 59  0  0  1  0  0  0  0  0999 V2000
  188.4130  177.5150  140.7490 C   0  0  2  0  0  3  0  0  0  0  0  0
  189.0780  177.4140  142.1400 C   0  0  2  0  0  3  0  0  0  0  0  0
  190.1620  176.3980  142.1530 C   0  0  2  0  0  3  0  0  0  0  0  0
  188.9030  176.1460  142.7340 O   0  0  0  0  0  0  0  0  0  0  0  0
  191.1750  176.7530  143.2310 C   0  0  0  0  0  2  0  0  0  0  0  0
  191.5030  178.2380  143.2150 C   0  0  0  0  0  2  0  0  0  0  0  0
  191.0390  178.8470  144.3890 O   0  0  0  0  0  0  0  0  0  0  0  0
  190.8620  177.7840  145.2760 C   0  0  0  0  0  2  0  0  0  0  0  0
  189.4220  177.7430  145.7660 C   0  0  0  0  0  2  0  0  0  0  0  0
  189.2630  176.8130  146.9670 C   0  0  1  0  0  3  0  0  0  0  0  0
  190.5130  176.3270  147.3580 O   0  0  0  0  0  1  0  0  0  0  0  0
  187.2770  178.1900  147.7120 C   0  0  0  0  0  1  0  0  0  0  0  0
  188.5640  177.5010  148.1380 C   0  0  2  0  0  3  0  0  0  0  0  0
  189.4200  178.4380  148.7200 O   0  0  0  0  0  1  0  0  0  0  0  0
  189.1910  176.2150  138.8850 O   0  0  0  0  0  1  0  0  0  0  0  0
  189.3760  177.4240  139.5520 C   0  0  1  0  0  3  0  0  0  0  0  0
  189.1450  178.5710  138.5800 C   0  0  0  0  0  2  0  0  0  0  0  0
  187.1040  178.0880  135.4410 C   0  0  1  0  0  3  0  0  0  0  0  0
  187.1770  178.4710  136.9390 C   0  0  0  0  0  2  0  0  0  0  0  0
  188.3770  177.4620  135.0990 N   0  0  0  0  0  2  0  0  0  0  0  0
  188.5150  178.0940  137.3640 N   0  0  0  0  0  0  0  0  0  0  0  0
  190.3780  177.1460  136.2860 O   0  0  0  0  0  0  0  0  0  0  0  0
  189.1820  177.5320  136.2560 C   0  0  0  0  0  0  0  0  0  0  0  0
  185.9630  177.1690  135.1500 C   0  0  0  0  0  3  0  0  0  0  0  0
  184.8430  177.1670  135.8670 C   0  0  0  0  0  3  0  0  0  0  0  0
  183.0300  174.3540  137.1560 C   0  0  0  0  0  3  0  0  0  0  0  0
  183.7790  176.2380  135.5190 C   0  0  0  0  0  3  0  0  0  0  0  0
  183.4210  175.2970  136.3440 C   0  0  0  0  0  0  0  0  0  0  0  0
  181.7120  173.6390  136.9850 C   0  0  1  0  0  3  0  0  0  0  0  0
  181.0020  171.4780  137.7640 O   0  0  0  0  0  1  0  0  0  0  0  0
  183.2340  171.5970  136.9600 C   0  0  0  0  0  1  0  0  0  0  0  0
  181.3420  171.7590  135.5400 O   0  0  0  0  0  1  0  0  0  0  0  0
  181.8060  172.1060  136.8090 C   0  0  0  0  0  0  0  0  0  0  0  0
  180.6060  174.1320  137.9290 C   0  0  0  0  0  2  0  0  0  0  0  0
  180.9860  175.3940  138.6890 C   0  0  0  0  0  2  0  0  0  0  0  0
  179.3920  174.2420  140.1870 C   0  0  0  0  0  1  0  0  0  0  0  0
  180.4620  175.3120  140.1070 C   0  0  0  0  0  2  0  0  0  0  0  0
  187.6360  178.6810  140.6730 O   0  0  0  0  0  0  0  0  0  0  0  0
  186.7140  178.5860  141.7210 C   0  0  0  0  0  2  0  0  0  0  0  0
  185.1080  179.1060  139.7580 C   0  0  0  0  0  2  0  0  0  0  0  0
  185.3260  178.7090  141.1920 C   0  0  0  0  0  0  0  0  0  0  0  0
  183.7980  178.5210  139.2130 C   0  0  0  0  0  2  0  0  0  0  0  0
  184.2820  178.5830  142.0180 C   0  0  0  0  0  3  0  0  0  0  0  0
  182.9030  178.6840  141.5080 C   0  0  0  0  0  3  0  0  0  0  0  0
  182.6630  178.7090  140.1920 C   0  0  0  0  0  0  0  0  0  0  0  0
  179.3320  181.9030  139.9120 C   0  0  0  0  0  3  0  0  0  0  0  0
  179.2780  182.4760  137.5390 C   0  0  0  0  0  3  0  0  0  0  0  0
  180.0700  180.7690  139.5720 C   0  0  0  0  0  0  0  0  0  0  0  0
  180.4090  180.4850  138.2800 C   0  0  0  0  0  0  0  0  0  0  0  0
  180.5450  179.8120  140.4400 O   0  0  0  0  0  0  0  0  0  0  0  0
  178.9320  182.7620  138.8760 C   0  0  0  0  0  3  0  0  0  0  0  0
  181.1930  179.2230  138.2290 C   0  0  0  0  0  2  0  0  0  0  0  0
  180.0250  181.3270  137.2320 C   0  0  0  0  0  0  0  0  0  0  0  0
  181.2500  178.8030  139.7140 C   0  0  1  0  0  3  0  0  0  0  0  0
  180.4670  180.9820  135.5690 Cl  0  0  0  0  0  0  0  0  0  0  0  0
  1 38  1  1  0  0  0
  2  1  1  6  0  0  0
  2  3  1  0  0  0  0
  2  4  1  0  0  0  0
  3  4  1  0  0  0  0
  3  5  1  1  0  0  0
  6  5  1  0  0  0  0
  6  7  1  0  0  0  0
  7  8  1  0  0  0  0
  8  9  1  0  0  0  0
  9 10  1  0  0  0  0
 10 11  1  1  0  0  0
 10 13  1  0  0  0  0
 13 12  1  6  0  0  0
 13 14  1  0  0  0  0
 16 15  1  6  0  0  0
 16  1  1  0  0  0  0
 17 16  1  0  0  0  0
 18 24  1  1  0  0  0
 18 19  1  0  0  0  0
 19 21  1  0  0  0  0
 20 18  1  0  0  0  0
 20 23  1  0  0  0  0
 21 17  1  0  0  0  0
 23 22  2  0  0  0  0
 23 21  1  0  0  0  0
 24 25  2  0  0  0  0
 27 25  1  0  0  0  0
 27 28  2  0  0  0  0
 28 26  2  0  0  0  0
 29 26  1  1  0  0  0
 29 34  1  0  0  0  0
 32 33  1  0  0  0  0
 33 31  1  0  0  0  0
 33 29  1  0  0  0  0
 33 30  1  0  0  0  0
 34 35  1  0  0  0  0
 35 37  1  0  0  0  0
 37 36  1  0  0  0  0
 38 39  1  0  0  0  0
 40 41  1  0  0  0  0
 41 39  1  0  0  0  0
 41 43  2  0  0  0  0
 42 40  1  0  0  0  0
 42 45  1  0  0  0  0
 44 43  1  0  0  0  0
 45 44  2  0  0  0  0
 47 51  1  0  0  0  0
 48 46  1  0  0  0  0
 48 50  1  0  0  0  0
 49 48  2  0  0  0  0
 51 46  2  0  0  0  0
 52 49  1  0  0  0  0
 52 54  1  0  0  0  0
 53 47  2  0  0  0  0
 53 49  1  0  0  0  0
 54 45  1  1  0  0  0
 54 50  1  0  0  0  0
 55 53  1  0  0  0  0
M  END
>  <MODEL>
5

>  <REMARK>
 VINA RESULT:      -6.1      1.850      3.335
  Name = 
  22 active torsions:
  status: ('A' for Active; 'I' for Inactive)
    1  A    between atoms: C_2  and  C_22
    2  A    between atoms: C_3  and  O_18
    3  A    between atoms: C_3  and  C_25
    4  A    between atoms: C_3  and  C_53
    5  A    between atoms: C_4  and  C_7
    6  A    between atoms: C_5  and  N_16
    7  A    between atoms: C_5  and  C_53
    8  A    between atoms: C_11  and  C_14
    9  A    between atoms: C_12  and  C_17
   10  A    between atoms: C_12  and  C_45
   11  A    between atoms: C_14  and  O_18
   12  A    between atoms: C_17  and  C_26
   13  A    between atoms: C_19  and  C_38
   14  A    between atoms: C_22  and  C_48
   15  A    between atoms: C_22  and  C_54
   16  A    between atoms: C_26  and  O_31
   17  A    between atoms: O_31  and  C_44
   18  A    between atoms: C_33  and  C_39
   19  A    between atoms: C_35  and  C_52
   20  A    between atoms: C_39  and  C_44
   21  A    between atoms: C_40  and  C_41
   22  A    between atoms: C_40  and  C_54
                            x       y       z     vdW  Elec       q    Type
                         _______ _______ _______ _____ _____    ______ ____

>  <TORSDO>
F 22

$$$$
=
 OpenBabel11032420223D

 55 59  0  0  1  0  0  0  0  0999 V2000
  188.5740  177.0190  137.3760 C   0  0  2  0  0  3  0  0  0  0  0  0
  189.0210  176.6020  135.9560 C   0  0  2  0  0  3  0  0  0  0  0  0
  190.1860  175.6810  136.0000 C   0  0  2  0  0  3  0  0  0  0  0  0
  190.3270  177.0380  135.6490 O   0  0  0  0  0  0  0  0  0  0  0  0
  190.1920  174.8140  134.7500 C   0  0  0  0  0  2  0  0  0  0  0  0
  191.5070  174.0660  134.6010 C   0  0  0  0  0  2  0  0  0  0  0  0
  191.2780  172.6840  134.5940 O   0  0  0  0  0  0  0  0  0  0  0  0
  192.2810  172.1680  135.4140 C   0  0  0  0  0  2  0  0  0  0  0  0
  193.4190  173.1700  135.5470 C   0  0  0  0  0  2  0  0  0  0  0  0
  194.2290  172.9360  136.8200 C   0  0  1  0  0  3  0  0  0  0  0  0
  195.1150  171.8720  136.6280 O   0  0  0  0  0  1  0  0  0  0  0  0
  195.3720  174.1340  138.7310 C   0  0  0  0  0  1  0  0  0  0  0  0
  194.9830  174.1890  137.2610 C   0  0  2  0  0  3  0  0  0  0  0  0
  194.2010  175.3210  137.0310 O   0  0  0  0  0  1  0  0  0  0  0  0
  186.3940  177.9770  137.6820 O   0  0  0  0  0  1  0  0  0  0  0  0
  187.0900  176.7700  137.6960 C   0  0  1  0  0  3  0  0  0  0  0  0
  186.4660  175.8220  136.6830 C   0  0  0  0  0  2  0  0  0  0  0  0
  182.8400  174.9090  137.2080 C   0  0  1  0  0  3  0  0  0  0  0  0
  183.9140  175.9770  136.8880 C   0  0  0  0  0  2  0  0  0  0  0  0
  183.5460  173.7290  137.6990 N   0  0  0  0  0  2  0  0  0  0  0  0
  185.1870  175.3310  137.1600 N   0  0  0  0  0  0  0  0  0  0  0  0
  185.8230  173.1860  137.8860 O   0  0  0  0  0  0  0  0  0  0  0  0
  184.9240  174.0200  137.6090 C   0  0  0  0  0  0  0  0  0  0  0  0
  181.8460  175.3930  138.2130 C   0  0  0  0  0  3  0  0  0  0  0  0
  180.5380  175.4140  137.9740 C   0  0  0  0  0  3  0  0  0  0  0  0
  180.4680  177.5020  140.8880 C   0  0  0  0  0  3  0  0  0  0  0  0
  179.6380  175.9040  139.0060 C   0  0  0  0  0  3  0  0  0  0  0  0
  180.0690  176.6960  139.9440 C   0  0  0  0  0  0  0  0  0  0  0  0
  179.5020  178.3060  141.7230 C   0  0  1  0  0  3  0  0  0  0  0  0
  179.0990  179.4970  143.7740 O   0  0  0  0  0  1  0  0  0  0  0  0
  181.3690  178.9630  143.3260 C   0  0  0  0  0  1  0  0  0  0  0  0
  179.7490  177.3290  143.9010 O   0  0  0  0  0  1  0  0  0  0  0  0
  179.9170  178.5210  143.1970 C   0  0  0  0  0  0  0  0  0  0  0  0
  178.9330  179.5410  141.0080 C   0  0  0  0  0  2  0  0  0  0  0  0
  179.9930  180.5850  140.6840 C   0  0  0  0  0  2  0  0  0  0  0  0
  181.5990  180.0590  138.8790 C   0  0  0  0  0  1  0  0  0  0  0  0
  180.2270  180.6250  139.1890 C   0  0  0  0  0  2  0  0  0  0  0  0
  188.9140  178.3600  137.6110 O   0  0  0  0  0  0  0  0  0  0  0  0
  190.0110  178.3220  138.4790 C   0  0  0  0  0  2  0  0  0  0  0  0
  188.5380  178.6280  140.5860 C   0  0  0  0  0  2  0  0  0  0  0  0
  189.5800  177.8530  139.8260 C   0  0  0  0  0  0  0  0  0  0  0  0
  187.7370  177.7120  141.5210 C   0  0  0  0  0  2  0  0  0  0  0  0
  190.1990  176.8200  140.4050 C   0  0  0  0  0  3  0  0  0  0  0  0
  189.7730  176.3330  141.7290 C   0  0  0  0  0  3  0  0  0  0  0  0
  188.6450  176.7820  142.2900 C   0  0  0  0  0  0  0  0  0  0  0  0
  189.2580  177.8780  146.7400 C   0  0  0  0  0  3  0  0  0  0  0  0
  187.1060  178.8200  147.4060 C   0  0  0  0  0  3  0  0  0  0  0  0
  188.6270  177.3580  145.6100 C   0  0  0  0  0  0  0  0  0  0  0  0
  187.2960  177.5520  145.3690 C   0  0  0  0  0  0  0  0  0  0  0  0
  189.2150  176.6100  144.6160 O   0  0  0  0  0  0  0  0  0  0  0  0
  188.4800  178.6150  147.6470 C   0  0  0  0  0  3  0  0  0  0  0  0
  186.9110  176.8870  144.0970 C   0  0  0  0  0  2  0  0  0  0  0  0
  186.5020  178.2840  146.2560 C   0  0  0  0  0  0  0  0  0  0  0  0
  188.2430  176.2570  143.6310 C   0  0  1  0  0  3  0  0  0  0  0  0
  184.7950  178.5530  145.9510 Cl  0  0  0  0  0  0  0  0  0  0  0  0
  1 38  1  6  0  0  0
  1 16  1  0  0  0  0
  2  3  1  0  0  0  0
  2  1  1  1  0  0  0
  3  5  1  6  0  0  0
  4  2  1  0  0  0  0
  4  3  1  0  0  0  0
  6  5  1  0  0  0  0
  7  6  1  0  0  0  0
  7  8  1  0  0  0  0
  8  9  1  0  0  0  0
  9 10  1  0  0  0  0
 10 11  1  6  0  0  0
 10 13  1  0  0  0  0
 13 12  1  1  0  0  0
 14 13  1  0  0  0  0
 16 15  1  6  0  0  0
 17 21  1  0  0  0  0
 17 16  1  0  0  0  0
 18 20  1  0  0  0  0
 18 24  1  1  0  0  0
 19 21  1  0  0  0  0
 19 18  1  0  0  0  0
 21 23  1  0  0  0  0
 23 20  1  0  0  0  0
 23 22  2  0  0  0  0
 25 24  2  0  0  0  0
 25 27  1  0  0  0  0
 27 28  2  0  0  0  0
 28 26  2  0  0  0  0
 29 26  1  6  0  0  0
 29 33  1  0  0  0  0
 33 31  1  0  0  0  0
 33 30  1  0  0  0  0
 33 32  1  0  0  0  0
 34 29  1  0  0  0  0
 35 34  1  0  0  0  0
 36 37  1  0  0  0  0
 37 35  1  0  0  0  0
 38 39  1  0  0  0  0
 39 41  1  0  0  0  0
 40 42  1  0  0  0  0
 41 43  2  0  0  0  0
 41 40  1  0  0  0  0
 42 45  1  0  0  0  0
 43 44  1  0  0  0  0
 44 45  2  0  0  0  0
 46 51  1  0  0  0  0
 47 51  2  0  0  0  0
 48 46  2  0  0  0  0
 49 48  1  0  0  0  0
 49 53  2  0  0  0  0
 50 48  1  0  0  0  0
 52 49  1  0  0  0  0
 53 47  1  0  0  0  0
 54 45  1  6  0  0  0
 54 52  1  0  0  0  0
 54 50  1  0  0  0  0
 55 53  1  0  0  0  0
M  END
>  <MODEL>
6

>  <REMARK>
 VINA RESULT:      -6.0      4.058      8.843
  Name = 
  22 active torsions:
  status: ('A' for Active; 'I' for Inactive)
    1  A    between atoms: C_2  and  C_22
    2  A    between atoms: C_3  and  O_18
    3  A    between atoms: C_3  and  C_25
    4  A    between atoms: C_3  and  C_53
    5  A    between atoms: C_4  and  C_7
    6  A    between atoms: C_5  and  N_16
    7  A    between atoms: C_5  and  C_53
    8  A    between atoms: C_11  and  C_14
    9  A    between atoms: C_12  and  C_17
   10  A    between atoms: C_12  and  C_45
   11  A    between atoms: C_14  and  O_18
   12  A    between atoms: C_17  and  C_26
   13  A    between atoms: C_19  and  C_38
   14  A    between atoms: C_22  and  C_48
   15  A    between atoms: C_22  and  C_54
   16  A    between atoms: C_26  and  O_31
   17  A    between atoms: O_31  and  C_44
   18  A    between atoms: C_33  and  C_39
   19  A    between atoms: C_35  and  C_52
   20  A    between atoms: C_39  and  C_44
   21  A    between atoms: C_40  and  C_41
   22  A    between atoms: C_40  and  C_54
                            x       y       z     vdW  Elec       q    Type
                         _______ _______ _______ _____ _____    ______ ____

>  <TORSDO>
F 22

$$$$
=
 OpenBabel11032420223D

 55 59  0  0  1  0  0  0  0  0999 V2000
  190.3280  177.0550  141.3980 C   0  0  2  0  0  3  0  0  0  0  0  0
  190.8610  176.7770  142.8220 C   0  0  2  0  0  3  0  0  0  0  0  0
  190.9350  178.0220  143.6280 C   0  0  2  0  0  3  0  0  0  0  0  0
  192.0870  177.4260  143.0780 O   0  0  0  0  0  0  0  0  0  0  0  0
  190.8200  177.6760  145.1050 C   0  0  0  0  0  2  0  0  0  0  0  0
  189.4790  178.1110  145.6730 C   0  0  0  0  0  2  0  0  0  0  0  0
  188.8930  177.0570  146.3860 O   0  0  0  0  0  0  0  0  0  0  0  0
  187.6850  177.5850  146.8420 C   0  0  0  0  0  2  0  0  0  0  0  0
  186.6290  177.5020  145.7490 C   0  0  0  0  0  2  0  0  0  0  0  0
  185.3060  178.1180  146.1970 C   0  0  1  0  0  3  0  0  0  0  0  0
  185.5400  179.3570  146.7980 O   0  0  0  0  0  1  0  0  0  0  0  0
  185.0210  178.4000  143.7000 C   0  0  0  0  0  1  0  0  0  0  0  0
  184.3170  178.2610  145.0410 C   0  0  2  0  0  3  0  0  0  0  0  0
  183.4970  179.3700  145.2510 O   0  0  0  0  0  1  0  0  0  0  0  0
  188.2160  176.5770  142.4370 O   0  0  0  0  0  1  0  0  0  0  0  0
  188.7960  177.0290  141.2530 C   0  0  1  0  0  3  0  0  0  0  0  0
  188.2560  178.4140  140.9300 C   0  0  0  0  0  2  0  0  0  0  0  0
  185.5550  178.6950  138.3080 C   0  0  1  0  0  3  0  0  0  0  0  0
  185.9950  178.2670  139.7290 C   0  0  0  0  0  2  0  0  0  0  0  0
  186.7710  178.9760  137.5510 N   0  0  0  0  0  2  0  0  0  0  0  0
  187.4440  178.3800  139.7290 N   0  0  0  0  0  0  0  0  0  0  0  0
  189.0430  179.0530  138.1400 O   0  0  0  0  0  0  0  0  0  0  0  0
  187.8480  178.8150  138.4500 C   0  0  0  0  0  0  0  0  0  0  0  0
  184.7360  177.6440  137.6320 C   0  0  0  0  0  3  0  0  0  0  0  0
  185.2690  176.7280  136.8280 C   0  0  0  0  0  3  0  0  0  0  0  0
  182.6430  174.4090  137.5950 C   0  0  0  0  0  3  0  0  0  0  0  0
  184.4010  175.7400  136.2070 C   0  0  0  0  0  3  0  0  0  0  0  0
  183.5330  175.0780  136.9150 C   0  0  0  0  0  0  0  0  0  0  0  0
  181.5030  173.6790  136.9300 C   0  0  1  0  0  3  0  0  0  0  0  0
  180.7320  171.4680  137.4820 O   0  0  0  0  0  1  0  0  0  0  0  0
  183.0810  171.7000  137.2170 C   0  0  0  0  0  1  0  0  0  0  0  0
  181.5590  171.8290  135.4020 O   0  0  0  0  0  1  0  0  0  0  0  0
  181.7040  172.1560  136.7500 C   0  0  0  0  0  0  0  0  0  0  0  0
  180.1120  174.1100  137.4200 C   0  0  0  0  0  2  0  0  0  0  0  0
  180.0980  174.5270  138.8840 C   0  0  0  0  0  2  0  0  0  0  0  0
  179.8390  176.5670  140.2580 C   0  0  0  0  0  1  0  0  0  0  0  0
  179.3360  175.8270  139.0350 C   0  0  0  0  0  2  0  0  0  0  0  0
  190.9270  176.1750  140.4820 O   0  0  0  0  0  0  0  0  0  0  0  0
  190.2940  176.4200  139.2580 C   0  0  0  0  0  2  0  0  0  0  0  0
  192.7360  176.4570  138.3980 C   0  0  0  0  0  2  0  0  0  0  0  0
  191.2660  176.2630  138.1400 C   0  0  0  0  0  0  0  0  0  0  0  0
  193.5840  175.6160  137.4350 C   0  0  0  0  0  2  0  0  0  0  0  0
  190.8260  176.0690  136.8930 C   0  0  0  0  0  3  0  0  0  0  0  0
  191.7750  175.8940  135.7790 C   0  0  0  0  0  3  0  0  0  0  0  0
  193.0820  175.7320  136.0150 C   0  0  0  0  0  0  0  0  0  0  0  0
  197.6320  175.8500  135.2050 C   0  0  0  0  0  3  0  0  0  0  0  0
  198.2390  173.4960  134.9730 C   0  0  0  0  0  3  0  0  0  0  0  0
  196.2990  175.4710  135.0480 C   0  0  0  0  0  0  0  0  0  0  0  0
  195.9310  174.1690  134.8630 C   0  0  0  0  0  0  0  0  0  0  0  0
  195.2050  176.3070  135.0540 O   0  0  0  0  0  0  0  0  0  0  0  0
  198.6100  174.8430  135.1630 C   0  0  0  0  0  3  0  0  0  0  0  0
  194.4540  174.0740  134.7310 C   0  0  0  0  0  2  0  0  0  0  0  0
  196.8860  173.1490  134.8210 C   0  0  0  0  0  0  0  0  0  0  0  0
  194.0100  175.5490  134.8580 C   0  0  1  0  0  3  0  0  0  0  0  0
  196.4270  171.4700  134.5990 Cl  0  0  0  0  0  0  0  0  0  0  0  0
  1 38  1  6  0  0  0
  2  1  1  6  0  0  0
  2  4  1  0  0  0  0
  2  3  1  0  0  0  0
  3  5  1  1  0  0  0
  4  3  1  0  0  0  0
  5  6  1  0  0  0  0
  6  7  1  0  0  0  0
  7  8  1  0  0  0  0
  9 10  1  0  0  0  0
  9  8  1  0  0  0  0
 10 11  1  6  0  0  0
 13 12  1  6  0  0  0
 13 14  1  0  0  0  0
 13 10  1  0  0  0  0
 16  1  1  0  0  0  0
 16 15  1  1  0  0  0
 17 16  1  0  0  0  0
 18 24  1  6  0  0  0
 18 19  1  0  0  0  0
 19 21  1  0  0  0  0
 20 18  1  0  0  0  0
 20 23  1  0  0  0  0
 21 17  1  0  0  0  0
 22 23  2  0  0  0  0
 23 21  1  0  0  0  0
 25 24  2  0  0  0  0
 27 25  1  0  0  0  0
 27 28  2  0  0  0  0
 28 26  2  0  0  0  0
 29 34  1  1  0  0  0
 29 26  1  0  0  0  0
 32 33  1  0  0  0  0
 33 29  1  0  0  0  0
 33 31  1  0  0  0  0
 33 30  1  0  0  0  0
 34 35  1  0  0  0  0
 35 37  1  0  0  0  0
 37 36  1  0  0  0  0
 39 38  1  0  0  0  0
 41 40  1  0  0  0  0
 41 39  1  0  0  0  0
 42 40  1  0  0  0  0
 43 41  2  0  0  0  0
 44 45  2  0  0  0  0
 44 43  1  0  0  0  0
 45 42  1  0  0  0  0
 47 51  2  0  0  0  0
 48 50  1  0  0  0  0
 48 46  2  0  0  0  0
 49 48  1  0  0  0  0
 51 46  1  0  0  0  0
 52 54  1  0  0  0  0
 52 49  1  0  0  0  0
 53 49  2  0  0  0  0
 53 47  1  0  0  0  0
 54 50  1  0  0  0  0
 54 45  1  1  0  0  0
 55 53  1  0  0  0  0
M  END
>  <MODEL>
7

>  <REMARK>
 VINA RESULT:      -5.7      4.873      9.014
  Name = 
  22 active torsions:
  status: ('A' for Active; 'I' for Inactive)
    1  A    between atoms: C_2  and  C_22
    2  A    between atoms: C_3  and  O_18
    3  A    between atoms: C_3  and  C_25
    4  A    between atoms: C_3  and  C_53
    5  A    between atoms: C_4  and  C_7
    6  A    between atoms: C_5  and  N_16
    7  A    between atoms: C_5  and  C_53
    8  A    between atoms: C_11  and  C_14
    9  A    between atoms: C_12  and  C_17
   10  A    between atoms: C_12  and  C_45
   11  A    between atoms: C_14  and  O_18
   12  A    between atoms: C_17  and  C_26
   13  A    between atoms: C_19  and  C_38
   14  A    between atoms: C_22  and  C_48
   15  A    between atoms: C_22  and  C_54
   16  A    between atoms: C_26  and  O_31
   17  A    between atoms: O_31  and  C_44
   18  A    between atoms: C_33  and  C_39
   19  A    between atoms: C_35  and  C_52
   20  A    between atoms: C_39  and  C_44
   21  A    between atoms: C_40  and  C_41
   22  A    between atoms: C_40  and  C_54
                            x       y       z     vdW  Elec       q    Type
                         _______ _______ _______ _____ _____    ______ ____

>  <TORSDO>
F 22

$$$$
=
 OpenBabel11032420223D

 55 59  0  0  1  0  0  0  0  0999 V2000
  189.1080  177.6020  140.9220 C   0  0  2  0  0  3  0  0  0  0  0  0
  189.4190  176.6160  142.0710 C   0  0  2  0  0  3  0  0  0  0  0  0
  190.7960  176.8060  142.5940 C   0  0  2  0  0  3  0  0  0  0  0  0
  190.4650  175.7250  141.7530 O   0  0  0  0  0  0  0  0  0  0  0  0
  190.8550  176.3440  144.0430 C   0  0  0  0  0  2  0  0  0  0  0  0
  191.0400  177.5170  144.9920 C   0  0  0  0  0  2  0  0  0  0  0  0
  191.6030  177.0780  146.1970 O   0  0  0  0  0  0  0  0  0  0  0  0
  190.5010  176.7790  146.9980 C   0  0  0  0  0  2  0  0  0  0  0  0
  189.3610  177.7430  146.7050 C   0  0  0  0  0  2  0  0  0  0  0  0
  188.1570  177.4830  147.6080 C   0  0  1  0  0  3  0  0  0  0  0  0
  188.3010  178.1900  148.8040 O   0  0  0  0  0  1  0  0  0  0  0  0
  186.9660  177.8750  145.4110 C   0  0  0  0  0  1  0  0  0  0  0  0
  186.8380  177.8440  146.9270 C   0  0  2  0  0  3  0  0  0  0  0  0
  186.3930  179.0870  147.3800 O   0  0  0  0  0  1  0  0  0  0  0  0
  188.0020  179.6920  141.3380 O   0  0  0  0  0  1  0  0  0  0  0  0
  187.7700  178.3500  141.0430 C   0  0  1  0  0  3  0  0  0  0  0  0
  186.9740  178.2550  139.7500 C   0  0  0  0  0  2  0  0  0  0  0  0
  183.2000  178.3630  139.7210 C   0  0  1  0  0  3  0  0  0  0  0  0
  184.5440  178.4810  138.9620 C   0  0  0  0  0  2  0  0  0  0  0  0
  183.5130  178.3740  141.1470 N   0  0  0  0  0  2  0  0  0  0  0  0
  185.5650  178.4980  139.9960 N   0  0  0  0  0  0  0  0  0  0  0  0
  185.5330  178.3590  142.3440 O   0  0  0  0  0  0  0  0  0  0  0  0
  184.9210  178.4130  141.2470 C   0  0  0  0  0  0  0  0  0  0  0  0
  182.2570  179.4680  139.3730 C   0  0  0  0  0  3  0  0  0  0  0  0
  181.1320  179.6890  140.0470 C   0  0  0  0  0  3  0  0  0  0  0  0
  180.9710  182.4490  137.7630 C   0  0  0  0  0  3  0  0  0  0  0  0
  180.2670  180.7860  139.6410 C   0  0  0  0  0  3  0  0  0  0  0  0
  180.6360  181.6130  138.7070 C   0  0  0  0  0  0  0  0  0  0  0  0
  179.9620  183.3370  137.0780 C   0  0  1  0  0  3  0  0  0  0  0  0
  181.6830  185.0170  137.1330 O   0  0  0  0  0  1  0  0  0  0  0  0
  179.6690  185.5720  138.2650 C   0  0  0  0  0  1  0  0  0  0  0  0
  179.8230  185.4260  135.9030 O   0  0  0  0  0  1  0  0  0  0  0  0
  180.2960  184.8470  137.0810 C   0  0  0  0  0  0  0  0  0  0  0  0
  179.4360  182.7770  135.7480 C   0  0  0  0  0  2  0  0  0  0  0  0
  180.3830  181.7740  135.1060 C   0  0  0  0  0  2  0  0  0  0  0  0
  180.8430  179.3440  135.1350 C   0  0  0  0  0  1  0  0  0  0  0  0
  179.7520  180.3960  135.1240 C   0  0  0  0  0  2  0  0  0  0  0  0
  189.1970  176.9400  139.6870 O   0  0  0  0  0  0  0  0  0  0  0  0
  190.0150  177.7460  138.8880 C   0  0  0  0  0  2  0  0  0  0  0  0
  192.2020  176.3860  138.6210 C   0  0  0  0  0  2  0  0  0  0  0  0
  190.9070  176.8960  138.0490 C   0  0  0  0  0  0  0  0  0  0  0  0
  192.6060  175.0540  137.9740 C   0  0  0  0  0  2  0  0  0  0  0  0
  190.6150  176.6880  136.7610 C   0  0  0  0  0  3  0  0  0  0  0  0
  191.4780  175.8360  135.9230 C   0  0  0  0  0  3  0  0  0  0  0  0
  192.4520  175.1010  136.4720 C   0  0  0  0  0  0  0  0  0  0  0  0
  196.7050  173.2890  136.4900 C   0  0  0  0  0  3  0  0  0  0  0  0
  196.3260  170.9290  136.9910 C   0  0  0  0  0  3  0  0  0  0  0  0
  195.3450  173.3970  136.2010 C   0  0  0  0  0  0  0  0  0  0  0  0
  194.4960  172.3310  136.2980 C   0  0  0  0  0  0  0  0  0  0  0  0
  194.6820  174.5320  135.7930 O   0  0  0  0  0  0  0  0  0  0  0  0
  197.1960  172.0350  136.8880 C   0  0  0  0  0  3  0  0  0  0  0  0
  193.1170  172.7470  135.9310 C   0  0  0  0  0  2  0  0  0  0  0  0
  194.9610  171.0730  136.6940 C   0  0  0  0  0  0  0  0  0  0  0  0
  193.2980  174.2430  135.5890 C   0  0  1  0  0  3  0  0  0  0  0  0
  193.8790  169.6990  136.8370 Cl  0  0  0  0  0  0  0  0  0  0  0  0
  1 38  1  6  0  0  0
  1 16  1  0  0  0  0
  2  1  1  6  0  0  0
  2  3  1  0  0  0  0
  3  5  1  1  0  0  0
  4  2  1  0  0  0  0
  4  3  1  0  0  0  0
  5  6  1  0  0  0  0
  6  7  1  0  0  0  0
  7  8  1  0  0  0  0
  9  8  1  0  0  0  0
  9 10  1  0  0  0  0
 10 11  1  1  0  0  0
 13 12  1  6  0  0  0
 13 14  1  0  0  0  0
 13 10  1  0  0  0  0
 16 15  1  6  0  0  0
 17 21  1  0  0  0  0
 17 16  1  0  0  0  0
 18 24  1  1  0  0  0
 18 20  1  0  0  0  0
 19 18  1  0  0  0  0
 19 21  1  0  0  0  0
 20 23  1  0  0  0  0
 21 23  1  0  0  0  0
 23 22  2  0  0  0  0
 24 25  2  0  0  0  0
 26 28  2  0  0  0  0
 27 25  1  0  0  0  0
 28 27  2  0  0  0  0
 29 34  1  6  0  0  0
 29 33  1  0  0  0  0
 29 26  1  0  0  0  0
 32 33  1  0  0  0  0
 33 30  1  0  0  0  0
 33 31  1  0  0  0  0
 35 37  1  0  0  0  0
 35 34  1  0  0  0  0
 37 36  1  0  0  0  0
 39 38  1  0  0  0  0
 41 40  1  0  0  0  0
 41 39  1  0  0  0  0
 42 40  1  0  0  0  0
 43 41  2  0  0  0  0
 44 45  2  0  0  0  0
 44 43  1  0  0  0  0
 45 42  1  0  0  0  0
 46 51  1  0  0  0  0
 48 49  1  0  0  0  0
 48 46  2  0  0  0  0
 49 53  2  0  0  0  0
 50 48  1  0  0  0  0
 51 47  2  0  0  0  0
 52 49  1  0  0  0  0
 53 55  1  0  0  0  0
 53 47  1  0  0  0  0
 54 50  1  0  0  0  0
 54 52  1  0  0  0  0
 54 45  1  1  0  0  0
M  END
>  <MODEL>
8

>  <REMARK>
 VINA RESULT:      -5.7      4.612      9.708
  Name = 
  22 active torsions:
  status: ('A' for Active; 'I' for Inactive)
    1  A    between atoms: C_2  and  C_22
    2  A    between atoms: C_3  and  O_18
    3  A    between atoms: C_3  and  C_25
    4  A    between atoms: C_3  and  C_53
    5  A    between atoms: C_4  and  C_7
    6  A    between atoms: C_5  and  N_16
    7  A    between atoms: C_5  and  C_53
    8  A    between atoms: C_11  and  C_14
    9  A    between atoms: C_12  and  C_17
   10  A    between atoms: C_12  and  C_45
   11  A    between atoms: C_14  and  O_18
   12  A    between atoms: C_17  and  C_26
   13  A    between atoms: C_19  and  C_38
   14  A    between atoms: C_22  and  C_48
   15  A    between atoms: C_22  and  C_54
   16  A    between atoms: C_26  and  O_31
   17  A    between atoms: O_31  and  C_44
   18  A    between atoms: C_33  and  C_39
   19  A    between atoms: C_35  and  C_52
   20  A    between atoms: C_39  and  C_44
   21  A    between atoms: C_40  and  C_41
   22  A    between atoms: C_40  and  C_54
                            x       y       z     vdW  Elec       q    Type
                         _______ _______ _______ _____ _____    ______ ____

>  <TORSDO>
F 22

$$$$
=
 OpenBabel11032420223D

 55 59  0  0  1  0  0  0  0  0999 V2000
  180.6260  176.3860  139.9060 C   0  0  2  0  0  3  0  0  0  0  0  0
  180.5600  175.1890  138.9300 C   0  0  2  0  0  3  0  0  0  0  0  0
  179.1560  174.7830  138.6620 C   0  0  2  0  0  3  0  0  0  0  0  0
  179.9920  174.0400  139.5190 O   0  0  0  0  0  0  0  0  0  0  0  0
  179.0770  174.1120  137.2980 C   0  0  0  0  0  2  0  0  0  0  0  0
  178.9620  172.6020  137.4300 C   0  0  0  0  0  2  0  0  0  0  0  0
  180.2340  172.0170  137.3830 O   0  0  0  0  0  0  0  0  0  0  0  0
  180.1190  171.0300  136.4030 C   0  0  0  0  0  2  0  0  0  0  0  0
  181.4100  170.9280  135.6040 C   0  0  0  0  0  2  0  0  0  0  0  0
  182.6360  170.9130  136.5160 C   0  0  1  0  0  3  0  0  0  0  0  0
  183.6110  170.0670  135.9830 O   0  0  0  0  0  1  0  0  0  0  0  0
  183.1460  173.1620  135.4780 C   0  0  0  0  0  1  0  0  0  0  0  0
  183.2040  172.3130  136.7390 C   0  0  2  0  0  3  0  0  0  0  0  0
  184.5260  172.2260  137.1780 O   0  0  0  0  0  1  0  0  0  0  0  0
  179.2370  175.7580  141.7620 O   0  0  0  0  0  1  0  0  0  0  0  0
  179.3370  176.6570  140.7020 C   0  0  1  0  0  3  0  0  0  0  0  0
  179.3230  178.0760  141.2480 C   0  0  0  0  0  2  0  0  0  0  0  0
  182.3310  179.2840  143.1830 C   0  0  1  0  0  3  0  0  0  0  0  0
  181.6780  178.9050  141.8320 C   0  0  0  0  0  2  0  0  0  0  0  0
  181.4390  178.8070  144.2360 N   0  0  0  0  0  2  0  0  0  0  0  0
  180.4140  178.2780  142.1810 N   0  0  0  0  0  0  0  0  0  0  0  0
  179.3070  177.8240  144.2060 O   0  0  0  0  0  0  0  0  0  0  0  0
  180.3100  178.2630  143.5880 C   0  0  0  0  0  0  0  0  0  0  0  0
  183.6960  178.6960  143.3340 C   0  0  0  0  0  3  0  0  0  0  0  0
  184.2830  178.5410  144.5170 C   0  0  0  0  0  3  0  0  0  0  0  0
  187.4180  178.8640  146.2280 C   0  0  0  0  0  3  0  0  0  0  0  0
  185.6170  177.9620  144.5760 C   0  0  0  0  0  3  0  0  0  0  0  0
  186.5080  178.4290  145.4010 C   0  0  0  0  0  0  0  0  0  0  0  0
  188.6470  178.0590  146.5700 C   0  0  1  0  0  3  0  0  0  0  0  0
  187.4790  177.7510  148.6500 O   0  0  0  0  0  1  0  0  0  0  0  0
  189.8130  178.1530  148.8340 C   0  0  0  0  0  1  0  0  0  0  0  0
  188.9160  176.1320  147.9760 O   0  0  0  0  0  1  0  0  0  0  0  0
  188.7010  177.5100  148.0150 C   0  0  0  0  0  0  0  0  0  0  0  0
  189.0780  177.0770  145.4710 C   0  0  0  0  0  2  0  0  0  0  0  0
  190.1560  177.6400  144.5560 C   0  0  0  0  0  2  0  0  0  0  0  0
  188.8370  176.0970  143.1450 C   0  0  0  0  0  1  0  0  0  0  0  0
  189.9380  177.1370  143.1440 C   0  0  0  0  0  2  0  0  0  0  0  0
  181.0370  177.5400  139.2210 O   0  0  0  0  0  0  0  0  0  0  0  0
  181.3550  177.1140  137.9260 C   0  0  0  0  0  2  0  0  0  0  0  0
  183.4810  178.5290  138.3550 C   0  0  0  0  0  2  0  0  0  0  0  0
  182.7850  177.4100  137.6290 C   0  0  0  0  0  0  0  0  0  0  0  0
  184.9860  178.2570  138.4810 C   0  0  0  0  0  2  0  0  0  0  0  0
  183.4100  176.7640  136.6390 C   0  0  0  0  0  3  0  0  0  0  0  0
  184.8290  177.0330  136.3440 C   0  0  0  0  0  3  0  0  0  0  0  0
  185.5690  177.7760  137.1730 C   0  0  0  0  0  0  0  0  0  0  0  0
  189.5860  178.2270  139.4170 C   0  0  0  0  0  3  0  0  0  0  0  0
  190.7250  176.1080  138.9960 C   0  0  0  0  0  3  0  0  0  0  0  0
  188.7130  177.9090  138.3770 C   0  0  0  0  0  0  0  0  0  0  0  0
  188.8230  176.7470  137.6680 C   0  0  0  0  0  0  0  0  0  0  0  0
  187.6630  178.6770  137.9270 O   0  0  0  0  0  0  0  0  0  0  0  0
  190.6050  177.3100  139.7240 C   0  0  0  0  0  3  0  0  0  0  0  0
  187.7590  176.6850  136.6310 C   0  0  0  0  0  2  0  0  0  0  0  0
  189.8270  175.8180  137.9560 C   0  0  0  0  0  0  0  0  0  0  0  0
  187.0070  178.0180  136.8430 C   0  0  1  0  0  3  0  0  0  0  0  0
  189.9700  174.3150  137.0620 Cl  0  0  0  0  0  0  0  0  0  0  0  0
  1 38  1  6  0  0  0
  1 16  1  0  0  0  0
  2  4  1  0  0  0  0
  2  1  1  1  0  0  0
  3  5  1  6  0  0  0
  3  2  1  0  0  0  0
  3  4  1  0  0  0  0
  5  6  1  0  0  0  0
  7  6  1  0  0  0  0
  8  7  1  0  0  0  0
  9  8  1  0  0  0  0
  9 10  1  0  0  0  0
 10 11  1  6  0  0  0
 10 13  1  0  0  0  0
 13 12  1  6  0  0  0
 13 14  1  0  0  0  0
 16 17  1  0  0  0  0
 16 15  1  1  0  0  0
 17 21  1  0  0  0  0
 18 24  1  1  0  0  0
 18 20  1  0  0  0  0
 19 21  1  0  0  0  0
 19 18  1  0  0  0  0
 21 23  1  0  0  0  0
 23 22  2  0  0  0  0
 23 20  1  0  0  0  0
 24 25  2  0  0  0  0
 25 27  1  0  0  0  0
 26 29  1  0  0  0  0
 27 28  2  0  0  0  0
 28 26  2  0  0  0  0
 29 34  1  6  0  0  0
 29 33  1  0  0  0  0
 32 33  1  0  0  0  0
 33 30  1  0  0  0  0
 33 31  1  0  0  0  0
 35 34  1  0  0  0  0
 37 36  1  0  0  0  0
 37 35  1  0  0  0  0
 39 38  1  0  0  0  0
 40 42  1  0  0  0  0
 41 39  1  0  0  0  0
 41 40  1  0  0  0  0
 43 41  2  0  0  0  0
 44 43  1  0  0  0  0
 44 45  2  0  0  0  0
 45 42  1  0  0  0  0
 46 51  1  0  0  0  0
 47 51  2  0  0  0  0
 48 46  2  0  0  0  0
 49 53  2  0  0  0  0
 49 48  1  0  0  0  0
 50 48  1  0  0  0  0
 52 54  1  0  0  0  0
 52 49  1  0  0  0  0
 53 47  1  0  0  0  0
 54 45  1  1  0  0  0
 54 50  1  0  0  0  0
 55 53  1  0  0  0  0
M  END
>  <MODEL>
9

>  <REMARK>
 VINA RESULT:      -5.7      3.313     10.429
  Name = 
  22 active torsions:
  status: ('A' for Active; 'I' for Inactive)
    1  A    between atoms: C_2  and  C_22
    2  A    between atoms: C_3  and  O_18
    3  A    between atoms: C_3  and  C_25
    4  A    between atoms: C_3  and  C_53
    5  A    between atoms: C_4  and  C_7
    6  A    between atoms: C_5  and  N_16
    7  A    between atoms: C_5  and  C_53
    8  A    between atoms: C_11  and  C_14
    9  A    between atoms: C_12  and  C_17
   10  A    between atoms: C_12  and  C_45
   11  A    between atoms: C_14  and  O_18
   12  A    between atoms: C_17  and  C_26
   13  A    between atoms: C_19  and  C_38
   14  A    between atoms: C_22  and  C_48
   15  A    between atoms: C_22  and  C_54
   16  A    between atoms: C_26  and  O_31
   17  A    between atoms: O_31  and  C_44
   18  A    between atoms: C_33  and  C_39
   19  A    between atoms: C_35  and  C_52
   20  A    between atoms: C_39  and  C_44
   21  A    between atoms: C_40  and  C_41
   22  A    between atoms: C_40  and  C_54
                            x       y       z     vdW  Elec       q    Type
                         _______ _______ _______ _____ _____    ______ ____

>  <TORSDO>
F 22

$$$$
