=
 OpenBabel11042409513D

 33 36  0  0  1  0  0  0  0  0999 V2000
  189.9270  177.0240  145.6880 C   0  0  2  0  0  3  0  0  0  0  0  0
  185.4230  179.2610  145.1600 C   0  0  0  0  0  3  0  0  0  0  0  0
  188.4890  177.1880  145.4540 N   0  0  0  0  0  0  0  0  0  0  0  0
  185.7230  177.4990  142.9990 C   0  0  0  0  0  3  0  0  0  0  0  0
  188.3470  175.9360  143.4400 O   0  0  0  0  0  0  0  0  0  0  0  0
  184.4930  179.2240  144.1080 C   0  0  0  0  0  0  0  0  0  0  0  0
  187.6460  178.2320  146.0680 C   0  0  1  0  0  3  0  0  0  0  0  0
  184.6610  178.3540  143.0640 N   0  0  0  0  0  0  0  0  0  0  0  0
  186.6450  177.5210  144.0390 C   0  0  0  0  0  0  0  0  0  0  0  0
  183.3710  180.0980  144.1260 N   0  0  0  0  0  1  0  0  0  0  0  0
  186.5030  178.3820  145.1000 C   0  0  0  0  0  0  0  0  0  0  0  0
  187.8650  176.7860  144.2360 C   0  0  0  0  0  0  0  0  0  0  0  0
  187.4430  178.5240  148.5330 C   0  0  0  0  0  2  0  0  0  0  0  0
  187.1670  177.8190  147.4330 C   0  0  0  0  0  3  0  0  0  0  0  0
  190.2550  176.7870  147.1710 C   0  0  1  0  0  3  0  0  0  0  0  0
  189.4100  175.6530  147.7250 C   0  0  0  0  0  1  0  0  0  0  0  0
  191.6990  176.4500  147.3740 C   0  0  0  0  0  0  0  0  0  0  0  0
  192.2630  175.6280  146.6040 O   0  0  0  0  0  0  0  0  0  0  0  0
  192.4270  177.0530  148.3940 O   0  0  0  0  0  1  0  0  0  0  0  0
  190.7340  178.1580  145.0370 C   0  0  0  0  0  2  0  0  0  0  0  0
  191.1440  177.8490  143.6340 C   0  0  0  0  0  0  0  0  0  0  0  0
  191.6980  177.4430  141.8550 C   0  0  1  0  0  3  0  0  0  0  0  0
  191.2550  178.5900  142.5210 N   0  0  0  0  0  0  0  0  0  0  0  0
  191.5730  176.6120  142.9490 N   0  0  0  0  0  2  0  0  0  0  0  0
  190.7270  177.0420  140.7890 C   0  0  0  0  0  3  0  0  0  0  0  0
  190.9940  177.2800  139.5090 C   0  0  0  0  0  3  0  0  0  0  0  0
  189.0560  179.1130  138.4970 O   0  0  0  0  0  1  0  0  0  0  0  0
  188.2610  177.4820  136.9180 C   0  0  0  0  0  3  0  0  0  0  0  0
  189.1330  177.8380  137.9480 C   0  0  0  0  0  0  0  0  0  0  0  0
  189.2510  175.3110  136.8330 N   0  0  0  0  0  0  0  0  0  0  0  0
  190.0750  176.9100  138.4190 C   0  0  0  0  0  0  0  0  0  0  0  0
  188.3340  176.2010  136.3680 C   0  0  0  0  0  3  0  0  0  0  0  0
  190.1120  175.6340  137.8340 C   0  0  0  0  0  3  0  0  0  0  0  0
  1 20  1  1  0  0  0
  1 15  1  0  0  0  0
  3  1  1  0  0  0  0
  3  7  1  0  0  0  0
  4  8  2  0  0  0  0
  4  9  1  0  0  0  0
  5 12  2  0  0  0  0
  6 10  1  0  0  0  0
  6  2  2  0  0  0  0
  7 14  1  1  0  0  0
  8  6  1  0  0  0  0
  9 12  1  0  0  0  0
  9 11  2  0  0  0  0
 11  2  1  0  0  0  0
 11  7  1  0  0  0  0
 12  3  1  0  0  0  0
 14 13  2  0  0  0  0
 15 17  1  0  0  0  0
 15 16  1  6  0  0  0
 17 19  1  0  0  0  0
 18 17  2  0  0  0  0
 21 20  1  0  0  0  0
 22 25  1  6  0  0  0
 22 23  1  0  0  0  0
 22 24  1  0  0  0  0
 23 21  2  0  0  0  0
 24 21  1  0  0  0  0
 26 25  2  0  0  0  0
 28 29  1  0  0  0  0
 29 31  2  0  0  0  0
 29 27  1  0  0  0  0
 30 33  2  0  0  0  0
 31 26  1  0  0  0  0
 32 30  1  0  0  0  0
 32 28  2  0  0  0  0
 33 31  1  0  0  0  0
M  END
>  <MODEL>
1

>  <REMARK>
 VINA RESULT:      -7.6      0.000      0.000
  Name = 
  8 active torsions:
  status: ('A' for Active; 'I' for Inactive)
    1  A    between atoms: N_5  and  C_21
    2  A    between atoms: C_7  and  C_20
    3  A    between atoms: C_10  and  C_13
    4  A    between atoms: C_11  and  C_26
    5  A    between atoms: C_13  and  C_21
    6  A    between atoms: C_14  and  C_19
    7  A    between atoms: C_16  and  C_17
    8  A    between atoms: C_16  and  C_21
                            x       y       z     vdW  Elec       q    Type
                         _______ _______ _______ _____ _____    ______ ____

>  <TORSDO>
F 8

$$$$
=
 OpenBabel11042409513D

 33 36  0  0  1  0  0  0  0  0999 V2000
  188.7200  177.8370  143.8950 C   0  0  2  0  0  3  0  0  0  0  0  0
  188.6960  178.5150  138.8840 C   0  0  0  0  0  3  0  0  0  0  0  0
  188.6680  177.5260  142.4630 N   0  0  0  0  0  0  0  0  0  0  0  0
  190.4850  176.4230  139.4210 C   0  0  0  0  0  3  0  0  0  0  0  0
  190.3210  175.8210  142.4430 O   0  0  0  0  0  0  0  0  0  0  0  0
  189.4960  177.9550  137.8750 C   0  0  0  0  0  0  0  0  0  0  0  0
  188.1030  178.4130  141.4260 C   0  0  1  0  0  3  0  0  0  0  0  0
  190.3620  176.9340  138.1610 N   0  0  0  0  0  0  0  0  0  0  0  0
  189.6910  176.9640  140.4270 C   0  0  0  0  0  0  0  0  0  0  0  0
  189.4090  178.4550  136.5460 N   0  0  0  0  0  1  0  0  0  0  0  0
  188.8130  177.9870  140.1700 C   0  0  0  0  0  0  0  0  0  0  0  0
  189.6210  176.6730  141.8340 C   0  0  0  0  0  0  0  0  0  0  0  0
  185.7790  179.2740  141.1840 C   0  0  0  0  0  2  0  0  0  0  0  0
  186.6130  178.2390  141.3080 C   0  0  0  0  0  3  0  0  0  0  0  0
  190.1480  177.7570  144.4590 C   0  0  1  0  0  3  0  0  0  0  0  0
  190.8700  179.0780  144.2610 C   0  0  0  0  0  1  0  0  0  0  0  0
  190.1530  177.4230  145.9170 C   0  0  0  0  0  0  0  0  0  0  0  0
  190.8400  176.4520  146.3330 O   0  0  0  0  0  0  0  0  0  0  0  0
  189.4220  178.1880  146.8190 O   0  0  0  0  0  1  0  0  0  0  0  0
  187.6840  177.0220  144.6850 C   0  0  0  0  0  2  0  0  0  0  0  0
  186.4570  177.8070  145.0150 C   0  0  0  0  0  0  0  0  0  0  0  0
  184.9090  178.8380  145.4400 C   0  0  1  0  0  3  0  0  0  0  0  0
  185.5270  177.7040  145.9770 N   0  0  0  0  0  0  0  0  0  0  0  0
  185.8060  178.9830  144.4020 N   0  0  0  0  0  2  0  0  0  0  0  0
  183.5520  178.4970  144.9060 C   0  0  0  0  0  3  0  0  0  0  0  0
  183.0220  179.2040  143.9130 C   0  0  0  0  0  3  0  0  0  0  0  0
  182.6080  178.9540  141.1010 O   0  0  0  0  0  1  0  0  0  0  0  0
  180.2630  178.5320  141.4310 C   0  0  0  0  0  3  0  0  0  0  0  0
  181.5260  178.8020  141.9610 C   0  0  0  0  0  0  0  0  0  0  0  0
  179.3480  178.4940  143.6360 N   0  0  0  0  0  0  0  0  0  0  0  0
  181.6920  178.9150  143.3500 C   0  0  0  0  0  0  0  0  0  0  0  0
  179.1750  178.3810  142.2910 C   0  0  0  0  0  3  0  0  0  0  0  0
  180.5680  178.7540  144.1770 C   0  0  0  0  0  3  0  0  0  0  0  0
  1 15  1  0  0  0  0
  1 20  1  1  0  0  0
  2 11  1  0  0  0  0
  3  1  1  0  0  0  0
  4  9  1  0  0  0  0
  6  8  1  0  0  0  0
  6  2  2  0  0  0  0
  7 14  1  6  0  0  0
  7  3  1  0  0  0  0
  8  4  2  0  0  0  0
  9 12  1  0  0  0  0
 10  6  1  0  0  0  0
 11  9  2  0  0  0  0
 11  7  1  0  0  0  0
 12  5  2  0  0  0  0
 12  3  1  0  0  0  0
 13 14  2  0  0  0  0
 15 16  1  1  0  0  0
 15 17  1  0  0  0  0
 17 18  2  0  0  0  0
 17 19  1  0  0  0  0
 20 21  1  0  0  0  0
 21 23  2  0  0  0  0
 22 25  1  6  0  0  0
 22 23  1  0  0  0  0
 24 21  1  0  0  0  0
 24 22  1  0  0  0  0
 26 25  2  0  0  0  0
 27 29  1  0  0  0  0
 28 29  2  0  0  0  0
 28 32  1  0  0  0  0
 29 31  1  0  0  0  0
 30 33  1  0  0  0  0
 31 26  1  0  0  0  0
 31 33  2  0  0  0  0
 32 30  2  0  0  0  0
M  END
>  <MODEL>
2

>  <REMARK>
 VINA RESULT:      -7.5      2.805      7.021
  Name = 
  8 active torsions:
  status: ('A' for Active; 'I' for Inactive)
    1  A    between atoms: N_5  and  C_21
    2  A    between atoms: C_7  and  C_20
    3  A    between atoms: C_10  and  C_13
    4  A    between atoms: C_11  and  C_26
    5  A    between atoms: C_13  and  C_21
    6  A    between atoms: C_14  and  C_19
    7  A    between atoms: C_16  and  C_17
    8  A    between atoms: C_16  and  C_21
                            x       y       z     vdW  Elec       q    Type
                         _______ _______ _______ _____ _____    ______ ____

>  <TORSDO>
F 8

$$$$
=
 OpenBabel11042409513D

 33 36  0  0  1  0  0  0  0  0999 V2000
  189.9660  176.6670  138.9700 C   0  0  2  0  0  3  0  0  0  0  0  0
  192.1440  173.1850  136.0210 C   0  0  0  0  0  3  0  0  0  0  0  0
  190.2700  175.8620  137.7830 N   0  0  0  0  0  0  0  0  0  0  0  0
  189.3740  172.9670  135.6400 C   0  0  0  0  0  3  0  0  0  0  0  0
  188.0420  175.2500  137.2300 O   0  0  0  0  0  0  0  0  0  0  0  0
  191.5880  172.1500  135.2520 C   0  0  0  0  0  0  0  0  0  0  0  0
  191.5930  175.2910  137.4650 C   0  0  1  0  0  3  0  0  0  0  0  0
  190.2320  172.0640  135.0800 N   0  0  0  0  0  0  0  0  0  0  0  0
  189.9150  174.0010  136.3960 C   0  0  0  0  0  0  0  0  0  0  0  0
  192.4390  171.1810  134.6500 N   0  0  0  0  0  1  0  0  0  0  0  0
  191.2700  174.1130  136.5860 C   0  0  0  0  0  0  0  0  0  0  0  0
  189.2840  175.0630  137.1320 C   0  0  0  0  0  0  0  0  0  0  0  0
  193.7880  176.1370  136.6470 C   0  0  0  0  0  2  0  0  0  0  0  0
  192.4660  176.2900  136.7560 C   0  0  0  0  0  3  0  0  0  0  0  0
  189.4710  178.0770  138.6090 C   0  0  1  0  0  3  0  0  0  0  0  0
  189.4960  178.2780  137.1040 C   0  0  0  0  0  1  0  0  0  0  0  0
  188.0790  178.3210  139.1010 C   0  0  0  0  0  0  0  0  0  0  0  0
  187.1220  178.3420  138.2820 O   0  0  0  0  0  0  0  0  0  0  0  0
  187.8320  178.5050  140.4570 O   0  0  0  0  0  1  0  0  0  0  0  0
  191.1270  176.6440  139.9760 C   0  0  0  0  0  2  0  0  0  0  0  0
  190.6690  176.7540  141.3940 C   0  0  0  0  0  0  0  0  0  0  0  0
  190.1180  176.8970  143.2150 C   0  0  1  0  0  3  0  0  0  0  0  0
  189.9530  175.9520  142.1960 N   0  0  0  0  0  0  0  0  0  0  0  0
  190.8290  177.7880  142.4370 N   0  0  0  0  0  2  0  0  0  0  0  0
  188.8000  177.4900  143.6040 C   0  0  0  0  0  3  0  0  0  0  0  0
  188.2420  177.1840  144.7710 C   0  0  0  0  0  3  0  0  0  0  0  0
  187.6620  177.6530  147.5250 O   0  0  0  0  0  1  0  0  0  0  0  0
  185.4670  178.4680  146.9780 C   0  0  0  0  0  3  0  0  0  0  0  0
  186.6970  177.9500  146.5700 C   0  0  0  0  0  0  0  0  0  0  0  0
  184.7490  178.5520  144.7030 N   0  0  0  0  0  0  0  0  0  0  0  0
  186.9470  177.7350  145.2060 C   0  0  0  0  0  0  0  0  0  0  0  0
  184.4950  178.7660  146.0220 C   0  0  0  0  0  3  0  0  0  0  0  0
  185.9390  178.0490  144.2800 C   0  0  0  0  0  3  0  0  0  0  0  0
  1 20  1  1  0  0  0
  2 11  1  0  0  0  0
  3  1  1  0  0  0  0
  4  9  1  0  0  0  0
  6  2  2  0  0  0  0
  7 14  1  6  0  0  0
  7  3  1  0  0  0  0
  8  6  1  0  0  0  0
  8  4  2  0  0  0  0
  9 11  2  0  0  0  0
  9 12  1  0  0  0  0
 10  6  1  0  0  0  0
 11  7  1  0  0  0  0
 12  5  2  0  0  0  0
 12  3  1  0  0  0  0
 13 14  2  0  0  0  0
 15 16  1  6  0  0  0
 15  1  1  0  0  0  0
 15 17  1  0  0  0  0
 17 19  1  0  0  0  0
 18 17  2  0  0  0  0
 20 21  1  0  0  0  0
 21 23  2  0  0  0  0
 21 24  1  0  0  0  0
 22 25  1  6  0  0  0
 23 22  1  0  0  0  0
 24 22  1  0  0  0  0
 25 26  2  0  0  0  0
 26 31  1  0  0  0  0
 29 28  1  0  0  0  0
 29 27  1  0  0  0  0
 30 32  1  0  0  0  0
 31 29  2  0  0  0  0
 32 28  2  0  0  0  0
 33 30  2  0  0  0  0
 33 31  1  0  0  0  0
M  END
>  <MODEL>
3

>  <REMARK>
 VINA RESULT:      -7.5      2.490      9.241
  Name = 
  8 active torsions:
  status: ('A' for Active; 'I' for Inactive)
    1  A    between atoms: N_5  and  C_21
    2  A    between atoms: C_7  and  C_20
    3  A    between atoms: C_10  and  C_13
    4  A    between atoms: C_11  and  C_26
    5  A    between atoms: C_13  and  C_21
    6  A    between atoms: C_14  and  C_19
    7  A    between atoms: C_16  and  C_17
    8  A    between atoms: C_16  and  C_21
                            x       y       z     vdW  Elec       q    Type
                         _______ _______ _______ _____ _____    ______ ____

>  <TORSDO>
F 8

$$$$
=
 OpenBabel11042409513D

 33 36  0  0  1  0  0  0  0  0999 V2000
  186.2240  176.6020  137.5690 C   0  0  2  0  0  3  0  0  0  0  0  0
  191.2290  176.4960  138.2750 C   0  0  0  0  0  3  0  0  0  0  0  0
  187.6460  176.9180  137.4010 N   0  0  0  0  0  0  0  0  0  0  0  0
  190.7870  176.3450  135.5100 C   0  0  0  0  0  3  0  0  0  0  0  0
  187.7540  176.6680  135.0420 O   0  0  0  0  0  0  0  0  0  0  0  0
  192.2830  176.2700  137.3740 C   0  0  0  0  0  0  0  0  0  0  0  0
  188.6530  176.8770  138.4800 C   0  0  1  0  0  3  0  0  0  0  0  0
  192.0410  176.2000  136.0270 N   0  0  0  0  0  0  0  0  0  0  0  0
  189.7380  176.5770  136.3920 C   0  0  0  0  0  0  0  0  0  0  0  0
  193.6090  176.1090  137.8630 N   0  0  0  0  0  1  0  0  0  0  0  0
  189.9480  176.6530  137.7470 C   0  0  0  0  0  0  0  0  0  0  0  0
  188.3260  176.7290  136.1630 C   0  0  0  0  0  0  0  0  0  0  0  0
  188.5930  178.1920  140.5940 C   0  0  0  0  0  2  0  0  0  0  0  0
  188.6720  178.1630  139.2620 C   0  0  0  0  0  3  0  0  0  0  0  0
  185.7570  175.4850  136.6220 C   0  0  1  0  0  3  0  0  0  0  0  0
  186.3810  174.1590  137.0180 C   0  0  0  0  0  1  0  0  0  0  0  0
  184.2680  175.3340  136.6300 C   0  0  0  0  0  0  0  0  0  0  0  0
  183.6190  175.4920  135.5630 O   0  0  0  0  0  0  0  0  0  0  0  0
  183.5990  175.0010  137.8030 O   0  0  0  0  0  1  0  0  0  0  0  0
  185.3580  177.8700  137.5240 C   0  0  0  0  0  2  0  0  0  0  0  0
  184.9110  178.3180  138.8780 C   0  0  0  0  0  0  0  0  0  0  0  0
  184.3090  178.8930  140.5940 C   0  0  1  0  0  3  0  0  0  0  0  0
  185.2920  179.3130  139.6920 N   0  0  0  0  0  0  0  0  0  0  0  0
  183.8890  177.8260  139.8250 N   0  0  0  0  0  2  0  0  0  0  0  0
  184.9300  178.4010  141.8640 C   0  0  0  0  0  3  0  0  0  0  0  0
  184.7900  179.0870  142.9930 C   0  0  0  0  0  3  0  0  0  0  0  0
  183.3530  179.2800  145.4500 O   0  0  0  0  0  1  0  0  0  0  0  0
  185.2090  178.3560  146.6690 C   0  0  0  0  0  3  0  0  0  0  0  0
  184.6440  178.7650  145.4590 C   0  0  0  0  0  0  0  0  0  0  0  0
  187.2100  177.7380  145.5220 N   0  0  0  0  0  0  0  0  0  0  0  0
  185.3810  178.6530  144.2700 C   0  0  0  0  0  0  0  0  0  0  0  0
  186.5060  177.8410  146.6810 C   0  0  0  0  0  3  0  0  0  0  0  0
  186.6820  178.1280  144.3310 C   0  0  0  0  0  3  0  0  0  0  0  0
  1 20  1  6  0  0  0
  3  1  1  0  0  0  0
  3  7  1  0  0  0  0
  4  8  2  0  0  0  0
  4  9  1  0  0  0  0
  5 12  2  0  0  0  0
  6 10  1  0  0  0  0
  6  2  2  0  0  0  0
  7 14  1  6  0  0  0
  8  6  1  0  0  0  0
  9 11  2  0  0  0  0
 11  2  1  0  0  0  0
 11  7  1  0  0  0  0
 12  9  1  0  0  0  0
 12  3  1  0  0  0  0
 14 13  2  0  0  0  0
 15 17  1  0  0  0  0
 15 16  1  1  0  0  0
 15  1  1  0  0  0  0
 17 19  1  0  0  0  0
 18 17  2  0  0  0  0
 20 21  1  0  0  0  0
 21 23  2  0  0  0  0
 21 24  1  0  0  0  0
 22 25  1  1  0  0  0
 23 22  1  0  0  0  0
 24 22  1  0  0  0  0
 25 26  2  0  0  0  0
 26 31  1  0  0  0  0
 27 29  1  0  0  0  0
 28 32  1  0  0  0  0
 29 28  2  0  0  0  0
 30 32  2  0  0  0  0
 31 33  2  0  0  0  0
 31 29  1  0  0  0  0
 33 30  1  0  0  0  0
M  END
>  <MODEL>
4

>  <REMARK>
 VINA RESULT:      -7.3      3.854      9.507
  Name = 
  8 active torsions:
  status: ('A' for Active; 'I' for Inactive)
    1  A    between atoms: N_5  and  C_21
    2  A    between atoms: C_7  and  C_20
    3  A    between atoms: C_10  and  C_13
    4  A    between atoms: C_11  and  C_26
    5  A    between atoms: C_13  and  C_21
    6  A    between atoms: C_14  and  C_19
    7  A    between atoms: C_16  and  C_17
    8  A    between atoms: C_16  and  C_21
                            x       y       z     vdW  Elec       q    Type
                         _______ _______ _______ _____ _____    ______ ____

>  <TORSDO>
F 8

$$$$
=
 OpenBabel11042409513D

 33 36  0  0  1  0  0  0  0  0999 V2000
  183.5320  177.8010  138.3890 C   0  0  2  0  0  3  0  0  0  0  0  0
  186.5440  174.4220  136.1350 C   0  0  0  0  0  3  0  0  0  0  0  0
  183.9500  176.6360  137.6020 N   0  0  0  0  0  0  0  0  0  0  0  0
  184.5600  172.9770  137.4930 C   0  0  0  0  0  3  0  0  0  0  0  0
  182.5650  175.0210  138.6600 O   0  0  0  0  0  0  0  0  0  0  0  0
  186.5890  173.0210  136.2280 C   0  0  0  0  0  0  0  0  0  0  0  0
  185.1920  176.5530  136.8090 C   0  0  1  0  0  3  0  0  0  0  0  0
  185.6080  172.3380  136.8960 N   0  0  0  0  0  0  0  0  0  0  0  0
  184.5010  174.3630  137.4000 C   0  0  0  0  0  0  0  0  0  0  0  0
  187.6620  172.3080  135.6260 N   0  0  0  0  0  1  0  0  0  0  0  0
  185.4690  175.0760  136.7360 C   0  0  0  0  0  0  0  0  0  0  0  0
  183.5640  175.3070  137.9470 C   0  0  0  0  0  0  0  0  0  0  0  0
  184.0190  176.7900  134.6260 C   0  0  0  0  0  2  0  0  0  0  0  0
  185.0110  177.1530  135.4420 C   0  0  0  0  0  3  0  0  0  0  0  0
  182.5240  178.6840  137.6370 C   0  0  1  0  0  3  0  0  0  0  0  0
  181.4240  177.8310  137.0280 C   0  0  0  0  0  1  0  0  0  0  0  0
  181.8960  179.7020  138.5360 C   0  0  0  0  0  0  0  0  0  0  0  0
  181.1210  179.3300  139.4560 O   0  0  0  0  0  1  0  0  0  0  0  0
  182.1780  181.0540  138.3750 O   0  0  0  0  0  0  0  0  0  0  0  0
  184.7430  178.5630  138.9500 C   0  0  0  0  0  2  0  0  0  0  0  0
  184.7090  178.6940  140.4380 C   0  0  0  0  0  0  0  0  0  0  0  0
  184.6330  178.8590  142.3370 C   0  0  1  0  0  3  0  0  0  0  0  0
  185.1690  179.6200  141.2930 N   0  0  0  0  0  0  0  0  0  0  0  0
  184.1660  177.8490  141.5210 N   0  0  0  0  0  2  0  0  0  0  0  0
  185.7200  178.3420  143.2270 C   0  0  0  0  0  3  0  0  0  0  0  0
  185.6810  178.5650  144.5360 C   0  0  0  0  0  3  0  0  0  0  0  0
  185.4280  178.8520  147.3630 O   0  0  0  0  0  1  0  0  0  0  0  0
  187.5560  177.7890  147.7150 C   0  0  0  0  0  3  0  0  0  0  0  0
  186.5650  178.2440  146.8440 C   0  0  0  0  0  0  0  0  0  0  0  0
  188.8420  177.0300  145.8520 N   0  0  0  0  0  0  0  0  0  0  0  0
  186.7240  178.0830  145.4590 C   0  0  0  0  0  0  0  0  0  0  0  0
  188.7000  177.1800  147.1970 C   0  0  0  0  0  3  0  0  0  0  0  0
  187.8900  177.4630  144.9830 C   0  0  0  0  0  3  0  0  0  0  0  0
  1 20  1  6  0  0  0
  2  6  2  0  0  0  0
  2 11  1  0  0  0  0
  3 12  1  0  0  0  0
  3  1  1  0  0  0  0
  6  8  1  0  0  0  0
  7 14  1  6  0  0  0
  7  3  1  0  0  0  0
  8  4  2  0  0  0  0
  9  4  1  0  0  0  0
  9 12  1  0  0  0  0
 10  6  1  0  0  0  0
 11  7  1  0  0  0  0
 11  9  2  0  0  0  0
 12  5  2  0  0  0  0
 13 14  2  0  0  0  0
 15 16  1  1  0  0  0
 15  1  1  0  0  0  0
 15 17  1  0  0  0  0
 17 18  1  0  0  0  0
 19 17  2  0  0  0  0
 20 21  1  0  0  0  0
 21 23  2  0  0  0  0
 21 24  1  0  0  0  0
 22 25  1  1  0  0  0
 23 22  1  0  0  0  0
 24 22  1  0  0  0  0
 25 26  2  0  0  0  0
 26 31  1  0  0  0  0
 29 27  1  0  0  0  0
 29 28  2  0  0  0  0
 30 32  2  0  0  0  0
 31 29  1  0  0  0  0
 32 28  1  0  0  0  0
 33 31  2  0  0  0  0
 33 30  1  0  0  0  0
M  END
>  <MODEL>
5

>  <REMARK>
 VINA RESULT:      -7.1      4.281      9.987
  Name = 
  8 active torsions:
  status: ('A' for Active; 'I' for Inactive)
    1  A    between atoms: N_5  and  C_21
    2  A    between atoms: C_7  and  C_20
    3  A    between atoms: C_10  and  C_13
    4  A    between atoms: C_11  and  C_26
    5  A    between atoms: C_13  and  C_21
    6  A    between atoms: C_14  and  C_19
    7  A    between atoms: C_16  and  C_17
    8  A    between atoms: C_16  and  C_21
                            x       y       z     vdW  Elec       q    Type
                         _______ _______ _______ _____ _____    ______ ____

>  <TORSDO>
F 8

$$$$
=
 OpenBabel11042409513D

 33 36  0  0  1  0  0  0  0  0999 V2000
  189.4080  177.9600  142.3190 C   0  0  2  0  0  3  0  0  0  0  0  0
  190.6190  175.6790  137.9720 C   0  0  0  0  0  3  0  0  0  0  0  0
  189.6380  177.7620  140.8840 N   0  0  0  0  0  0  0  0  0  0  0  0
  188.1930  177.0210  137.5470 C   0  0  0  0  0  3  0  0  0  0  0  0
  187.5680  178.6280  140.1050 O   0  0  0  0  0  0  0  0  0  0  0  0
  189.8960  175.5290  136.7770 C   0  0  0  0  0  0  0  0  0  0  0  0
  190.6440  176.8480  140.3080 C   0  0  1  0  0  3  0  0  0  0  0  0
  188.7140  176.1950  136.5930 N   0  0  0  0  0  0  0  0  0  0  0  0
  188.9050  177.1840  138.7300 C   0  0  0  0  0  0  0  0  0  0  0  0
  190.3940  174.6760  135.7530 N   0  0  0  0  0  1  0  0  0  0  0  0
  190.0940  176.5300  138.9440 C   0  0  0  0  0  0  0  0  0  0  0  0
  188.6050  177.9390  139.9170 C   0  0  0  0  0  0  0  0  0  0  0  0
  193.1320  176.8250  140.3970 C   0  0  0  0  0  2  0  0  0  0  0  0
  191.9950  177.5030  140.2230 C   0  0  0  0  0  3  0  0  0  0  0  0
  190.7170  177.9680  143.1250 C   0  0  1  0  0  3  0  0  0  0  0  0
  190.8160  179.2330  143.9610 C   0  0  0  0  0  1  0  0  0  0  0  0
  190.8180  176.7850  144.0350 C   0  0  0  0  0  0  0  0  0  0  0  0
  191.2920  175.7020  143.6000 O   0  0  0  0  0  0  0  0  0  0  0  0
  190.4110  176.8770  145.3610 O   0  0  0  0  0  1  0  0  0  0  0  0
  188.3430  176.9920  142.8560 C   0  0  0  0  0  2  0  0  0  0  0  0
  187.1140  177.6910  143.3410 C   0  0  0  0  0  0  0  0  0  0  0  0
  185.5630  178.6110  143.9630 C   0  0  1  0  0  3  0  0  0  0  0  0
  186.2710  177.4720  144.3610 N   0  0  0  0  0  0  0  0  0  0  0  0
  186.3660  178.8760  142.8720 N   0  0  0  0  0  2  0  0  0  0  0  0
  184.1840  178.2460  143.5110 C   0  0  0  0  0  3  0  0  0  0  0  0
  183.2210  179.1610  143.4790 C   0  0  0  0  0  3  0  0  0  0  0  0
  182.5250  178.9830  140.7170 O   0  0  0  0  0  1  0  0  0  0  0  0
  180.2350  178.4970  141.2710 C   0  0  0  0  0  3  0  0  0  0  0  0
  181.5410  178.7810  141.6780 C   0  0  0  0  0  0  0  0  0  0  0  0
  179.5530  178.3740  143.5560 N   0  0  0  0  0  0  0  0  0  0  0  0
  181.8460  178.8580  143.0460 C   0  0  0  0  0  0  0  0  0  0  0  0
  179.2450  178.2960  142.2330 C   0  0  0  0  0  3  0  0  0  0  0  0
  180.8170  178.6470  143.9770 C   0  0  0  0  0  3  0  0  0  0  0  0
  1 20  1  1  0  0  0
  1 15  1  0  0  0  0
  2 11  1  0  0  0  0
  3  1  1  0  0  0  0
  4  9  1  0  0  0  0
  6  2  2  0  0  0  0
  7 14  1  6  0  0  0
  7  3  1  0  0  0  0
  8  6  1  0  0  0  0
  8  4  2  0  0  0  0
  9 11  2  0  0  0  0
  9 12  1  0  0  0  0
 10  6  1  0  0  0  0
 11  7  1  0  0  0  0
 12  5  2  0  0  0  0
 12  3  1  0  0  0  0
 14 13  2  0  0  0  0
 15 16  1  1  0  0  0
 15 17  1  0  0  0  0
 17 19  1  0  0  0  0
 18 17  2  0  0  0  0
 20 21  1  0  0  0  0
 21 23  2  0  0  0  0
 22 25  1  6  0  0  0
 22 23  1  0  0  0  0
 24 21  1  0  0  0  0
 24 22  1  0  0  0  0
 26 25  2  0  0  0  0
 27 29  1  0  0  0  0
 28 29  2  0  0  0  0
 28 32  1  0  0  0  0
 29 31  1  0  0  0  0
 30 33  1  0  0  0  0
 31 26  1  0  0  0  0
 31 33  2  0  0  0  0
 32 30  2  0  0  0  0
M  END
>  <MODEL>
6

>  <REMARK>
 VINA RESULT:      -7.1      2.642      7.521
  Name = 
  8 active torsions:
  status: ('A' for Active; 'I' for Inactive)
    1  A    between atoms: N_5  and  C_21
    2  A    between atoms: C_7  and  C_20
    3  A    between atoms: C_10  and  C_13
    4  A    between atoms: C_11  and  C_26
    5  A    between atoms: C_13  and  C_21
    6  A    between atoms: C_14  and  C_19
    7  A    between atoms: C_16  and  C_17
    8  A    between atoms: C_16  and  C_21
                            x       y       z     vdW  Elec       q    Type
                         _______ _______ _______ _____ _____    ______ ____

>  <TORSDO>
F 8

$$$$
=
 OpenBabel11042409513D

 33 36  0  0  1  0  0  0  0  0999 V2000
  183.9560  176.5830  137.8670 C   0  0  2  0  0  3  0  0  0  0  0  0
  188.6190  174.9660  136.7690 C   0  0  0  0  0  3  0  0  0  0  0  0
  185.0360  175.8180  137.2350 N   0  0  0  0  0  0  0  0  0  0  0  0
  187.0260  172.6880  137.1430 C   0  0  0  0  0  3  0  0  0  0  0  0
  184.1240  173.6490  137.5580 O   0  0  0  0  0  0  0  0  0  0  0  0
  189.1740  173.6750  136.7830 C   0  0  0  0  0  0  0  0  0  0  0  0
  186.4000  176.3260  136.9910 C   0  0  1  0  0  3  0  0  0  0  0  0
  188.3760  172.5780  136.9670 N   0  0  0  0  0  0  0  0  0  0  0  0
  186.4650  173.9600  137.1230 C   0  0  0  0  0  0  0  0  0  0  0  0
  190.5760  173.5080  136.6070 N   0  0  0  0  0  1  0  0  0  0  0  0
  187.2400  175.0780  136.9390 C   0  0  0  0  0  0  0  0  0  0  0  0
  185.1090  174.3970  137.3150 C   0  0  0  0  0  0  0  0  0  0  0  0
  187.1890  178.2220  135.5820 C   0  0  0  0  0  2  0  0  0  0  0  0
  186.4750  177.1010  135.7030 C   0  0  0  0  0  3  0  0  0  0  0  0
  182.6270  176.4580  137.1040 C   0  0  1  0  0  3  0  0  0  0  0  0
  181.4550  176.5220  138.0670 C   0  0  0  0  0  1  0  0  0  0  0  0
  182.4670  177.5420  136.0840 C   0  0  0  0  0  0  0  0  0  0  0  0
  183.1090  177.4800  135.0020 O   0  0  0  0  0  0  0  0  0  0  0  0
  181.6000  178.6040  136.3130 O   0  0  0  0  0  1  0  0  0  0  0  0
  184.3850  178.0300  138.1530 C   0  0  0  0  0  2  0  0  0  0  0  0
  184.3260  178.3790  139.6050 C   0  0  0  0  0  0  0  0  0  0  0  0
  184.2160  178.8210  141.4570 C   0  0  1  0  0  3  0  0  0  0  0  0
  184.7800  179.4160  140.3230 N   0  0  0  0  0  0  0  0  0  0  0  0
  183.7530  177.7060  140.7890 N   0  0  0  0  0  2  0  0  0  0  0  0
  185.2810  178.4330  142.4340 C   0  0  0  0  0  3  0  0  0  0  0  0
  185.0730  178.5570  143.7410 C   0  0  0  0  0  3  0  0  0  0  0  0
  184.6340  178.9840  146.5280 O   0  0  0  0  0  1  0  0  0  0  0  0
  186.7970  178.0770  147.0610 C   0  0  0  0  0  3  0  0  0  0  0  0
  185.8340  178.4200  146.1100 C   0  0  0  0  0  0  0  0  0  0  0  0
  188.2340  177.2970  145.3220 N   0  0  0  0  0  0  0  0  0  0  0  0
  186.0850  178.1920  144.7480 C   0  0  0  0  0  0  0  0  0  0  0  0
  188.0030  177.5120  146.6450 C   0  0  0  0  0  3  0  0  0  0  0  0
  187.3120  177.6210  144.3760 C   0  0  0  0  0  3  0  0  0  0  0  0
  1 20  1  6  0  0  0
  2  6  2  0  0  0  0
  2 11  1  0  0  0  0
  3 12  1  0  0  0  0
  3  1  1  0  0  0  0
  6  8  1  0  0  0  0
  7 14  1  6  0  0  0
  7  3  1  0  0  0  0
  8  4  2  0  0  0  0
  9  4  1  0  0  0  0
  9 12  1  0  0  0  0
 10  6  1  0  0  0  0
 11  7  1  0  0  0  0
 11  9  2  0  0  0  0
 12  5  2  0  0  0  0
 13 14  2  0  0  0  0
 15  1  1  0  0  0  0
 15 16  1  1  0  0  0
 17 19  1  0  0  0  0
 17 15  1  0  0  0  0
 18 17  2  0  0  0  0
 20 21  1  0  0  0  0
 21 23  2  0  0  0  0
 21 24  1  0  0  0  0
 22 25  1  1  0  0  0
 23 22  1  0  0  0  0
 24 22  1  0  0  0  0
 25 26  2  0  0  0  0
 26 31  1  0  0  0  0
 29 27  1  0  0  0  0
 29 28  2  0  0  0  0
 30 32  2  0  0  0  0
 31 29  1  0  0  0  0
 32 28  1  0  0  0  0
 33 31  2  0  0  0  0
 33 30  1  0  0  0  0
M  END
>  <MODEL>
7

>  <REMARK>
 VINA RESULT:      -7.1      3.816     10.038
  Name = 
  8 active torsions:
  status: ('A' for Active; 'I' for Inactive)
    1  A    between atoms: N_5  and  C_21
    2  A    between atoms: C_7  and  C_20
    3  A    between atoms: C_10  and  C_13
    4  A    between atoms: C_11  and  C_26
    5  A    between atoms: C_13  and  C_21
    6  A    between atoms: C_14  and  C_19
    7  A    between atoms: C_16  and  C_17
    8  A    between atoms: C_16  and  C_21
                            x       y       z     vdW  Elec       q    Type
                         _______ _______ _______ _____ _____    ______ ____

>  <TORSDO>
F 8

$$$$
=
 OpenBabel11042409513D

 33 36  0  0  1  0  0  0  0  0999 V2000
  188.0530  176.7540  137.6480 C   0  0  2  0  0  3  0  0  0  0  0  0
  185.3230  172.5710  136.8650 C   0  0  0  0  0  3  0  0  0  0  0  0
  187.0320  175.8580  137.0950 N   0  0  0  0  0  0  0  0  0  0  0  0
  183.5110  174.6900  137.1650 C   0  0  0  0  0  3  0  0  0  0  0  0
  185.1580  177.2890  137.3850 O   0  0  0  0  0  0  0  0  0  0  0  0
  183.9370  172.3490  136.9290 C   0  0  0  0  0  0  0  0  0  0  0  0
  187.1870  174.4000  136.9310 C   0  0  1  0  0  3  0  0  0  0  0  0
  183.0720  173.4000  137.0750 N   0  0  0  0  0  0  0  0  0  0  0  0
  184.8800  174.9220  137.0940 C   0  0  0  0  0  0  0  0  0  0  0  0
  183.4300  171.0230  136.8440 N   0  0  0  0  0  1  0  0  0  0  0  0
  185.7720  173.8890  136.9460 C   0  0  0  0  0  0  0  0  0  0  0  0
  185.6380  176.1400  137.1960 C   0  0  0  0  0  0  0  0  0  0  0  0
  188.7730  173.0710  135.5450 C   0  0  0  0  0  2  0  0  0  0  0  0
  187.8850  174.0630  135.6410 C   0  0  0  0  0  3  0  0  0  0  0  0
  188.5890  177.7470  136.6030 C   0  0  1  0  0  3  0  0  0  0  0  0
  187.9710  177.4690  135.2440 C   0  0  0  0  0  1  0  0  0  0  0  0
  188.2960  179.1650  136.9810 C   0  0  0  0  0  0  0  0  0  0  0  0
  189.0780  179.7780  137.7540 O   0  0  0  0  0  1  0  0  0  0  0  0
  187.1790  179.8150  136.4680 O   0  0  0  0  0  0  0  0  0  0  0  0
  189.1450  175.9700  138.3910 C   0  0  0  0  0  2  0  0  0  0  0  0
  189.5930  176.6440  139.6470 C   0  0  0  0  0  0  0  0  0  0  0  0
  190.1700  177.5330  141.2320 C   0  0  1  0  0  3  0  0  0  0  0  0
  190.5540  176.3780  140.5440 N   0  0  0  0  0  0  0  0  0  0  0  0
  189.1390  177.8480  140.3720 N   0  0  0  0  0  2  0  0  0  0  0  0
  189.6270  177.1870  142.5840 C   0  0  0  0  0  3  0  0  0  0  0  0
  189.9140  177.9420  143.6390 C   0  0  0  0  0  3  0  0  0  0  0  0
  191.6500  177.0650  145.7270 O   0  0  0  0  0  1  0  0  0  0  0  0
  189.8110  176.9350  147.2720 C   0  0  0  0  0  3  0  0  0  0  0  0
  190.2930  177.2170  145.9930 C   0  0  0  0  0  0  0  0  0  0  0  0
  187.6030  177.5030  146.5620 N   0  0  0  0  0  0  0  0  0  0  0  0
  189.4090  177.6480  144.9920 C   0  0  0  0  0  0  0  0  0  0  0  0
  188.4500  177.0840  147.5410 C   0  0  0  0  0  3  0  0  0  0  0  0
  188.0490  177.7840  145.3090 C   0  0  0  0  0  3  0  0  0  0  0  0
  1 20  1  6  0  0  0
  2  6  2  0  0  0  0
  2 11  1  0  0  0  0
  3 12  1  0  0  0  0
  3  1  1  0  0  0  0
  6  8  1  0  0  0  0
  7 14  1  6  0  0  0
  7 11  1  0  0  0  0
  7  3  1  0  0  0  0
  8  4  2  0  0  0  0
  9  4  1  0  0  0  0
  9 12  1  0  0  0  0
 10  6  1  0  0  0  0
 11  9  2  0  0  0  0
 12  5  2  0  0  0  0
 13 14  2  0  0  0  0
 15 16  1  6  0  0  0
 15 17  1  0  0  0  0
 15  1  1  0  0  0  0
 17 18  1  0  0  0  0
 19 17  2  0  0  0  0
 20 21  1  0  0  0  0
 21 24  1  0  0  0  0
 21 23  2  0  0  0  0
 22 25  1  1  0  0  0
 23 22  1  0  0  0  0
 24 22  1  0  0  0  0
 25 26  2  0  0  0  0
 26 31  1  0  0  0  0
 27 29  1  0  0  0  0
 28 32  1  0  0  0  0
 29 28  2  0  0  0  0
 30 32  2  0  0  0  0
 31 33  2  0  0  0  0
 31 29  1  0  0  0  0
 33 30  1  0  0  0  0
M  END
>  <MODEL>
8

>  <REMARK>
 VINA RESULT:      -7.1      3.063      9.019
  Name = 
  8 active torsions:
  status: ('A' for Active; 'I' for Inactive)
    1  A    between atoms: N_5  and  C_21
    2  A    between atoms: C_7  and  C_20
    3  A    between atoms: C_10  and  C_13
    4  A    between atoms: C_11  and  C_26
    5  A    between atoms: C_13  and  C_21
    6  A    between atoms: C_14  and  C_19
    7  A    between atoms: C_16  and  C_17
    8  A    between atoms: C_16  and  C_21
                            x       y       z     vdW  Elec       q    Type
                         _______ _______ _______ _____ _____    ______ ____

>  <TORSDO>
F 8

$$$$
=
 OpenBabel11042409513D

 33 36  0  0  1  0  0  0  0  0999 V2000
  189.4620  177.3980  138.6360 C   0  0  2  0  0  3  0  0  0  0  0  0
  188.9260  177.1800  143.6590 C   0  0  0  0  0  3  0  0  0  0  0  0
  189.6700  177.6900  140.0580 N   0  0  0  0  0  0  0  0  0  0  0  0
  191.6780  177.1000  143.1220 C   0  0  0  0  0  3  0  0  0  0  0  0
  192.0370  177.4920  140.0830 O   0  0  0  0  0  0  0  0  0  0  0  0
  189.8670  176.9540  144.6770 C   0  0  0  0  0  0  0  0  0  0  0  0
  188.6270  177.6060  141.0990 C   0  0  1  0  0  3  0  0  0  0  0  0
  191.2060  176.9200  144.3900 N   0  0  0  0  0  0  0  0  0  0  0  0
  190.7560  177.3330  142.1080 C   0  0  0  0  0  0  0  0  0  0  0  0
  189.4260  176.7570  146.0150 N   0  0  0  0  0  1  0  0  0  0  0  0
  189.4070  177.3740  142.3650 C   0  0  0  0  0  0  0  0  0  0  0  0
  190.9350  177.5160  140.6930 C   0  0  0  0  0  0  0  0  0  0  0  0
  186.5000  178.8700  141.3820 C   0  0  0  0  0  2  0  0  0  0  0  0
  187.8180  178.8720  141.1700 C   0  0  0  0  0  3  0  0  0  0  0  0
  188.3190  178.2280  138.0290 C   0  0  1  0  0  3  0  0  0  0  0  0
  188.8780  179.3780  137.2090 C   0  0  0  0  0  1  0  0  0  0  0  0
  187.4350  177.4010  137.1510 C   0  0  0  0  0  0  0  0  0  0  0  0
  186.3150  177.0140  137.5800 O   0  0  0  0  0  1  0  0  0  0  0  0
  187.8300  177.0730  135.8590 O   0  0  0  0  0  0  0  0  0  0  0  0
  189.3450  175.8870  138.3840 C   0  0  0  0  0  2  0  0  0  0  0  0
  190.5150  175.3290  137.6400 C   0  0  0  0  0  0  0  0  0  0  0  0
  191.9890  174.6170  136.6620 C   0  0  1  0  0  3  0  0  0  0  0  0
  191.2650  174.2280  137.7940 N   0  0  0  0  0  0  0  0  0  0  0  0
  191.2850  175.7870  136.4650 N   0  0  0  0  0  2  0  0  0  0  0  0
  193.4090  174.9250  137.0230 C   0  0  0  0  0  3  0  0  0  0  0  0
  194.3930  174.1190  136.6360 C   0  0  0  0  0  3  0  0  0  0  0  0
  195.5380  173.2430  139.0980 O   0  0  0  0  0  1  0  0  0  0  0  0
  197.6740  174.1700  138.4950 C   0  0  0  0  0  3  0  0  0  0  0  0
  196.3350  173.9260  138.1860 C   0  0  0  0  0  0  0  0  0  0  0  0
  197.9510  175.2840  136.4010 N   0  0  0  0  0  0  0  0  0  0  0  0
  195.8070  174.3710  136.9640 C   0  0  0  0  0  0  0  0  0  0  0  0
  198.4750  174.8580  137.5820 C   0  0  0  0  0  3  0  0  0  0  0  0
  196.6500  175.0580  136.0770 C   0  0  0  0  0  3  0  0  0  0  0  0
  1 20  1  1  0  0  0
  1  3  1  0  0  0  0
  2  6  1  0  0  0  0
  3 12  1  0  0  0  0
  3  7  1  0  0  0  0
  4  8  1  0  0  0  0
  5 12  2  0  0  0  0
  6 10  1  0  0  0  0
  7 14  1  1  0  0  0
  7 11  1  0  0  0  0
  8  6  2  0  0  0  0
  9 11  1  0  0  0  0
  9  4  2  0  0  0  0
 11  2  2  0  0  0  0
 12  9  1  0  0  0  0
 14 13  2  0  0  0  0
 15 16  1  6  0  0  0
 15  1  1  0  0  0  0
 17 18  1  0  0  0  0
 17 15  1  0  0  0  0
 19 17  2  0  0  0  0
 21 23  2  0  0  0  0
 21 20  1  0  0  0  0
 22 25  1  1  0  0  0
 22 23  1  0  0  0  0
 24 22  1  0  0  0  0
 24 21  1  0  0  0  0
 26 31  1  0  0  0  0
 26 25  2  0  0  0  0
 29 28  1  0  0  0  0
 29 27  1  0  0  0  0
 30 32  1  0  0  0  0
 31 29  2  0  0  0  0
 32 28  2  0  0  0  0
 33 30  2  0  0  0  0
 33 31  1  0  0  0  0
M  END
>  <MODEL>
9

>  <REMARK>
 VINA RESULT:      -7.0      4.009      7.575
  Name = 
  8 active torsions:
  status: ('A' for Active; 'I' for Inactive)
    1  A    between atoms: N_5  and  C_21
    2  A    between atoms: C_7  and  C_20
    3  A    between atoms: C_10  and  C_13
    4  A    between atoms: C_11  and  C_26
    5  A    between atoms: C_13  and  C_21
    6  A    between atoms: C_14  and  C_19
    7  A    between atoms: C_16  and  C_17
    8  A    between atoms: C_16  and  C_21
                            x       y       z     vdW  Elec       q    Type
                         _______ _______ _______ _____ _____    ______ ____

>  <TORSDO>
F 8

$$$$
