=
 OpenBabel11042411483D

 53 56  0  0  1  0  0  0  0  0999 V2000
  183.6540  177.5620  136.0480 C   0  0  0  0  0  2  0  0  0  0  0  0
  185.9290  178.7090  137.6710 C   0  0  0  0  0  2  0  0  0  0  0  0
  181.4170  179.2590  135.7620 O   0  0  0  0  0  0  0  0  0  0  0  0
  184.6130  176.6200  136.0460 C   0  0  1  0  0  3  0  0  0  0  0  0
  182.4300  177.4530  136.8870 C   0  0  2  0  0  3  0  0  0  0  0  0
  185.1000  177.6800  139.7040 O   0  0  0  0  0  0  0  0  0  0  0  0
  185.9960  177.0740  135.7260 C   0  0  0  0  0  2  0  0  0  0  0  0
  180.7630  177.1990  139.4330 C   0  0  0  0  0  2  0  0  0  0  0  0
  179.3940  178.4620  137.8440 N   0  0  0  0  0  0  0  0  0  0  0  0
  179.7620  178.2720  139.0780 C   0  0  0  0  0  0  0  0  0  0  0  0
  182.1610  177.7380  139.4010 C   0  0  0  0  0  0  0  0  0  0  0  0
  184.2690  178.3860  140.5960 C   0  0  1  0  0  3  0  0  0  0  0  0
  181.2610  178.1900  136.3240 C   0  0  0  0  0  0  0  0  0  0  0  0
  179.8890  177.7110  136.6960 C   0  0  2  0  0  3  0  0  0  0  0  0
  186.7290  177.6100  136.9560 C   0  0  1  0  0  3  0  0  0  0  0  0
  182.7880  178.0440  138.1650 N   0  0  0  0  0  2  0  0  0  0  0  0
  186.0170  178.6100  139.1910 C   0  0  0  0  0  2  0  0  0  0  0  0
  178.9320  177.8710  135.5310 C   0  0  0  0  0  1  0  0  0  0  0  0
  182.8500  177.8760  140.5340 C   0  0  0  0  0  3  0  0  0  0  0  0
  179.2460  179.1690  140.0760 N   0  0  0  0  0  0  0  0  0  0  0  0
  180.6170  181.0350  139.5530 N   0  0  0  0  0  1  0  0  0  0  0  0
  178.9310  181.1310  141.3280 N   0  0  0  0  0  1  0  0  0  0  0  0
  179.5700  180.4120  140.2770 C   0  0  0  0  0  0  0  0  0  0  0  0
  188.3360  177.8590  135.2090 F   0  0  0  0  0  0  0  0  0  0  0  0
  189.1050  177.6140  137.3090 F   0  0  0  0  0  0  0  0  0  0  0  0
  188.0930  178.1660  136.5330 C   0  0  0  0  0  0  0  0  0  0  0  0
  188.1110  179.5550  136.6920 F   0  0  0  0  0  0  0  0  0  0  0  0
  184.7650  178.2030  142.0250 C   0  0  0  0  0  2  0  0  0  0  0  0
  183.8420  178.8450  143.0420 C   0  0  0  0  0  2  0  0  0  0  0  0
  185.2170  179.0260  145.0290 C   0  0  1  0  0  3  0  0  0  0  0  0
  184.1090  178.2900  144.4300 C   0  0  1  0  0  3  0  0  0  0  0  0
  183.8350  179.3300  145.4340 N   0  0  0  0  0  2  0  0  0  0  0  0
  185.8750  178.1720  146.1000 C   0  0  0  0  0  2  0  0  0  0  0  0
  186.8440  177.1770  145.4730 C   0  0  0  0  0  2  0  0  0  0  0  0
  188.1140  177.8670  144.9800 C   0  0  0  0  0  2  0  0  0  0  0  0
  188.4340  177.3420  141.3740 O   0  0  0  0  0  0  0  0  0  0  0  0
  188.5150  177.1020  142.6040 C   0  0  0  0  0  0  0  0  0  0  0  0
  188.0480  178.0720  143.5390 N   0  0  0  0  0  2  0  0  0  0  0  0
  189.1320  175.8250  143.0590 C   0  0  0  0  0  2  0  0  0  0  0  0
  190.6400  175.9950  143.1750 C   0  0  0  0  0  1  0  0  0  0  0  0
  184.4180  175.2090  136.5470 C   0  0  1  0  0  3  0  0  0  0  0  0
  182.9810  174.7940  136.6120 C   0  0  0  0  0  0  0  0  0  0  0  0
  182.4440  174.5650  137.7330 O   0  0  0  0  0  1  0  0  0  0  0  0
  182.2550  174.5990  135.4410 O   0  0  0  0  0  0  0  0  0  0  0  0
  185.1730  174.3000  135.7920 O   0  0  0  0  0  0  0  0  0  0  0  0
  188.0460  172.2050  136.2270 C   0  0  1  0  0  3  0  0  0  0  0  0
  187.7190  171.0230  135.3360 C   0  0  0  0  0  1  0  0  0  0  0  0
  187.4870  173.4780  135.6080 C   0  0  1  0  0  3  0  0  0  0  0  0
  186.1180  172.8870  137.5730 C   0  0  0  0  0  2  0  0  0  0  0  0
  186.3410  173.9420  136.5040 C   0  0  2  0  0  3  0  0  0  0  0  0
  187.3790  172.0380  137.5780 C   0  0  0  0  0  2  0  0  0  0  0  0
  189.4030  174.5540  136.6130 O   0  0  0  0  0  1  0  0  0  0  0  0
  188.5590  174.5620  135.4970 C   0  0  0  0  0  2  0  0  0  0  0  0
  2 17  1  0  0  0  0
  3 13  2  0  0  0  0
  4  1  1  0  0  0  0
  4 41  1  1  0  0  0
  5  1  1  6  0  0  0
  5 16  1  0  0  0  0
  6 12  1  0  0  0  0
  7  4  1  0  0  0  0
  7 15  1  0  0  0  0
  9 10  2  0  0  0  0
 10  8  1  0  0  0  0
 10 20  1  0  0  0  0
 11  8  1  0  0  0  0
 11 19  2  0  0  0  0
 12 28  1  1  0  0  0
 13 14  1  0  0  0  0
 13  5  1  0  0  0  0
 14 18  1  6  0  0  0
 14  9  1  0  0  0  0
 15 26  1  6  0  0  0
 15  2  1  0  0  0  0
 16 11  1  0  0  0  0
 17  6  1  0  0  0  0
 19 12  1  0  0  0  0
 20 23  2  0  0  0  0
 21 23  1  0  0  0  0
 23 22  1  0  0  0  0
 24 26  1  0  0  0  0
 26 27  1  0  0  0  0
 26 25  1  0  0  0  0
 28 29  1  0  0  0  0
 30 32  1  0  0  0  0
 30 33  1  1  0  0  0
 31 29  1  6  0  0  0
 31 30  1  0  0  0  0
 31 32  1  0  0  0  0
 34 33  1  0  0  0  0
 35 34  1  0  0  0  0
 36 37  2  0  0  0  0
 37 39  1  0  0  0  0
 37 38  1  0  0  0  0
 38 35  1  0  0  0  0
 39 40  1  0  0  0  0
 41 45  1  6  0  0  0
 41 42  1  0  0  0  0
 42 43  1  0  0  0  0
 44 42  2  0  0  0  0
 46 47  1  6  0  0  0
 46 51  1  0  0  0  0
 48 53  1  1  0  0  0
 48 46  1  0  0  0  0
 48 50  1  0  0  0  0
 49 51  1  0  0  0  0
 50 45  1  6  0  0  0
 50 49  1  0  0  0  0
 53 52  1  0  0  0  0
M  END
>  <MODEL>
1

>  <REMARK>
 VINA RESULT:      -6.2      0.000      0.000
  Name = 
  15 active torsions:
  status: ('A' for Active; 'I' for Inactive)
    1  A    between atoms: C_1  and  C_15
    2  A    between atoms: C_1  and  C_37
    3  A    between atoms: N_2  and  C_35
    4  A    between atoms: C_5  and  C_12
    5  A    between atoms: C_5  and  C_32
    6  A    between atoms: C_10  and  C_13
    7  A    between atoms: C_10  and  C_17
    8  A    between atoms: C_10  and  O_52
    9  A    between atoms: C_15  and  C_23
   10  A    between atoms: C_18  and  C_33
   11  A    between atoms: C_26  and  C_28
   12  A    between atoms: C_31  and  C_40
   13  A    between atoms: C_32  and  C_43
   14  A    between atoms: C_42  and  O_52
   15  A    between atoms: C_43  and  N_48
                            x       y       z     vdW  Elec       q    Type
                         _______ _______ _______ _____ _____    ______ ____

>  <TORSDO>
F 15

$$$$
=
 OpenBabel11042411483D

 53 56  0  0  1  0  0  0  0  0999 V2000
  182.0500  176.5870  139.0810 C   0  0  0  0  0  2  0  0  0  0  0  0
  184.3840  177.7520  140.6050 C   0  0  0  0  0  2  0  0  0  0  0  0
  182.3760  173.9040  138.2650 O   0  0  0  0  0  0  0  0  0  0  0  0
  181.6910  177.8440  139.3910 C   0  0  1  0  0  3  0  0  0  0  0  0
  182.4770  176.1920  137.7120 C   0  0  2  0  0  3  0  0  0  0  0  0
  185.3520  178.6630  138.5770 O   0  0  0  0  0  0  0  0  0  0  0  0
  181.9040  178.2730  140.8020 C   0  0  0  0  0  2  0  0  0  0  0  0
  184.1530  176.2150  135.1580 C   0  0  0  0  0  2  0  0  0  0  0  0
  183.3150  173.9280  135.4050 N   0  0  0  0  0  0  0  0  0  0  0  0
  184.2840  174.7160  135.0390 C   0  0  0  0  0  0  0  0  0  0  0  0
  184.6520  176.6930  136.4880 C   0  0  0  0  0  0  0  0  0  0  0  0
  186.3340  177.9580  137.8540 C   0  0  1  0  0  3  0  0  0  0  0  0
  182.2260  174.7540  137.4060 C   0  0  0  0  0  0  0  0  0  0  0  0
  182.0440  174.3670  135.9680 C   0  0  2  0  0  3  0  0  0  0  0  0
  183.3270  178.7760  141.0460 C   0  0  1  0  0  3  0  0  0  0  0  0
  183.9080  176.4400  137.6710 N   0  0  0  0  0  2  0  0  0  0  0  0
  185.5910  178.4000  139.9350 C   0  0  0  0  0  2  0  0  0  0  0  0
  181.0170  173.2590  135.8370 C   0  0  0  0  0  1  0  0  0  0  0  0
  185.7700  177.4140  136.5630 C   0  0  0  0  0  3  0  0  0  0  0  0
  185.5090  174.1080  134.5950 N   0  0  0  0  0  0  0  0  0  0  0  0
  186.4220  173.6510  136.7380 N   0  0  0  0  0  1  0  0  0  0  0  0
  187.5920  173.0260  134.6780 N   0  0  0  0  0  1  0  0  0  0  0  0
  186.4510  173.5830  135.3230 C   0  0  0  0  0  0  0  0  0  0  0  0
  184.6130  179.8920  142.7180 F   0  0  0  0  0  0  0  0  0  0  0  0
  183.6940  177.9100  143.2560 F   0  0  0  0  0  0  0  0  0  0  0  0
  183.5090  179.0850  142.5370 C   0  0  0  0  0  0  0  0  0  0  0  0
  182.3760  179.7390  143.0280 F   0  0  0  0  0  0  0  0  0  0  0  0
  187.4880  178.8880  137.5000 C   0  0  0  0  0  2  0  0  0  0  0  0
  188.6110  178.1650  136.7830 C   0  0  0  0  0  2  0  0  0  0  0  0
  189.7420  177.0620  138.6200 C   0  0  1  0  0  3  0  0  0  0  0  0
  189.8620  178.1380  137.6430 C   0  0  1  0  0  3  0  0  0  0  0  0
  190.5780  176.8710  137.4250 N   0  0  0  0  0  2  0  0  0  0  0  0
  190.6350  177.3560  139.8150 C   0  0  0  0  0  2  0  0  0  0  0  0
  189.9860  176.8630  141.1030 C   0  0  0  0  0  2  0  0  0  0  0  0
  189.1120  177.9410  141.7380 C   0  0  0  0  0  2  0  0  0  0  0  0
  189.6140  178.1390  145.3560 O   0  0  0  0  0  0  0  0  0  0  0  0
  189.1190  177.7770  144.2610 C   0  0  0  0  0  0  0  0  0  0  0  0
  189.6390  178.3120  143.0460 N   0  0  0  0  0  2  0  0  0  0  0  0
  187.9740  176.8230  144.2580 C   0  0  0  0  0  2  0  0  0  0  0  0
  186.6620  177.5960  144.2450 C   0  0  0  0  0  1  0  0  0  0  0  0
  181.2970  178.8890  138.3740 C   0  0  1  0  0  3  0  0  0  0  0  0
  179.9670  178.6290  137.7380 C   0  0  0  0  0  0  0  0  0  0  0  0
  178.9310  178.5540  138.4580 O   0  0  0  0  0  1  0  0  0  0  0  0
  179.8780  178.4090  136.3670 O   0  0  0  0  0  0  0  0  0  0  0  0
  181.3490  180.1760  138.9300 O   0  0  0  0  0  0  0  0  0  0  0  0
  180.6120  183.2870  137.3180 C   0  0  1  0  0  3  0  0  0  0  0  0
  181.7560  184.1680  137.7810 C   0  0  0  0  0  1  0  0  0  0  0  0
  181.1070  181.8580  137.1490 C   0  0  1  0  0  3  0  0  0  0  0  0
  179.6790  181.9690  139.1570 C   0  0  0  0  0  2  0  0  0  0  0  0
  180.4500  181.0280  138.2490 C   0  0  2  0  0  3  0  0  0  0  0  0
  179.5190  183.2580  138.3680 C   0  0  0  0  0  2  0  0  0  0  0  0
  180.4170  182.3330  134.8830 O   0  0  0  0  0  1  0  0  0  0  0  0
  180.7530  181.3040  135.7690 C   0  0  0  0  0  2  0  0  0  0  0  0
  1  4  1  0  0  0  0
  2 15  1  0  0  0  0
  4 41  1  6  0  0  0
  4  7  1  0  0  0  0
  5  1  1  1  0  0  0
  6 17  1  0  0  0  0
  7 15  1  0  0  0  0
  8 11  1  0  0  0  0
  9 14  1  0  0  0  0
 10  8  1  0  0  0  0
 10  9  2  0  0  0  0
 11 19  2  0  0  0  0
 11 16  1  0  0  0  0
 12 28  1  6  0  0  0
 12  6  1  0  0  0  0
 13  5  1  0  0  0  0
 13  3  2  0  0  0  0
 14 18  1  1  0  0  0
 14 13  1  0  0  0  0
 15 26  1  1  0  0  0
 16  5  1  0  0  0  0
 17  2  1  0  0  0  0
 19 12  1  0  0  0  0
 20 10  1  0  0  0  0
 20 23  2  0  0  0  0
 22 23  1  0  0  0  0
 23 21  1  0  0  0  0
 26 24  1  0  0  0  0
 26 27  1  0  0  0  0
 26 25  1  0  0  0  0
 29 28  1  0  0  0  0
 30 33  1  1  0  0  0
 31 29  1  6  0  0  0
 31 30  1  0  0  0  0
 32 31  1  0  0  0  0
 32 30  1  0  0  0  0
 33 34  1  0  0  0  0
 34 35  1  0  0  0  0
 35 38  1  0  0  0  0
 37 36  2  0  0  0  0
 38 37  1  0  0  0  0
 39 37  1  0  0  0  0
 40 39  1  0  0  0  0
 41 42  1  1  0  0  0
 41 45  1  0  0  0  0
 42 43  1  0  0  0  0
 44 42  2  0  0  0  0
 46 47  1  1  0  0  0
 46 51  1  0  0  0  0
 48 53  1  6  0  0  0
 48 46  1  0  0  0  0
 48 50  1  0  0  0  0
 50 45  1  1  0  0  0
 50 49  1  0  0  0  0
 51 49  1  0  0  0  0
 52 53  1  0  0  0  0
M  END
>  <MODEL>
2

>  <REMARK>
 VINA RESULT:      -6.0      3.393      7.501
  Name = 
  15 active torsions:
  status: ('A' for Active; 'I' for Inactive)
    1  A    between atoms: C_1  and  C_15
    2  A    between atoms: C_1  and  C_37
    3  A    between atoms: N_2  and  C_35
    4  A    between atoms: C_5  and  C_12
    5  A    between atoms: C_5  and  C_32
    6  A    between atoms: C_10  and  C_13
    7  A    between atoms: C_10  and  C_17
    8  A    between atoms: C_10  and  O_52
    9  A    between atoms: C_15  and  C_23
   10  A    between atoms: C_18  and  C_33
   11  A    between atoms: C_26  and  C_28
   12  A    between atoms: C_31  and  C_40
   13  A    between atoms: C_32  and  C_43
   14  A    between atoms: C_42  and  O_52
   15  A    between atoms: C_43  and  N_48
                            x       y       z     vdW  Elec       q    Type
                         _______ _______ _______ _____ _____    ______ ____

>  <TORSDO>
F 15

$$$$
=
 OpenBabel11042411483D

 53 56  0  0  1  0  0  0  0  0999 V2000
  180.9890  175.8850  138.4200 C   0  0  0  0  0  2  0  0  0  0  0  0
  182.6990  177.4100  140.3910 C   0  0  0  0  0  2  0  0  0  0  0  0
  181.6800  173.1670  138.0940 O   0  0  0  0  0  0  0  0  0  0  0  0
  180.4910  177.1330  138.4440 C   0  0  1  0  0  3  0  0  0  0  0  0
  181.8270  175.3800  137.2990 C   0  0  2  0  0  3  0  0  0  0  0  0
  184.1820  178.1720  138.6310 O   0  0  0  0  0  0  0  0  0  0  0  0
  180.2500  177.7310  139.7880 C   0  0  0  0  0  2  0  0  0  0  0  0
  184.1870  175.2670  135.3630 C   0  0  0  0  0  2  0  0  0  0  0  0
  183.4300  172.9570  135.6540 N   0  0  0  0  0  0  0  0  0  0  0  0
  184.4230  173.7810  135.4850 C   0  0  0  0  0  0  0  0  0  0  0  0
  184.2400  175.9300  136.7060 C   0  0  0  0  0  0  0  0  0  0  0  0
  185.3700  177.4800  138.3230 C   0  0  1  0  0  3  0  0  0  0  0  0
  181.7520  173.9010  137.1240 C   0  0  0  0  0  0  0  0  0  0  0  0
  182.0280  173.3440  135.7590 C   0  0  2  0  0  3  0  0  0  0  0  0
  181.5080  178.3800  140.3670 C   0  0  1  0  0  3  0  0  0  0  0  0
  183.1890  175.7460  137.6440 N   0  0  0  0  0  2  0  0  0  0  0  0
  184.0170  178.0830  140.0220 C   0  0  0  0  0  2  0  0  0  0  0  0
  181.1450  172.1420  135.4830 C   0  0  0  0  0  1  0  0  0  0  0  0
  185.2470  176.7500  137.0080 C   0  0  0  0  0  3  0  0  0  0  0  0
  185.7540  173.2370  135.5000 N   0  0  0  0  0  0  0  0  0  0  0  0
  185.9540  172.9760  137.8520 N   0  0  0  0  0  1  0  0  0  0  0  0
  187.7510  172.3130  136.3230 N   0  0  0  0  0  1  0  0  0  0  0  0
  186.4370  172.8260  136.5270 C   0  0  0  0  0  0  0  0  0  0  0  0
  182.3770  178.8370  142.5420 F   0  0  0  0  0  0  0  0  0  0  0  0
  180.2750  178.0490  142.4010 F   0  0  0  0  0  0  0  0  0  0  0  0
  181.2190  178.8660  141.7920 C   0  0  0  0  0  0  0  0  0  0  0  0
  180.7270  180.1740  141.7570 F   0  0  0  0  0  0  0  0  0  0  0  0
  186.5280  178.4620  138.2010 C   0  0  0  0  0  2  0  0  0  0  0  0
  187.8760  177.7840  138.3500 C   0  0  0  0  0  2  0  0  0  0  0  0
  188.6350  177.2720  140.5930 C   0  0  1  0  0  3  0  0  0  0  0  0
  188.6070  178.3130  139.5710 C   0  0  1  0  0  3  0  0  0  0  0  0
  189.8360  177.5300  139.7830 N   0  0  0  0  0  2  0  0  0  0  0  0
  188.8110  177.9080  141.9620 C   0  0  0  0  0  2  0  0  0  0  0  0
  189.1470  176.8500  143.0060 C   0  0  0  0  0  2  0  0  0  0  0  0
  189.2130  177.4480  144.4090 C   0  0  0  0  0  2  0  0  0  0  0  0
  186.3220  177.9340  146.5980 O   0  0  0  0  0  0  0  0  0  0  0  0
  187.4950  177.6470  146.2530 C   0  0  0  0  0  0  0  0  0  0  0  0
  187.8720  177.7670  144.8830 N   0  0  0  0  0  2  0  0  0  0  0  0
  188.4550  177.1520  147.2790 C   0  0  0  0  0  2  0  0  0  0  0  0
  188.2510  177.9120  148.5830 C   0  0  0  0  0  1  0  0  0  0  0  0
  180.3680  178.0200  137.2290 C   0  0  1  0  0  3  0  0  0  0  0  0
  180.6460  177.3100  135.9420 C   0  0  0  0  0  0  0  0  0  0  0  0
  181.7000  177.5720  135.2950 O   0  0  0  0  0  0  0  0  0  0  0  0
  179.7200  176.4090  135.4250 O   0  0  0  0  0  1  0  0  0  0  0  0
  179.1180  178.6560  137.1960 O   0  0  0  0  0  0  0  0  0  0  0  0
  181.1500  181.5170  137.9100 C   0  0  1  0  0  3  0  0  0  0  0  0
  182.2950  180.9090  138.6960 C   0  0  0  0  0  1  0  0  0  0  0  0
  180.6790  180.5280  136.8530 C   0  0  1  0  0  3  0  0  0  0  0  0
  178.9820  180.6440  138.6400 C   0  0  0  0  0  2  0  0  0  0  0  0
  179.2900  180.0570  137.2740 C   0  0  2  0  0  3  0  0  0  0  0  0
  179.9720  181.7830  138.8260 C   0  0  0  0  0  2  0  0  0  0  0  0
  179.5630  182.0660  135.3600 O   0  0  0  0  0  1  0  0  0  0  0  0
  180.6340  181.1710  135.4670 C   0  0  0  0  0  2  0  0  0  0  0  0
  1  4  1  0  0  0  0
  4 41  1  1  0  0  0
  4  7  1  0  0  0  0
  5 16  1  0  0  0  0
  5  1  1  1  0  0  0
  6 17  1  0  0  0  0
  7 15  1  0  0  0  0
  8 10  1  0  0  0  0
  8 11  1  0  0  0  0
  9 14  1  0  0  0  0
 10 20  1  0  0  0  0
 10  9  2  0  0  0  0
 11 19  2  0  0  0  0
 11 16  1  0  0  0  0
 12 28  1  6  0  0  0
 12  6  1  0  0  0  0
 13  5  1  0  0  0  0
 13  3  2  0  0  0  0
 14 18  1  1  0  0  0
 14 13  1  0  0  0  0
 15  2  1  0  0  0  0
 15 26  1  1  0  0  0
 17  2  1  0  0  0  0
 19 12  1  0  0  0  0
 20 23  2  0  0  0  0
 22 23  1  0  0  0  0
 23 21  1  0  0  0  0
 26 25  1  0  0  0  0
 26 24  1  0  0  0  0
 27 26  1  0  0  0  0
 28 29  1  0  0  0  0
 30 33  1  1  0  0  0
 31 29  1  6  0  0  0
 31 32  1  0  0  0  0
 31 30  1  0  0  0  0
 32 30  1  0  0  0  0
 33 34  1  0  0  0  0
 34 35  1  0  0  0  0
 35 38  1  0  0  0  0
 37 36  2  0  0  0  0
 37 39  1  0  0  0  0
 38 37  1  0  0  0  0
 39 40  1  0  0  0  0
 41 42  1  6  0  0  0
 43 42  2  0  0  0  0
 44 42  1  0  0  0  0
 45 41  1  0  0  0  0
 46 47  1  1  0  0  0
 46 51  1  0  0  0  0
 48 53  1  6  0  0  0
 48 50  1  0  0  0  0
 48 46  1  0  0  0  0
 49 51  1  0  0  0  0
 50 45  1  1  0  0  0
 50 49  1  0  0  0  0
 52 53  1  0  0  0  0
M  END
>  <MODEL>
3

>  <REMARK>
 VINA RESULT:      -5.9      3.469      7.232
  Name = 
  15 active torsions:
  status: ('A' for Active; 'I' for Inactive)
    1  A    between atoms: C_1  and  C_15
    2  A    between atoms: C_1  and  C_37
    3  A    between atoms: N_2  and  C_35
    4  A    between atoms: C_5  and  C_12
    5  A    between atoms: C_5  and  C_32
    6  A    between atoms: C_10  and  C_13
    7  A    between atoms: C_10  and  C_17
    8  A    between atoms: C_10  and  O_52
    9  A    between atoms: C_15  and  C_23
   10  A    between atoms: C_18  and  C_33
   11  A    between atoms: C_26  and  C_28
   12  A    between atoms: C_31  and  C_40
   13  A    between atoms: C_32  and  C_43
   14  A    between atoms: C_42  and  O_52
   15  A    between atoms: C_43  and  N_48
                            x       y       z     vdW  Elec       q    Type
                         _______ _______ _______ _____ _____    ______ ____

>  <TORSDO>
F 15

$$$$
=
 OpenBabel11042411483D

 53 56  0  0  1  0  0  0  0  0999 V2000
  183.4370  177.2070  135.4860 C   0  0  0  0  0  2  0  0  0  0  0  0
  185.8680  178.0920  137.0460 C   0  0  0  0  0  2  0  0  0  0  0  0
  181.6610  179.2800  134.7660 O   0  0  0  0  0  0  0  0  0  0  0  0
  184.1520  176.0910  135.7080 C   0  0  1  0  0  3  0  0  0  0  0  0
  182.1970  177.5250  136.2440 C   0  0  2  0  0  3  0  0  0  0  0  0
  184.7650  177.6540  139.1610 O   0  0  0  0  0  0  0  0  0  0  0  0
  185.6120  176.1620  135.4120 C   0  0  0  0  0  2  0  0  0  0  0  0
  180.4440  178.1070  138.6770 C   0  0  0  0  0  2  0  0  0  0  0  0
  179.4500  179.3380  136.8070 N   0  0  0  0  0  0  0  0  0  0  0  0
  179.7290  179.2950  138.0780 C   0  0  0  0  0  0  0  0  0  0  0  0
  181.9290  178.3080  138.6510 C   0  0  0  0  0  0  0  0  0  0  0  0
  184.0950  178.6740  139.8620 C   0  0  1  0  0  3  0  0  0  0  0  0
  181.2470  178.3900  135.4870 C   0  0  0  0  0  0  0  0  0  0  0  0
  179.7910  178.3020  135.8380 C   0  0  2  0  0  3  0  0  0  0  0  0
  186.4130  176.7320  136.5830 C   0  0  1  0  0  3  0  0  0  0  0  0
  182.6460  178.2400  137.4270 N   0  0  0  0  0  2  0  0  0  0  0  0
  185.8870  178.2500  138.5640 C   0  0  0  0  0  2  0  0  0  0  0  0
  178.9310  178.4600  134.6000 C   0  0  0  0  0  1  0  0  0  0  0  0
  182.5980  178.4900  139.7890 C   0  0  0  0  0  3  0  0  0  0  0  0
  179.4050  180.4480  138.8730 N   0  0  0  0  0  0  0  0  0  0  0  0
  180.7020  182.0290  137.6670 N   0  0  0  0  0  1  0  0  0  0  0  0
  179.3420  182.6810  139.5980 N   0  0  0  0  0  1  0  0  0  0  0  0
  179.7810  181.6790  138.6860 C   0  0  0  0  0  0  0  0  0  0  0  0
  188.6320  177.3080  137.2450 F   0  0  0  0  0  0  0  0  0  0  0  0
  187.9990  177.8240  135.1480 F   0  0  0  0  0  0  0  0  0  0  0  0
  187.8800  176.8870  136.1670 C   0  0  0  0  0  0  0  0  0  0  0  0
  188.3770  175.6630  135.7110 F   0  0  0  0  0  0  0  0  0  0  0  0
  184.4940  178.6440  141.3330 C   0  0  0  0  0  2  0  0  0  0  0  0
  183.3830  179.1340  142.2410 C   0  0  0  0  0  2  0  0  0  0  0  0
  184.4390  179.1280  144.4220 C   0  0  1  0  0  3  0  0  0  0  0  0
  183.4550  178.4430  143.5910 C   0  0  1  0  0  3  0  0  0  0  0  0
  183.0050  179.3720  144.6400 N   0  0  0  0  0  2  0  0  0  0  0  0
  184.9530  178.1780  145.4910 C   0  0  0  0  0  2  0  0  0  0  0  0
  186.0840  178.8230  146.2830 C   0  0  0  0  0  2  0  0  0  0  0  0
  187.3710  178.0070  146.1890 C   0  0  0  0  0  2  0  0  0  0  0  0
  188.3190  176.0320  143.2610 O   0  0  0  0  0  0  0  0  0  0  0  0
  188.4400  176.8210  144.2300 C   0  0  0  0  0  0  0  0  0  0  0  0
  187.3080  177.0990  145.0510 N   0  0  0  0  0  2  0  0  0  0  0  0
  189.7540  177.4780  144.4750 C   0  0  0  0  0  2  0  0  0  0  0  0
  190.0650  178.4450  143.3400 C   0  0  0  0  0  1  0  0  0  0  0  0
  183.6220  174.8720  136.4230 C   0  0  1  0  0  3  0  0  0  0  0  0
  184.6280  173.7700  136.5480 C   0  0  0  0  0  0  0  0  0  0  0  0
  185.3280  173.6740  137.5960 O   0  0  0  0  0  1  0  0  0  0  0  0
  184.8370  172.8900  135.4900 O   0  0  0  0  0  0  0  0  0  0  0  0
  183.0910  175.2150  137.6750 O   0  0  0  0  0  0  0  0  0  0  0  0
  179.7100  174.0910  137.3150 C   0  0  1  0  0  3  0  0  0  0  0  0
  179.0510  175.2690  136.6260 C   0  0  0  0  0  1  0  0  0  0  0  0
  181.1480  173.9590  136.8330 C   0  0  1  0  0  3  0  0  0  0  0  0
  181.1630  174.8080  139.1500 C   0  0  0  0  0  2  0  0  0  0  0  0
  182.0460  174.3250  138.0120 C   0  0  2  0  0  3  0  0  0  0  0  0
  179.7620  174.3250  138.8120 C   0  0  0  0  0  2  0  0  0  0  0  0
  180.3070  171.9480  135.7900 O   0  0  0  0  0  1  0  0  0  0  0  0
  181.4460  172.5410  136.3470 C   0  0  0  0  0  2  0  0  0  0  0  0
  1  4  1  0  0  0  0
  2 17  1  0  0  0  0
  3 13  2  0  0  0  0
  4 41  1  1  0  0  0
  5  1  1  6  0  0  0
  5 16  1  0  0  0  0
  6 12  1  0  0  0  0
  7  4  1  0  0  0  0
  7 15  1  0  0  0  0
  9 10  2  0  0  0  0
 10  8  1  0  0  0  0
 10 20  1  0  0  0  0
 11  8  1  0  0  0  0
 11 19  2  0  0  0  0
 12 28  1  1  0  0  0
 13 14  1  0  0  0  0
 13  5  1  0  0  0  0
 14 18  1  6  0  0  0
 14  9  1  0  0  0  0
 15 26  1  6  0  0  0
 15  2  1  0  0  0  0
 16 11  1  0  0  0  0
 17  6  1  0  0  0  0
 19 12  1  0  0  0  0
 21 23  1  0  0  0  0
 23 20  2  0  0  0  0
 23 22  1  0  0  0  0
 25 26  1  0  0  0  0
 26 24  1  0  0  0  0
 27 26  1  0  0  0  0
 28 29  1  0  0  0  0
 30 32  1  0  0  0  0
 30 33  1  1  0  0  0
 31 29  1  6  0  0  0
 31 30  1  0  0  0  0
 31 32  1  0  0  0  0
 33 34  1  0  0  0  0
 35 34  1  0  0  0  0
 36 37  2  0  0  0  0
 37 39  1  0  0  0  0
 37 38  1  0  0  0  0
 38 35  1  0  0  0  0
 40 39  1  0  0  0  0
 41 42  1  1  0  0  0
 41 45  1  0  0  0  0
 42 43  1  0  0  0  0
 44 42  2  0  0  0  0
 46 47  1  6  0  0  0
 46 51  1  0  0  0  0
 48 53  1  1  0  0  0
 48 46  1  0  0  0  0
 48 50  1  0  0  0  0
 50 45  1  6  0  0  0
 50 49  1  0  0  0  0
 51 49  1  0  0  0  0
 52 53  1  0  0  0  0
M  END
>  <MODEL>
4

>  <REMARK>
 VINA RESULT:      -5.6      1.750      3.377
  Name = 
  15 active torsions:
  status: ('A' for Active; 'I' for Inactive)
    1  A    between atoms: C_1  and  C_15
    2  A    between atoms: C_1  and  C_37
    3  A    between atoms: N_2  and  C_35
    4  A    between atoms: C_5  and  C_12
    5  A    between atoms: C_5  and  C_32
    6  A    between atoms: C_10  and  C_13
    7  A    between atoms: C_10  and  C_17
    8  A    between atoms: C_10  and  O_52
    9  A    between atoms: C_15  and  C_23
   10  A    between atoms: C_18  and  C_33
   11  A    between atoms: C_26  and  C_28
   12  A    between atoms: C_31  and  C_40
   13  A    between atoms: C_32  and  C_43
   14  A    between atoms: C_42  and  O_52
   15  A    between atoms: C_43  and  N_48
                            x       y       z     vdW  Elec       q    Type
                         _______ _______ _______ _____ _____    ______ ____

>  <TORSDO>
F 15

$$$$
=
 OpenBabel11042411483D

 53 56  0  0  1  0  0  0  0  0999 V2000
  181.6900  179.6770  142.1210 C   0  0  0  0  0  2  0  0  0  0  0  0
  182.1000  180.9190  139.3970 C   0  0  0  0  0  2  0  0  0  0  0  0
  183.4860  180.5540  144.1150 O   0  0  0  0  0  0  0  0  0  0  0  0
  180.7370  179.1500  141.3340 C   0  0  1  0  0  3  0  0  0  0  0  0
  182.9030  178.9160  142.5250 C   0  0  2  0  0  3  0  0  0  0  0  0
  183.5200  179.0850  138.6900 O   0  0  0  0  0  0  0  0  0  0  0  0
  179.9570  180.1060  140.4970 C   0  0  0  0  0  2  0  0  0  0  0  0
  185.4940  177.3350  142.1760 C   0  0  0  0  0  2  0  0  0  0  0  0
  185.6990  178.5230  144.3070 N   0  0  0  0  0  0  0  0  0  0  0  0
  186.2790  178.0790  143.2290 C   0  0  0  0  0  0  0  0  0  0  0  0
  184.9470  178.2790  141.1480 C   0  0  0  0  0  0  0  0  0  0  0  0
  184.9210  179.1590  138.8000 C   0  0  1  0  0  3  0  0  0  0  0  0
  183.4820  179.3710  143.8210 C   0  0  0  0  0  0  0  0  0  0  0  0
  184.2810  178.3810  144.6160 C   0  0  2  0  0  3  0  0  0  0  0  0
  180.6620  180.4280  139.1780 C   0  0  1  0  0  3  0  0  0  0  0  0
  183.8710  179.1500  141.4670 N   0  0  0  0  0  2  0  0  0  0  0  0
  183.0760  180.3750  138.3590 C   0  0  0  0  0  2  0  0  0  0  0  0
  184.0600  178.5840  146.1020 C   0  0  0  0  0  1  0  0  0  0  0  0
  185.4270  178.2640  139.9050 C   0  0  0  0  0  3  0  0  0  0  0  0
  187.6690  178.3920  143.0400 N   0  0  0  0  0  0  0  0  0  0  0  0
  188.5570  176.7630  144.5210 N   0  0  0  0  0  1  0  0  0  0  0  0
  190.0060  178.2650  143.2370 N   0  0  0  0  0  1  0  0  0  0  0  0
  188.7010  177.7950  143.5590 C   0  0  0  0  0  0  0  0  0  0  0  0
  179.0900  180.9130  137.4490 F   0  0  0  0  0  0  0  0  0  0  0  0
  180.7280  182.4090  137.8220 F   0  0  0  0  0  0  0  0  0  0  0  0
  179.8660  181.5020  138.4260 C   0  0  0  0  0  0  0  0  0  0  0  0
  179.0390  182.1920  139.3170 F   0  0  0  0  0  0  0  0  0  0  0  0
  185.5710  178.7010  137.4990 C   0  0  0  0  0  2  0  0  0  0  0  0
  185.4250  177.2080  137.2770 C   0  0  0  0  0  2  0  0  0  0  0  0
  187.5740  176.2600  136.6850 C   0  0  1  0  0  3  0  0  0  0  0  0
  186.3150  176.7490  136.1360 C   0  0  1  0  0  3  0  0  0  0  0  0
  186.5470  175.3010  136.2490 N   0  0  0  0  0  2  0  0  0  0  0  0
  188.6600  176.3460  135.6250 C   0  0  0  0  0  2  0  0  0  0  0  0
  189.9990  176.7070  136.2570 C   0  0  0  0  0  2  0  0  0  0  0  0
  190.3960  175.7060  137.3390 C   0  0  0  0  0  2  0  0  0  0  0  0
  191.7430  177.4960  140.2310 O   0  0  0  0  0  0  0  0  0  0  0  0
  190.8910  176.9810  139.4650 C   0  0  0  0  0  0  0  0  0  0  0  0
  191.3250  176.3210  138.2770 N   0  0  0  0  0  2  0  0  0  0  0  0
  189.4440  177.1040  139.7960 C   0  0  0  0  0  2  0  0  0  0  0  0
  188.9570  178.5070  139.4590 C   0  0  0  0  0  1  0  0  0  0  0  0
  180.5580  177.6710  141.0910 C   0  0  1  0  0  3  0  0  0  0  0  0
  179.7510  176.9880  142.1500 C   0  0  0  0  0  0  0  0  0  0  0  0
  179.5210  177.5780  143.2440 O   0  0  0  0  0  1  0  0  0  0  0  0
  179.3060  175.6830  141.9590 O   0  0  0  0  0  0  0  0  0  0  0  0
  180.0250  177.4320  139.8160 O   0  0  0  0  0  0  0  0  0  0  0  0
  181.4520  174.8950  137.7290 C   0  0  1  0  0  3  0  0  0  0  0  0
  180.6910  173.6580  138.1620 C   0  0  0  0  0  1  0  0  0  0  0  0
  180.5350  176.1080  137.8040 C   0  0  1  0  0  3  0  0  0  0  0  0
  182.1700  176.2360  139.6470 C   0  0  0  0  0  2  0  0  0  0  0  0
  181.0460  176.9800  138.9480 C   0  0  2  0  0  3  0  0  0  0  0  0
  182.6080  175.1530  138.6750 C   0  0  0  0  0  2  0  0  0  0  0  0
  181.0310  178.1830  136.6690 O   0  0  0  0  0  1  0  0  0  0  0  0
  180.5330  176.8880  136.4890 C   0  0  0  0  0  2  0  0  0  0  0  0
  4 41  1  6  0  0  0
  4  1  1  0  0  0  0
  5  1  1  6  0  0  0
  5 13  1  0  0  0  0
  6 12  1  0  0  0  0
  7  4  1  0  0  0  0
  8 10  1  0  0  0  0
  9 14  1  0  0  0  0
 10  9  2  0  0  0  0
 11 16  1  0  0  0  0
 11  8  1  0  0  0  0
 12 28  1  6  0  0  0
 12 19  1  0  0  0  0
 13  3  2  0  0  0  0
 13 14  1  0  0  0  0
 14 18  1  1  0  0  0
 15 26  1  1  0  0  0
 15  2  1  0  0  0  0
 15  7  1  0  0  0  0
 16  5  1  0  0  0  0
 17  6  1  0  0  0  0
 17  2  1  0  0  0  0
 19 11  2  0  0  0  0
 20 10  1  0  0  0  0
 20 23  2  0  0  0  0
 22 23  1  0  0  0  0
 23 21  1  0  0  0  0
 24 26  1  0  0  0  0
 25 26  1  0  0  0  0
 26 27  1  0  0  0  0
 29 28  1  0  0  0  0
 30 33  1  6  0  0  0
 31 32  1  0  0  0  0
 31 30  1  0  0  0  0
 31 29  1  1  0  0  0
 32 30  1  0  0  0  0
 33 34  1  0  0  0  0
 34 35  1  0  0  0  0
 35 38  1  0  0  0  0
 37 39  1  0  0  0  0
 37 36  2  0  0  0  0
 38 37  1  0  0  0  0
 40 39  1  0  0  0  0
 41 45  1  6  0  0  0
 41 42  1  0  0  0  0
 42 43  1  0  0  0  0
 44 42  2  0  0  0  0
 46 48  1  0  0  0  0
 46 47  1  1  0  0  0
 46 51  1  0  0  0  0
 48 53  1  6  0  0  0
 48 50  1  0  0  0  0
 50 49  1  0  0  0  0
 50 45  1  1  0  0  0
 51 49  1  0  0  0  0
 53 52  1  0  0  0  0
M  END
>  <MODEL>
5

>  <REMARK>
 VINA RESULT:      -5.1      3.501      7.577
  Name = 
  15 active torsions:
  status: ('A' for Active; 'I' for Inactive)
    1  A    between atoms: C_1  and  C_15
    2  A    between atoms: C_1  and  C_37
    3  A    between atoms: N_2  and  C_35
    4  A    between atoms: C_5  and  C_12
    5  A    between atoms: C_5  and  C_32
    6  A    between atoms: C_10  and  C_13
    7  A    between atoms: C_10  and  C_17
    8  A    between atoms: C_10  and  O_52
    9  A    between atoms: C_15  and  C_23
   10  A    between atoms: C_18  and  C_33
   11  A    between atoms: C_26  and  C_28
   12  A    between atoms: C_31  and  C_40
   13  A    between atoms: C_32  and  C_43
   14  A    between atoms: C_42  and  O_52
   15  A    between atoms: C_43  and  N_48
                            x       y       z     vdW  Elec       q    Type
                         _______ _______ _______ _____ _____    ______ ____

>  <TORSDO>
F 15

$$$$
=
 OpenBabel11042411483D

 53 56  0  0  1  0  0  0  0  0999 V2000
  185.1680  176.5270  135.9830 C   0  0  0  0  0  2  0  0  0  0  0  0
  187.3090  178.0350  137.4900 C   0  0  0  0  0  2  0  0  0  0  0  0
  183.0910  178.1280  134.9380 O   0  0  0  0  0  0  0  0  0  0  0  0
  186.0590  175.6000  136.3750 C   0  0  1  0  0  3  0  0  0  0  0  0
  183.8500  176.7010  136.6530 C   0  0  2  0  0  3  0  0  0  0  0  0
  186.1860  177.6670  139.6070 O   0  0  0  0  0  0  0  0  0  0  0  0
  187.4960  175.9030  136.1190 C   0  0  0  0  0  2  0  0  0  0  0  0
  181.8880  177.2460  138.9290 C   0  0  0  0  0  2  0  0  0  0  0  0
  180.7950  178.0270  136.8820 N   0  0  0  0  0  0  0  0  0  0  0  0
  181.0050  178.1960  138.1550 C   0  0  0  0  0  0  0  0  0  0  0  0
  183.3110  177.7140  138.9240 C   0  0  0  0  0  0  0  0  0  0  0  0
  185.3050  178.6250  140.1450 C   0  0  1  0  0  3  0  0  0  0  0  0
  182.8040  177.2730  135.7570 C   0  0  0  0  0  0  0  0  0  0  0  0
  181.3700  176.9610  136.0700 C   0  0  2  0  0  3  0  0  0  0  0  0
  188.1140  176.7540  137.2290 C   0  0  1  0  0  3  0  0  0  0  0  0
  184.0960  177.6290  137.7440 N   0  0  0  0  0  2  0  0  0  0  0  0
  187.2130  178.3820  138.9730 C   0  0  0  0  0  2  0  0  0  0  0  0
  180.5660  176.8000  134.7950 C   0  0  0  0  0  1  0  0  0  0  0  0
  183.8720  178.1580  140.0490 C   0  0  0  0  0  3  0  0  0  0  0  0
  180.4350  179.3590  138.7790 N   0  0  0  0  0  0  0  0  0  0  0  0
  182.1760  180.8810  138.2440 N   0  0  0  0  0  1  0  0  0  0  0  0
  180.1770  181.5880  139.4720 N   0  0  0  0  0  1  0  0  0  0  0  0
  180.9060  180.5710  138.7920 C   0  0  0  0  0  0  0  0  0  0  0  0
  190.1390  177.8480  137.8610 F   0  0  0  0  0  0  0  0  0  0  0  0
  189.5580  177.8980  135.6880 F   0  0  0  0  0  0  0  0  0  0  0  0
  189.5510  177.1250  136.8430 C   0  0  0  0  0  0  0  0  0  0  0  0
  190.2960  175.9660  136.6130 F   0  0  0  0  0  0  0  0  0  0  0  0
  185.6200  178.8530  141.6180 C   0  0  0  0  0  2  0  0  0  0  0  0
  184.3710  179.0920  142.4440 C   0  0  0  0  0  2  0  0  0  0  0  0
  185.2220  178.9040  144.7050 C   0  0  1  0  0  3  0  0  0  0  0  0
  184.3930  178.2430  143.7030 C   0  0  1  0  0  3  0  0  0  0  0  0
  183.7560  178.9840  144.8040 N   0  0  0  0  0  2  0  0  0  0  0  0
  185.7340  177.8760  145.7000 C   0  0  0  0  0  2  0  0  0  0  0  0
  187.2150  178.0980  145.9870 C   0  0  0  0  0  2  0  0  0  0  0  0
  188.0200  178.2380  144.6980 C   0  0  0  0  0  2  0  0  0  0  0  0
  191.1610  176.4190  144.2410 O   0  0  0  0  0  0  0  0  0  0  0  0
  189.9890  176.8090  144.0120 C   0  0  0  0  0  0  0  0  0  0  0  0
  189.3770  177.7450  144.8960 N   0  0  0  0  0  2  0  0  0  0  0  0
  189.2520  176.2540  142.8420 C   0  0  0  0  0  2  0  0  0  0  0  0
  189.6070  177.0440  141.5900 C   0  0  0  0  0  1  0  0  0  0  0  0
  185.7180  174.4020  137.2280 C   0  0  1  0  0  3  0  0  0  0  0  0
  184.4290  173.7450  136.8440 C   0  0  0  0  0  0  0  0  0  0  0  0
  183.8390  172.9900  137.6690 O   0  0  0  0  0  1  0  0  0  0  0  0
  183.9120  173.9120  135.5640 O   0  0  0  0  0  0  0  0  0  0  0  0
  186.7730  173.4780  137.2410 O   0  0  0  0  0  0  0  0  0  0  0  0
  187.6430  170.7450  135.0970 C   0  0  1  0  0  3  0  0  0  0  0  0
  188.3550  169.8040  136.0480 C   0  0  0  0  0  1  0  0  0  0  0  0
  186.5290  171.4700  135.8380 C   0  0  1  0  0  3  0  0  0  0  0  0
  188.3620  173.0650  135.4080 C   0  0  0  0  0  2  0  0  0  0  0  0
  186.9490  172.9330  135.9490 C   0  0  2  0  0  3  0  0  0  0  0  0
  188.6060  171.8040  134.5950 C   0  0  0  0  0  2  0  0  0  0  0  0
  184.3960  170.3470  135.6680 O   0  0  0  0  0  1  0  0  0  0  0  0
  185.1950  171.3450  135.1010 C   0  0  0  0  0  2  0  0  0  0  0  0
  1  4  1  0  0  0  0
  2 17  1  0  0  0  0
  3 13  2  0  0  0  0
  4 41  1  1  0  0  0
  5  1  1  6  0  0  0
  5 16  1  0  0  0  0
  6 12  1  0  0  0  0
  7  4  1  0  0  0  0
  7 15  1  0  0  0  0
  9 10  2  0  0  0  0
 10 20  1  0  0  0  0
 10  8  1  0  0  0  0
 11  8  1  0  0  0  0
 11 19  2  0  0  0  0
 12 28  1  1  0  0  0
 13 14  1  0  0  0  0
 13  5  1  0  0  0  0
 14 18  1  6  0  0  0
 14  9  1  0  0  0  0
 15 26  1  6  0  0  0
 15  2  1  0  0  0  0
 16 11  1  0  0  0  0
 17  6  1  0  0  0  0
 19 12  1  0  0  0  0
 20 23  2  0  0  0  0
 21 23  1  0  0  0  0
 23 22  1  0  0  0  0
 25 26  1  0  0  0  0
 26 24  1  0  0  0  0
 27 26  1  0  0  0  0
 28 29  1  0  0  0  0
 30 32  1  0  0  0  0
 30 33  1  1  0  0  0
 31 29  1  6  0  0  0
 31 30  1  0  0  0  0
 31 32  1  0  0  0  0
 33 34  1  0  0  0  0
 35 38  1  0  0  0  0
 35 34  1  0  0  0  0
 37 36  2  0  0  0  0
 37 38  1  0  0  0  0
 39 37  1  0  0  0  0
 40 39  1  0  0  0  0
 41 42  1  6  0  0  0
 41 45  1  0  0  0  0
 42 43  1  0  0  0  0
 44 42  2  0  0  0  0
 46 48  1  0  0  0  0
 46 47  1  1  0  0  0
 48 53  1  6  0  0  0
 48 50  1  0  0  0  0
 49 50  1  0  0  0  0
 50 45  1  1  0  0  0
 51 46  1  0  0  0  0
 51 49  1  0  0  0  0
 53 52  1  0  0  0  0
M  END
>  <MODEL>
6

>  <REMARK>
 VINA RESULT:      -4.7      1.590      2.183
  Name = 
  15 active torsions:
  status: ('A' for Active; 'I' for Inactive)
    1  A    between atoms: C_1  and  C_15
    2  A    between atoms: C_1  and  C_37
    3  A    between atoms: N_2  and  C_35
    4  A    between atoms: C_5  and  C_12
    5  A    between atoms: C_5  and  C_32
    6  A    between atoms: C_10  and  C_13
    7  A    between atoms: C_10  and  C_17
    8  A    between atoms: C_10  and  O_52
    9  A    between atoms: C_15  and  C_23
   10  A    between atoms: C_18  and  C_33
   11  A    between atoms: C_26  and  C_28
   12  A    between atoms: C_31  and  C_40
   13  A    between atoms: C_32  and  C_43
   14  A    between atoms: C_42  and  O_52
   15  A    between atoms: C_43  and  N_48
                            x       y       z     vdW  Elec       q    Type
                         _______ _______ _______ _____ _____    ______ ____

>  <TORSDO>
F 15

$$$$
=
 OpenBabel11042411483D

 53 56  0  0  1  0  0  0  0  0999 V2000
  183.9780  178.6580  137.3330 C   0  0  0  0  0  2  0  0  0  0  0  0
  186.4180  178.9920  139.0830 C   0  0  0  0  0  2  0  0  0  0  0  0
  182.0760  180.7350  137.5280 O   0  0  0  0  0  0  0  0  0  0  0  0
  184.7550  177.5910  137.0810 C   0  0  1  0  0  3  0  0  0  0  0  0
  182.7520  178.5720  138.1730 C   0  0  2  0  0  3  0  0  0  0  0  0
  185.4170  177.6820  140.8610 O   0  0  0  0  0  0  0  0  0  0  0  0
  186.1970  177.8620  136.8170 C   0  0  0  0  0  2  0  0  0  0  0  0
  181.0640  178.0300  140.6600 C   0  0  0  0  0  2  0  0  0  0  0  0
  179.9410  179.8410  139.4520 N   0  0  0  0  0  0  0  0  0  0  0  0
  180.2680  179.3120  140.5960 C   0  0  0  0  0  0  0  0  0  0  0  0
  182.5350  178.3130  140.6950 C   0  0  0  0  0  0  0  0  0  0  0  0
  184.7230  178.2960  141.9220 C   0  0  1  0  0  3  0  0  0  0  0  0
  181.7330  179.6080  137.8380 C   0  0  0  0  0  0  0  0  0  0  0  0
  180.2970  179.3000  138.1460 C   0  0  2  0  0  3  0  0  0  0  0  0
  187.0120  177.9660  138.1070 C   0  0  1  0  0  3  0  0  0  0  0  0
  183.2080  178.7820  139.5360 N   0  0  0  0  0  2  0  0  0  0  0  0
  186.4840  178.5330  140.5370 C   0  0  0  0  0  2  0  0  0  0  0  0
  179.3850  179.8850  137.0860 C   0  0  0  0  0  1  0  0  0  0  0  0
  183.2360  178.0660  141.8020 C   0  0  0  0  0  3  0  0  0  0  0  0
  179.9170  180.0310  141.7900 N   0  0  0  0  0  0  0  0  0  0  0  0
  179.2570  178.1600  143.0950 N   0  0  0  0  0  1  0  0  0  0  0  0
  179.2190  180.4380  143.9960 N   0  0  0  0  0  1  0  0  0  0  0  0
  179.5150  179.5440  142.9270 C   0  0  0  0  0  0  0  0  0  0  0  0
  189.3260  177.7620  138.6520 F   0  0  0  0  0  0  0  0  0  0  0  0
  188.6110  179.7390  137.8520 F   0  0  0  0  0  0  0  0  0  0  0  0
  188.4530  178.3620  137.7670 C   0  0  0  0  0  0  0  0  0  0  0  0
  188.7650  177.9530  136.4680 F   0  0  0  0  0  0  0  0  0  0  0  0
  185.1770  177.7070  143.2510 C   0  0  0  0  0  2  0  0  0  0  0  0
  185.2260  178.7450  144.3550 C   0  0  0  0  0  2  0  0  0  0  0  0
  186.4120  178.8680  146.4640 C   0  0  1  0  0  3  0  0  0  0  0  0
  185.4490  178.0810  145.7020 C   0  0  1  0  0  3  0  0  0  0  0  0
  184.9780  178.9760  146.7720 N   0  0  0  0  0  2  0  0  0  0  0  0
  187.0820  177.9850  147.5040 C   0  0  0  0  0  2  0  0  0  0  0  0
  188.2980  177.2830  146.9090 C   0  0  0  0  0  2  0  0  0  0  0  0
  188.4470  177.5860  145.4200 C   0  0  0  0  0  2  0  0  0  0  0  0
  191.4270  178.8640  143.7270 O   0  0  0  0  0  0  0  0  0  0  0  0
  190.3270  178.2760  143.8790 C   0  0  0  0  0  0  0  0  0  0  0  0
  189.7180  178.2520  145.1680 N   0  0  0  0  0  2  0  0  0  0  0  0
  189.7030  177.5860  142.7150 C   0  0  0  0  0  2  0  0  0  0  0  0
  190.7610  177.3060  141.6560 C   0  0  0  0  0  1  0  0  0  0  0  0
  184.3130  176.1580  137.2560 C   0  0  1  0  0  3  0  0  0  0  0  0
  183.2170  175.9920  138.2610 C   0  0  0  0  0  0  0  0  0  0  0  0
  183.5020  175.7060  139.4590 O   0  0  0  0  0  1  0  0  0  0  0  0
  181.8860  176.0890  137.8680 O   0  0  0  0  0  0  0  0  0  0  0  0
  183.9610  175.5870  136.0240 O   0  0  0  0  0  0  0  0  0  0  0  0
  186.9710  173.7090  136.5130 C   0  0  1  0  0  3  0  0  0  0  0  0
  187.9130  174.7540  137.0770 C   0  0  0  0  0  1  0  0  0  0  0  0
  185.5560  173.9850  137.0000 C   0  0  1  0  0  3  0  0  0  0  0  0
  185.6970  174.5690  134.6070 C   0  0  0  0  0  2  0  0  0  0  0  0
  184.7490  174.4380  135.7860 C   0  0  2  0  0  3  0  0  0  0  0  0
  186.9440  173.7940  134.9990 C   0  0  0  0  0  2  0  0  0  0  0  0
  184.5630  171.8090  136.6560 O   0  0  0  0  0  1  0  0  0  0  0  0
  184.9300  172.7420  137.6320 C   0  0  0  0  0  2  0  0  0  0  0  0
  2 17  1  0  0  0  0
  3 13  2  0  0  0  0
  4 41  1  1  0  0  0
  4  1  1  0  0  0  0
  5  1  1  6  0  0  0
  5 16  1  0  0  0  0
  6 12  1  0  0  0  0
  7  4  1  0  0  0  0
  7 15  1  0  0  0  0
  8 11  1  0  0  0  0
  9 10  2  0  0  0  0
 10  8  1  0  0  0  0
 10 20  1  0  0  0  0
 11 19  2  0  0  0  0
 12 28  1  1  0  0  0
 13 14  1  0  0  0  0
 13  5  1  0  0  0  0
 14 18  1  6  0  0  0
 14  9  1  0  0  0  0
 15 26  1  6  0  0  0
 15  2  1  0  0  0  0
 16 11  1  0  0  0  0
 17  6  1  0  0  0  0
 19 12  1  0  0  0  0
 20 23  2  0  0  0  0
 23 21  1  0  0  0  0
 23 22  1  0  0  0  0
 26 25  1  0  0  0  0
 26 24  1  0  0  0  0
 27 26  1  0  0  0  0
 28 29  1  0  0  0  0
 30 32  1  0  0  0  0
 30 33  1  1  0  0  0
 31 29  1  6  0  0  0
 31 30  1  0  0  0  0
 31 32  1  0  0  0  0
 34 33  1  0  0  0  0
 35 34  1  0  0  0  0
 36 37  2  0  0  0  0
 37 38  1  0  0  0  0
 38 35  1  0  0  0  0
 39 37  1  0  0  0  0
 40 39  1  0  0  0  0
 41 45  1  6  0  0  0
 41 42  1  0  0  0  0
 42 43  1  0  0  0  0
 44 42  2  0  0  0  0
 46 48  1  0  0  0  0
 46 47  1  1  0  0  0
 48 53  1  6  0  0  0
 49 51  1  0  0  0  0
 49 50  1  0  0  0  0
 50 45  1  1  0  0  0
 50 48  1  0  0  0  0
 51 46  1  0  0  0  0
 52 53  1  0  0  0  0
M  END
>  <MODEL>
7

>  <REMARK>
 VINA RESULT:      -4.3      1.773      2.414
  Name = 
  15 active torsions:
  status: ('A' for Active; 'I' for Inactive)
    1  A    between atoms: C_1  and  C_15
    2  A    between atoms: C_1  and  C_37
    3  A    between atoms: N_2  and  C_35
    4  A    between atoms: C_5  and  C_12
    5  A    between atoms: C_5  and  C_32
    6  A    between atoms: C_10  and  C_13
    7  A    between atoms: C_10  and  C_17
    8  A    between atoms: C_10  and  O_52
    9  A    between atoms: C_15  and  C_23
   10  A    between atoms: C_18  and  C_33
   11  A    between atoms: C_26  and  C_28
   12  A    between atoms: C_31  and  C_40
   13  A    between atoms: C_32  and  C_43
   14  A    between atoms: C_42  and  O_52
   15  A    between atoms: C_43  and  N_48
                            x       y       z     vdW  Elec       q    Type
                         _______ _______ _______ _____ _____    ______ ____

>  <TORSDO>
F 15

$$$$
=
 OpenBabel11042411483D

 53 56  0  0  1  0  0  0  0  0999 V2000
  190.1970  176.3220  135.1990 C   0  0  0  0  0  2  0  0  0  0  0  0
  192.6090  176.8900  136.9280 C   0  0  0  0  0  2  0  0  0  0  0  0
  188.3740  178.4630  134.9530 O   0  0  0  0  0  0  0  0  0  0  0  0
  190.9380  175.2010  135.1690 C   0  0  1  0  0  3  0  0  0  0  0  0
  188.9510  176.4350  136.0040 C   0  0  2  0  0  3  0  0  0  0  0  0
  191.5180  175.9660  138.8860 O   0  0  0  0  0  0  0  0  0  0  0  0
  192.3950  175.3690  134.9020 C   0  0  0  0  0  2  0  0  0  0  0  0
  187.1870  176.4190  138.4970 C   0  0  0  0  0  2  0  0  0  0  0  0
  186.1640  178.0130  136.9460 N   0  0  0  0  0  0  0  0  0  0  0  0
  186.4440  177.6940  138.1760 C   0  0  0  0  0  0  0  0  0  0  0  0
  188.6670  176.6540  138.5230 C   0  0  0  0  0  0  0  0  0  0  0  0
  190.8250  176.7890  139.7950 C   0  0  1  0  0  3  0  0  0  0  0  0
  187.9810  177.4250  135.4550 C   0  0  0  0  0  0  0  0  0  0  0  0
  186.5270  177.2290  135.7720 C   0  0  2  0  0  3  0  0  0  0  0  0
  193.1840  175.6820  136.1750 C   0  0  1  0  0  3  0  0  0  0  0  0
  189.3840  176.8770  137.3180 N   0  0  0  0  0  2  0  0  0  0  0  0
  192.6250  176.7060  138.4420 C   0  0  0  0  0  2  0  0  0  0  0  0
  185.6630  177.6390  134.5960 C   0  0  0  0  0  1  0  0  0  0  0  0
  189.3330  176.5910  139.6760 C   0  0  0  0  0  3  0  0  0  0  0  0
  186.0950  178.6320  139.2080 N   0  0  0  0  0  0  0  0  0  0  0  0
  183.9810  177.7070  139.7650 N   0  0  0  0  0  1  0  0  0  0  0  0
  184.8810  179.6630  140.9340 N   0  0  0  0  0  1  0  0  0  0  0  0
  185.0350  178.6340  139.9610 C   0  0  0  0  0  0  0  0  0  0  0  0
  194.9470  175.3740  134.5960 F   0  0  0  0  0  0  0  0  0  0  0  0
  195.4960  175.4330  136.7770 F   0  0  0  0  0  0  0  0  0  0  0  0
  194.6470  175.9580  135.8100 C   0  0  0  0  0  0  0  0  0  0  0  0
  194.8630  177.3360  135.7230 F   0  0  0  0  0  0  0  0  0  0  0  0
  191.2260  176.4400  141.2230 C   0  0  0  0  0  2  0  0  0  0  0  0
  191.7510  177.6410  141.9850 C   0  0  0  0  0  2  0  0  0  0  0  0
  190.0170  177.7920  143.6700 C   0  0  1  0  0  3  0  0  0  0  0  0
  191.4340  177.5150  143.4640 C   0  0  1  0  0  3  0  0  0  0  0  0
  190.4950  176.4000  143.6700 N   0  0  0  0  0  2  0  0  0  0  0  0
  189.7890  178.2420  145.1040 C   0  0  0  0  0  2  0  0  0  0  0  0
  189.5470  177.0410  146.0110 C   0  0  0  0  0  2  0  0  0  0  0  0
  188.0590  176.8370  146.2850 C   0  0  0  0  0  2  0  0  0  0  0  0
  185.8550  179.6510  147.0640 O   0  0  0  0  0  0  0  0  0  0  0  0
  186.2850  178.6270  146.4770 C   0  0  0  0  0  0  0  0  0  0  0  0
  187.4970  178.0220  146.9200 N   0  0  0  0  0  2  0  0  0  0  0  0
  185.5360  178.0910  145.3050 C   0  0  0  0  0  2  0  0  0  0  0  0
  184.3170  178.9620  145.0320 C   0  0  0  0  0  1  0  0  0  0  0  0
  190.4370  173.8410  135.5910 C   0  0  1  0  0  3  0  0  0  0  0  0
  191.5260  172.8270  135.7480 C   0  0  0  0  0  0  0  0  0  0  0  0
  191.7800  172.0260  134.8030 O   0  0  0  0  0  0  0  0  0  0  0  0
  192.2180  172.7230  136.9510 O   0  0  0  0  0  1  0  0  0  0  0  0
  189.6590  173.9320  136.7550 O   0  0  0  0  0  0  0  0  0  0  0  0
  186.4670  172.5670  135.8770 C   0  0  1  0  0  3  0  0  0  0  0  0
  185.6980  173.8000  135.4460 C   0  0  0  0  0  1  0  0  0  0  0  0
  187.9310  172.7190  135.4890 C   0  0  1  0  0  3  0  0  0  0  0  0
  187.7310  172.9600  137.9360 C   0  0  0  0  0  2  0  0  0  0  0  0
  188.7190  172.8760  136.7860 C   0  0  2  0  0  3  0  0  0  0  0  0
  186.4190  172.4250  137.3860 C   0  0  0  0  0  2  0  0  0  0  0  0
  187.7110  170.3560  135.0360 O   0  0  0  0  0  1  0  0  0  0  0  0
  188.4270  171.5090  134.6980 C   0  0  0  0  0  2  0  0  0  0  0  0
  2 17  1  0  0  0  0
  3 13  2  0  0  0  0
  4  1  1  0  0  0  0
  4 41  1  1  0  0  0
  5  1  1  6  0  0  0
  5 16  1  0  0  0  0
  6 12  1  0  0  0  0
  7  4  1  0  0  0  0
  7 15  1  0  0  0  0
  8 11  1  0  0  0  0
  9 10  2  0  0  0  0
 10  8  1  0  0  0  0
 10 20  1  0  0  0  0
 11 19  2  0  0  0  0
 12 28  1  1  0  0  0
 13 14  1  0  0  0  0
 13  5  1  0  0  0  0
 14 18  1  6  0  0  0
 14  9  1  0  0  0  0
 15 26  1  6  0  0  0
 15  2  1  0  0  0  0
 16 11  1  0  0  0  0
 17  6  1  0  0  0  0
 19 12  1  0  0  0  0
 20 23  2  0  0  0  0
 21 23  1  0  0  0  0
 23 22  1  0  0  0  0
 24 26  1  0  0  0  0
 26 25  1  0  0  0  0
 27 26  1  0  0  0  0
 28 29  1  0  0  0  0
 30 32  1  0  0  0  0
 30 33  1  1  0  0  0
 31 29  1  6  0  0  0
 31 30  1  0  0  0  0
 31 32  1  0  0  0  0
 33 34  1  0  0  0  0
 34 35  1  0  0  0  0
 35 38  1  0  0  0  0
 37 38  1  0  0  0  0
 37 36  2  0  0  0  0
 39 37  1  0  0  0  0
 40 39  1  0  0  0  0
 41 42  1  1  0  0  0
 41 45  1  0  0  0  0
 42 44  1  0  0  0  0
 43 42  2  0  0  0  0
 46 47  1  1  0  0  0
 46 51  1  0  0  0  0
 48 53  1  1  0  0  0
 48 46  1  0  0  0  0
 48 50  1  0  0  0  0
 50 45  1  6  0  0  0
 50 49  1  0  0  0  0
 51 49  1  0  0  0  0
 53 52  1  0  0  0  0
M  END
>  <MODEL>
8

>  <REMARK>
 VINA RESULT:      -4.2      3.845      6.200
  Name = 
  15 active torsions:
  status: ('A' for Active; 'I' for Inactive)
    1  A    between atoms: C_1  and  C_15
    2  A    between atoms: C_1  and  C_37
    3  A    between atoms: N_2  and  C_35
    4  A    between atoms: C_5  and  C_12
    5  A    between atoms: C_5  and  C_32
    6  A    between atoms: C_10  and  C_13
    7  A    between atoms: C_10  and  C_17
    8  A    between atoms: C_10  and  O_52
    9  A    between atoms: C_15  and  C_23
   10  A    between atoms: C_18  and  C_33
   11  A    between atoms: C_26  and  C_28
   12  A    between atoms: C_31  and  C_40
   13  A    between atoms: C_32  and  C_43
   14  A    between atoms: C_42  and  O_52
   15  A    between atoms: C_43  and  N_48
                            x       y       z     vdW  Elec       q    Type
                         _______ _______ _______ _____ _____    ______ ____

>  <TORSDO>
F 15

$$$$
=
 OpenBabel11042411483D

 53 56  0  0  1  0  0  0  0  0999 V2000
  185.1160  178.5680  137.6530 C   0  0  0  0  0  2  0  0  0  0  0  0
  188.1050  178.7370  138.0630 C   0  0  0  0  0  2  0  0  0  0  0  0
  183.6310  180.6690  138.8150 O   0  0  0  0  0  0  0  0  0  0  0  0
  185.6320  177.5030  137.0150 C   0  0  1  0  0  3  0  0  0  0  0  0
  184.4240  178.4550  138.9650 C   0  0  2  0  0  3  0  0  0  0  0  0
  187.9900  177.3380  140.0400 O   0  0  0  0  0  0  0  0  0  0  0  0
  186.7940  177.7590  136.1170 C   0  0  0  0  0  2  0  0  0  0  0  0
  184.0720  177.7910  141.9260 C   0  0  0  0  0  2  0  0  0  0  0  0
  182.6050  179.6990  141.4740 N   0  0  0  0  0  0  0  0  0  0  0  0
  183.4030  179.0910  142.3030 C   0  0  0  0  0  0  0  0  0  0  0  0
  185.4000  178.0400  141.2790 C   0  0  0  0  0  0  0  0  0  0  0  0
  187.9040  177.8970  141.3290 C   0  0  1  0  0  3  0  0  0  0  0  0
  183.4190  179.5310  139.1980 C   0  0  0  0  0  0  0  0  0  0  0  0
  182.2810  179.2360  140.1300 C   0  0  2  0  0  3  0  0  0  0  0  0
  188.1220  177.7630  136.8760 C   0  0  1  0  0  3  0  0  0  0  0  0
  185.4750  178.5670  139.9620 N   0  0  0  0  0  2  0  0  0  0  0  0
  188.8220  178.1850  139.2920 C   0  0  0  0  0  2  0  0  0  0  0  0
  181.0080  179.9070  139.6520 C   0  0  0  0  0  1  0  0  0  0  0  0
  186.5250  177.7080  141.9130 C   0  0  0  0  0  3  0  0  0  0  0  0
  183.6880  179.7390  143.5540 N   0  0  0  0  0  0  0  0  0  0  0  0
  184.7790  177.9130  144.6080 N   0  0  0  0  0  1  0  0  0  0  0  0
  184.5150  180.0770  145.7270 N   0  0  0  0  0  1  0  0  0  0  0  0
  184.3390  179.2600  144.5730 C   0  0  0  0  0  0  0  0  0  0  0  0
  190.3290  177.3030  136.0950 F   0  0  0  0  0  0  0  0  0  0  0  0
  189.6700  179.4520  136.1570 F   0  0  0  0  0  0  0  0  0  0  0  0
  189.2540  178.1490  135.9170 C   0  0  0  0  0  0  0  0  0  0  0  0
  188.8100  178.0550  134.5950 F   0  0  0  0  0  0  0  0  0  0  0  0
  188.8990  177.2140  142.2600 C   0  0  0  0  0  2  0  0  0  0  0  0
  190.1010  178.0880  142.5600 C   0  0  0  0  0  2  0  0  0  0  0  0
  190.8300  176.1220  143.7740 C   0  0  1  0  0  3  0  0  0  0  0  0
  191.2940  177.2360  142.9550 C   0  0  1  0  0  3  0  0  0  0  0  0
  191.1580  175.8980  142.3570 N   0  0  0  0  0  2  0  0  0  0  0  0
  191.9730  175.6150  144.6380 C   0  0  0  0  0  2  0  0  0  0  0  0
  191.9080  176.2330  146.0300 C   0  0  0  0  0  2  0  0  0  0  0  0
  190.6420  177.0660  146.2150 C   0  0  0  0  0  2  0  0  0  0  0  0
  187.9800  176.5960  148.6800 O   0  0  0  0  0  0  0  0  0  0  0  0
  188.5710  177.0400  147.6650 C   0  0  0  0  0  0  0  0  0  0  0  0
  189.8930  176.5910  147.3720 N   0  0  0  0  0  2  0  0  0  0  0  0
  187.8910  178.0530  146.8110 C   0  0  0  0  0  2  0  0  0  0  0  0
  186.6290  178.5460  147.5050 C   0  0  0  0  0  1  0  0  0  0  0  0
  185.2540  176.0720  137.3110 C   0  0  1  0  0  3  0  0  0  0  0  0
  183.7960  175.8880  137.5960 C   0  0  0  0  0  0  0  0  0  0  0  0
  183.4290  175.4050  138.7050 O   0  0  0  0  0  1  0  0  0  0  0  0
  182.8480  176.1880  136.6220 O   0  0  0  0  0  0  0  0  0  0  0  0
  185.6800  175.2170  136.2840 O   0  0  0  0  0  0  0  0  0  0  0  0
  187.6190  172.2270  135.9330 C   0  0  1  0  0  3  0  0  0  0  0  0
  186.9290  171.5300  134.7770 C   0  0  0  0  0  1  0  0  0  0  0  0
  187.5630  173.7340  135.7250 C   0  0  1  0  0  3  0  0  0  0  0  0
  186.0070  173.1270  137.5410 C   0  0  0  0  0  2  0  0  0  0  0  0
  186.6230  174.2940  136.7890 C   0  0  2  0  0  3  0  0  0  0  0  0
  186.8900  171.9300  137.2290 C   0  0  0  0  0  2  0  0  0  0  0  0
  189.3330  174.4980  137.1820 O   0  0  0  0  0  1  0  0  0  0  0  0
  188.9510  174.3640  135.8430 C   0  0  0  0  0  2  0  0  0  0  0  0
  2 17  1  0  0  0  0
  3 13  2  0  0  0  0
  4 41  1  1  0  0  0
  4  1  1  0  0  0  0
  5  1  1  6  0  0  0
  5 13  1  0  0  0  0
  5 16  1  0  0  0  0
  6 12  1  0  0  0  0
  7 15  1  0  0  0  0
  7  4  1  0  0  0  0
  8 10  1  0  0  0  0
  9 10  2  0  0  0  0
 10 20  1  0  0  0  0
 11 19  2  0  0  0  0
 11  8  1  0  0  0  0
 12 19  1  0  0  0  0
 12 28  1  1  0  0  0
 13 14  1  0  0  0  0
 14 18  1  6  0  0  0
 14  9  1  0  0  0  0
 15 26  1  6  0  0  0
 15  2  1  0  0  0  0
 16 11  1  0  0  0  0
 17  6  1  0  0  0  0
 20 23  2  0  0  0  0
 23 21  1  0  0  0  0
 23 22  1  0  0  0  0
 26 24  1  0  0  0  0
 26 25  1  0  0  0  0
 27 26  1  0  0  0  0
 28 29  1  0  0  0  0
 30 33  1  1  0  0  0
 31 29  1  6  0  0  0
 31 30  1  0  0  0  0
 32 31  1  0  0  0  0
 32 30  1  0  0  0  0
 33 34  1  0  0  0  0
 34 35  1  0  0  0  0
 35 38  1  0  0  0  0
 37 36  2  0  0  0  0
 38 37  1  0  0  0  0
 39 40  1  0  0  0  0
 39 37  1  0  0  0  0
 41 45  1  6  0  0  0
 41 42  1  0  0  0  0
 42 43  1  0  0  0  0
 44 42  2  0  0  0  0
 46 47  1  6  0  0  0
 46 51  1  0  0  0  0
 48 53  1  1  0  0  0
 48 46  1  0  0  0  0
 48 50  1  0  0  0  0
 50 45  1  6  0  0  0
 50 49  1  0  0  0  0
 51 49  1  0  0  0  0
 53 52  1  0  0  0  0
M  END
>  <MODEL>
9

>  <REMARK>
 VINA RESULT:      -3.8      2.134      4.181
  Name = 
  15 active torsions:
  status: ('A' for Active; 'I' for Inactive)
    1  A    between atoms: C_1  and  C_15
    2  A    between atoms: C_1  and  C_37
    3  A    between atoms: N_2  and  C_35
    4  A    between atoms: C_5  and  C_12
    5  A    between atoms: C_5  and  C_32
    6  A    between atoms: C_10  and  C_13
    7  A    between atoms: C_10  and  C_17
    8  A    between atoms: C_10  and  O_52
    9  A    between atoms: C_15  and  C_23
   10  A    between atoms: C_18  and  C_33
   11  A    between atoms: C_26  and  C_28
   12  A    between atoms: C_31  and  C_40
   13  A    between atoms: C_32  and  C_43
   14  A    between atoms: C_42  and  O_52
   15  A    between atoms: C_43  and  N_48
                            x       y       z     vdW  Elec       q    Type
                         _______ _______ _______ _____ _____    ______ ____

>  <TORSDO>
F 15

$$$$
