=
 OpenBabel11032419523D

 48 52  0  0  1  0  0  0  0  0999 V2000
  187.4380  176.4530  136.4120 S   0  0  0  0  0  0  0  0  0  0  0  0
  186.4650  177.8440  137.1050 C   0  0  2  0  0  3  0  0  0  0  0  0
  188.6400  176.7170  137.7230 C   0  0  2  0  0  3  0  0  0  0  0  0
  187.3560  178.7870  137.7940 N   0  0  0  0  0  2  0  0  0  0  0  0
  188.6780  178.2040  137.9970 C   0  0  1  0  0  3  0  0  0  0  0  0
  190.4550  176.4920  135.9720 O   0  0  0  0  0  0  0  0  0  0  0  0
  190.6950  175.4200  137.9150 N   0  0  0  0  0  0  0  0  0  0  0  0
  191.6680  175.7850  135.7900 C   0  0  0  0  0  2  0  0  0  0  0  0
  189.9620  176.2250  137.2310 C   0  0  0  0  0  0  0  0  0  0  0  0
  191.8090  174.9970  137.0930 C   0  0  1  0  0  3  0  0  0  0  0  0
  193.1660  175.2030  137.7730 C   0  0  2  0  0  3  0  0  0  0  0  0
  193.4870  176.5530  137.7830 O   0  0  0  0  0  1  0  0  0  0  0  0
  196.7370  174.0060  138.2350 C   0  0  2  0  0  3  0  0  0  0  0  0
  196.0200  172.6560  138.2290 C   0  0  2  0  0  3  0  0  0  0  0  0
  194.9850  172.3040  136.0540 C   0  0  0  0  0  2  0  0  0  0  0  0
  194.3460  174.3460  137.2410 C   0  0  2  0  0  3  0  0  0  0  0  0
  196.0670  172.0460  136.9580 O   0  0  0  0  0  0  0  0  0  0  0  0
  193.8160  173.0540  136.6430 C   0  0  0  0  0  2  0  0  0  0  0  0
  195.2200  173.9430  138.4280 C   0  0  2  0  0  3  0  0  0  0  0  0
  197.9300  175.6850  137.0300 O   0  0  0  0  0  1  0  0  0  0  0  0
  197.1760  174.5240  136.8670 C   0  0  0  0  0  2  0  0  0  0  0  0
  185.0440  178.5110  138.8930 C   0  0  0  0  0  1  0  0  0  0  0  0
  185.4130  177.3870  138.0310 N   0  0  0  0  0  0  0  0  0  0  0  0
  183.9460  175.4300  137.4560 C   0  0  0  0  0  2  0  0  0  0  0  0
  184.2310  176.9260  137.2710 C   0  0  1  0  0  3  0  0  0  0  0  0
  181.9240  176.6000  137.5440 C   0  0  0  0  0  0  0  0  0  0  0  0
  182.4670  175.4000  137.4970 C   0  0  0  0  0  0  0  0  0  0  0  0
  182.9340  177.6950  137.5570 C   0  0  0  0  0  2  0  0  0  0  0  0
  181.7330  174.2250  137.4800 O   0  0  0  0  0  1  0  0  0  0  0  0
  180.5200  176.8120  137.6630 N   0  0  0  0  0  2  0  0  0  0  0  0
  179.8600  176.8640  138.9640 C   0  0  0  0  0  2  0  0  0  0  0  0
  181.5020  178.4960  140.7120 O   0  0  0  0  0  0  0  0  0  0  0  0
  180.0110  180.3470  140.7300 C   0  0  0  0  0  1  0  0  0  0  0  0
  180.4300  178.9890  140.2760 C   0  0  0  0  0  0  0  0  0  0  0  0
  179.6010  178.2410  139.3680 N   0  0  0  0  0  2  0  0  0  0  0  0
  189.1400  178.4540  139.4350 C   0  0  0  0  0  2  0  0  0  0  0  0
  188.5350  177.4500  140.3980 C   0  0  0  0  0  2  0  0  0  0  0  0
  189.2980  177.3940  141.6710 C   0  0  0  0  0  0  0  0  0  0  0  0
  188.7400  177.9830  142.8520 N   0  0  0  0  0  2  0  0  0  0  0  0
  190.4390  176.8490  141.7000 O   0  0  0  0  0  0  0  0  0  0  0  0
  189.4370  178.0410  144.1250 C   0  0  0  0  0  2  0  0  0  0  0  0
  188.8300  177.0690  145.1400 C   0  0  0  0  0  2  0  0  0  0  0  0
  187.8360  177.7480  146.0660 C   0  0  2  0  0  3  0  0  0  0  0  0
  188.0210  177.2860  147.3790 O   0  0  0  0  0  1  0  0  0  0  0  0
  186.4000  177.5220  145.6280 C   0  0  0  0  0  2  0  0  0  0  0  0
  184.7500  179.2530  144.6140 C   0  0  0  0  0  1  0  0  0  0  0  0
  185.6050  178.7870  145.7410 C   0  0  0  0  0  0  0  0  0  0  0  0
  185.6440  179.4350  146.7720 O   0  0  0  0  0  0  0  0  0  0  0  0
  1  2  1  0  0  0  0
  1  3  1  0  0  0  0
  2  4  1  0  0  0  0
  2 23  1  1  0  0  0
  3  9  1  6  0  0  0
  3  5  1  0  0  0  0
  4  5  1  0  0  0  0
  5 36  1  1  0  0  0
  6  9  1  0  0  0  0
  8  6  1  0  0  0  0
  8 10  1  0  0  0  0
  9  7  2  0  0  0  0
 10 11  1  1  0  0  0
 10  7  1  0  0  0  0
 11 12  1  6  0  0  0
 13 21  1  6  0  0  0
 13 19  1  0  0  0  0
 14 17  1  6  0  0  0
 14 13  1  0  0  0  0
 14 19  1  0  0  0  0
 15 18  1  0  0  0  0
 15 17  1  0  0  0  0
 16 11  1  1  0  0  0
 16 19  1  0  0  0  0
 18 16  1  0  0  0  0
 21 20  1  0  0  0  0
 23 22  1  0  0  0  0
 24 27  1  0  0  0  0
 25 24  1  0  0  0  0
 25 28  1  0  0  0  0
 25 23  1  0  0  0  0
 26 28  1  0  0  0  0
 26 30  1  0  0  0  0
 27 26  2  0  0  0  0
 29 27  1  0  0  0  0
 30 31  1  0  0  0  0
 31 35  1  0  0  0  0
 34 32  2  0  0  0  0
 34 33  1  0  0  0  0
 35 34  1  0  0  0  0
 36 37  1  0  0  0  0
 37 38  1  0  0  0  0
 38 40  2  0  0  0  0
 38 39  1  0  0  0  0
 39 41  1  0  0  0  0
 41 42  1  0  0  0  0
 42 43  1  0  0  0  0
 43 44  1  0  0  0  0
 45 47  1  0  0  0  0
 45 43  1  0  0  0  0
 46 47  1  0  0  0  0
 47 48  2  0  0  0  0
M  END
>  <MODEL>
1

>  <REMARK>
 VINA RESULT:      -7.2      0.000      0.000
  Name = 
  17 active torsions:
  status: ('A' for Active; 'I' for Inactive)
    1  A    between atoms: C_1  and  C_25
    2  A    between atoms: C_1  and  C_46
    3  A    between atoms: C_2  and  C_9
    4  A    between atoms: C_2  and  C_24
    5  A    between atoms: C_3  and  C_36
    6  A    between atoms: C_3  and  C_45
    7  A    between atoms: C_7  and  C_30
    8  A    between atoms: C_9  and  C_17
    9  A    between atoms: C_10  and  N_37
   10  A    between atoms: C_14  and  C_36
   11  A    between atoms: C_18  and  N_37
   12  A    between atoms: C_19  and  N_21
   13  A    between atoms: N_21  and  C_27
   14  A    between atoms: C_24  and  C_29
   15  A    between atoms: C_26  and  C_33
   16  A    between atoms: C_27  and  N_48
   17  A    between atoms: C_29  and  N_32
                            x       y       z     vdW  Elec       q    Type
                         _______ _______ _______ _____ _____    ______ ____

>  <TORSDO>
F 17

$$$$
=
 OpenBabel11032419523D

 48 52  0  0  1  0  0  0  0  0999 V2000
  189.4340  176.1810  136.6930 S   0  0  0  0  0  0  0  0  0  0  0  0
  190.8730  175.6950  137.7210 C   0  0  2  0  0  3  0  0  0  0  0  0
  188.9440  177.3010  138.0120 C   0  0  2  0  0  3  0  0  0  0  0  0
  190.5540  175.8650  139.1450 N   0  0  0  0  0  2  0  0  0  0  0  0
  189.3340  176.6460  139.3180 C   0  0  1  0  0  3  0  0  0  0  0  0
  186.5980  176.5060  137.4900 O   0  0  0  0  0  0  0  0  0  0  0  0
  186.8990  178.6200  138.1410 N   0  0  0  0  0  0  0  0  0  0  0  0
  185.2900  177.0440  137.4150 C   0  0  0  0  0  2  0  0  0  0  0  0
  187.4650  177.4870  137.9220 C   0  0  0  0  0  0  0  0  0  0  0  0
  185.4960  178.5100  137.7990 C   0  0  1  0  0  3  0  0  0  0  0  0
  184.5670  178.9700  138.9260 C   0  0  2  0  0  3  0  0  0  0  0  0
  185.0890  178.5830  140.1520 O   0  0  0  0  0  1  0  0  0  0  0  0
  181.7880  176.5550  139.8480 C   0  0  2  0  0  3  0  0  0  0  0  0
  181.1880  177.8490  140.4010 C   0  0  2  0  0  3  0  0  0  0  0  0
  180.7780  179.3930  138.5640 C   0  0  0  0  0  2  0  0  0  0  0  0
  183.0710  178.5730  138.7990 C   0  0  2  0  0  3  0  0  0  0  0  0
  180.2740  178.4270  139.4950 O   0  0  0  0  0  0  0  0  0  0  0  0
  182.2070  179.8220  138.7870 C   0  0  0  0  0  2  0  0  0  0  0  0
  182.6750  177.7870  140.0480 C   0  0  2  0  0  3  0  0  0  0  0  0
  181.6890  174.8960  138.1370 O   0  0  0  0  0  1  0  0  0  0  0  0
  181.4590  176.2470  138.3900 C   0  0  0  0  0  2  0  0  0  0  0  0
  192.8080  176.7390  138.6320 C   0  0  0  0  0  1  0  0  0  0  0  0
  192.0860  176.4660  137.3880 N   0  0  0  0  0  0  0  0  0  0  0  0
  194.2100  176.4490  136.0450 C   0  0  0  0  0  2  0  0  0  0  0  0
  192.9450  175.6890  136.4670 C   0  0  1  0  0  3  0  0  0  0  0  0
  194.7810  174.2290  136.5110 C   0  0  0  0  0  0  0  0  0  0  0  0
  195.2230  175.3700  136.0200 C   0  0  0  0  0  0  0  0  0  0  0  0
  193.3710  174.3080  136.9840 C   0  0  0  0  0  2  0  0  0  0  0  0
  196.5030  175.5460  135.5220 O   0  0  0  0  0  1  0  0  0  0  0  0
  195.6030  173.0750  136.6540 N   0  0  0  0  0  2  0  0  0  0  0  0
  195.8380  172.4570  137.9560 C   0  0  0  0  0  2  0  0  0  0  0  0
  197.9670  174.3670  138.4360 O   0  0  0  0  0  0  0  0  0  0  0  0
  197.0060  175.2570  140.4190 C   0  0  0  0  0  1  0  0  0  0  0  0
  196.9930  174.3540  139.2310 C   0  0  0  0  0  0  0  0  0  0  0  0
  195.8860  173.4610  139.0120 N   0  0  0  0  0  2  0  0  0  0  0  0
  189.5510  177.7170  140.3900 C   0  0  0  0  0  2  0  0  0  0  0  0
  190.6180  177.3010  141.3860 C   0  0  0  0  0  2  0  0  0  0  0  0
  190.0130  176.8280  142.6580 C   0  0  0  0  0  0  0  0  0  0  0  0
  190.2160  177.5850  143.8580 N   0  0  0  0  0  2  0  0  0  0  0  0
  189.3450  175.7550  142.6790 O   0  0  0  0  0  0  0  0  0  0  0  0
  189.7250  177.1700  145.1600 C   0  0  0  0  0  2  0  0  0  0  0  0
  188.4940  177.9790  145.5780 C   0  0  0  0  0  2  0  0  0  0  0  0
  187.2030  177.3800  145.0480 C   0  0  2  0  0  3  0  0  0  0  0  0
  186.7780  178.0970  143.9190 O   0  0  0  0  0  1  0  0  0  0  0  0
  186.1070  177.3610  146.0990 C   0  0  0  0  0  2  0  0  0  0  0  0
  184.1700  178.8570  145.2280 C   0  0  0  0  0  1  0  0  0  0  0  0
  185.3560  178.6560  146.1080 C   0  0  0  0  0  0  0  0  0  0  0  0
  185.7070  179.5530  146.8540 O   0  0  0  0  0  0  0  0  0  0  0  0
  1  2  1  0  0  0  0
  1  3  1  0  0  0  0
  2 23  1  6  0  0  0
  2  4  1  0  0  0  0
  3  9  1  1  0  0  0
  3  5  1  0  0  0  0
  4  5  1  0  0  0  0
  5 36  1  1  0  0  0
  6  9  1  0  0  0  0
  8  6  1  0  0  0  0
  8 10  1  0  0  0  0
  9  7  2  0  0  0  0
 10  7  1  0  0  0  0
 10 11  1  1  0  0  0
 11 12  1  1  0  0  0
 13 21  1  6  0  0  0
 13 19  1  0  0  0  0
 13 14  1  0  0  0  0
 14 17  1  6  0  0  0
 15 18  1  0  0  0  0
 15 17  1  0  0  0  0
 16 11  1  1  0  0  0
 16 19  1  0  0  0  0
 18 16  1  0  0  0  0
 19 14  1  0  0  0  0
 20 21  1  0  0  0  0
 23 22  1  0  0  0  0
 24 25  1  0  0  0  0
 25 28  1  0  0  0  0
 25 23  1  0  0  0  0
 26 30  1  0  0  0  0
 26 28  1  0  0  0  0
 27 24  1  0  0  0  0
 27 26  2  0  0  0  0
 29 27  1  0  0  0  0
 30 31  1  0  0  0  0
 31 35  1  0  0  0  0
 32 34  2  0  0  0  0
 34 33  1  0  0  0  0
 35 34  1  0  0  0  0
 36 37  1  0  0  0  0
 37 38  1  0  0  0  0
 38 40  2  0  0  0  0
 38 39  1  0  0  0  0
 39 41  1  0  0  0  0
 41 42  1  0  0  0  0
 43 42  1  0  0  0  0
 43 45  1  0  0  0  0
 44 43  1  0  0  0  0
 45 47  1  0  0  0  0
 46 47  1  0  0  0  0
 47 48  2  0  0  0  0
M  END
>  <MODEL>
2

>  <REMARK>
 VINA RESULT:      -7.2      2.219     10.369
  Name = 
  17 active torsions:
  status: ('A' for Active; 'I' for Inactive)
    1  A    between atoms: C_1  and  C_25
    2  A    between atoms: C_1  and  C_46
    3  A    between atoms: C_2  and  C_9
    4  A    between atoms: C_2  and  C_24
    5  A    between atoms: C_3  and  C_36
    6  A    between atoms: C_3  and  C_45
    7  A    between atoms: C_7  and  C_30
    8  A    between atoms: C_9  and  C_17
    9  A    between atoms: C_10  and  N_37
   10  A    between atoms: C_14  and  C_36
   11  A    between atoms: C_18  and  N_37
   12  A    between atoms: C_19  and  N_21
   13  A    between atoms: N_21  and  C_27
   14  A    between atoms: C_24  and  C_29
   15  A    between atoms: C_26  and  C_33
   16  A    between atoms: C_27  and  N_48
   17  A    between atoms: C_29  and  N_32
                            x       y       z     vdW  Elec       q    Type
                         _______ _______ _______ _____ _____    ______ ____

>  <TORSDO>
F 17

$$$$
=
 OpenBabel11032419523D

 48 52  0  0  1  0  0  0  0  0999 V2000
  190.2660  176.7670  138.7110 S   0  0  0  0  0  0  0  0  0  0  0  0
  190.5340  176.8400  136.8980 C   0  0  2  0  0  3  0  0  0  0  0  0
  188.5050  176.9510  138.3990 C   0  0  2  0  0  3  0  0  0  0  0  0
  189.4660  177.6230  136.2630 N   0  0  0  0  0  2  0  0  0  0  0  0
  188.3600  177.8450  137.1880 C   0  0  1  0  0  3  0  0  0  0  0  0
  186.7620  178.3640  139.5730 O   0  0  0  0  0  0  0  0  0  0  0  0
  188.4470  177.5190  140.7690 N   0  0  0  0  0  0  0  0  0  0  0  0
  186.5220  178.8910  140.8650 C   0  0  0  0  0  2  0  0  0  0  0  0
  187.8940  177.5790  139.6100 C   0  0  0  0  0  0  0  0  0  0  0  0
  187.7070  178.3680  141.6790 C   0  0  1  0  0  3  0  0  0  0  0  0
  187.2820  177.6460  142.9600 C   0  0  2  0  0  3  0  0  0  0  0  0
  186.3230  178.3950  143.6260 O   0  0  0  0  0  1  0  0  0  0  0  0
  191.0090  177.3310  143.5990 C   0  0  2  0  0  3  0  0  0  0  0  0
  190.6260  178.2130  144.7880 C   0  0  2  0  0  3  0  0  0  0  0  0
  189.1220  176.9790  146.2520 C   0  0  0  0  0  2  0  0  0  0  0  0
  188.4200  177.2040  143.9190 C   0  0  2  0  0  3  0  0  0  0  0  0
  190.4430  177.4530  145.9620 O   0  0  0  0  0  0  0  0  0  0  0  0
  188.0330  177.5130  145.3540 C   0  0  0  0  0  2  0  0  0  0  0  0
  189.6570  178.0490  143.6160 C   0  0  2  0  0  3  0  0  0  0  0  0
  192.2030  175.3200  144.0660 O   0  0  0  0  0  1  0  0  0  0  0  0
  190.9250  175.8270  143.8410 C   0  0  0  0  0  2  0  0  0  0  0  0
  190.0980  175.6000  134.9150 C   0  0  0  0  0  1  0  0  0  0  0  0
  190.6000  175.4990  136.2870 N   0  0  0  0  0  0  0  0  0  0  0  0
  192.9580  175.9650  135.5570 C   0  0  0  0  0  2  0  0  0  0  0  0
  191.9960  175.0120  136.2780 C   0  0  1  0  0  3  0  0  0  0  0  0
  193.9810  175.1970  137.5140 C   0  0  0  0  0  0  0  0  0  0  0  0
  194.1710  175.8750  136.4000 C   0  0  0  0  0  0  0  0  0  0  0  0
  192.5850  174.6990  137.6600 C   0  0  0  0  0  2  0  0  0  0  0  0
  195.3840  176.4400  136.0430 O   0  0  0  0  0  1  0  0  0  0  0  0
  194.9870  175.0440  138.5110 N   0  0  0  0  0  2  0  0  0  0  0  0
  195.6860  173.7770  138.7060 C   0  0  0  0  0  2  0  0  0  0  0  0
  198.0960  175.3820  138.5290 O   0  0  0  0  0  0  0  0  0  0  0  0
  198.9110  174.3190  136.5650 C   0  0  0  0  0  1  0  0  0  0  0  0
  197.9220  174.4780  137.6710 C   0  0  0  0  0  0  0  0  0  0  0  0
  196.7690  173.6210  137.7410 N   0  0  0  0  0  2  0  0  0  0  0  0
  187.0300  177.5540  136.4870 C   0  0  0  0  0  2  0  0  0  0  0  0
  186.7540  176.0640  136.4090 C   0  0  0  0  0  2  0  0  0  0  0  0
  185.4310  175.7290  136.9950 C   0  0  0  0  0  0  0  0  0  0  0  0
  184.5620  176.7850  137.4220 N   0  0  0  0  0  2  0  0  0  0  0  0
  185.0890  174.5180  137.1310 O   0  0  0  0  0  0  0  0  0  0  0  0
  183.2810  176.5570  138.0680 C   0  0  0  0  0  2  0  0  0  0  0  0
  182.7520  177.8330  138.7290 C   0  0  0  0  0  2  0  0  0  0  0  0
  182.1500  177.5660  140.0970 C   0  0  2  0  0  3  0  0  0  0  0  0
  181.0620  176.6890  139.9720 O   0  0  0  0  0  1  0  0  0  0  0  0
  181.7140  178.8460  140.7890 C   0  0  0  0  0  2  0  0  0  0  0  0
  181.1080  179.0400  143.3070 C   0  0  0  0  0  1  0  0  0  0  0  0
  182.1170  178.8350  142.2310 C   0  0  0  0  0  0  0  0  0  0  0  0
  183.2820  178.6410  142.5300 O   0  0  0  0  0  0  0  0  0  0  0  0
  2 23  1  6  0  0  0
  2  1  1  0  0  0  0
  3  1  1  0  0  0  0
  3  9  1  1  0  0  0
  4  2  1  0  0  0  0
  4  5  1  0  0  0  0
  5 36  1  6  0  0  0
  5  3  1  0  0  0  0
  6  9  1  0  0  0  0
  6  8  1  0  0  0  0
  7 10  1  0  0  0  0
  8 10  1  0  0  0  0
  9  7  2  0  0  0  0
 10 11  1  1  0  0  0
 11 12  1  1  0  0  0
 13 19  1  0  0  0  0
 13 21  1  1  0  0  0
 13 14  1  0  0  0  0
 14 17  1  1  0  0  0
 16 11  1  6  0  0  0
 16 18  1  0  0  0  0
 17 15  1  0  0  0  0
 18 15  1  0  0  0  0
 19 16  1  0  0  0  0
 19 14  1  0  0  0  0
 21 20  1  0  0  0  0
 22 23  1  0  0  0  0
 24 25  1  0  0  0  0
 24 27  1  0  0  0  0
 25 23  1  0  0  0  0
 25 28  1  0  0  0  0
 26 28  1  0  0  0  0
 26 30  1  0  0  0  0
 27 26  2  0  0  0  0
 29 27  1  0  0  0  0
 30 31  1  0  0  0  0
 33 34  1  0  0  0  0
 34 35  1  0  0  0  0
 34 32  2  0  0  0  0
 35 31  1  0  0  0  0
 37 36  1  0  0  0  0
 37 38  1  0  0  0  0
 38 40  2  0  0  0  0
 38 39  1  0  0  0  0
 39 41  1  0  0  0  0
 41 42  1  0  0  0  0
 42 43  1  0  0  0  0
 43 45  1  0  0  0  0
 44 43  1  0  0  0  0
 45 47  1  0  0  0  0
 47 48  2  0  0  0  0
 47 46  1  0  0  0  0
M  END
>  <MODEL>
3

>  <REMARK>
 VINA RESULT:      -7.1      2.328      9.752
  Name = 
  17 active torsions:
  status: ('A' for Active; 'I' for Inactive)
    1  A    between atoms: C_1  and  C_25
    2  A    between atoms: C_1  and  C_46
    3  A    between atoms: C_2  and  C_9
    4  A    between atoms: C_2  and  C_24
    5  A    between atoms: C_3  and  C_36
    6  A    between atoms: C_3  and  C_45
    7  A    between atoms: C_7  and  C_30
    8  A    between atoms: C_9  and  C_17
    9  A    between atoms: C_10  and  N_37
   10  A    between atoms: C_14  and  C_36
   11  A    between atoms: C_18  and  N_37
   12  A    between atoms: C_19  and  N_21
   13  A    between atoms: N_21  and  C_27
   14  A    between atoms: C_24  and  C_29
   15  A    between atoms: C_26  and  C_33
   16  A    between atoms: C_27  and  N_48
   17  A    between atoms: C_29  and  N_32
                            x       y       z     vdW  Elec       q    Type
                         _______ _______ _______ _____ _____    ______ ____

>  <TORSDO>
F 17

$$$$
=
 OpenBabel11032419523D

 48 52  0  0  1  0  0  0  0  0999 V2000
  186.9390  177.9800  142.8010 S   0  0  0  0  0  0  0  0  0  0  0  0
  185.4710  177.8800  143.8950 C   0  0  2  0  0  3  0  0  0  0  0  0
  185.9090  178.8260  141.5930 C   0  0  2  0  0  3  0  0  0  0  0  0
  184.2430  177.8630  143.0890 N   0  0  0  0  0  2  0  0  0  0  0  0
  184.5200  178.2380  141.7060 C   0  0  1  0  0  3  0  0  0  0  0  0
  185.7880  178.7070  139.0670 O   0  0  0  0  0  0  0  0  0  0  0  0
  187.6800  178.1020  140.0840 N   0  0  0  0  0  0  0  0  0  0  0  0
  186.5990  178.2810  137.9880 C   0  0  0  0  0  2  0  0  0  0  0  0
  186.4940  178.5720  140.2430 C   0  0  0  0  0  0  0  0  0  0  0  0
  187.8760  177.8040  138.6800 C   0  0  1  0  0  3  0  0  0  0  0  0
  189.1430  178.4430  138.1050 C   0  0  2  0  0  3  0  0  0  0  0  0
  188.8070  179.5600  137.3540 O   0  0  0  0  0  1  0  0  0  0  0  0
  191.6010  175.5540  138.1970 C   0  0  2  0  0  3  0  0  0  0  0  0
  190.5690  174.9720  137.2310 C   0  0  2  0  0  3  0  0  0  0  0  0
  190.5020  176.3320  135.2130 C   0  0  0  0  0  2  0  0  0  0  0  0
  190.1000  177.5030  137.3230 C   0  0  2  0  0  3  0  0  0  0  0  0
  190.9560  175.1510  135.8860 O   0  0  0  0  0  0  0  0  0  0  0  0
  189.4960  177.1620  135.9710 C   0  0  0  0  0  2  0  0  0  0  0  0
  190.2110  176.1860  138.0890 C   0  0  2  0  0  3  0  0  0  0  0  0
  193.8820  176.2440  138.3080 O   0  0  0  0  0  1  0  0  0  0  0  0
  192.7170  176.3730  137.5540 C   0  0  0  0  0  2  0  0  0  0  0  0
  184.2360  178.8020  145.7080 C   0  0  0  0  0  1  0  0  0  0  0  0
  185.4160  178.9920  144.8630 N   0  0  0  0  0  0  0  0  0  0  0  0
  186.3340  178.9600  147.2010 C   0  0  0  0  0  2  0  0  0  0  0  0
  186.6370  179.0020  145.6970 C   0  0  1  0  0  3  0  0  0  0  0  0
  188.1170  177.5160  146.7480 C   0  0  0  0  0  0  0  0  0  0  0  0
  187.4120  178.0820  147.7070 C   0  0  0  0  0  0  0  0  0  0  0  0
  187.6460  177.8890  145.3850 C   0  0  0  0  0  2  0  0  0  0  0  0
  187.6560  177.8850  149.0570 O   0  0  0  0  0  1  0  0  0  0  0  0
  189.1570  176.5750  147.0000 N   0  0  0  0  0  2  0  0  0  0  0  0
  190.5650  176.9560  146.9450 C   0  0  0  0  0  2  0  0  0  0  0  0
  190.8590  178.6250  144.5900 O   0  0  0  0  0  0  0  0  0  0  0  0
  191.7530  176.8990  143.2220 C   0  0  0  0  0  1  0  0  0  0  0  0
  191.2410  177.4290  144.5200 C   0  0  0  0  0  0  0  0  0  0  0  0
  191.1640  176.5710  145.6720 N   0  0  0  0  0  2  0  0  0  0  0  0
  183.4860  179.2610  141.2290 C   0  0  0  0  0  2  0  0  0  0  0  0
  182.0900  178.6670  141.1910 C   0  0  0  0  0  2  0  0  0  0  0  0
  181.2770  179.2660  140.1020 C   0  0  0  0  0  0  0  0  0  0  0  0
  180.1570  180.0960  140.4350 N   0  0  0  0  0  2  0  0  0  0  0  0
  181.5630  179.0240  138.8940 O   0  0  0  0  0  0  0  0  0  0  0  0
  179.2620  180.6700  139.4440 C   0  0  0  0  0  2  0  0  0  0  0  0
  179.4130  182.1920  139.3700 C   0  0  0  0  0  2  0  0  0  0  0  0
  179.6780  182.6760  137.9550 C   0  0  2  0  0  3  0  0  0  0  0  0
  179.0360  181.8290  137.0370 O   0  0  0  0  0  1  0  0  0  0  0  0
  181.1630  182.7530  137.6460 C   0  0  0  0  0  2  0  0  0  0  0  0
  180.9360  184.6160  135.8490 C   0  0  0  0  0  1  0  0  0  0  0  0
  181.5260  184.1070  137.1190 C   0  0  0  0  0  0  0  0  0  0  0  0
  182.3020  184.8100  137.7430 O   0  0  0  0  0  0  0  0  0  0  0  0
  1  2  1  0  0  0  0
  2 23  1  1  0  0  0
  3  9  1  6  0  0  0
  3  5  1  0  0  0  0
  3  1  1  0  0  0  0
  4  2  1  0  0  0  0
  5 36  1  1  0  0  0
  5  4  1  0  0  0  0
  6  9  1  0  0  0  0
  7  9  2  0  0  0  0
  8 10  1  0  0  0  0
  8  6  1  0  0  0  0
 10 11  1  6  0  0  0
 10  7  1  0  0  0  0
 11 12  1  6  0  0  0
 13 21  1  6  0  0  0
 14 17  1  6  0  0  0
 14 19  1  0  0  0  0
 14 13  1  0  0  0  0
 15 17  1  0  0  0  0
 15 18  1  0  0  0  0
 16 19  1  0  0  0  0
 16 11  1  1  0  0  0
 18 16  1  0  0  0  0
 19 13  1  0  0  0  0
 21 20  1  0  0  0  0
 23 25  1  0  0  0  0
 23 22  1  0  0  0  0
 24 27  1  0  0  0  0
 25 24  1  0  0  0  0
 26 30  1  0  0  0  0
 26 27  2  0  0  0  0
 27 29  1  0  0  0  0
 28 25  1  0  0  0  0
 28 26  1  0  0  0  0
 31 30  1  0  0  0  0
 33 34  1  0  0  0  0
 34 32  2  0  0  0  0
 34 35  1  0  0  0  0
 35 31  1  0  0  0  0
 37 36  1  0  0  0  0
 38 39  1  0  0  0  0
 38 37  1  0  0  0  0
 40 38  2  0  0  0  0
 41 39  1  0  0  0  0
 42 41  1  0  0  0  0
 43 42  1  0  0  0  0
 44 43  1  0  0  0  0
 45 43  1  0  0  0  0
 46 47  1  0  0  0  0
 47 45  1  0  0  0  0
 47 48  2  0  0  0  0
M  END
>  <MODEL>
4

>  <REMARK>
 VINA RESULT:      -7.0      3.107      8.951
  Name = 
  17 active torsions:
  status: ('A' for Active; 'I' for Inactive)
    1  A    between atoms: C_1  and  C_25
    2  A    between atoms: C_1  and  C_46
    3  A    between atoms: C_2  and  C_9
    4  A    between atoms: C_2  and  C_24
    5  A    between atoms: C_3  and  C_36
    6  A    between atoms: C_3  and  C_45
    7  A    between atoms: C_7  and  C_30
    8  A    between atoms: C_9  and  C_17
    9  A    between atoms: C_10  and  N_37
   10  A    between atoms: C_14  and  C_36
   11  A    between atoms: C_18  and  N_37
   12  A    between atoms: C_19  and  N_21
   13  A    between atoms: N_21  and  C_27
   14  A    between atoms: C_24  and  C_29
   15  A    between atoms: C_26  and  C_33
   16  A    between atoms: C_27  and  N_48
   17  A    between atoms: C_29  and  N_32
                            x       y       z     vdW  Elec       q    Type
                         _______ _______ _______ _____ _____    ______ ____

>  <TORSDO>
F 17

$$$$
=
 OpenBabel11032419523D

 48 52  0  0  1  0  0  0  0  0999 V2000
  191.2550  176.4730  137.9850 S   0  0  0  0  0  0  0  0  0  0  0  0
  191.1590  176.2130  136.1720 C   0  0  2  0  0  3  0  0  0  0  0  0
  189.4730  176.2450  138.0540 C   0  0  2  0  0  3  0  0  0  0  0  0
  189.8390  176.6250  135.6750 N   0  0  0  0  0  2  0  0  0  0  0  0
  188.9020  176.8200  136.7770 C   0  0  1  0  0  3  0  0  0  0  0  0
  188.1690  178.1040  139.1750 O   0  0  0  0  0  0  0  0  0  0  0  0
  189.3330  176.6870  140.4470 N   0  0  0  0  0  0  0  0  0  0  0  0
  187.9690  178.6200  140.4780 C   0  0  0  0  0  2  0  0  0  0  0  0
  188.9680  176.9840  139.2510 C   0  0  0  0  0  0  0  0  0  0  0  0
  188.8150  177.6920  141.3520 C   0  0  1  0  0  3  0  0  0  0  0  0
  188.0320  177.0950  142.5240 C   0  0  2  0  0  3  0  0  0  0  0  0
  186.8080  177.7370  142.6470 O   0  0  0  0  0  1  0  0  0  0  0  0
  191.2230  177.6920  144.4900 C   0  0  2  0  0  3  0  0  0  0  0  0
  190.2690  178.5840  145.2850 C   0  0  2  0  0  3  0  0  0  0  0  0
  188.5500  177.2040  146.3170 C   0  0  0  0  0  2  0  0  0  0  0  0
  188.7710  177.0220  143.8880 C   0  0  2  0  0  3  0  0  0  0  0  0
  189.7800  177.9290  146.4350 O   0  0  0  0  0  0  0  0  0  0  0  0
  187.8160  177.3840  145.0110 C   0  0  0  0  0  2  0  0  0  0  0  0
  189.8680  178.0870  143.8960 C   0  0  2  0  0  3  0  0  0  0  0  0
  192.1320  176.1580  146.0740 O   0  0  0  0  0  1  0  0  0  0  0  0
  191.3070  176.2410  144.9540 C   0  0  0  0  0  2  0  0  0  0  0  0
  190.5280  174.4690  134.6830 C   0  0  0  0  0  1  0  0  0  0  0  0
  191.4190  174.8120  135.7920 N   0  0  0  0  0  0  0  0  0  0  0  0
  193.5680  175.9900  135.2380 C   0  0  0  0  0  2  0  0  0  0  0  0
  192.8280  174.6520  135.3740 C   0  0  1  0  0  3  0  0  0  0  0  0
  194.9740  174.4530  136.2990 C   0  0  0  0  0  0  0  0  0  0  0  0
  194.9110  175.6530  135.7580 C   0  0  0  0  0  0  0  0  0  0  0  0
  193.6710  173.7320  136.2670 C   0  0  0  0  0  2  0  0  0  0  0  0
  195.9930  176.5140  135.6740 O   0  0  0  0  0  1  0  0  0  0  0  0
  196.1480  173.9450  136.9290 N   0  0  0  0  0  2  0  0  0  0  0  0
  196.0830  173.1960  138.1800 C   0  0  0  0  0  2  0  0  0  0  0  0
  198.3470  174.7980  139.0340 O   0  0  0  0  0  0  0  0  0  0  0  0
  197.2930  175.6170  141.0010 C   0  0  0  0  0  1  0  0  0  0  0  0
  197.3020  174.8290  139.7340 C   0  0  0  0  0  0  0  0  0  0  0  0
  196.1340  174.0920  139.3300 N   0  0  0  0  0  2  0  0  0  0  0  0
  187.5710  176.1380  136.4520 C   0  0  0  0  0  2  0  0  0  0  0  0
  186.6900  177.0180  135.5840 C   0  0  0  0  0  2  0  0  0  0  0  0
  185.3160  177.1210  136.1380 C   0  0  0  0  0  0  0  0  0  0  0  0
  185.1320  177.1850  137.5580 N   0  0  0  0  0  2  0  0  0  0  0  0
  184.3200  177.1300  135.3580 O   0  0  0  0  0  0  0  0  0  0  0  0
  183.8270  177.2180  138.1960 C   0  0  0  0  0  2  0  0  0  0  0  0
  183.2600  178.6390  138.2360 C   0  0  0  0  0  2  0  0  0  0  0  0
  183.4370  179.2930  139.5960 C   0  0  2  0  0  3  0  0  0  0  0  0
  184.7150  179.8670  139.6820 O   0  0  0  0  0  1  0  0  0  0  0  0
  183.2260  178.3100  140.7340 C   0  0  0  0  0  2  0  0  0  0  0  0
  181.2430  179.0400  142.2450 C   0  0  0  0  0  1  0  0  0  0  0  0
  181.7790  178.2360  141.1120 C   0  0  0  0  0  0  0  0  0  0  0  0
  181.0240  177.5210  140.4750 O   0  0  0  0  0  0  0  0  0  0  0  0
  1  3  1  0  0  0  0
  2 23  1  1  0  0  0
  2  1  1  0  0  0  0
  3  9  1  1  0  0  0
  4  2  1  0  0  0  0
  4  5  1  0  0  0  0
  5 36  1  6  0  0  0
  5  3  1  0  0  0  0
  6  9  1  0  0  0  0
  6  8  1  0  0  0  0
  7 10  1  0  0  0  0
  8 10  1  0  0  0  0
  9  7  2  0  0  0  0
 10 11  1  1  0  0  0
 11 12  1  1  0  0  0
 13 21  1  1  0  0  0
 13 14  1  0  0  0  0
 14 17  1  1  0  0  0
 15 17  1  0  0  0  0
 16 11  1  6  0  0  0
 16 19  1  0  0  0  0
 16 18  1  0  0  0  0
 18 15  1  0  0  0  0
 19 13  1  0  0  0  0
 19 14  1  0  0  0  0
 21 20  1  0  0  0  0
 22 23  1  0  0  0  0
 24 25  1  0  0  0  0
 24 27  1  0  0  0  0
 25 23  1  0  0  0  0
 25 28  1  0  0  0  0
 26 30  1  0  0  0  0
 27 26  2  0  0  0  0
 28 26  1  0  0  0  0
 29 27  1  0  0  0  0
 30 31  1  0  0  0  0
 31 35  1  0  0  0  0
 32 34  2  0  0  0  0
 34 33  1  0  0  0  0
 35 34  1  0  0  0  0
 37 38  1  0  0  0  0
 37 36  1  0  0  0  0
 38 39  1  0  0  0  0
 39 41  1  0  0  0  0
 40 38  2  0  0  0  0
 41 42  1  0  0  0  0
 42 43  1  0  0  0  0
 43 44  1  0  0  0  0
 43 45  1  0  0  0  0
 45 47  1  0  0  0  0
 47 46  1  0  0  0  0
 48 47  2  0  0  0  0
M  END
>  <MODEL>
5

>  <REMARK>
 VINA RESULT:      -7.0      2.499      9.896
  Name = 
  17 active torsions:
  status: ('A' for Active; 'I' for Inactive)
    1  A    between atoms: C_1  and  C_25
    2  A    between atoms: C_1  and  C_46
    3  A    between atoms: C_2  and  C_9
    4  A    between atoms: C_2  and  C_24
    5  A    between atoms: C_3  and  C_36
    6  A    between atoms: C_3  and  C_45
    7  A    between atoms: C_7  and  C_30
    8  A    between atoms: C_9  and  C_17
    9  A    between atoms: C_10  and  N_37
   10  A    between atoms: C_14  and  C_36
   11  A    between atoms: C_18  and  N_37
   12  A    between atoms: C_19  and  N_21
   13  A    between atoms: N_21  and  C_27
   14  A    between atoms: C_24  and  C_29
   15  A    between atoms: C_26  and  C_33
   16  A    between atoms: C_27  and  N_48
   17  A    between atoms: C_29  and  N_32
                            x       y       z     vdW  Elec       q    Type
                         _______ _______ _______ _____ _____    ______ ____

>  <TORSDO>
F 17

$$$$
=
 OpenBabel11032419523D

 48 52  0  0  1  0  0  0  0  0999 V2000
  185.7340  176.2390  136.9130 S   0  0  0  0  0  0  0  0  0  0  0  0
  185.3720  177.8990  137.6020 C   0  0  2  0  0  3  0  0  0  0  0  0
  187.3860  176.3730  137.6110 C   0  0  2  0  0  3  0  0  0  0  0  0
  186.6120  178.6810  137.7050 N   0  0  0  0  0  2  0  0  0  0  0  0
  187.7840  177.8300  137.5310 C   0  0  1  0  0  3  0  0  0  0  0  0
  187.9080  174.8970  135.6210 O   0  0  0  0  0  0  0  0  0  0  0  0
  189.4850  175.2160  137.1680 N   0  0  0  0  0  0  0  0  0  0  0  0
  188.9680  174.0800  135.1590 C   0  0  0  0  0  2  0  0  0  0  0  0
  188.2950  175.5200  136.7880 C   0  0  0  0  0  0  0  0  0  0  0  0
  190.0310  174.2420  136.2460 C   0  0  1  0  0  3  0  0  0  0  0  0
  191.3990  174.6460  135.6890 C   0  0  2  0  0  3  0  0  0  0  0  0
  191.7140  173.8550  134.5940 O   0  0  0  0  0  1  0  0  0  0  0  0
  194.9190  173.5550  136.5960 C   0  0  2  0  0  3  0  0  0  0  0  0
  195.1210  175.0710  136.5940 C   0  0  2  0  0  3  0  0  0  0  0  0
  193.7600  176.0660  138.3500 C   0  0  0  0  0  2  0  0  0  0  0  0
  192.5740  174.6990  136.7040 C   0  0  2  0  0  3  0  0  0  0  0  0
  195.0400  175.6090  137.8950 O   0  0  0  0  0  0  0  0  0  0  0  0
  192.6730  176.0910  137.3040 C   0  0  0  0  0  2  0  0  0  0  0  0
  193.8770  174.4660  135.9410 C   0  0  2  0  0  3  0  0  0  0  0  0
  195.6010  172.5730  138.6600 O   0  0  0  0  0  1  0  0  0  0  0  0
  194.4780  172.9520  137.9270 C   0  0  0  0  0  2  0  0  0  0  0  0
  185.0990  179.0200  139.6830 C   0  0  0  0  0  1  0  0  0  0  0  0
  184.7180  177.8290  138.9210 N   0  0  0  0  0  0  0  0  0  0  0  0
  182.6020  176.5950  139.4830 C   0  0  0  0  0  2  0  0  0  0  0  0
  183.2490  177.7840  138.7590 C   0  0  1  0  0  3  0  0  0  0  0  0
  181.2900  178.4990  139.8340 C   0  0  0  0  0  0  0  0  0  0  0  0
  181.3490  177.1920  139.9960 C   0  0  0  0  0  0  0  0  0  0  0  0
  182.5080  179.0580  139.1840 C   0  0  0  0  0  2  0  0  0  0  0  0
  180.3400  176.4450  140.5810 O   0  0  0  0  0  1  0  0  0  0  0  0
  180.2110  179.2930  140.3180 N   0  0  0  0  0  2  0  0  0  0  0  0
  180.1660  179.7680  141.6970 C   0  0  0  0  0  2  0  0  0  0  0  0
  180.5800  178.4190  144.2320 O   0  0  0  0  0  0  0  0  0  0  0  0
  182.9170  178.8470  144.3180 C   0  0  0  0  0  1  0  0  0  0  0  0
  181.5820  178.9090  143.6520 C   0  0  0  0  0  0  0  0  0  0  0  0
  181.4420  179.5470  142.3700 N   0  0  0  0  0  2  0  0  0  0  0  0
  188.8180  178.1440  138.6160 C   0  0  0  0  0  2  0  0  0  0  0  0
  188.6000  177.2970  139.8560 C   0  0  0  0  0  2  0  0  0  0  0  0
  189.8630  177.1200  140.6180 C   0  0  0  0  0  0  0  0  0  0  0  0
  189.8100  176.6390  141.9670 N   0  0  0  0  0  2  0  0  0  0  0  0
  190.9710  177.4130  140.0810 O   0  0  0  0  0  0  0  0  0  0  0  0
  190.9810  176.4980  142.8140 C   0  0  0  0  0  2  0  0  0  0  0  0
  190.6210  176.6410  144.2960 C   0  0  0  0  0  2  0  0  0  0  0  0
  189.6750  177.8010  144.5490 C   0  0  2  0  0  3  0  0  0  0  0  0
  190.4090  178.9910  144.6780 O   0  0  0  0  0  1  0  0  0  0  0  0
  188.8160  177.5800  145.7830 C   0  0  0  0  0  2  0  0  0  0  0  0
  186.9140  177.6010  144.0140 C   0  0  0  0  0  1  0  0  0  0  0  0
  187.3610  177.6360  145.4340 C   0  0  0  0  0  0  0  0  0  0  0  0
  186.5300  177.6950  146.3230 O   0  0  0  0  0  0  0  0  0  0  0  0
  1  2  1  0  0  0  0
  1  3  1  0  0  0  0
  2  4  1  0  0  0  0
  2 23  1  1  0  0  0
  3  9  1  6  0  0  0
  5  3  1  0  0  0  0
  5  4  1  0  0  0  0
  5 36  1  1  0  0  0
  6  9  1  0  0  0  0
  8  6  1  0  0  0  0
  8 10  1  0  0  0  0
  9  7  2  0  0  0  0
 10 11  1  6  0  0  0
 10  7  1  0  0  0  0
 11 12  1  6  0  0  0
 13 21  1  1  0  0  0
 14 13  1  0  0  0  0
 14 17  1  1  0  0  0
 16 11  1  6  0  0  0
 16 18  1  0  0  0  0
 17 15  1  0  0  0  0
 18 15  1  0  0  0  0
 19 14  1  0  0  0  0
 19 13  1  0  0  0  0
 19 16  1  0  0  0  0
 21 20  1  0  0  0  0
 23 22  1  0  0  0  0
 24 27  1  0  0  0  0
 25 23  1  0  0  0  0
 25 28  1  0  0  0  0
 25 24  1  0  0  0  0
 26 27  2  0  0  0  0
 26 30  1  0  0  0  0
 27 29  1  0  0  0  0
 28 26  1  0  0  0  0
 30 31  1  0  0  0  0
 31 35  1  0  0  0  0
 34 32  2  0  0  0  0
 34 33  1  0  0  0  0
 35 34  1  0  0  0  0
 36 37  1  0  0  0  0
 37 38  1  0  0  0  0
 38 39  1  0  0  0  0
 39 41  1  0  0  0  0
 40 38  2  0  0  0  0
 41 42  1  0  0  0  0
 42 43  1  0  0  0  0
 43 44  1  0  0  0  0
 43 45  1  0  0  0  0
 46 47  1  0  0  0  0
 47 45  1  0  0  0  0
 47 48  2  0  0  0  0
M  END
>  <MODEL>
6

>  <REMARK>
 VINA RESULT:      -6.7      1.895      2.815
  Name = 
  17 active torsions:
  status: ('A' for Active; 'I' for Inactive)
    1  A    between atoms: C_1  and  C_25
    2  A    between atoms: C_1  and  C_46
    3  A    between atoms: C_2  and  C_9
    4  A    between atoms: C_2  and  C_24
    5  A    between atoms: C_3  and  C_36
    6  A    between atoms: C_3  and  C_45
    7  A    between atoms: C_7  and  C_30
    8  A    between atoms: C_9  and  C_17
    9  A    between atoms: C_10  and  N_37
   10  A    between atoms: C_14  and  C_36
   11  A    between atoms: C_18  and  N_37
   12  A    between atoms: C_19  and  N_21
   13  A    between atoms: N_21  and  C_27
   14  A    between atoms: C_24  and  C_29
   15  A    between atoms: C_26  and  C_33
   16  A    between atoms: C_27  and  N_48
   17  A    between atoms: C_29  and  N_32
                            x       y       z     vdW  Elec       q    Type
                         _______ _______ _______ _____ _____    ______ ____

>  <TORSDO>
F 17

$$$$
=
 OpenBabel11032419523D

 48 52  0  0  1  0  0  0  0  0999 V2000
  190.7020  177.2420  139.0700 S   0  0  0  0  0  0  0  0  0  0  0  0
  189.7230  178.2590  137.8990 C   0  0  2  0  0  3  0  0  0  0  0  0
  189.2270  177.0950  140.0870 C   0  0  2  0  0  3  0  0  0  0  0  0
  188.6410  178.9470  138.6160 N   0  0  0  0  0  2  0  0  0  0  0  0
  188.4660  178.3950  139.9550 C   0  0  1  0  0  3  0  0  0  0  0  0
  190.6830  176.0050  141.8470 O   0  0  0  0  0  0  0  0  0  0  0  0
  189.0580  177.3880  142.5000 N   0  0  0  0  0  0  0  0  0  0  0  0
  190.7680  175.9400  143.2590 C   0  0  0  0  0  2  0  0  0  0  0  0
  189.6690  176.8690  141.4950 C   0  0  0  0  0  0  0  0  0  0  0  0
  189.6160  176.8360  143.7170 C   0  0  1  0  0  3  0  0  0  0  0  0
  190.0550  177.9110  144.7150 C   0  0  2  0  0  3  0  0  0  0  0  0
  191.3700  177.6890  145.0970 O   0  0  0  0  0  1  0  0  0  0  0  0
  186.6010  177.5870  146.2540 C   0  0  2  0  0  3  0  0  0  0  0  0
  187.3980  176.7430  147.2500 C   0  0  2  0  0  3  0  0  0  0  0  0
  189.0140  178.1610  148.3920 C   0  0  0  0  0  2  0  0  0  0  0  0
  189.1380  178.1290  145.9490 C   0  0  2  0  0  3  0  0  0  0  0  0
  187.7500  177.4860  148.3970 O   0  0  0  0  0  0  0  0  0  0  0  0
  189.9130  177.8430  147.2240 C   0  0  0  0  0  2  0  0  0  0  0  0
  188.0080  177.1020  145.8940 C   0  0  2  0  0  3  0  0  0  0  0  0
  185.3060  179.3430  147.2170 O   0  0  0  0  0  1  0  0  0  0  0  0
  186.5140  179.0770  146.5750 C   0  0  0  0  0  2  0  0  0  0  0  0
  189.9830  176.2590  136.6380 C   0  0  0  0  0  1  0  0  0  0  0  0
  189.1590  177.4580  136.7970 N   0  0  0  0  0  0  0  0  0  0  0  0
  186.7440  177.6920  136.1460 C   0  0  0  0  0  2  0  0  0  0  0  0
  187.7660  177.0730  137.1090 C   0  0  1  0  0  3  0  0  0  0  0  0
  186.1650  175.4590  136.5280 C   0  0  0  0  0  0  0  0  0  0  0  0
  185.7690  176.5910  135.9810 C   0  0  0  0  0  0  0  0  0  0  0  0
  187.5060  175.5620  137.1690 C   0  0  0  0  0  2  0  0  0  0  0  0
  184.5600  176.7440  135.3230 O   0  0  0  0  0  1  0  0  0  0  0  0
  185.4220  174.2480  136.4300 N   0  0  0  0  0  2  0  0  0  0  0  0
  184.8540  173.5990  137.6080 C   0  0  0  0  0  2  0  0  0  0  0  0
  182.3680  173.8030  136.1260 O   0  0  0  0  0  0  0  0  0  0  0  0
  181.8290  171.4950  136.3030 C   0  0  0  0  0  1  0  0  0  0  0  0
  182.7250  172.6670  136.5310 C   0  0  0  0  0  0  0  0  0  0  0  0
  183.9720  172.5010  137.2280 N   0  0  0  0  0  2  0  0  0  0  0  0
  186.9790  178.1540  140.2270 C   0  0  0  0  0  2  0  0  0  0  0  0
  186.4750  179.0100  141.3740 C   0  0  0  0  0  2  0  0  0  0  0  0
  184.9910  179.0120  141.4360 C   0  0  0  0  0  0  0  0  0  0  0  0
  184.2370  179.2360  140.2380 N   0  0  0  0  0  2  0  0  0  0  0  0
  184.4050  178.8370  142.5440 O   0  0  0  0  0  0  0  0  0  0  0  0
  182.7870  179.3230  140.2090 C   0  0  0  0  0  2  0  0  0  0  0  0
  182.1870  178.3420  139.1970 C   0  0  0  0  0  2  0  0  0  0  0  0
  181.7040  177.0620  139.8540 C   0  0  2  0  0  3  0  0  0  0  0  0
  182.6180  176.0270  139.6020 O   0  0  0  0  0  1  0  0  0  0  0  0
  180.3170  176.6630  139.3780 C   0  0  0  0  0  2  0  0  0  0  0  0
  179.6510  174.2420  140.0440 C   0  0  0  0  0  1  0  0  0  0  0  0
  179.6820  175.7030  140.3360 C   0  0  0  0  0  0  0  0  0  0  0  0
  179.1990  176.1170  141.3750 O   0  0  0  0  0  0  0  0  0  0  0  0
  1  3  1  0  0  0  0
  2 23  1  6  0  0  0
  2  4  1  0  0  0  0
  2  1  1  0  0  0  0
  3  9  1  1  0  0  0
  4  5  1  0  0  0  0
  5  3  1  0  0  0  0
  5 36  1  6  0  0  0
  6  8  1  0  0  0  0
  7 10  1  0  0  0  0
  8 10  1  0  0  0  0
  9  6  1  0  0  0  0
  9  7  2  0  0  0  0
 10 11  1  1  0  0  0
 11 12  1  1  0  0  0
 13 21  1  1  0  0  0
 13 14  1  0  0  0  0
 14 17  1  1  0  0  0
 15 17  1  0  0  0  0
 16 11  1  6  0  0  0
 16 18  1  0  0  0  0
 18 15  1  0  0  0  0
 19 16  1  0  0  0  0
 19 13  1  0  0  0  0
 19 14  1  0  0  0  0
 21 20  1  0  0  0  0
 22 23  1  0  0  0  0
 23 25  1  0  0  0  0
 24 25  1  0  0  0  0
 25 28  1  0  0  0  0
 26 28  1  0  0  0  0
 27 24  1  0  0  0  0
 27 26  2  0  0  0  0
 29 27  1  0  0  0  0
 30 26  1  0  0  0  0
 30 31  1  0  0  0  0
 32 34  2  0  0  0  0
 33 34  1  0  0  0  0
 34 35  1  0  0  0  0
 35 31  1  0  0  0  0
 36 37  1  0  0  0  0
 37 38  1  0  0  0  0
 38 40  2  0  0  0  0
 39 38  1  0  0  0  0
 41 39  1  0  0  0  0
 42 43  1  0  0  0  0
 42 41  1  0  0  0  0
 44 43  1  0  0  0  0
 45 43  1  0  0  0  0
 45 47  1  0  0  0  0
 46 47  1  0  0  0  0
 47 48  2  0  0  0  0
M  END
>  <MODEL>
7

>  <REMARK>
 VINA RESULT:      -6.6      3.749      8.237
  Name = 
  17 active torsions:
  status: ('A' for Active; 'I' for Inactive)
    1  A    between atoms: C_1  and  C_25
    2  A    between atoms: C_1  and  C_46
    3  A    between atoms: C_2  and  C_9
    4  A    between atoms: C_2  and  C_24
    5  A    between atoms: C_3  and  C_36
    6  A    between atoms: C_3  and  C_45
    7  A    between atoms: C_7  and  C_30
    8  A    between atoms: C_9  and  C_17
    9  A    between atoms: C_10  and  N_37
   10  A    between atoms: C_14  and  C_36
   11  A    between atoms: C_18  and  N_37
   12  A    between atoms: C_19  and  N_21
   13  A    between atoms: N_21  and  C_27
   14  A    between atoms: C_24  and  C_29
   15  A    between atoms: C_26  and  C_33
   16  A    between atoms: C_27  and  N_48
   17  A    between atoms: C_29  and  N_32
                            x       y       z     vdW  Elec       q    Type
                         _______ _______ _______ _____ _____    ______ ____

>  <TORSDO>
F 17

$$$$
=
 OpenBabel11032419523D

 48 52  0  0  1  0  0  0  0  0999 V2000
  187.5850  176.3140  136.2300 S   0  0  0  0  0  0  0  0  0  0  0  0
  186.6200  177.7670  136.7970 C   0  0  2  0  0  3  0  0  0  0  0  0
  188.8180  176.7200  137.4730 C   0  0  2  0  0  3  0  0  0  0  0  0
  187.5220  178.7800  137.3590 N   0  0  0  0  0  2  0  0  0  0  0  0
  188.8530  178.2270  137.5880 C   0  0  1  0  0  3  0  0  0  0  0  0
  190.6250  176.3870  135.7320 O   0  0  0  0  0  0  0  0  0  0  0  0
  190.8500  175.3970  137.7190 N   0  0  0  0  0  0  0  0  0  0  0  0
  191.8260  175.6530  135.5790 C   0  0  0  0  0  2  0  0  0  0  0  0
  190.1300  176.1840  137.0010 C   0  0  0  0  0  0  0  0  0  0  0  0
  191.9560  174.9200  136.9150 C   0  0  1  0  0  3  0  0  0  0  0  0
  193.3170  175.1310  137.5830 C   0  0  2  0  0  3  0  0  0  0  0  0
  193.6080  176.4860  137.6400 O   0  0  0  0  0  1  0  0  0  0  0  0
  196.9970  174.2260  137.7920 C   0  0  2  0  0  3  0  0  0  0  0  0
  196.3880  172.8320  137.9460 C   0  0  2  0  0  3  0  0  0  0  0  0
  195.1950  172.2460  135.9060 C   0  0  0  0  0  2  0  0  0  0  0  0
  194.5090  174.3210  137.0040 C   0  0  2  0  0  3  0  0  0  0  0  0
  196.3690  172.1330  136.7200 O   0  0  0  0  0  0  0  0  0  0  0  0
  194.0290  172.9540  136.5480 C   0  0  0  0  0  2  0  0  0  0  0  0
  195.5110  174.0710  138.1290 C   0  0  2  0  0  3  0  0  0  0  0  0
  197.6860  176.0000  136.3530 O   0  0  0  0  0  1  0  0  0  0  0  0
  197.2720  174.6690  136.3570 C   0  0  0  0  0  2  0  0  0  0  0  0
  185.1720  178.6280  138.4760 C   0  0  0  0  0  1  0  0  0  0  0  0
  185.5950  177.4050  137.7930 N   0  0  0  0  0  0  0  0  0  0  0  0
  183.7860  175.6710  137.9700 C   0  0  0  0  0  2  0  0  0  0  0  0
  184.4360  176.7740  137.1250 C   0  0  1  0  0  3  0  0  0  0  0  0
  182.1020  176.9680  136.9960 C   0  0  0  0  0  0  0  0  0  0  0  0
  182.3480  175.8720  137.6850 C   0  0  1  0  0  3  0  0  0  0  0  0
  183.3330  177.7450  136.6820 C   0  0  0  0  0  2  0  0  0  0  0  0
  181.3640  174.9880  138.0980 O   0  0  0  0  0  1  0  0  0  0  0  0
  180.7840  177.4010  136.6700 N   0  0  0  0  0  0  0  0  0  0  0  0
  180.5400  178.6760  136.0020 C   0  0  0  0  0  2  0  0  0  0  0  0
  180.7990  181.5060  135.4160 O   0  0  0  0  0  0  0  0  0  0  0  0
  180.7510  182.1950  137.6910 C   0  0  0  0  0  1  0  0  0  0  0  0
  180.6790  181.1580  136.6190 C   0  0  0  0  0  0  0  0  0  0  0  0
  180.4980  179.7730  136.9620 N   0  0  0  0  0  2  0  0  0  0  0  0
  189.3500  178.6290  138.9790 C   0  0  0  0  0  2  0  0  0  0  0  0
  188.3770  178.2060  140.0630 C   0  0  0  0  0  2  0  0  0  0  0  0
  189.0030  177.2440  141.0060 C   0  0  0  0  0  0  0  0  0  0  0  0
  188.3110  176.8860  142.2090 N   0  0  0  0  0  2  0  0  0  0  0  0
  190.1470  176.7670  140.7540 O   0  0  0  0  0  0  0  0  0  0  0  0
  188.8700  176.0090  143.2240 C   0  0  0  0  0  2  0  0  0  0  0  0
  189.9260  176.7300  144.0670 C   0  0  0  0  0  2  0  0  0  0  0  0
  189.3530  177.9240  144.8100 C   0  0  2  0  0  3  0  0  0  0  0  0
  190.3970  178.6780  145.3670 O   0  0  0  0  0  1  0  0  0  0  0  0
  188.3730  177.5060  145.8930 C   0  0  0  0  0  2  0  0  0  0  0  0
  188.7390  178.2400  148.3580 C   0  0  0  0  0  1  0  0  0  0  0  0
  189.0700  177.3510  147.2100 C   0  0  0  0  0  0  0  0  0  0  0  0
  189.9060  176.4770  147.3500 O   0  0  0  0  0  0  0  0  0  0  0  0
  1  2  1  0  0  0  0
  1  3  1  0  0  0  0
  2  4  1  0  0  0  0
  2 23  1  1  0  0  0
  3  9  1  6  0  0  0
  3  5  1  0  0  0  0
  4  5  1  0  0  0  0
  5 36  1  1  0  0  0
  6  9  1  0  0  0  0
  8  6  1  0  0  0  0
  8 10  1  0  0  0  0
  9  7  2  0  0  0  0
 10 11  1  1  0  0  0
 10  7  1  0  0  0  0
 11 12  1  6  0  0  0
 13 21  1  6  0  0  0
 13 14  1  0  0  0  0
 13 19  1  0  0  0  0
 14 17  1  6  0  0  0
 14 19  1  0  0  0  0
 15 18  1  0  0  0  0
 15 17  1  0  0  0  0
 16 11  1  1  0  0  0
 16 19  1  0  0  0  0
 18 16  1  0  0  0  0
 20 21  1  0  0  0  0
 23 22  1  0  0  0  0
 25 23  1  0  0  0  0
 25 24  1  0  0  0  0
 26 27  1  0  0  0  0
 27 24  1  0  0  0  0
 27 29  1  0  0  0  0
 28 26  1  0  0  0  0
 28 25  1  0  0  0  0
 30 26  2  0  0  0  0
 31 30  1  0  0  0  0
 31 35  1  0  0  0  0
 32 34  2  0  0  0  0
 34 35  1  0  0  0  0
 34 33  1  0  0  0  0
 36 37  1  0  0  0  0
 37 38  1  0  0  0  0
 38 39  1  0  0  0  0
 39 41  1  0  0  0  0
 40 38  2  0  0  0  0
 41 42  1  0  0  0  0
 42 43  1  0  0  0  0
 43 44  1  0  0  0  0
 43 45  1  0  0  0  0
 45 47  1  0  0  0  0
 47 48  2  0  0  0  0
 47 46  1  0  0  0  0
M  END
>  <MODEL>
8

>  <REMARK>
 VINA RESULT:      -6.6      1.719      2.064
  Name = 
  17 active torsions:
  status: ('A' for Active; 'I' for Inactive)
    1  A    between atoms: C_1  and  C_25
    2  A    between atoms: C_1  and  C_46
    3  A    between atoms: C_2  and  C_9
    4  A    between atoms: C_2  and  C_24
    5  A    between atoms: C_3  and  C_36
    6  A    between atoms: C_3  and  C_45
    7  A    between atoms: C_7  and  C_30
    8  A    between atoms: C_9  and  C_17
    9  A    between atoms: C_10  and  N_37
   10  A    between atoms: C_14  and  C_36
   11  A    between atoms: C_18  and  N_37
   12  A    between atoms: C_19  and  N_21
   13  A    between atoms: N_21  and  C_27
   14  A    between atoms: C_24  and  C_29
   15  A    between atoms: C_26  and  C_33
   16  A    between atoms: C_27  and  N_48
   17  A    between atoms: C_29  and  N_32
                            x       y       z     vdW  Elec       q    Type
                         _______ _______ _______ _____ _____    ______ ____

>  <TORSDO>
F 17

$$$$
=
 OpenBabel11032419523D

 48 52  0  0  1  0  0  0  0  0999 V2000
  192.1350  176.2510  138.6930 S   0  0  0  0  0  0  0  0  0  0  0  0
  191.3120  176.5080  137.0740 C   0  0  2  0  0  3  0  0  0  0  0  0
  190.5180  176.3730  139.4690 C   0  0  2  0  0  3  0  0  0  0  0  0
  190.0820  177.2920  137.2550 N   0  0  0  0  0  2  0  0  0  0  0  0
  189.7130  177.3690  138.6640 C   0  0  1  0  0  3  0  0  0  0  0  0
  191.9630  177.1080  141.4140 O   0  0  0  0  0  0  0  0  0  0  0  0
  189.7560  176.9590  141.7090 N   0  0  0  0  0  0  0  0  0  0  0  0
  191.8100  177.4310  142.7840 C   0  0  0  0  0  2  0  0  0  0  0  0
  190.7230  176.8520  140.8690 C   0  0  0  0  0  0  0  0  0  0  0  0
  190.3060  177.2700  143.0120 C   0  0  1  0  0  3  0  0  0  0  0  0
  189.6640  178.5020  143.6540 C   0  0  2  0  0  3  0  0  0  0  0  0
  190.6270  179.4770  143.8700 O   0  0  0  0  0  1  0  0  0  0  0  0
  186.2700  177.7120  145.1570 C   0  0  2  0  0  3  0  0  0  0  0  0
  187.0670  176.5290  145.7060 C   0  0  2  0  0  3  0  0  0  0  0  0
  188.8000  177.3540  147.2040 C   0  0  0  0  0  2  0  0  0  0  0  0
  188.8140  178.2570  144.9300 C   0  0  2  0  0  3  0  0  0  0  0  0
  187.5060  176.7640  147.0260 O   0  0  0  0  0  0  0  0  0  0  0  0
  189.6300  177.4820  145.9510 C   0  0  0  0  0  2  0  0  0  0  0  0
  187.6330  177.3620  144.5550 C   0  0  2  0  0  3  0  0  0  0  0  0
  185.1780  178.9330  146.8920 O   0  0  0  0  0  1  0  0  0  0  0  0
  186.2700  178.9670  146.0260 C   0  0  0  0  0  2  0  0  0  0  0  0
  189.9500  175.4950  135.4060 C   0  0  0  0  0  1  0  0  0  0  0  0
  190.9960  175.2360  136.3970 N   0  0  0  0  0  0  0  0  0  0  0  0
  193.2510  175.7840  135.4340 C   0  0  0  0  0  2  0  0  0  0  0  0
  192.2020  174.7030  135.7280 C   0  0  1  0  0  3  0  0  0  0  0  0
  194.3370  173.8780  136.2440 C   0  0  0  0  0  0  0  0  0  0  0  0
  194.5170  175.0660  135.7030 C   0  0  0  0  0  0  0  0  0  0  0  0
  192.9010  173.5530  136.4660 C   0  0  0  0  0  2  0  0  0  0  0  0
  195.7630  175.5930  135.4050 O   0  0  0  0  0  1  0  0  0  0  0  0
  195.4140  173.0410  136.6550 N   0  0  0  0  0  2  0  0  0  0  0  0
  195.4460  172.4250  137.9780 C   0  0  0  0  0  2  0  0  0  0  0  0
  197.5610  174.3750  138.3550 O   0  0  0  0  0  0  0  0  0  0  0  0
  196.6690  175.2630  140.3720 C   0  0  0  0  0  1  0  0  0  0  0  0
  196.6210  174.3510  139.1910 C   0  0  0  0  0  0  0  0  0  0  0  0
  195.5220  173.4380  139.0260 N   0  0  0  0  0  2  0  0  0  0  0  0
  188.2190  177.0780  138.8260 C   0  0  0  0  0  2  0  0  0  0  0  0
  187.4230  178.3510  139.0440 C   0  0  0  0  0  2  0  0  0  0  0  0
  186.1870  178.3630  138.2210 C   0  0  0  0  0  0  0  0  0  0  0  0
  184.9260  178.0820  138.8410 N   0  0  0  0  0  2  0  0  0  0  0  0
  186.2560  178.5990  136.9800 O   0  0  0  0  0  0  0  0  0  0  0  0
  183.6720  178.0030  138.1110 C   0  0  0  0  0  2  0  0  0  0  0  0
  182.5140  178.5910  138.9200 C   0  0  0  0  0  2  0  0  0  0  0  0
  182.3360  177.8990  140.2600 C   0  0  2  0  0  3  0  0  0  0  0  0
  181.1820  177.1010  140.2310 O   0  0  0  0  0  1  0  0  0  0  0  0
  182.2600  178.8890  141.4090 C   0  0  0  0  0  2  0  0  0  0  0  0
  183.3890  179.3460  143.7030 C   0  0  0  0  0  1  0  0  0  0  0  0
  183.3830  178.6700  142.3750 C   0  0  0  0  0  0  0  0  0  0  0  0
  184.2950  177.9190  142.0810 O   0  0  0  0  0  0  0  0  0  0  0  0
  1  3  1  0  0  0  0
  2 23  1  1  0  0  0
  2  4  1  0  0  0  0
  2  1  1  0  0  0  0
  3  9  1  1  0  0  0
  4  5  1  0  0  0  0
  5 36  1  6  0  0  0
  5  3  1  0  0  0  0
  6  8  1  0  0  0  0
  7 10  1  0  0  0  0
  8 10  1  0  0  0  0
  9  6  1  0  0  0  0
  9  7  2  0  0  0  0
 10 11  1  6  0  0  0
 11 12  1  1  0  0  0
 13 14  1  0  0  0  0
 13 21  1  1  0  0  0
 14 17  1  1  0  0  0
 16 11  1  6  0  0  0
 16 18  1  0  0  0  0
 17 15  1  0  0  0  0
 18 15  1  0  0  0  0
 19 16  1  0  0  0  0
 19 13  1  0  0  0  0
 19 14  1  0  0  0  0
 21 20  1  0  0  0  0
 22 23  1  0  0  0  0
 24 27  1  0  0  0  0
 24 25  1  0  0  0  0
 25 23  1  0  0  0  0
 25 28  1  0  0  0  0
 26 28  1  0  0  0  0
 26 30  1  0  0  0  0
 27 26  2  0  0  0  0
 29 27  1  0  0  0  0
 30 31  1  0  0  0  0
 31 35  1  0  0  0  0
 32 34  2  0  0  0  0
 34 33  1  0  0  0  0
 35 34  1  0  0  0  0
 36 37  1  0  0  0  0
 38 39  1  0  0  0  0
 38 37  1  0  0  0  0
 40 38  2  0  0  0  0
 41 39  1  0  0  0  0
 41 42  1  0  0  0  0
 42 43  1  0  0  0  0
 43 45  1  0  0  0  0
 44 43  1  0  0  0  0
 45 47  1  0  0  0  0
 47 46  1  0  0  0  0
 48 47  2  0  0  0  0
M  END
>  <MODEL>
9

>  <REMARK>
 VINA RESULT:      -6.6      2.309     10.102
  Name = 
  17 active torsions:
  status: ('A' for Active; 'I' for Inactive)
    1  A    between atoms: C_1  and  C_25
    2  A    between atoms: C_1  and  C_46
    3  A    between atoms: C_2  and  C_9
    4  A    between atoms: C_2  and  C_24
    5  A    between atoms: C_3  and  C_36
    6  A    between atoms: C_3  and  C_45
    7  A    between atoms: C_7  and  C_30
    8  A    between atoms: C_9  and  C_17
    9  A    between atoms: C_10  and  N_37
   10  A    between atoms: C_14  and  C_36
   11  A    between atoms: C_18  and  N_37
   12  A    between atoms: C_19  and  N_21
   13  A    between atoms: N_21  and  C_27
   14  A    between atoms: C_24  and  C_29
   15  A    between atoms: C_26  and  C_33
   16  A    between atoms: C_27  and  N_48
   17  A    between atoms: C_29  and  N_32
                            x       y       z     vdW  Elec       q    Type
                         _______ _______ _______ _____ _____    ______ ____

>  <TORSDO>
F 17

$$$$
