=
 OpenBabel11032419083D

 42 44  0  0  1  0  0  0  0  0999 V2000
  185.9390  178.0730  142.0480 C   0  0  2  0  0  3  0  0  0  0  0  0
  185.0370  178.3660  143.2110 C   0  0  0  0  0  0  0  0  0  0  0  0
  182.8140  178.6330  144.1660 C   0  0  0  0  0  0  0  0  0  0  0  0
  183.3970  178.9510  145.4040 C   0  0  0  0  0  3  0  0  0  0  0  0
  183.6400  178.3440  143.0750 C   0  0  0  0  0  3  0  0  0  0  0  0
  184.7870  178.9780  145.5430 C   0  0  0  0  0  3  0  0  0  0  0  0
  185.6050  178.6870  144.4480 C   0  0  0  0  0  3  0  0  0  0  0  0
  181.4270  178.6000  143.9910 O   0  0  0  0  0  0  0  0  0  0  0  0
  180.2170  179.9840  142.1850 C   0  0  0  0  0  0  0  0  0  0  0  0
  180.7830  179.3360  143.0310 C   0  0  0  0  0  0  0  0  0  0  0  0
  179.3930  180.9320  140.9500 S   0  0  0  0  0  0  0  0  0  0  0  0
  180.2390  180.0420  139.6130 C   0  0  0  0  0  2  0  0  0  0  0  0
  181.1650  180.9650  138.8920 C   0  0  0  0  0  0  0  0  0  0  0  0
  182.3310  180.5740  138.6250 O   0  0  0  0  0  0  0  0  0  0  0  0
  180.7690  182.2490  138.4910 O   0  0  0  0  0  0  0  0  0  0  0  0
  179.9850  182.5350  136.3220 O   0  0  0  0  0  1  0  0  0  0  0  0
  181.0310  182.8170  137.2060 C   0  0  1  0  0  3  0  0  0  0  0  0
  181.2960  184.2900  137.2990 C   0  0  0  0  0  0  0  0  0  0  0  0
  180.2660  185.1900  137.0600 O   0  0  0  0  0  0  0  0  0  0  0  0
  182.4380  184.7210  137.6080 O   0  0  0  0  0  1  0  0  0  0  0  0
  190.0990  176.9310  142.3290 C   0  0  2  0  0  3  0  0  0  0  0  0
  189.8050  178.3850  141.9590 C   0  0  0  0  0  2  0  0  0  0  0  0
  189.0470  176.4400  143.3210 C   0  0  0  0  0  2  0  0  0  0  0  0
  187.7170  176.5240  142.7230 N   0  0  0  0  0  2  0  0  0  0  0  0
  188.3760  178.5190  141.4440 C   0  0  0  0  0  2  0  0  0  0  0  0
  187.4020  177.9320  142.4750 C   0  0  1  0  0  3  0  0  0  0  0  0
  191.4170  176.8290  142.9310 N   0  0  0  0  0  2  0  0  0  0  0  0
  191.7120  175.9490  145.1020 C   0  0  0  0  0  0  0  0  0  0  0  0
  191.7350  175.7580  143.8140 C   0  0  0  0  0  3  0  0  0  0  0  0
  191.6900  176.1420  146.3910 C   0  0  0  0  0  3  0  0  0  0  0  0
  191.0690  177.3750  146.9480 C   0  0  0  0  0  2  0  0  0  0  0  0
  188.0560  178.3450  148.5730 C   0  0  0  0  0  2  0  0  0  0  0  0
  187.5420  177.6080  147.3620 C   0  0  0  0  0  2  0  0  0  0  0  0
  189.8480  177.0340  147.6580 N   0  0  0  0  0  0  0  0  0  0  0  0
  188.7710  177.0510  146.6800 C   0  0  0  0  0  2  0  0  0  0  0  0
  189.5550  178.1330  148.5680 C   0  0  0  0  0  2  0  0  0  0  0  0
  185.7470  179.0530  140.8880 C   0  0  0  0  0  2  0  0  0  0  0  0
  186.8540  178.4830  138.3220 O   0  0  0  0  0  0  0  0  0  0  0  0
  185.6530  178.1500  138.5250 C   0  0  0  0  0  0  0  0  0  0  0  0
  185.0370  178.4150  139.7870 N   0  0  0  0  0  2  0  0  0  0  0  0
  185.4390  177.3110  136.2230 C   0  0  0  0  0  1  0  0  0  0  0  0
  184.9120  177.5240  137.5240 O   0  0  0  0  0  0  0  0  0  0  0  0
  1 37  1  6  0  0  0
  1  2  1  0  0  0  0
  2  7  1  0  0  0  0
  3  4  2  0  0  0  0
  4  6  1  0  0  0  0
  5  2  2  0  0  0  0
  5  3  1  0  0  0  0
  7  6  2  0  0  0  0
  8  3  1  0  0  0  0
  9 10  3  0  0  0  0
 10  8  1  0  0  0  0
 11  9  1  0  0  0  0
 12 11  1  0  0  0  0
 13 12  1  0  0  0  0
 14 13  2  0  0  0  0
 15 13  1  0  0  0  0
 17 16  1  6  0  0  0
 17 18  1  0  0  0  0
 17 15  1  0  0  0  0
 18 20  1  0  0  0  0
 19 18  2  0  0  0  0
 21 27  1  1  0  0  0
 21 23  1  0  0  0  0
 22 21  1  0  0  0  0
 24 23  1  0  0  0  0
 25 22  1  0  0  0  0
 25 26  1  0  0  0  0
 26  1  1  6  0  0  0
 26 24  1  0  0  0  0
 27 29  1  0  0  0  0
 28 30  2  0  0  0  0
 29 28  2  0  0  0  0
 30 31  1  0  0  0  0
 31 34  1  0  0  0  0
 33 32  1  0  0  0  0
 34 36  1  0  0  0  0
 35 33  1  0  0  0  0
 35 34  1  0  0  0  0
 36 32  1  0  0  0  0
 38 39  2  0  0  0  0
 39 40  1  0  0  0  0
 40 37  1  0  0  0  0
 41 42  1  0  0  0  0
 42 39  1  0  0  0  0
M  END
>  <MODEL>
1

>  <REMARK>
 VINA RESULT:      -7.6      0.000      0.000
  Name = 
  17 active torsions:
  status: ('A' for Active; 'I' for Inactive)
    1  A    between atoms: C_4  and  S_42
    2  A    between atoms: O_5  and  C_12
    3  A    between atoms: O_5  and  C_14
    4  A    between atoms: C_6  and  C_8
    5  A    between atoms: C_8  and  C_35
    6  A    between atoms: C_8  and  C_40
    7  A    between atoms: C_9  and  N_16
    8  A    between atoms: N_10  and  C_11
    9  A    between atoms: C_11  and  C_38
   10  A    between atoms: C_13  and  C_32
   11  A    between atoms: C_13  and  O_37
   12  A    between atoms: N_16  and  C_31
   13  A    between atoms: C_18  and  C_26
   14  A    between atoms: C_26  and  O_37
   15  A    between atoms: C_29  and  O_34
   16  A    between atoms: C_32  and  S_42
   17  A    between atoms: C_35  and  N_41
                            x       y       z     vdW  Elec       q    Type
                         _______ _______ _______ _____ _____    ______ ____

>  <TORSDO>
F 17

$$$$
=
 OpenBabel11032419083D

 42 44  0  0  1  0  0  0  0  0999 V2000
  188.3570  176.9880  145.0750 C   0  0  2  0  0  3  0  0  0  0  0  0
  189.3300  177.3240  143.9830 C   0  0  0  0  0  0  0  0  0  0  0  0
  190.3950  176.8190  141.8540 C   0  0  0  0  0  0  0  0  0  0  0  0
  191.1820  177.9760  141.9870 C   0  0  0  0  0  3  0  0  0  0  0  0
  189.4740  176.5000  142.8560 C   0  0  0  0  0  3  0  0  0  0  0  0
  191.0450  178.7970  143.1090 C   0  0  0  0  0  3  0  0  0  0  0  0
  190.1210  178.4700  144.1050 C   0  0  0  0  0  3  0  0  0  0  0  0
  190.5090  175.9730  140.7460 O   0  0  0  0  0  0  0  0  0  0  0  0
  190.1810  176.7950  138.3260 C   0  0  0  0  0  0  0  0  0  0  0  0
  190.3350  176.4100  139.4580 C   0  0  0  0  0  0  0  0  0  0  0  0
  189.9520  177.3570  136.6710 S   0  0  0  0  0  0  0  0  0  0  0  0
  188.5470  178.4000  137.1530 C   0  0  0  0  0  2  0  0  0  0  0  0
  187.2700  177.7790  136.6900 C   0  0  0  0  0  0  0  0  0  0  0  0
  187.0680  177.6480  135.4550 O   0  0  0  0  0  0  0  0  0  0  0  0
  186.2950  177.3260  137.5910 O   0  0  0  0  0  0  0  0  0  0  0  0
  184.0540  177.2860  138.2010 O   0  0  0  0  0  1  0  0  0  0  0  0
  185.1810  178.0970  138.0410 C   0  0  1  0  0  3  0  0  0  0  0  0
  185.5040  178.8510  139.2970 C   0  0  0  0  0  0  0  0  0  0  0  0
  184.5860  179.7580  139.8100 O   0  0  0  0  0  0  0  0  0  0  0  0
  186.5930  178.6600  139.9010 O   0  0  0  0  0  1  0  0  0  0  0  0
  184.8440  179.2200  143.9050 C   0  0  2  0  0  3  0  0  0  0  0  0
  185.3100  178.1190  142.9550 C   0  0  0  0  0  2  0  0  0  0  0  0
  185.0920  178.7820  145.3460 C   0  0  0  0  0  2  0  0  0  0  0  0
  186.5160  178.5370  145.5580 N   0  0  0  0  0  2  0  0  0  0  0  0
  186.7650  177.7590  143.2380 C   0  0  0  0  0  2  0  0  0  0  0  0
  186.9270  177.4070  144.7220 C   0  0  1  0  0  3  0  0  0  0  0  0
  183.4270  179.4750  143.7130 N   0  0  0  0  0  2  0  0  0  0  0  0
  181.2640  178.5940  144.0630 C   0  0  0  0  0  0  0  0  0  0  0  0
  182.4530  178.8390  144.5350 C   0  0  0  0  0  3  0  0  0  0  0  0
  180.0750  178.3480  143.5900 C   0  0  0  0  0  3  0  0  0  0  0  0
  179.8170  178.4690  142.1290 C   0  0  0  0  0  2  0  0  0  0  0  0
  180.9680  180.4170  139.3840 C   0  0  0  0  0  2  0  0  0  0  0  0
  179.8930  181.2970  139.9700 C   0  0  0  0  0  2  0  0  0  0  0  0
  180.4820  179.6500  141.6060 N   0  0  0  0  0  0  0  0  0  0  0  0
  179.4380  180.5890  141.2270 C   0  0  0  0  0  2  0  0  0  0  0  0
  181.1250  179.2680  140.3570 C   0  0  0  0  0  2  0  0  0  0  0  0
  188.8060  177.4980  146.4470 C   0  0  0  0  0  2  0  0  0  0  0  0
  191.6530  177.3560  146.5430 O   0  0  0  0  0  0  0  0  0  0  0  0
  191.0050  176.4680  147.1640 C   0  0  0  0  0  0  0  0  0  0  0  0
  189.5760  176.4780  147.1480 N   0  0  0  0  0  2  0  0  0  0  0  0
  192.9470  175.6790  148.4490 C   0  0  0  0  0  1  0  0  0  0  0  0
  191.6700  175.4650  147.8670 O   0  0  0  0  0  0  0  0  0  0  0  0
  1 37  1  1  0  0  0
  2  7  1  0  0  0  0
  2  1  1  0  0  0  0
  3  4  2  0  0  0  0
  3  5  1  0  0  0  0
  4  6  1  0  0  0  0
  5  2  2  0  0  0  0
  6  7  2  0  0  0  0
  8  3  1  0  0  0  0
  9 10  3  0  0  0  0
 10  8  1  0  0  0  0
 11 12  1  0  0  0  0
 11  9  1  0  0  0  0
 13 12  1  0  0  0  0
 13 15  1  0  0  0  0
 14 13  2  0  0  0  0
 15 17  1  0  0  0  0
 17 16  1  1  0  0  0
 17 18  1  0  0  0  0
 18 19  2  0  0  0  0
 18 20  1  0  0  0  0
 21 27  1  1  0  0  0
 21 23  1  0  0  0  0
 22 25  1  0  0  0  0
 22 21  1  0  0  0  0
 23 24  1  0  0  0  0
 25 26  1  0  0  0  0
 26  1  1  6  0  0  0
 26 24  1  0  0  0  0
 27 29  1  0  0  0  0
 28 29  2  0  0  0  0
 30 28  2  0  0  0  0
 31 30  1  0  0  0  0
 32 33  1  0  0  0  0
 32 36  1  0  0  0  0
 33 35  1  0  0  0  0
 34 31  1  0  0  0  0
 35 34  1  0  0  0  0
 36 34  1  0  0  0  0
 37 40  1  0  0  0  0
 38 39  2  0  0  0  0
 39 42  1  0  0  0  0
 40 39  1  0  0  0  0
 42 41  1  0  0  0  0
M  END
>  <MODEL>
2

>  <REMARK>
 VINA RESULT:      -7.5      3.601      8.838
  Name = 
  17 active torsions:
  status: ('A' for Active; 'I' for Inactive)
    1  A    between atoms: C_4  and  S_42
    2  A    between atoms: O_5  and  C_12
    3  A    between atoms: O_5  and  C_14
    4  A    between atoms: C_6  and  C_8
    5  A    between atoms: C_8  and  C_35
    6  A    between atoms: C_8  and  C_40
    7  A    between atoms: C_9  and  N_16
    8  A    between atoms: N_10  and  C_11
    9  A    between atoms: C_11  and  C_38
   10  A    between atoms: C_13  and  C_32
   11  A    between atoms: C_13  and  O_37
   12  A    between atoms: N_16  and  C_31
   13  A    between atoms: C_18  and  C_26
   14  A    between atoms: C_26  and  O_37
   15  A    between atoms: C_29  and  O_34
   16  A    between atoms: C_32  and  S_42
   17  A    between atoms: C_35  and  N_41
                            x       y       z     vdW  Elec       q    Type
                         _______ _______ _______ _____ _____    ______ ____

>  <TORSDO>
F 17

$$$$
=
 OpenBabel11032419083D

 42 44  0  0  1  0  0  0  0  0999 V2000
  190.2600  176.5780  138.6760 C   0  0  2  0  0  3  0  0  0  0  0  0
  189.0440  177.0730  137.9470 C   0  0  0  0  0  0  0  0  0  0  0  0
  186.8480  176.6940  136.9690 C   0  0  0  0  0  0  0  0  0  0  0  0
  186.8130  178.0370  136.5580 C   0  0  0  0  0  3  0  0  0  0  0  0
  187.9670  176.2200  137.6610 C   0  0  0  0  0  3  0  0  0  0  0  0
  187.8850  178.8890  136.8370 C   0  0  0  0  0  3  0  0  0  0  0  0
  188.9980  178.4070  137.5300 C   0  0  0  0  0  3  0  0  0  0  0  0
  185.7950  175.8130  136.7040 O   0  0  0  0  0  0  0  0  0  0  0  0
  183.5180  175.9620  137.9000 C   0  0  0  0  0  0  0  0  0  0  0  0
  184.5830  175.8930  137.3390 C   0  0  0  0  0  0  0  0  0  0  0  0
  181.9600  176.0590  138.7170 S   0  0  0  0  0  0  0  0  0  0  0  0
  181.8800  177.8580  138.4860 C   0  0  0  0  0  2  0  0  0  0  0  0
  181.9150  178.5450  139.8110 C   0  0  0  0  0  0  0  0  0  0  0  0
  180.8280  178.8110  140.3890 O   0  0  0  0  0  0  0  0  0  0  0  0
  183.1210  178.8880  140.4380 O   0  0  0  0  0  0  0  0  0  0  0  0
  184.3380  180.2150  138.9700 O   0  0  0  0  0  1  0  0  0  0  0  0
  184.3680  179.0650  139.7630 C   0  0  1  0  0  3  0  0  0  0  0  0
  185.5170  179.0850  140.7270 C   0  0  0  0  0  0  0  0  0  0  0  0
  186.7740  178.6710  140.3060 O   0  0  0  0  0  0  0  0  0  0  0  0
  185.3590  179.4870  141.9100 O   0  0  0  0  0  1  0  0  0  0  0  0
  190.7790  177.1800  142.9250 C   0  0  2  0  0  3  0  0  0  0  0  0
  191.8610  177.7500  142.0100 C   0  0  0  0  0  2  0  0  0  0  0  0
  189.4200  177.3080  142.2410 C   0  0  0  0  0  2  0  0  0  0  0  0
  189.4220  176.5690  140.9810 N   0  0  0  0  0  2  0  0  0  0  0  0
  191.8040  177.0760  140.6440 C   0  0  0  0  0  2  0  0  0  0  0  0
  190.3850  177.1930  140.0730 C   0  0  1  0  0  3  0  0  0  0  0  0
  190.7580  177.9060  144.1830 N   0  0  0  0  0  2  0  0  0  0  0  0
  190.6960  177.0730  146.3920 C   0  0  0  0  0  0  0  0  0  0  0  0
  191.4000  177.3810  145.3400 C   0  0  0  0  0  3  0  0  0  0  0  0
  189.9900  176.7640  147.4430 C   0  0  0  0  0  3  0  0  0  0  0  0
  188.5060  176.6910  147.3470 C   0  0  0  0  0  2  0  0  0  0  0  0
  186.1270  178.2550  145.2130 C   0  0  0  0  0  2  0  0  0  0  0  0
  185.8430  178.9100  146.5410 C   0  0  0  0  0  2  0  0  0  0  0  0
  187.9970  177.8710  146.6690 N   0  0  0  0  0  0  0  0  0  0  0  0
  186.9060  178.3870  147.4810 C   0  0  0  0  0  2  0  0  0  0  0  0
  187.3740  177.4250  145.4300 C   0  0  0  0  0  2  0  0  0  0  0  0
  191.5410  176.7100  137.8490 C   0  0  0  0  0  2  0  0  0  0  0  0
  194.2350  175.9140  138.3390 O   0  0  0  0  0  0  0  0  0  0  0  0
  193.4590  175.0580  137.8300 C   0  0  0  0  0  0  0  0  0  0  0  0
  192.0990  175.3970  137.5520 N   0  0  0  0  0  2  0  0  0  0  0  0
  195.0070  173.1880  138.2200 C   0  0  0  0  0  1  0  0  0  0  0  0
  193.9170  173.7760  137.5280 O   0  0  0  0  0  0  0  0  0  0  0  0
  1 37  1  6  0  0  0
  2  1  1  0  0  0  0
  3  5  2  0  0  0  0
  4  6  2  0  0  0  0
  4  3  1  0  0  0  0
  5  2  1  0  0  0  0
  6  7  1  0  0  0  0
  7  2  2  0  0  0  0
  8  3  1  0  0  0  0
  8 10  1  0  0  0  0
  9 11  1  0  0  0  0
 10  9  3  0  0  0  0
 12 11  1  0  0  0  0
 12 13  1  0  0  0  0
 13 14  2  0  0  0  0
 13 15  1  0  0  0  0
 17 16  1  1  0  0  0
 17 15  1  0  0  0  0
 17 18  1  0  0  0  0
 18 20  1  0  0  0  0
 19 18  2  0  0  0  0
 21 27  1  1  0  0  0
 22 21  1  0  0  0  0
 23 21  1  0  0  0  0
 24 23  1  0  0  0  0
 25 22  1  0  0  0  0
 26  1  1  6  0  0  0
 26 25  1  0  0  0  0
 26 24  1  0  0  0  0
 27 29  1  0  0  0  0
 28 30  2  0  0  0  0
 29 28  2  0  0  0  0
 31 30  1  0  0  0  0
 32 36  1  0  0  0  0
 32 33  1  0  0  0  0
 33 35  1  0  0  0  0
 34 31  1  0  0  0  0
 34 35  1  0  0  0  0
 36 34  1  0  0  0  0
 39 38  2  0  0  0  0
 40 39  1  0  0  0  0
 40 37  1  0  0  0  0
 42 39  1  0  0  0  0
 42 41  1  0  0  0  0
M  END
>  <MODEL>
3

>  <REMARK>
 VINA RESULT:      -7.5      3.400      6.050
  Name = 
  17 active torsions:
  status: ('A' for Active; 'I' for Inactive)
    1  A    between atoms: C_4  and  S_42
    2  A    between atoms: O_5  and  C_12
    3  A    between atoms: O_5  and  C_14
    4  A    between atoms: C_6  and  C_8
    5  A    between atoms: C_8  and  C_35
    6  A    between atoms: C_8  and  C_40
    7  A    between atoms: C_9  and  N_16
    8  A    between atoms: N_10  and  C_11
    9  A    between atoms: C_11  and  C_38
   10  A    between atoms: C_13  and  C_32
   11  A    between atoms: C_13  and  O_37
   12  A    between atoms: N_16  and  C_31
   13  A    between atoms: C_18  and  C_26
   14  A    between atoms: C_26  and  O_37
   15  A    between atoms: C_29  and  O_34
   16  A    between atoms: C_32  and  S_42
   17  A    between atoms: C_35  and  N_41
                            x       y       z     vdW  Elec       q    Type
                         _______ _______ _______ _____ _____    ______ ____

>  <TORSDO>
F 17

$$$$
=
 OpenBabel11032419083D

 42 44  0  0  1  0  0  0  0  0999 V2000
  188.4250  177.9320  145.6100 C   0  0  2  0  0  3  0  0  0  0  0  0
  186.9520  178.2200  145.5970 C   0  0  0  0  0  0  0  0  0  0  0  0
  184.9460  178.9930  144.4570 C   0  0  0  0  0  0  0  0  0  0  0  0
  184.2070  178.7710  145.6310 C   0  0  0  0  0  3  0  0  0  0  0  0
  186.3160  178.7160  144.4480 C   0  0  0  0  0  3  0  0  0  0  0  0
  184.8370  178.2810  146.7780 C   0  0  0  0  0  3  0  0  0  0  0  0
  186.2070  178.0070  146.7600 C   0  0  0  0  0  3  0  0  0  0  0  0
  184.3480  179.4860  143.2920 O   0  0  0  0  0  0  0  0  0  0  0  0
  183.8090  177.9950  141.2610 C   0  0  0  0  0  0  0  0  0  0  0  0
  184.0620  178.6920  142.2120 C   0  0  0  0  0  0  0  0  0  0  0  0
  183.4370  176.9770  139.8710 S   0  0  0  0  0  0  0  0  0  0  0  0
  183.2810  178.4190  138.7790 C   0  0  0  0  0  2  0  0  0  0  0  0
  184.5640  179.1840  138.7590 C   0  0  0  0  0  0  0  0  0  0  0  0
  184.5390  180.4210  138.9910 O   0  0  0  0  0  0  0  0  0  0  0  0
  185.7950  178.5640  138.5040 O   0  0  0  0  0  0  0  0  0  0  0  0
  187.2530  179.2880  136.8460 O   0  0  0  0  0  1  0  0  0  0  0  0
  186.3220  178.3080  137.2010 C   0  0  1  0  0  3  0  0  0  0  0  0
  186.9060  176.9290  137.1050 C   0  0  0  0  0  0  0  0  0  0  0  0
  186.8130  176.2250  135.9110 O   0  0  0  0  0  0  0  0  0  0  0  0
  187.4930  176.4080  138.0900 O   0  0  0  0  0  1  0  0  0  0  0  0
  190.9600  177.2360  142.1780 C   0  0  2  0  0  3  0  0  0  0  0  0
  189.5970  176.5440  142.1820 C   0  0  0  0  0  2  0  0  0  0  0  0
  190.8310  178.6080  142.8350 C   0  0  0  0  0  2  0  0  0  0  0  0
  190.3700  178.4630  144.2130 N   0  0  0  0  0  2  0  0  0  0  0  0
  189.0390  176.4880  143.6000 C   0  0  0  0  0  2  0  0  0  0  0  0
  189.0190  177.9000  144.2000 C   0  0  1  0  0  3  0  0  0  0  0  0
  191.4320  177.3940  140.8140 N   0  0  0  0  0  2  0  0  0  0  0  0
  191.3690  176.3960  138.6750 C   0  0  0  0  0  0  0  0  0  0  0  0
  190.7210  176.8180  139.7230 C   0  0  0  0  0  3  0  0  0  0  0  0
  192.0180  175.9750  137.6260 C   0  0  0  0  0  3  0  0  0  0  0  0
  193.4990  175.8340  137.6760 C   0  0  0  0  0  2  0  0  0  0  0  0
  194.9500  172.7150  136.7670 C   0  0  0  0  0  2  0  0  0  0  0  0
  193.5320  172.5610  136.2770 C   0  0  0  0  0  2  0  0  0  0  0  0
  193.9390  174.8890  136.6620 N   0  0  0  0  0  0  0  0  0  0  0  0
  192.8790  173.9050  136.5140 C   0  0  0  0  0  2  0  0  0  0  0  0
  195.0690  174.1560  137.2140 C   0  0  0  0  0  2  0  0  0  0  0  0
  188.7790  176.6920  146.4350 C   0  0  0  0  0  2  0  0  0  0  0  0
  191.5200  176.0270  146.0110 O   0  0  0  0  0  0  0  0  0  0  0  0
  191.2260  176.6290  147.0810 C   0  0  0  0  0  0  0  0  0  0  0  0
  189.8700  176.9830  147.3580 N   0  0  0  0  0  2  0  0  0  0  0  0
  192.9890  175.9520  148.6560 C   0  0  0  0  0  1  0  0  0  0  0  0
  192.2160  176.9510  148.0080 O   0  0  0  0  0  0  0  0  0  0  0  0
  1 37  1  6  0  0  0
  2  1  1  0  0  0  0
  2  7  1  0  0  0  0
  3  4  2  0  0  0  0
  4  6  1  0  0  0  0
  5  3  1  0  0  0  0
  5  2  2  0  0  0  0
  7  6  2  0  0  0  0
  8  3  1  0  0  0  0
  9 10  3  0  0  0  0
 10  8  1  0  0  0  0
 11  9  1  0  0  0  0
 12 11  1  0  0  0  0
 13 12  1  0  0  0  0
 13 14  2  0  0  0  0
 15 13  1  0  0  0  0
 17 16  1  1  0  0  0
 17 15  1  0  0  0  0
 18 17  1  0  0  0  0
 18 20  1  0  0  0  0
 19 18  2  0  0  0  0
 21 27  1  6  0  0  0
 21 22  1  0  0  0  0
 21 23  1  0  0  0  0
 22 25  1  0  0  0  0
 23 24  1  0  0  0  0
 25 26  1  0  0  0  0
 26 24  1  0  0  0  0
 26  1  1  1  0  0  0
 28 29  2  0  0  0  0
 29 27  1  0  0  0  0
 30 31  1  0  0  0  0
 30 28  2  0  0  0  0
 32 36  1  0  0  0  0
 33 35  1  0  0  0  0
 33 32  1  0  0  0  0
 34 36  1  0  0  0  0
 34 31  1  0  0  0  0
 35 34  1  0  0  0  0
 37 40  1  0  0  0  0
 38 39  2  0  0  0  0
 39 40  1  0  0  0  0
 39 42  1  0  0  0  0
 42 41  1  0  0  0  0
M  END
>  <MODEL>
4

>  <REMARK>
 VINA RESULT:      -7.5      4.104      7.619
  Name = 
  17 active torsions:
  status: ('A' for Active; 'I' for Inactive)
    1  A    between atoms: C_4  and  S_42
    2  A    between atoms: O_5  and  C_12
    3  A    between atoms: O_5  and  C_14
    4  A    between atoms: C_6  and  C_8
    5  A    between atoms: C_8  and  C_35
    6  A    between atoms: C_8  and  C_40
    7  A    between atoms: C_9  and  N_16
    8  A    between atoms: N_10  and  C_11
    9  A    between atoms: C_11  and  C_38
   10  A    between atoms: C_13  and  C_32
   11  A    between atoms: C_13  and  O_37
   12  A    between atoms: N_16  and  C_31
   13  A    between atoms: C_18  and  C_26
   14  A    between atoms: C_26  and  O_37
   15  A    between atoms: C_29  and  O_34
   16  A    between atoms: C_32  and  S_42
   17  A    between atoms: C_35  and  N_41
                            x       y       z     vdW  Elec       q    Type
                         _______ _______ _______ _____ _____    ______ ____

>  <TORSDO>
F 17

$$$$
=
 OpenBabel11032419083D

 42 44  0  0  1  0  0  0  0  0999 V2000
  188.7150  177.8050  145.6310 C   0  0  2  0  0  3  0  0  0  0  0  0
  187.2410  178.0900  145.6550 C   0  0  0  0  0  0  0  0  0  0  0  0
  185.1250  178.4510  144.5090 C   0  0  0  0  0  0  0  0  0  0  0  0
  184.5010  178.6540  145.7510 C   0  0  0  0  0  3  0  0  0  0  0  0
  186.4950  178.1720  144.4690 C   0  0  0  0  0  3  0  0  0  0  0  0
  185.2410  178.5770  146.9330 C   0  0  0  0  0  3  0  0  0  0  0  0
  186.6090  178.2970  146.8840 C   0  0  0  0  0  3  0  0  0  0  0  0
  184.4160  178.5240  143.3060 O   0  0  0  0  0  0  0  0  0  0  0  0
  181.8990  179.0640  143.2040 C   0  0  0  0  0  0  0  0  0  0  0  0
  183.0770  178.8110  143.2510 C   0  0  0  0  0  0  0  0  0  0  0  0
  180.1760  179.4300  143.1370 S   0  0  0  0  0  0  0  0  0  0  0  0
  180.0800  178.9590  141.3860 C   0  0  0  0  0  2  0  0  0  0  0  0
  179.8370  180.1690  140.5450 C   0  0  0  0  0  0  0  0  0  0  0  0
  179.7290  181.2900  141.1070 O   0  0  0  0  0  0  0  0  0  0  0  0
  179.7390  180.0950  139.1490 O   0  0  0  0  0  0  0  0  0  0  0  0
  182.0280  180.3370  138.8290 O   0  0  0  0  0  1  0  0  0  0  0  0
  180.7700  180.4850  138.2390 C   0  0  1  0  0  3  0  0  0  0  0  0
  180.6730  179.7340  136.9440 C   0  0  0  0  0  0  0  0  0  0  0  0
  179.6110  179.9810  136.0840 O   0  0  0  0  0  0  0  0  0  0  0  0
  181.5530  178.8940  136.6190 O   0  0  0  0  0  1  0  0  0  0  0  0
  191.2330  177.3150  142.1510 C   0  0  2  0  0  3  0  0  0  0  0  0
  189.9400  176.5020  142.1870 C   0  0  0  0  0  2  0  0  0  0  0  0
  190.9930  178.6750  142.8020 C   0  0  0  0  0  2  0  0  0  0  0  0
  190.5750  178.4990  144.1900 N   0  0  0  0  0  2  0  0  0  0  0  0
  189.4170  176.4070  143.6170 C   0  0  0  0  0  2  0  0  0  0  0  0
  189.2810  177.8160  144.2080 C   0  0  1  0  0  3  0  0  0  0  0  0
  191.6610  177.5050  140.7760 N   0  0  0  0  0  2  0  0  0  0  0  0
  190.3420  176.9680  138.8930 C   0  0  0  0  0  0  0  0  0  0  0  0
  191.2510  176.6050  139.7520 C   0  0  0  0  0  3  0  0  0  0  0  0
  189.4330  177.3320  138.0330 C   0  0  0  0  0  3  0  0  0  0  0  0
  189.0290  178.7620  137.9400 C   0  0  0  0  0  2  0  0  0  0  0  0
  186.4480  177.3930  135.9090 C   0  0  0  0  0  2  0  0  0  0  0  0
  185.7900  177.4500  137.2650 C   0  0  0  0  0  2  0  0  0  0  0  0
  187.7210  178.8650  137.3140 N   0  0  0  0  0  0  0  0  0  0  0  0
  186.7880  178.1440  138.1650 C   0  0  0  0  0  2  0  0  0  0  0  0
  187.7730  178.1060  136.0730 C   0  0  0  0  0  2  0  0  0  0  0  0
  189.0890  176.5430  146.4120 C   0  0  0  0  0  2  0  0  0  0  0  0
  191.8840  176.0920  146.0760 O   0  0  0  0  0  0  0  0  0  0  0  0
  191.5030  176.5940  147.1700 C   0  0  0  0  0  0  0  0  0  0  0  0
  190.1140  176.8370  147.4040 N   0  0  0  0  0  2  0  0  0  0  0  0
  193.0850  175.9100  148.9250 C   0  0  0  0  0  1  0  0  0  0  0  0
  192.4270  176.9120  148.1650 O   0  0  0  0  0  0  0  0  0  0  0  0
  1  2  1  0  0  0  0
  1 37  1  6  0  0  0
  2  7  1  0  0  0  0
  3  4  2  0  0  0  0
  4  6  1  0  0  0  0
  5  3  1  0  0  0  0
  5  2  2  0  0  0  0
  7  6  2  0  0  0  0
  8  3  1  0  0  0  0
  9 10  3  0  0  0  0
 10  8  1  0  0  0  0
 11  9  1  0  0  0  0
 12 11  1  0  0  0  0
 13 14  2  0  0  0  0
 13 12  1  0  0  0  0
 15 13  1  0  0  0  0
 17 16  1  1  0  0  0
 17 15  1  0  0  0  0
 18 17  1  0  0  0  0
 19 18  2  0  0  0  0
 20 18  1  0  0  0  0
 21 27  1  6  0  0  0
 21 22  1  0  0  0  0
 21 23  1  0  0  0  0
 22 25  1  0  0  0  0
 23 24  1  0  0  0  0
 24 26  1  0  0  0  0
 25 26  1  0  0  0  0
 26  1  1  1  0  0  0
 28 29  2  0  0  0  0
 29 27  1  0  0  0  0
 30 28  2  0  0  0  0
 31 30  1  0  0  0  0
 32 36  1  0  0  0  0
 32 33  1  0  0  0  0
 33 35  1  0  0  0  0
 34 31  1  0  0  0  0
 34 35  1  0  0  0  0
 36 34  1  0  0  0  0
 37 40  1  0  0  0  0
 38 39  2  0  0  0  0
 39 40  1  0  0  0  0
 39 42  1  0  0  0  0
 42 41  1  0  0  0  0
M  END
>  <MODEL>
5

>  <REMARK>
 VINA RESULT:      -7.4      3.031      6.626
  Name = 
  17 active torsions:
  status: ('A' for Active; 'I' for Inactive)
    1  A    between atoms: C_4  and  S_42
    2  A    between atoms: O_5  and  C_12
    3  A    between atoms: O_5  and  C_14
    4  A    between atoms: C_6  and  C_8
    5  A    between atoms: C_8  and  C_35
    6  A    between atoms: C_8  and  C_40
    7  A    between atoms: C_9  and  N_16
    8  A    between atoms: N_10  and  C_11
    9  A    between atoms: C_11  and  C_38
   10  A    between atoms: C_13  and  C_32
   11  A    between atoms: C_13  and  O_37
   12  A    between atoms: N_16  and  C_31
   13  A    between atoms: C_18  and  C_26
   14  A    between atoms: C_26  and  O_37
   15  A    between atoms: C_29  and  O_34
   16  A    between atoms: C_32  and  S_42
   17  A    between atoms: C_35  and  N_41
                            x       y       z     vdW  Elec       q    Type
                         _______ _______ _______ _____ _____    ______ ____

>  <TORSDO>
F 17

$$$$
=
 OpenBabel11032419083D

 42 44  0  0  1  0  0  0  0  0999 V2000
  190.4310  177.5450  140.7520 C   0  0  2  0  0  3  0  0  0  0  0  0
  191.3250  177.1470  139.6140 C   0  0  0  0  0  0  0  0  0  0  0  0
  191.6440  176.3630  137.3330 C   0  0  0  0  0  0  0  0  0  0  0  0
  193.0340  176.3810  137.5330 C   0  0  0  0  0  3  0  0  0  0  0  0
  190.7970  176.7460  138.3780 C   0  0  0  0  0  3  0  0  0  0  0  0
  193.5640  176.7760  138.7640 C   0  0  0  0  0  3  0  0  0  0  0  0
  192.7100  177.1570  139.8030 C   0  0  0  0  0  3  0  0  0  0  0  0
  191.0790  175.9710  136.1150 O   0  0  0  0  0  0  0  0  0  0  0  0
  188.7270  176.7090  135.3650 C   0  0  0  0  0  0  0  0  0  0  0  0
  189.8280  176.3630  135.7160 C   0  0  0  0  0  0  0  0  0  0  0  0
  187.1190  177.2180  134.8540 S   0  0  0  0  0  0  0  0  0  0  0  0
  186.4030  175.6070  135.2880 C   0  0  0  0  0  2  0  0  0  0  0  0
  185.3460  175.7830  136.3280 C   0  0  0  0  0  0  0  0  0  0  0  0
  185.5340  176.6130  137.2550 O   0  0  0  0  0  0  0  0  0  0  0  0
  184.1450  175.0610  136.2940 O   0  0  0  0  0  0  0  0  0  0  0  0
  182.3130  173.9370  137.1790 O   0  0  0  0  0  1  0  0  0  0  0  0
  183.6730  174.2170  137.3460 C   0  0  1  0  0  3  0  0  0  0  0  0
  184.4880  172.9620  137.4530 C   0  0  0  0  0  0  0  0  0  0  0  0
  185.7850  173.0250  137.9440 O   0  0  0  0  0  1  0  0  0  0  0  0
  184.0040  171.8490  137.1150 O   0  0  0  0  0  0  0  0  0  0  0  0
  191.1530  177.0100  144.9810 C   0  0  2  0  0  3  0  0  0  0  0  0
  191.2650  175.7680  144.0990 C   0  0  0  0  0  2  0  0  0  0  0  0
  191.6680  178.2240  144.2100 C   0  0  0  0  0  2  0  0  0  0  0  0
  190.8750  178.4220  143.0000 N   0  0  0  0  0  2  0  0  0  0  0  0
  190.5440  175.9950  142.7750 C   0  0  0  0  0  2  0  0  0  0  0  0
  191.0760  177.2740  142.1140 C   0  0  1  0  0  3  0  0  0  0  0  0
  191.9410  176.8340  146.1890 N   0  0  0  0  0  2  0  0  0  0  0  0
  190.2290  177.0250  147.8040 C   0  0  0  0  0  0  0  0  0  0  0  0
  191.3260  176.4410  147.4110 C   0  0  0  0  0  3  0  0  0  0  0  0
  189.1330  177.6090  148.1970 C   0  0  0  0  0  3  0  0  0  0  0  0
  188.3730  178.4760  147.2540 C   0  0  0  0  0  2  0  0  0  0  0  0
  185.2040  178.3410  145.6440 C   0  0  0  0  0  2  0  0  0  0  0  0
  186.1330  177.8640  144.5570 C   0  0  0  0  0  2  0  0  0  0  0  0
  187.2940  177.7170  146.6470 N   0  0  0  0  0  0  0  0  0  0  0  0
  187.4960  177.7710  145.2070 C   0  0  0  0  0  2  0  0  0  0  0  0
  186.0590  178.4500  146.8880 C   0  0  0  0  0  2  0  0  0  0  0  0
  189.0210  176.9600  140.6320 C   0  0  0  0  0  2  0  0  0  0  0  0
  187.1140  178.5970  139.2850 O   0  0  0  0  0  0  0  0  0  0  0  0
  187.1110  178.6190  140.5470 C   0  0  0  0  0  0  0  0  0  0  0  0
  188.0470  177.8280  141.2820 N   0  0  0  0  0  2  0  0  0  0  0  0
  184.8580  179.0090  141.4520 C   0  0  0  0  0  1  0  0  0  0  0  0
  186.2020  179.4160  141.2400 O   0  0  0  0  0  0  0  0  0  0  0  0
  1 37  1  1  0  0  0
  2  7  1  0  0  0  0
  2  1  1  0  0  0  0
  3  4  2  0  0  0  0
  3  5  1  0  0  0  0
  4  6  1  0  0  0  0
  5  2  2  0  0  0  0
  6  7  2  0  0  0  0
  8  3  1  0  0  0  0
  9 10  3  0  0  0  0
 10  8  1  0  0  0  0
 11 12  1  0  0  0  0
 11  9  1  0  0  0  0
 12 13  1  0  0  0  0
 13 14  2  0  0  0  0
 15 13  1  0  0  0  0
 15 17  1  0  0  0  0
 17 16  1  6  0  0  0
 17 18  1  0  0  0  0
 18 19  1  0  0  0  0
 20 18  2  0  0  0  0
 21 27  1  1  0  0  0
 22 21  1  0  0  0  0
 23 21  1  0  0  0  0
 24 23  1  0  0  0  0
 25 22  1  0  0  0  0
 26  1  1  6  0  0  0
 26 25  1  0  0  0  0
 26 24  1  0  0  0  0
 27 29  1  0  0  0  0
 28 30  2  0  0  0  0
 29 28  2  0  0  0  0
 31 30  1  0  0  0  0
 32 36  1  0  0  0  0
 33 35  1  0  0  0  0
 33 32  1  0  0  0  0
 34 36  1  0  0  0  0
 34 31  1  0  0  0  0
 35 34  1  0  0  0  0
 37 40  1  0  0  0  0
 38 39  2  0  0  0  0
 39 42  1  0  0  0  0
 39 40  1  0  0  0  0
 42 41  1  0  0  0  0
M  END
>  <MODEL>
6

>  <REMARK>
 VINA RESULT:      -7.2      4.081      7.446
  Name = 
  17 active torsions:
  status: ('A' for Active; 'I' for Inactive)
    1  A    between atoms: C_4  and  S_42
    2  A    between atoms: O_5  and  C_12
    3  A    between atoms: O_5  and  C_14
    4  A    between atoms: C_6  and  C_8
    5  A    between atoms: C_8  and  C_35
    6  A    between atoms: C_8  and  C_40
    7  A    between atoms: C_9  and  N_16
    8  A    between atoms: N_10  and  C_11
    9  A    between atoms: C_11  and  C_38
   10  A    between atoms: C_13  and  C_32
   11  A    between atoms: C_13  and  O_37
   12  A    between atoms: N_16  and  C_31
   13  A    between atoms: C_18  and  C_26
   14  A    between atoms: C_26  and  O_37
   15  A    between atoms: C_29  and  O_34
   16  A    between atoms: C_32  and  S_42
   17  A    between atoms: C_35  and  N_41
                            x       y       z     vdW  Elec       q    Type
                         _______ _______ _______ _____ _____    ______ ____

>  <TORSDO>
F 17

$$$$
=
 OpenBabel11032419083D

 42 44  0  0  1  0  0  0  0  0999 V2000
  184.7350  178.7920  143.8050 C   0  0  2  0  0  3  0  0  0  0  0  0
  183.3700  178.8000  143.1800 C   0  0  0  0  0  0  0  0  0  0  0  0
  181.9210  178.6520  141.2300 C   0  0  0  0  0  0  0  0  0  0  0  0
  180.8050  178.8550  142.0590 C   0  0  0  0  0  3  0  0  0  0  0  0
  183.1990  178.6280  141.7980 C   0  0  0  0  0  3  0  0  0  0  0  0
  180.9710  179.0320  143.4350 C   0  0  0  0  0  3  0  0  0  0  0  0
  182.2510  179.0050  143.9940 C   0  0  0  0  0  3  0  0  0  0  0  0
  181.7920  178.4760  139.8490 O   0  0  0  0  0  0  0  0  0  0  0  0
  182.9780  176.5800  138.5690 C   0  0  0  0  0  0  0  0  0  0  0  0
  182.4230  177.4680  139.1680 C   0  0  0  0  0  0  0  0  0  0  0  0
  183.7920  175.2830  137.6960 S   0  0  0  0  0  0  0  0  0  0  0  0
  184.9350  176.4500  136.9030 C   0  0  0  0  0  2  0  0  0  0  0  0
  186.3100  175.8690  136.8620 C   0  0  0  0  0  0  0  0  0  0  0  0
  186.4770  174.6720  137.2130 O   0  0  0  0  0  0  0  0  0  0  0  0
  187.4170  176.6130  136.4320 O   0  0  0  0  0  0  0  0  0  0  0  0
  189.6770  176.8450  136.9230 O   0  0  0  0  0  1  0  0  0  0  0  0
  188.3820  177.2130  137.2990 C   0  0  1  0  0  3  0  0  0  0  0  0
  188.2220  178.7040  137.3510 C   0  0  0  0  0  0  0  0  0  0  0  0
  187.1330  179.3000  136.7290 O   0  0  0  0  0  0  0  0  0  0  0  0
  189.0560  179.4200  137.9650 O   0  0  0  0  0  1  0  0  0  0  0  0
  188.3840  177.9500  141.6450 C   0  0  2  0  0  3  0  0  0  0  0  0
  187.9200  176.8990  142.6520 C   0  0  0  0  0  2  0  0  0  0  0  0
  187.1650  178.5820  140.9760 C   0  0  0  0  0  2  0  0  0  0  0  0
  186.3180  179.2200  141.9810 N   0  0  0  0  0  2  0  0  0  0  0  0
  186.9370  177.5150  143.6410 C   0  0  0  0  0  2  0  0  0  0  0  0
  185.7910  178.1880  142.8740 C   0  0  1  0  0  3  0  0  0  0  0  0
  189.2240  177.3320  140.6340 N   0  0  0  0  0  2  0  0  0  0  0  0
  191.3440  177.2560  141.6720 C   0  0  0  0  0  0  0  0  0  0  0  0
  190.6310  177.5490  140.6210 C   0  0  0  0  0  3  0  0  0  0  0  0
  192.0550  176.9620  142.7230 C   0  0  0  0  0  3  0  0  0  0  0  0
  191.4620  176.1490  143.8200 C   0  0  0  0  0  2  0  0  0  0  0  0
  190.1620  177.0370  147.0100 C   0  0  0  0  0  2  0  0  0  0  0  0
  191.3710  176.2140  147.3770 C   0  0  0  0  0  2  0  0  0  0  0  0
  191.5790  176.8610  145.0810 N   0  0  0  0  0  0  0  0  0  0  0  0
  192.0560  175.9020  146.0650 C   0  0  0  0  0  2  0  0  0  0  0  0
  190.2320  177.2110  145.5090 C   0  0  0  0  0  2  0  0  0  0  0  0
  184.7440  178.1670  145.2020 C   0  0  0  0  0  2  0  0  0  0  0  0
  186.6200  177.0930  147.0620 O   0  0  0  0  0  0  0  0  0  0  0  0
  186.5020  178.3490  147.0150 C   0  0  0  0  0  0  0  0  0  0  0  0
  185.5730  178.9500  146.1100 N   0  0  0  0  0  2  0  0  0  0  0  0
  188.1950  178.6280  148.7760 C   0  0  0  0  0  1  0  0  0  0  0  0
  187.2690  179.1660  147.8440 O   0  0  0  0  0  0  0  0  0  0  0  0
  1 37  1  1  0  0  0
  2  1  1  0  0  0  0
  2  7  1  0  0  0  0
  3  5  1  0  0  0  0
  3  4  2  0  0  0  0
  4  6  1  0  0  0  0
  5  2  2  0  0  0  0
  6  7  2  0  0  0  0
  8  3  1  0  0  0  0
  9 10  3  0  0  0  0
 10  8  1  0  0  0  0
 11  9  1  0  0  0  0
 12 11  1  0  0  0  0
 13 12  1  0  0  0  0
 13 14  2  0  0  0  0
 15 13  1  0  0  0  0
 15 17  1  0  0  0  0
 17 16  1  6  0  0  0
 17 18  1  0  0  0  0
 18 20  1  0  0  0  0
 19 18  2  0  0  0  0
 21 27  1  6  0  0  0
 21 22  1  0  0  0  0
 22 25  1  0  0  0  0
 23 21  1  0  0  0  0
 23 24  1  0  0  0  0
 24 26  1  0  0  0  0
 26 25  1  0  0  0  0
 26  1  1  1  0  0  0
 28 30  2  0  0  0  0
 29 27  1  0  0  0  0
 29 28  2  0  0  0  0
 30 31  1  0  0  0  0
 31 34  1  0  0  0  0
 32 33  1  0  0  0  0
 34 36  1  0  0  0  0
 34 35  1  0  0  0  0
 35 33  1  0  0  0  0
 36 32  1  0  0  0  0
 37 40  1  0  0  0  0
 39 38  2  0  0  0  0
 39 42  1  0  0  0  0
 40 39  1  0  0  0  0
 42 41  1  0  0  0  0
M  END
>  <MODEL>
7

>  <REMARK>
 VINA RESULT:      -7.2      3.125      6.055
  Name = 
  17 active torsions:
  status: ('A' for Active; 'I' for Inactive)
    1  A    between atoms: C_4  and  S_42
    2  A    between atoms: O_5  and  C_12
    3  A    between atoms: O_5  and  C_14
    4  A    between atoms: C_6  and  C_8
    5  A    between atoms: C_8  and  C_35
    6  A    between atoms: C_8  and  C_40
    7  A    between atoms: C_9  and  N_16
    8  A    between atoms: N_10  and  C_11
    9  A    between atoms: C_11  and  C_38
   10  A    between atoms: C_13  and  C_32
   11  A    between atoms: C_13  and  O_37
   12  A    between atoms: N_16  and  C_31
   13  A    between atoms: C_18  and  C_26
   14  A    between atoms: C_26  and  O_37
   15  A    between atoms: C_29  and  O_34
   16  A    between atoms: C_32  and  S_42
   17  A    between atoms: C_35  and  N_41
                            x       y       z     vdW  Elec       q    Type
                         _______ _______ _______ _____ _____    ______ ____

>  <TORSDO>
F 17

$$$$
=
 OpenBabel11032419083D

 42 44  0  0  1  0  0  0  0  0999 V2000
  190.4910  177.5700  140.5460 C   0  0  2  0  0  3  0  0  0  0  0  0
  191.3260  177.1100  139.3870 C   0  0  0  0  0  0  0  0  0  0  0  0
  191.5330  176.3330  137.0900 C   0  0  0  0  0  0  0  0  0  0  0  0
  192.9230  176.2260  137.2640 C   0  0  0  0  0  3  0  0  0  0  0  0
  190.7420  176.7740  138.1560 C   0  0  0  0  0  3  0  0  0  0  0  0
  193.5080  176.5550  138.4890 C   0  0  0  0  0  3  0  0  0  0  0  0
  192.7100  176.9950  139.5480 C   0  0  0  0  0  3  0  0  0  0  0  0
  190.9140  176.0080  135.8780 O   0  0  0  0  0  0  0  0  0  0  0  0
  188.3570  175.8200  135.6240 C   0  0  0  0  0  0  0  0  0  0  0  0
  189.5530  175.9080  135.7440 C   0  0  0  0  0  0  0  0  0  0  0  0
  186.6070  175.6950  135.4490 S   0  0  0  0  0  0  0  0  0  0  0  0
  186.4040  177.4950  135.5660 C   0  0  0  0  0  2  0  0  0  0  0  0
  186.0840  177.8810  136.9730 C   0  0  0  0  0  0  0  0  0  0  0  0
  186.8920  178.6100  137.6050 O   0  0  0  0  0  0  0  0  0  0  0  0
  184.9030  177.4670  137.6060 O   0  0  0  0  0  0  0  0  0  0  0  0
  182.5830  177.4010  137.4920 O   0  0  0  0  0  1  0  0  0  0  0  0
  183.6970  178.2300  137.6570 C   0  0  1  0  0  3  0  0  0  0  0  0
  183.6070  179.0340  138.9200 C   0  0  0  0  0  0  0  0  0  0  0  0
  184.4520  180.1200  139.1040 O   0  0  0  0  0  0  0  0  0  0  0  0
  182.7640  178.7450  139.8100 O   0  0  0  0  0  1  0  0  0  0  0  0
  191.2610  176.8660  144.7420 C   0  0  2  0  0  3  0  0  0  0  0  0
  191.4230  175.6740  143.8010 C   0  0  0  0  0  2  0  0  0  0  0  0
  191.7150  178.1380  144.0290 C   0  0  0  0  0  2  0  0  0  0  0  0
  190.9070  178.3570  142.8320 N   0  0  0  0  0  2  0  0  0  0  0  0
  190.6850  175.9320  142.4920 C   0  0  0  0  0  2  0  0  0  0  0  0
  191.1550  177.2640  141.8920 C   0  0  1  0  0  3  0  0  0  0  0  0
  192.0620  176.6690  145.9370 N   0  0  0  0  0  2  0  0  0  0  0  0
  190.1840  176.7320  147.3680 C   0  0  0  0  0  0  0  0  0  0  0  0
  191.4450  176.4500  147.2020 C   0  0  0  0  0  3  0  0  0  0  0  0
  188.9230  177.0140  147.5330 C   0  0  0  0  0  3  0  0  0  0  0  0
  188.0620  177.2940  146.3510 C   0  0  0  0  0  2  0  0  0  0  0  0
  185.3030  179.4470  146.9890 C   0  0  0  0  0  2  0  0  0  0  0  0
  184.8060  178.6290  145.8240 C   0  0  0  0  0  2  0  0  0  0  0  0
  186.6890  177.4980  146.7780 N   0  0  0  0  0  0  0  0  0  0  0  0
  185.8810  177.5950  145.5720 C   0  0  0  0  0  2  0  0  0  0  0  0
  186.6170  178.8160  147.3940 C   0  0  0  0  0  2  0  0  0  0  0  0
  189.0450  177.0760  140.4690 C   0  0  0  0  0  2  0  0  0  0  0  0
  187.4350  177.3600  142.8060 O   0  0  0  0  0  0  0  0  0  0  0  0
  187.3410  178.2560  141.9220 C   0  0  0  0  0  0  0  0  0  0  0  0
  188.1140  178.1680  140.7240 N   0  0  0  0  0  2  0  0  0  0  0  0
  185.0940  179.1600  142.3480 C   0  0  0  0  0  1  0  0  0  0  0  0
  186.4800  179.3390  142.0990 O   0  0  0  0  0  0  0  0  0  0  0  0
  1 37  1  1  0  0  0
  2  7  1  0  0  0  0
  2  1  1  0  0  0  0
  3  4  2  0  0  0  0
  3  5  1  0  0  0  0
  4  6  1  0  0  0  0
  5  2  2  0  0  0  0
  6  7  2  0  0  0  0
  8  3  1  0  0  0  0
  9 10  3  0  0  0  0
 10  8  1  0  0  0  0
 11 12  1  0  0  0  0
 11  9  1  0  0  0  0
 12 13  1  0  0  0  0
 13 14  2  0  0  0  0
 13 15  1  0  0  0  0
 15 17  1  0  0  0  0
 17 16  1  1  0  0  0
 17 18  1  0  0  0  0
 18 19  2  0  0  0  0
 18 20  1  0  0  0  0
 21 27  1  1  0  0  0
 22 21  1  0  0  0  0
 23 21  1  0  0  0  0
 24 23  1  0  0  0  0
 25 22  1  0  0  0  0
 26  1  1  6  0  0  0
 26 25  1  0  0  0  0
 26 24  1  0  0  0  0
 27 29  1  0  0  0  0
 28 30  2  0  0  0  0
 29 28  2  0  0  0  0
 31 34  1  0  0  0  0
 31 30  1  0  0  0  0
 32 36  1  0  0  0  0
 33 32  1  0  0  0  0
 34 36  1  0  0  0  0
 35 33  1  0  0  0  0
 35 34  1  0  0  0  0
 37 40  1  0  0  0  0
 39 42  1  0  0  0  0
 39 38  2  0  0  0  0
 40 39  1  0  0  0  0
 42 41  1  0  0  0  0
M  END
>  <MODEL>
8

>  <REMARK>
 VINA RESULT:      -7.2      3.307      6.649
  Name = 
  17 active torsions:
  status: ('A' for Active; 'I' for Inactive)
    1  A    between atoms: C_4  and  S_42
    2  A    between atoms: O_5  and  C_12
    3  A    between atoms: O_5  and  C_14
    4  A    between atoms: C_6  and  C_8
    5  A    between atoms: C_8  and  C_35
    6  A    between atoms: C_8  and  C_40
    7  A    between atoms: C_9  and  N_16
    8  A    between atoms: N_10  and  C_11
    9  A    between atoms: C_11  and  C_38
   10  A    between atoms: C_13  and  C_32
   11  A    between atoms: C_13  and  O_37
   12  A    between atoms: N_16  and  C_31
   13  A    between atoms: C_18  and  C_26
   14  A    between atoms: C_26  and  O_37
   15  A    between atoms: C_29  and  O_34
   16  A    between atoms: C_32  and  S_42
   17  A    between atoms: C_35  and  N_41
                            x       y       z     vdW  Elec       q    Type
                         _______ _______ _______ _____ _____    ______ ____

>  <TORSDO>
F 17

$$$$
=
 OpenBabel11032419083D

 42 44  0  0  1  0  0  0  0  0999 V2000
  188.3120  178.2840  140.8550 C   0  0  2  0  0  3  0  0  0  0  0  0
  188.5440  178.0320  139.3940 C   0  0  0  0  0  0  0  0  0  0  0  0
  187.7080  177.7040  137.1320 C   0  0  0  0  0  0  0  0  0  0  0  0
  189.0280  177.5280  136.6820 C   0  0  0  0  0  3  0  0  0  0  0  0
  187.4750  177.9540  138.4880 C   0  0  0  0  0  3  0  0  0  0  0  0
  190.0950  177.6010  137.5810 C   0  0  0  0  0  3  0  0  0  0  0  0
  189.8530  177.8510  138.9340 C   0  0  0  0  0  3  0  0  0  0  0  0
  186.6160  177.6340  136.2600 O   0  0  0  0  0  0  0  0  0  0  0  0
  184.1940  177.3190  137.0800 C   0  0  0  0  0  0  0  0  0  0  0  0
  185.3280  177.4660  136.6970 C   0  0  0  0  0  0  0  0  0  0  0  0
  182.5370  177.1060  137.6400 S   0  0  0  0  0  0  0  0  0  0  0  0
  182.3400  178.8880  137.9290 C   0  0  0  0  0  2  0  0  0  0  0  0
  182.7930  179.2330  139.3100 C   0  0  0  0  0  0  0  0  0  0  0  0
  183.8040  179.9690  139.4540 O   0  0  0  0  0  0  0  0  0  0  0  0
  182.1170  178.7740  140.4490 O   0  0  0  0  0  0  0  0  0  0  0  0
  180.2900  177.8710  141.5640 O   0  0  0  0  0  1  0  0  0  0  0  0
  180.7020  178.8290  140.6330 C   0  0  1  0  0  3  0  0  0  0  0  0
  180.2500  180.2070  141.0180 C   0  0  0  0  0  0  0  0  0  0  0  0
  180.0220  181.1560  140.0300 O   0  0  0  0  0  0  0  0  0  0  0  0
  180.0600  180.5090  142.2260 O   0  0  0  0  0  1  0  0  0  0  0  0
  190.6590  176.8470  144.1890 C   0  0  2  0  0  3  0  0  0  0  0  0
  190.0940  175.7930  143.2370 C   0  0  0  0  0  2  0  0  0  0  0  0
  191.0450  178.0910  143.3930 C   0  0  0  0  0  2  0  0  0  0  0  0
  189.8720  178.6360  142.7150 N   0  0  0  0  0  2  0  0  0  0  0  0
  188.9410  176.3780  142.4290 C   0  0  0  0  0  2  0  0  0  0  0  0
  189.4060  177.6620  141.7280 C   0  0  1  0  0  3  0  0  0  0  0  0
  191.8310  176.3240  144.8700 N   0  0  0  0  0  2  0  0  0  0  0  0
  191.0110  176.6850  147.0550 C   0  0  0  0  0  0  0  0  0  0  0  0
  191.7900  176.0100  146.2570 C   0  0  0  0  0  3  0  0  0  0  0  0
  190.2320  177.3610  147.8510 C   0  0  0  0  0  3  0  0  0  0  0  0
  189.1880  178.2580  147.2840 C   0  0  0  0  0  2  0  0  0  0  0  0
  185.6550  178.2570  146.8640 C   0  0  0  0  0  2  0  0  0  0  0  0
  186.1260  177.5720  145.6060 C   0  0  0  0  0  2  0  0  0  0  0  0
  187.9260  177.5460  147.1850 N   0  0  0  0  0  0  0  0  0  0  0  0
  187.6220  177.4190  145.7680 C   0  0  0  0  0  2  0  0  0  0  0  0
  186.8910  178.4190  147.7220 C   0  0  0  0  0  2  0  0  0  0  0  0
  186.9000  177.9030  141.3060 C   0  0  0  0  0  2  0  0  0  0  0  0
  184.2720  177.8820  142.4120 O   0  0  0  0  0  0  0  0  0  0  0  0
  185.0260  178.8460  142.7230 C   0  0  0  0  0  0  0  0  0  0  0  0
  186.3520  178.9190  142.1950 N   0  0  0  0  0  2  0  0  0  0  0  0
  183.3440  179.7470  144.2730 C   0  0  0  0  0  1  0  0  0  0  0  0
  184.5770  179.8510  143.5780 O   0  0  0  0  0  0  0  0  0  0  0  0
  1 37  1  1  0  0  0
  2  1  1  0  0  0  0
  3  5  1  0  0  0  0
  4  3  2  0  0  0  0
  4  6  1  0  0  0  0
  5  2  2  0  0  0  0
  6  7  2  0  0  0  0
  7  2  1  0  0  0  0
  8 10  1  0  0  0  0
  8  3  1  0  0  0  0
  9 11  1  0  0  0  0
 10  9  3  0  0  0  0
 11 12  1  0  0  0  0
 12 13  1  0  0  0  0
 13 14  2  0  0  0  0
 13 15  1  0  0  0  0
 15 17  1  0  0  0  0
 17 18  1  0  0  0  0
 17 16  1  1  0  0  0
 18 20  1  0  0  0  0
 19 18  2  0  0  0  0
 21 27  1  6  0  0  0
 22 21  1  0  0  0  0
 23 21  1  0  0  0  0
 24 23  1  0  0  0  0
 25 22  1  0  0  0  0
 26  1  1  1  0  0  0
 26 25  1  0  0  0  0
 26 24  1  0  0  0  0
 27 29  1  0  0  0  0
 28 30  2  0  0  0  0
 29 28  2  0  0  0  0
 31 30  1  0  0  0  0
 32 36  1  0  0  0  0
 33 35  1  0  0  0  0
 33 32  1  0  0  0  0
 34 31  1  0  0  0  0
 34 36  1  0  0  0  0
 35 34  1  0  0  0  0
 37 40  1  0  0  0  0
 38 39  2  0  0  0  0
 39 42  1  0  0  0  0
 40 39  1  0  0  0  0
 42 41  1  0  0  0  0
M  END
>  <MODEL>
9

>  <REMARK>
 VINA RESULT:      -7.1      2.431      5.139
  Name = 
  17 active torsions:
  status: ('A' for Active; 'I' for Inactive)
    1  A    between atoms: C_4  and  S_42
    2  A    between atoms: O_5  and  C_12
    3  A    between atoms: O_5  and  C_14
    4  A    between atoms: C_6  and  C_8
    5  A    between atoms: C_8  and  C_35
    6  A    between atoms: C_8  and  C_40
    7  A    between atoms: C_9  and  N_16
    8  A    between atoms: N_10  and  C_11
    9  A    between atoms: C_11  and  C_38
   10  A    between atoms: C_13  and  C_32
   11  A    between atoms: C_13  and  O_37
   12  A    between atoms: N_16  and  C_31
   13  A    between atoms: C_18  and  C_26
   14  A    between atoms: C_26  and  O_37
   15  A    between atoms: C_29  and  O_34
   16  A    between atoms: C_32  and  S_42
   17  A    between atoms: C_35  and  N_41
                            x       y       z     vdW  Elec       q    Type
                         _______ _______ _______ _____ _____    ______ ____

>  <TORSDO>
F 17

$$$$
