=
 OpenBabel11042410253D

 29 30  0  0  1  0  0  0  0  0999 V2000
  188.2730  178.0960  141.8340 C   0  0  0  0  0  0  0  0  0  0  0  0
  190.1240  175.9620  142.4940 C   0  0  0  0  0  2  0  0  0  0  0  0
  187.3580  178.1020  144.1950 C   0  0  2  0  0  3  0  0  0  0  0  0
  187.4200  178.9610  141.4960 O   0  0  0  0  0  0  0  0  0  0  0  0
  189.3430  177.5480  145.8320 C   0  0  1  0  0  3  0  0  0  0  0  0
  189.4660  176.7980  143.5470 C   0  0  0  0  0  0  0  0  0  0  0  0
  189.2520  177.6100  140.8390 C   0  0  0  0  0  0  0  0  0  0  0  0
  188.3280  177.6150  143.1930 N   0  0  0  0  0  0  0  0  0  0  0  0
  189.9120  176.7450  144.7630 N   0  0  0  0  0  0  0  0  0  0  0  0
  190.1270  176.6530  141.1610 C   0  0  0  0  0  3  0  0  0  0  0  0
  187.5520  177.3140  145.8380 S   0  0  0  0  0  0  0  0  0  0  0  0
  189.9160  177.1160  147.1720 C   0  0  0  0  0  2  0  0  0  0  0  0
  191.4330  177.0100  147.1140 C   0  0  0  0  0  2  0  0  0  0  0  0
  191.9040  175.6200  147.5090 C   0  0  0  0  0  3  0  0  0  0  0  0
  192.9160  175.7130  148.4470 F   0  0  0  0  0  0  0  0  0  0  0  0
  192.3760  174.9610  146.3910 F   0  0  0  0  0  0  0  0  0  0  0  0
  189.2960  178.1930  139.4690 C   0  0  0  0  0  2  0  0  0  0  0  0
  189.0890  176.8770  138.2260 S   0  0  0  0  0  0  0  0  0  0  0  0
  187.3170  177.2020  137.8920 C   0  0  1  0  0  3  0  0  0  0  0  0
  185.8440  178.8200  138.4610 O   0  0  0  0  0  1  0  0  0  0  0  0
  187.0300  178.6300  137.8380 N   0  0  0  0  0  2  0  0  0  0  0  0
  186.8220  176.4680  136.6450 C   0  0  1  0  0  3  0  0  0  0  0  0
  187.9770  175.7490  135.9730 C   0  0  0  0  0  1  0  0  0  0  0  0
  185.7710  175.5140  136.9680 N   0  0  0  0  0  2  0  0  0  0  0  0
  186.4040  174.2170  137.1210 C   0  0  0  0  0  1  0  0  0  0  0  0
  185.9270  177.8600  143.7180 C   0  0  0  0  0  2  0  0  0  0  0  0
  185.0530  179.0810  143.9560 C   0  0  0  0  0  2  0  0  0  0  0  0
  182.6040  178.8470  144.2170 C   0  0  0  0  0  1  0  0  0  0  0  0
  183.9370  178.7490  144.9280 C   0  0  0  0  0  2  0  0  0  0  0  0
  1  8  1  0  0  0  0
  2  6  1  0  0  0  0
  3 26  1  6  0  0  0
  3 11  1  0  0  0  0
  4  1  2  0  0  0  0
  5 11  1  0  0  0  0
  5 12  1  1  0  0  0
  6  9  2  0  0  0  0
  7 10  2  0  0  0  0
  7  1  1  0  0  0  0
  8  6  1  0  0  0  0
  8  3  1  0  0  0  0
  9  5  1  0  0  0  0
 10  2  1  0  0  0  0
 13 12  1  0  0  0  0
 13 14  1  0  0  0  0
 14 15  1  0  0  0  0
 16 14  1  0  0  0  0
 17  7  1  0  0  0  0
 18 17  1  0  0  0  0
 19 21  1  6  0  0  0
 19 18  1  0  0  0  0
 21 20  1  0  0  0  0
 22 23  1  1  0  0  0
 22 24  1  0  0  0  0
 22 19  1  0  0  0  0
 24 25  1  0  0  0  0
 26 27  1  0  0  0  0
 27 29  1  0  0  0  0
 28 29  1  0  0  0  0
M  END
>  <MODEL>
1

>  <REMARK>
 VINA RESULT:      -7.1      0.000      0.000
  Name = 
  12 active torsions:
  status: ('A' for Active; 'I' for Inactive)
    1  A    between atoms: C_4  and  C_13
    2  A    between atoms: C_5  and  C_24
    3  A    between atoms: N_7  and  C_21
    4  A    between atoms: C_8  and  C_11
    5  A    between atoms: C_11  and  C_13
    6  A    between atoms: C_14  and  C_21
    7  A    between atoms: C_14  and  S_26
    8  A    between atoms: C_14  and  N_29
    9  A    between atoms: C_15  and  C_19
   10  A    between atoms: C_16  and  C_25
   11  A    between atoms: C_19  and  S_26
   12  A    between atoms: C_24  and  C_25
                            x       y       z     vdW  Elec       q    Type
                         _______ _______ _______ _____ _____    ______ ____

>  <TORSDO>
F 12

$$$$
=
 OpenBabel11042410253D

 29 30  0  0  1  0  0  0  0  0999 V2000
  188.2170  178.2090  141.1960 C   0  0  0  0  0  0  0  0  0  0  0  0
  190.1600  176.2050  141.9890 C   0  0  0  0  0  2  0  0  0  0  0  0
  187.1700  178.1810  143.5010 C   0  0  2  0  0  3  0  0  0  0  0  0
  187.3320  179.0140  140.7980 O   0  0  0  0  0  0  0  0  0  0  0  0
  189.0910  177.7730  145.2540 C   0  0  1  0  0  3  0  0  0  0  0  0
  189.3900  177.0080  142.9910 C   0  0  0  0  0  0  0  0  0  0  0  0
  189.2800  177.7760  140.2640 C   0  0  0  0  0  0  0  0  0  0  0  0
  188.2250  177.7470  142.5620 N   0  0  0  0  0  0  0  0  0  0  0  0
  189.7700  176.9970  144.2300 N   0  0  0  0  0  0  0  0  0  0  0  0
  190.1940  176.8810  140.6480 C   0  0  0  0  0  3  0  0  0  0  0  0
  187.3200  177.4240  145.1640 S   0  0  0  0  0  0  0  0  0  0  0  0
  189.6130  177.3930  146.6300 C   0  0  0  0  0  2  0  0  0  0  0  0
  188.4740  177.0020  147.5620 C   0  0  0  0  0  2  0  0  0  0  0  0
  188.3180  178.0050  148.6930 C   0  0  0  0  0  3  0  0  0  0  0  0
  187.4700  179.0270  148.3040 F   0  0  0  0  0  0  0  0  0  0  0  0
  189.5540  178.5330  149.0110 F   0  0  0  0  0  0  0  0  0  0  0  0
  189.3650  178.3460  138.8900 C   0  0  0  0  0  2  0  0  0  0  0  0
  189.2700  177.0100  137.6550 S   0  0  0  0  0  0  0  0  0  0  0  0
  187.5940  177.4270  137.0460 C   0  0  1  0  0  3  0  0  0  0  0  0
  185.9760  178.7340  137.9330 O   0  0  0  0  0  1  0  0  0  0  0  0
  187.2160  178.7920  137.3940 N   0  0  0  0  0  2  0  0  0  0  0  0
  187.4400  177.1510  135.5490 C   0  0  1  0  0  3  0  0  0  0  0  0
  188.8070  177.0410  134.8990 C   0  0  0  0  0  1  0  0  0  0  0  0
  186.6800  175.9340  135.3060 N   0  0  0  0  0  2  0  0  0  0  0  0
  186.1280  175.5140  136.5810 C   0  0  0  0  0  1  0  0  0  0  0  0
  185.7880  177.8420  142.9480 C   0  0  0  0  0  2  0  0  0  0  0  0
  184.8540  179.0390  143.0300 C   0  0  0  0  0  2  0  0  0  0  0  0
  183.7810  178.9470  145.2580 C   0  0  0  0  0  1  0  0  0  0  0  0
  183.5890  178.6700  143.7820 C   0  0  0  0  0  2  0  0  0  0  0  0
  1  8  1  0  0  0  0
  2  6  1  0  0  0  0
  3 26  1  6  0  0  0
  3 11  1  0  0  0  0
  4  1  2  0  0  0  0
  5 12  1  1  0  0  0
  6  9  2  0  0  0  0
  7 10  2  0  0  0  0
  7  1  1  0  0  0  0
  8  6  1  0  0  0  0
  8  3  1  0  0  0  0
  9  5  1  0  0  0  0
 10  2  1  0  0  0  0
 11  5  1  0  0  0  0
 12 13  1  0  0  0  0
 13 14  1  0  0  0  0
 14 16  1  0  0  0  0
 15 14  1  0  0  0  0
 17  7  1  0  0  0  0
 18 17  1  0  0  0  0
 19 21  1  6  0  0  0
 19 18  1  0  0  0  0
 21 20  1  0  0  0  0
 22 23  1  1  0  0  0
 22 19  1  0  0  0  0
 24 22  1  0  0  0  0
 24 25  1  0  0  0  0
 26 27  1  0  0  0  0
 27 29  1  0  0  0  0
 29 28  1  0  0  0  0
M  END
>  <MODEL>
2

>  <REMARK>
 VINA RESULT:      -7.1      1.751      2.044
  Name = 
  12 active torsions:
  status: ('A' for Active; 'I' for Inactive)
    1  A    between atoms: C_4  and  C_13
    2  A    between atoms: C_5  and  C_24
    3  A    between atoms: N_7  and  C_21
    4  A    between atoms: C_8  and  C_11
    5  A    between atoms: C_11  and  C_13
    6  A    between atoms: C_14  and  C_21
    7  A    between atoms: C_14  and  S_26
    8  A    between atoms: C_14  and  N_29
    9  A    between atoms: C_15  and  C_19
   10  A    between atoms: C_16  and  C_25
   11  A    between atoms: C_19  and  S_26
   12  A    between atoms: C_24  and  C_25
                            x       y       z     vdW  Elec       q    Type
                         _______ _______ _______ _____ _____    ______ ____

>  <TORSDO>
F 12

$$$$
=
 OpenBabel11042410253D

 29 30  0  0  1  0  0  0  0  0999 V2000
  188.1760  178.1530  141.0850 C   0  0  0  0  0  0  0  0  0  0  0  0
  190.1200  176.1790  141.9490 C   0  0  0  0  0  2  0  0  0  0  0  0
  187.1200  178.1960  143.3850 C   0  0  2  0  0  3  0  0  0  0  0  0
  187.2910  178.9430  140.6570 O   0  0  0  0  0  0  0  0  0  0  0  0
  189.0350  177.8490  145.1580 C   0  0  1  0  0  3  0  0  0  0  0  0
  189.3450  177.0120  142.9210 C   0  0  0  0  0  0  0  0  0  0  0  0
  189.2440  177.6930  140.1720 C   0  0  0  0  0  0  0  0  0  0  0  0
  188.1800  177.7340  142.4650 N   0  0  0  0  0  0  0  0  0  0  0  0
  189.7190  177.0420  144.1620 N   0  0  0  0  0  0  0  0  0  0  0  0
  190.1580  176.8120  140.5870 C   0  0  0  0  0  3  0  0  0  0  0  0
  187.2650  177.4930  145.0720 S   0  0  0  0  0  0  0  0  0  0  0  0
  189.5520  177.5140  146.5480 C   0  0  0  0  0  2  0  0  0  0  0  0
  188.4190  177.0800  147.4670 C   0  0  0  0  0  2  0  0  0  0  0  0
  188.3200  177.9860  148.6850 C   0  0  0  0  0  3  0  0  0  0  0  0
  187.4470  179.0280  148.4280 F   0  0  0  0  0  0  0  0  0  0  0  0
  189.5690  178.4970  148.9770 F   0  0  0  0  0  0  0  0  0  0  0  0
  189.3320  178.2190  138.7800 C   0  0  0  0  0  2  0  0  0  0  0  0
  190.3460  177.1040  137.7570 S   0  0  0  0  0  0  0  0  0  0  0  0
  188.9460  176.1410  137.0730 C   0  0  1  0  0  3  0  0  0  0  0  0
  189.6410  177.3320  135.2820 O   0  0  0  0  0  1  0  0  0  0  0  0
  188.6280  176.5430  135.7080 N   0  0  0  0  0  2  0  0  0  0  0  0
  189.1730  174.6330  137.1920 C   0  0  1  0  0  3  0  0  0  0  0  0
  188.8880  173.9600  135.8610 C   0  0  0  0  0  1  0  0  0  0  0  0
  190.5310  174.3280  137.6170 N   0  0  0  0  0  2  0  0  0  0  0  0
  191.1560  173.5780  136.5420 C   0  0  0  0  0  1  0  0  0  0  0  0
  185.7410  177.8370  142.8380 C   0  0  0  0  0  2  0  0  0  0  0  0
  184.7920  179.0230  142.9150 C   0  0  0  0  0  2  0  0  0  0  0  0
  183.7400  178.9830  145.1540 C   0  0  0  0  0  1  0  0  0  0  0  0
  183.5430  178.6490  143.6910 C   0  0  0  0  0  2  0  0  0  0  0  0
  1  8  1  0  0  0  0
  2  6  1  0  0  0  0
  3 26  1  6  0  0  0
  3 11  1  0  0  0  0
  4  1  2  0  0  0  0
  5 12  1  1  0  0  0
  6  9  2  0  0  0  0
  7 10  2  0  0  0  0
  7  1  1  0  0  0  0
  8  6  1  0  0  0  0
  8  3  1  0  0  0  0
  9  5  1  0  0  0  0
 10  2  1  0  0  0  0
 11  5  1  0  0  0  0
 12 13  1  0  0  0  0
 13 14  1  0  0  0  0
 14 16  1  0  0  0  0
 15 14  1  0  0  0  0
 17  7  1  0  0  0  0
 18 17  1  0  0  0  0
 19 21  1  6  0  0  0
 19 22  1  0  0  0  0
 19 18  1  0  0  0  0
 20 21  1  0  0  0  0
 22 23  1  6  0  0  0
 22 24  1  0  0  0  0
 25 24  1  0  0  0  0
 26 27  1  0  0  0  0
 27 29  1  0  0  0  0
 29 28  1  0  0  0  0
M  END
>  <MODEL>
3

>  <REMARK>
 VINA RESULT:      -6.9      2.407      2.727
  Name = 
  12 active torsions:
  status: ('A' for Active; 'I' for Inactive)
    1  A    between atoms: C_4  and  C_13
    2  A    between atoms: C_5  and  C_24
    3  A    between atoms: N_7  and  C_21
    4  A    between atoms: C_8  and  C_11
    5  A    between atoms: C_11  and  C_13
    6  A    between atoms: C_14  and  C_21
    7  A    between atoms: C_14  and  S_26
    8  A    between atoms: C_14  and  N_29
    9  A    between atoms: C_15  and  C_19
   10  A    between atoms: C_16  and  C_25
   11  A    between atoms: C_19  and  S_26
   12  A    between atoms: C_24  and  C_25
                            x       y       z     vdW  Elec       q    Type
                         _______ _______ _______ _____ _____    ______ ____

>  <TORSDO>
F 12

$$$$
=
 OpenBabel11042410253D

 29 30  0  0  1  0  0  0  0  0999 V2000
  188.0770  178.1080  142.1140 C   0  0  0  0  0  0  0  0  0  0  0  0
  189.9510  175.9640  142.6740 C   0  0  0  0  0  2  0  0  0  0  0  0
  187.2960  178.1240  144.5220 C   0  0  2  0  0  3  0  0  0  0  0  0
  187.2110  178.9770  141.8210 O   0  0  0  0  0  0  0  0  0  0  0  0
  189.3680  177.5630  146.0450 C   0  0  1  0  0  3  0  0  0  0  0  0
  189.3570  176.8070  143.7590 C   0  0  0  0  0  0  0  0  0  0  0  0
  188.9950  177.6140  141.0660 C   0  0  0  0  0  0  0  0  0  0  0  0
  188.2060  177.6290  143.4690 N   0  0  0  0  0  0  0  0  0  0  0  0
  189.8720  176.7550  144.9480 N   0  0  0  0  0  0  0  0  0  0  0  0
  189.8810  176.6530  141.3400 C   0  0  0  0  0  3  0  0  0  0  0  0
  187.5790  177.3380  146.1540 S   0  0  0  0  0  0  0  0  0  0  0  0
  190.0130  177.1310  147.3520 C   0  0  0  0  0  2  0  0  0  0  0  0
  191.5210  176.9850  147.2000 C   0  0  0  0  0  2  0  0  0  0  0  0
  191.9790  175.5830  147.5690 C   0  0  0  0  0  3  0  0  0  0  0  0
  193.0220  175.6500  148.4740 F   0  0  0  0  0  0  0  0  0  0  0  0
  192.4030  174.9270  146.4300 F   0  0  0  0  0  0  0  0  0  0  0  0
  188.9640  178.1930  139.6940 C   0  0  0  0  0  2  0  0  0  0  0  0
  188.0500  177.0870  138.5720 S   0  0  0  0  0  0  0  0  0  0  0  0
  188.8940  177.6250  137.0380 C   0  0  1  0  0  3  0  0  0  0  0  0
  187.8410  179.6200  136.8840 O   0  0  0  0  0  1  0  0  0  0  0  0
  189.0730  179.0720  136.9970 N   0  0  0  0  0  2  0  0  0  0  0  0
  190.2090  176.8760  136.8110 C   0  0  1  0  0  3  0  0  0  0  0  0
  190.2230  175.5960  137.6260 C   0  0  0  0  0  1  0  0  0  0  0  0
  190.4110  176.5660  135.4030 N   0  0  0  0  0  2  0  0  0  0  0  0
  191.3680  175.4760  135.3400 C   0  0  0  0  0  1  0  0  0  0  0  0
  185.8400  177.8880  144.1270 C   0  0  0  0  0  2  0  0  0  0  0  0
  184.8910  178.6400  145.0480 C   0  0  0  0  0  2  0  0  0  0  0  0
  183.8070  178.7240  142.8260 C   0  0  0  0  0  1  0  0  0  0  0  0
  183.7340  179.2170  144.2560 C   0  0  0  0  0  2  0  0  0  0  0  0
  1  8  1  0  0  0  0
  2  6  1  0  0  0  0
  3 26  1  6  0  0  0
  3 11  1  0  0  0  0
  4  1  2  0  0  0  0
  5 11  1  0  0  0  0
  5 12  1  1  0  0  0
  6  9  2  0  0  0  0
  7 10  2  0  0  0  0
  7  1  1  0  0  0  0
  8  6  1  0  0  0  0
  8  3  1  0  0  0  0
  9  5  1  0  0  0  0
 10  2  1  0  0  0  0
 13 12  1  0  0  0  0
 13 14  1  0  0  0  0
 14 15  1  0  0  0  0
 16 14  1  0  0  0  0
 17  7  1  0  0  0  0
 18 17  1  0  0  0  0
 19 21  1  1  0  0  0
 19 18  1  0  0  0  0
 20 21  1  0  0  0  0
 22 19  1  0  0  0  0
 22 23  1  1  0  0  0
 24 22  1  0  0  0  0
 25 24  1  0  0  0  0
 26 27  1  0  0  0  0
 28 29  1  0  0  0  0
 29 27  1  0  0  0  0
M  END
>  <MODEL>
4

>  <REMARK>
 VINA RESULT:      -6.8      1.591      1.836
  Name = 
  12 active torsions:
  status: ('A' for Active; 'I' for Inactive)
    1  A    between atoms: C_4  and  C_13
    2  A    between atoms: C_5  and  C_24
    3  A    between atoms: N_7  and  C_21
    4  A    between atoms: C_8  and  C_11
    5  A    between atoms: C_11  and  C_13
    6  A    between atoms: C_14  and  C_21
    7  A    between atoms: C_14  and  S_26
    8  A    between atoms: C_14  and  N_29
    9  A    between atoms: C_15  and  C_19
   10  A    between atoms: C_16  and  C_25
   11  A    between atoms: C_19  and  S_26
   12  A    between atoms: C_24  and  C_25
                            x       y       z     vdW  Elec       q    Type
                         _______ _______ _______ _____ _____    ______ ____

>  <TORSDO>
F 12

$$$$
=
 OpenBabel11042410253D

 29 30  0  0  1  0  0  0  0  0999 V2000
  186.7330  178.5770  141.8760 C   0  0  0  0  0  0  0  0  0  0  0  0
  188.2160  176.4750  143.2170 C   0  0  0  0  0  2  0  0  0  0  0  0
  185.2560  178.9020  143.9060 C   0  0  2  0  0  3  0  0  0  0  0  0
  186.0510  179.4240  141.2370 O   0  0  0  0  0  0  0  0  0  0  0  0
  186.7270  178.4820  146.0490 C   0  0  1  0  0  3  0  0  0  0  0  0
  187.3700  177.4550  143.9680 C   0  0  0  0  0  0  0  0  0  0  0  0
  187.8970  177.9390  141.2250 C   0  0  0  0  0  0  0  0  0  0  0  0
  186.4130  178.2630  143.2470 N   0  0  0  0  0  0  0  0  0  0  0  0
  187.4930  177.5350  145.2560 N   0  0  0  0  0  0  0  0  0  0  0  0
  188.5980  176.9980  141.8620 C   0  0  0  0  0  3  0  0  0  0  0  0
  184.9790  178.3130  145.6200 S   0  0  0  0  0  0  0  0  0  0  0  0
  186.9150  178.1970  147.5300 C   0  0  0  0  0  2  0  0  0  0  0  0
  188.0350  177.1920  147.7590 C   0  0  0  0  0  2  0  0  0  0  0  0
  189.3930  177.8760  147.7810 C   0  0  0  0  0  3  0  0  0  0  0  0
  190.3930  176.9450  147.5680 F   0  0  0  0  0  0  0  0  0  0  0  0
  189.5820  178.4790  149.0090 F   0  0  0  0  0  0  0  0  0  0  0  0
  188.3210  178.3490  139.8570 C   0  0  0  0  0  2  0  0  0  0  0  0
  189.9250  177.5880  139.4480 S   0  0  0  0  0  0  0  0  0  0  0  0
  189.4830  177.1080  137.7370 C   0  0  1  0  0  3  0  0  0  0  0  0
  190.6570  175.3200  138.4700 O   0  0  0  0  0  1  0  0  0  0  0  0
  190.0940  175.8400  137.3550 N   0  0  0  0  0  2  0  0  0  0  0  0
  187.9700  177.1090  137.5110 C   0  0  1  0  0  3  0  0  0  0  0  0
  187.6310  177.9100  136.2670 C   0  0  0  0  0  1  0  0  0  0  0  0
  187.4480  175.7560  137.3820 N   0  0  0  0  0  2  0  0  0  0  0  0
  186.0650  175.8710  136.9540 C   0  0  0  0  0  1  0  0  0  0  0  0
  183.9790  178.6530  143.1070 C   0  0  0  0  0  2  0  0  0  0  0  0
  182.7420  178.9490  143.9400 C   0  0  0  0  0  2  0  0  0  0  0  0
  181.9060  178.7090  141.6230 C   0  0  0  0  0  1  0  0  0  0  0  0
  181.5080  178.9870  143.0580 C   0  0  0  0  0  2  0  0  0  0  0  0
  1  8  1  0  0  0  0
  2  6  1  0  0  0  0
  3 26  1  6  0  0  0
  3 11  1  0  0  0  0
  4  1  2  0  0  0  0
  5 12  1  1  0  0  0
  6  9  2  0  0  0  0
  7 10  2  0  0  0  0
  7  1  1  0  0  0  0
  8  3  1  0  0  0  0
  8  6  1  0  0  0  0
  9  5  1  0  0  0  0
 10  2  1  0  0  0  0
 11  5  1  0  0  0  0
 12 13  1  0  0  0  0
 13 14  1  0  0  0  0
 14 16  1  0  0  0  0
 15 14  1  0  0  0  0
 17  7  1  0  0  0  0
 18 17  1  0  0  0  0
 19 21  1  1  0  0  0
 19 18  1  0  0  0  0
 21 20  1  0  0  0  0
 22 23  1  6  0  0  0
 22 19  1  0  0  0  0
 24 22  1  0  0  0  0
 25 24  1  0  0  0  0
 26 27  1  0  0  0  0
 28 29  1  0  0  0  0
 29 27  1  0  0  0  0
M  END
>  <MODEL>
5

>  <REMARK>
 VINA RESULT:      -6.8      2.270      2.764
  Name = 
  12 active torsions:
  status: ('A' for Active; 'I' for Inactive)
    1  A    between atoms: C_4  and  C_13
    2  A    between atoms: C_5  and  C_24
    3  A    between atoms: N_7  and  C_21
    4  A    between atoms: C_8  and  C_11
    5  A    between atoms: C_11  and  C_13
    6  A    between atoms: C_14  and  C_21
    7  A    between atoms: C_14  and  S_26
    8  A    between atoms: C_14  and  N_29
    9  A    between atoms: C_15  and  C_19
   10  A    between atoms: C_16  and  C_25
   11  A    between atoms: C_19  and  S_26
   12  A    between atoms: C_24  and  C_25
                            x       y       z     vdW  Elec       q    Type
                         _______ _______ _______ _____ _____    ______ ____

>  <TORSDO>
F 12

$$$$
=
 OpenBabel11042410253D

 29 30  0  0  1  0  0  0  0  0999 V2000
  189.6050  176.7120  142.2170 C   0  0  0  0  0  0  0  0  0  0  0  0
  187.9230  178.8950  141.3090 C   0  0  0  0  0  2  0  0  0  0  0  0
  188.6910  176.9180  144.5690 C   0  0  2  0  0  3  0  0  0  0  0  0
  190.4100  175.8210  142.6020 O   0  0  0  0  0  0  0  0  0  0  0  0
  186.1580  177.6140  144.3920 C   0  0  1  0  0  3  0  0  0  0  0  0
  187.6500  178.1570  142.5820 C   0  0  0  0  0  0  0  0  0  0  0  0
  189.5820  177.1070  140.7930 C   0  0  0  0  0  0  0  0  0  0  0  0
  188.6780  177.3130  143.1460 N   0  0  0  0  0  0  0  0  0  0  0  0
  186.5060  178.3170  143.1690 N   0  0  0  0  0  0  0  0  0  0  0  0
  188.7780  178.0870  140.3740 C   0  0  0  0  0  3  0  0  0  0  0  0
  187.4880  177.8500  145.5920 S   0  0  0  0  0  0  0  0  0  0  0  0
  184.8600  178.1630  144.9610 C   0  0  0  0  0  2  0  0  0  0  0  0
  184.4310  179.4280  144.2310 C   0  0  0  0  0  2  0  0  0  0  0  0
  183.1160  179.2220  143.4960 C   0  0  0  0  0  3  0  0  0  0  0  0
  182.1390  178.8070  144.3840 F   0  0  0  0  0  0  0  0  0  0  0  0
  183.2840  178.2600  142.5190 F   0  0  0  0  0  0  0  0  0  0  0  0
  190.4370  176.4030  139.7960 C   0  0  0  0  0  2  0  0  0  0  0  0
  190.2280  177.1600  138.1520 S   0  0  0  0  0  0  0  0  0  0  0  0
  190.3040  175.5940  137.2060 C   0  0  1  0  0  3  0  0  0  0  0  0
  192.2550  174.5280  137.6180 O   0  0  0  0  0  1  0  0  0  0  0  0
  190.9480  174.5310  137.9690 N   0  0  0  0  0  2  0  0  0  0  0  0
  188.9310  175.1720  136.6780 C   0  0  1  0  0  3  0  0  0  0  0  0
  188.7660  173.6690  136.8050 C   0  0  0  0  0  1  0  0  0  0  0  0
  187.8550  175.8480  137.3880 N   0  0  0  0  0  2  0  0  0  0  0  0
  187.0760  176.5680  136.3970 C   0  0  0  0  0  1  0  0  0  0  0  0
  190.0810  177.1190  145.1690 C   0  0  0  0  0  2  0  0  0  0  0  0
  190.0080  177.3010  146.6770 C   0  0  0  0  0  2  0  0  0  0  0  0
  192.0580  175.9670  146.3000 C   0  0  0  0  0  1  0  0  0  0  0  0
  191.2260  176.6860  147.3410 C   0  0  0  0  0  2  0  0  0  0  0  0
  1  4  2  0  0  0  0
  1  8  1  0  0  0  0
  2  6  1  0  0  0  0
  3 26  1  1  0  0  0
  3 11  1  0  0  0  0
  5 12  1  1  0  0  0
  5 11  1  0  0  0  0
  6  8  1  0  0  0  0
  6  9  2  0  0  0  0
  7  1  1  0  0  0  0
  8  3  1  0  0  0  0
  9  5  1  0  0  0  0
 10  7  2  0  0  0  0
 10  2  1  0  0  0  0
 13 12  1  0  0  0  0
 14 13  1  0  0  0  0
 14 15  1  0  0  0  0
 16 14  1  0  0  0  0
 17  7  1  0  0  0  0
 18 17  1  0  0  0  0
 19 21  1  1  0  0  0
 19 18  1  0  0  0  0
 20 21  1  0  0  0  0
 22 23  1  1  0  0  0
 22 19  1  0  0  0  0
 22 24  1  0  0  0  0
 25 24  1  0  0  0  0
 26 27  1  0  0  0  0
 27 29  1  0  0  0  0
 28 29  1  0  0  0  0
M  END
>  <MODEL>
6

>  <REMARK>
 VINA RESULT:      -6.5      3.610      5.533
  Name = 
  12 active torsions:
  status: ('A' for Active; 'I' for Inactive)
    1  A    between atoms: C_4  and  C_13
    2  A    between atoms: C_5  and  C_24
    3  A    between atoms: N_7  and  C_21
    4  A    between atoms: C_8  and  C_11
    5  A    between atoms: C_11  and  C_13
    6  A    between atoms: C_14  and  C_21
    7  A    between atoms: C_14  and  S_26
    8  A    between atoms: C_14  and  N_29
    9  A    between atoms: C_15  and  C_19
   10  A    between atoms: C_16  and  C_25
   11  A    between atoms: C_19  and  S_26
   12  A    between atoms: C_24  and  C_25
                            x       y       z     vdW  Elec       q    Type
                         _______ _______ _______ _____ _____    ______ ____

>  <TORSDO>
F 12

$$$$
=
 OpenBabel11042410253D

 29 30  0  0  1  0  0  0  0  0999 V2000
  185.9680  178.0740  143.3630 C   0  0  0  0  0  0  0  0  0  0  0  0
  185.7790  179.1170  146.0640 C   0  0  0  0  0  2  0  0  0  0  0  0
  188.4410  177.6200  143.6550 C   0  0  2  0  0  3  0  0  0  0  0  0
  186.0380  177.7100  142.1570 O   0  0  0  0  0  0  0  0  0  0  0  0
  188.8390  176.9060  146.1580 C   0  0  1  0  0  3  0  0  0  0  0  0
  186.9250  178.2630  145.6180 C   0  0  0  0  0  0  0  0  0  0  0  0
  184.6650  178.4910  143.9230 C   0  0  0  0  0  0  0  0  0  0  0  0
  187.1370  178.0430  144.2070 N   0  0  0  0  0  0  0  0  0  0  0  0
  187.7230  177.7660  146.5110 N   0  0  0  0  0  0  0  0  0  0  0  0
  184.5780  178.9350  145.1790 C   0  0  0  0  0  3  0  0  0  0  0  0
  189.8110  177.7210  144.8700 S   0  0  0  0  0  0  0  0  0  0  0  0
  189.7160  176.6600  147.3750 C   0  0  0  0  0  2  0  0  0  0  0  0
  191.1720  176.9950  147.0810 C   0  0  0  0  0  2  0  0  0  0  0  0
  192.0610  175.7710  147.2350 C   0  0  0  0  0  3  0  0  0  0  0  0
  192.3650  175.2500  145.9900 F   0  0  0  0  0  0  0  0  0  0  0  0
  191.3990  174.8160  147.9810 F   0  0  0  0  0  0  0  0  0  0  0  0
  183.4230  178.4030  143.1040 C   0  0  0  0  0  2  0  0  0  0  0  0
  182.1050  179.4060  143.8630 S   0  0  0  0  0  0  0  0  0  0  0  0
  180.7110  178.5610  143.0270 C   0  0  1  0  0  3  0  0  0  0  0  0
  179.6250  177.1610  144.4320 O   0  0  0  0  0  1  0  0  0  0  0  0
  179.5620  178.4090  143.9120 N   0  0  0  0  0  2  0  0  0  0  0  0
  180.3360  179.2370  141.7070 C   0  0  1  0  0  3  0  0  0  0  0  0
  180.5250  178.2660  140.5550 C   0  0  0  0  0  1  0  0  0  0  0  0
  178.9630  179.7190  141.7250 N   0  0  0  0  0  2  0  0  0  0  0  0
  179.0150  181.1600  141.5600 C   0  0  0  0  0  1  0  0  0  0  0  0
  188.8150  178.4750  142.4470 C   0  0  0  0  0  2  0  0  0  0  0  0
  189.6760  177.6940  141.4650 C   0  0  0  0  0  2  0  0  0  0  0  0
  189.2760  178.4030  139.1290 C   0  0  0  0  0  1  0  0  0  0  0  0
  188.8960  177.4010  140.1980 C   0  0  0  0  0  2  0  0  0  0  0  0
  1  7  1  0  0  0  0
  1  8  1  0  0  0  0
  3 26  1  6  0  0  0
  3  8  1  0  0  0  0
  3 11  1  0  0  0  0
  4  1  2  0  0  0  0
  5  9  1  0  0  0  0
  5 12  1  1  0  0  0
  6  2  1  0  0  0  0
  6  9  2  0  0  0  0
  7 10  2  0  0  0  0
  8  6  1  0  0  0  0
 10  2  1  0  0  0  0
 11  5  1  0  0  0  0
 13 14  1  0  0  0  0
 13 12  1  0  0  0  0
 14 16  1  0  0  0  0
 15 14  1  0  0  0  0
 17 18  1  0  0  0  0
 17  7  1  0  0  0  0
 19 18  1  1  0  0  0
 19 21  1  0  0  0  0
 21 20  1  0  0  0  0
 22 23  1  6  0  0  0
 22 24  1  0  0  0  0
 22 19  1  0  0  0  0
 25 24  1  0  0  0  0
 27 26  1  0  0  0  0
 28 29  1  0  0  0  0
 29 27  1  0  0  0  0
M  END
>  <MODEL>
7

>  <REMARK>
 VINA RESULT:      -6.5      3.575      6.111
  Name = 
  12 active torsions:
  status: ('A' for Active; 'I' for Inactive)
    1  A    between atoms: C_4  and  C_13
    2  A    between atoms: C_5  and  C_24
    3  A    between atoms: N_7  and  C_21
    4  A    between atoms: C_8  and  C_11
    5  A    between atoms: C_11  and  C_13
    6  A    between atoms: C_14  and  C_21
    7  A    between atoms: C_14  and  S_26
    8  A    between atoms: C_14  and  N_29
    9  A    between atoms: C_15  and  C_19
   10  A    between atoms: C_16  and  C_25
   11  A    between atoms: C_19  and  S_26
   12  A    between atoms: C_24  and  C_25
                            x       y       z     vdW  Elec       q    Type
                         _______ _______ _______ _____ _____    ______ ____

>  <TORSDO>
F 12

$$$$
=
 OpenBabel11042410253D

 29 30  0  0  1  0  0  0  0  0999 V2000
  188.3370  178.2930  140.6640 C   0  0  0  0  0  0  0  0  0  0  0  0
  190.7660  176.7070  140.6000 C   0  0  0  0  0  2  0  0  0  0  0  0
  188.1720  178.0340  143.1770 C   0  0  2  0  0  3  0  0  0  0  0  0
  187.2370  178.9100  140.6500 O   0  0  0  0  0  0  0  0  0  0  0  0
  190.6190  177.9980  144.1470 C   0  0  1  0  0  3  0  0  0  0  0  0
  190.2550  177.3310  141.8620 C   0  0  0  0  0  0  0  0  0  0  0  0
  189.0740  178.0900  139.3990 C   0  0  0  0  0  0  0  0  0  0  0  0
  188.9000  177.8270  141.9080 N   0  0  0  0  0  0  0  0  0  0  0  0
  191.0340  177.3830  142.8970 N   0  0  0  0  0  0  0  0  0  0  0  0
  190.2120  177.3910  139.3830 C   0  0  0  0  0  3  0  0  0  0  0  0
  189.0210  177.3040  144.6290 S   0  0  0  0  0  0  0  0  0  0  0  0
  191.6420  177.7140  145.2340 C   0  0  0  0  0  2  0  0  0  0  0  0
  191.6940  176.2300  145.5690 C   0  0  0  0  0  2  0  0  0  0  0  0
  191.6440  176.0020  147.0710 C   0  0  0  0  0  3  0  0  0  0  0  0
  191.3000  177.1760  147.7160 F   0  0  0  0  0  0  0  0  0  0  0  0
  192.8840  175.5850  147.5120 F   0  0  0  0  0  0  0  0  0  0  0  0
  188.5750  178.6800  138.1250 C   0  0  0  0  0  2  0  0  0  0  0  0
  188.7050  177.4580  136.7810 S   0  0  0  0  0  0  0  0  0  0  0  0
  187.1340  176.5920  137.1510 C   0  0  1  0  0  3  0  0  0  0  0  0
  186.5890  177.6700  135.2400 O   0  0  0  0  0  1  0  0  0  0  0  0
  186.0360  177.0880  136.3290 N   0  0  0  0  0  2  0  0  0  0  0  0
  187.2790  175.0720  137.0630 C   0  0  1  0  0  3  0  0  0  0  0  0
  185.9790  174.4540  136.5830 C   0  0  0  0  0  1  0  0  0  0  0  0
  188.3640  174.6900  136.1710 N   0  0  0  0  0  2  0  0  0  0  0  0
  189.0720  173.5940  136.8060 C   0  0  0  0  0  1  0  0  0  0  0  0
  186.7710  177.4320  143.0950 C   0  0  0  0  0  2  0  0  0  0  0  0
  185.8980  177.9110  144.2450 C   0  0  0  0  0  2  0  0  0  0  0  0
  183.7290  178.9770  144.7780 C   0  0  0  0  0  1  0  0  0  0  0  0
  184.8180  178.8450  143.7340 C   0  0  0  0  0  2  0  0  0  0  0  0
  1  8  1  0  0  0  0
  2  6  1  0  0  0  0
  3 26  1  6  0  0  0
  3 11  1  0  0  0  0
  4  1  2  0  0  0  0
  5 11  1  0  0  0  0
  5 12  1  1  0  0  0
  6  8  1  0  0  0  0
  6  9  2  0  0  0  0
  7  1  1  0  0  0  0
  8  3  1  0  0  0  0
  9  5  1  0  0  0  0
 10  7  2  0  0  0  0
 10  2  1  0  0  0  0
 12 13  1  0  0  0  0
 13 14  1  0  0  0  0
 14 16  1  0  0  0  0
 14 15  1  0  0  0  0
 17  7  1  0  0  0  0
 18 19  1  0  0  0  0
 18 17  1  0  0  0  0
 19 21  1  6  0  0  0
 20 21  1  0  0  0  0
 22 23  1  6  0  0  0
 22 19  1  0  0  0  0
 24 25  1  0  0  0  0
 24 22  1  0  0  0  0
 26 27  1  0  0  0  0
 29 27  1  0  0  0  0
 29 28  1  0  0  0  0
M  END
>  <MODEL>
8

>  <REMARK>
 VINA RESULT:      -6.4      1.596      1.918
  Name = 
  12 active torsions:
  status: ('A' for Active; 'I' for Inactive)
    1  A    between atoms: C_4  and  C_13
    2  A    between atoms: C_5  and  C_24
    3  A    between atoms: N_7  and  C_21
    4  A    between atoms: C_8  and  C_11
    5  A    between atoms: C_11  and  C_13
    6  A    between atoms: C_14  and  C_21
    7  A    between atoms: C_14  and  S_26
    8  A    between atoms: C_14  and  N_29
    9  A    between atoms: C_15  and  C_19
   10  A    between atoms: C_16  and  C_25
   11  A    between atoms: C_19  and  S_26
   12  A    between atoms: C_24  and  C_25
                            x       y       z     vdW  Elec       q    Type
                         _______ _______ _______ _____ _____    ______ ____

>  <TORSDO>
F 12

$$$$
=
 OpenBabel11042410253D

 29 30  0  0  1  0  0  0  0  0999 V2000
  185.8770  178.2140  143.0150 C   0  0  0  0  0  0  0  0  0  0  0  0
  185.5280  179.1290  145.7460 C   0  0  0  0  0  2  0  0  0  0  0  0
  188.3210  177.7100  143.4410 C   0  0  2  0  0  3  0  0  0  0  0  0
  186.0190  177.9070  141.8000 O   0  0  0  0  0  0  0  0  0  0  0  0
  188.5510  176.8710  145.9250 C   0  0  1  0  0  3  0  0  0  0  0  0
  186.6910  178.2810  145.3330 C   0  0  0  0  0  0  0  0  0  0  0  0
  184.5460  178.6230  143.5120 C   0  0  0  0  0  0  0  0  0  0  0  0
  186.9900  178.1250  143.9290 N   0  0  0  0  0  0  0  0  0  0  0  0
  187.4240  177.7300  146.2490 N   0  0  0  0  0  0  0  0  0  0  0  0
  184.3840  179.0070  144.7800 C   0  0  0  0  0  3  0  0  0  0  0  0
  189.6110  177.7330  144.7430 S   0  0  0  0  0  0  0  0  0  0  0  0
  189.3450  176.5550  147.1820 C   0  0  0  0  0  2  0  0  0  0  0  0
  190.7500  177.1380  147.1060 C   0  0  0  0  0  2  0  0  0  0  0  0
  191.8020  176.0410  147.1040 C   0  0  0  0  0  3  0  0  0  0  0  0
  192.0790  175.6550  145.8040 F   0  0  0  0  0  0  0  0  0  0  0  0
  191.3310  174.9530  147.8130 F   0  0  0  0  0  0  0  0  0  0  0  0
  183.3570  178.5920  142.6130 C   0  0  0  0  0  2  0  0  0  0  0  0
  181.8470  178.9500  143.5670 S   0  0  0  0  0  0  0  0  0  0  0  0
  180.7070  178.9520  142.1320 C   0  0  1  0  0  3  0  0  0  0  0  0
  180.1400  180.8730  143.1810 O   0  0  0  0  0  1  0  0  0  0  0  0
  180.0030  180.2220  142.0030 N   0  0  0  0  0  2  0  0  0  0  0  0
  181.4120  178.5490  140.8360 C   0  0  1  0  0  3  0  0  0  0  0  0
  180.7750  177.2950  140.2660 C   0  0  0  0  0  1  0  0  0  0  0  0
  181.3650  179.6180  139.8490 N   0  0  0  0  0  2  0  0  0  0  0  0
  181.0790  179.0010  138.5660 C   0  0  0  0  0  1  0  0  0  0  0  0
  188.7810  178.6170  142.3010 C   0  0  0  0  0  2  0  0  0  0  0  0
  189.0550  177.8160  141.0370 C   0  0  0  0  0  2  0  0  0  0  0  0
  191.4730  177.4450  141.4060 C   0  0  0  0  0  1  0  0  0  0  0  0
  190.1220  176.7700  141.2970 C   0  0  0  0  0  2  0  0  0  0  0  0
  1  7  1  0  0  0  0
  1  8  1  0  0  0  0
  3 26  1  6  0  0  0
  3  8  1  0  0  0  0
  3 11  1  0  0  0  0
  4  1  2  0  0  0  0
  5  9  1  0  0  0  0
  5 12  1  1  0  0  0
  6  2  1  0  0  0  0
  6  9  2  0  0  0  0
  7 10  2  0  0  0  0
  8  6  1  0  0  0  0
 10  2  1  0  0  0  0
 11  5  1  0  0  0  0
 13 12  1  0  0  0  0
 14 13  1  0  0  0  0
 14 16  1  0  0  0  0
 15 14  1  0  0  0  0
 17  7  1  0  0  0  0
 17 18  1  0  0  0  0
 19 21  1  6  0  0  0
 19 18  1  0  0  0  0
 21 20  1  0  0  0  0
 22 23  1  6  0  0  0
 22 19  1  0  0  0  0
 24 22  1  0  0  0  0
 25 24  1  0  0  0  0
 27 29  1  0  0  0  0
 27 26  1  0  0  0  0
 29 28  1  0  0  0  0
M  END
>  <MODEL>
9

>  <REMARK>
 VINA RESULT:      -6.2      3.346      5.589
  Name = 
  12 active torsions:
  status: ('A' for Active; 'I' for Inactive)
    1  A    between atoms: C_4  and  C_13
    2  A    between atoms: C_5  and  C_24
    3  A    between atoms: N_7  and  C_21
    4  A    between atoms: C_8  and  C_11
    5  A    between atoms: C_11  and  C_13
    6  A    between atoms: C_14  and  C_21
    7  A    between atoms: C_14  and  S_26
    8  A    between atoms: C_14  and  N_29
    9  A    between atoms: C_15  and  C_19
   10  A    between atoms: C_16  and  C_25
   11  A    between atoms: C_19  and  S_26
   12  A    between atoms: C_24  and  C_25
                            x       y       z     vdW  Elec       q    Type
                         _______ _______ _______ _____ _____    ______ ____

>  <TORSDO>
F 12

$$$$
