=
 OpenBabel11042410013D

 38 40  0  0  1  0  0  0  0  0999 V2000
  183.9230  178.4450  141.5090 C   0  0  0  0  0  0  0  0  0  0  0  0
  182.8940  177.7440  141.1150 N   0  0  0  0  0  0  0  0  0  0  0  0
  184.3800  179.3950  139.1320 C   0  0  0  0  0  2  0  0  0  0  0  0
  184.9070  179.0910  140.5420 C   0  0  0  0  0  2  0  0  0  0  0  0
  182.5250  177.4960  139.7240 C   0  0  2  0  0  3  0  0  0  0  0  0
  182.0480  178.7990  139.0260 C   0  0  2  0  0  3  0  0  0  0  0  0
  183.0150  179.9000  139.2030 N   0  0  0  0  0  2  0  0  0  0  0  0
  183.4420  179.2290  145.1400 N   0  0  0  0  0  0  0  0  0  0  0  0
  184.6000  178.8360  145.6680 N   0  0  0  0  0  0  0  0  0  0  0  0
  185.3790  178.1750  143.5280 C   0  0  0  0  0  3  0  0  0  0  0  0
  184.1670  178.5830  142.9640 C   0  0  0  0  0  0  0  0  0  0  0  0
  185.5990  178.3110  144.9020 C   0  0  0  0  0  0  0  0  0  0  0  0
  183.1930  179.1260  143.8090 C   0  0  0  0  0  3  0  0  0  0  0  0
  189.2940  177.3290  146.8910 C   0  0  0  0  0  0  0  0  0  0  0  0
  188.0380  177.4960  144.8210 C   0  0  0  0  0  0  0  0  0  0  0  0
  186.9850  178.0310  146.9400 C   0  0  0  0  0  3  0  0  0  0  0  0
  188.1740  177.7400  147.6100 C   0  0  0  0  0  3  0  0  0  0  0  0
  188.0310  177.3590  143.4020 N   0  0  0  0  0  1  0  0  0  0  0  0
  189.2240  177.2030  145.5040 C   0  0  0  0  0  3  0  0  0  0  0  0
  186.8900  177.9220  145.5420 C   0  0  0  0  0  0  0  0  0  0  0  0
  190.5140  177.0570  147.5670 N   0  0  0  0  0  1  0  0  0  0  0  0
  180.6400  179.2320  139.5120 C   0  0  2  0  0  3  0  0  0  0  0  0
  179.4050  179.2510  137.5830 C   0  0  0  0  0  1  0  0  0  0  0  0
  179.5950  178.5940  138.8080 O   0  0  0  0  0  0  0  0  0  0  0  0
  180.4350  180.7460  139.6340 C   0  0  0  0  0  2  0  0  0  0  0  0
  179.8870  181.0670  140.9360 N   0  0  0  0  0  2  0  0  0  0  0  0
  180.4110  180.1780  141.8090 O   0  0  0  0  0  0  0  0  0  0  0  0
  179.3960  179.9640  142.7400 C   0  0  0  0  0  2  0  0  0  0  0  0
  179.4400  178.5550  143.2150 C   0  0  0  0  0  0  0  0  0  0  0  0
  179.4920  178.3030  144.4490 O   0  0  0  0  0  1  0  0  0  0  0  0
  179.3840  177.5160  142.2950 O   0  0  0  0  0  0  0  0  0  0  0  0
  181.5360  176.3400  139.6300 C   0  0  0  0  0  2  0  0  0  0  0  0
  181.9150  175.3930  138.5010 C   0  0  1  0  0  3  0  0  0  0  0  0
  180.5540  175.9900  136.3380 N   0  0  0  0  0  0  0  0  0  0  0  0
  181.1550  175.7260  137.2910 C   0  0  0  0  0  0  0  0  0  0  0  0
  183.3360  175.5190  138.2240 N   0  0  0  0  0  2  0  0  0  0  0  0
  183.7330  174.3730  137.4220 C   0  0  0  0  0  2  0  0  0  0  0  0
  185.1740  174.3670  137.2500 N   0  0  0  0  0  1  0  0  0  0  0  0
  1 11  1  0  0  0  0
  2  1  2  0  0  0  0
  3  7  1  0  0  0  0
  3  4  1  0  0  0  0
  4  1  1  0  0  0  0
  5 32  1  1  0  0  0
  5  2  1  0  0  0  0
  6  7  1  0  0  0  0
  6 22  1  1  0  0  0
  6  5  1  0  0  0  0
  8  9  1  0  0  0  0
 10 12  1  0  0  0  0
 11 10  2  0  0  0  0
 11 13  1  0  0  0  0
 12 20  1  0  0  0  0
 12  9  2  0  0  0  0
 13  8  2  0  0  0  0
 14 21  1  0  0  0  0
 14 17  1  0  0  0  0
 15 19  1  0  0  0  0
 15 20  2  0  0  0  0
 16 17  2  0  0  0  0
 18 15  1  0  0  0  0
 19 14  2  0  0  0  0
 20 16  1  0  0  0  0
 22 25  1  6  0  0  0
 23 24  1  0  0  0  0
 24 22  1  0  0  0  0
 25 26  1  0  0  0  0
 26 27  1  0  0  0  0
 27 28  1  0  0  0  0
 28 29  1  0  0  0  0
 29 30  1  0  0  0  0
 31 29  2  0  0  0  0
 33 35  1  6  0  0  0
 33 32  1  0  0  0  0
 34 35  3  0  0  0  0
 36 33  1  0  0  0  0
 37 36  1  0  0  0  0
 38 37  1  0  0  0  0
M  END
>  <MODEL>
1

>  <REMARK>
 VINA RESULT:      -7.3      0.000      0.000
  Name = 
  14 active torsions:
  status: ('A' for Active; 'I' for Inactive)
    1  A    between atoms: N_3  and  C_7
    2  A    between atoms: N_3  and  C_36
    3  A    between atoms: C_5  and  C_6
    4  A    between atoms: C_5  and  O_27
    5  A    between atoms: C_8  and  C_9
    6  A    between atoms: C_8  and  N_37
    7  A    between atoms: C_9  and  O_19
    8  A    between atoms: C_9  and  C_29
    9  A    between atoms: C_12  and  C_36
   10  A    between atoms: C_16  and  C_30
   11  A    between atoms: C_22  and  C_28
   12  A    between atoms: C_22  and  C_36
   13  A    between atoms: O_27  and  N_37
   14  A    between atoms: C_33  and  C_34
                            x       y       z     vdW  Elec       q    Type
                         _______ _______ _______ _____ _____    ______ ____

>  <TORSDO>
F 14

$$$$
=
 OpenBabel11042410013D

 38 40  0  0  1  0  0  0  0  0999 V2000
  189.0290  177.5290  138.5610 C   0  0  0  0  0  0  0  0  0  0  0  0
  188.0910  176.6410  138.3690 N   0  0  0  0  0  0  0  0  0  0  0  0
  188.3290  178.9400  136.4910 C   0  0  0  0  0  2  0  0  0  0  0  0
  189.4100  178.5720  137.5170 C   0  0  0  0  0  2  0  0  0  0  0  0
  187.2690  176.5280  137.1660 C   0  0  2  0  0  3  0  0  0  0  0  0
  186.3080  177.7400  137.0230 C   0  0  2  0  0  3  0  0  0  0  0  0
  187.0270  179.0240  137.1400 N   0  0  0  0  0  2  0  0  0  0  0  0
  191.8480  177.3730  141.0220 N   0  0  0  0  0  0  0  0  0  0  0  0
  191.2060  177.4370  142.1870 N   0  0  0  0  0  0  0  0  0  0  0  0
  189.1230  177.5580  141.0620 C   0  0  0  0  0  3  0  0  0  0  0  0
  189.7850  177.4940  139.8340 C   0  0  0  0  0  0  0  0  0  0  0  0
  189.8470  177.5210  142.2580 C   0  0  0  0  0  0  0  0  0  0  0  0
  191.1810  177.3920  139.8380 C   0  0  0  0  0  3  0  0  0  0  0  0
  187.7630  177.7010  146.0250 C   0  0  0  0  0  0  0  0  0  0  0  0
  189.8700  177.7290  144.8220 C   0  0  0  0  0  0  0  0  0  0  0  0
  187.7790  177.4450  143.6250 C   0  0  0  0  0  3  0  0  0  0  0  0
  187.0740  177.5200  144.8270 C   0  0  0  0  0  3  0  0  0  0  0  0
  191.2890  177.8470  144.8810 N   0  0  0  0  0  1  0  0  0  0  0  0
  189.1530  177.7990  146.0220 C   0  0  0  0  0  3  0  0  0  0  0  0
  189.1790  177.5520  143.5920 C   0  0  0  0  0  0  0  0  0  0  0  0
  187.0470  177.8040  147.2490 N   0  0  0  0  0  1  0  0  0  0  0  0
  185.1430  177.6760  138.0450 C   0  0  2  0  0  3  0  0  0  0  0  0
  183.2640  176.4240  138.4240 C   0  0  0  0  0  1  0  0  0  0  0  0
  183.9380  177.2080  137.4770 O   0  0  0  0  0  0  0  0  0  0  0  0
  184.9490  178.9440  138.8850 C   0  0  0  0  0  2  0  0  0  0  0  0
  185.6470  178.8120  140.1480 N   0  0  0  0  0  2  0  0  0  0  0  0
  184.8890  179.4350  141.0780 O   0  0  0  0  0  0  0  0  0  0  0  0
  184.4930  178.4160  141.9430 C   0  0  0  0  0  2  0  0  0  0  0  0
  184.0250  179.0020  143.2280 C   0  0  0  0  0  0  0  0  0  0  0  0
  182.9750  178.5720  143.7750 O   0  0  0  0  0  0  0  0  0  0  0  0
  184.7730  179.9990  143.8430 O   0  0  0  0  0  1  0  0  0  0  0  0
  186.5750  175.1720  137.1190 C   0  0  0  0  0  2  0  0  0  0  0  0
  187.5600  174.0710  136.7540 C   0  0  1  0  0  3  0  0  0  0  0  0
  186.2600  171.8960  136.0670 N   0  0  0  0  0  0  0  0  0  0  0  0
  186.8340  172.8560  136.3680 C   0  0  0  0  0  0  0  0  0  0  0  0
  188.3810  174.5120  135.6380 N   0  0  0  0  0  2  0  0  0  0  0  0
  189.7730  174.3850  136.0380 C   0  0  0  0  0  2  0  0  0  0  0  0
  189.8630  173.6540  137.2880 N   0  0  0  0  0  1  0  0  0  0  0  0
  1 11  1  0  0  0  0
  2  1  2  0  0  0  0
  3  7  1  0  0  0  0
  3  4  1  0  0  0  0
  4  1  1  0  0  0  0
  5 32  1  1  0  0  0
  5  2  1  0  0  0  0
  6  7  1  0  0  0  0
  6  5  1  0  0  0  0
  6 22  1  1  0  0  0
  8  9  1  0  0  0  0
  9 12  2  0  0  0  0
 10 12  1  0  0  0  0
 11 13  1  0  0  0  0
 11 10  2  0  0  0  0
 12 20  1  0  0  0  0
 13  8  2  0  0  0  0
 14 21  1  0  0  0  0
 15 18  1  0  0  0  0
 15 19  2  0  0  0  0
 16 17  1  0  0  0  0
 17 14  2  0  0  0  0
 19 14  1  0  0  0  0
 20 16  2  0  0  0  0
 20 15  1  0  0  0  0
 22 25  1  6  0  0  0
 24 22  1  0  0  0  0
 24 23  1  0  0  0  0
 25 26  1  0  0  0  0
 26 27  1  0  0  0  0
 27 28  1  0  0  0  0
 28 29  1  0  0  0  0
 29 30  2  0  0  0  0
 29 31  1  0  0  0  0
 33 35  1  6  0  0  0
 33 32  1  0  0  0  0
 34 35  3  0  0  0  0
 36 37  1  0  0  0  0
 36 33  1  0  0  0  0
 37 38  1  0  0  0  0
M  END
>  <MODEL>
2

>  <REMARK>
 VINA RESULT:      -7.1      3.628      5.360
  Name = 
  14 active torsions:
  status: ('A' for Active; 'I' for Inactive)
    1  A    between atoms: N_3  and  C_7
    2  A    between atoms: N_3  and  C_36
    3  A    between atoms: C_5  and  C_6
    4  A    between atoms: C_5  and  O_27
    5  A    between atoms: C_8  and  C_9
    6  A    between atoms: C_8  and  N_37
    7  A    between atoms: C_9  and  O_19
    8  A    between atoms: C_9  and  C_29
    9  A    between atoms: C_12  and  C_36
   10  A    between atoms: C_16  and  C_30
   11  A    between atoms: C_22  and  C_28
   12  A    between atoms: C_22  and  C_36
   13  A    between atoms: O_27  and  N_37
   14  A    between atoms: C_33  and  C_34
                            x       y       z     vdW  Elec       q    Type
                         _______ _______ _______ _____ _____    ______ ____

>  <TORSDO>
F 14

$$$$
=
 OpenBabel11042410013D

 38 40  0  0  1  0  0  0  0  0999 V2000
  183.8920  178.4810  141.7060 C   0  0  0  0  0  0  0  0  0  0  0  0
  182.6770  178.1940  141.3240 N   0  0  0  0  0  0  0  0  0  0  0  0
  184.6840  179.0410  139.2940 C   0  0  0  0  0  2  0  0  0  0  0  0
  185.0510  178.6490  140.7320 C   0  0  0  0  0  2  0  0  0  0  0  0
  182.2490  178.0170  139.9380 C   0  0  2  0  0  3  0  0  0  0  0  0
  182.2990  179.3580  139.1560 C   0  0  2  0  0  3  0  0  0  0  0  0
  183.6090  180.0240  139.2990 N   0  0  0  0  0  2  0  0  0  0  0  0
  183.4740  179.2210  145.3540 N   0  0  0  0  0  0  0  0  0  0  0  0
  184.6470  178.8360  145.8540 N   0  0  0  0  0  0  0  0  0  0  0  0
  185.3910  178.2060  143.6930 C   0  0  0  0  0  3  0  0  0  0  0  0
  184.1640  178.6060  143.1570 C   0  0  0  0  0  0  0  0  0  0  0  0
  185.6370  178.3310  145.0640 C   0  0  0  0  0  0  0  0  0  0  0  0
  183.2010  179.1290  144.0260 C   0  0  0  0  0  3  0  0  0  0  0  0
  189.3770  177.3660  146.9730 C   0  0  0  0  0  0  0  0  0  0  0  0
  188.0950  177.5830  144.9250 C   0  0  0  0  0  0  0  0  0  0  0  0
  187.0520  178.0050  147.0750 C   0  0  0  0  0  3  0  0  0  0  0  0
  188.2550  177.7180  147.7200 C   0  0  0  0  0  3  0  0  0  0  0  0
  188.0750  177.5030  143.5020 N   0  0  0  0  0  1  0  0  0  0  0  0
  189.2950  177.2940  145.5840 C   0  0  0  0  0  3  0  0  0  0  0  0
  186.9440  177.9500  145.6750 C   0  0  0  0  0  0  0  0  0  0  0  0
  190.6120  177.0990  147.6260 N   0  0  0  0  0  1  0  0  0  0  0  0
  181.1550  180.3150  139.5790 C   0  0  2  0  0  3  0  0  0  0  0  0
  179.4960  180.7680  141.0900 C   0  0  0  0  0  1  0  0  0  0  0  0
  180.7070  180.0880  140.8980 O   0  0  0  0  0  0  0  0  0  0  0  0
  180.0030  180.4300  138.5730 C   0  0  0  0  0  2  0  0  0  0  0  0
  180.4030  181.2620  137.4560 N   0  0  0  0  0  2  0  0  0  0  0  0
  180.9870  182.3630  137.9810 O   0  0  0  0  0  0  0  0  0  0  0  0
  180.3860  183.4280  137.3110 C   0  0  0  0  0  2  0  0  0  0  0  0
  181.4170  184.4340  136.9400 C   0  0  0  0  0  0  0  0  0  0  0  0
  182.4200  184.6160  137.6810 O   0  0  0  0  0  1  0  0  0  0  0  0
  181.2910  185.1450  135.7530 O   0  0  0  0  0  0  0  0  0  0  0  0
  180.8990  177.3120  139.8820 C   0  0  0  0  0  2  0  0  0  0  0  0
  181.0600  175.8640  139.4420 C   0  0  1  0  0  3  0  0  0  0  0  0
  179.3040  174.3490  140.6710 N   0  0  0  0  0  0  0  0  0  0  0  0
  180.0780  175.0190  140.1290 C   0  0  0  0  0  0  0  0  0  0  0  0
  180.8510  175.7720  138.0060 N   0  0  0  0  0  2  0  0  0  0  0  0
  181.2240  174.4290  137.5920 C   0  0  0  0  0  2  0  0  0  0  0  0
  182.5210  174.4570  136.9410 N   0  0  0  0  0  1  0  0  0  0  0  0
  1 11  1  0  0  0  0
  2  1  2  0  0  0  0
  3  7  1  0  0  0  0
  3  4  1  0  0  0  0
  4  1  1  0  0  0  0
  5 32  1  1  0  0  0
  5  2  1  0  0  0  0
  6  7  1  0  0  0  0
  6 22  1  1  0  0  0
  6  5  1  0  0  0  0
  8  9  1  0  0  0  0
 10 12  1  0  0  0  0
 11 10  2  0  0  0  0
 11 13  1  0  0  0  0
 12 20  1  0  0  0  0
 12  9  2  0  0  0  0
 13  8  2  0  0  0  0
 14 21  1  0  0  0  0
 14 17  1  0  0  0  0
 15 19  1  0  0  0  0
 15 20  2  0  0  0  0
 16 17  2  0  0  0  0
 18 15  1  0  0  0  0
 19 14  2  0  0  0  0
 20 16  1  0  0  0  0
 22 25  1  6  0  0  0
 22 24  1  0  0  0  0
 24 23  1  0  0  0  0
 26 27  1  0  0  0  0
 26 25  1  0  0  0  0
 28 27  1  0  0  0  0
 29 28  1  0  0  0  0
 29 30  1  0  0  0  0
 31 29  2  0  0  0  0
 33 32  1  1  0  0  0
 33 35  1  0  0  0  0
 35 34  3  0  0  0  0
 36 33  1  0  0  0  0
 37 36  1  0  0  0  0
 38 37  1  0  0  0  0
M  END
>  <MODEL>
3

>  <REMARK>
 VINA RESULT:      -7.1      2.320      3.383
  Name = 
  14 active torsions:
  status: ('A' for Active; 'I' for Inactive)
    1  A    between atoms: N_3  and  C_7
    2  A    between atoms: N_3  and  C_36
    3  A    between atoms: C_5  and  C_6
    4  A    between atoms: C_5  and  O_27
    5  A    between atoms: C_8  and  C_9
    6  A    between atoms: C_8  and  N_37
    7  A    between atoms: C_9  and  O_19
    8  A    between atoms: C_9  and  C_29
    9  A    between atoms: C_12  and  C_36
   10  A    between atoms: C_16  and  C_30
   11  A    between atoms: C_22  and  C_28
   12  A    between atoms: C_22  and  C_36
   13  A    between atoms: O_27  and  N_37
   14  A    between atoms: C_33  and  C_34
                            x       y       z     vdW  Elec       q    Type
                         _______ _______ _______ _____ _____    ______ ____

>  <TORSDO>
F 14

$$$$
=
 OpenBabel11042410013D

 38 40  0  0  1  0  0  0  0  0999 V2000
  189.0270  177.4550  139.1590 C   0  0  0  0  0  0  0  0  0  0  0  0
  188.1930  176.5580  138.7060 N   0  0  0  0  0  0  0  0  0  0  0  0
  188.9390  178.8620  136.9740 C   0  0  0  0  0  2  0  0  0  0  0  0
  189.6820  178.5030  138.2690 C   0  0  0  0  0  2  0  0  0  0  0  0
  187.7540  176.4380  137.3180 C   0  0  2  0  0  3  0  0  0  0  0  0
  186.8630  177.6400  136.9020 C   0  0  2  0  0  3  0  0  0  0  0  0
  187.5040  178.9320  137.2200 N   0  0  0  0  0  2  0  0  0  0  0  0
  191.0030  177.1890  142.3300 N   0  0  0  0  0  0  0  0  0  0  0  0
  190.0670  177.3740  143.2590 N   0  0  0  0  0  0  0  0  0  0  0  0
  188.4110  177.6160  141.5800 C   0  0  0  0  0  3  0  0  0  0  0  0
  189.3840  177.4240  140.5960 C   0  0  0  0  0  0  0  0  0  0  0  0
  188.7590  177.5820  142.9340 C   0  0  0  0  0  0  0  0  0  0  0  0
  190.7040  177.2000  141.0050 C   0  0  0  0  0  3  0  0  0  0  0  0
  185.7450  178.1930  145.9520 C   0  0  0  0  0  0  0  0  0  0  0  0
  188.0510  177.6740  145.4060 C   0  0  0  0  0  0  0  0  0  0  0  0
  186.4260  178.0380  143.6420 C   0  0  0  0  0  3  0  0  0  0  0  0
  185.4330  178.2610  144.5960 C   0  0  0  0  0  3  0  0  0  0  0  0
  189.3660  177.3850  145.8770 N   0  0  0  0  0  1  0  0  0  0  0  0
  187.0460  177.8950  146.3540 C   0  0  0  0  0  3  0  0  0  0  0  0
  187.7480  177.7470  144.0190 C   0  0  0  0  0  0  0  0  0  0  0  0
  184.7420  178.4450  146.9270 N   0  0  0  0  0  1  0  0  0  0  0  0
  185.4540  177.5620  137.5450 C   0  0  2  0  0  3  0  0  0  0  0  0
  183.2080  177.5660  137.0960 C   0  0  0  0  0  1  0  0  0  0  0  0
  184.4600  177.1280  136.6400 O   0  0  0  0  0  0  0  0  0  0  0  0
  185.0330  178.8070  138.3340 C   0  0  0  0  0  2  0  0  0  0  0  0
  185.4140  178.6630  139.7250 N   0  0  0  0  0  2  0  0  0  0  0  0
  184.5630  179.4300  140.4430 O   0  0  0  0  0  0  0  0  0  0  0  0
  183.7220  178.5170  141.0770 C   0  0  0  0  0  2  0  0  0  0  0  0
  182.3090  178.7870  140.6950 C   0  0  0  0  0  0  0  0  0  0  0  0
  182.0470  179.6250  139.7910 O   0  0  0  0  0  0  0  0  0  0  0  0
  181.2830  178.0840  141.3130 O   0  0  0  0  0  1  0  0  0  0  0  0
  187.1180  175.0750  137.0730 C   0  0  0  0  0  2  0  0  0  0  0  0
  188.0100  174.2090  136.1960 C   0  0  1  0  0  3  0  0  0  0  0  0
  190.3050  173.7810  137.3950 N   0  0  0  0  0  0  0  0  0  0  0  0
  189.2930  173.9720  136.8660 C   0  0  0  0  0  0  0  0  0  0  0  0
  187.3540  172.9350  135.9530 N   0  0  0  0  0  2  0  0  0  0  0  0
  185.9860  173.0440  136.4340 C   0  0  0  0  0  2  0  0  0  0  0  0
  185.2190  171.8890  136.0040 N   0  0  0  0  0  1  0  0  0  0  0  0
  1 11  1  0  0  0  0
  2  1  2  0  0  0  0
  3  7  1  0  0  0  0
  3  4  1  0  0  0  0
  4  1  1  0  0  0  0
  5 32  1  1  0  0  0
  5  2  1  0  0  0  0
  6  7  1  0  0  0  0
  6  5  1  0  0  0  0
  6 22  1  1  0  0  0
  8  9  1  0  0  0  0
 10 12  1  0  0  0  0
 11 13  1  0  0  0  0
 11 10  2  0  0  0  0
 12  9  2  0  0  0  0
 12 20  1  0  0  0  0
 13  8  2  0  0  0  0
 14 19  1  0  0  0  0
 14 21  1  0  0  0  0
 15 18  1  0  0  0  0
 15 19  2  0  0  0  0
 16 20  2  0  0  0  0
 16 17  1  0  0  0  0
 17 14  2  0  0  0  0
 20 15  1  0  0  0  0
 22 25  1  6  0  0  0
 24 23  1  0  0  0  0
 24 22  1  0  0  0  0
 25 26  1  0  0  0  0
 26 27  1  0  0  0  0
 27 28  1  0  0  0  0
 29 28  1  0  0  0  0
 29 31  1  0  0  0  0
 30 29  2  0  0  0  0
 33 35  1  1  0  0  0
 33 32  1  0  0  0  0
 35 34  3  0  0  0  0
 36 33  1  0  0  0  0
 36 37  1  0  0  0  0
 38 37  1  0  0  0  0
M  END
>  <MODEL>
4

>  <REMARK>
 VINA RESULT:      -7.0      3.376      5.318
  Name = 
  14 active torsions:
  status: ('A' for Active; 'I' for Inactive)
    1  A    between atoms: N_3  and  C_7
    2  A    between atoms: N_3  and  C_36
    3  A    between atoms: C_5  and  C_6
    4  A    between atoms: C_5  and  O_27
    5  A    between atoms: C_8  and  C_9
    6  A    between atoms: C_8  and  N_37
    7  A    between atoms: C_9  and  O_19
    8  A    between atoms: C_9  and  C_29
    9  A    between atoms: C_12  and  C_36
   10  A    between atoms: C_16  and  C_30
   11  A    between atoms: C_22  and  C_28
   12  A    between atoms: C_22  and  C_36
   13  A    between atoms: O_27  and  N_37
   14  A    between atoms: C_33  and  C_34
                            x       y       z     vdW  Elec       q    Type
                         _______ _______ _______ _____ _____    ______ ____

>  <TORSDO>
F 14

$$$$
=
 OpenBabel11042410013D

 38 40  0  0  1  0  0  0  0  0999 V2000
  188.9350  177.4730  138.9820 C   0  0  0  0  0  0  0  0  0  0  0  0
  188.3110  176.5350  138.3210 N   0  0  0  0  0  0  0  0  0  0  0  0
  188.7180  179.1950  137.0450 C   0  0  0  0  0  2  0  0  0  0  0  0
  189.4350  178.7560  138.3290 C   0  0  0  0  0  2  0  0  0  0  0  0
  187.9860  176.5790  136.8980 C   0  0  2  0  0  3  0  0  0  0  0  0
  186.9130  177.6610  136.5970 C   0  0  2  0  0  3  0  0  0  0  0  0
  187.2830  178.9710  137.1690 N   0  0  0  0  0  2  0  0  0  0  0  0
  190.6510  176.5650  142.1850 N   0  0  0  0  0  0  0  0  0  0  0  0
  189.7270  176.8710  143.0940 N   0  0  0  0  0  0  0  0  0  0  0  0
  188.2430  177.5770  141.3860 C   0  0  0  0  0  3  0  0  0  0  0  0
  189.2050  177.2610  140.4230 C   0  0  0  0  0  0  0  0  0  0  0  0
  188.5080  177.3710  142.7430 C   0  0  0  0  0  0  0  0  0  0  0  0
  190.4280  176.7380  140.8560 C   0  0  0  0  0  3  0  0  0  0  0  0
  185.5080  178.3420  145.6800 C   0  0  0  0  0  0  0  0  0  0  0  0
  187.7790  177.6380  145.1960 C   0  0  0  0  0  0  0  0  0  0  0  0
  186.2040  178.0210  143.3910 C   0  0  0  0  0  3  0  0  0  0  0  0
  185.2170  178.3610  144.3180 C   0  0  0  0  0  3  0  0  0  0  0  0
  189.0640  177.2850  145.7010 N   0  0  0  0  0  1  0  0  0  0  0  0
  186.7800  177.9770  146.1160 C   0  0  0  0  0  3  0  0  0  0  0  0
  187.4980  177.6600  143.8030 C   0  0  0  0  0  0  0  0  0  0  0  0
  184.5130  178.7130  146.6260 N   0  0  0  0  0  1  0  0  0  0  0  0
  185.5070  177.2320  137.0900 C   0  0  2  0  0  3  0  0  0  0  0  0
  185.1580  177.1790  134.8280 C   0  0  0  0  0  1  0  0  0  0  0  0
  184.5270  177.2890  136.0750 O   0  0  0  0  0  0  0  0  0  0  0  0
  185.0490  177.8950  138.3950 C   0  0  0  0  0  2  0  0  0  0  0  0
  183.6200  178.1330  138.3530 N   0  0  0  0  0  2  0  0  0  0  0  0
  183.0920  177.5190  139.4360 O   0  0  0  0  0  0  0  0  0  0  0  0
  183.4340  178.3460  140.5050 C   0  0  0  0  0  2  0  0  0  0  0  0
  182.2000  178.8100  141.1950 C   0  0  0  0  0  0  0  0  0  0  0  0
  181.2190  179.2290  140.5260 O   0  0  0  0  0  0  0  0  0  0  0  0
  182.1190  178.7420  142.5810 O   0  0  0  0  0  1  0  0  0  0  0  0
  187.6300  175.1880  136.3870 C   0  0  0  0  0  2  0  0  0  0  0  0
  188.6670  174.1660  136.8290 C   0  0  1  0  0  3  0  0  0  0  0  0
  187.7410  171.7360  136.4770 N   0  0  0  0  0  0  0  0  0  0  0  0
  188.1490  172.8080  136.6330 C   0  0  0  0  0  0  0  0  0  0  0  0
  189.8760  174.3360  136.0380 N   0  0  0  0  0  2  0  0  0  0  0  0
  190.9820  173.7770  136.7980 C   0  0  0  0  0  2  0  0  0  0  0  0
  191.2310  174.5890  137.9750 N   0  0  0  0  0  1  0  0  0  0  0  0
  1 11  1  0  0  0  0
  2  1  2  0  0  0  0
  3  7  1  0  0  0  0
  3  4  1  0  0  0  0
  4  1  1  0  0  0  0
  5 32  1  1  0  0  0
  5  2  1  0  0  0  0
  6  5  1  0  0  0  0
  6 22  1  1  0  0  0
  6  7  1  0  0  0  0
  8  9  1  0  0  0  0
 10 12  1  0  0  0  0
 11 13  1  0  0  0  0
 11 10  2  0  0  0  0
 12  9  2  0  0  0  0
 12 20  1  0  0  0  0
 13  8  2  0  0  0  0
 14 19  1  0  0  0  0
 14 21  1  0  0  0  0
 15 18  1  0  0  0  0
 15 19  2  0  0  0  0
 16 20  2  0  0  0  0
 16 17  1  0  0  0  0
 17 14  2  0  0  0  0
 20 15  1  0  0  0  0
 22 25  1  1  0  0  0
 23 24  1  0  0  0  0
 24 22  1  0  0  0  0
 26 25  1  0  0  0  0
 26 27  1  0  0  0  0
 27 28  1  0  0  0  0
 28 29  1  0  0  0  0
 29 31  1  0  0  0  0
 30 29  2  0  0  0  0
 33 32  1  6  0  0  0
 34 35  3  0  0  0  0
 35 33  1  0  0  0  0
 36 37  1  0  0  0  0
 36 33  1  0  0  0  0
 37 38  1  0  0  0  0
M  END
>  <MODEL>
5

>  <REMARK>
 VINA RESULT:      -7.0      3.688      5.557
  Name = 
  14 active torsions:
  status: ('A' for Active; 'I' for Inactive)
    1  A    between atoms: N_3  and  C_7
    2  A    between atoms: N_3  and  C_36
    3  A    between atoms: C_5  and  C_6
    4  A    between atoms: C_5  and  O_27
    5  A    between atoms: C_8  and  C_9
    6  A    between atoms: C_8  and  N_37
    7  A    between atoms: C_9  and  O_19
    8  A    between atoms: C_9  and  C_29
    9  A    between atoms: C_12  and  C_36
   10  A    between atoms: C_16  and  C_30
   11  A    between atoms: C_22  and  C_28
   12  A    between atoms: C_22  and  C_36
   13  A    between atoms: O_27  and  N_37
   14  A    between atoms: C_33  and  C_34
                            x       y       z     vdW  Elec       q    Type
                         _______ _______ _______ _____ _____    ______ ____

>  <TORSDO>
F 14

$$$$
=
 OpenBabel11042410013D

 38 40  0  0  1  0  0  0  0  0999 V2000
  184.1070  178.3060  141.5220 C   0  0  0  0  0  0  0  0  0  0  0  0
  183.1260  177.5440  141.1180 N   0  0  0  0  0  0  0  0  0  0  0  0
  184.5430  179.2670  139.1460 C   0  0  0  0  0  2  0  0  0  0  0  0
  185.0650  179.0030  140.5650 C   0  0  0  0  0  2  0  0  0  0  0  0
  182.7930  177.2670  139.7230 C   0  0  2  0  0  3  0  0  0  0  0  0
  182.2510  178.5350  139.0100 C   0  0  2  0  0  3  0  0  0  0  0  0
  183.1500  179.6920  139.1930 N   0  0  0  0  0  2  0  0  0  0  0  0
  183.5430  179.1250  145.1340 N   0  0  0  0  0  0  0  0  0  0  0  0
  184.6990  178.7620  145.6870 N   0  0  0  0  0  0  0  0  0  0  0  0
  185.5300  178.0910  143.5700 C   0  0  0  0  0  3  0  0  0  0  0  0
  184.3210  178.4670  142.9790 C   0  0  0  0  0  0  0  0  0  0  0  0
  185.7230  178.2490  144.9460 C   0  0  0  0  0  0  0  0  0  0  0  0
  183.3210  179.0000  143.7990 C   0  0  0  0  0  3  0  0  0  0  0  0
  189.3960  177.3650  147.0170 C   0  0  0  0  0  0  0  0  0  0  0  0
  188.1880  177.5140  144.9190 C   0  0  0  0  0  0  0  0  0  0  0  0
  187.0650  177.9920  147.0160 C   0  0  0  0  0  3  0  0  0  0  0  0
  188.2460  177.7320  147.7130 C   0  0  0  0  0  3  0  0  0  0  0  0
  188.2200  177.3920  143.4980 N   0  0  0  0  0  1  0  0  0  0  0  0
  189.3650  177.2520  145.6290 C   0  0  0  0  0  3  0  0  0  0  0  0
  187.0090  177.8950  145.6150 C   0  0  0  0  0  0  0  0  0  0  0  0
  190.6080  177.1250  147.7220 N   0  0  0  0  0  1  0  0  0  0  0  0
  180.8130  178.8870  139.4730 C   0  0  2  0  0  3  0  0  0  0  0  0
  180.4510  178.8700  137.2120 C   0  0  0  0  0  1  0  0  0  0  0  0
  179.8460  178.6870  138.4640 O   0  0  0  0  0  0  0  0  0  0  0  0
  180.6720  180.2460  140.1680 C   0  0  0  0  0  2  0  0  0  0  0  0
  179.2860  180.6700  140.1480 N   0  0  0  0  0  2  0  0  0  0  0  0
  179.2910  182.0030  139.9190 O   0  0  0  0  0  0  0  0  0  0  0  0
  179.0340  182.1220  138.5540 C   0  0  0  0  0  2  0  0  0  0  0  0
  179.9430  183.1400  137.9600 C   0  0  0  0  0  0  0  0  0  0  0  0
  179.6080  184.3540  137.9410 O   0  0  0  0  0  1  0  0  0  0  0  0
  181.1790  182.7510  137.4610 O   0  0  0  0  0  0  0  0  0  0  0  0
  181.8750  176.0540  139.6240 C   0  0  0  0  0  2  0  0  0  0  0  0
  181.8870  175.4790  138.2150 C   0  0  1  0  0  3  0  0  0  0  0  0
  184.3070  174.6710  137.5970 N   0  0  0  0  0  0  0  0  0  0  0  0
  183.2390  175.0290  137.8680 C   0  0  0  0  0  0  0  0  0  0  0  0
  180.9740  174.3490  138.1490 N   0  0  0  0  0  2  0  0  0  0  0  0
  179.6440  174.8370  138.4740 C   0  0  0  0  0  2  0  0  0  0  0  0
  179.0700  175.5090  137.3230 N   0  0  0  0  0  1  0  0  0  0  0  0
  1 11  1  0  0  0  0
  2  1  2  0  0  0  0
  3  7  1  0  0  0  0
  3  4  1  0  0  0  0
  4  1  1  0  0  0  0
  5 32  1  1  0  0  0
  5  2  1  0  0  0  0
  6  7  1  0  0  0  0
  6 22  1  1  0  0  0
  6  5  1  0  0  0  0
  8  9  1  0  0  0  0
 10 12  1  0  0  0  0
 11 10  2  0  0  0  0
 11 13  1  0  0  0  0
 12 20  1  0  0  0  0
 12  9  2  0  0  0  0
 13  8  2  0  0  0  0
 14 17  1  0  0  0  0
 14 21  1  0  0  0  0
 15 20  2  0  0  0  0
 15 19  1  0  0  0  0
 16 17  2  0  0  0  0
 18 15  1  0  0  0  0
 19 14  2  0  0  0  0
 20 16  1  0  0  0  0
 22 25  1  6  0  0  0
 23 24  1  0  0  0  0
 24 22  1  0  0  0  0
 26 25  1  0  0  0  0
 27 26  1  0  0  0  0
 28 27  1  0  0  0  0
 29 28  1  0  0  0  0
 30 29  1  0  0  0  0
 31 29  2  0  0  0  0
 33 35  1  1  0  0  0
 33 32  1  0  0  0  0
 34 35  3  0  0  0  0
 36 33  1  0  0  0  0
 36 37  1  0  0  0  0
 38 37  1  0  0  0  0
M  END
>  <MODEL>
6

>  <REMARK>
 VINA RESULT:      -6.8      1.599      2.824
  Name = 
  14 active torsions:
  status: ('A' for Active; 'I' for Inactive)
    1  A    between atoms: N_3  and  C_7
    2  A    between atoms: N_3  and  C_36
    3  A    between atoms: C_5  and  C_6
    4  A    between atoms: C_5  and  O_27
    5  A    between atoms: C_8  and  C_9
    6  A    between atoms: C_8  and  N_37
    7  A    between atoms: C_9  and  O_19
    8  A    between atoms: C_9  and  C_29
    9  A    between atoms: C_12  and  C_36
   10  A    between atoms: C_16  and  C_30
   11  A    between atoms: C_22  and  C_28
   12  A    between atoms: C_22  and  C_36
   13  A    between atoms: O_27  and  N_37
   14  A    between atoms: C_33  and  C_34
                            x       y       z     vdW  Elec       q    Type
                         _______ _______ _______ _____ _____    ______ ____

>  <TORSDO>
F 14

$$$$
=
 OpenBabel11042410013D

 38 40  0  0  1  0  0  0  0  0999 V2000
  189.1540  177.7880  139.2890 C   0  0  0  0  0  0  0  0  0  0  0  0
  189.7890  176.7040  138.9320 N   0  0  0  0  0  0  0  0  0  0  0  0
  189.1030  178.7390  136.8690 C   0  0  0  0  0  2  0  0  0  0  0  0
  189.0060  179.0010  138.3790 C   0  0  0  0  0  2  0  0  0  0  0  0
  190.4190  176.4850  137.6320 C   0  0  2  0  0  3  0  0  0  0  0  0
  189.3590  176.3710  136.5030 C   0  0  2  0  0  3  0  0  0  0  0  0
  188.4110  177.5030  136.5270 N   0  0  0  0  0  2  0  0  0  0  0  0
  186.7720  178.3020  142.1330 N   0  0  0  0  0  0  0  0  0  0  0  0
  187.5200  177.9790  143.1870 N   0  0  0  0  0  0  0  0  0  0  0  0
  189.3650  177.5210  141.7690 C   0  0  0  0  0  3  0  0  0  0  0  0
  188.5890  177.8560  140.6560 C   0  0  0  0  0  0  0  0  0  0  0  0
  188.8220  177.5920  143.0550 C   0  0  0  0  0  0  0  0  0  0  0  0
  187.2660  178.2600  140.8680 C   0  0  0  0  0  3  0  0  0  0  0  0
  191.0350  176.8310  146.6740 C   0  0  0  0  0  0  0  0  0  0  0  0
  190.9810  176.8620  144.2480 C   0  0  0  0  0  0  0  0  0  0  0  0
  189.0040  177.4500  145.5250 C   0  0  0  0  0  3  0  0  0  0  0  0
  189.7010  177.2320  146.7140 C   0  0  0  0  0  3  0  0  0  0  0  0
  191.6860  176.6640  143.0250 N   0  0  0  0  0  1  0  0  0  0  0  0
  191.6690  176.6420  145.4470 C   0  0  0  0  0  3  0  0  0  0  0  0
  189.6230  177.2780  144.2750 C   0  0  0  0  0  0  0  0  0  0  0  0
  191.7560  176.6330  147.8830 N   0  0  0  0  0  1  0  0  0  0  0  0
  188.5940  175.0230  136.5630 C   0  0  2  0  0  3  0  0  0  0  0  0
  189.4090  173.1330  135.5600 C   0  0  0  0  0  1  0  0  0  0  0  0
  188.6590  174.2990  135.3530 O   0  0  0  0  0  0  0  0  0  0  0  0
  187.1700  175.1120  137.1250 C   0  0  0  0  0  2  0  0  0  0  0  0
  186.7030  173.7910  137.4980 N   0  0  0  0  0  2  0  0  0  0  0  0
  185.5560  173.5780  136.8150 O   0  0  0  0  0  0  0  0  0  0  0  0
  184.8340  172.6930  137.6150 C   0  0  0  0  0  2  0  0  0  0  0  0
  183.7990  172.0060  136.7970 C   0  0  0  0  0  0  0  0  0  0  0  0
  182.5980  172.3820  136.8480 O   0  0  0  0  0  1  0  0  0  0  0  0
  184.1700  170.9730  135.9450 O   0  0  0  0  0  0  0  0  0  0  0  0
  191.3880  175.3100  137.6980 C   0  0  0  0  0  2  0  0  0  0  0  0
  192.8270  175.7860  137.5670 C   0  0  1  0  0  3  0  0  0  0  0  0
  193.4840  177.2510  139.6440 N   0  0  0  0  0  0  0  0  0  0  0  0
  193.1930  176.6030  138.7280 C   0  0  0  0  0  0  0  0  0  0  0  0
  193.7100  174.6330  137.4950 N   0  0  0  0  0  2  0  0  0  0  0  0
  194.8760  175.0180  136.7160 C   0  0  0  0  0  2  0  0  0  0  0  0
  196.0800  174.8300  137.5060 N   0  0  0  0  0  1  0  0  0  0  0  0
  1 11  1  0  0  0  0
  2  1  2  0  0  0  0
  3  4  1  0  0  0  0
  4  1  1  0  0  0  0
  5 32  1  1  0  0  0
  5  2  1  0  0  0  0
  6  7  1  0  0  0  0
  6 22  1  1  0  0  0
  6  5  1  0  0  0  0
  7  3  1  0  0  0  0
  8  9  1  0  0  0  0
 10 12  1  0  0  0  0
 11 13  1  0  0  0  0
 11 10  2  0  0  0  0
 12  9  2  0  0  0  0
 12 20  1  0  0  0  0
 13  8  2  0  0  0  0
 14 17  1  0  0  0  0
 14 21  1  0  0  0  0
 15 20  2  0  0  0  0
 15 19  1  0  0  0  0
 16 17  2  0  0  0  0
 18 15  1  0  0  0  0
 19 14  2  0  0  0  0
 20 16  1  0  0  0  0
 22 25  1  6  0  0  0
 24 23  1  0  0  0  0
 24 22  1  0  0  0  0
 25 26  1  0  0  0  0
 27 26  1  0  0  0  0
 27 28  1  0  0  0  0
 29 30  1  0  0  0  0
 29 28  1  0  0  0  0
 31 29  2  0  0  0  0
 33 32  1  1  0  0  0
 33 35  1  0  0  0  0
 35 34  3  0  0  0  0
 36 33  1  0  0  0  0
 37 36  1  0  0  0  0
 37 38  1  0  0  0  0
M  END
>  <MODEL>
7

>  <REMARK>
 VINA RESULT:      -6.5      5.642      8.018
  Name = 
  14 active torsions:
  status: ('A' for Active; 'I' for Inactive)
    1  A    between atoms: N_3  and  C_7
    2  A    between atoms: N_3  and  C_36
    3  A    between atoms: C_5  and  C_6
    4  A    between atoms: C_5  and  O_27
    5  A    between atoms: C_8  and  C_9
    6  A    between atoms: C_8  and  N_37
    7  A    between atoms: C_9  and  O_19
    8  A    between atoms: C_9  and  C_29
    9  A    between atoms: C_12  and  C_36
   10  A    between atoms: C_16  and  C_30
   11  A    between atoms: C_22  and  C_28
   12  A    between atoms: C_22  and  C_36
   13  A    between atoms: O_27  and  N_37
   14  A    between atoms: C_33  and  C_34
                            x       y       z     vdW  Elec       q    Type
                         _______ _______ _______ _____ _____    ______ ____

>  <TORSDO>
F 14

$$$$
=
 OpenBabel11042410013D

 38 40  0  0  1  0  0  0  0  0999 V2000
  188.5710  177.8270  139.3740 C   0  0  0  0  0  0  0  0  0  0  0  0
  188.5630  176.6590  138.7910 N   0  0  0  0  0  0  0  0  0  0  0  0
  189.0490  179.1010  137.1580 C   0  0  0  0  0  2  0  0  0  0  0  0
  189.0800  179.0910  138.6930 C   0  0  0  0  0  2  0  0  0  0  0  0
  189.0080  176.3950  137.4240 C   0  0  2  0  0  3  0  0  0  0  0  0
  188.0550  177.0460  136.3850 C   0  0  2  0  0  3  0  0  0  0  0  0
  187.8240  178.4750  136.6760 N   0  0  0  0  0  2  0  0  0  0  0  0
  186.3910  178.3780  142.3700 N   0  0  0  0  0  0  0  0  0  0  0  0
  187.2150  178.0830  143.3740 N   0  0  0  0  0  0  0  0  0  0  0  0
  188.9600  177.6130  141.8380 C   0  0  0  0  0  3  0  0  0  0  0  0
  188.1040  177.9180  140.7770 C   0  0  0  0  0  0  0  0  0  0  0  0
  188.5080  177.7050  143.1580 C   0  0  0  0  0  0  0  0  0  0  0  0
  186.7950  178.3140  141.0740 C   0  0  0  0  0  3  0  0  0  0  0  0
  191.1720  176.7570  146.4100 C   0  0  0  0  0  0  0  0  0  0  0  0
  188.9620  177.4420  145.6770 C   0  0  0  0  0  0  0  0  0  0  0  0
  190.7320  177.0740  144.0580 C   0  0  0  0  0  3  0  0  0  0  0  0
  191.6120  176.7430  145.0880 C   0  0  0  0  0  3  0  0  0  0  0  0
  187.6260  177.7830  146.0370 N   0  0  0  0  0  1  0  0  0  0  0  0
  189.8560  177.1100  146.7020 C   0  0  0  0  0  3  0  0  0  0  0  0
  189.3970  177.4240  144.3240 C   0  0  0  0  0  0  0  0  0  0  0  0
  192.0590  176.3950  147.4600 N   0  0  0  0  0  1  0  0  0  0  0  0
  186.7060  176.2880  136.2860 C   0  0  2  0  0  3  0  0  0  0  0  0
  186.0580  174.2530  135.4610 C   0  0  0  0  0  1  0  0  0  0  0  0
  186.6030  175.4990  135.1200 O   0  0  0  0  0  0  0  0  0  0  0  0
  185.4610  177.1490  136.5300 C   0  0  0  0  0  2  0  0  0  0  0  0
  184.6570  176.5680  137.5870 N   0  0  0  0  0  2  0  0  0  0  0  0
  183.5940  177.3850  137.7610 O   0  0  0  0  0  0  0  0  0  0  0  0
  183.6660  177.7680  139.1000 C   0  0  0  0  0  2  0  0  0  0  0  0
  183.3900  179.2250  139.2200 C   0  0  0  0  0  0  0  0  0  0  0  0
  182.2200  179.6310  139.4520 O   0  0  0  0  0  1  0  0  0  0  0  0
  184.4350  180.1340  139.1150 O   0  0  0  0  0  0  0  0  0  0  0  0
  189.2340  174.9020  137.2140 C   0  0  0  0  0  2  0  0  0  0  0  0
  190.7200  174.5720  137.2220 C   0  0  1  0  0  3  0  0  0  0  0  0
  191.2440  172.7650  135.3930 N   0  0  0  0  0  0  0  0  0  0  0  0
  191.0140  173.5620  136.2000 C   0  0  0  0  0  0  0  0  0  0  0  0
  191.4810  175.7780  136.9370 N   0  0  0  0  0  2  0  0  0  0  0  0
  192.4940  175.9150  137.9720 C   0  0  0  0  0  2  0  0  0  0  0  0
  193.7350  176.3890  137.3870 N   0  0  0  0  0  1  0  0  0  0  0  0
  1 11  1  0  0  0  0
  2  1  2  0  0  0  0
  3  4  1  0  0  0  0
  4  1  1  0  0  0  0
  5 32  1  6  0  0  0
  5  2  1  0  0  0  0
  6 22  1  1  0  0  0
  6  7  1  0  0  0  0
  6  5  1  0  0  0  0
  7  3  1  0  0  0  0
  8  9  1  0  0  0  0
 10 12  1  0  0  0  0
 11 13  1  0  0  0  0
 11 10  2  0  0  0  0
 12  9  2  0  0  0  0
 12 20  1  0  0  0  0
 13  8  2  0  0  0  0
 14 19  1  0  0  0  0
 14 21  1  0  0  0  0
 15 18  1  0  0  0  0
 15 19  2  0  0  0  0
 16 20  2  0  0  0  0
 16 17  1  0  0  0  0
 17 14  2  0  0  0  0
 20 15  1  0  0  0  0
 22 25  1  6  0  0  0
 24 23  1  0  0  0  0
 24 22  1  0  0  0  0
 25 26  1  0  0  0  0
 26 27  1  0  0  0  0
 27 28  1  0  0  0  0
 28 29  1  0  0  0  0
 29 30  1  0  0  0  0
 31 29  2  0  0  0  0
 32 33  1  0  0  0  0
 33 35  1  6  0  0  0
 34 35  3  0  0  0  0
 36 33  1  0  0  0  0
 36 37  1  0  0  0  0
 38 37  1  0  0  0  0
M  END
>  <MODEL>
8

>  <REMARK>
 VINA RESULT:      -6.5      4.436      6.261
  Name = 
  14 active torsions:
  status: ('A' for Active; 'I' for Inactive)
    1  A    between atoms: N_3  and  C_7
    2  A    between atoms: N_3  and  C_36
    3  A    between atoms: C_5  and  C_6
    4  A    between atoms: C_5  and  O_27
    5  A    between atoms: C_8  and  C_9
    6  A    between atoms: C_8  and  N_37
    7  A    between atoms: C_9  and  O_19
    8  A    between atoms: C_9  and  C_29
    9  A    between atoms: C_12  and  C_36
   10  A    between atoms: C_16  and  C_30
   11  A    between atoms: C_22  and  C_28
   12  A    between atoms: C_22  and  C_36
   13  A    between atoms: O_27  and  N_37
   14  A    between atoms: C_33  and  C_34
                            x       y       z     vdW  Elec       q    Type
                         _______ _______ _______ _____ _____    ______ ____

>  <TORSDO>
F 14

$$$$
=
 OpenBabel11042410013D

 38 40  0  0  1  0  0  0  0  0999 V2000
  182.4680  178.8070  141.2460 C   0  0  0  0  0  0  0  0  0  0  0  0
  182.0970  179.0470  140.0170 N   0  0  0  0  0  0  0  0  0  0  0  0
  180.0620  178.1880  142.0130 C   0  0  0  0  0  2  0  0  0  0  0  0
  181.4800  178.6380  142.3930 C   0  0  0  0  0  2  0  0  0  0  0  0
  180.7140  179.1650  139.5610 C   0  0  2  0  0  3  0  0  0  0  0  0
  179.9760  177.8010  139.6360 C   0  0  2  0  0  3  0  0  0  0  0  0
  180.1180  177.1760  140.9670 N   0  0  0  0  0  2  0  0  0  0  0  0
  186.1900  178.7810  140.8280 N   0  0  0  0  0  0  0  0  0  0  0  0
  186.6110  178.6210  142.0820 N   0  0  0  0  0  0  0  0  0  0  0  0
  184.3710  178.5690  142.8550 C   0  0  0  0  0  3  0  0  0  0  0  0
  183.9170  178.7370  141.5440 C   0  0  0  0  0  0  0  0  0  0  0  0
  185.7410  178.5030  143.1250 C   0  0  0  0  0  0  0  0  0  0  0  0
  184.8680  178.8360  140.5220 C   0  0  0  0  0  3  0  0  0  0  0  0
  187.3750  177.7280  147.0360 C   0  0  0  0  0  0  0  0  0  0  0  0
  185.5150  178.5080  145.6880 C   0  0  0  0  0  0  0  0  0  0  0  0
  187.5790  177.7950  144.6320 C   0  0  0  0  0  3  0  0  0  0  0  0
  188.1290  177.5150  145.8840 C   0  0  0  0  0  3  0  0  0  0  0  0
  184.1790  179.0060  145.6510 N   0  0  0  0  0  1  0  0  0  0  0  0
  186.0780  178.2270  146.9390 C   0  0  0  0  0  3  0  0  0  0  0  0
  186.2700  178.2880  144.5040 C   0  0  0  0  0  0  0  0  0  0  0  0
  187.9220  177.4200  148.3120 N   0  0  0  0  0  1  0  0  0  0  0  0
  180.4500  176.8270  138.5270 C   0  0  2  0  0  3  0  0  0  0  0  0
  179.6750  176.5500  136.3900 C   0  0  0  0  0  1  0  0  0  0  0  0
  179.3870  176.3260  137.7440 O   0  0  0  0  0  0  0  0  0  0  0  0
  181.4080  175.7260  138.9980 C   0  0  0  0  0  2  0  0  0  0  0  0
  182.7620  176.0430  138.5920 N   0  0  0  0  0  2  0  0  0  0  0  0
  183.3830  174.8660  138.3550 O   0  0  0  0  0  0  0  0  0  0  0  0
  182.7400  174.3540  137.2290 C   0  0  0  0  0  2  0  0  0  0  0  0
  183.3300  173.0360  136.8700 C   0  0  0  0  0  0  0  0  0  0  0  0
  184.3650  172.6240  137.4580 O   0  0  0  0  0  1  0  0  0  0  0  0
  182.7120  172.2430  135.9110 O   0  0  0  0  0  0  0  0  0  0  0  0
  180.6580  179.8300  138.1900 C   0  0  0  0  0  2  0  0  0  0  0  0
  180.1560  181.2620  138.3020 C   0  0  1  0  0  3  0  0  0  0  0  0
  178.9950  181.6240  140.6290 N   0  0  0  0  0  0  0  0  0  0  0  0
  179.5080  181.4660  139.6020 C   0  0  0  0  0  0  0  0  0  0  0  0
  181.2800  182.1760  138.1790 N   0  0  0  0  0  2  0  0  0  0  0  0
  180.8310  183.3270  137.4120 C   0  0  0  0  0  2  0  0  0  0  0  0
  181.9290  184.2610  137.2370 N   0  0  0  0  0  1  0  0  0  0  0  0
  1 11  1  0  0  0  0
  1  4  1  0  0  0  0
  2  1  2  0  0  0  0
  3  4  1  0  0  0  0
  5 32  1  6  0  0  0
  5  6  1  0  0  0  0
  5  2  1  0  0  0  0
  6 22  1  6  0  0  0
  6  7  1  0  0  0  0
  7  3  1  0  0  0  0
  8  9  1  0  0  0  0
  9 12  2  0  0  0  0
 10 12  1  0  0  0  0
 11 10  2  0  0  0  0
 12 20  1  0  0  0  0
 13  8  2  0  0  0  0
 13 11  1  0  0  0  0
 14 21  1  0  0  0  0
 15 19  2  0  0  0  0
 16 17  1  0  0  0  0
 17 14  2  0  0  0  0
 18 15  1  0  0  0  0
 19 14  1  0  0  0  0
 20 16  2  0  0  0  0
 20 15  1  0  0  0  0
 22 25  1  1  0  0  0
 23 24  1  0  0  0  0
 24 22  1  0  0  0  0
 26 25  1  0  0  0  0
 27 26  1  0  0  0  0
 28 27  1  0  0  0  0
 29 28  1  0  0  0  0
 29 30  1  0  0  0  0
 31 29  2  0  0  0  0
 33 32  1  1  0  0  0
 33 35  1  0  0  0  0
 35 34  3  0  0  0  0
 36 33  1  0  0  0  0
 37 36  1  0  0  0  0
 38 37  1  0  0  0  0
M  END
>  <MODEL>
9

>  <REMARK>
 VINA RESULT:      -6.4      2.654      5.334
  Name = 
  14 active torsions:
  status: ('A' for Active; 'I' for Inactive)
    1  A    between atoms: N_3  and  C_7
    2  A    between atoms: N_3  and  C_36
    3  A    between atoms: C_5  and  C_6
    4  A    between atoms: C_5  and  O_27
    5  A    between atoms: C_8  and  C_9
    6  A    between atoms: C_8  and  N_37
    7  A    between atoms: C_9  and  O_19
    8  A    between atoms: C_9  and  C_29
    9  A    between atoms: C_12  and  C_36
   10  A    between atoms: C_16  and  C_30
   11  A    between atoms: C_22  and  C_28
   12  A    between atoms: C_22  and  C_36
   13  A    between atoms: O_27  and  N_37
   14  A    between atoms: C_33  and  C_34
                            x       y       z     vdW  Elec       q    Type
                         _______ _______ _______ _____ _____    ______ ____

>  <TORSDO>
F 14

$$$$
