=
 OpenBabel11032420153D

 28 30  0  0  1  0  0  0  0  0999 V2000
  190.5290  176.9430  144.3040 N   0  0  0  0  0  0  0  0  0  0  0  0
  190.3360  177.3300  142.1490 C   0  0  1  0  0  3  0  0  0  0  0  0
  186.1270  177.9900  143.8980 C   0  0  0  0  0  0  0  0  0  0  0  0
  189.0000  177.5060  142.7910 C   0  0  0  0  0  0  0  0  0  0  0  0
  191.1920  176.7700  143.1270 O   0  0  0  0  0  0  0  0  0  0  0  0
  187.8790  177.9070  142.0970 C   0  0  0  0  0  3  0  0  0  0  0  0
  188.2120  177.2880  145.1560 C   0  0  0  0  0  0  0  0  0  0  0  0
  186.6120  178.1090  142.6030 C   0  0  0  0  0  3  0  0  0  0  0  0
  184.7610  178.2160  144.0100 O   0  0  0  0  0  1  0  0  0  0  0  0
  188.6280  176.9530  146.3010 O   0  0  0  0  0  0  0  0  0  0  0  0
  186.8510  177.6520  145.0700 C   0  0  0  0  0  0  0  0  0  0  0  0
  189.1550  177.2580  144.1150 C   0  0  0  0  0  0  0  0  0  0  0  0
  186.1720  177.6360  146.3040 O   0  0  0  0  0  0  0  0  0  0  0  0
  185.9010  178.7900  147.0910 C   0  0  0  0  0  1  0  0  0  0  0  0
  191.8990  176.2240  146.1950 C   0  0  0  0  0  1  0  0  0  0  0  0
  191.2730  177.4020  145.4730 C   0  0  0  0  0  2  0  0  0  0  0  0
  190.2380  176.4200  141.0180 N   0  0  0  0  0  2  0  0  0  0  0  0
  189.3500  177.5350  137.8500 C   0  0  2  0  0  3  0  0  0  0  0  0
  190.6990  177.1410  139.8420 C   0  0  2  0  0  3  0  0  0  0  0  0
  189.5680  177.9850  139.2810 C   0  0  0  0  0  2  0  0  0  0  0  0
  190.5900  176.7580  137.4640 C   0  0  0  0  0  2  0  0  0  0  0  0
  191.0940  176.1590  138.7560 C   0  0  0  0  0  2  0  0  0  0  0  0
  189.1660  178.7420  136.9450 C   0  0  0  0  0  2  0  0  0  0  0  0
  187.8050  179.2450  137.0440 N   0  0  0  0  0  2  0  0  0  0  0  0
  186.9150  178.1140  136.8380 C   0  0  0  0  0  2  0  0  0  0  0  0
  186.1020  178.5640  139.0250 O   0  0  0  0  0  1  0  0  0  0  0  0
  185.6950  178.2480  137.7290 C   0  0  0  0  0  3  0  0  0  0  0  0
  184.9880  177.0460  137.7470 O   0  0  0  0  0  1  0  0  0  0  0  0
  1 16  1  0  0  0  0
  2 17  1  6  0  0  0
  2  4  1  0  0  0  0
  2  5  1  0  0  0  0
  3  9  1  0  0  0  0
  3 11  2  0  0  0  0
  4 12  2  0  0  0  0
  5  1  1  0  0  0  0
  6  8  2  0  0  0  0
  6  4  1  0  0  0  0
  7 10  2  0  0  0  0
  8  3  1  0  0  0  0
 11  7  1  0  0  0  0
 11 13  1  0  0  0  0
 12  1  1  0  0  0  0
 12  7  1  0  0  0  0
 13 14  1  0  0  0  0
 16 15  1  0  0  0  0
 18 23  1  6  0  0  0
 18 20  1  0  0  0  0
 19 17  1  1  0  0  0
 20 19  1  0  0  0  0
 21 18  1  0  0  0  0
 21 22  1  0  0  0  0
 22 19  1  0  0  0  0
 23 24  1  0  0  0  0
 25 24  1  0  0  0  0
 25 27  1  0  0  0  0
 27 28  1  0  0  0  0
 27 26  1  0  0  0  0
M  END
>  <MODEL>
1

>  <REMARK>
 VINA RESULT:      -7.7      0.000      0.000
  Name = 
  8 active torsions:
  status: ('A' for Active; 'I' for Inactive)
    1  A    between atoms: N_1  and  C_18
    2  A    between atoms: C_2  and  N_19
    3  A    between atoms: C_4  and  N_20
    4  A    between atoms: C_4  and  C_25
    5  A    between atoms: C_6  and  C_23
    6  A    between atoms: C_8  and  N_19
    7  A    between atoms: O_11  and  C_17
    8  A    between atoms: N_20  and  C_23
                            x       y       z     vdW  Elec       q    Type
                         _______ _______ _______ _____ _____    ______ ____

>  <TORSDO>
F 8

$$$$
=
 OpenBabel11032420153D

 28 30  0  0  1  0  0  0  0  0999 V2000
  187.8010  177.8090  146.7790 N   0  0  0  0  0  0  0  0  0  0  0  0
  186.0690  177.7650  145.4270 C   0  0  1  0  0  3  0  0  0  0  0  0
  189.6520  176.3980  142.8780 C   0  0  0  0  0  0  0  0  0  0  0  0
  187.2840  177.3500  144.6660 C   0  0  0  0  0  0  0  0  0  0  0  0
  186.5130  178.2410  146.6840 O   0  0  0  0  0  0  0  0  0  0  0  0
  187.2460  176.9560  143.3460 C   0  0  0  0  0  3  0  0  0  0  0  0
  189.6870  177.0920  145.3150 C   0  0  0  0  0  0  0  0  0  0  0  0
  188.3070  176.5450  142.5670 C   0  0  0  0  0  3  0  0  0  0  0  0
  190.4410  176.0180  141.7990 O   0  0  0  0  0  1  0  0  0  0  0  0
  190.4620  177.2750  146.2950 O   0  0  0  0  0  0  0  0  0  0  0  0
  190.2840  176.6100  144.1300 C   0  0  0  0  0  0  0  0  0  0  0  0
  188.3300  177.3900  145.5270 C   0  0  0  0  0  0  0  0  0  0  0  0
  191.6640  176.3530  144.2450 O   0  0  0  0  0  0  0  0  0  0  0  0
  192.2310  175.0610  144.4250 C   0  0  0  0  0  1  0  0  0  0  0  0
  188.8010  178.3360  148.9450 C   0  0  0  0  0  1  0  0  0  0  0  0
  188.2640  177.2410  148.0410 C   0  0  0  0  0  2  0  0  0  0  0  0
  185.3740  178.8340  144.7260 N   0  0  0  0  0  2  0  0  0  0  0  0
  182.9530  179.0780  142.2480 C   0  0  2  0  0  3  0  0  0  0  0  0
  184.1190  178.2860  144.2360 C   0  0  2  0  0  3  0  0  0  0  0  0
  184.1320  178.2510  142.7180 C   0  0  0  0  0  2  0  0  0  0  0  0
  182.0450  179.2320  143.4490 C   0  0  0  0  0  2  0  0  0  0  0  0
  182.9680  179.1860  144.6440 C   0  0  0  0  0  2  0  0  0  0  0  0
  182.2330  178.3630  141.1160 C   0  0  0  0  0  2  0  0  0  0  0  0
  182.4420  179.0670  139.8600 N   0  0  0  0  0  2  0  0  0  0  0  0
  183.3930  178.2870  139.0850 C   0  0  0  0  0  2  0  0  0  0  0  0
  185.6630  178.7350  139.6280 O   0  0  0  0  0  1  0  0  0  0  0  0
  184.6230  179.1230  138.7840 C   0  0  0  0  0  3  0  0  0  0  0  0
  184.3390  180.4730  138.9900 O   0  0  0  0  0  1  0  0  0  0  0  0
  1 16  1  0  0  0  0
  2 17  1  6  0  0  0
  2  5  1  0  0  0  0
  3 11  2  0  0  0  0
  4  2  1  0  0  0  0
  4 12  2  0  0  0  0
  5  1  1  0  0  0  0
  6  4  1  0  0  0  0
  7 12  1  0  0  0  0
  7 10  2  0  0  0  0
  8  3  1  0  0  0  0
  8  6  2  0  0  0  0
  9  3  1  0  0  0  0
 11 13  1  0  0  0  0
 11  7  1  0  0  0  0
 12  1  1  0  0  0  0
 13 14  1  0  0  0  0
 16 15  1  0  0  0  0
 18 23  1  6  0  0  0
 18 20  1  0  0  0  0
 18 21  1  0  0  0  0
 19 22  1  0  0  0  0
 19 17  1  6  0  0  0
 20 19  1  0  0  0  0
 21 22  1  0  0  0  0
 24 23  1  0  0  0  0
 25 24  1  0  0  0  0
 27 28  1  0  0  0  0
 27 25  1  0  0  0  0
 27 26  1  0  0  0  0
M  END
>  <MODEL>
2

>  <REMARK>
 VINA RESULT:      -7.6      3.136      5.614
  Name = 
  8 active torsions:
  status: ('A' for Active; 'I' for Inactive)
    1  A    between atoms: N_1  and  C_18
    2  A    between atoms: C_2  and  N_19
    3  A    between atoms: C_4  and  N_20
    4  A    between atoms: C_4  and  C_25
    5  A    between atoms: C_6  and  C_23
    6  A    between atoms: C_8  and  N_19
    7  A    between atoms: O_11  and  C_17
    8  A    between atoms: N_20  and  C_23
                            x       y       z     vdW  Elec       q    Type
                         _______ _______ _______ _____ _____    ______ ____

>  <TORSDO>
F 8

$$$$
=
 OpenBabel11032420153D

 28 30  0  0  1  0  0  0  0  0999 V2000
  182.1710  178.7680  143.3930 N   0  0  0  0  0  0  0  0  0  0  0  0
  184.1680  178.9130  144.3000 C   0  0  1  0  0  3  0  0  0  0  0  0
  184.8850  178.8690  139.7520 C   0  0  0  0  0  0  0  0  0  0  0  0
  184.3160  178.8740  142.8160 C   0  0  0  0  0  0  0  0  0  0  0  0
  182.8120  178.6260  144.5860 O   0  0  0  0  0  0  0  0  0  0  0  0
  185.5330  178.9770  142.1780 C   0  0  0  0  0  3  0  0  0  0  0  0
  182.6570  178.7170  140.9490 C   0  0  0  0  0  0  0  0  0  0  0  0
  185.7680  178.9650  140.8190 C   0  0  0  0  0  3  0  0  0  0  0  0
  185.5080  178.8250  138.5100 O   0  0  0  0  0  1  0  0  0  0  0  0
  181.4180  178.5770  140.7480 O   0  0  0  0  0  0  0  0  0  0  0  0
  183.4700  178.7910  139.7970 C   0  0  0  0  0  0  0  0  0  0  0  0
  183.0700  178.7830  142.2900 C   0  0  0  0  0  0  0  0  0  0  0  0
  182.7540  178.7500  138.5840 O   0  0  0  0  0  0  0  0  0  0  0  0
  182.5960  177.5870  137.7800 C   0  0  0  0  0  1  0  0  0  0  0  0
  179.8140  178.6380  144.0220 C   0  0  0  0  0  1  0  0  0  0  0  0
  180.8930  179.4720  143.3570 C   0  0  0  0  0  2  0  0  0  0  0  0
  185.0140  177.9040  144.9190 N   0  0  0  0  0  2  0  0  0  0  0  0
  187.9600  177.5010  146.7150 C   0  0  2  0  0  3  0  0  0  0  0  0
  186.0900  178.6020  145.6040 C   0  0  2  0  0  3  0  0  0  0  0  0
  187.4060  177.8840  145.3580 C   0  0  0  0  0  2  0  0  0  0  0  0
  187.2060  178.3380  147.7250 C   0  0  0  0  0  2  0  0  0  0  0  0
  185.8510  178.5770  147.1020 C   0  0  0  0  0  2  0  0  0  0  0  0
  189.4500  177.7950  146.7730 C   0  0  0  0  0  2  0  0  0  0  0  0
  190.2020  176.5620  146.9390 N   0  0  0  0  0  2  0  0  0  0  0  0
  191.4720  176.7390  146.2520 C   0  0  0  0  0  2  0  0  0  0  0  0
  191.7990  175.7150  144.1330 O   0  0  0  0  0  1  0  0  0  0  0  0
  191.2400  176.8300  144.7560 C   0  0  0  0  0  3  0  0  0  0  0  0
  191.8370  177.9870  144.2550 O   0  0  0  0  0  1  0  0  0  0  0  0
  1  5  1  0  0  0  0
  2  5  1  0  0  0  0
  2 17  1  1  0  0  0
  3 11  2  0  0  0  0
  3  8  1  0  0  0  0
  4  2  1  0  0  0  0
  6  4  1  0  0  0  0
  7 12  1  0  0  0  0
  8  6  2  0  0  0  0
  9  3  1  0  0  0  0
 10  7  2  0  0  0  0
 11  7  1  0  0  0  0
 12  4  2  0  0  0  0
 12  1  1  0  0  0  0
 13 11  1  0  0  0  0
 14 13  1  0  0  0  0
 16  1  1  0  0  0  0
 16 15  1  0  0  0  0
 18 23  1  6  0  0  0
 18 21  1  0  0  0  0
 19 17  1  6  0  0  0
 19 22  1  0  0  0  0
 20 19  1  0  0  0  0
 20 18  1  0  0  0  0
 22 21  1  0  0  0  0
 23 24  1  0  0  0  0
 25 24  1  0  0  0  0
 26 27  1  0  0  0  0
 27 25  1  0  0  0  0
 28 27  1  0  0  0  0
M  END
>  <MODEL>
3

>  <REMARK>
 VINA RESULT:      -7.6      3.682      8.343
  Name = 
  8 active torsions:
  status: ('A' for Active; 'I' for Inactive)
    1  A    between atoms: N_1  and  C_18
    2  A    between atoms: C_2  and  N_19
    3  A    between atoms: C_4  and  N_20
    4  A    between atoms: C_4  and  C_25
    5  A    between atoms: C_6  and  C_23
    6  A    between atoms: C_8  and  N_19
    7  A    between atoms: O_11  and  C_17
    8  A    between atoms: N_20  and  C_23
                            x       y       z     vdW  Elec       q    Type
                         _______ _______ _______ _____ _____    ______ ____

>  <TORSDO>
F 8

$$$$
=
 OpenBabel11032420153D

 28 30  0  0  1  0  0  0  0  0999 V2000
  184.4160  178.9070  140.0190 N   0  0  0  0  0  0  0  0  0  0  0  0
  185.2850  178.9720  142.0370 C   0  0  1  0  0  3  0  0  0  0  0  0
  188.7720  177.8790  139.2350 C   0  0  0  0  0  0  0  0  0  0  0  0
  186.3550  178.6020  141.0650 C   0  0  0  0  0  0  0  0  0  0  0  0
  184.0580  178.9350  141.3320 O   0  0  0  0  0  0  0  0  0  0  0  0
  187.6690  178.4070  141.4320 C   0  0  0  0  0  3  0  0  0  0  0  0
  186.3550  178.2790  138.5840 C   0  0  0  0  0  0  0  0  0  0  0  0
  188.7250  178.0790  140.6080 C   0  0  0  0  0  3  0  0  0  0  0  0
  190.0210  177.4920  138.7650 O   0  0  0  0  0  1  0  0  0  0  0  0
  185.5670  178.2660  137.5970 O   0  0  0  0  0  0  0  0  0  0  0  0
  187.7100  178.0000  138.3020 C   0  0  0  0  0  0  0  0  0  0  0  0
  185.7870  178.5700  139.8350 C   0  0  0  0  0  0  0  0  0  0  0  0
  187.9840  177.8010  136.9350 O   0  0  0  0  0  0  0  0  0  0  0  0
  188.0230  176.5310  136.2970 C   0  0  0  0  0  1  0  0  0  0  0  0
  182.2830  179.2330  138.8740 C   0  0  0  0  0  1  0  0  0  0  0  0
  183.6950  179.7510  139.0720 C   0  0  0  0  0  2  0  0  0  0  0  0
  185.2400  178.0120  143.1300 N   0  0  0  0  0  2  0  0  0  0  0  0
  186.3950  177.5680  146.3760 C   0  0  2  0  0  3  0  0  0  0  0  0
  185.7130  178.6940  144.3250 C   0  0  2  0  0  3  0  0  0  0  0  0
  186.8340  177.8940  144.9630 C   0  0  0  0  0  2  0  0  0  0  0  0
  185.2480  178.5060  146.6830 C   0  0  0  0  0  2  0  0  0  0  0  0
  184.5960  178.7760  145.3480 C   0  0  0  0  0  2  0  0  0  0  0  0
  187.5460  177.7860  147.3440 C   0  0  0  0  0  2  0  0  0  0  0  0
  188.8100  177.8270  146.6260 N   0  0  0  0  0  2  0  0  0  0  0  0
  189.6990  176.8740  147.2690 C   0  0  0  0  0  2  0  0  0  0  0  0
  192.0730  176.8080  147.1930 O   0  0  0  0  0  1  0  0  0  0  0  0
  190.9300  176.6560  146.4100 C   0  0  0  0  0  3  0  0  0  0  0  0
  190.9530  177.5870  145.3720 O   0  0  0  0  0  1  0  0  0  0  0  0
  1  5  1  0  0  0  0
  2 17  1  1  0  0  0
  3  8  1  0  0  0  0
  4  6  1  0  0  0  0
  4  2  1  0  0  0  0
  5  2  1  0  0  0  0
  7 12  1  0  0  0  0
  8  6  2  0  0  0  0
  9  3  1  0  0  0  0
 10  7  2  0  0  0  0
 11  7  1  0  0  0  0
 11  3  2  0  0  0  0
 12  1  1  0  0  0  0
 12  4  2  0  0  0  0
 13 11  1  0  0  0  0
 14 13  1  0  0  0  0
 15 16  1  0  0  0  0
 16  1  1  0  0  0  0
 18 21  1  0  0  0  0
 18 23  1  1  0  0  0
 19 17  1  6  0  0  0
 19 20  1  0  0  0  0
 19 22  1  0  0  0  0
 20 18  1  0  0  0  0
 22 21  1  0  0  0  0
 24 25  1  0  0  0  0
 24 23  1  0  0  0  0
 27 26  1  0  0  0  0
 27 25  1  0  0  0  0
 28 27  1  0  0  0  0
M  END
>  <MODEL>
4

>  <REMARK>
 VINA RESULT:      -7.4      2.512      8.407
  Name = 
  8 active torsions:
  status: ('A' for Active; 'I' for Inactive)
    1  A    between atoms: N_1  and  C_18
    2  A    between atoms: C_2  and  N_19
    3  A    between atoms: C_4  and  N_20
    4  A    between atoms: C_4  and  C_25
    5  A    between atoms: C_6  and  C_23
    6  A    between atoms: C_8  and  N_19
    7  A    between atoms: O_11  and  C_17
    8  A    between atoms: N_20  and  C_23
                            x       y       z     vdW  Elec       q    Type
                         _______ _______ _______ _____ _____    ______ ____

>  <TORSDO>
F 8

$$$$
=
 OpenBabel11032420153D

 28 30  0  0  1  0  0  0  0  0999 V2000
  190.5940  176.8950  144.3590 N   0  0  0  0  0  0  0  0  0  0  0  0
  188.4140  177.1780  144.3450 C   0  0  1  0  0  3  0  0  0  0  0  0
  189.7560  177.7720  139.9810 C   0  0  0  0  0  0  0  0  0  0  0  0
  188.9330  177.3740  142.9600 C   0  0  0  0  0  0  0  0  0  0  0  0
  189.5410  177.0930  145.1990 O   0  0  0  0  0  0  0  0  0  0  0  0
  188.1160  177.6300  141.8800 C   0  0  0  0  0  3  0  0  0  0  0  0
  191.2320  177.2660  141.9780 C   0  0  0  0  0  0  0  0  0  0  0  0
  188.4990  177.8110  140.5680 C   0  0  0  0  0  3  0  0  0  0  0  0
  189.7530  178.0710  138.6240 O   0  0  0  0  0  1  0  0  0  0  0  0
  192.4380  177.1090  142.3200 O   0  0  0  0  0  0  0  0  0  0  0  0
  190.9990  177.4920  140.6040 C   0  0  0  0  0  0  0  0  0  0  0  0
  190.2760  177.1950  143.0050 C   0  0  0  0  0  0  0  0  0  0  0  0
  192.1620  177.4520  139.8100 O   0  0  0  0  0  0  0  0  0  0  0  0
  192.3830  176.5310  138.7480 C   0  0  0  0  0  1  0  0  0  0  0  0
  191.8600  175.9220  146.2080 C   0  0  0  0  0  1  0  0  0  0  0  0
  191.6020  175.9010  144.7130 C   0  0  0  0  0  2  0  0  0  0  0  0
  187.5940  178.3120  144.7440 N   0  0  0  0  0  2  0  0  0  0  0  0
  184.2200  179.1360  144.8200 C   0  0  2  0  0  3  0  0  0  0  0  0
  186.2540  177.8060  145.0040 C   0  0  2  0  0  3  0  0  0  0  0  0
  185.2770  178.4100  144.0110 C   0  0  0  0  0  2  0  0  0  0  0  0
  184.3440  178.6130  146.2340 C   0  0  0  0  0  2  0  0  0  0  0  0
  185.7990  178.2370  146.3850 C   0  0  0  0  0  2  0  0  0  0  0  0
  182.8390  178.8450  144.2560 C   0  0  0  0  0  2  0  0  0  0  0  0
  182.8430  178.9960  142.8090 N   0  0  0  0  0  2  0  0  0  0  0  0
  181.5190  178.6220  142.3360 C   0  0  0  0  0  2  0  0  0  0  0  0
  179.3110  178.4240  143.1890 O   0  0  0  0  0  1  0  0  0  0  0  0
  180.4600  179.2110  143.2480 C   0  0  0  0  0  3  0  0  0  0  0  0
  180.1540  180.5090  142.8400 O   0  0  0  0  0  1  0  0  0  0  0  0
  1 16  1  0  0  0  0
  1  5  1  0  0  0  0
  2 17  1  1  0  0  0
  2  5  1  0  0  0  0
  3  8  1  0  0  0  0
  3 11  2  0  0  0  0
  4 12  2  0  0  0  0
  4  2  1  0  0  0  0
  6  4  1  0  0  0  0
  7 10  2  0  0  0  0
  7 12  1  0  0  0  0
  8  6  2  0  0  0  0
  9  3  1  0  0  0  0
 11  7  1  0  0  0  0
 12  1  1  0  0  0  0
 13 11  1  0  0  0  0
 14 13  1  0  0  0  0
 16 15  1  0  0  0  0
 18 23  1  6  0  0  0
 18 21  1  0  0  0  0
 19 17  1  6  0  0  0
 19 22  1  0  0  0  0
 20 18  1  0  0  0  0
 20 19  1  0  0  0  0
 21 22  1  0  0  0  0
 24 23  1  0  0  0  0
 25 24  1  0  0  0  0
 25 27  1  0  0  0  0
 26 27  1  0  0  0  0
 28 27  1  0  0  0  0
M  END
>  <MODEL>
5

>  <REMARK>
 VINA RESULT:      -7.2      2.983      6.512
  Name = 
  8 active torsions:
  status: ('A' for Active; 'I' for Inactive)
    1  A    between atoms: N_1  and  C_18
    2  A    between atoms: C_2  and  N_19
    3  A    between atoms: C_4  and  N_20
    4  A    between atoms: C_4  and  C_25
    5  A    between atoms: C_6  and  C_23
    6  A    between atoms: C_8  and  N_19
    7  A    between atoms: O_11  and  C_17
    8  A    between atoms: N_20  and  C_23
                            x       y       z     vdW  Elec       q    Type
                         _______ _______ _______ _____ _____    ______ ____

>  <TORSDO>
F 8

$$$$
=
 OpenBabel11032420153D

 28 30  0  0  1  0  0  0  0  0999 V2000
  187.7270  177.7840  146.7240 N   0  0  0  0  0  0  0  0  0  0  0  0
  186.0370  177.7360  145.3200 C   0  0  1  0  0  3  0  0  0  0  0  0
  189.7020  176.3970  142.8750 C   0  0  0  0  0  0  0  0  0  0  0  0
  187.2760  177.3310  144.5940 C   0  0  0  0  0  0  0  0  0  0  0  0
  186.4410  178.2090  146.5910 O   0  0  0  0  0  0  0  0  0  0  0  0
  187.2800  176.9420  143.2720 C   0  0  0  0  0  3  0  0  0  0  0  0
  189.6600  177.0820  145.3140 C   0  0  0  0  0  0  0  0  0  0  0  0
  188.3660  176.5390  142.5240 C   0  0  0  0  0  3  0  0  0  0  0  0
  190.5250  176.0260  141.8180 O   0  0  0  0  0  1  0  0  0  0  0  0
  190.4040  177.2650  146.3180 O   0  0  0  0  0  0  0  0  0  0  0  0
  190.2950  176.6080  144.1460 C   0  0  0  0  0  0  0  0  0  0  0  0
  188.2960  177.3720  145.4860 C   0  0  0  0  0  0  0  0  0  0  0  0
  191.6720  176.3570  144.3010 O   0  0  0  0  0  0  0  0  0  0  0  0
  192.2400  175.0680  144.4950 C   0  0  0  0  0  1  0  0  0  0  0  0
  188.6610  178.3060  148.9200 C   0  0  0  0  0  1  0  0  0  0  0  0
  188.1550  177.2130  147.9970 C   0  0  0  0  0  2  0  0  0  0  0  0
  185.3580  178.8050  144.6030 N   0  0  0  0  0  2  0  0  0  0  0  0
  182.9070  179.1510  142.1650 C   0  0  2  0  0  3  0  0  0  0  0  0
  184.1150  178.2560  144.0840 C   0  0  2  0  0  3  0  0  0  0  0  0
  184.1150  178.3280  142.5670 C   0  0  0  0  0  2  0  0  0  0  0  0
  182.0070  179.1930  143.3800 C   0  0  0  0  0  2  0  0  0  0  0  0
  182.9420  179.0900  144.5630 C   0  0  0  0  0  2  0  0  0  0  0  0
  182.1980  178.4970  140.9900 C   0  0  0  0  0  2  0  0  0  0  0  0
  180.7770  178.8060  141.0220 N   0  0  0  0  0  2  0  0  0  0  0  0
  180.4800  179.5780  139.8270 C   0  0  0  0  0  2  0  0  0  0  0  0
  180.0630  181.8900  139.4730 O   0  0  0  0  0  1  0  0  0  0  0  0
  179.6230  180.7770  140.1870 C   0  0  0  0  0  3  0  0  0  0  0  0
  179.7200  181.0350  141.5540 O   0  0  0  0  0  1  0  0  0  0  0  0
  1 16  1  0  0  0  0
  2 17  1  6  0  0  0
  2  5  1  0  0  0  0
  3 11  2  0  0  0  0
  4  2  1  0  0  0  0
  4 12  2  0  0  0  0
  5  1  1  0  0  0  0
  6  4  1  0  0  0  0
  7 12  1  0  0  0  0
  7 10  2  0  0  0  0
  8  3  1  0  0  0  0
  8  6  2  0  0  0  0
  9  3  1  0  0  0  0
 11 13  1  0  0  0  0
 11  7  1  0  0  0  0
 12  1  1  0  0  0  0
 13 14  1  0  0  0  0
 16 15  1  0  0  0  0
 18 23  1  6  0  0  0
 18 20  1  0  0  0  0
 18 21  1  0  0  0  0
 19 22  1  0  0  0  0
 19 17  1  1  0  0  0
 20 19  1  0  0  0  0
 21 22  1  0  0  0  0
 23 24  1  0  0  0  0
 25 27  1  0  0  0  0
 25 24  1  0  0  0  0
 26 27  1  0  0  0  0
 27 28  1  0  0  0  0
M  END
>  <MODEL>
6

>  <REMARK>
 VINA RESULT:      -7.1      3.934      6.211
  Name = 
  8 active torsions:
  status: ('A' for Active; 'I' for Inactive)
    1  A    between atoms: N_1  and  C_18
    2  A    between atoms: C_2  and  N_19
    3  A    between atoms: C_4  and  N_20
    4  A    between atoms: C_4  and  C_25
    5  A    between atoms: C_6  and  C_23
    6  A    between atoms: C_8  and  N_19
    7  A    between atoms: O_11  and  C_17
    8  A    between atoms: N_20  and  C_23
                            x       y       z     vdW  Elec       q    Type
                         _______ _______ _______ _____ _____    ______ ____

>  <TORSDO>
F 8

$$$$
=
 OpenBabel11032420153D

 28 30  0  0  1  0  0  0  0  0999 V2000
  187.4620  178.0560  141.0680 N   0  0  0  0  0  0  0  0  0  0  0  0
  189.5720  177.5460  141.4090 C   0  0  1  0  0  3  0  0  0  0  0  0
  189.0840  177.7520  136.8350 C   0  0  0  0  0  0  0  0  0  0  0  0
  189.3260  177.6130  139.9390 C   0  0  0  0  0  0  0  0  0  0  0  0
  188.3090  177.6230  142.0420 O   0  0  0  0  0  0  0  0  0  0  0  0
  190.3200  177.4340  139.0010 C   0  0  0  0  0  3  0  0  0  0  0  0
  187.2840  178.1120  138.5820 C   0  0  0  0  0  0  0  0  0  0  0  0
  190.1930  177.4910  137.6290 C   0  0  0  0  0  3  0  0  0  0  0  0
  189.3350  177.6580  135.4720 O   0  0  0  0  0  1  0  0  0  0  0  0
  186.0500  178.3450  138.7170 O   0  0  0  0  0  0  0  0  0  0  0  0
  187.7670  178.0680  137.2560 C   0  0  0  0  0  0  0  0  0  0  0  0
  188.0190  177.9270  139.7650 C   0  0  0  0  0  0  0  0  0  0  0  0
  186.7930  178.3490  136.2790 O   0  0  0  0  0  0  0  0  0  0  0  0
  186.0250  177.3630  135.5990 C   0  0  0  0  0  1  0  0  0  0  0  0
  185.4490  178.5500  142.3600 C   0  0  0  0  0  1  0  0  0  0  0  0
  186.4830  179.0890  141.3890 C   0  0  0  0  0  2  0  0  0  0  0  0
  190.2080  176.2840  141.7580 N   0  0  0  0  0  2  0  0  0  0  0  0
  190.9300  177.1680  145.0390 C   0  0  2  0  0  3  0  0  0  0  0  0
  191.2770  176.5830  142.6990 C   0  0  2  0  0  3  0  0  0  0  0  0
  190.9360  176.0090  144.0620 C   0  0  0  0  0  2  0  0  0  0  0  0
  191.6560  178.3010  144.3470 C   0  0  0  0  0  2  0  0  0  0  0  0
  191.4050  178.0840  142.8740 C   0  0  0  0  0  2  0  0  0  0  0  0
  191.6430  176.7740  146.3220 C   0  0  0  0  0  2  0  0  0  0  0  0
  190.6770  176.3670  147.3320 N   0  0  0  0  0  2  0  0  0  0  0  0
  189.8370  177.5200  147.6110 C   0  0  0  0  0  2  0  0  0  0  0  0
  187.6850  177.3770  146.6160 O   0  0  0  0  0  1  0  0  0  0  0  0
  188.3960  177.0810  147.7780 C   0  0  0  0  0  3  0  0  0  0  0  0
  187.8190  177.7500  148.8570 O   0  0  0  0  0  1  0  0  0  0  0  0
  1 16  1  0  0  0  0
  1  5  1  0  0  0  0
  2 17  1  6  0  0  0
  2  5  1  0  0  0  0
  3 11  2  0  0  0  0
  3  8  1  0  0  0  0
  4  2  1  0  0  0  0
  6  4  1  0  0  0  0
  7 10  2  0  0  0  0
  7 12  1  0  0  0  0
  8  6  2  0  0  0  0
  9  3  1  0  0  0  0
 11  7  1  0  0  0  0
 12  4  2  0  0  0  0
 12  1  1  0  0  0  0
 13 11  1  0  0  0  0
 14 13  1  0  0  0  0
 16 15  1  0  0  0  0
 18 23  1  1  0  0  0
 19 17  1  6  0  0  0
 19 22  1  0  0  0  0
 19 20  1  0  0  0  0
 20 18  1  0  0  0  0
 21 18  1  0  0  0  0
 22 21  1  0  0  0  0
 23 24  1  0  0  0  0
 24 25  1  0  0  0  0
 25 27  1  0  0  0  0
 26 27  1  0  0  0  0
 27 28  1  0  0  0  0
M  END
>  <MODEL>
7

>  <REMARK>
 VINA RESULT:      -7.1      2.014      7.543
  Name = 
  8 active torsions:
  status: ('A' for Active; 'I' for Inactive)
    1  A    between atoms: N_1  and  C_18
    2  A    between atoms: C_2  and  N_19
    3  A    between atoms: C_4  and  N_20
    4  A    between atoms: C_4  and  C_25
    5  A    between atoms: C_6  and  C_23
    6  A    between atoms: C_8  and  N_19
    7  A    between atoms: O_11  and  C_17
    8  A    between atoms: N_20  and  C_23
                            x       y       z     vdW  Elec       q    Type
                         _______ _______ _______ _____ _____    ______ ____

>  <TORSDO>
F 8

$$$$
=
 OpenBabel11032420153D

 28 30  0  0  1  0  0  0  0  0999 V2000
  189.0470  177.1500  138.2800 N   0  0  0  0  0  0  0  0  0  0  0  0
  188.7470  177.6890  140.3900 C   0  0  1  0  0  3  0  0  0  0  0  0
  193.2770  176.9980  139.9300 C   0  0  0  0  0  0  0  0  0  0  0  0
  190.1990  177.4280  140.1620 C   0  0  0  0  0  0  0  0  0  0  0  0
  188.0670  177.2850  139.2160 O   0  0  0  0  0  0  0  0  0  0  0  0
  191.1530  177.5790  141.1440 C   0  0  0  0  0  3  0  0  0  0  0  0
  191.5050  176.7630  138.1330 C   0  0  0  0  0  0  0  0  0  0  0  0
  192.5120  177.3770  141.0250 C   0  0  0  0  0  3  0  0  0  0  0  0
  194.6260  176.8320  140.2170 O   0  0  0  0  0  1  0  0  0  0  0  0
  191.3400  176.4380  136.9240 O   0  0  0  0  0  0  0  0  0  0  0  0
  192.8360  176.7510  138.6050 C   0  0  0  0  0  0  0  0  0  0  0  0
  190.3470  177.0980  138.8550 C   0  0  0  0  0  0  0  0  0  0  0  0
  193.7910  176.4240  137.6230 O   0  0  0  0  0  0  0  0  0  0  0  0
  194.2920  175.1140  137.3890 C   0  0  0  0  0  1  0  0  0  0  0  0
  188.6130  179.1740  136.9840 C   0  0  0  0  0  1  0  0  0  0  0  0
  188.8170  177.6710  136.9370 C   0  0  0  0  0  2  0  0  0  0  0  0
  188.2640  176.9080  141.5180 N   0  0  0  0  0  2  0  0  0  0  0  0
  187.4900  177.1610  144.8950 C   0  0  2  0  0  3  0  0  0  0  0  0
  188.0240  177.8340  142.6140 C   0  0  2  0  0  3  0  0  0  0  0  0
  188.6230  177.2800  143.8950 C   0  0  0  0  0  2  0  0  0  0  0  0
  186.3630  178.0130  144.3530 C   0  0  0  0  0  2  0  0  0  0  0  0
  186.5330  177.9760  142.8530 C   0  0  0  0  0  2  0  0  0  0  0  0
  187.9410  177.6650  146.2560 C   0  0  0  0  0  2  0  0  0  0  0  0
  189.3830  177.8580  146.2710 N   0  0  0  0  0  2  0  0  0  0  0  0
  189.9100  177.0650  147.3700 C   0  0  0  0  0  2  0  0  0  0  0  0
  191.6050  176.6760  145.7510 O   0  0  0  0  0  1  0  0  0  0  0  0
  191.3730  176.7500  147.1230 C   0  0  0  0  0  3  0  0  0  0  0  0
  191.7010  175.5300  147.7150 O   0  0  0  0  0  1  0  0  0  0  0  0
  1 12  1  0  0  0  0
  1  5  1  0  0  0  0
  2 17  1  1  0  0  0
  3  9  1  0  0  0  0
  3  8  1  0  0  0  0
  4  2  1  0  0  0  0
  4  6  1  0  0  0  0
  5  2  1  0  0  0  0
  7 11  1  0  0  0  0
  7 12  1  0  0  0  0
  8  6  2  0  0  0  0
 10  7  2  0  0  0  0
 11  3  2  0  0  0  0
 12  4  2  0  0  0  0
 13 11  1  0  0  0  0
 14 13  1  0  0  0  0
 16 15  1  0  0  0  0
 16  1  1  0  0  0  0
 18 23  1  1  0  0  0
 19 17  1  6  0  0  0
 19 22  1  0  0  0  0
 19 20  1  0  0  0  0
 20 18  1  0  0  0  0
 21 18  1  0  0  0  0
 22 21  1  0  0  0  0
 23 24  1  0  0  0  0
 24 25  1  0  0  0  0
 26 27  1  0  0  0  0
 27 25  1  0  0  0  0
 27 28  1  0  0  0  0
M  END
>  <MODEL>
8

>  <REMARK>
 VINA RESULT:      -7.0      2.560      8.282
  Name = 
  8 active torsions:
  status: ('A' for Active; 'I' for Inactive)
    1  A    between atoms: N_1  and  C_18
    2  A    between atoms: C_2  and  N_19
    3  A    between atoms: C_4  and  N_20
    4  A    between atoms: C_4  and  C_25
    5  A    between atoms: C_6  and  C_23
    6  A    between atoms: C_8  and  N_19
    7  A    between atoms: O_11  and  C_17
    8  A    between atoms: N_20  and  C_23
                            x       y       z     vdW  Elec       q    Type
                         _______ _______ _______ _____ _____    ______ ____

>  <TORSDO>
F 8

$$$$
=
 OpenBabel11032420153D

 28 30  0  0  1  0  0  0  0  0999 V2000
  184.5700  179.1340  143.9310 N   0  0  0  0  0  0  0  0  0  0  0  0
  185.6500  178.4100  142.1580 C   0  0  1  0  0  3  0  0  0  0  0  0
  188.2610  177.2170  145.7580 C   0  0  0  0  0  0  0  0  0  0  0  0
  186.4460  178.0770  143.3750 C   0  0  0  0  0  0  0  0  0  0  0  0
  184.5960  179.2590  142.5750 O   0  0  0  0  0  0  0  0  0  0  0  0
  187.6300  177.3730  143.3300 C   0  0  0  0  0  3  0  0  0  0  0  0
  186.0640  178.4780  145.8160 C   0  0  0  0  0  0  0  0  0  0  0  0
  188.4250  177.0080  144.3950 C   0  0  0  0  0  3  0  0  0  0  0  0
  189.3200  176.7530  146.5300 O   0  0  0  0  0  1  0  0  0  0  0  0
  185.2550  179.0480  146.6000 O   0  0  0  0  0  0  0  0  0  0  0  0
  187.1780  177.8520  146.4170 C   0  0  0  0  0  0  0  0  0  0  0  0
  185.7550  178.5370  144.4460 C   0  0  0  0  0  0  0  0  0  0  0  0
  187.1830  177.9160  147.8240 O   0  0  0  0  0  0  0  0  0  0  0  0
  188.3050  178.3010  148.6090 C   0  0  0  0  0  1  0  0  0  0  0  0
  182.1550  179.0030  143.5870 C   0  0  0  0  0  1  0  0  0  0  0  0
  183.2820  178.9980  144.6030 C   0  0  0  0  0  2  0  0  0  0  0  0
  186.4770  179.1120  141.1890 N   0  0  0  0  0  2  0  0  0  0  0  0
  188.6450  178.5080  138.5420 C   0  0  2  0  0  3  0  0  0  0  0  0
  186.8740  178.1450  140.1780 C   0  0  2  0  0  3  0  0  0  0  0  0
  188.3820  178.1790  139.9980 C   0  0  0  0  0  2  0  0  0  0  0  0
  187.3430  178.2530  137.8150 C   0  0  0  0  0  2  0  0  0  0  0  0
  186.2650  178.5170  138.8390 C   0  0  0  0  0  2  0  0  0  0  0  0
  189.7510  177.6190  137.9980 C   0  0  0  0  0  2  0  0  0  0  0  0
  190.7710  177.4030  139.0120 N   0  0  0  0  0  2  0  0  0  0  0  0
  191.5260  176.2250  138.6180 C   0  0  0  0  0  2  0  0  0  0  0  0
  193.6700  175.4740  137.9230 O   0  0  0  0  0  1  0  0  0  0  0  0
  192.9650  176.6060  138.3310 C   0  0  0  0  0  3  0  0  0  0  0  0
  193.5550  177.1280  139.4820 O   0  0  0  0  0  1  0  0  0  0  0  0
  1 12  1  0  0  0  0
  1 16  1  0  0  0  0
  2 17  1  6  0  0  0
  2  5  1  0  0  0  0
  2  4  1  0  0  0  0
  3 11  2  0  0  0  0
  3  9  1  0  0  0  0
  4 12  2  0  0  0  0
  5  1  1  0  0  0  0
  6  4  1  0  0  0  0
  6  8  2  0  0  0  0
  7 11  1  0  0  0  0
  7 10  2  0  0  0  0
  8  3  1  0  0  0  0
 11 13  1  0  0  0  0
 12  7  1  0  0  0  0
 13 14  1  0  0  0  0
 15 16  1  0  0  0  0
 18 23  1  6  0  0  0
 18 20  1  0  0  0  0
 19 17  1  1  0  0  0
 20 19  1  0  0  0  0
 21 18  1  0  0  0  0
 21 22  1  0  0  0  0
 22 19  1  0  0  0  0
 23 24  1  0  0  0  0
 25 24  1  0  0  0  0
 26 27  1  0  0  0  0
 27 25  1  0  0  0  0
 27 28  1  0  0  0  0
M  END
>  <MODEL>
9

>  <REMARK>
 VINA RESULT:      -7.0      2.590      5.085
  Name = 
  8 active torsions:
  status: ('A' for Active; 'I' for Inactive)
    1  A    between atoms: N_1  and  C_18
    2  A    between atoms: C_2  and  N_19
    3  A    between atoms: C_4  and  N_20
    4  A    between atoms: C_4  and  C_25
    5  A    between atoms: C_6  and  C_23
    6  A    between atoms: C_8  and  N_19
    7  A    between atoms: O_11  and  C_17
    8  A    between atoms: N_20  and  C_23
                            x       y       z     vdW  Elec       q    Type
                         _______ _______ _______ _____ _____    ______ ____

>  <TORSDO>
F 8

$$$$
