=
 OpenBabel11032419143D

 30 34  0  0  1  0  0  0  0  0999 V2000
  192.4100  178.5830  144.9030 O   0  0  0  0  0  1  0  0  0  0  0  0
  191.3000  178.1880  144.1550 C   0  0  2  0  0  0  0  0  0  0  0  0
  190.6400  176.3120  143.0140 C   0  0  1  0  0  3  0  0  0  0  0  0
  190.1560  178.1150  144.8990 O   0  0  0  0  0  0  0  0  0  0  0  0
  190.6980  176.8500  144.4810 C   0  0  2  0  0  0  0  0  0  0  0  0
  191.0940  178.7110  142.7630 C   0  0  0  0  0  2  0  0  0  0  0  0
  189.4290  176.1800  143.8680 C   0  0  1  0  0  3  0  0  0  0  0  0
  190.7480  177.4650  141.9940 C   0  0  2  0  0  3  0  0  0  0  0  0
  188.4710  177.3380  138.8860 C   0  0  0  0  0  0  0  0  0  0  0  0
  189.5510  176.8500  139.8190 C   0  0  0  0  0  0  0  0  0  0  0  0
  192.2090  176.4890  137.1510 N   0  0  0  0  0  1  0  0  0  0  0  0
  188.4190  178.3330  141.5060 C   0  0  0  0  0  3  0  0  0  0  0  0
  187.4030  178.5280  140.6660 C   0  0  0  0  0  0  0  0  0  0  0  0
  189.7450  176.6410  136.9830 N   0  0  0  0  0  0  0  0  0  0  0  0
  188.5850  176.9830  137.4660 C   0  0  0  0  0  2  0  0  0  0  0  0
  187.4800  178.0600  139.3110 N   0  0  0  0  0  0  0  0  0  0  0  0
  190.9420  176.6320  137.7840 C   0  0  0  0  0  0  0  0  0  0  0  0
  189.5870  177.5960  141.0920 N   0  0  0  0  0  0  0  0  0  0  0  0
  190.8830  176.7960  139.1130 C   0  0  0  0  0  3  0  0  0  0  0  0
  186.2260  179.3340  141.1010 C   0  0  0  0  0  2  0  0  0  0  0  0
  185.0100  178.9770  140.3110 C   0  0  0  0  0  3  0  0  0  0  0  0
  184.5220  179.8050  139.4630 N   0  0  0  0  0  2  0  0  0  0  0  0
  188.3980  177.0940  143.4980 O   0  0  0  0  0  0  0  0  0  0  0  0
  186.1220  176.8720  143.6310 O   0  0  0  0  0  0  0  0  0  0  0  0
  187.1900  177.5840  145.5810 N   0  0  0  0  0  2  0  0  0  0  0  0
  187.2000  177.1710  144.2100 C   0  0  0  0  0  0  0  0  0  0  0  0
  185.9550  177.7060  146.3410 C   0  0  0  0  0  2  0  0  0  0  0  0
  185.3310  179.0720  146.1020 C   0  0  0  0  0  2  0  0  0  0  0  0
  183.9880  178.9360  145.4020 C   0  0  0  0  0  2  0  0  0  0  0  0
  184.0180  179.6290  144.1240 N   0  0  0  0  0  1  0  0  0  0  0  0
  2  5  1  0  0  0  0
  2  4  1  0  0  0  0
  2  1  1  1  0  0  0
  3  7  1  0  0  0  0
  3  5  1  0  0  0  0
  5  4  1  0  0  0  0
  6  2  1  0  0  0  0
  7  5  1  0  0  0  0
  8  6  1  0  0  0  0
  8  3  1  0  0  0  0
  9 16  2  0  0  0  0
  9 10  1  0  0  0  0
 10 18  1  0  0  0  0
 11 17  1  0  0  0  0
 13 20  1  0  0  0  0
 13 12  2  0  0  0  0
 14 15  1  0  0  0  0
 14 17  2  0  0  0  0
 15  9  1  0  0  0  0
 16 13  1  0  0  0  0
 17 19  1  0  0  0  0
 18 12  1  0  0  0  0
 18  8  1  0  0  0  0
 19 10  2  0  0  0  0
 21 20  1  0  0  0  0
 22 21  2  0  0  0  0
 23  7  1  0  0  0  0
 23 26  1  0  0  0  0
 24 26  2  0  0  0  0
 25 27  1  0  0  0  0
 26 25  1  0  0  0  0
 28 27  1  0  0  0  0
 29 28  1  0  0  0  0
 30 29  1  0  0  0  0
M  END
>  <MODEL>
1

>  <REMARK>
 VINA RESULT:      -6.4      0.000      0.000
  Name = 
  8 active torsions:
  status: ('A' for Active; 'I' for Inactive)
    1  A    between atoms: C_6  and  C_12
    2  A    between atoms: C_6  and  C_23
    3  A    between atoms: C_8  and  C_27
    4  A    between atoms: N_11  and  C_16
    5  A    between atoms: O_13  and  C_15
    6  A    between atoms: O_13  and  C_24
    7  A    between atoms: C_16  and  C_27
    8  A    between atoms: N_25  and  C_26
                            x       y       z     vdW  Elec       q    Type
                         _______ _______ _______ _____ _____    ______ ____

>  <TORSDO>
F 8

$$$$
=
 OpenBabel11032419143D

 30 34  0  0  1  0  0  0  0  0999 V2000
  194.7130  175.7600  134.7930 O   0  0  0  0  0  1  0  0  0  0  0  0
  193.5680  175.7690  135.5900 C   0  0  2  0  0  0  0  0  0  0  0  0
  192.2980  174.2170  136.7020 C   0  0  1  0  0  3  0  0  0  0  0  0
  193.7450  176.4390  136.7680 O   0  0  0  0  0  0  0  0  0  0  0  0
  193.6320  175.0100  136.8870 C   0  0  2  0  0  0  0  0  0  0  0  0
  192.2120  175.9590  134.9740 C   0  0  0  0  0  2  0  0  0  0  0  0
  192.5470  174.8970  138.0020 C   0  0  1  0  0  3  0  0  0  0  0  0
  191.3980  174.8810  135.6380 C   0  0  2  0  0  3  0  0  0  0  0  0
  187.7620  174.8760  136.9190 C   0  0  0  0  0  0  0  0  0  0  0  0
  189.1650  174.3440  136.7640 C   0  0  2  0  0  3  0  0  0  0  0  0
  188.1300  170.8980  135.5950 N   0  0  0  0  0  1  0  0  0  0  0  0
  189.7310  176.7170  136.1510 C   0  0  0  0  0  3  0  0  0  0  0  0
  188.5120  177.1120  136.5200 C   0  0  0  0  0  0  0  0  0  0  0  0
  186.8670  172.6590  136.7890 N   0  0  0  0  0  0  0  0  0  0  0  0
  186.6850  173.9020  137.1330 C   0  0  0  0  0  3  0  0  0  0  0  0
  187.5040  176.1450  136.8500 N   0  0  0  0  0  0  0  0  0  0  0  0
  188.0820  172.2010  136.1660 C   0  0  0  0  0  0  0  0  0  0  0  0
  190.0800  175.3180  136.1370 N   0  0  0  0  0  0  0  0  0  0  0  0
  189.1560  172.9990  136.0830 C   0  0  0  0  0  3  0  0  0  0  0  0
  188.1590  178.5600  136.4800 C   0  0  0  0  0  2  0  0  0  0  0  0
  188.9750  179.3370  137.4600 C   0  0  0  0  0  3  0  0  0  0  0  0
  188.9390  179.0460  138.7080 N   0  0  0  0  0  2  0  0  0  0  0  0
  191.7450  176.0660  138.1680 O   0  0  0  0  0  0  0  0  0  0  0  0
  192.5040  177.5130  139.7740 O   0  0  0  0  0  0  0  0  0  0  0  0
  190.5010  176.4160  140.2570 N   0  0  0  0  0  2  0  0  0  0  0  0
  191.6190  176.6950  139.4070 C   0  0  0  0  0  0  0  0  0  0  0  0
  190.3580  177.0290  141.5700 C   0  0  0  0  0  2  0  0  0  0  0  0
  190.2470  175.9510  142.6370 C   0  0  0  0  0  2  0  0  0  0  0  0
  191.4430  175.9990  143.5770 C   0  0  0  0  0  2  0  0  0  0  0  0
  191.2340  177.0120  144.5990 N   0  0  0  0  0  1  0  0  0  0  0  0
  2  1  1  6  0  0  0
  2  4  1  0  0  0  0
  2  5  1  0  0  0  0
  3  5  1  0  0  0  0
  3  7  1  0  0  0  0
  4  5  1  0  0  0  0
  5  7  1  0  0  0  0
  6  2  1  0  0  0  0
  6  8  1  0  0  0  0
  7 23  1  0  0  0  0
  8 18  1  0  0  0  0
  8  3  1  0  0  0  0
  9 15  1  0  0  0  0
 10  9  1  0  0  0  0
 11 17  1  0  0  0  0
 12 13  2  0  0  0  0
 13 16  1  0  0  0  0
 14 15  2  0  0  0  0
 16  9  2  0  0  0  0
 17 14  1  0  0  0  0
 18 12  1  0  0  0  0
 18 10  1  0  0  0  0
 19 17  2  0  0  0  0
 19 10  1  0  0  0  0
 20 13  1  0  0  0  0
 20 21  1  0  0  0  0
 21 22  2  0  0  0  0
 23 26  1  0  0  0  0
 25 27  1  0  0  0  0
 26 24  2  0  0  0  0
 26 25  1  0  0  0  0
 27 28  1  0  0  0  0
 28 29  1  0  0  0  0
 29 30  1  0  0  0  0
M  END
>  <MODEL>
2

>  <REMARK>
 VINA RESULT:      -6.2      4.066      6.560
  Name = 
  8 active torsions:
  status: ('A' for Active; 'I' for Inactive)
    1  A    between atoms: C_6  and  C_12
    2  A    between atoms: C_6  and  C_23
    3  A    between atoms: C_8  and  C_27
    4  A    between atoms: N_11  and  C_16
    5  A    between atoms: O_13  and  C_15
    6  A    between atoms: O_13  and  C_24
    7  A    between atoms: C_16  and  C_27
    8  A    between atoms: N_25  and  C_26
                            x       y       z     vdW  Elec       q    Type
                         _______ _______ _______ _____ _____    ______ ____

>  <TORSDO>
F 8

$$$$
=
 OpenBabel11032419143D

 30 34  0  0  1  0  0  0  0  0999 V2000
  192.4810  178.7810  144.7690 O   0  0  0  0  0  1  0  0  0  0  0  0
  191.3900  178.3040  144.0430 C   0  0  2  0  0  0  0  0  0  0  0  0
  190.8370  176.3700  142.9420 C   0  0  1  0  0  3  0  0  0  0  0  0
  190.2630  178.1710  144.8030 O   0  0  0  0  0  0  0  0  0  0  0  0
  190.8790  176.9360  144.3990 C   0  0  2  0  0  0  0  0  0  0  0  0
  191.1340  178.7890  142.6460 C   0  0  0  0  0  2  0  0  0  0  0  0
  189.6470  176.1760  143.8140 C   0  0  1  0  0  3  0  0  0  0  0  0
  190.8580  177.5100  141.9020 C   0  0  2  0  0  3  0  0  0  0  0  0
  188.5470  177.1530  138.8370 C   0  0  0  0  0  0  0  0  0  0  0  0
  189.6620  176.7530  139.7720 C   0  0  0  0  0  0  0  0  0  0  0  0
  192.2970  176.4040  137.0800 N   0  0  0  0  0  1  0  0  0  0  0  0
  188.4860  178.2510  141.4150 C   0  0  0  0  0  3  0  0  0  0  0  0
  187.4500  178.3650  140.5840 C   0  0  0  0  0  0  0  0  0  0  0  0
  189.8260  176.4370  136.9440 N   0  0  0  0  0  0  0  0  0  0  0  0
  188.6580  176.7460  137.4310 C   0  0  0  0  0  2  0  0  0  0  0  0
  187.5300  177.8460  139.2480 N   0  0  0  0  0  0  0  0  0  0  0  0
  191.0330  176.5150  137.7260 C   0  0  0  0  0  0  0  0  0  0  0  0
  189.6810  177.5520  141.0130 N   0  0  0  0  0  0  0  0  0  0  0  0
  190.9840  176.7300  139.0490 C   0  0  0  0  0  3  0  0  0  0  0  0
  186.2440  179.1340  141.0040 C   0  0  0  0  0  2  0  0  0  0  0  0
  185.0980  178.8790  140.0810 C   0  0  0  0  0  3  0  0  0  0  0  0
  184.5560  179.8480  139.4390 N   0  0  0  0  0  2  0  0  0  0  0  0
  188.5560  177.0160  143.4430 O   0  0  0  0  0  0  0  0  0  0  0  0
  186.3200  176.7790  143.8830 O   0  0  0  0  0  0  0  0  0  0  0  0
  187.5830  177.8050  145.5560 N   0  0  0  0  0  2  0  0  0  0  0  0
  187.4470  177.1830  144.2740 C   0  0  0  0  0  0  0  0  0  0  0  0
  186.4410  178.0240  146.4330 C   0  0  0  0  0  2  0  0  0  0  0  0
  186.9210  178.3600  147.8360 C   0  0  0  0  0  2  0  0  0  0  0  0
  188.0880  177.4700  148.2350 C   0  0  0  0  0  2  0  0  0  0  0  0
  189.2520  178.2840  148.5490 N   0  0  0  0  0  1  0  0  0  0  0  0
  2  5  1  0  0  0  0
  2  1  1  1  0  0  0
  2  4  1  0  0  0  0
  3  7  1  0  0  0  0
  3  5  1  0  0  0  0
  5  4  1  0  0  0  0
  6  2  1  0  0  0  0
  7  5  1  0  0  0  0
  8  6  1  0  0  0  0
  8  3  1  0  0  0  0
  9 16  2  0  0  0  0
  9 10  1  0  0  0  0
 10 18  1  0  0  0  0
 11 17  1  0  0  0  0
 13 20  1  0  0  0  0
 13 12  2  0  0  0  0
 14 15  1  0  0  0  0
 14 17  2  0  0  0  0
 15  9  1  0  0  0  0
 16 13  1  0  0  0  0
 17 19  1  0  0  0  0
 18 12  1  0  0  0  0
 18  8  1  0  0  0  0
 19 10  2  0  0  0  0
 21 20  1  0  0  0  0
 22 21  2  0  0  0  0
 23  7  1  0  0  0  0
 23 26  1  0  0  0  0
 24 26  2  0  0  0  0
 25 27  1  0  0  0  0
 26 25  1  0  0  0  0
 27 28  1  0  0  0  0
 28 29  1  0  0  0  0
 29 30  1  0  0  0  0
M  END
>  <MODEL>
3

>  <REMARK>
 VINA RESULT:      -6.2      1.000      1.667
  Name = 
  8 active torsions:
  status: ('A' for Active; 'I' for Inactive)
    1  A    between atoms: C_6  and  C_12
    2  A    between atoms: C_6  and  C_23
    3  A    between atoms: C_8  and  C_27
    4  A    between atoms: N_11  and  C_16
    5  A    between atoms: O_13  and  C_15
    6  A    between atoms: O_13  and  C_24
    7  A    between atoms: C_16  and  C_27
    8  A    between atoms: N_25  and  C_26
                            x       y       z     vdW  Elec       q    Type
                         _______ _______ _______ _____ _____    ______ ____

>  <TORSDO>
F 8

$$$$
=
 OpenBabel11032419143D

 30 34  0  0  1  0  0  0  0  0999 V2000
  179.0980  175.3010  139.1090 O   0  0  0  0  0  1  0  0  0  0  0  0
  180.1050  176.2510  138.9330 C   0  0  2  0  0  0  0  0  0  0  0  0
  181.4800  176.9270  137.2270 C   0  0  1  0  0  3  0  0  0  0  0  0
  179.6510  177.5340  139.0500 O   0  0  0  0  0  0  0  0  0  0  0  0
  180.0090  177.1290  137.7170 C   0  0  2  0  0  0  0  0  0  0  0  0
  181.4720  176.0290  139.5110 C   0  0  0  0  0  2  0  0  0  0  0  0
  180.9380  178.3110  137.2950 C   0  0  1  0  0  3  0  0  0  0  0  0
  182.3750  176.3870  138.3620 C   0  0  2  0  0  3  0  0  0  0  0  0
  185.7350  178.2740  138.2630 C   0  0  0  0  0  0  0  0  0  0  0  0
  184.4840  177.6640  137.6820 C   0  0  0  0  0  0  0  0  0  0  0  0
  186.2660  175.5640  135.0880 N   0  0  0  0  0  1  0  0  0  0  0  0
  183.6020  177.8460  140.0300 C   0  0  0  0  0  3  0  0  0  0  0  0
  184.6670  178.5660  140.3830 C   0  0  0  0  0  0  0  0  0  0  0  0
  187.0160  177.5370  136.3800 N   0  0  0  0  0  0  0  0  0  0  0  0
  186.9250  178.3330  137.4060 C   0  0  0  0  0  2  0  0  0  0  0  0
  185.7720  178.7190  139.4810 N   0  0  0  0  0  0  0  0  0  0  0  0
  186.0020  176.5630  136.0670 C   0  0  0  0  0  0  0  0  0  0  0  0
  183.5110  177.2610  138.7150 N   0  0  0  0  0  0  0  0  0  0  0  0
  184.8270  176.5600  136.7130 C   0  0  0  0  0  3  0  0  0  0  0  0
  184.7600  179.1210  141.7640 C   0  0  0  0  0  2  0  0  0  0  0  0
  183.6960  178.5510  142.6430 C   0  0  0  0  0  3  0  0  0  0  0  0
  183.3840  179.1330  143.7420 N   0  0  0  0  0  2  0  0  0  0  0  0
  181.4790  179.0550  138.3860 O   0  0  0  0  0  0  0  0  0  0  0  0
  182.6540  181.0080  138.6170 O   0  0  0  0  0  0  0  0  0  0  0  0
  180.4100  181.2360  138.0170 N   0  0  0  0  0  2  0  0  0  0  0  0
  181.5580  180.4480  138.3500 C   0  0  0  0  0  0  0  0  0  0  0  0
  180.4510  182.6910  138.0040 C   0  0  0  0  0  2  0  0  0  0  0  0
  180.4610  183.1980  136.5700 C   0  0  0  0  0  2  0  0  0  0  0  0
  181.1540  184.5490  136.4800 C   0  0  0  0  0  2  0  0  0  0  0  0
  182.1840  184.6510  137.5020 N   0  0  0  0  0  1  0  0  0  0  0  0
  2  4  1  0  0  0  0
  2  1  1  1  0  0  0
  2  6  1  0  0  0  0
  3  7  1  0  0  0  0
  3  5  1  0  0  0  0
  3  8  1  0  0  0  0
  5  2  1  0  0  0  0
  5  4  1  0  0  0  0
  7  5  1  0  0  0  0
  7 23  1  0  0  0  0
  8 18  1  0  0  0  0
  8  6  1  0  0  0  0
  9 16  2  0  0  0  0
 10  9  1  0  0  0  0
 10 18  1  0  0  0  0
 11 17  1  0  0  0  0
 12 13  2  0  0  0  0
 13 20  1  0  0  0  0
 14 15  1  0  0  0  0
 15  9  1  0  0  0  0
 16 13  1  0  0  0  0
 17 14  2  0  0  0  0
 17 19  1  0  0  0  0
 18 12  1  0  0  0  0
 19 10  2  0  0  0  0
 20 21  1  0  0  0  0
 21 22  2  0  0  0  0
 25 26  1  0  0  0  0
 26 23  1  0  0  0  0
 26 24  2  0  0  0  0
 27 25  1  0  0  0  0
 28 27  1  0  0  0  0
 29 28  1  0  0  0  0
 29 30  1  0  0  0  0
M  END
>  <MODEL>
4

>  <REMARK>
 VINA RESULT:      -6.1      5.338      8.488
  Name = 
  8 active torsions:
  status: ('A' for Active; 'I' for Inactive)
    1  A    between atoms: C_6  and  C_12
    2  A    between atoms: C_6  and  C_23
    3  A    between atoms: C_8  and  C_27
    4  A    between atoms: N_11  and  C_16
    5  A    between atoms: O_13  and  C_15
    6  A    between atoms: O_13  and  C_24
    7  A    between atoms: C_16  and  C_27
    8  A    between atoms: N_25  and  C_26
                            x       y       z     vdW  Elec       q    Type
                         _______ _______ _______ _____ _____    ______ ____

>  <TORSDO>
F 8

$$$$
=
 OpenBabel11032419143D

 30 34  0  0  1  0  0  0  0  0999 V2000
  181.3340  180.3660  137.7440 O   0  0  0  0  0  1  0  0  0  0  0  0
  182.2550  179.5140  138.3550 C   0  0  2  0  0  0  0  0  0  0  0  0
  182.3260  178.2160  140.2440 C   0  0  1  0  0  3  0  0  0  0  0  0
  182.5320  178.4050  137.6060 O   0  0  0  0  0  0  0  0  0  0  0  0
  181.7520  178.1660  138.7910 C   0  0  2  0  0  0  0  0  0  0  0  0
  183.4400  180.0720  139.0870 C   0  0  0  0  0  2  0  0  0  0  0  0
  182.5540  176.9900  139.4320 C   0  0  1  0  0  3  0  0  0  0  0  0
  183.4350  179.2820  140.3680 C   0  0  2  0  0  3  0  0  0  0  0  0
  186.3570  177.9110  142.4750 C   0  0  0  0  0  0  0  0  0  0  0  0
  184.9120  178.0970  142.0870 C   0  0  2  0  0  3  0  0  0  0  0  0
  183.7520  179.2180  145.5090 N   0  0  0  0  0  1  0  0  0  0  0  0
  185.8530  178.7390  139.8450 C   0  0  0  0  0  3  0  0  0  0  0  0
  187.0660  178.3420  140.2310 C   0  0  0  0  0  0  0  0  0  0  0  0
  185.7870  178.0030  144.7980 N   0  0  0  0  0  0  0  0  0  0  0  0
  186.6570  177.6630  143.8900 C   0  0  0  0  0  3  0  0  0  0  0  0
  187.3120  177.9810  141.5980 N   0  0  0  0  0  0  0  0  0  0  0  0
  184.5450  178.6540  144.4710 C   0  0  0  0  0  0  0  0  0  0  0  0
  184.7510  178.7530  140.7750 N   0  0  0  0  0  0  0  0  0  0  0  0
  184.1430  178.7700  143.1960 C   0  0  0  0  0  3  0  0  0  0  0  0
  188.2010  178.3820  139.2640 C   0  0  0  0  0  2  0  0  0  0  0  0
  189.4390  177.8070  139.8680 C   0  0  0  0  0  3  0  0  0  0  0  0
  190.4060  177.4220  139.1200 N   0  0  0  0  0  2  0  0  0  0  0  0
  183.9030  176.8780  138.9800 O   0  0  0  0  0  0  0  0  0  0  0  0
  185.1560  176.2930  137.1540 O   0  0  0  0  0  0  0  0  0  0  0  0
  183.6360  174.6870  137.9020 N   0  0  0  0  0  2  0  0  0  0  0  0
  184.2660  175.9700  137.9840 C   0  0  0  0  0  0  0  0  0  0  0  0
  183.9680  173.7310  136.8560 C   0  0  0  0  0  2  0  0  0  0  0  0
  184.7590  172.5730  137.4430 C   0  0  0  0  0  2  0  0  0  0  0  0
  186.2540  172.8420  137.3560 C   0  0  0  0  0  2  0  0  0  0  0  0
  186.5870  173.3900  136.0510 N   0  0  0  0  0  1  0  0  0  0  0  0
  2  1  1  6  0  0  0
  2  5  1  0  0  0  0
  2  6  1  0  0  0  0
  3  8  1  0  0  0  0
  4  2  1  0  0  0  0
  4  5  1  0  0  0  0
  5  7  1  0  0  0  0
  5  3  1  0  0  0  0
  6  8  1  0  0  0  0
  7  3  1  0  0  0  0
  8 18  1  0  0  0  0
  9 15  1  0  0  0  0
 10  9  1  0  0  0  0
 10 19  1  0  0  0  0
 12 13  2  0  0  0  0
 12 18  1  0  0  0  0
 13 16  1  0  0  0  0
 15 14  2  0  0  0  0
 16  9  2  0  0  0  0
 17 14  1  0  0  0  0
 17 11  1  0  0  0  0
 18 10  1  0  0  0  0
 19 17  2  0  0  0  0
 20 21  1  0  0  0  0
 20 13  1  0  0  0  0
 22 21  2  0  0  0  0
 23  7  1  0  0  0  0
 24 26  2  0  0  0  0
 25 26  1  0  0  0  0
 26 23  1  0  0  0  0
 27 28  1  0  0  0  0
 27 25  1  0  0  0  0
 29 28  1  0  0  0  0
 30 29  1  0  0  0  0
M  END
>  <MODEL>
5

>  <REMARK>
 VINA RESULT:      -6.0      3.795      8.252
  Name = 
  8 active torsions:
  status: ('A' for Active; 'I' for Inactive)
    1  A    between atoms: C_6  and  C_12
    2  A    between atoms: C_6  and  C_23
    3  A    between atoms: C_8  and  C_27
    4  A    between atoms: N_11  and  C_16
    5  A    between atoms: O_13  and  C_15
    6  A    between atoms: O_13  and  C_24
    7  A    between atoms: C_16  and  C_27
    8  A    between atoms: N_25  and  C_26
                            x       y       z     vdW  Elec       q    Type
                         _______ _______ _______ _____ _____    ______ ____

>  <TORSDO>
F 8

$$$$
=
 OpenBabel11032419143D

 30 34  0  0  1  0  0  0  0  0999 V2000
  187.4700  179.5460  136.1810 O   0  0  0  0  0  1  0  0  0  0  0  0
  188.1830  178.6580  136.9870 C   0  0  2  0  0  0  0  0  0  0  0  0
  187.6830  176.9990  138.4900 C   0  0  1  0  0  3  0  0  0  0  0  0
  188.9160  177.7580  136.2670 O   0  0  0  0  0  0  0  0  0  0  0  0
  187.7700  177.2130  136.9430 C   0  0  2  0  0  0  0  0  0  0  0  0
  188.8590  179.1390  138.2380 C   0  0  0  0  0  2  0  0  0  0  0  0
  188.4170  175.9940  137.6730 C   0  0  1  0  0  3  0  0  0  0  0  0
  188.4580  178.0980  139.2470 C   0  0  2  0  0  3  0  0  0  0  0  0
  190.4700  176.7270  142.2360 C   0  0  0  0  0  0  0  0  0  0  0  0
  189.2610  176.8790  141.3470 C   0  0  2  0  0  3  0  0  0  0  0  0
  186.8620  177.7670  144.1340 N   0  0  0  0  0  1  0  0  0  0  0  0
  190.9250  177.6770  139.6390 C   0  0  0  0  0  3  0  0  0  0  0  0
  191.9300  177.3070  140.4320 C   0  0  0  0  0  0  0  0  0  0  0  0
  189.0800  176.6720  144.1840 N   0  0  0  0  0  0  0  0  0  0  0  0
  190.2400  176.4150  143.6520 C   0  0  0  0  0  3  0  0  0  0  0  0
  191.6740  176.8810  141.7790 N   0  0  0  0  0  0  0  0  0  0  0  0
  188.0110  177.2910  143.4440 C   0  0  0  0  0  0  0  0  0  0  0  0
  189.5590  177.5980  140.0940 N   0  0  0  0  0  0  0  0  0  0  0  0
  188.1010  177.4600  142.1160 C   0  0  0  0  0  3  0  0  0  0  0  0
  193.3370  177.4420  139.9570 C   0  0  0  0  0  2  0  0  0  0  0  0
  193.6460  176.4310  138.9030 C   0  0  0  0  0  3  0  0  0  0  0  0
  194.6600  175.6560  139.0260 N   0  0  0  0  0  2  0  0  0  0  0  0
  189.8310  176.0860  137.8370 O   0  0  0  0  0  0  0  0  0  0  0  0
  190.9830  174.1060  137.8310 O   0  0  0  0  0  0  0  0  0  0  0  0
  191.2570  175.4470  135.9410 N   0  0  0  0  0  2  0  0  0  0  0  0
  190.6970  175.1740  137.2300 C   0  0  0  0  0  0  0  0  0  0  0  0
  192.1880  174.5330  135.2950 C   0  0  0  0  0  2  0  0  0  0  0  0
  193.6170  174.9130  135.6500 C   0  0  0  0  0  2  0  0  0  0  0  0
  194.0020  176.2330  134.9990 C   0  0  0  0  0  2  0  0  0  0  0  0
  195.1980  176.7700  135.6280 N   0  0  0  0  0  1  0  0  0  0  0  0
  2  1  1  6  0  0  0
  2  6  1  0  0  0  0
  3  8  1  0  0  0  0
  4  5  1  0  0  0  0
  4  2  1  0  0  0  0
  5  2  1  0  0  0  0
  5  7  1  0  0  0  0
  5  3  1  0  0  0  0
  6  8  1  0  0  0  0
  7 23  1  0  0  0  0
  7  3  1  0  0  0  0
  8 18  1  0  0  0  0
  9 15  1  0  0  0  0
 10 19  1  0  0  0  0
 10  9  1  0  0  0  0
 12 18  1  0  0  0  0
 12 13  2  0  0  0  0
 13 16  1  0  0  0  0
 15 14  2  0  0  0  0
 16  9  2  0  0  0  0
 17 11  1  0  0  0  0
 17 14  1  0  0  0  0
 18 10  1  0  0  0  0
 19 17  2  0  0  0  0
 20 13  1  0  0  0  0
 21 22  2  0  0  0  0
 21 20  1  0  0  0  0
 25 26  1  0  0  0  0
 26 24  2  0  0  0  0
 26 23  1  0  0  0  0
 27 28  1  0  0  0  0
 27 25  1  0  0  0  0
 29 30  1  0  0  0  0
 29 28  1  0  0  0  0
M  END
>  <MODEL>
6

>  <REMARK>
 VINA RESULT:      -5.9      3.461      8.255
  Name = 
  8 active torsions:
  status: ('A' for Active; 'I' for Inactive)
    1  A    between atoms: C_6  and  C_12
    2  A    between atoms: C_6  and  C_23
    3  A    between atoms: C_8  and  C_27
    4  A    between atoms: N_11  and  C_16
    5  A    between atoms: O_13  and  C_15
    6  A    between atoms: O_13  and  C_24
    7  A    between atoms: C_16  and  C_27
    8  A    between atoms: N_25  and  C_26
                            x       y       z     vdW  Elec       q    Type
                         _______ _______ _______ _____ _____    ______ ____

>  <TORSDO>
F 8

$$$$
=
 OpenBabel11032419143D

 30 34  0  0  1  0  0  0  0  0999 V2000
  186.0270  175.1950  135.7580 O   0  0  0  0  0  1  0  0  0  0  0  0
  186.6730  175.9720  136.7200 C   0  0  2  0  0  0  0  0  0  0  0  0
  188.2450  177.6410  136.7340 C   0  0  1  0  0  3  0  0  0  0  0  0
  185.8200  176.7950  137.3990 O   0  0  0  0  0  0  0  0  0  0  0  0
  186.7130  177.4560  136.4850 C   0  0  2  0  0  0  0  0  0  0  0  0
  187.7630  175.3830  137.5680 C   0  0  0  0  0  2  0  0  0  0  0  0
  187.2980  178.5710  137.4070 C   0  0  1  0  0  3  0  0  0  0  0  0
  188.8320  176.4400  137.5050 C   0  0  2  0  0  3  0  0  0  0  0  0
  191.3890  177.3200  140.2530 C   0  0  0  0  0  0  0  0  0  0  0  0
  190.8110  177.3290  138.8590 C   0  0  2  0  0  3  0  0  0  0  0  0
  193.9620  176.1280  137.1440 N   0  0  0  0  0  1  0  0  0  0  0  0
  188.6590  176.7310  140.0150 C   0  0  0  0  0  3  0  0  0  0  0  0
  189.2230  176.9580  141.2020 C   0  0  0  0  0  0  0  0  0  0  0  0
  193.6080  177.1410  139.3730 N   0  0  0  0  0  0  0  0  0  0  0  0
  192.8460  177.4370  140.3870 C   0  0  0  0  0  3  0  0  0  0  0  0
  190.6350  177.1970  141.3010 N   0  0  0  0  0  0  0  0  0  0  0  0
  193.0780  176.6630  138.1220 C   0  0  0  0  0  0  0  0  0  0  0  0
  189.4410  176.7840  138.8050 N   0  0  0  0  0  0  0  0  0  0  0  0
  191.7590  176.6790  137.8830 C   0  0  0  0  0  3  0  0  0  0  0  0
  188.4050  176.8500  142.4430 C   0  0  0  0  0  2  0  0  0  0  0  0
  189.0200  177.6290  143.5590 C   0  0  0  0  0  3  0  0  0  0  0  0
  189.5480  177.0230  144.5580 N   0  0  0  0  0  2  0  0  0  0  0  0
  187.1750  178.3080  138.8040 O   0  0  0  0  0  0  0  0  0  0  0  0
  185.2040  179.4630  138.9660 O   0  0  0  0  0  0  0  0  0  0  0  0
  186.0230  178.5670  140.9590 N   0  0  0  0  0  2  0  0  0  0  0  0
  186.1030  178.8030  139.5490 C   0  0  0  0  0  0  0  0  0  0  0  0
  184.9370  179.0980  141.7690 C   0  0  0  0  0  2  0  0  0  0  0  0
  185.1380  178.7090  143.2260 C   0  0  0  0  0  2  0  0  0  0  0  0
  184.0900  179.3690  144.1090 C   0  0  0  0  0  2  0  0  0  0  0  0
  184.3260  179.0290  145.5030 N   0  0  0  0  0  1  0  0  0  0  0  0
  2  1  1  6  0  0  0
  2  4  1  0  0  0  0
  2  6  1  0  0  0  0
  3  7  1  0  0  0  0
  3  8  1  0  0  0  0
  5  2  1  0  0  0  0
  5  3  1  0  0  0  0
  5  4  1  0  0  0  0
  5  7  1  0  0  0  0
  7 23  1  0  0  0  0
  8  6  1  0  0  0  0
  8 18  1  0  0  0  0
  9 15  1  0  0  0  0
  9 16  2  0  0  0  0
 10  9  1  0  0  0  0
 11 17  1  0  0  0  0
 12 13  2  0  0  0  0
 13 16  1  0  0  0  0
 13 20  1  0  0  0  0
 14 15  2  0  0  0  0
 17 14  1  0  0  0  0
 18 10  1  0  0  0  0
 18 12  1  0  0  0  0
 19 17  2  0  0  0  0
 19 10  1  0  0  0  0
 20 21  1  0  0  0  0
 21 22  2  0  0  0  0
 23 26  1  0  0  0  0
 24 26  2  0  0  0  0
 25 27  1  0  0  0  0
 26 25  1  0  0  0  0
 27 28  1  0  0  0  0
 28 29  1  0  0  0  0
 29 30  1  0  0  0  0
M  END
>  <MODEL>
7

>  <REMARK>
 VINA RESULT:      -5.9      2.905      5.447
  Name = 
  8 active torsions:
  status: ('A' for Active; 'I' for Inactive)
    1  A    between atoms: C_6  and  C_12
    2  A    between atoms: C_6  and  C_23
    3  A    between atoms: C_8  and  C_27
    4  A    between atoms: N_11  and  C_16
    5  A    between atoms: O_13  and  C_15
    6  A    between atoms: O_13  and  C_24
    7  A    between atoms: C_16  and  C_27
    8  A    between atoms: N_25  and  C_26
                            x       y       z     vdW  Elec       q    Type
                         _______ _______ _______ _____ _____    ______ ____

>  <TORSDO>
F 8

$$$$
=
 OpenBabel11032419143D

 30 34  0  0  1  0  0  0  0  0999 V2000
  181.1710  180.2620  137.7130 O   0  0  0  0  0  1  0  0  0  0  0  0
  182.1050  179.4320  138.3340 C   0  0  2  0  0  0  0  0  0  0  0  0
  182.1990  178.1560  140.2370 C   0  0  1  0  0  3  0  0  0  0  0  0
  182.4000  178.3190  137.5970 O   0  0  0  0  0  0  0  0  0  0  0  0
  181.6250  178.0800  138.7840 C   0  0  2  0  0  0  0  0  0  0  0  0
  183.2830  180.0170  139.0580 C   0  0  0  0  0  2  0  0  0  0  0  0
  182.4460  176.9250  139.4380 C   0  0  1  0  0  3  0  0  0  0  0  0
  183.2910  179.2410  140.3470 C   0  0  2  0  0  3  0  0  0  0  0  0
  186.2380  177.9430  142.4670 C   0  0  0  0  0  0  0  0  0  0  0  0
  184.7890  178.1020  142.0800 C   0  0  2  0  0  3  0  0  0  0  0  0
  183.6190  179.2530  145.4890 N   0  0  0  0  0  1  0  0  0  0  0  0
  185.7160  178.7270  139.8270 C   0  0  0  0  0  3  0  0  0  0  0  0
  186.9360  178.3540  140.2160 C   0  0  0  0  0  0  0  0  0  0  0  0
  185.6710  178.0590  144.7890 N   0  0  0  0  0  0  0  0  0  0  0  0
  186.5440  177.7190  143.8850 C   0  0  0  0  0  3  0  0  0  0  0  0
  187.1890  178.0150  141.5870 N   0  0  0  0  0  0  0  0  0  0  0  0
  184.4180  178.6860  144.4560 C   0  0  0  0  0  0  0  0  0  0  0  0
  184.6160  178.7370  140.7590 N   0  0  0  0  0  0  0  0  0  0  0  0
  184.0120  178.7780  143.1810 C   0  0  0  0  0  3  0  0  0  0  0  0
  188.0670  178.3970  139.2460 C   0  0  0  0  0  2  0  0  0  0  0  0
  189.3310  177.9120  139.8770 C   0  0  0  0  0  3  0  0  0  0  0  0
  190.2860  177.4600  139.1500 N   0  0  0  0  0  2  0  0  0  0  0  0
  183.7960  176.8300  138.9860 O   0  0  0  0  0  0  0  0  0  0  0  0
  183.6420  174.7820  137.9700 O   0  0  0  0  0  0  0  0  0  0  0  0
  185.1460  176.2850  137.0060 N   0  0  0  0  0  2  0  0  0  0  0  0
  184.1710  175.9250  137.9920 C   0  0  0  0  0  0  0  0  0  0  0  0
  185.5830  175.3530  135.9770 C   0  0  0  0  0  2  0  0  0  0  0  0
  187.0880  175.4560  135.7880 C   0  0  0  0  0  2  0  0  0  0  0  0
  187.8090  175.3180  137.1200 C   0  0  0  0  0  2  0  0  0  0  0  0
  189.2190  175.0380  136.8980 N   0  0  0  0  0  1  0  0  0  0  0  0
  2  1  1  6  0  0  0
  2  5  1  0  0  0  0
  2  6  1  0  0  0  0
  3  8  1  0  0  0  0
  4  2  1  0  0  0  0
  4  5  1  0  0  0  0
  5  7  1  0  0  0  0
  5  3  1  0  0  0  0
  6  8  1  0  0  0  0
  7  3  1  0  0  0  0
  8 18  1  0  0  0  0
  9 15  1  0  0  0  0
 10  9  1  0  0  0  0
 10 19  1  0  0  0  0
 12 13  2  0  0  0  0
 12 18  1  0  0  0  0
 13 16  1  0  0  0  0
 15 14  2  0  0  0  0
 16  9  2  0  0  0  0
 17 14  1  0  0  0  0
 17 11  1  0  0  0  0
 18 10  1  0  0  0  0
 19 17  2  0  0  0  0
 20 21  1  0  0  0  0
 20 13  1  0  0  0  0
 22 21  2  0  0  0  0
 23  7  1  0  0  0  0
 24 26  2  0  0  0  0
 25 26  1  0  0  0  0
 26 23  1  0  0  0  0
 27 25  1  0  0  0  0
 28 27  1  0  0  0  0
 28 29  1  0  0  0  0
 30 29  1  0  0  0  0
M  END
>  <MODEL>
8

>  <REMARK>
 VINA RESULT:      -5.8      3.695      8.280
  Name = 
  8 active torsions:
  status: ('A' for Active; 'I' for Inactive)
    1  A    between atoms: C_6  and  C_12
    2  A    between atoms: C_6  and  C_23
    3  A    between atoms: C_8  and  C_27
    4  A    between atoms: N_11  and  C_16
    5  A    between atoms: O_13  and  C_15
    6  A    between atoms: O_13  and  C_24
    7  A    between atoms: C_16  and  C_27
    8  A    between atoms: N_25  and  C_26
                            x       y       z     vdW  Elec       q    Type
                         _______ _______ _______ _____ _____    ______ ____

>  <TORSDO>
F 8

$$$$
=
 OpenBabel11032419143D

 30 34  0  0  1  0  0  0  0  0999 V2000
  179.3010  180.0720  143.7230 O   0  0  0  0  0  1  0  0  0  0  0  0
  179.8440  179.7840  142.4710 C   0  0  2  0  0  0  0  0  0  0  0  0
  179.2560  178.5250  140.6470 C   0  0  1  0  0  3  0  0  0  0  0  0
  179.9260  180.8830  141.6620 O   0  0  0  0  0  0  0  0  0  0  0  0
  178.9310  179.9150  141.2840 C   0  0  2  0  0  0  0  0  0  0  0  0
  181.0040  178.8400  142.3420 C   0  0  0  0  0  2  0  0  0  0  0  0
  179.2690  179.7280  139.7720 C   0  0  1  0  0  3  0  0  0  0  0  0
  180.5790  177.9550  141.2020 C   0  0  2  0  0  3  0  0  0  0  0  0
  182.5620  176.4720  138.2480 C   0  0  0  0  0  0  0  0  0  0  0  0
  181.3220  176.8730  139.0070 C   0  0  0  0  0  0  0  0  0  0  0  0
  179.6590  173.4800  138.8190 N   0  0  0  0  0  1  0  0  0  0  0  0
  182.8780  178.4130  140.2440 C   0  0  0  0  0  3  0  0  0  0  0  0
  183.8530  178.1390  139.3770 C   0  0  0  0  0  0  0  0  0  0  0  0
  181.4960  174.4680  137.4880 N   0  0  0  0  0  0  0  0  0  0  0  0
  182.4610  175.3280  137.3330 C   0  0  0  0  0  2  0  0  0  0  0  0
  183.6880  177.0990  138.4030 N   0  0  0  0  0  0  0  0  0  0  0  0
  180.5340  174.5710  138.5540 C   0  0  0  0  0  0  0  0  0  0  0  0
  181.6180  177.7150  140.1820 N   0  0  0  0  0  0  0  0  0  0  0  0
  180.4760  175.6660  139.3260 C   0  0  0  0  0  3  0  0  0  0  0  0
  185.1640  178.8400  139.4920 C   0  0  0  0  0  2  0  0  0  0  0  0
  185.7700  178.6260  140.8400 C   0  0  0  0  0  3  0  0  0  0  0  0
  185.6480  179.5160  141.7540 N   0  0  0  0  0  2  0  0  0  0  0  0
  180.5910  180.1240  139.4080 O   0  0  0  0  0  0  0  0  0  0  0  0
  181.5560  180.0220  137.3330 O   0  0  0  0  0  0  0  0  0  0  0  0
  180.3820  181.9810  137.8140 N   0  0  0  0  0  2  0  0  0  0  0  0
  180.8690  180.6800  138.1580 C   0  0  0  0  0  0  0  0  0  0  0  0
  180.6810  182.6030  136.5320 C   0  0  0  0  0  2  0  0  0  0  0  0
  180.1820  184.0390  136.5220 C   0  0  0  0  0  2  0  0  0  0  0  0
  180.8670  184.8560  137.6070 C   0  0  0  0  0  2  0  0  0  0  0  0
  182.3040  184.6410  137.5620 N   0  0  0  0  0  1  0  0  0  0  0  0
  2  1  1  1  0  0  0
  3  8  1  0  0  0  0
  3  5  1  0  0  0  0
  4  2  1  0  0  0  0
  5  4  1  0  0  0  0
  5  2  1  0  0  0  0
  6  2  1  0  0  0  0
  7  3  1  0  0  0  0
  7  5  1  0  0  0  0
  8  6  1  0  0  0  0
  9 16  2  0  0  0  0
  9 10  1  0  0  0  0
 10 19  2  0  0  0  0
 10 18  1  0  0  0  0
 13 20  1  0  0  0  0
 13 12  2  0  0  0  0
 14 17  2  0  0  0  0
 15 14  1  0  0  0  0
 15  9  1  0  0  0  0
 16 13  1  0  0  0  0
 17 11  1  0  0  0  0
 17 19  1  0  0  0  0
 18 12  1  0  0  0  0
 18  8  1  0  0  0  0
 20 21  1  0  0  0  0
 21 22  2  0  0  0  0
 23  7  1  0  0  0  0
 24 26  2  0  0  0  0
 25 26  1  0  0  0  0
 26 23  1  0  0  0  0
 27 25  1  0  0  0  0
 28 27  1  0  0  0  0
 28 29  1  0  0  0  0
 30 29  1  0  0  0  0
M  END
>  <MODEL>
9

>  <REMARK>
 VINA RESULT:      -5.8      5.914      9.417
  Name = 
  8 active torsions:
  status: ('A' for Active; 'I' for Inactive)
    1  A    between atoms: C_6  and  C_12
    2  A    between atoms: C_6  and  C_23
    3  A    between atoms: C_8  and  C_27
    4  A    between atoms: N_11  and  C_16
    5  A    between atoms: O_13  and  C_15
    6  A    between atoms: O_13  and  C_24
    7  A    between atoms: C_16  and  C_27
    8  A    between atoms: N_25  and  C_26
                            x       y       z     vdW  Elec       q    Type
                         _______ _______ _______ _____ _____    ______ ____

>  <TORSDO>
F 8

$$$$
