=
 OpenBabel11042410553D

 26 29  0  0  1  0  0  0  0  0999 V2000
  186.6300  178.3890  141.9050 C   0  0  1  0  0  3  0  0  0  0  0  0
  189.6150  177.0700  144.6230 C   0  0  0  0  0  0  0  0  0  0  0  0
  191.7980  176.2800  145.5590 C   0  0  0  0  0  3  0  0  0  0  0  0
  188.7780  177.3640  143.5730 N   0  0  0  0  0  0  0  0  0  0  0  0
  189.3220  177.1720  147.1750 C   0  0  0  0  0  0  0  0  0  0  0  0
  189.0480  177.1680  141.8220 S   0  0  0  0  0  0  0  0  0  0  0  0
  186.7360  178.1240  146.3770 C   0  0  0  0  0  3  0  0  0  0  0  0
  190.9430  176.6040  144.5070 C   0  0  0  0  0  0  0  0  0  0  0  0
  188.9500  177.2980  145.7600 C   0  0  0  0  0  0  0  0  0  0  0  0
  190.5380  176.7210  147.6510 C   0  0  0  0  0  3  0  0  0  0  0  0
  191.5830  176.4180  143.1760 C   0  0  0  0  0  1  0  0  0  0  0  0
  187.0790  178.0110  147.7280 C   0  0  0  0  0  3  0  0  0  0  0  0
  187.6100  177.7930  144.1110 C   0  0  0  0  0  0  0  0  0  0  0  0
  188.0460  178.6220  141.3890 C   0  0  0  0  0  2  0  0  0  0  0  0
  188.3470  177.5400  148.1130 C   0  0  0  0  0  3  0  0  0  0  0  0
  191.6640  176.3090  146.9530 C   0  0  0  0  0  0  0  0  0  0  0  0
  187.6520  177.7630  145.4480 N   0  0  0  0  0  0  0  0  0  0  0  0
  186.5910  178.2950  143.4030 C   0  0  0  0  0  3  0  0  0  0  0  0
  185.7290  179.3900  141.4280 O   0  0  0  0  0  0  0  0  0  0  0  0
  182.6890  177.7620  139.8700 C   0  0  0  0  0  1  0  0  0  0  0  0
  183.7870  178.0710  140.7700 N   0  0  0  0  0  2  0  0  0  0  0  0
  184.6920  179.1460  140.5190 C   0  0  0  0  0  0  0  0  0  0  0  0
  184.5540  179.8640  139.4900 O   0  0  0  0  0  0  0  0  0  0  0  0
  192.7420  175.9000  147.7470 O   0  0  0  0  0  0  0  0  0  0  0  0
  193.1740  176.5880  148.8530 C   0  0  0  0  0  0  0  0  0  0  0  0
  193.5380  177.1680  149.7860 N   0  0  0  0  0  0  0  0  0  0  0  0
  1 19  1  1  0  0  0
  1 18  1  0  0  0  0
  2  9  2  0  0  0  0
  3 16  1  0  0  0  0
  4 13  1  0  0  0  0
  4  2  1  0  0  0  0
  5 10  1  0  0  0  0
  5 15  2  0  0  0  0
  6  4  1  0  0  0  0
  7 12  2  0  0  0  0
  8  2  1  0  0  0  0
  8  3  2  0  0  0  0
  9  5  1  0  0  0  0
 11  8  1  0  0  0  0
 12 15  1  0  0  0  0
 13 17  1  0  0  0  0
 14  6  1  0  0  0  0
 14  1  1  0  0  0  0
 16 10  2  0  0  0  0
 16 24  1  0  0  0  0
 17  9  1  0  0  0  0
 17  7  1  0  0  0  0
 18 13  2  0  0  0  0
 20 21  1  0  0  0  0
 22 21  1  0  0  0  0
 22 19  1  0  0  0  0
 23 22  2  0  0  0  0
 24 25  1  0  0  0  0
 25 26  3  0  0  0  0
M  END
>  <MODEL>
1

>  <REMARK>
 VINA RESULT:      -9.2      0.000      0.000
  Name = 
  4 active torsions:
  status: ('A' for Active; 'I' for Inactive)
    1  A    between atoms: C_1  and  O_10
    2  A    between atoms: C_7  and  O_23
    3  A    between atoms: O_10  and  C_21
    4  A    between atoms: C_22  and  O_23
                            x       y       z     vdW  Elec       q    Type
                         _______ _______ _______ _____ _____    ______ ____

>  <TORSDO>
F 4

$$$$
=
 OpenBabel11042410553D

 26 29  0  0  1  0  0  0  0  0999 V2000
  186.2640  178.4690  140.8710 C   0  0  1  0  0  3  0  0  0  0  0  0
  188.6660  177.5390  144.2470 C   0  0  0  0  0  0  0  0  0  0  0  0
  190.6340  176.9440  145.6760 C   0  0  0  0  0  3  0  0  0  0  0  0
  188.0540  177.7010  143.0270 N   0  0  0  0  0  0  0  0  0  0  0  0
  187.8490  177.8410  146.6670 C   0  0  0  0  0  0  0  0  0  0  0  0
  188.6860  177.3710  141.3930 S   0  0  0  0  0  0  0  0  0  0  0  0
  185.4530  178.5880  145.2760 C   0  0  0  0  0  3  0  0  0  0  0  0
  190.0040  177.1340  144.4470 C   0  0  0  0  0  0  0  0  0  0  0  0
  187.7730  177.8280  145.2000 C   0  0  0  0  0  0  0  0  0  0  0  0
  188.9550  177.4950  147.4190 C   0  0  0  0  0  3  0  0  0  0  0  0
  190.9100  176.8700  143.2960 C   0  0  0  0  0  1  0  0  0  0  0  0
  185.5130  178.6070  146.6740 C   0  0  0  0  0  3  0  0  0  0  0  0
  186.7870  178.1120  143.2750 C   0  0  0  0  0  0  0  0  0  0  0  0
  187.7480  178.7300  140.6330 C   0  0  0  0  0  2  0  0  0  0  0  0
  186.6900  178.2360  147.3500 C   0  0  0  0  0  3  0  0  0  0  0  0
  190.2130  177.0840  147.0050 C   0  0  0  0  0  0  0  0  0  0  0  0
  186.5530  178.1980  144.5900 N   0  0  0  0  0  0  0  0  0  0  0  0
  185.9200  178.4990  142.3320 C   0  0  0  0  0  3  0  0  0  0  0  0
  185.4480  179.3780  140.1300 O   0  0  0  0  0  0  0  0  0  0  0  0
  182.0300  179.8950  138.5920 C   0  0  0  0  0  1  0  0  0  0  0  0
  183.3790  180.1250  139.0790 N   0  0  0  0  0  2  0  0  0  0  0  0
  184.1530  179.0880  139.6830 C   0  0  0  0  0  0  0  0  0  0  0  0
  183.6720  177.9280  139.8080 O   0  0  0  0  0  0  0  0  0  0  0  0
  191.1180  176.7990  148.0360 O   0  0  0  0  0  0  0  0  0  0  0  0
  192.2180  175.9940  147.8780 C   0  0  0  0  0  0  0  0  0  0  0  0
  193.1460  175.3150  147.7450 N   0  0  0  0  0  0  0  0  0  0  0  0
  1 19  1  6  0  0  0
  1 18  1  0  0  0  0
  2  8  1  0  0  0  0
  2  9  2  0  0  0  0
  3 16  1  0  0  0  0
  4 13  1  0  0  0  0
  4  2  1  0  0  0  0
  5 15  2  0  0  0  0
  5 10  1  0  0  0  0
  6  4  1  0  0  0  0
  7 12  2  0  0  0  0
  8  3  2  0  0  0  0
  9  5  1  0  0  0  0
 11  8  1  0  0  0  0
 12 15  1  0  0  0  0
 13 17  1  0  0  0  0
 14  1  1  0  0  0  0
 14  6  1  0  0  0  0
 16 10  2  0  0  0  0
 16 24  1  0  0  0  0
 17  9  1  0  0  0  0
 17  7  1  0  0  0  0
 18 13  2  0  0  0  0
 20 21  1  0  0  0  0
 21 22  1  0  0  0  0
 22 23  2  0  0  0  0
 22 19  1  0  0  0  0
 25 24  1  0  0  0  0
 26 25  3  0  0  0  0
M  END
>  <MODEL>
2

>  <REMARK>
 VINA RESULT:      -8.8      1.414      1.636
  Name = 
  4 active torsions:
  status: ('A' for Active; 'I' for Inactive)
    1  A    between atoms: C_1  and  O_10
    2  A    between atoms: C_7  and  O_23
    3  A    between atoms: O_10  and  C_21
    4  A    between atoms: C_22  and  O_23
                            x       y       z     vdW  Elec       q    Type
                         _______ _______ _______ _____ _____    ______ ____

>  <TORSDO>
F 4

$$$$
=
 OpenBabel11042410553D

 26 29  0  0  1  0  0  0  0  0999 V2000
  184.5480  178.8920  141.6410 C   0  0  1  0  0  3  0  0  0  0  0  0
  187.4300  177.9420  144.6130 C   0  0  0  0  0  0  0  0  0  0  0  0
  188.4950  177.4600  146.8270 C   0  0  0  0  0  3  0  0  0  0  0  0
  186.3810  178.3720  143.8370 N   0  0  0  0  0  0  0  0  0  0  0  0
  189.7870  177.0840  144.0470 C   0  0  0  0  0  0  0  0  0  0  0  0
  184.8060  179.0430  144.3350 S   0  0  0  0  0  0  0  0  0  0  0  0
  188.8100  177.5320  141.3870 C   0  0  0  0  0  3  0  0  0  0  0  0
  187.4330  177.8730  146.0240 C   0  0  0  0  0  0  0  0  0  0  0  0
  188.4370  177.6080  143.8000 C   0  0  0  0  0  0  0  0  0  0  0  0
  190.3420  176.8410  145.2890 C   0  0  0  0  0  3  0  0  0  0  0  0
  186.2310  178.2490  146.8170 C   0  0  0  0  0  1  0  0  0  0  0  0
  190.0970  177.0310  141.6090 C   0  0  0  0  0  3  0  0  0  0  0  0
  186.7780  178.2660  142.5450 C   0  0  0  0  0  0  0  0  0  0  0  0
  183.9240  178.3300  142.9150 C   0  0  0  0  0  2  0  0  0  0  0  0
  190.5710  176.8160  142.9160 C   0  0  0  0  0  3  0  0  0  0  0  0
  189.7900  177.0050  146.5510 C   0  0  0  0  0  0  0  0  0  0  0  0
  188.0340  177.8120  142.4610 N   0  0  0  0  0  0  0  0  0  0  0  0
  185.9810  178.4700  141.4900 C   0  0  0  0  0  3  0  0  0  0  0  0
  183.7830  178.5440  140.4870 O   0  0  0  0  0  0  0  0  0  0  0  0
  181.6300  180.3210  137.9330 C   0  0  0  0  0  1  0  0  0  0  0  0
  182.0820  179.4100  138.9710 N   0  0  0  0  0  2  0  0  0  0  0  0
  183.4130  179.4500  139.4850 C   0  0  0  0  0  0  0  0  0  0  0  0
  184.2400  180.2940  139.0410 O   0  0  0  0  0  0  0  0  0  0  0  0
  190.6320  176.6690  147.6190 O   0  0  0  0  0  0  0  0  0  0  0  0
  191.8050  175.9730  147.4690 C   0  0  0  0  0  0  0  0  0  0  0  0
  192.7950  175.3860  147.3430 N   0  0  0  0  0  0  0  0  0  0  0  0
  1 19  1  6  0  0  0
  1 14  1  0  0  0  0
  2  8  1  0  0  0  0
  4  6  1  0  0  0  0
  4  2  1  0  0  0  0
  5 10  1  0  0  0  0
  7 12  2  0  0  0  0
  7 17  1  0  0  0  0
  8 11  1  0  0  0  0
  8  3  2  0  0  0  0
  9  5  1  0  0  0  0
  9  2  2  0  0  0  0
 10 16  2  0  0  0  0
 12 15  1  0  0  0  0
 13  4  1  0  0  0  0
 14  6  1  0  0  0  0
 15  5  2  0  0  0  0
 16  3  1  0  0  0  0
 16 24  1  0  0  0  0
 17 13  1  0  0  0  0
 17  9  1  0  0  0  0
 18  1  1  0  0  0  0
 18 13  2  0  0  0  0
 20 21  1  0  0  0  0
 21 22  1  0  0  0  0
 22 19  1  0  0  0  0
 23 22  2  0  0  0  0
 25 24  1  0  0  0  0
 26 25  3  0  0  0  0
M  END
>  <MODEL>
3

>  <REMARK>
 VINA RESULT:      -8.7      1.943      3.598
  Name = 
  4 active torsions:
  status: ('A' for Active; 'I' for Inactive)
    1  A    between atoms: C_1  and  O_10
    2  A    between atoms: C_7  and  O_23
    3  A    between atoms: O_10  and  C_21
    4  A    between atoms: C_22  and  O_23
                            x       y       z     vdW  Elec       q    Type
                         _______ _______ _______ _____ _____    ______ ____

>  <TORSDO>
F 4

$$$$
=
 OpenBabel11042410553D

 26 29  0  0  1  0  0  0  0  0999 V2000
  189.9750  177.3090  143.3830 C   0  0  1  0  0  3  0  0  0  0  0  0
  185.8930  178.3640  142.8720 C   0  0  0  0  0  0  0  0  0  0  0  0
  183.6720  178.8390  141.8180 C   0  0  0  0  0  3  0  0  0  0  0  0
  187.2420  178.1080  142.8020 N   0  0  0  0  0  0  0  0  0  0  0  0
  184.2620  178.6270  144.8420 C   0  0  0  0  0  0  0  0  0  0  0  0
  188.3080  178.0380  141.3750 S   0  0  0  0  0  0  0  0  0  0  0  0
  186.6700  178.0860  146.3070 C   0  0  0  0  0  3  0  0  0  0  0  0
  185.0360  178.5560  141.7650 C   0  0  0  0  0  0  0  0  0  0  0  0
  185.5450  178.4030  144.1620 C   0  0  0  0  0  0  0  0  0  0  0  0
  183.0580  178.8960  144.2220 C   0  0  0  0  0  3  0  0  0  0  0  0
  185.5440  178.4580  140.3700 C   0  0  0  0  0  1  0  0  0  0  0  0
  185.4540  178.2950  146.9660 C   0  0  0  0  0  3  0  0  0  0  0  0
  187.6820  177.9730  144.0770 C   0  0  0  0  0  0  0  0  0  0  0  0
  189.3770  176.7550  142.0940 C   0  0  0  0  0  2  0  0  0  0  0  0
  184.2780  178.5630  146.2430 C   0  0  0  0  0  3  0  0  0  0  0  0
  182.7630  179.0030  142.8700 C   0  0  0  0  0  0  0  0  0  0  0  0
  186.6880  178.1540  144.9540 N   0  0  0  0  0  0  0  0  0  0  0  0
  188.9190  177.5890  144.4130 C   0  0  0  0  0  3  0  0  0  0  0  0
  190.9860  176.4450  143.9030 O   0  0  0  0  0  0  0  0  0  0  0  0
  192.4250  175.6320  147.3070 C   0  0  0  0  0  1  0  0  0  0  0  0
  191.7760  175.5130  146.0130 N   0  0  0  0  0  2  0  0  0  0  0  0
  191.6210  176.6300  145.1380 C   0  0  0  0  0  0  0  0  0  0  0  0
  192.0540  177.7660  145.4770 O   0  0  0  0  0  0  0  0  0  0  0  0
  181.4270  179.2960  142.5720 O   0  0  0  0  0  0  0  0  0  0  0  0
  180.3660  178.8330  143.3080 C   0  0  0  0  0  0  0  0  0  0  0  0
  179.4720  178.4420  143.9310 N   0  0  0  0  0  0  0  0  0  0  0  0
  1 19  1  1  0  0  0
  1 18  1  0  0  0  0
  2  9  2  0  0  0  0
  3 16  1  0  0  0  0
  4  2  1  0  0  0  0
  4 13  1  0  0  0  0
  5 15  2  0  0  0  0
  6 14  1  0  0  0  0
  6  4  1  0  0  0  0
  7 12  2  0  0  0  0
  8  3  2  0  0  0  0
  8  2  1  0  0  0  0
  9  5  1  0  0  0  0
  9 17  1  0  0  0  0
 10  5  1  0  0  0  0
 11  8  1  0  0  0  0
 13 18  2  0  0  0  0
 13 17  1  0  0  0  0
 14  1  1  0  0  0  0
 15 12  1  0  0  0  0
 16 10  2  0  0  0  0
 17  7  1  0  0  0  0
 19 22  1  0  0  0  0
 21 20  1  0  0  0  0
 22 23  2  0  0  0  0
 22 21  1  0  0  0  0
 24 16  1  0  0  0  0
 24 25  1  0  0  0  0
 25 26  3  0  0  0  0
M  END
>  <MODEL>
4

>  <REMARK>
 VINA RESULT:      -8.3      2.599      7.719
  Name = 
  4 active torsions:
  status: ('A' for Active; 'I' for Inactive)
    1  A    between atoms: C_1  and  O_10
    2  A    between atoms: C_7  and  O_23
    3  A    between atoms: O_10  and  C_21
    4  A    between atoms: C_22  and  O_23
                            x       y       z     vdW  Elec       q    Type
                         _______ _______ _______ _____ _____    ______ ____

>  <TORSDO>
F 4

$$$$
=
 OpenBabel11042410553D

 26 29  0  0  1  0  0  0  0  0999 V2000
  183.6140  179.0790  141.4840 C   0  0  1  0  0  3  0  0  0  0  0  0
  186.4640  178.1050  144.4790 C   0  0  0  0  0  0  0  0  0  0  0  0
  187.4960  177.5590  146.6940 C   0  0  0  0  0  3  0  0  0  0  0  0
  185.4150  178.5290  143.6980 N   0  0  0  0  0  0  0  0  0  0  0  0
  188.8700  177.3790  143.9330 C   0  0  0  0  0  0  0  0  0  0  0  0
  183.8010  179.1050  144.1880 S   0  0  0  0  0  0  0  0  0  0  0  0
  187.9370  177.9190  141.2740 C   0  0  0  0  0  3  0  0  0  0  0  0
  186.4360  177.9660  145.8850 C   0  0  0  0  0  0  0  0  0  0  0  0
  187.5040  177.8560  143.6770 C   0  0  0  0  0  0  0  0  0  0  0  0
  189.4040  177.0980  145.1760 C   0  0  0  0  0  3  0  0  0  0  0  0
  185.2000  178.2490  146.6640 C   0  0  0  0  0  1  0  0  0  0  0  0
  189.2400  177.4630  141.5050 C   0  0  0  0  0  3  0  0  0  0  0  0
  185.8470  178.5050  142.4140 C   0  0  0  0  0  0  0  0  0  0  0  0
  182.9850  178.4270  142.7120 C   0  0  0  0  0  2  0  0  0  0  0  0
  189.6920  177.2040  142.8110 C   0  0  0  0  0  3  0  0  0  0  0  0
  188.8160  177.1750  146.4300 C   0  0  0  0  0  0  0  0  0  0  0  0
  187.1240  178.1110  142.3400 N   0  0  0  0  0  0  0  0  0  0  0  0
  185.0680  178.7270  141.3490 C   0  0  0  0  0  3  0  0  0  0  0  0
  182.8930  178.7560  140.2940 O   0  0  0  0  0  0  0  0  0  0  0  0
  179.9930  176.3310  140.1380 C   0  0  0  0  0  1  0  0  0  0  0  0
  180.7830  177.5370  140.3220 N   0  0  0  0  0  2  0  0  0  0  0  0
  182.1920  177.5600  140.0990 C   0  0  0  0  0  0  0  0  0  0  0  0
  182.7930  176.5130  139.7290 O   0  0  0  0  0  0  0  0  0  0  0  0
  189.6470  176.8220  147.5020 O   0  0  0  0  0  0  0  0  0  0  0  0
  190.9900  176.5760  147.3700 C   0  0  0  0  0  0  0  0  0  0  0  0
  192.1230  176.3680  147.2590 N   0  0  0  0  0  0  0  0  0  0  0  0
  1 19  1  6  0  0  0
  1 14  1  0  0  0  0
  2  8  1  0  0  0  0
  4  6  1  0  0  0  0
  4  2  1  0  0  0  0
  5 10  1  0  0  0  0
  7 12  2  0  0  0  0
  7 17  1  0  0  0  0
  8 11  1  0  0  0  0
  8  3  2  0  0  0  0
  9  5  1  0  0  0  0
  9  2  2  0  0  0  0
 10 16  2  0  0  0  0
 12 15  1  0  0  0  0
 13  4  1  0  0  0  0
 14  6  1  0  0  0  0
 15  5  2  0  0  0  0
 16  3  1  0  0  0  0
 16 24  1  0  0  0  0
 17 13  1  0  0  0  0
 17  9  1  0  0  0  0
 18  1  1  0  0  0  0
 18 13  2  0  0  0  0
 20 21  1  0  0  0  0
 22 19  1  0  0  0  0
 22 21  1  0  0  0  0
 23 22  2  0  0  0  0
 25 24  1  0  0  0  0
 26 25  3  0  0  0  0
M  END
>  <MODEL>
5

>  <REMARK>
 VINA RESULT:      -8.3      2.274      4.098
  Name = 
  4 active torsions:
  status: ('A' for Active; 'I' for Inactive)
    1  A    between atoms: C_1  and  O_10
    2  A    between atoms: C_7  and  O_23
    3  A    between atoms: O_10  and  C_21
    4  A    between atoms: C_22  and  O_23
                            x       y       z     vdW  Elec       q    Type
                         _______ _______ _______ _____ _____    ______ ____

>  <TORSDO>
F 4

$$$$
=
 OpenBabel11042410553D

 26 29  0  0  1  0  0  0  0  0999 V2000
  190.6410  177.1540  138.6560 C   0  0  1  0  0  3  0  0  0  0  0  0
  188.3510  177.7760  142.1790 C   0  0  0  0  0  0  0  0  0  0  0  0
  186.4340  178.2520  143.7180 C   0  0  0  0  0  3  0  0  0  0  0  0
  188.9250  177.7290  140.9310 N   0  0  0  0  0  0  0  0  0  0  0  0
  189.2310  177.2240  144.5310 C   0  0  0  0  0  0  0  0  0  0  0  0
  188.2530  178.2270  139.3570 S   0  0  0  0  0  0  0  0  0  0  0  0
  191.5740  176.5870  143.0020 C   0  0  0  0  0  3  0  0  0  0  0  0
  187.0260  178.1770  142.4580 C   0  0  0  0  0  0  0  0  0  0  0  0
  189.2650  177.3830  143.0710 C   0  0  0  0  0  0  0  0  0  0  0  0
  188.1530  177.5090  145.3470 C   0  0  0  0  0  3  0  0  0  0  0  0
  186.0920  178.5670  141.3660 C   0  0  0  0  0  1  0  0  0  0  0  0
  191.5530  176.4300  144.3920 C   0  0  0  0  0  3  0  0  0  0  0  0
  190.1920  177.2780  141.0980 C   0  0  0  0  0  0  0  0  0  0  0  0
  189.1460  176.9380  138.4380 C   0  0  0  0  0  2  0  0  0  0  0  0
  190.4020  176.7480  145.1360 C   0  0  0  0  0  3  0  0  0  0  0  0
  186.8900  177.9760  145.0120 C   0  0  0  0  0  0  0  0  0  0  0  0
  190.4610  177.0590  142.3910 N   0  0  0  0  0  0  0  0  0  0  0  0
  191.0250  176.9740  140.0960 C   0  0  0  0  0  3  0  0  0  0  0  0
  191.4200  176.3120  137.8050 O   0  0  0  0  0  0  0  0  0  0  0  0
  194.7820  174.5760  137.8250 C   0  0  0  0  0  1  0  0  0  0  0  0
  193.3560  174.8340  137.7140 N   0  0  0  0  0  2  0  0  0  0  0  0
  192.8030  176.1330  137.9290 C   0  0  0  0  0  0  0  0  0  0  0  0
  193.5560  177.1010  138.2250 O   0  0  0  0  0  0  0  0  0  0  0  0
  186.0200  178.1690  146.0930 O   0  0  0  0  0  0  0  0  0  0  0  0
  184.7310  178.6210  145.9570 C   0  0  0  0  0  0  0  0  0  0  0  0
  183.6440  179.0030  145.8430 N   0  0  0  0  0  0  0  0  0  0  0  0
  1 19  1  6  0  0  0
  1 18  1  0  0  0  0
  2  8  1  0  0  0  0
  2  9  2  0  0  0  0
  3 16  1  0  0  0  0
  4 13  1  0  0  0  0
  4  2  1  0  0  0  0
  5 15  2  0  0  0  0
  5 10  1  0  0  0  0
  6  4  1  0  0  0  0
  7 12  2  0  0  0  0
  8  3  2  0  0  0  0
  9  5  1  0  0  0  0
 11  8  1  0  0  0  0
 12 15  1  0  0  0  0
 13 17  1  0  0  0  0
 14  1  1  0  0  0  0
 14  6  1  0  0  0  0
 16 10  2  0  0  0  0
 16 24  1  0  0  0  0
 17  7  1  0  0  0  0
 17  9  1  0  0  0  0
 18 13  2  0  0  0  0
 19 22  1  0  0  0  0
 21 20  1  0  0  0  0
 21 22  1  0  0  0  0
 22 23  2  0  0  0  0
 25 24  1  0  0  0  0
 26 25  3  0  0  0  0
M  END
>  <MODEL>
6

>  <REMARK>
 VINA RESULT:      -8.3      3.844      6.559
  Name = 
  4 active torsions:
  status: ('A' for Active; 'I' for Inactive)
    1  A    between atoms: C_1  and  O_10
    2  A    between atoms: C_7  and  O_23
    3  A    between atoms: O_10  and  C_21
    4  A    between atoms: C_22  and  O_23
                            x       y       z     vdW  Elec       q    Type
                         _______ _______ _______ _____ _____    ______ ____

>  <TORSDO>
F 4

$$$$
=
 OpenBabel11042410553D

 26 29  0  0  1  0  0  0  0  0999 V2000
  190.4080  177.1140  139.8480 C   0  0  1  0  0  3  0  0  0  0  0  0
  186.9970  178.1790  142.1440 C   0  0  0  0  0  0  0  0  0  0  0  0
  184.6720  178.8600  142.7750 C   0  0  0  0  0  3  0  0  0  0  0  0
  187.9960  177.9760  141.2220 N   0  0  0  0  0  0  0  0  0  0  0  0
  186.8900  177.8960  144.6970 C   0  0  0  0  0  0  0  0  0  0  0  0
  187.9990  178.2950  139.4680 S   0  0  0  0  0  0  0  0  0  0  0  0
  189.5960  177.0510  144.2540 C   0  0  0  0  0  3  0  0  0  0  0  0
  185.6900  178.6280  141.8520 C   0  0  0  0  0  0  0  0  0  0  0  0
  187.4820  177.8800  143.3530 C   0  0  0  0  0  0  0  0  0  0  0  0
  185.6020  178.2900  145.0050 C   0  0  0  0  0  3  0  0  0  0  0  0
  185.2620  178.8990  140.4530 C   0  0  0  0  0  1  0  0  0  0  0  0
  189.0430  177.0590  145.5390 C   0  0  0  0  0  3  0  0  0  0  0  0
  189.0780  177.5310  141.9070 C   0  0  0  0  0  0  0  0  0  0  0  0
  189.0970  176.8940  139.0990 C   0  0  0  0  0  2  0  0  0  0  0  0
  187.7160  177.4780  145.7500 C   0  0  0  0  0  3  0  0  0  0  0  0
  184.5880  178.7310  144.1670 C   0  0  0  0  0  0  0  0  0  0  0  0
  188.8260  177.4620  143.2190 N   0  0  0  0  0  0  0  0  0  0  0  0
  190.2090  177.1000  141.3360 C   0  0  0  0  0  3  0  0  0  0  0  0
  191.4010  176.1670  139.4520 O   0  0  0  0  0  0  0  0  0  0  0  0
  191.2840  173.8370  136.4720 C   0  0  0  0  0  1  0  0  0  0  0  0
  191.1430  174.3810  137.8120 N   0  0  0  0  0  2  0  0  0  0  0  0
  191.5680  175.7040  138.1400 C   0  0  0  0  0  0  0  0  0  0  0  0
  192.0850  176.4420  137.2560 O   0  0  0  0  0  0  0  0  0  0  0  0
  183.3870  179.0630  144.8070 O   0  0  0  0  0  0  0  0  0  0  0  0
  182.1500  178.8750  144.2420 C   0  0  0  0  0  0  0  0  0  0  0  0
  181.1070  178.7170  143.7660 N   0  0  0  0  0  0  0  0  0  0  0  0
  1 19  1  1  0  0  0
  1 18  1  0  0  0  0
  2  9  2  0  0  0  0
  3 16  1  0  0  0  0
  4 13  1  0  0  0  0
  4  2  1  0  0  0  0
  5 10  1  0  0  0  0
  5 15  2  0  0  0  0
  6  4  1  0  0  0  0
  7 12  2  0  0  0  0
  8  2  1  0  0  0  0
  8  3  2  0  0  0  0
  9  5  1  0  0  0  0
 11  8  1  0  0  0  0
 12 15  1  0  0  0  0
 13 17  1  0  0  0  0
 14  6  1  0  0  0  0
 14  1  1  0  0  0  0
 16 24  1  0  0  0  0
 16 10  2  0  0  0  0
 17  9  1  0  0  0  0
 17  7  1  0  0  0  0
 18 13  2  0  0  0  0
 20 21  1  0  0  0  0
 21 22  1  0  0  0  0
 22 19  1  0  0  0  0
 23 22  2  0  0  0  0
 25 24  1  0  0  0  0
 26 25  3  0  0  0  0
M  END
>  <MODEL>
7

>  <REMARK>
 VINA RESULT:      -8.3      3.678      6.808
  Name = 
  4 active torsions:
  status: ('A' for Active; 'I' for Inactive)
    1  A    between atoms: C_1  and  O_10
    2  A    between atoms: C_7  and  O_23
    3  A    between atoms: O_10  and  C_21
    4  A    between atoms: C_22  and  O_23
                            x       y       z     vdW  Elec       q    Type
                         _______ _______ _______ _____ _____    ______ ____

>  <TORSDO>
F 4

$$$$
=
 OpenBabel11042410553D

 26 29  0  0  1  0  0  0  0  0999 V2000
  184.1730  179.1140  141.1770 C   0  0  1  0  0  3  0  0  0  0  0  0
  187.7010  177.8810  143.1950 C   0  0  0  0  0  0  0  0  0  0  0  0
  189.2650  177.0780  144.9770 C   0  0  0  0  0  3  0  0  0  0  0  0
  186.4820  178.3530  142.7700 N   0  0  0  0  0  0  0  0  0  0  0  0
  189.9080  177.3850  141.9710 C   0  0  0  0  0  0  0  0  0  0  0  0
  185.0300  178.7560  143.7230 S   0  0  0  0  0  0  0  0  0  0  0  0
  188.3280  178.2530  139.7380 C   0  0  0  0  0  3  0  0  0  0  0  0
  188.0290  177.5360  144.5250 C   0  0  0  0  0  0  0  0  0  0  0  0
  188.5120  177.8140  142.1340 C   0  0  0  0  0  0  0  0  0  0  0  0
  190.7420  176.9570  142.9860 C   0  0  0  0  0  3  0  0  0  0  0  0
  187.0220  177.6290  145.6170 C   0  0  0  0  0  1  0  0  0  0  0  0
  189.6560  177.8450  139.5700 C   0  0  0  0  0  3  0  0  0  0  0  0
  186.5790  178.5420  141.4310 C   0  0  0  0  0  0  0  0  0  0  0  0
  183.8850  178.2540  142.4040 C   0  0  0  0  0  2  0  0  0  0  0  0
  190.4260  177.4240  140.6690 C   0  0  0  0  0  3  0  0  0  0  0  0
  190.4850  176.8140  144.3420 C   0  0  0  0  0  0  0  0  0  0  0  0
  187.8040  178.2390  140.9870 N   0  0  0  0  0  0  0  0  0  0  0  0
  185.5530  178.8720  140.6380 C   0  0  0  0  0  3  0  0  0  0  0  0
  183.1840  178.9280  140.1640 O   0  0  0  0  0  0  0  0  0  0  0  0
  180.0390  176.8440  140.4670 C   0  0  0  0  0  1  0  0  0  0  0  0
  181.4110  177.2550  140.2190 N   0  0  0  0  0  2  0  0  0  0  0  0
  181.8460  178.6000  140.4210 C   0  0  0  0  0  0  0  0  0  0  0  0
  181.0330  179.4760  140.8260 O   0  0  0  0  0  0  0  0  0  0  0  0
  191.5640  176.3580  145.1090 O   0  0  0  0  0  0  0  0  0  0  0  0
  191.6780  176.5720  146.4600 C   0  0  0  0  0  0  0  0  0  0  0  0
  191.7740  176.7510  147.5990 N   0  0  0  0  0  0  0  0  0  0  0  0
  1 19  1  6  0  0  0
  1 14  1  0  0  0  0
  2  8  1  0  0  0  0
  4  2  1  0  0  0  0
  4  6  1  0  0  0  0
  5  9  1  0  0  0  0
  5 10  1  0  0  0  0
  7 17  1  0  0  0  0
  8  3  2  0  0  0  0
  8 11  1  0  0  0  0
  9  2  2  0  0  0  0
 10 16  2  0  0  0  0
 12  7  2  0  0  0  0
 12 15  1  0  0  0  0
 13  4  1  0  0  0  0
 14  6  1  0  0  0  0
 15  5  2  0  0  0  0
 16  3  1  0  0  0  0
 16 24  1  0  0  0  0
 17 13  1  0  0  0  0
 17  9  1  0  0  0  0
 18  1  1  0  0  0  0
 18 13  2  0  0  0  0
 19 22  1  0  0  0  0
 21 22  1  0  0  0  0
 21 20  1  0  0  0  0
 22 23  2  0  0  0  0
 24 25  1  0  0  0  0
 25 26  3  0  0  0  0
M  END
>  <MODEL>
8

>  <REMARK>
 VINA RESULT:      -8.1      2.173      4.231
  Name = 
  4 active torsions:
  status: ('A' for Active; 'I' for Inactive)
    1  A    between atoms: C_1  and  O_10
    2  A    between atoms: C_7  and  O_23
    3  A    between atoms: O_10  and  C_21
    4  A    between atoms: C_22  and  O_23
                            x       y       z     vdW  Elec       q    Type
                         _______ _______ _______ _____ _____    ______ ____

>  <TORSDO>
F 4

$$$$
=
 OpenBabel11042410553D

 26 29  0  0  1  0  0  0  0  0999 V2000
  190.3060  176.9010  146.8360 C   0  0  1  0  0  3  0  0  0  0  0  0
  186.6100  177.9630  145.0340 C   0  0  0  0  0  0  0  0  0  0  0  0
  184.2350  178.6950  144.7290 C   0  0  0  0  0  3  0  0  0  0  0  0
  187.6650  177.5530  145.8140 N   0  0  0  0  0  0  0  0  0  0  0  0
  186.3470  178.3370  142.5040 C   0  0  0  0  0  0  0  0  0  0  0  0
  187.7170  177.2310  147.5670 S   0  0  0  0  0  0  0  0  0  0  0  0
  189.1020  177.5380  142.5670 C   0  0  0  0  0  3  0  0  0  0  0  0
  185.3220  178.2990  145.5070 C   0  0  0  0  0  0  0  0  0  0  0  0
  187.0180  177.9820  143.7610 C   0  0  0  0  0  0  0  0  0  0  0  0
  185.0280  178.7280  142.3770 C   0  0  0  0  0  3  0  0  0  0  0  0
  185.0000  178.2650  146.9590 C   0  0  0  0  0  1  0  0  0  0  0  0
  188.4750  177.8760  141.3630 C   0  0  0  0  0  3  0  0  0  0  0  0
  188.7140  177.3500  144.9800 C   0  0  0  0  0  0  0  0  0  0  0  0
  189.4410  177.7830  147.7320 C   0  0  0  0  0  2  0  0  0  0  0  0
  187.1230  178.2640  141.3380 C   0  0  0  0  0  3  0  0  0  0  0  0
  184.0570  178.8920  143.3540 C   0  0  0  0  0  0  0  0  0  0  0  0
  188.3740  177.5870  143.7080 N   0  0  0  0  0  0  0  0  0  0  0  0
  189.9580  177.0690  145.3850 C   0  0  0  0  0  3  0  0  0  0  0  0
  191.6970  177.1320  147.0620 O   0  0  0  0  0  0  0  0  0  0  0  0
  193.5830  176.7580  150.3220 C   0  0  0  0  0  1  0  0  0  0  0  0
  192.8160  177.3150  149.2200 N   0  0  0  0  0  2  0  0  0  0  0  0
  192.4380  176.5320  148.0890 C   0  0  0  0  0  0  0  0  0  0  0  0
  192.7680  175.3160  148.0200 O   0  0  0  0  0  0  0  0  0  0  0  0
  182.8010  179.2970  142.8850 O   0  0  0  0  0  0  0  0  0  0  0  0
  181.6170  178.9300  143.4730 C   0  0  0  0  0  0  0  0  0  0  0  0
  180.6180  178.6200  143.9690 N   0  0  0  0  0  0  0  0  0  0  0  0
  1 19  1  6  0  0  0
  1 14  1  0  0  0  0
  2  8  1  0  0  0  0
  2  4  1  0  0  0  0
  3  8  2  0  0  0  0
  4  6  1  0  0  0  0
  5  9  1  0  0  0  0
  6 14  1  0  0  0  0
  7 17  1  0  0  0  0
  8 11  1  0  0  0  0
  9  2  2  0  0  0  0
 10  5  1  0  0  0  0
 10 16  2  0  0  0  0
 12  7  2  0  0  0  0
 13 18  2  0  0  0  0
 13  4  1  0  0  0  0
 15 12  1  0  0  0  0
 15  5  2  0  0  0  0
 16  3  1  0  0  0  0
 17  9  1  0  0  0  0
 17 13  1  0  0  0  0
 18  1  1  0  0  0  0
 19 22  1  0  0  0  0
 21 20  1  0  0  0  0
 22 21  1  0  0  0  0
 23 22  2  0  0  0  0
 24 16  1  0  0  0  0
 24 25  1  0  0  0  0
 25 26  3  0  0  0  0
M  END
>  <MODEL>
9

>  <REMARK>
 VINA RESULT:      -8.0      2.228      8.441
  Name = 
  4 active torsions:
  status: ('A' for Active; 'I' for Inactive)
    1  A    between atoms: C_1  and  O_10
    2  A    between atoms: C_7  and  O_23
    3  A    between atoms: O_10  and  C_21
    4  A    between atoms: C_22  and  O_23
                            x       y       z     vdW  Elec       q    Type
                         _______ _______ _______ _____ _____    ______ ____

>  <TORSDO>
F 4

$$$$
