=
 OpenBabel11032420123D

 36 39  0  0  1  0  0  0  0  0999 V2000
  184.8350  178.6690  144.7530 C   0  0  0  0  0  0  0  0  0  0  0  0
  187.6780  178.2100  141.7020 C   0  0  0  0  0  3  0  0  0  0  0  0
  186.0320  178.6060  140.0270 N   0  0  0  0  0  0  0  0  0  0  0  0
  185.3660  178.6770  142.3280 C   0  0  0  0  0  0  0  0  0  0  0  0
  187.3210  178.3300  140.3580 C   0  0  0  0  0  0  0  0  0  0  0  0
  187.0990  178.2170  144.0690 N   0  0  0  0  0  0  0  0  0  0  0  0
  185.1120  178.4590  146.9190 N   0  0  0  0  0  0  0  0  0  0  0  0
  186.2060  178.3700  144.9920 C   0  0  0  0  0  0  0  0  0  0  0  0
  184.2800  178.8710  143.3810 C   0  0  0  0  0  2  0  0  0  0  0  0
  186.7110  178.3710  142.6920 C   0  0  0  0  0  0  0  0  0  0  0  0
  184.1970  178.7210  145.8760 N   0  0  0  0  0  0  0  0  0  0  0  0
  185.0560  178.8030  140.9600 C   0  0  0  0  0  0  0  0  0  0  0  0
  186.2960  178.2470  146.4250 C   0  0  0  0  0  0  0  0  0  0  0  0
  182.7760  178.0160  140.5670 N   0  0  0  0  0  2  0  0  0  0  0  0
  183.6560  179.7390  139.1040 C   0  0  0  0  0  2  0  0  0  0  0  0
  183.6640  179.1780  140.5160 C   0  0  2  0  0  3  0  0  0  0  0  0
  183.0760  178.6340  138.2610 C   0  0  0  0  0  2  0  0  0  0  0  0
  182.2390  177.8190  139.2200 C   0  0  2  0  0  3  0  0  0  0  0  0
  180.1000  177.9160  140.3810 N   0  0  0  0  0  1  0  0  0  0  0  0
  180.7920  178.2910  139.1600 C   0  0  0  0  0  2  0  0  0  0  0  0
  187.4900  177.9420  147.2230 C   0  0  0  0  0  0  0  0  0  0  0  0
  188.5370  177.1400  146.6700 N   0  0  0  0  0  2  0  0  0  0  0  0
  187.5840  178.3870  148.4000 O   0  0  0  0  0  0  0  0  0  0  0  0
  189.7790  176.8720  147.3860 C   0  0  0  0  0  2  0  0  0  0  0  0
  192.0470  176.5660  146.8100 O   0  0  0  0  0  0  0  0  0  0  0  0
  190.7430  177.4030  145.0440 C   0  0  0  0  0  1  0  0  0  0  0  0
  190.9400  176.9290  146.4430 C   0  0  0  0  0  0  0  0  0  0  0  0
  188.1590  178.8020  138.1460 N   0  0  0  0  0  0  0  0  0  0  0  0
  188.3160  178.2150  139.2880 C   0  0  0  0  0  3  0  0  0  0  0  0
  189.1480  178.6590  137.0870 C   0  0  0  0  0  2  0  0  0  0  0  0
  188.9010  177.3880  136.2800 C   0  0  0  0  0  2  0  0  0  0  0  0
  185.1390  176.4850  135.9930 C   0  0  0  0  0  1  0  0  0  0  0  0
  187.0150  175.2250  137.0620 C   0  0  0  0  0  1  0  0  0  0  0  0
  187.1300  178.1590  134.8910 O   0  0  0  0  0  0  0  0  0  0  0  0
  187.4880  177.3380  135.7790 C   0  0  0  0  0  0  0  0  0  0  0  0
  186.5600  176.3620  136.2760 N   0  0  0  0  0  0  0  0  0  0  0  0
  1  8  1  0  0  0  0
  1 11  2  0  0  0  0
  2 10  1  0  0  0  0
  3  5  1  0  0  0  0
  3 12  2  0  0  0  0
  4 10  2  0  0  0  0
  4  9  1  0  0  0  0
  5  2  2  0  0  0  0
  6  8  2  0  0  0  0
  8 13  1  0  0  0  0
  9  1  1  0  0  0  0
 10  6  1  0  0  0  0
 11  7  1  0  0  0  0
 12  4  1  0  0  0  0
 13  7  2  0  0  0  0
 13 21  1  0  0  0  0
 15 16  1  0  0  0  0
 16 14  1  0  0  0  0
 16 12  1  6  0  0  0
 17 15  1  0  0  0  0
 17 18  1  0  0  0  0
 18 20  1  1  0  0  0
 18 14  1  0  0  0  0
 20 19  1  0  0  0  0
 21 23  2  0  0  0  0
 22 21  1  0  0  0  0
 22 24  1  0  0  0  0
 26 27  1  0  0  0  0
 27 25  2  0  0  0  0
 27 24  1  0  0  0  0
 28 29  2  0  0  0  0
 29  5  1  0  0  0  0
 30 28  1  0  0  0  0
 31 30  1  0  0  0  0
 32 36  1  0  0  0  0
 34 35  2  0  0  0  0
 35 36  1  0  0  0  0
 35 31  1  0  0  0  0
 36 33  1  0  0  0  0
M  END
>  <MODEL>
1

>  <REMARK>
 VINA RESULT:      -8.5      0.000      0.000
  Name = 
  9 active torsions:
  status: ('A' for Active; 'I' for Inactive)
    1  A    between atoms: N_6  and  C_30
    2  A    between atoms: C_9  and  C_10
    3  A    between atoms: C_11  and  C_20
    4  A    between atoms: C_11  and  N_27
    5  A    between atoms: C_12  and  C_32
    6  A    between atoms: C_15  and  C_35
    7  A    between atoms: C_24  and  C_29
    8  A    between atoms: C_24  and  C_30
    9  A    between atoms: C_31  and  C_33
                            x       y       z     vdW  Elec       q    Type
                         _______ _______ _______ _____ _____    ______ ____

>  <TORSDO>
F 9

$$$$
=
 OpenBabel11032420123D

 36 39  0  0  1  0  0  0  0  0999 V2000
  184.8820  178.6990  144.7630 C   0  0  0  0  0  0  0  0  0  0  0  0
  187.7450  178.1790  141.7390 C   0  0  0  0  0  3  0  0  0  0  0  0
  186.1160  178.5710  140.0470 N   0  0  0  0  0  0  0  0  0  0  0  0
  185.4320  178.6740  142.3420 C   0  0  0  0  0  0  0  0  0  0  0  0
  187.3990  178.2870  140.3910 C   0  0  0  0  0  0  0  0  0  0  0  0
  187.1470  178.2190  144.1010 N   0  0  0  0  0  0  0  0  0  0  0  0
  185.1410  178.5120  146.9330 N   0  0  0  0  0  0  0  0  0  0  0  0
  186.2490  178.3900  145.0160 C   0  0  0  0  0  0  0  0  0  0  0  0
  184.3400  178.8900  143.3840 C   0  0  0  0  0  2  0  0  0  0  0  0
  186.7720  178.3600  142.7190 C   0  0  0  0  0  0  0  0  0  0  0  0
  184.2370  178.7700  145.8800 N   0  0  0  0  0  0  0  0  0  0  0  0
  185.1340  178.7870  140.9700 C   0  0  0  0  0  0  0  0  0  0  0  0
  186.3270  178.2830  146.4510 C   0  0  0  0  0  0  0  0  0  0  0  0
  182.8500  178.0160  140.5690 N   0  0  0  0  0  2  0  0  0  0  0  0
  183.7570  179.7140  139.0920 C   0  0  0  0  0  2  0  0  0  0  0  0
  183.7490  179.1690  140.5110 C   0  0  2  0  0  3  0  0  0  0  0  0
  183.1740  178.6050  138.2580 C   0  0  0  0  0  2  0  0  0  0  0  0
  182.3210  177.8080  139.2200 C   0  0  2  0  0  3  0  0  0  0  0  0
  180.2750  178.2530  140.4640 N   0  0  0  0  0  1  0  0  0  0  0  0
  180.8800  178.2920  139.1430 C   0  0  0  0  0  2  0  0  0  0  0  0
  187.5120  177.9770  147.2610 C   0  0  0  0  0  0  0  0  0  0  0  0
  188.5620  177.1710  146.7210 N   0  0  0  0  0  2  0  0  0  0  0  0
  187.5950  178.4230  148.4380 O   0  0  0  0  0  0  0  0  0  0  0  0
  189.7970  176.9010  147.4500 C   0  0  0  0  0  2  0  0  0  0  0  0
  192.0660  176.5530  146.9060 O   0  0  0  0  0  0  0  0  0  0  0  0
  190.7590  177.2110  145.0670 C   0  0  0  0  0  1  0  0  0  0  0  0
  190.9570  176.8740  146.5050 C   0  0  0  0  0  0  0  0  0  0  0  0
  188.4350  177.1150  138.5560 N   0  0  0  0  0  0  0  0  0  0  0  0
  188.4010  178.1500  139.3300 C   0  0  0  0  0  3  0  0  0  0  0  0
  189.4520  176.9860  137.5210 C   0  0  0  0  0  2  0  0  0  0  0  0
  190.8370  176.8100  138.1370 C   0  0  0  0  0  2  0  0  0  0  0  0
  193.3400  173.9490  137.3600 C   0  0  0  0  0  1  0  0  0  0  0  0
  193.5270  176.4050  136.9320 C   0  0  0  0  0  1  0  0  0  0  0  0
  190.6290  174.4450  137.9790 O   0  0  0  0  0  0  0  0  0  0  0  0
  191.3850  175.4450  137.8420 C   0  0  0  0  0  0  0  0  0  0  0  0
  192.7350  175.2710  137.3870 N   0  0  0  0  0  0  0  0  0  0  0  0
  1  8  1  0  0  0  0
  1 11  2  0  0  0  0
  2 10  1  0  0  0  0
  3  5  1  0  0  0  0
  3 12  2  0  0  0  0
  4 10  2  0  0  0  0
  4  9  1  0  0  0  0
  5  2  2  0  0  0  0
  6  8  2  0  0  0  0
  8 13  1  0  0  0  0
  9  1  1  0  0  0  0
 10  6  1  0  0  0  0
 11  7  1  0  0  0  0
 12  4  1  0  0  0  0
 13  7  2  0  0  0  0
 13 21  1  0  0  0  0
 15 16  1  0  0  0  0
 16 14  1  0  0  0  0
 16 12  1  6  0  0  0
 17 15  1  0  0  0  0
 17 18  1  0  0  0  0
 18 20  1  1  0  0  0
 18 14  1  0  0  0  0
 20 19  1  0  0  0  0
 21 23  2  0  0  0  0
 22 21  1  0  0  0  0
 22 24  1  0  0  0  0
 26 27  1  0  0  0  0
 27 25  2  0  0  0  0
 27 24  1  0  0  0  0
 28 29  2  0  0  0  0
 29  5  1  0  0  0  0
 30 31  1  0  0  0  0
 30 28  1  0  0  0  0
 32 36  1  0  0  0  0
 33 36  1  0  0  0  0
 35 34  2  0  0  0  0
 35 31  1  0  0  0  0
 36 35  1  0  0  0  0
M  END
>  <MODEL>
2

>  <REMARK>
 VINA RESULT:      -8.4      2.043      2.542
  Name = 
  9 active torsions:
  status: ('A' for Active; 'I' for Inactive)
    1  A    between atoms: N_6  and  C_30
    2  A    between atoms: C_9  and  C_10
    3  A    between atoms: C_11  and  C_20
    4  A    between atoms: C_11  and  N_27
    5  A    between atoms: C_12  and  C_32
    6  A    between atoms: C_15  and  C_35
    7  A    between atoms: C_24  and  C_29
    8  A    between atoms: C_24  and  C_30
    9  A    between atoms: C_31  and  C_33
                            x       y       z     vdW  Elec       q    Type
                         _______ _______ _______ _____ _____    ______ ____

>  <TORSDO>
F 9

$$$$
=
 OpenBabel11032420123D

 36 39  0  0  1  0  0  0  0  0999 V2000
  185.8280  178.5230  145.5290 C   0  0  0  0  0  0  0  0  0  0  0  0
  188.3230  177.5220  142.3070 C   0  0  0  0  0  3  0  0  0  0  0  0
  190.2150  177.3650  143.7450 N   0  0  0  0  0  0  0  0  0  0  0  0
  188.0900  177.9180  144.7040 C   0  0  0  0  0  0  0  0  0  0  0  0
  189.6850  177.2810  142.4970 C   0  0  0  0  0  0  0  0  0  0  0  0
  186.1250  178.1180  143.1740 N   0  0  0  0  0  0  0  0  0  0  0  0
  183.6910  179.0190  145.4960 N   0  0  0  0  0  0  0  0  0  0  0  0
  185.3740  178.4180  144.1830 C   0  0  0  0  0  0  0  0  0  0  0  0
  187.2440  178.2620  145.9250 C   0  0  0  0  0  2  0  0  0  0  0  0
  187.5210  177.8490  143.3980 C   0  0  0  0  0  0  0  0  0  0  0  0
  184.8470  178.8730  146.2940 N   0  0  0  0  0  0  0  0  0  0  0  0
  189.4660  177.6520  144.8480 C   0  0  0  0  0  0  0  0  0  0  0  0
  183.9760  178.7610  144.2540 C   0  0  0  0  0  0  0  0  0  0  0  0
  191.5250  177.2820  146.1120 N   0  0  0  0  0  2  0  0  0  0  0  0
  189.4190  176.7010  147.1660 C   0  0  0  0  0  2  0  0  0  0  0  0
  190.1140  177.6560  146.2110 C   0  0  2  0  0  3  0  0  0  0  0  0
  190.3620  175.5330  147.2850 C   0  0  0  0  0  2  0  0  0  0  0  0
  191.7230  176.1030  146.9550 C   0  0  2  0  0  3  0  0  0  0  0  0
  193.6570  175.7200  148.3840 N   0  0  0  0  0  1  0  0  0  0  0  0
  192.4360  176.4940  148.2420 C   0  0  0  0  0  2  0  0  0  0  0  0
  183.0120  178.8160  143.1490 C   0  0  0  0  0  0  0  0  0  0  0  0
  183.4620  178.6880  141.7970 N   0  0  0  0  0  2  0  0  0  0  0  0
  181.7860  178.9830  143.3970 O   0  0  0  0  0  0  0  0  0  0  0  0
  182.5420  178.6540  140.6660 C   0  0  0  0  0  2  0  0  0  0  0  0
  184.2420  179.8550  139.5540 O   0  0  0  0  0  0  0  0  0  0  0  0
  182.1990  179.8430  138.3930 C   0  0  0  0  0  1  0  0  0  0  0  0
  183.0770  179.4860  139.5420 C   0  0  0  0  0  0  0  0  0  0  0  0
  190.1030  176.7660  140.1790 N   0  0  0  0  0  0  0  0  0  0  0  0
  190.5550  176.8880  141.3850 C   0  0  0  0  0  3  0  0  0  0  0  0
  190.9770  176.3530  139.0890 C   0  0  0  0  0  2  0  0  0  0  0  0
  190.1670  176.0010  137.8450 C   0  0  0  0  0  2  0  0  0  0  0  0
  186.8110  177.8780  137.3260 C   0  0  0  0  0  1  0  0  0  0  0  0
  187.3080  175.4280  137.2520 C   0  0  0  0  0  1  0  0  0  0  0  0
  189.6100  178.2620  137.3590 O   0  0  0  0  0  0  0  0  0  0  0  0
  189.1830  177.0870  137.5210 C   0  0  0  0  0  0  0  0  0  0  0  0
  187.7850  176.7990  137.3720 N   0  0  0  0  0  0  0  0  0  0  0  0
  1  9  1  0  0  0  0
  1 11  2  0  0  0  0
  2  5  2  0  0  0  0
  2 10  1  0  0  0  0
  3 12  2  0  0  0  0
  4 12  1  0  0  0  0
  4  9  1  0  0  0  0
  5  3  1  0  0  0  0
  6 10  1  0  0  0  0
  6  8  2  0  0  0  0
  7 11  1  0  0  0  0
  8 13  1  0  0  0  0
  8  1  1  0  0  0  0
 10  4  2  0  0  0  0
 13  7  2  0  0  0  0
 14 16  1  0  0  0  0
 14 18  1  0  0  0  0
 15 17  1  0  0  0  0
 16 12  1  6  0  0  0
 16 15  1  0  0  0  0
 18 17  1  0  0  0  0
 18 20  1  1  0  0  0
 20 19  1  0  0  0  0
 21 23  2  0  0  0  0
 21 13  1  0  0  0  0
 22 21  1  0  0  0  0
 24 22  1  0  0  0  0
 26 27  1  0  0  0  0
 27 25  2  0  0  0  0
 27 24  1  0  0  0  0
 28 29  2  0  0  0  0
 29  5  1  0  0  0  0
 30 28  1  0  0  0  0
 31 30  1  0  0  0  0
 32 36  1  0  0  0  0
 33 36  1  0  0  0  0
 34 35  2  0  0  0  0
 35 31  1  0  0  0  0
 36 35  1  0  0  0  0
M  END
>  <MODEL>
3

>  <REMARK>
 VINA RESULT:      -7.8      2.753      7.220
  Name = 
  9 active torsions:
  status: ('A' for Active; 'I' for Inactive)
    1  A    between atoms: N_6  and  C_30
    2  A    between atoms: C_9  and  C_10
    3  A    between atoms: C_11  and  C_20
    4  A    between atoms: C_11  and  N_27
    5  A    between atoms: C_12  and  C_32
    6  A    between atoms: C_15  and  C_35
    7  A    between atoms: C_24  and  C_29
    8  A    between atoms: C_24  and  C_30
    9  A    between atoms: C_31  and  C_33
                            x       y       z     vdW  Elec       q    Type
                         _______ _______ _______ _____ _____    ______ ____

>  <TORSDO>
F 9

$$$$
=
 OpenBabel11032420123D

 36 39  0  0  1  0  0  0  0  0999 V2000
  190.4300  177.3370  141.8220 C   0  0  0  0  0  0  0  0  0  0  0  0
  186.4130  178.4730  142.2430 C   0  0  0  0  0  3  0  0  0  0  0  0
  186.1560  178.6560  139.8820 N   0  0  0  0  0  0  0  0  0  0  0  0
  188.2830  177.9800  140.7540 C   0  0  0  0  0  0  0  0  0  0  0  0
  185.6220  178.7550  141.1270 C   0  0  0  0  0  0  0  0  0  0  0  0
  188.5450  177.8340  143.2350 N   0  0  0  0  0  0  0  0  0  0  0  0
  191.9010  176.9140  143.3940 N   0  0  0  0  0  0  0  0  0  0  0  0
  189.7790  177.4790  143.0800 C   0  0  2  0  0  3  0  0  0  0  0  0
  189.7310  177.5590  140.5220 C   0  0  0  0  0  3  0  0  0  0  0  0
  187.7430  178.0960  142.0690 C   0  0  0  0  0  0  0  0  0  0  0  0
  191.6660  177.0080  142.0050 N   0  0  0  0  0  0  0  0  0  0  0  0
  187.4420  178.2600  139.6590 C   0  0  0  0  0  0  0  0  0  0  0  0
  190.8100  177.1900  144.0450 C   0  0  0  0  0  0  0  0  0  0  0  0
  186.9970  178.6980  137.2970 N   0  0  0  0  0  2  0  0  0  0  0  0
  188.1490  176.6440  137.8790 C   0  0  0  0  0  2  0  0  0  0  0  0
  187.9410  178.1040  138.2440 C   0  0  2  0  0  3  0  0  0  0  0  0
  186.9970  176.3140  136.9680 C   0  0  0  0  0  2  0  0  0  0  0  0
  186.5890  177.6420  136.3700 C   0  0  2  0  0  3  0  0  0  0  0  0
  187.8680  176.5720  134.5950 N   0  0  0  0  0  1  0  0  0  0  0  0
  187.2790  177.8280  135.0260 C   0  0  0  0  0  2  0  0  0  0  0  0
  190.6890  177.1910  145.5080 C   0  0  0  0  0  0  0  0  0  0  0  0
  189.4390  176.8710  146.1260 N   0  0  0  0  0  2  0  0  0  0  0  0
  191.6910  177.4810  146.2170 O   0  0  0  0  0  0  0  0  0  0  0  0
  189.2810  176.7780  147.5730 C   0  0  0  0  0  2  0  0  0  0  0  0
  187.9540  177.8630  149.1940 O   0  0  0  0  0  0  0  0  0  0  0  0
  187.1030  178.0580  147.0130 C   0  0  0  0  0  1  0  0  0  0  0  0
  188.0970  177.5790  148.0140 C   0  0  0  0  0  0  0  0  0  0  0  0
  183.4780  178.6450  142.2260 N   0  0  0  0  0  0  0  0  0  0  0  0
  184.2070  179.1100  141.2640 C   0  0  0  0  0  3  0  0  0  0  0  0
  182.0670  178.9910  142.3340 C   0  0  0  0  0  2  0  0  0  0  0  0
  181.3730  178.8710  140.9800 C   0  0  0  0  0  2  0  0  0  0  0  0
  179.9780  181.8380  138.9060 C   0  0  0  0  0  1  0  0  0  0  0  0
  181.9270  180.3380  138.4520 C   0  0  0  0  0  1  0  0  0  0  0  0
  179.9230  180.6890  141.4850 O   0  0  0  0  0  0  0  0  0  0  0  0
  180.6690  180.1480  140.6250 C   0  0  0  0  0  0  0  0  0  0  0  0
  180.8550  180.7630  139.3410 N   0  0  0  0  0  0  0  0  0  0  0  0
  1 11  2  0  0  0  0
  3  5  1  0  0  0  0
  4 10  1  0  0  0  0
  5 29  1  0  0  0  0
  5  2  2  0  0  0  0
  7 13  2  0  0  0  0
  8  1  1  6  0  0  0
  8  6  1  0  0  0  0
  8 13  1  0  0  0  0
  9  4  2  0  0  0  0
  9  1  1  0  0  0  0
 10  2  1  0  0  0  0
 10  6  2  0  0  0  0
 11  7  1  0  0  0  0
 12  3  2  0  0  0  0
 12  4  1  0  0  0  0
 13 21  1  0  0  0  0
 14 16  1  0  0  0  0
 15 16  1  0  0  0  0
 16 12  1  1  0  0  0
 17 15  1  0  0  0  0
 18 20  1  6  0  0  0
 18 17  1  0  0  0  0
 18 14  1  0  0  0  0
 19 20  1  0  0  0  0
 21 22  1  0  0  0  0
 21 23  2  0  0  0  0
 22 24  1  0  0  0  0
 24 27  1  0  0  0  0
 26 27  1  0  0  0  0
 27 25  2  0  0  0  0
 28 30  1  0  0  0  0
 29 28  2  0  0  0  0
 31 30  1  0  0  0  0
 32 36  1  0  0  0  0
 33 36  1  0  0  0  0
 35 31  1  0  0  0  0
 35 34  2  0  0  0  0
 36 35  1  0  0  0  0
M  END
>  <MODEL>
4

>  <REMARK>
 VINA RESULT:      -7.6      2.589      5.885
  Name = 
  9 active torsions:
  status: ('A' for Active; 'I' for Inactive)
    1  A    between atoms: N_6  and  C_30
    2  A    between atoms: C_9  and  C_10
    3  A    between atoms: C_11  and  C_20
    4  A    between atoms: C_11  and  N_27
    5  A    between atoms: C_12  and  C_32
    6  A    between atoms: C_15  and  C_35
    7  A    between atoms: C_24  and  C_29
    8  A    between atoms: C_24  and  C_30
    9  A    between atoms: C_31  and  C_33
                            x       y       z     vdW  Elec       q    Type
                         _______ _______ _______ _____ _____    ______ ____

>  <TORSDO>
F 9

$$$$
=
 OpenBabel11032420123D

 36 39  0  0  1  0  0  0  0  0999 V2000
  186.9150  178.0620  142.5320 C   0  0  0  0  0  0  0  0  0  0  0  0
  190.6950  177.0400  141.0230 C   0  0  0  0  0  3  0  0  0  0  0  0
  189.9540  177.3630  138.7840 N   0  0  0  0  0  0  0  0  0  0  0  0
  188.4040  177.7490  140.5700 C   0  0  0  0  0  0  0  0  0  0  0  0
  190.9460  177.0310  139.6500 C   0  0  0  0  0  0  0  0  0  0  0  0
  189.1890  177.3650  142.9110 N   0  0  0  0  0  0  0  0  0  0  0  0
  186.2400  178.0840  144.6190 N   0  0  0  0  0  0  0  0  0  0  0  0
  188.0180  177.6900  143.3530 C   0  0  2  0  0  3  0  0  0  0  0  0
  187.0100  178.1460  141.0440 C   0  0  0  0  0  3  0  0  0  0  0  0
  189.4300  177.3870  141.4930 C   0  0  0  0  0  0  0  0  0  0  0  0
  185.8800  178.2920  143.2700 N   0  0  0  0  0  0  0  0  0  0  0  0
  188.7090  177.7400  139.1950 C   0  0  0  0  0  0  0  0  0  0  0  0
  187.4880  177.7270  144.6930 C   0  0  0  0  0  0  0  0  0  0  0  0
  186.9490  177.0040  137.6670 N   0  0  0  0  0  2  0  0  0  0  0  0
  188.3210  178.8920  137.0040 C   0  0  0  0  0  2  0  0  0  0  0  0
  187.6820  178.1650  138.1750 C   0  0  2  0  0  3  0  0  0  0  0  0
  188.2840  177.8970  135.8750 C   0  0  0  0  0  2  0  0  0  0  0  0
  187.1380  176.9710  136.2160 C   0  0  2  0  0  3  0  0  0  0  0  0
  184.7450  176.6270  135.9220 N   0  0  0  0  0  1  0  0  0  0  0  0
  185.8740  177.4460  135.5130 C   0  0  0  0  0  2  0  0  0  0  0  0
  188.1970  177.4280  145.9430 C   0  0  0  0  0  0  0  0  0  0  0  0
  189.6030  177.1630  145.9250 N   0  0  0  0  0  2  0  0  0  0  0  0
  187.5590  177.3990  147.0310 O   0  0  0  0  0  0  0  0  0  0  0  0
  190.3730  176.9390  147.1430 C   0  0  0  0  0  2  0  0  0  0  0  0
  191.9710  176.0420  145.6580 O   0  0  0  0  0  0  0  0  0  0  0  0
  192.5500  175.7760  147.9190 C   0  0  0  0  0  1  0  0  0  0  0  0
  191.6510  176.2300  146.8210 C   0  0  0  0  0  0  0  0  0  0  0  0
  192.4310  176.1800  137.9520 N   0  0  0  0  0  0  0  0  0  0  0  0
  192.2750  176.7180  139.1170 C   0  0  0  0  0  3  0  0  0  0  0  0
  193.7580  175.8550  137.4470 C   0  0  0  0  0  2  0  0  0  0  0  0
  194.2080  174.4830  137.9400 C   0  0  0  0  0  2  0  0  0  0  0  0
  198.0740  174.3360  138.2320 C   0  0  0  0  0  1  0  0  0  0  0  0
  196.5410  173.1870  136.6260 C   0  0  0  0  0  1  0  0  0  0  0  0
  195.7470  175.0510  139.6640 O   0  0  0  0  0  0  0  0  0  0  0  0
  195.5920  174.5500  138.5180 C   0  0  0  0  0  0  0  0  0  0  0  0
  196.7200  174.0330  137.7970 N   0  0  0  0  0  0  0  0  0  0  0  0
  1 11  2  0  0  0  0
  2 10  1  0  0  0  0
  3 12  2  0  0  0  0
  3  5  1  0  0  0  0
  4  9  2  0  0  0  0
  4 10  1  0  0  0  0
  5  2  2  0  0  0  0
  6  8  1  0  0  0  0
  7 13  2  0  0  0  0
  8  1  1  6  0  0  0
  8 13  1  0  0  0  0
  9  1  1  0  0  0  0
 10  6  2  0  0  0  0
 11  7  1  0  0  0  0
 12  4  1  0  0  0  0
 13 21  1  0  0  0  0
 14 16  1  0  0  0  0
 15 16  1  0  0  0  0
 16 12  1  1  0  0  0
 17 18  1  0  0  0  0
 17 15  1  0  0  0  0
 18 20  1  6  0  0  0
 18 14  1  0  0  0  0
 20 19  1  0  0  0  0
 21 23  2  0  0  0  0
 22 21  1  0  0  0  0
 22 24  1  0  0  0  0
 25 27  2  0  0  0  0
 27 24  1  0  0  0  0
 27 26  1  0  0  0  0
 28 29  2  0  0  0  0
 29  5  1  0  0  0  0
 30 31  1  0  0  0  0
 30 28  1  0  0  0  0
 31 35  1  0  0  0  0
 33 36  1  0  0  0  0
 35 34  2  0  0  0  0
 36 32  1  0  0  0  0
 36 35  1  0  0  0  0
M  END
>  <MODEL>
5

>  <REMARK>
 VINA RESULT:      -7.6      4.002      5.466
  Name = 
  9 active torsions:
  status: ('A' for Active; 'I' for Inactive)
    1  A    between atoms: N_6  and  C_30
    2  A    between atoms: C_9  and  C_10
    3  A    between atoms: C_11  and  C_20
    4  A    between atoms: C_11  and  N_27
    5  A    between atoms: C_12  and  C_32
    6  A    between atoms: C_15  and  C_35
    7  A    between atoms: C_24  and  C_29
    8  A    between atoms: C_24  and  C_30
    9  A    between atoms: C_31  and  C_33
                            x       y       z     vdW  Elec       q    Type
                         _______ _______ _______ _____ _____    ______ ____

>  <TORSDO>
F 9

$$$$
=
 OpenBabel11032420123D

 36 39  0  0  1  0  0  0  0  0999 V2000
  190.5910  177.3240  142.6090 C   0  0  0  0  0  0  0  0  0  0  0  0
  186.6880  178.2650  141.3890 C   0  0  0  0  0  3  0  0  0  0  0  0
  187.3290  178.2150  139.0960 N   0  0  0  0  0  0  0  0  0  0  0  0
  188.9880  177.7440  140.7600 C   0  0  0  0  0  0  0  0  0  0  0  0
  186.3670  178.3980  140.0370 C   0  0  0  0  0  0  0  0  0  0  0  0
  188.3050  177.8420  143.1620 N   0  0  0  0  0  0  0  0  0  0  0  0
  191.3740  177.1320  144.6490 N   0  0  0  0  0  0  0  0  0  0  0  0
  189.5130  177.5440  143.5130 C   0  0  2  0  0  3  0  0  0  0  0  0
  190.4250  177.3860  141.1260 C   0  0  0  0  0  3  0  0  0  0  0  0
  187.9930  177.9490  141.7610 C   0  0  0  0  0  0  0  0  0  0  0  0
  191.6740  177.0840  143.2700 N   0  0  0  0  0  0  0  0  0  0  0  0
  188.6130  177.8740  139.4080 C   0  0  0  0  0  0  0  0  0  0  0  0
  190.1130  177.4040  144.8170 C   0  0  0  0  0  0  0  0  0  0  0  0
  189.0840  178.0840  137.0200 N   0  0  0  0  0  2  0  0  0  0  0  0
  189.9480  176.1410  138.1870 C   0  0  0  0  0  2  0  0  0  0  0  0
  189.6080  177.6170  138.3040 C   0  0  2  0  0  3  0  0  0  0  0  0
  189.2260  175.6830  136.9480 C   0  0  0  0  0  2  0  0  0  0  0  0
  189.0610  176.9350  136.1150 C   0  0  2  0  0  3  0  0  0  0  0  0
  190.5240  175.7130  134.5990 N   0  0  0  0  0  1  0  0  0  0  0  0
  190.2050  177.0330  135.1140 C   0  0  0  0  0  2  0  0  0  0  0  0
  189.4540  177.5320  146.1220 C   0  0  0  0  0  0  0  0  0  0  0  0
  188.1080  178.0090  146.2020 N   0  0  0  0  0  2  0  0  0  0  0  0
  190.0830  177.2260  147.1720 O   0  0  0  0  0  0  0  0  0  0  0  0
  187.3770  178.0800  147.4620 C   0  0  0  0  0  2  0  0  0  0  0  0
  186.0510  180.0140  147.7250 O   0  0  0  0  0  0  0  0  0  0  0  0
  184.9650  178.2950  146.5470 C   0  0  0  0  0  1  0  0  0  0  0  0
  186.1210  178.8760  147.2850 C   0  0  0  0  0  0  0  0  0  0  0  0
  184.5620  179.8940  139.4710 N   0  0  0  0  0  0  0  0  0  0  0  0
  184.9970  178.6830  139.6000 C   0  0  0  0  0  3  0  0  0  0  0  0
  183.1910  180.1590  139.0570 C   0  0  0  0  0  2  0  0  0  0  0  0
  182.3140  178.9260  139.2560 C   0  0  0  0  0  2  0  0  0  0  0  0
  179.2460  179.2400  141.6110 C   0  0  0  0  0  1  0  0  0  0  0  0
  179.4960  179.8760  139.2050 C   0  0  0  0  0  1  0  0  0  0  0  0
  182.0480  178.8820  141.6200 O   0  0  0  0  0  0  0  0  0  0  0  0
  181.4890  179.0510  140.5030 C   0  0  0  0  0  0  0  0  0  0  0  0
  180.0940  179.3820  140.4370 N   0  0  0  0  0  0  0  0  0  0  0  0
  1 11  2  0  0  0  0
  2 10  1  0  0  0  0
  3 12  2  0  0  0  0
  3  5  1  0  0  0  0
  4  9  2  0  0  0  0
  4 10  1  0  0  0  0
  5  2  2  0  0  0  0
  6  8  1  0  0  0  0
  7 13  2  0  0  0  0
  8  1  1  6  0  0  0
  8 13  1  0  0  0  0
  9  1  1  0  0  0  0
 10  6  2  0  0  0  0
 11  7  1  0  0  0  0
 12  4  1  0  0  0  0
 13 21  1  0  0  0  0
 14 16  1  0  0  0  0
 15 16  1  0  0  0  0
 16 12  1  1  0  0  0
 17 15  1  0  0  0  0
 18 20  1  6  0  0  0
 18 17  1  0  0  0  0
 18 14  1  0  0  0  0
 19 20  1  0  0  0  0
 21 22  1  0  0  0  0
 21 23  2  0  0  0  0
 22 24  1  0  0  0  0
 26 27  1  0  0  0  0
 27 24  1  0  0  0  0
 27 25  2  0  0  0  0
 28 29  2  0  0  0  0
 29  5  1  0  0  0  0
 30 31  1  0  0  0  0
 30 28  1  0  0  0  0
 31 35  1  0  0  0  0
 33 36  1  0  0  0  0
 35 34  2  0  0  0  0
 36 35  1  0  0  0  0
 36 32  1  0  0  0  0
M  END
>  <MODEL>
6

>  <REMARK>
 VINA RESULT:      -7.4      2.435      6.223
  Name = 
  9 active torsions:
  status: ('A' for Active; 'I' for Inactive)
    1  A    between atoms: N_6  and  C_30
    2  A    between atoms: C_9  and  C_10
    3  A    between atoms: C_11  and  C_20
    4  A    between atoms: C_11  and  N_27
    5  A    between atoms: C_12  and  C_32
    6  A    between atoms: C_15  and  C_35
    7  A    between atoms: C_24  and  C_29
    8  A    between atoms: C_24  and  C_30
    9  A    between atoms: C_31  and  C_33
                            x       y       z     vdW  Elec       q    Type
                         _______ _______ _______ _____ _____    ______ ____

>  <TORSDO>
F 9

$$$$
=
 OpenBabel11032420123D

 36 39  0  0  1  0  0  0  0  0999 V2000
  184.6190  178.7350  144.8470 C   0  0  0  0  0  0  0  0  0  0  0  0
  187.3930  178.1310  141.7570 C   0  0  0  0  0  3  0  0  0  0  0  0
  185.7550  178.6450  140.1060 N   0  0  0  0  0  0  0  0  0  0  0  0
  185.1220  178.7340  142.4150 C   0  0  0  0  0  0  0  0  0  0  0  0
  187.0280  178.2870  140.4180 C   0  0  0  0  0  0  0  0  0  0  0  0
  186.8420  178.1510  144.1310 N   0  0  0  0  0  0  0  0  0  0  0  0
  184.9080  178.4880  147.0070 N   0  0  0  0  0  0  0  0  0  0  0  0
  185.9720  178.3500  145.0660 C   0  0  0  0  0  0  0  0  0  0  0  0
  184.0620  178.9850  143.4840 C   0  0  0  0  0  2  0  0  0  0  0  0
  186.4490  178.3420  142.7600 C   0  0  0  0  0  0  0  0  0  0  0  0
  183.9990  178.8160  145.9780 N   0  0  0  0  0  0  0  0  0  0  0  0
  184.8040  178.8930  141.0520 C   0  0  0  0  0  0  0  0  0  0  0  0
  186.0700  178.2070  146.4970 C   0  0  0  0  0  0  0  0  0  0  0  0
  182.4260  178.3430  140.9400 N   0  0  0  0  0  2  0  0  0  0  0  0
  183.3780  179.6630  139.1410 C   0  0  0  0  0  2  0  0  0  0  0  0
  183.4330  179.3580  140.6290 C   0  0  2  0  0  3  0  0  0  0  0  0
  182.6110  178.5120  138.5470 C   0  0  0  0  0  2  0  0  0  0  0  0
  181.7650  177.9860  139.6850 C   0  0  2  0  0  3  0  0  0  0  0  0
  179.7520  178.5560  140.9320 N   0  0  0  0  0  1  0  0  0  0  0  0
  180.3810  178.6180  139.6230 C   0  0  0  0  0  2  0  0  0  0  0  0
  187.2520  177.8210  147.2780 C   0  0  0  0  0  0  0  0  0  0  0  0
  188.4620  177.4500  146.6110 N   0  0  0  0  0  2  0  0  0  0  0  0
  187.1930  177.8130  148.5380 O   0  0  0  0  0  0  0  0  0  0  0  0
  189.6890  177.1350  147.3340 C   0  0  0  0  0  2  0  0  0  0  0  0
  190.6590  176.9240  145.1940 O   0  0  0  0  0  0  0  0  0  0  0  0
  191.8990  175.8640  146.8850 C   0  0  0  0  0  1  0  0  0  0  0  0
  190.7390  176.6530  146.3820 C   0  0  0  0  0  0  0  0  0  0  0  0
  188.0790  177.0250  138.6530 N   0  0  0  0  0  0  0  0  0  0  0  0
  188.0010  178.1200  139.3360 C   0  0  0  0  0  3  0  0  0  0  0  0
  189.0670  176.8690  137.5940 C   0  0  0  0  0  2  0  0  0  0  0  0
  190.1860  175.9260  138.0280 C   0  0  0  0  0  2  0  0  0  0  0  0
  193.0410  177.4390  140.1750 C   0  0  0  0  0  1  0  0  0  0  0  0
  190.7500  176.6940  140.8460 C   0  0  0  0  0  1  0  0  0  0  0  0
  192.1590  177.1490  137.5080 O   0  0  0  0  0  0  0  0  0  0  0  0
  191.4140  176.6950  138.4180 C   0  0  0  0  0  0  0  0  0  0  0  0
  191.7300  176.9350  139.7970 N   0  0  0  0  0  0  0  0  0  0  0  0
  1  8  1  0  0  0  0
  1 11  2  0  0  0  0
  2 10  1  0  0  0  0
  3  5  1  0  0  0  0
  3 12  2  0  0  0  0
  4 10  2  0  0  0  0
  4  9  1  0  0  0  0
  5  2  2  0  0  0  0
  6  8  2  0  0  0  0
  8 13  1  0  0  0  0
  9  1  1  0  0  0  0
 10  6  1  0  0  0  0
 11  7  1  0  0  0  0
 12  4  1  0  0  0  0
 13  7  2  0  0  0  0
 13 21  1  0  0  0  0
 15 16  1  0  0  0  0
 16 14  1  0  0  0  0
 16 12  1  6  0  0  0
 17 15  1  0  0  0  0
 17 18  1  0  0  0  0
 18 20  1  1  0  0  0
 18 14  1  0  0  0  0
 20 19  1  0  0  0  0
 21 23  2  0  0  0  0
 22 21  1  0  0  0  0
 22 24  1  0  0  0  0
 25 27  2  0  0  0  0
 27 26  1  0  0  0  0
 27 24  1  0  0  0  0
 28 29  2  0  0  0  0
 29  5  1  0  0  0  0
 30 31  1  0  0  0  0
 30 28  1  0  0  0  0
 31 35  1  0  0  0  0
 34 35  2  0  0  0  0
 35 36  1  0  0  0  0
 36 32  1  0  0  0  0
 36 33  1  0  0  0  0
M  END
>  <MODEL>
7

>  <REMARK>
 VINA RESULT:      -7.4      1.834      2.564
  Name = 
  9 active torsions:
  status: ('A' for Active; 'I' for Inactive)
    1  A    between atoms: N_6  and  C_30
    2  A    between atoms: C_9  and  C_10
    3  A    between atoms: C_11  and  C_20
    4  A    between atoms: C_11  and  N_27
    5  A    between atoms: C_12  and  C_32
    6  A    between atoms: C_15  and  C_35
    7  A    between atoms: C_24  and  C_29
    8  A    between atoms: C_24  and  C_30
    9  A    between atoms: C_31  and  C_33
                            x       y       z     vdW  Elec       q    Type
                         _______ _______ _______ _____ _____    ______ ____

>  <TORSDO>
F 9

$$$$
=
 OpenBabel11032420123D

 36 39  0  0  1  0  0  0  0  0999 V2000
  190.4800  177.5120  141.4820 C   0  0  0  0  0  0  0  0  0  0  0  0
  186.5230  177.9500  142.8070 C   0  0  0  0  0  3  0  0  0  0  0  0
  187.2300  178.0240  145.0800 N   0  0  0  0  0  0  0  0  0  0  0  0
  188.8930  177.7930  143.3700 C   0  0  0  0  0  0  0  0  0  0  0  0
  186.2250  178.0570  144.1670 C   0  0  1  0  0  3  0  0  0  0  0  0
  188.1280  177.6760  140.9940 N   0  0  0  0  0  0  0  0  0  0  0  0
  191.2110  177.2510  139.4300 N   0  0  0  0  0  0  0  0  0  0  0  0
  189.3560  177.5480  140.6090 C   0  0  0  0  0  0  0  0  0  0  0  0
  190.3560  177.6510  142.9630 C   0  0  0  0  0  3  0  0  0  0  0  0
  187.8480  177.8090  142.3990 C   0  0  0  0  0  0  0  0  0  0  0  0
  191.5610  177.3390  140.7950 N   0  0  0  0  0  0  0  0  0  0  0  0
  188.5440  177.9190  144.7290 C   0  0  0  0  0  0  0  0  0  0  0  0
  189.9230  177.3670  139.2960 C   0  0  0  0  0  0  0  0  0  0  0  0
  190.5070  176.8150  145.6770 N   0  0  0  0  0  2  0  0  0  0  0  0
  189.0050  177.9690  147.1920 C   0  0  0  0  0  2  0  0  0  0  0  0
  189.6090  177.9630  145.7970 C   0  0  2  0  0  3  0  0  0  0  0  0
  189.2550  176.5810  147.7180 C   0  0  0  0  0  2  0  0  0  0  0  0
  190.4580  176.0890  146.9470 C   0  0  2  0  0  3  0  0  0  0  0  0
  192.7460  175.3870  147.3980 N   0  0  0  0  0  1  0  0  0  0  0  0
  191.7230  176.3560  147.7510 C   0  0  0  0  0  2  0  0  0  0  0  0
  189.2100  177.3220  138.0140 C   0  0  0  0  0  0  0  0  0  0  0  0
  188.8110  176.0650  137.4590 N   0  0  0  0  0  2  0  0  0  0  0  0
  188.9580  178.3950  137.4010 O   0  0  0  0  0  0  0  0  0  0  0  0
  188.0310  175.9640  136.2300 C   0  0  0  0  0  2  0  0  0  0  0  0
  185.8530  176.8500  136.4230 O   0  0  0  0  0  0  0  0  0  0  0  0
  185.9880  174.5770  137.0030 C   0  0  0  0  0  1  0  0  0  0  0  0
  186.5720  175.8710  136.5520 C   0  0  0  0  0  0  0  0  0  0  0  0
  183.8890  178.5470  143.8200 N   0  0  0  0  0  0  0  0  0  0  0  0
  184.8500  178.2540  144.6350 C   0  0  0  0  0  3  0  0  0  0  0  0
  182.5330  178.7610  144.3060 C   0  0  0  0  0  2  0  0  0  0  0  0
  181.6680  179.4200  143.2360 C   0  0  0  0  0  2  0  0  0  0  0  0
  179.4560  177.1360  141.0120 C   0  0  0  0  0  1  0  0  0  0  0  0
  180.9830  179.0100  140.3700 C   0  0  0  0  0  1  0  0  0  0  0  0
  179.8130  177.9980  143.6790 O   0  0  0  0  0  0  0  0  0  0  0  0
  180.5640  178.5030  142.8000 C   0  0  0  0  0  0  0  0  0  0  0  0
  180.3420  178.2190  141.4110 N   0  0  0  0  0  0  0  0  0  0  0  0
  1  9  1  0  0  0  0
  2  5  1  0  0  0  0
  4 12  1  0  0  0  0
  5 29  1  6  0  0  0
  5  3  1  0  0  0  0
  6 10  1  0  0  0  0
  7 11  1  0  0  0  0
  8  6  2  0  0  0  0
  8  1  1  0  0  0  0
  9  4  2  0  0  0  0
 10  2  2  0  0  0  0
 10  4  1  0  0  0  0
 11  1  2  0  0  0  0
 12  3  2  0  0  0  0
 13  7  2  0  0  0  0
 13  8  1  0  0  0  0
 14 16  1  0  0  0  0
 14 18  1  0  0  0  0
 15 17  1  0  0  0  0
 16 12  1  6  0  0  0
 16 15  1  0  0  0  0
 18 17  1  0  0  0  0
 18 20  1  1  0  0  0
 19 20  1  0  0  0  0
 21 13  1  0  0  0  0
 22 21  1  0  0  0  0
 23 21  2  0  0  0  0
 24 27  1  0  0  0  0
 24 22  1  0  0  0  0
 25 27  2  0  0  0  0
 27 26  1  0  0  0  0
 28 30  1  0  0  0  0
 28 29  2  0  0  0  0
 31 30  1  0  0  0  0
 32 36  1  0  0  0  0
 33 36  1  0  0  0  0
 35 31  1  0  0  0  0
 35 34  2  0  0  0  0
 36 35  1  0  0  0  0
M  END
>  <MODEL>
8

>  <REMARK>
 VINA RESULT:      -7.4      2.946      8.931
  Name = 
  9 active torsions:
  status: ('A' for Active; 'I' for Inactive)
    1  A    between atoms: N_6  and  C_30
    2  A    between atoms: C_9  and  C_10
    3  A    between atoms: C_11  and  C_20
    4  A    between atoms: C_11  and  N_27
    5  A    between atoms: C_12  and  C_32
    6  A    between atoms: C_15  and  C_35
    7  A    between atoms: C_24  and  C_29
    8  A    between atoms: C_24  and  C_30
    9  A    between atoms: C_31  and  C_33
                            x       y       z     vdW  Elec       q    Type
                         _______ _______ _______ _____ _____    ______ ____

>  <TORSDO>
F 9

$$$$
=
 OpenBabel11032420123D

 36 39  0  0  1  0  0  0  0  0999 V2000
  184.6280  178.2550  144.1740 C   0  0  0  0  0  0  0  0  0  0  0  0
  186.7660  178.6090  140.5810 C   0  0  0  0  0  3  0  0  0  0  0  0
  188.7850  177.9330  141.6470 N   0  0  0  0  0  0  0  0  0  0  0  0
  186.7810  178.0450  142.9550 C   0  0  0  0  0  0  0  0  0  0  0  0
  188.1330  178.3310  140.5240 C   0  0  0  0  0  0  0  0  0  0  0  0
  184.6800  178.7960  141.8290 N   0  0  0  0  0  0  0  0  0  0  0  0
  182.5130  178.6980  144.5530 N   0  0  0  0  0  0  0  0  0  0  0  0
  184.0410  178.6730  142.9460 C   0  0  0  0  0  0  0  0  0  0  0  0
  186.0680  177.8790  144.2940 C   0  0  0  0  0  2  0  0  0  0  0  0
  186.0840  178.4800  141.7890 C   0  0  0  0  0  0  0  0  0  0  0  0
  183.7380  178.2700  145.1100 N   0  0  0  0  0  0  0  0  0  0  0  0
  188.1560  177.7610  142.8450 C   0  0  0  0  0  0  0  0  0  0  0  0
  182.6670  178.9440  143.2860 C   0  0  0  0  0  0  0  0  0  0  0  0
  189.8580  178.2690  144.5240 N   0  0  0  0  0  2  0  0  0  0  0  0
  189.7270  175.9980  143.6820 C   0  0  0  0  0  2  0  0  0  0  0  0
  188.9350  177.2470  144.0300 C   0  0  2  0  0  3  0  0  0  0  0  0
  191.1550  176.4680  143.5960 C   0  0  0  0  0  2  0  0  0  0  0  0
  191.2060  177.7030  144.4660 C   0  0  2  0  0  3  0  0  0  0  0  0
  192.0550  175.9200  145.8910 N   0  0  0  0  0  1  0  0  0  0  0  0
  191.6740  177.3220  145.8630 C   0  0  0  0  0  2  0  0  0  0  0  0
  181.6010  179.4100  142.3910 C   0  0  0  0  0  0  0  0  0  0  0  0
  181.5680  178.9780  141.0280 N   0  0  0  0  0  2  0  0  0  0  0  0
  180.7180  180.1970  142.8290 O   0  0  0  0  0  0  0  0  0  0  0  0
  180.4900  179.3440  140.1160 C   0  0  0  0  0  2  0  0  0  0  0  0
  180.6000  178.9650  137.7900 O   0  0  0  0  0  0  0  0  0  0  0  0
  182.0940  180.6180  138.5350 C   0  0  0  0  0  1  0  0  0  0  0  0
  181.0360  179.5900  138.7440 C   0  0  0  0  0  0  0  0  0  0  0  0
  188.3080  178.7700  138.1590 N   0  0  0  0  0  0  0  0  0  0  0  0
  188.8770  178.4100  139.2640 C   0  0  0  0  0  3  0  0  0  0  0  0
  189.0590  178.8220  136.9120 C   0  0  0  0  0  2  0  0  0  0  0  0
  188.6120  177.7150  135.9610 C   0  0  0  0  0  2  0  0  0  0  0  0
  189.2680  173.9760  136.7630 C   0  0  0  0  0  1  0  0  0  0  0  0
  187.2500  175.3830  137.2090 C   0  0  0  0  0  1  0  0  0  0  0  0
  190.5820  176.3880  136.1010 O   0  0  0  0  0  0  0  0  0  0  0  0
  189.3310  176.4320  136.2570 C   0  0  0  0  0  0  0  0  0  0  0  0
  188.6220  175.2790  136.7340 N   0  0  0  0  0  0  0  0  0  0  0  0
  1  9  1  0  0  0  0
  1 11  2  0  0  0  0
  2 10  1  0  0  0  0
  3 12  2  0  0  0  0
  4  9  1  0  0  0  0
  5  2  2  0  0  0  0
  5  3  1  0  0  0  0
  6  8  2  0  0  0  0
  7 11  1  0  0  0  0
  8 13  1  0  0  0  0
  8  1  1  0  0  0  0
 10  6  1  0  0  0  0
 10  4  2  0  0  0  0
 12  4  1  0  0  0  0
 13  7  2  0  0  0  0
 15 16  1  0  0  0  0
 16 12  1  6  0  0  0
 16 14  1  0  0  0  0
 17 15  1  0  0  0  0
 17 18  1  0  0  0  0
 18 14  1  0  0  0  0
 18 20  1  1  0  0  0
 20 19  1  0  0  0  0
 21 23  2  0  0  0  0
 21 13  1  0  0  0  0
 22 21  1  0  0  0  0
 24 22  1  0  0  0  0
 25 27  2  0  0  0  0
 26 27  1  0  0  0  0
 27 24  1  0  0  0  0
 28 29  2  0  0  0  0
 29  5  1  0  0  0  0
 30 28  1  0  0  0  0
 31 35  1  0  0  0  0
 31 30  1  0  0  0  0
 34 35  2  0  0  0  0
 35 36  1  0  0  0  0
 36 32  1  0  0  0  0
 36 33  1  0  0  0  0
M  END
>  <MODEL>
9

>  <REMARK>
 VINA RESULT:      -7.3      2.954      6.984
  Name = 
  9 active torsions:
  status: ('A' for Active; 'I' for Inactive)
    1  A    between atoms: N_6  and  C_30
    2  A    between atoms: C_9  and  C_10
    3  A    between atoms: C_11  and  C_20
    4  A    between atoms: C_11  and  N_27
    5  A    between atoms: C_12  and  C_32
    6  A    between atoms: C_15  and  C_35
    7  A    between atoms: C_24  and  C_29
    8  A    between atoms: C_24  and  C_30
    9  A    between atoms: C_31  and  C_33
                            x       y       z     vdW  Elec       q    Type
                         _______ _______ _______ _____ _____    ______ ____

>  <TORSDO>
F 9

$$$$
