=
 OpenBabel11042413073D

 32 35  0  0  1  0  0  0  0  0999 V2000
  189.1470  177.9180  136.8880 S   0  0  0  0  0  1  0  0  0  0  0  0
  189.0990  177.6630  140.6810 C   0  0  1  0  0  3  0  0  0  0  0  0
  190.3280  176.8060  140.4460 C   0  0  2  0  0  3  0  0  0  0  0  0
  189.0100  176.8010  138.3430 C   0  0  1  0  0  3  0  0  0  0  0  0
  191.6670  177.5060  140.6680 C   0  0  2  0  0  3  0  0  0  0  0  0
  191.7900  176.5100  137.1320 F   0  0  0  0  0  0  0  0  0  0  0  0
  190.3220  176.5710  139.0060 C   0  0  1  0  0  3  0  0  0  0  0  0
  191.5260  176.6250  138.4730 C   0  0  2  0  0  3  0  0  0  0  0  0
  188.2050  177.5220  139.4230 C   0  0  0  0  0  2  0  0  0  0  0  0
  192.5230  177.1330  139.4480 C   0  0  0  0  0  2  0  0  0  0  0  0
  188.7390  176.0210  142.4340 O   0  0  0  0  0  1  0  0  0  0  0  0
  188.3550  177.1800  141.8630 N   0  0  0  0  0  0  0  0  0  0  0  0
  185.8720  178.2900  144.4310 C   0  0  0  0  0  0  0  0  0  0  0  0
  186.4720  178.7730  141.7300 C   0  0  0  0  0  3  0  0  0  0  0  0
  186.9650  177.6770  143.8130 C   0  0  0  0  0  3  0  0  0  0  0  0
  185.3650  179.3860  142.3260 C   0  0  0  0  0  3  0  0  0  0  0  0
  187.3020  177.9430  142.4820 C   0  0  0  0  0  0  0  0  0  0  0  0
  185.0700  179.1620  143.6700 C   0  0  0  0  0  3  0  0  0  0  0  0
  184.0020  178.3180  146.1060 C   0  0  0  0  0  1  0  0  0  0  0  0
  185.4510  177.9460  145.8460 C   0  0  2  0  0  3  0  0  0  0  0  0
  187.7720  176.6400  146.8880 O   0  0  0  0  0  1  0  0  0  0  0  0
  186.3300  178.5470  146.9180 C   0  0  0  0  0  0  0  0  0  0  0  0
  186.0720  179.9010  147.3520 N   0  0  0  0  0  1  0  0  0  0  0  0
  188.2140  178.4100  148.5140 C   0  0  0  0  0  1  0  0  0  0  0  0
  187.3820  177.8590  147.4160 C   0  0  0  0  0  0  0  0  0  0  0  0
  192.3020  177.0250  141.9070 N   0  0  0  0  0  2  0  0  0  0  0  0
  191.4730  177.1860  143.1050 C   0  0  1  0  0  3  0  0  0  0  0  0
  191.7070  176.1760  144.1960 C   0  0  0  0  0  3  0  0  0  0  0  0
  191.2950  176.4070  145.3870 N   0  0  0  0  0  0  0  0  0  0  0  0
  191.3700  178.6090  143.6300 C   0  0  0  0  0  2  0  0  0  0  0  0
  190.3180  178.6290  144.7180 C   0  0  0  0  0  2  0  0  0  0  0  0
  190.7210  177.6780  145.8520 C   0  0  0  0  0  2  0  0  0  0  0  0
  1  4  1  0  0  0  0
  2 12  1  1  0  0  0
  3  5  1  0  0  0  0
  3  2  1  0  0  0  0
  4  7  1  0  0  0  0
  4  9  1  0  0  0  0
  5 26  1  0  0  0  0
  6  8  1  0  0  0  0
  7  3  1  0  0  0  0
  8  7  1  0  0  0  0
  8 10  1  0  0  0  0
  9  2  1  0  0  0  0
 10  5  1  0  0  0  0
 12 11  1  0  0  0  0
 12 17  1  0  0  0  0
 13 20  1  0  0  0  0
 14 16  2  0  0  0  0
 14 17  1  0  0  0  0
 15 13  1  0  0  0  0
 16 18  1  0  0  0  0
 17 15  2  0  0  0  0
 18 13  2  0  0  0  0
 20 19  1  0  0  0  0
 20 22  1  0  0  0  0
 21 25  1  0  0  0  0
 22 23  1  0  0  0  0
 22 25  2  0  0  0  0
 25 24  1  0  0  0  0
 26 27  1  0  0  0  0
 27 30  1  0  0  0  0
 27 28  1  0  0  0  0
 28 29  2  0  0  0  0
 29 32  1  0  0  0  0
 30 31  1  0  0  0  0
 31 32  1  0  0  0  0
M  END
>  <MODEL>
1

>  <REMARK>
 VINA RESULT:      -8.9      0.000      0.000
  Name = 
  6 active torsions:
  status: ('A' for Active; 'I' for Inactive)
    1  A    between atoms: C_1  and  N_27
    2  A    between atoms: C_2  and  C_23
    3  A    between atoms: C_8  and  N_30
    4  A    between atoms: C_9  and  C_23
    5  A    between atoms: C_12  and  N_30
    6  A    between atoms: C_17  and  N_27
                            x       y       z     vdW  Elec       q    Type
                         _______ _______ _______ _____ _____    ______ ____

>  <TORSDO>
F 6

$$$$
=
 OpenBabel11042413073D

 32 35  0  0  1  0  0  0  0  0999 V2000
  186.0630  178.9950  146.9910 S   0  0  0  0  0  1  0  0  0  0  0  0
  187.6180  177.8990  143.6990 C   0  0  1  0  0  3  0  0  0  0  0  0
  186.1670  177.8140  143.2650 C   0  0  2  0  0  3  0  0  0  0  0  0
  186.2080  177.6520  145.7410 C   0  0  1  0  0  3  0  0  0  0  0  0
  185.6570  178.9990  142.4480 C   0  0  2  0  0  3  0  0  0  0  0  0
  183.5000  179.0110  145.4230 F   0  0  0  0  0  0  0  0  0  0  0  0
  185.4190  177.9360  144.5110 C   0  0  1  0  0  3  0  0  0  0  0  0
  184.3370  178.6790  144.3900 C   0  0  2  0  0  3  0  0  0  0  0  0
  187.6460  177.6350  145.2260 C   0  0  0  0  0  2  0  0  0  0  0  0
  184.3040  179.3670  143.0760 C   0  0  0  0  0  2  0  0  0  0  0  0
  188.0760  175.5730  143.1720 O   0  0  0  0  0  1  0  0  0  0  0  0
  188.4200  176.8660  143.0120 N   0  0  0  0  0  0  0  0  0  0  0  0
  190.2410  177.4440  139.7960 C   0  0  0  0  0  0  0  0  0  0  0  0
  190.8180  177.2210  142.5350 C   0  0  0  0  0  3  0  0  0  0  0  0
  189.2240  177.2600  140.7360 C   0  0  0  0  0  3  0  0  0  0  0  0
  191.8520  177.3910  141.6100 C   0  0  0  0  0  3  0  0  0  0  0  0
  189.4920  177.1910  142.1070 C   0  0  0  0  0  0  0  0  0  0  0  0
  191.5720  177.5170  140.2500 C   0  0  0  0  0  3  0  0  0  0  0  0
  189.1250  178.6260  137.8830 C   0  0  0  0  0  1  0  0  0  0  0  0
  189.9690  177.4360  138.3050 C   0  0  2  0  0  3  0  0  0  0  0  0
  191.4120  174.9880  137.9850 O   0  0  0  0  0  1  0  0  0  0  0  0
  189.3370  176.1600  137.7970 C   0  0  0  0  0  0  0  0  0  0  0  0
  187.9090  176.1280  137.5840 N   0  0  0  0  0  1  0  0  0  0  0  0
  189.4880  173.8080  137.0510 C   0  0  0  0  0  1  0  0  0  0  0  0
  190.0810  175.0470  137.6090 C   0  0  0  0  0  0  0  0  0  0  0  0
  185.4800  178.6150  141.0360 N   0  0  0  0  0  2  0  0  0  0  0  0
  184.1040  178.7460  140.5490 C   0  0  1  0  0  3  0  0  0  0  0  0
  183.9210  179.6500  139.3600 C   0  0  0  0  0  3  0  0  0  0  0  0
  182.8510  179.5820  138.6580 N   0  0  0  0  0  0  0  0  0  0  0  0
  183.3410  177.4380  140.4190 C   0  0  0  0  0  2  0  0  0  0  0  0
  181.8950  177.7700  140.1210 C   0  0  0  0  0  2  0  0  0  0  0  0
  181.8000  178.5650  138.8130 C   0  0  0  0  0  2  0  0  0  0  0  0
  2 12  1  6  0  0  0
  2  9  1  0  0  0  0
  3  2  1  0  0  0  0
  3  7  1  0  0  0  0
  4  1  1  0  0  0  0
  5 10  1  0  0  0  0
  5  3  1  0  0  0  0
  7  4  1  0  0  0  0
  8  7  1  0  0  0  0
  8  6  1  0  0  0  0
  9  4  1  0  0  0  0
 10  8  1  0  0  0  0
 12 11  1  0  0  0  0
 13 18  2  0  0  0  0
 13 15  1  0  0  0  0
 15 17  2  0  0  0  0
 16 14  2  0  0  0  0
 17 14  1  0  0  0  0
 17 12  1  0  0  0  0
 18 16  1  0  0  0  0
 19 20  1  0  0  0  0
 20 13  1  0  0  0  0
 22 20  1  0  0  0  0
 23 22  1  0  0  0  0
 24 25  1  0  0  0  0
 25 22  2  0  0  0  0
 25 21  1  0  0  0  0
 26  5  1  0  0  0  0
 27 26  1  0  0  0  0
 28 27  1  0  0  0  0
 29 32  1  0  0  0  0
 29 28  2  0  0  0  0
 30 27  1  0  0  0  0
 31 30  1  0  0  0  0
 32 31  1  0  0  0  0
M  END
>  <MODEL>
2

>  <REMARK>
 VINA RESULT:      -8.7      3.835      8.354
  Name = 
  6 active torsions:
  status: ('A' for Active; 'I' for Inactive)
    1  A    between atoms: C_1  and  N_27
    2  A    between atoms: C_2  and  C_23
    3  A    between atoms: C_8  and  N_30
    4  A    between atoms: C_9  and  C_23
    5  A    between atoms: C_12  and  N_30
    6  A    between atoms: C_17  and  N_27
                            x       y       z     vdW  Elec       q    Type
                         _______ _______ _______ _____ _____    ______ ____

>  <TORSDO>
F 6

$$$$
=
 OpenBabel11042413073D

 32 35  0  0  1  0  0  0  0  0999 V2000
  189.0570  178.7400  138.1710 S   0  0  0  0  0  1  0  0  0  0  0  0
  188.7060  177.6500  141.7960 C   0  0  1  0  0  3  0  0  0  0  0  0
  189.9570  176.8560  141.4760 C   0  0  2  0  0  3  0  0  0  0  0  0
  188.8130  177.3290  139.3260 C   0  0  1  0  0  3  0  0  0  0  0  0
  191.2680  177.4770  141.9550 C   0  0  2  0  0  3  0  0  0  0  0  0
  191.6850  177.2910  138.3080 F   0  0  0  0  0  0  0  0  0  0  0  0
  190.0700  176.9460  140.0240 C   0  0  1  0  0  3  0  0  0  0  0  0
  191.3120  177.1060  139.6140 C   0  0  2  0  0  3  0  0  0  0  0  0
  187.9170  177.8000  140.4700 C   0  0  0  0  0  2  0  0  0  0  0  0
  192.2230  177.3770  140.7550 C   0  0  0  0  0  2  0  0  0  0  0  0
  188.3250  175.7460  143.2550 O   0  0  0  0  0  1  0  0  0  0  0  0
  187.8740  176.9220  142.7770 N   0  0  0  0  0  0  0  0  0  0  0  0
  184.4660  178.4640  142.8690 C   0  0  0  0  0  0  0  0  0  0  0  0
  186.5530  177.8520  144.6460 C   0  0  0  0  0  3  0  0  0  0  0  0
  185.6240  177.8160  142.4290 C   0  0  0  0  0  3  0  0  0  0  0  0
  185.4090  178.5120  145.1040 C   0  0  0  0  0  3  0  0  0  0  0  0
  186.6510  177.4650  143.3110 C   0  0  0  0  0  0  0  0  0  0  0  0
  184.3630  178.8070  144.2300 C   0  0  0  0  0  3  0  0  0  0  0  0
  182.0040  178.8030  142.5220 C   0  0  0  0  0  1  0  0  0  0  0  0
  183.3870  178.9210  141.9080 C   0  0  2  0  0  3  0  0  0  0  0  0
  184.8410  179.8960  139.6460 O   0  0  0  0  0  1  0  0  0  0  0  0
  183.4100  178.2190  140.5700 C   0  0  0  0  0  0  0  0  0  0  0  0
  182.7790  176.9250  140.4530 N   0  0  0  0  0  1  0  0  0  0  0  0
  184.0430  178.1110  138.1820 C   0  0  0  0  0  1  0  0  0  0  0  0
  184.0660  178.7560  139.5180 C   0  0  0  0  0  0  0  0  0  0  0  0
  191.8060  176.7270  143.1030 N   0  0  0  0  0  2  0  0  0  0  0  0
  191.0120  176.8590  144.3280 C   0  0  1  0  0  3  0  0  0  0  0  0
  191.5500  176.1330  145.5310 C   0  0  0  0  0  3  0  0  0  0  0  0
  191.1380  176.4390  146.7050 N   0  0  0  0  0  0  0  0  0  0  0  0
  190.5530  178.2730  144.6470 C   0  0  0  0  0  2  0  0  0  0  0  0
  189.5770  178.1960  145.8020 C   0  0  0  0  0  2  0  0  0  0  0  0
  190.2640  177.5770  147.0260 C   0  0  0  0  0  2  0  0  0  0  0  0
  1  4  1  0  0  0  0
  2 12  1  1  0  0  0
  3  2  1  0  0  0  0
  3  5  1  0  0  0  0
  4  7  1  0  0  0  0
  4  9  1  0  0  0  0
  5 26  1  0  0  0  0
  6  8  1  0  0  0  0
  7  3  1  0  0  0  0
  8  7  1  0  0  0  0
  8 10  1  0  0  0  0
  9  2  1  0  0  0  0
 10  5  1  0  0  0  0
 12 11  1  0  0  0  0
 12 17  1  0  0  0  0
 13 18  1  0  0  0  0
 14 16  1  0  0  0  0
 15 13  2  0  0  0  0
 15 17  1  0  0  0  0
 17 14  2  0  0  0  0
 18 16  2  0  0  0  0
 20 19  1  0  0  0  0
 20 13  1  0  0  0  0
 22 20  1  0  0  0  0
 23 22  1  0  0  0  0
 24 25  1  0  0  0  0
 25 21  1  0  0  0  0
 25 22  2  0  0  0  0
 26 27  1  0  0  0  0
 27 30  1  0  0  0  0
 27 28  1  0  0  0  0
 28 29  2  0  0  0  0
 29 32  1  0  0  0  0
 30 31  1  0  0  0  0
 31 32  1  0  0  0  0
M  END
>  <MODEL>
3

>  <REMARK>
 VINA RESULT:      -8.7      2.191      3.885
  Name = 
  6 active torsions:
  status: ('A' for Active; 'I' for Inactive)
    1  A    between atoms: C_1  and  N_27
    2  A    between atoms: C_2  and  C_23
    3  A    between atoms: C_8  and  N_30
    4  A    between atoms: C_9  and  C_23
    5  A    between atoms: C_12  and  N_30
    6  A    between atoms: C_17  and  N_27
                            x       y       z     vdW  Elec       q    Type
                         _______ _______ _______ _____ _____    ______ ____

>  <TORSDO>
F 6

$$$$
=
 OpenBabel11042413073D

 32 35  0  0  1  0  0  0  0  0999 V2000
  189.3200  176.5570  146.9490 S   0  0  0  0  0  1  0  0  0  0  0  0
  187.9960  177.4940  143.5110 C   0  0  1  0  0  3  0  0  0  0  0  0
  189.3990  178.0410  143.3320 C   0  0  2  0  0  3  0  0  0  0  0  0
  188.9570  177.9230  145.7720 C   0  0  1  0  0  3  0  0  0  0  0  0
  190.3560  177.1460  142.5460 C   0  0  2  0  0  3  0  0  0  0  0  0
  191.9650  177.4460  145.8370 F   0  0  0  0  0  0  0  0  0  0  0  0
  189.9620  178.0100  144.6780 C   0  0  1  0  0  3  0  0  0  0  0  0
  191.2240  177.6290  144.6980 C   0  0  2  0  0  3  0  0  0  0  0  0
  187.6700  177.5770  145.0240 C   0  0  0  0  0  2  0  0  0  0  0  0
  191.6520  177.1210  143.3710 C   0  0  0  0  0  2  0  0  0  0  0  0
  187.4430  178.9390  141.6390 O   0  0  0  0  0  1  0  0  0  0  0  0
  187.0260  178.3180  142.7590 N   0  0  0  0  0  0  0  0  0  0  0  0
  183.3180  178.6560  142.3920 C   0  0  0  0  0  0  0  0  0  0  0  0
  185.2460  178.6680  144.4350 C   0  0  0  0  0  3  0  0  0  0  0  0
  184.6710  178.4450  142.1120 C   0  0  0  0  0  3  0  0  0  0  0  0
  183.8990  178.8950  144.7360 C   0  0  0  0  0  3  0  0  0  0  0  0
  185.6350  178.4040  143.1230 C   0  0  0  0  0  0  0  0  0  0  0  0
  182.9350  178.8770  143.7290 C   0  0  0  0  0  3  0  0  0  0  0  0
  180.9060  178.3460  141.7710 C   0  0  0  0  0  1  0  0  0  0  0  0
  182.2800  178.7840  141.2960 C   0  0  2  0  0  3  0  0  0  0  0  0
  183.6540  180.0150  139.1100 O   0  0  0  0  0  1  0  0  0  0  0  0
  182.6320  178.0550  140.0200 C   0  0  0  0  0  0  0  0  0  0  0  0
  182.3860  176.6330  139.9400 N   0  0  0  0  0  1  0  0  0  0  0  0
  183.5220  178.0150  137.7140 C   0  0  0  0  0  1  0  0  0  0  0  0
  183.2300  178.7020  138.9950 C   0  0  0  0  0  0  0  0  0  0  0  0
  190.6090  177.7100  141.2090 N   0  0  0  0  0  2  0  0  0  0  0  0
  190.2610  176.8110  140.1050 C   0  0  1  0  0  3  0  0  0  0  0  0
  188.9330  177.0720  139.4480 C   0  0  0  0  0  3  0  0  0  0  0  0
  188.6790  176.5820  138.2930 N   0  0  0  0  0  0  0  0  0  0  0  0
  191.3770  176.5630  139.1030 C   0  0  0  0  0  2  0  0  0  0  0  0
  190.9290  175.4590  138.1700 C   0  0  0  0  0  2  0  0  0  0  0  0
  189.6490  175.8810  137.4380 C   0  0  0  0  0  2  0  0  0  0  0  0
  2 12  1  6  0  0  0
  2  9  1  0  0  0  0
  3  2  1  0  0  0  0
  3  7  1  0  0  0  0
  4  1  1  0  0  0  0
  5  3  1  0  0  0  0
  5 10  1  0  0  0  0
  7  8  1  0  0  0  0
  7  4  1  0  0  0  0
  8  6  1  0  0  0  0
  9  4  1  0  0  0  0
 10  8  1  0  0  0  0
 11 12  1  0  0  0  0
 12 17  1  0  0  0  0
 13 18  1  0  0  0  0
 14 16  1  0  0  0  0
 15 13  2  0  0  0  0
 15 17  1  0  0  0  0
 17 14  2  0  0  0  0
 18 16  2  0  0  0  0
 20 19  1  0  0  0  0
 20 13  1  0  0  0  0
 22 20  1  0  0  0  0
 23 22  1  0  0  0  0
 24 25  1  0  0  0  0
 25 21  1  0  0  0  0
 25 22  2  0  0  0  0
 26  5  1  0  0  0  0
 27 26  1  0  0  0  0
 28 27  1  0  0  0  0
 29 28  2  0  0  0  0
 30 27  1  0  0  0  0
 31 30  1  0  0  0  0
 32 31  1  0  0  0  0
 32 29  1  0  0  0  0
M  END
>  <MODEL>
4

>  <REMARK>
 VINA RESULT:      -8.3      3.645      6.164
  Name = 
  6 active torsions:
  status: ('A' for Active; 'I' for Inactive)
    1  A    between atoms: C_1  and  N_27
    2  A    between atoms: C_2  and  C_23
    3  A    between atoms: C_8  and  N_30
    4  A    between atoms: C_9  and  C_23
    5  A    between atoms: C_12  and  N_30
    6  A    between atoms: C_17  and  N_27
                            x       y       z     vdW  Elec       q    Type
                         _______ _______ _______ _____ _____    ______ ____

>  <TORSDO>
F 6

$$$$
=
 OpenBabel11042413073D

 32 35  0  0  1  0  0  0  0  0999 V2000
  191.0790  176.0130  138.4680 S   0  0  0  0  0  1  0  0  0  0  0  0
  188.0100  177.5030  140.1430 C   0  0  1  0  0  3  0  0  0  0  0  0
  187.8920  178.2490  138.8280 C   0  0  2  0  0  3  0  0  0  0  0  0
  190.2600  177.5450  139.0710 C   0  0  1  0  0  3  0  0  0  0  0  0
  186.8800  177.6780  137.8380 C   0  0  2  0  0  3  0  0  0  0  0  0
  190.0730  177.4530  136.0310 F   0  0  0  0  0  0  0  0  0  0  0  0
  189.1680  177.9970  138.1660 C   0  0  1  0  0  3  0  0  0  0  0  0
  189.0420  177.7840  136.8720 C   0  0  2  0  0  3  0  0  0  0  0  0
  189.5150  177.2110  140.3620 C   0  0  0  0  0  2  0  0  0  0  0  0
  187.6150  177.6380  136.4890 C   0  0  0  0  0  2  0  0  0  0  0  0
  186.7130  179.3870  140.9610 O   0  0  0  0  0  1  0  0  0  0  0  0
  187.5100  178.3410  141.2540 N   0  0  0  0  0  0  0  0  0  0  0  0
  189.3870  177.8620  144.4540 C   0  0  0  0  0  0  0  0  0  0  0  0
  186.8480  177.2990  143.3930 C   0  0  0  0  0  3  0  0  0  0  0  0
  189.0390  178.2610  143.1610 C   0  0  0  0  0  3  0  0  0  0  0  0
  187.1800  176.8780  144.6850 C   0  0  0  0  0  3  0  0  0  0  0  0
  187.7640  178.0270  142.6360 C   0  0  0  0  0  0  0  0  0  0  0  0
  188.4340  177.1660  145.2230 C   0  0  0  0  0  3  0  0  0  0  0  0
  191.6800  178.7870  144.0240 C   0  0  0  0  0  1  0  0  0  0  0  0
  190.7890  178.0380  145.0000 C   0  0  2  0  0  3  0  0  0  0  0  0
  191.2600  177.3140  147.7260 O   0  0  0  0  0  1  0  0  0  0  0  0
  191.4610  176.7480  145.4120 C   0  0  0  0  0  0  0  0  0  0  0  0
  191.7660  175.7670  144.3970 N   0  0  0  0  0  1  0  0  0  0  0  0
  192.4270  175.2530  147.1280 C   0  0  0  0  0  1  0  0  0  0  0  0
  191.7110  176.4840  146.7130 C   0  0  0  0  0  0  0  0  0  0  0  0
  185.6950  178.5480  137.7510 N   0  0  0  0  0  2  0  0  0  0  0  0
  184.4350  177.8780  138.0870 C   0  0  1  0  0  3  0  0  0  0  0  0
  184.3030  176.4620  137.5960 C   0  0  0  0  0  3  0  0  0  0  0  0
  183.4170  175.6860  138.1000 N   0  0  0  0  0  0  0  0  0  0  0  0
  183.9820  178.0480  139.5290 C   0  0  0  0  0  2  0  0  0  0  0  0
  182.5800  177.4890  139.6450 C   0  0  0  0  0  2  0  0  0  0  0  0
  182.5770  176.0030  139.2640 C   0  0  0  0  0  2  0  0  0  0  0  0
  1  4  1  0  0  0  0
  2  9  1  0  0  0  0
  2 12  1  1  0  0  0
  3  2  1  0  0  0  0
  4  9  1  0  0  0  0
  5  3  1  0  0  0  0
  6  8  1  0  0  0  0
  7  3  1  0  0  0  0
  7  4  1  0  0  0  0
  8  7  1  0  0  0  0
 10  8  1  0  0  0  0
 10  5  1  0  0  0  0
 11 12  1  0  0  0  0
 12 17  1  0  0  0  0
 13 20  1  0  0  0  0
 13 18  1  0  0  0  0
 14 16  1  0  0  0  0
 15 13  2  0  0  0  0
 16 18  2  0  0  0  0
 17 15  1  0  0  0  0
 17 14  2  0  0  0  0
 19 20  1  0  0  0  0
 20 22  1  0  0  0  0
 22 25  2  0  0  0  0
 23 22  1  0  0  0  0
 25 24  1  0  0  0  0
 25 21  1  0  0  0  0
 26  5  1  0  0  0  0
 26 27  1  0  0  0  0
 27 30  1  0  0  0  0
 28 27  1  0  0  0  0
 28 29  2  0  0  0  0
 29 32  1  0  0  0  0
 30 31  1  0  0  0  0
 32 31  1  0  0  0  0
M  END
>  <MODEL>
5

>  <REMARK>
 VINA RESULT:      -8.2      2.829      5.747
  Name = 
  6 active torsions:
  status: ('A' for Active; 'I' for Inactive)
    1  A    between atoms: C_1  and  N_27
    2  A    between atoms: C_2  and  C_23
    3  A    between atoms: C_8  and  N_30
    4  A    between atoms: C_9  and  C_23
    5  A    between atoms: C_12  and  N_30
    6  A    between atoms: C_17  and  N_27
                            x       y       z     vdW  Elec       q    Type
                         _______ _______ _______ _____ _____    ______ ____

>  <TORSDO>
F 6

$$$$
=
 OpenBabel11042413073D

 32 35  0  0  1  0  0  0  0  0999 V2000
  188.0850  177.5830  140.3550 S   0  0  0  0  0  1  0  0  0  0  0  0
  185.9560  177.7980  143.4970 C   0  0  1  0  0  3  0  0  0  0  0  0
  185.1260  178.7320  142.6390 C   0  0  2  0  0  3  0  0  0  0  0  0
  187.4120  178.6760  141.6740 C   0  0  1  0  0  3  0  0  0  0  0  0
  183.8730  178.1160  142.0210 C   0  0  2  0  0  3  0  0  0  0  0  0
  185.8500  179.1510  139.1010 F   0  0  0  0  0  0  0  0  0  0  0  0
  185.9690  178.9810  141.4740 C   0  0  1  0  0  3  0  0  0  0  0  0
  185.2910  179.0080  140.3450 C   0  0  2  0  0  3  0  0  0  0  0  0
  187.4160  177.8950  142.9870 C   0  0  0  0  0  2  0  0  0  0  0  0
  183.8920  178.5530  140.5490 C   0  0  0  0  0  2  0  0  0  0  0  0
  184.7420  178.6920  145.4010 O   0  0  0  0  0  1  0  0  0  0  0  0
  185.9070  178.2230  144.9120 N   0  0  0  0  0  0  0  0  0  0  0  0
  189.3110  177.2780  146.1430 C   0  0  0  0  0  0  0  0  0  0  0  0
  186.8660  178.1840  147.1880 C   0  0  0  0  0  3  0  0  0  0  0  0
  188.2310  177.5730  145.3060 C   0  0  0  0  0  3  0  0  0  0  0  0
  187.9290  177.8820  148.0450 C   0  0  0  0  0  3  0  0  0  0  0  0
  187.0230  178.0670  145.8080 C   0  0  0  0  0  0  0  0  0  0  0  0
  189.1490  177.4450  147.5320 C   0  0  0  0  0  3  0  0  0  0  0  0
  191.6710  176.6180  146.6850 C   0  0  0  0  0  1  0  0  0  0  0  0
  190.5920  176.6650  145.6170 C   0  0  2  0  0  3  0  0  0  0  0  0
  190.3640  175.5380  142.9980 O   0  0  0  0  0  1  0  0  0  0  0  0
  191.1360  177.3330  144.3750 C   0  0  0  0  0  0  0  0  0  0  0  0
  191.6820  178.6660  144.4850 N   0  0  0  0  0  1  0  0  0  0  0  0
  191.6380  177.3420  141.9540 C   0  0  0  0  0  1  0  0  0  0  0  0
  191.0520  176.7270  143.1700 C   0  0  0  0  0  0  0  0  0  0  0  0
  182.6640  178.6240  142.6920 N   0  0  0  0  0  2  0  0  0  0  0  0
  181.5680  178.9580  141.7770 C   0  0  1  0  0  3  0  0  0  0  0  0
  181.0170  177.8080  140.9780 C   0  0  0  0  0  3  0  0  0  0  0  0
  179.8720  177.9070  140.4120 N   0  0  0  0  0  0  0  0  0  0  0  0
  180.4810  179.8380  142.3710 C   0  0  0  0  0  2  0  0  0  0  0  0
  179.5580  180.2610  141.2480 C   0  0  0  0  0  2  0  0  0  0  0  0
  178.9330  179.0240  140.5920 C   0  0  0  0  0  2  0  0  0  0  0  0
  1  4  1  0  0  0  0
  2 12  1  1  0  0  0
  3  2  1  0  0  0  0
  4  9  1  0  0  0  0
  5  3  1  0  0  0  0
  5 26  1  0  0  0  0
  6  8  1  0  0  0  0
  7  4  1  0  0  0  0
  7  3  1  0  0  0  0
  8 10  1  0  0  0  0
  8  7  1  0  0  0  0
  9  2  1  0  0  0  0
 10  5  1  0  0  0  0
 12 11  1  0  0  0  0
 12 17  1  0  0  0  0
 13 18  1  0  0  0  0
 14 16  1  0  0  0  0
 15 17  1  0  0  0  0
 15 13  2  0  0  0  0
 17 14  2  0  0  0  0
 18 16  2  0  0  0  0
 20 13  1  0  0  0  0
 20 19  1  0  0  0  0
 21 25  1  0  0  0  0
 22 23  1  0  0  0  0
 22 20  1  0  0  0  0
 24 25  1  0  0  0  0
 25 22  2  0  0  0  0
 27 30  1  0  0  0  0
 27 26  1  0  0  0  0
 28 27  1  0  0  0  0
 29 32  1  0  0  0  0
 29 28  2  0  0  0  0
 31 30  1  0  0  0  0
 32 31  1  0  0  0  0
M  END
>  <MODEL>
6

>  <REMARK>
 VINA RESULT:      -8.2      3.445      7.346
  Name = 
  6 active torsions:
  status: ('A' for Active; 'I' for Inactive)
    1  A    between atoms: C_1  and  N_27
    2  A    between atoms: C_2  and  C_23
    3  A    between atoms: C_8  and  N_30
    4  A    between atoms: C_9  and  C_23
    5  A    between atoms: C_12  and  N_30
    6  A    between atoms: C_17  and  N_27
                            x       y       z     vdW  Elec       q    Type
                         _______ _______ _______ _____ _____    ______ ____

>  <TORSDO>
F 6

$$$$
=
 OpenBabel11042413073D

 32 35  0  0  1  0  0  0  0  0999 V2000
  190.3810  177.1370  138.4700 S   0  0  0  0  0  1  0  0  0  0  0  0
  186.8950  177.9120  139.7730 C   0  0  1  0  0  3  0  0  0  0  0  0
  186.6510  178.3000  138.3270 C   0  0  2  0  0  3  0  0  0  0  0  0
  189.0980  178.4300  138.7250 C   0  0  1  0  0  3  0  0  0  0  0  0
  185.9300  177.2530  137.4800 C   0  0  2  0  0  3  0  0  0  0  0  0
  189.1610  177.6650  135.7760 F   0  0  0  0  0  0  0  0  0  0  0  0
  187.9870  178.3260  137.7400 C   0  0  1  0  0  3  0  0  0  0  0  0
  188.0210  177.8250  136.5210 C   0  0  2  0  0  3  0  0  0  0  0  0
  188.4000  178.1520  140.0550 C   0  0  0  0  0  2  0  0  0  0  0  0
  186.7360  177.1690  136.1740 C   0  0  0  0  0  2  0  0  0  0  0  0
  185.2690  179.6800  140.1290 O   0  0  0  0  0  1  0  0  0  0  0  0
  186.0900  178.7610  140.6740 N   0  0  0  0  0  0  0  0  0  0  0  0
  187.2140  177.7290  144.0900 C   0  0  0  0  0  0  0  0  0  0  0  0
  184.9020  178.7170  142.8390 C   0  0  0  0  0  3  0  0  0  0  0  0
  187.2070  178.0470  142.7290 C   0  0  0  0  0  3  0  0  0  0  0  0
  184.8820  178.3920  144.1990 C   0  0  0  0  0  3  0  0  0  0  0  0
  186.0770  178.5820  142.1040 C   0  0  0  0  0  0  0  0  0  0  0  0
  186.0300  177.9140  144.8300 C   0  0  0  0  0  3  0  0  0  0  0  0
  188.4130  177.3130  146.2560 C   0  0  0  0  0  1  0  0  0  0  0  0
  188.4060  177.0720  144.7560 C   0  0  2  0  0  3  0  0  0  0  0  0
  189.7980  175.5120  142.8050 O   0  0  0  0  0  1  0  0  0  0  0  0
  189.7410  177.4720  144.1720 C   0  0  0  0  0  0  0  0  0  0  0  0
  190.2880  178.7660  144.5090 N   0  0  0  0  0  1  0  0  0  0  0  0
  191.7230  177.0170  142.7650 C   0  0  0  0  0  1  0  0  0  0  0  0
  190.3830  176.6670  143.2970 C   0  0  0  0  0  0  0  0  0  0  0  0
  184.5470  177.6770  137.2030 N   0  0  0  0  0  2  0  0  0  0  0  0
  183.5980  177.3540  138.2730 C   0  0  1  0  0  3  0  0  0  0  0  0
  182.5150  178.3720  138.5080 C   0  0  0  0  0  3  0  0  0  0  0  0
  181.4640  178.0530  139.1670 N   0  0  0  0  0  0  0  0  0  0  0  0
  183.0730  175.9270  138.2570 C   0  0  0  0  0  2  0  0  0  0  0  0
  182.2920  175.7040  139.5340 C   0  0  0  0  0  2  0  0  0  0  0  0
  181.1220  176.6930  139.6100 C   0  0  0  0  0  2  0  0  0  0  0  0
  1  4  1  0  0  0  0
  2  9  1  0  0  0  0
  2 12  1  1  0  0  0
  3  2  1  0  0  0  0
  4  9  1  0  0  0  0
  5  3  1  0  0  0  0
  6  8  1  0  0  0  0
  7  3  1  0  0  0  0
  7  4  1  0  0  0  0
  8  7  1  0  0  0  0
 10  8  1  0  0  0  0
 10  5  1  0  0  0  0
 11 12  1  0  0  0  0
 12 17  1  0  0  0  0
 13 20  1  0  0  0  0
 13 18  1  0  0  0  0
 14 16  1  0  0  0  0
 15 13  2  0  0  0  0
 16 18  2  0  0  0  0
 17 15  1  0  0  0  0
 17 14  2  0  0  0  0
 20 19  1  0  0  0  0
 21 25  1  0  0  0  0
 22 23  1  0  0  0  0
 22 20  1  0  0  0  0
 24 25  1  0  0  0  0
 25 22  2  0  0  0  0
 26  5  1  0  0  0  0
 26 27  1  0  0  0  0
 27 28  1  0  0  0  0
 28 29  2  0  0  0  0
 29 32  1  0  0  0  0
 30 27  1  0  0  0  0
 30 31  1  0  0  0  0
 31 32  1  0  0  0  0
M  END
>  <MODEL>
7

>  <REMARK>
 VINA RESULT:      -8.1      3.281      6.013
  Name = 
  6 active torsions:
  status: ('A' for Active; 'I' for Inactive)
    1  A    between atoms: C_1  and  N_27
    2  A    between atoms: C_2  and  C_23
    3  A    between atoms: C_8  and  N_30
    4  A    between atoms: C_9  and  C_23
    5  A    between atoms: C_12  and  N_30
    6  A    between atoms: C_17  and  N_27
                            x       y       z     vdW  Elec       q    Type
                         _______ _______ _______ _____ _____    ______ ____

>  <TORSDO>
F 6

$$$$
=
 OpenBabel11042413073D

 32 35  0  0  1  0  0  0  0  0999 V2000
  181.7010  178.2510  143.9690 S   0  0  0  0  0  1  0  0  0  0  0  0
  184.1250  178.2800  141.0410 C   0  0  1  0  0  3  0  0  0  0  0  0
  185.0520  178.9070  142.0650 C   0  0  2  0  0  3  0  0  0  0  0  0
  182.7260  179.2840  142.8440 C   0  0  1  0  0  3  0  0  0  0  0  0
  186.0710  177.9590  142.6950 C   0  0  2  0  0  3  0  0  0  0  0  0
  184.0920  179.1270  145.5630 F   0  0  0  0  0  0  0  0  0  0  0  0
  184.1740  179.2270  143.1850 C   0  0  1  0  0  3  0  0  0  0  0  0
  184.7260  178.9830  144.3570 C   0  0  2  0  0  3  0  0  0  0  0  0
  182.6800  178.6610  141.4500 C   0  0  0  0  0  2  0  0  0  0  0  0
  186.0020  178.2400  144.2040 C   0  0  0  0  0  2  0  0  0  0  0  0
  184.1780  180.1290  139.4670 O   0  0  0  0  0  1  0  0  0  0  0  0
  184.4080  178.8210  139.6950 N   0  0  0  0  0  0  0  0  0  0  0  0
  186.9840  177.5350  137.3060 C   0  0  0  0  0  0  0  0  0  0  0  0
  184.2230  177.2920  137.7640 C   0  0  0  0  0  3  0  0  0  0  0  0
  186.3700  178.1770  138.3860 C   0  0  0  0  0  3  0  0  0  0  0  0
  184.8140  176.6530  136.6700 C   0  0  0  0  0  3  0  0  0  0  0  0
  185.0060  178.0290  138.6510 C   0  0  0  0  0  0  0  0  0  0  0  0
  186.1860  176.7570  136.4440 C   0  0  0  0  0  3  0  0  0  0  0  0
  188.7210  177.4810  135.4950 C   0  0  0  0  0  1  0  0  0  0  0  0
  188.4430  177.7570  136.9630 C   0  0  2  0  0  3  0  0  0  0  0  0
  189.4460  178.6970  139.4700 O   0  0  0  0  0  1  0  0  0  0  0  0
  189.4080  176.9690  137.8190 C   0  0  0  0  0  0  0  0  0  0  0  0
  189.7450  175.6200  137.4260 N   0  0  0  0  0  1  0  0  0  0  0  0
  190.8930  176.7530  139.7840 C   0  0  0  0  0  1  0  0  0  0  0  0
  189.8960  177.4880  138.9670 C   0  0  0  0  0  0  0  0  0  0  0  0
  187.4230  178.2380  142.1810 N   0  0  0  0  0  2  0  0  0  0  0  0
  188.5000  177.6620  142.9910 C   0  0  1  0  0  3  0  0  0  0  0  0
  188.7120  176.1810  142.8300 C   0  0  0  0  0  3  0  0  0  0  0  0
  189.8070  175.6410  143.2190 N   0  0  0  0  0  0  0  0  0  0  0  0
  189.8020  178.4490  142.9810 C   0  0  0  0  0  2  0  0  0  0  0  0
  190.7180  177.8460  144.0240 C   0  0  0  0  0  2  0  0  0  0  0  0
  190.9910  176.3730  143.6910 C   0  0  0  0  0  2  0  0  0  0  0  0
  2 12  1  6  0  0  0
  2  9  1  0  0  0  0
  2  3  1  0  0  0  0
  3  5  1  0  0  0  0
  3  7  1  0  0  0  0
  4  7  1  0  0  0  0
  4  1  1  0  0  0  0
  5 10  1  0  0  0  0
  7  8  1  0  0  0  0
  8  6  1  0  0  0  0
  9  4  1  0  0  0  0
 10  8  1  0  0  0  0
 11 12  1  0  0  0  0
 13 15  1  0  0  0  0
 14 17  1  0  0  0  0
 15 17  2  0  0  0  0
 16 14  2  0  0  0  0
 17 12  1  0  0  0  0
 18 16  1  0  0  0  0
 18 13  2  0  0  0  0
 19 20  1  0  0  0  0
 20 13  1  0  0  0  0
 20 22  1  0  0  0  0
 22 25  2  0  0  0  0
 23 22  1  0  0  0  0
 25 21  1  0  0  0  0
 25 24  1  0  0  0  0
 26  5  1  0  0  0  0
 26 27  1  0  0  0  0
 28 27  1  0  0  0  0
 28 29  2  0  0  0  0
 29 32  1  0  0  0  0
 30 27  1  0  0  0  0
 30 31  1  0  0  0  0
 32 31  1  0  0  0  0
M  END
>  <MODEL>
8

>  <REMARK>
 VINA RESULT:      -8.1      3.880      7.262
  Name = 
  6 active torsions:
  status: ('A' for Active; 'I' for Inactive)
    1  A    between atoms: C_1  and  N_27
    2  A    between atoms: C_2  and  C_23
    3  A    between atoms: C_8  and  N_30
    4  A    between atoms: C_9  and  C_23
    5  A    between atoms: C_12  and  N_30
    6  A    between atoms: C_17  and  N_27
                            x       y       z     vdW  Elec       q    Type
                         _______ _______ _______ _____ _____    ______ ____

>  <TORSDO>
F 6

$$$$
=
 OpenBabel11042413073D

 32 35  0  0  1  0  0  0  0  0999 V2000
  188.9940  177.7070  145.4340 S   0  0  0  0  0  1  0  0  0  0  0  0
  189.1100  177.8660  141.6380 C   0  0  1  0  0  3  0  0  0  0  0  0
  187.6290  177.5680  141.7730 C   0  0  2  0  0  3  0  0  0  0  0  0
  188.7320  176.7960  143.8570 C   0  0  1  0  0  3  0  0  0  0  0  0
  186.7020  178.7750  141.6380 C   0  0  2  0  0  3  0  0  0  0  0  0
  186.0210  177.5420  145.0330 F   0  0  0  0  0  0  0  0  0  0  0  0
  187.4720  177.1970  143.1750 C   0  0  1  0  0  3  0  0  0  0  0  0
  186.3710  177.6810  143.7140 C   0  0  2  0  0  3  0  0  0  0  0  0
  189.8090  177.2360  142.8680 C   0  0  0  0  0  2  0  0  0  0  0  0
  185.7140  178.6550  142.8080 C   0  0  0  0  0  2  0  0  0  0  0  0
  190.6340  176.3420  140.5180 O   0  0  0  0  0  1  0  0  0  0  0  0
  189.6450  177.2500  140.4050 N   0  0  0  0  0  0  0  0  0  0  0  0
  188.1080  176.6150  137.0540 C   0  0  0  0  0  0  0  0  0  0  0  0
  189.2790  178.7400  138.4690 C   0  0  0  0  0  3  0  0  0  0  0  0
  188.5460  176.4520  138.3720 C   0  0  0  0  0  3  0  0  0  0  0  0
  188.8600  178.9200  137.1470 C   0  0  0  0  0  3  0  0  0  0  0  0
  189.0900  177.5130  139.1030 C   0  0  0  0  0  0  0  0  0  0  0  0
  188.2650  177.8740  136.4440 C   0  0  0  0  0  3  0  0  0  0  0  0
  187.3710  175.8500  134.7800 C   0  0  0  0  0  1  0  0  0  0  0  0
  187.5950  175.4520  136.2290 C   0  0  2  0  0  3  0  0  0  0  0  0
  187.4960  172.7440  137.1410 O   0  0  0  0  0  1  0  0  0  0  0  0
  186.3440  174.8060  136.7770 C   0  0  0  0  0  0  0  0  0  0  0  0
  185.1690  175.6230  136.9780 N   0  0  0  0  0  1  0  0  0  0  0  0
  185.1020  172.8400  137.6180 C   0  0  0  0  0  1  0  0  0  0  0  0
  186.3390  173.5040  137.1390 C   0  0  0  0  0  0  0  0  0  0  0  0
  185.9840  178.7330  140.3520 N   0  0  0  0  0  2  0  0  0  0  0  0
  184.5560  179.0460  140.4550 C   0  0  1  0  0  3  0  0  0  0  0  0
  183.9690  179.7920  139.2870 C   0  0  0  0  0  3  0  0  0  0  0  0
  182.7000  179.8240  139.1160 N   0  0  0  0  0  0  0  0  0  0  0  0
  183.6780  177.8950  140.9220 C   0  0  0  0  0  2  0  0  0  0  0  0
  182.2910  178.4430  141.1800 C   0  0  0  0  0  2  0  0  0  0  0  0
  181.7200  179.0510  139.8930 C   0  0  0  0  0  2  0  0  0  0  0  0
  2 12  1  6  0  0  0
  2  3  1  0  0  0  0
  2  9  1  0  0  0  0
  3  7  1  0  0  0  0
  4  1  1  0  0  0  0
  5  3  1  0  0  0  0
  5 10  1  0  0  0  0
  7  8  1  0  0  0  0
  7  4  1  0  0  0  0
  8  6  1  0  0  0  0
  9  4  1  0  0  0  0
 10  8  1  0  0  0  0
 12 11  1  0  0  0  0
 13 15  1  0  0  0  0
 14 17  1  0  0  0  0
 15 17  2  0  0  0  0
 16 14  2  0  0  0  0
 17 12  1  0  0  0  0
 18 13  2  0  0  0  0
 18 16  1  0  0  0  0
 19 20  1  0  0  0  0
 20 22  1  0  0  0  0
 20 13  1  0  0  0  0
 22 23  1  0  0  0  0
 22 25  2  0  0  0  0
 25 21  1  0  0  0  0
 25 24  1  0  0  0  0
 26 27  1  0  0  0  0
 26  5  1  0  0  0  0
 27 30  1  0  0  0  0
 28 27  1  0  0  0  0
 29 28  2  0  0  0  0
 29 32  1  0  0  0  0
 30 31  1  0  0  0  0
 32 31  1  0  0  0  0
M  END
>  <MODEL>
9

>  <REMARK>
 VINA RESULT:      -8.0      3.899      8.126
  Name = 
  6 active torsions:
  status: ('A' for Active; 'I' for Inactive)
    1  A    between atoms: C_1  and  N_27
    2  A    between atoms: C_2  and  C_23
    3  A    between atoms: C_8  and  N_30
    4  A    between atoms: C_9  and  C_23
    5  A    between atoms: C_12  and  N_30
    6  A    between atoms: C_17  and  N_27
                            x       y       z     vdW  Elec       q    Type
                         _______ _______ _______ _____ _____    ______ ____

>  <TORSDO>
F 6

$$$$
