=
 OpenBabel11032419193D

 25 28  0  0  0  0  0  0  0  0999 V2000
  191.7940  176.4330  145.3190 C   0  0  0  0  0  3  0  0  0  0  0  0
  187.8490  177.0520  141.6740 O   0  0  0  0  0  0  0  0  0  0  0  0
  189.1950  177.5590  144.1230 C   0  0  0  0  0  0  0  0  0  0  0  0
  191.6590  175.6880  144.2230 C   0  0  0  0  0  0  0  0  0  0  0  0
  189.8340  177.9390  145.2350 C   0  0  0  0  0  3  0  0  0  0  0  0
  185.5260  178.5330  144.6120 N   0  0  0  0  0  0  0  0  0  0  0  0
  190.9330  176.1270  143.0130 C   0  0  0  0  0  3  0  0  0  0  0  0
  187.7740  177.9440  143.8910 C   0  0  0  0  0  0  0  0  0  0  0  0
  191.3100  177.8370  145.4270 C   0  0  0  0  0  2  0  0  0  0  0  0
  187.3660  178.1260  142.4480 C   0  0  0  0  0  2  0  0  0  0  0  0
  189.8850  176.9650  142.9490 C   0  0  0  0  0  0  0  0  0  0  0  0
  185.7770  178.2740  146.8750 N   0  0  0  0  0  0  0  0  0  0  0  0
  183.5810  178.9550  145.9060 N   0  0  0  0  0  1  0  0  0  0  0  0
  189.2080  177.1400  141.6960 N   0  0  0  0  0  0  0  0  0  0  0  0
  187.0870  177.9570  146.3320 C   0  0  0  0  0  3  0  0  0  0  0  0
  192.2490  174.4330  144.2060 O   0  0  0  0  0  1  0  0  0  0  0  0
  186.8720  178.1460  144.8670 C   0  0  0  0  0  0  0  0  0  0  0  0
  184.9500  178.5940  145.7630 C   0  0  0  0  0  0  0  0  0  0  0  0
  189.9350  177.3850  140.4550 C   0  0  0  0  0  2  0  0  0  0  0  0
  189.0810  176.6260  136.9140 C   0  0  0  0  0  2  0  0  0  0  0  0
  189.0340  177.1520  139.2500 C   0  0  0  0  0  3  0  0  0  0  0  0
  188.4410  178.4320  138.8170 N   0  0  0  0  0  2  0  0  0  0  0  0
  189.7830  176.4670  138.1830 N   0  0  0  0  0  2  0  0  0  0  0  0
  189.1860  179.0110  137.7000 C   0  0  0  0  0  2  0  0  0  0  0  0
  189.1070  178.0910  136.4810 C   0  0  0  0  0  2  0  0  0  0  0  0
  1  9  1  0  0  0  0
  2 14  1  0  0  0  0
  2 10  1  0  0  0  0
  3  5  2  0  0  0  0
  4  1  2  0  0  0  0
  5  9  1  0  0  0  0
  6 17  1  0  0  0  0
  6 18  2  0  0  0  0
  7  4  1  0  0  0  0
  8  3  1  0  0  0  0
  8 17  2  0  0  0  0
 10  8  1  0  0  0  0
 11  7  2  0  0  0  0
 11  3  1  0  0  0  0
 14 11  1  0  0  0  0
 15 12  2  0  0  0  0
 16  4  1  0  0  0  0
 17 15  1  0  0  0  0
 18 13  1  0  0  0  0
 18 12  1  0  0  0  0
 19 14  1  0  0  0  0
 20 23  1  0  0  0  0
 21 19  1  0  0  0  0
 22 21  1  0  0  0  0
 23 21  1  0  0  0  0
 24 22  1  0  0  0  0
 25 20  1  0  0  0  0
 25 24  1  0  0  0  0
M  END
>  <MODEL>
1

>  <REMARK>
 VINA RESULT:      -8.5      0.000      0.000
  Name = 
  2 active torsions:
  status: ('A' for Active; 'I' for Inactive)
    1  A    between atoms: C_2  and  C_11
    2  A    between atoms: C_11  and  N_21
                            x       y       z     vdW  Elec       q    Type
                         _______ _______ _______ _____ _____    ______ ____

>  <TORSDO>
F 2

$$$$
=
 OpenBabel11032419193D

 25 28  0  0  0  0  0  0  0  0999 V2000
  186.7130  177.8780  146.5590 C   0  0  0  0  0  3  0  0  0  0  0  0
  184.3540  179.5840  142.0040 O   0  0  0  0  0  0  0  0  0  0  0  0
  186.2150  178.0790  143.5320 C   0  0  0  0  0  0  0  0  0  0  0  0
  185.8030  178.8490  146.5020 C   0  0  0  0  0  0  0  0  0  0  0  0
  187.0340  177.2500  144.1890 C   0  0  0  0  0  3  0  0  0  0  0  0
  187.6480  178.4220  140.0000 N   0  0  0  0  0  0  0  0  0  0  0  0
  184.8200  178.9930  145.4090 C   0  0  0  0  0  3  0  0  0  0  0  0
  186.3690  178.3000  142.0670 C   0  0  0  0  0  0  0  0  0  0  0  0
  186.7910  176.7610  145.5780 C   0  0  0  0  0  2  0  0  0  0  0  0
  185.1010  178.6130  141.3080 C   0  0  0  0  0  2  0  0  0  0  0  0
  184.9690  178.6320  144.1230 C   0  0  0  0  0  0  0  0  0  0  0  0
  189.7490  178.0490  140.8350 N   0  0  0  0  0  0  0  0  0  0  0  0
  189.4000  178.4540  138.3980 N   0  0  0  0  0  1  0  0  0  0  0  0
  183.9610  179.0050  143.1720 N   0  0  0  0  0  0  0  0  0  0  0  0
  188.8850  177.9820  142.0010 C   0  0  0  0  0  3  0  0  0  0  0  0
  185.7630  179.7730  147.5360 O   0  0  0  0  0  1  0  0  0  0  0  0
  187.5370  178.2240  141.4040 C   0  0  0  0  0  0  0  0  0  0  0  0
  188.9020  178.3150  139.7230 C   0  0  0  0  0  0  0  0  0  0  0  0
  182.5400  178.8020  143.4360 C   0  0  0  0  0  2  0  0  0  0  0  0
  179.5450  180.2980  141.8120 C   0  0  0  0  0  2  0  0  0  0  0  0
  181.6980  179.3690  142.3020 C   0  0  0  0  0  3  0  0  0  0  0  0
  181.2910  178.2810  141.3910 N   0  0  0  0  0  2  0  0  0  0  0  0
  180.5600  180.1270  142.8470 N   0  0  0  0  0  2  0  0  0  0  0  0
  179.9360  177.8180  141.6910 C   0  0  0  0  0  2  0  0  0  0  0  0
  178.9310  178.9450  141.4550 C   0  0  0  0  0  2  0  0  0  0  0  0
  2 14  1  0  0  0  0
  3 11  1  0  0  0  0
  3  5  2  0  0  0  0
  4  1  2  0  0  0  0
  4 16  1  0  0  0  0
  5  9  1  0  0  0  0
  6 17  1  0  0  0  0
  7  4  1  0  0  0  0
  8  3  1  0  0  0  0
  9  1  1  0  0  0  0
 10  2  1  0  0  0  0
 10  8  1  0  0  0  0
 11  7  2  0  0  0  0
 12 15  2  0  0  0  0
 13 18  1  0  0  0  0
 14 19  1  0  0  0  0
 14 11  1  0  0  0  0
 17 15  1  0  0  0  0
 17  8  2  0  0  0  0
 18  6  2  0  0  0  0
 18 12  1  0  0  0  0
 20 23  1  0  0  0  0
 21 23  1  0  0  0  0
 21 19  1  0  0  0  0
 22 24  1  0  0  0  0
 22 21  1  0  0  0  0
 25 24  1  0  0  0  0
 25 20  1  0  0  0  0
M  END
>  <MODEL>
2

>  <REMARK>
 VINA RESULT:      -8.3      3.594      7.133
  Name = 
  2 active torsions:
  status: ('A' for Active; 'I' for Inactive)
    1  A    between atoms: C_2  and  C_11
    2  A    between atoms: C_11  and  N_21
                            x       y       z     vdW  Elec       q    Type
                         _______ _______ _______ _____ _____    ______ ____

>  <TORSDO>
F 2

$$$$
=
 OpenBabel11032419193D

 25 28  0  0  0  0  0  0  0  0999 V2000
  185.5860  178.3310  143.5090 C   0  0  0  0  0  3  0  0  0  0  0  0
  190.7090  177.3810  142.0640 O   0  0  0  0  0  0  0  0  0  0  0  0
  188.4320  177.1940  143.7510 C   0  0  0  0  0  0  0  0  0  0  0  0
  186.1900  178.8940  142.4630 C   0  0  0  0  0  0  0  0  0  0  0  0
  187.3720  176.9610  144.5330 C   0  0  0  0  0  3  0  0  0  0  0  0
  191.5200  176.5490  145.9200 N   0  0  0  0  0  0  0  0  0  0  0  0
  187.3610  178.3120  141.7760 C   0  0  0  0  0  3  0  0  0  0  0  0
  189.8100  176.8680  144.2180 C   0  0  0  0  0  0  0  0  0  0  0  0
  185.9590  176.9970  144.0570 C   0  0  0  0  0  2  0  0  0  0  0  0
  190.7970  176.4800  143.1430 C   0  0  0  0  0  2  0  0  0  0  0  0
  188.3230  177.5440  142.3120 C   0  0  0  0  0  0  0  0  0  0  0  0
  190.3230  177.1570  147.7770 N   0  0  0  0  0  0  0  0  0  0  0  0
  192.7130  176.4700  147.9710 N   0  0  0  0  0  1  0  0  0  0  0  0
  189.4720  177.2100  141.5190 N   0  0  0  0  0  0  0  0  0  0  0  0
  189.3780  177.2970  146.6810 C   0  0  0  0  0  3  0  0  0  0  0  0
  185.6810  180.0900  141.9780 O   0  0  0  0  0  1  0  0  0  0  0  0
  190.2010  176.8860  145.5050 C   0  0  0  0  0  0  0  0  0  0  0  0
  191.5440  176.7140  147.1970 C   0  0  0  0  0  0  0  0  0  0  0  0
  189.3470  176.7200  140.1500 C   0  0  0  0  0  2  0  0  0  0  0  0
  188.9880  179.2070  137.4050 C   0  0  0  0  0  2  0  0  0  0  0  0
  189.7920  177.7850  139.1570 C   0  0  0  0  0  3  0  0  0  0  0  0
  190.6160  177.1670  138.0990 N   0  0  0  0  0  2  0  0  0  0  0  0
  188.6220  178.5100  138.6340 N   0  0  0  0  0  2  0  0  0  0  0  0
  189.8220  176.8900  136.9030 C   0  0  0  0  0  2  0  0  0  0  0  0
  189.3000  178.1960  136.3030 C   0  0  0  0  0  2  0  0  0  0  0  0
  1  9  1  0  0  0  0
  2 10  1  0  0  0  0
  3  8  1  0  0  0  0
  3  5  2  0  0  0  0
  4  1  2  0  0  0  0
  6 18  2  0  0  0  0
  7 11  2  0  0  0  0
  7  4  1  0  0  0  0
  8 17  2  0  0  0  0
  9  5  1  0  0  0  0
 10  8  1  0  0  0  0
 11  3  1  0  0  0  0
 14  2  1  0  0  0  0
 14 11  1  0  0  0  0
 15 12  2  0  0  0  0
 16  4  1  0  0  0  0
 17  6  1  0  0  0  0
 17 15  1  0  0  0  0
 18 12  1  0  0  0  0
 18 13  1  0  0  0  0
 19 14  1  0  0  0  0
 20 23  1  0  0  0  0
 21 19  1  0  0  0  0
 22 21  1  0  0  0  0
 23 21  1  0  0  0  0
 24 22  1  0  0  0  0
 25 24  1  0  0  0  0
 25 20  1  0  0  0  0
M  END
>  <MODEL>
3

>  <REMARK>
 VINA RESULT:      -7.9      2.482      4.528
  Name = 
  2 active torsions:
  status: ('A' for Active; 'I' for Inactive)
    1  A    between atoms: C_2  and  C_11
    2  A    between atoms: C_11  and  N_21
                            x       y       z     vdW  Elec       q    Type
                         _______ _______ _______ _____ _____    ______ ____

>  <TORSDO>
F 2

$$$$
=
 OpenBabel11032419193D

 25 28  0  0  0  0  0  0  0  0999 V2000
  191.2090  176.7440  145.0350 C   0  0  0  0  0  3  0  0  0  0  0  0
  189.0600  176.9760  140.0790 O   0  0  0  0  0  0  0  0  0  0  0  0
  189.2670  177.6490  142.8310 C   0  0  0  0  0  0  0  0  0  0  0  0
  191.5700  175.9590  144.0210 C   0  0  0  0  0  0  0  0  0  0  0  0
  189.3780  178.1060  144.0830 C   0  0  0  0  0  3  0  0  0  0  0  0
  185.6710  178.3810  141.7420 N   0  0  0  0  0  0  0  0  0  0  0  0
  191.3770  176.3090  142.5990 C   0  0  0  0  0  3  0  0  0  0  0  0
  188.0460  177.9280  142.0240 C   0  0  0  0  0  0  0  0  0  0  0  0
  190.6520  178.1130  144.8600 C   0  0  0  0  0  2  0  0  0  0  0  0
  188.2510  178.0370  140.5310 C   0  0  0  0  0  2  0  0  0  0  0  0
  190.4040  177.0690  142.0710 C   0  0  0  0  0  0  0  0  0  0  0  0
  184.9930  178.2090  143.9240 N   0  0  0  0  0  0  0  0  0  0  0  0
  183.3490  178.7050  142.1140 N   0  0  0  0  0  1  0  0  0  0  0  0
  190.2870  177.1590  140.6430 N   0  0  0  0  0  0  0  0  0  0  0  0
  186.4260  177.9670  143.9750 C   0  0  0  0  0  3  0  0  0  0  0  0
  192.1800  174.7470  144.3140 O   0  0  0  0  0  1  0  0  0  0  0  0
  186.8150  178.0960  142.5390 C   0  0  0  0  0  0  0  0  0  0  0  0
  184.6750  178.4360  142.5560 C   0  0  0  0  0  0  0  0  0  0  0  0
  191.4420  177.4160  139.7900 C   0  0  0  0  0  2  0  0  0  0  0  0
  191.1500  174.4910  137.5080 C   0  0  0  0  0  2  0  0  0  0  0  0
  191.3030  176.6830  138.4630 C   0  0  0  0  0  3  0  0  0  0  0  0
  192.5640  176.7840  137.7030 N   0  0  0  0  0  2  0  0  0  0  0  0
  190.8740  175.2940  138.6950 N   0  0  0  0  0  2  0  0  0  0  0  0
  193.3830  175.5850  137.8730 C   0  0  0  0  0  2  0  0  0  0  0  0
  192.6580  174.3660  137.3010 C   0  0  0  0  0  2  0  0  0  0  0  0
  2 10  1  0  0  0  0
  2 14  1  0  0  0  0
  3  5  2  0  0  0  0
  4 16  1  0  0  0  0
  4  1  2  0  0  0  0
  5  9  1  0  0  0  0
  6 17  1  0  0  0  0
  6 18  2  0  0  0  0
  7  4  1  0  0  0  0
  8 17  2  0  0  0  0
  8  3  1  0  0  0  0
  9  1  1  0  0  0  0
 10  8  1  0  0  0  0
 11  7  2  0  0  0  0
 11  3  1  0  0  0  0
 12 15  2  0  0  0  0
 13 18  1  0  0  0  0
 14 11  1  0  0  0  0
 17 15  1  0  0  0  0
 18 12  1  0  0  0  0
 19 14  1  0  0  0  0
 20 23  1  0  0  0  0
 21 23  1  0  0  0  0
 21 19  1  0  0  0  0
 22 24  1  0  0  0  0
 22 21  1  0  0  0  0
 25 20  1  0  0  0  0
 25 24  1  0  0  0  0
M  END
>  <MODEL>
4

>  <REMARK>
 VINA RESULT:      -7.9      2.102      2.629
  Name = 
  2 active torsions:
  status: ('A' for Active; 'I' for Inactive)
    1  A    between atoms: C_2  and  C_11
    2  A    between atoms: C_11  and  N_21
                            x       y       z     vdW  Elec       q    Type
                         _______ _______ _______ _____ _____    ______ ____

>  <TORSDO>
F 2

$$$$
=
 OpenBabel11032419193D

 25 28  0  0  0  0  0  0  0  0999 V2000
  180.9000  179.5450  139.9400 C   0  0  0  0  0  3  0  0  0  0  0  0
  186.2460  179.0310  140.5650 O   0  0  0  0  0  0  0  0  0  0  0  0
  183.5240  178.7070  141.3060 C   0  0  0  0  0  0  0  0  0  0  0  0
  181.8080  180.1110  139.1460 C   0  0  0  0  0  0  0  0  0  0  0  0
  182.2690  178.4100  141.6600 C   0  0  0  0  0  3  0  0  0  0  0  0
  185.6160  178.4800  144.5040 N   0  0  0  0  0  0  0  0  0  0  0  0
  183.1900  179.6130  138.9890 C   0  0  0  0  0  3  0  0  0  0  0  0
  184.6470  178.5420  142.2730 C   0  0  0  0  0  0  0  0  0  0  0  0
  181.1370  178.2840  140.6960 C   0  0  0  0  0  2  0  0  0  0  0  0
  185.9900  178.1990  141.6720 C   0  0  0  0  0  2  0  0  0  0  0  0
  183.9360  178.9710  139.9040 C   0  0  0  0  0  0  0  0  0  0  0  0
  183.7710  179.0600  145.7320 N   0  0  0  0  0  0  0  0  0  0  0  0
  185.9580  178.6220  146.8490 N   0  0  0  0  0  1  0  0  0  0  0  0
  185.3190  178.7120  139.6190 N   0  0  0  0  0  0  0  0  0  0  0  0
  183.2960  179.0500  144.3580 C   0  0  0  0  0  3  0  0  0  0  0  0
  181.4320  181.2250  138.4100 O   0  0  0  0  0  1  0  0  0  0  0  0
  184.5270  178.6630  143.6060 C   0  0  0  0  0  0  0  0  0  0  0  0
  185.1480  178.7110  145.6820 C   0  0  0  0  0  0  0  0  0  0  0  0
  185.7500  178.1440  138.3470 C   0  0  0  0  0  2  0  0  0  0  0  0
  189.1330  178.8340  136.9590 C   0  0  0  0  0  2  0  0  0  0  0  0
  187.2700  178.0940  138.2690 C   0  0  0  0  0  3  0  0  0  0  0  0
  187.7050  176.7370  137.8840 N   0  0  0  0  0  2  0  0  0  0  0  0
  187.7650  179.1430  137.3630 N   0  0  0  0  0  2  0  0  0  0  0  0
  187.9840  176.6570  136.4510 C   0  0  0  0  0  2  0  0  0  0  0  0
  189.1500  177.5770  136.0900 C   0  0  0  0  0  2  0  0  0  0  0  0
  1  9  1  0  0  0  0
  2 10  1  0  0  0  0
  3  5  2  0  0  0  0
  3  8  1  0  0  0  0
  4  1  2  0  0  0  0
  6 18  2  0  0  0  0
  7  4  1  0  0  0  0
  7 11  2  0  0  0  0
  8 17  2  0  0  0  0
  9  5  1  0  0  0  0
 10  8  1  0  0  0  0
 11  3  1  0  0  0  0
 14 11  1  0  0  0  0
 14  2  1  0  0  0  0
 15 12  2  0  0  0  0
 16  4  1  0  0  0  0
 17 15  1  0  0  0  0
 17  6  1  0  0  0  0
 18 12  1  0  0  0  0
 18 13  1  0  0  0  0
 19 14  1  0  0  0  0
 20 23  1  0  0  0  0
 21 19  1  0  0  0  0
 22 21  1  0  0  0  0
 23 21  1  0  0  0  0
 24 22  1  0  0  0  0
 25 24  1  0  0  0  0
 25 20  1  0  0  0  0
M  END
>  <MODEL>
5

>  <REMARK>
 VINA RESULT:      -7.7      3.814      6.366
  Name = 
  2 active torsions:
  status: ('A' for Active; 'I' for Inactive)
    1  A    between atoms: C_2  and  C_11
    2  A    between atoms: C_11  and  N_21
                            x       y       z     vdW  Elec       q    Type
                         _______ _______ _______ _____ _____    ______ ____

>  <TORSDO>
F 2

$$$$
=
 OpenBabel11032419193D

 25 28  0  0  0  0  0  0  0  0999 V2000
  186.9250  178.1370  147.3420 C   0  0  0  0  0  3  0  0  0  0  0  0
  186.1860  178.8670  142.0360 O   0  0  0  0  0  0  0  0  0  0  0  0
  187.4540  177.7830  144.3350 C   0  0  0  0  0  0  0  0  0  0  0  0
  186.0740  179.0160  146.8150 C   0  0  0  0  0  0  0  0  0  0  0  0
  188.0200  177.1390  145.3620 C   0  0  0  0  0  3  0  0  0  0  0  0
  189.9710  177.6200  141.4560 N   0  0  0  0  0  0  0  0  0  0  0  0
  185.5060  178.9000  145.4570 C   0  0  0  0  0  3  0  0  0  0  0  0
  188.0820  177.7610  142.9830 C   0  0  0  0  0  0  0  0  0  0  0  0
  187.3370  176.8780  146.6620 C   0  0  0  0  0  2  0  0  0  0  0  0
  187.1320  177.8480  141.8120 C   0  0  0  0  0  2  0  0  0  0  0  0
  186.0770  178.3370  144.3790 C   0  0  0  0  0  0  0  0  0  0  0  0
  191.6820  177.5480  142.9790 N   0  0  0  0  0  0  0  0  0  0  0  0
  192.1540  177.5050  140.5290 N   0  0  0  0  0  1  0  0  0  0  0  0
  185.4350  178.4690  143.1010 N   0  0  0  0  0  0  0  0  0  0  0  0
  190.4810  177.6190  143.7940 C   0  0  0  0  0  3  0  0  0  0  0  0
  185.6830  180.0970  147.5920 O   0  0  0  0  0  1  0  0  0  0  0  0
  189.4040  177.6570  142.7600 C   0  0  0  0  0  0  0  0  0  0  0  0
  191.2470  177.5580  141.6240 C   0  0  0  0  0  0  0  0  0  0  0  0
  184.0100  178.2120  142.9240 C   0  0  0  0  0  2  0  0  0  0  0  0
  181.5220  179.3330  140.3950 C   0  0  0  0  0  2  0  0  0  0  0  0
  183.5160  178.8080  141.6130 C   0  0  0  0  0  3  0  0  0  0  0  0
  183.7910  177.8720  140.5060 N   0  0  0  0  0  2  0  0  0  0  0  0
  182.0950  179.1730  141.7280 N   0  0  0  0  0  2  0  0  0  0  0  0
  182.6080  177.0770  140.1780 C   0  0  0  0  0  2  0  0  0  0  0  0
  181.4850  177.9850  139.6760 C   0  0  0  0  0  2  0  0  0  0  0  0
  2 14  1  0  0  0  0
  3 11  1  0  0  0  0
  3  5  2  0  0  0  0
  4  1  2  0  0  0  0
  4 16  1  0  0  0  0
  5  9  1  0  0  0  0
  6 18  2  0  0  0  0
  6 17  1  0  0  0  0
  7  4  1  0  0  0  0
  8  3  1  0  0  0  0
  9  1  1  0  0  0  0
 10  2  1  0  0  0  0
 10  8  1  0  0  0  0
 11  7  2  0  0  0  0
 12 15  2  0  0  0  0
 13 18  1  0  0  0  0
 14 11  1  0  0  0  0
 17  8  2  0  0  0  0
 17 15  1  0  0  0  0
 18 12  1  0  0  0  0
 19 14  1  0  0  0  0
 20 23  1  0  0  0  0
 21 23  1  0  0  0  0
 21 19  1  0  0  0  0
 22 21  1  0  0  0  0
 24 22  1  0  0  0  0
 25 24  1  0  0  0  0
 25 20  1  0  0  0  0
M  END
>  <MODEL>
6

>  <REMARK>
 VINA RESULT:      -7.3      3.277      6.112
  Name = 
  2 active torsions:
  status: ('A' for Active; 'I' for Inactive)
    1  A    between atoms: C_2  and  C_11
    2  A    between atoms: C_11  and  N_21
                            x       y       z     vdW  Elec       q    Type
                         _______ _______ _______ _____ _____    ______ ____

>  <TORSDO>
F 2

$$$$
=
 OpenBabel11032419193D

 25 28  0  0  0  0  0  0  0  0999 V2000
  186.9790  178.2680  147.6980 C   0  0  0  0  0  3  0  0  0  0  0  0
  186.9390  177.5000  142.3460 O   0  0  0  0  0  0  0  0  0  0  0  0
  185.9960  178.5730  144.8010 C   0  0  0  0  0  0  0  0  0  0  0  0
  187.7680  177.4090  147.0560 C   0  0  0  0  0  0  0  0  0  0  0  0
  185.5700  179.2110  145.8970 C   0  0  0  0  0  3  0  0  0  0  0  0
  183.0730  178.6290  142.3310 N   0  0  0  0  0  0  0  0  0  0  0  0
  188.1230  177.5260  145.6260 C   0  0  0  0  0  3  0  0  0  0  0  0
  185.1720  178.5610  143.5590 C   0  0  0  0  0  0  0  0  0  0  0  0
  186.4320  179.5070  147.0790 C   0  0  0  0  0  2  0  0  0  0  0  0
  185.9380  178.4890  142.2590 C   0  0  0  0  0  2  0  0  0  0  0  0
  187.3810  178.0600  144.6420 C   0  0  0  0  0  0  0  0  0  0  0  0
  181.6070  178.6680  144.0920 N   0  0  0  0  0  0  0  0  0  0  0  0
  180.7740  178.6690  141.7400 N   0  0  0  0  0  1  0  0  0  0  0  0
  187.8280  177.9320  143.2840 N   0  0  0  0  0  0  0  0  0  0  0  0
  182.9180  178.6410  144.7190 C   0  0  0  0  0  3  0  0  0  0  0  0
  188.3040  176.3480  147.7720 O   0  0  0  0  0  1  0  0  0  0  0  0
  183.8290  178.6230  143.5360 C   0  0  0  0  0  0  0  0  0  0  0  0
  181.8350  178.6550  142.6880 C   0  0  0  0  0  0  0  0  0  0  0  0
  189.2020  178.2290  142.8940 C   0  0  0  0  0  2  0  0  0  0  0  0
  191.4300  176.8540  140.2500 C   0  0  0  0  0  2  0  0  0  0  0  0
  189.6920  177.2300  141.8560 C   0  0  0  0  0  3  0  0  0  0  0  0
  188.7930  177.2440  140.6860 N   0  0  0  0  0  2  0  0  0  0  0  0
  191.0970  177.5050  141.5130 N   0  0  0  0  0  2  0  0  0  0  0  0
  189.3310  178.0810  139.6140 C   0  0  0  0  0  2  0  0  0  0  0  0
  190.6520  177.5030  139.1070 C   0  0  0  0  0  2  0  0  0  0  0  0
  2 14  1  0  0  0  0
  3  5  2  0  0  0  0
  4  1  2  0  0  0  0
  4 16  1  0  0  0  0
  5  9  1  0  0  0  0
  6 18  2  0  0  0  0
  6 17  1  0  0  0  0
  7  4  1  0  0  0  0
  8  3  1  0  0  0  0
  9  1  1  0  0  0  0
 10  2  1  0  0  0  0
 10  8  1  0  0  0  0
 11  3  1  0  0  0  0
 11  7  2  0  0  0  0
 12 15  2  0  0  0  0
 13 18  1  0  0  0  0
 14 11  1  0  0  0  0
 17  8  2  0  0  0  0
 17 15  1  0  0  0  0
 18 12  1  0  0  0  0
 19 14  1  0  0  0  0
 20 23  1  0  0  0  0
 21 19  1  0  0  0  0
 22 21  1  0  0  0  0
 23 21  1  0  0  0  0
 24 22  1  0  0  0  0
 25 24  1  0  0  0  0
 25 20  1  0  0  0  0
M  END
>  <MODEL>
7

>  <REMARK>
 VINA RESULT:      -7.2      2.507      3.855
  Name = 
  2 active torsions:
  status: ('A' for Active; 'I' for Inactive)
    1  A    between atoms: C_2  and  C_11
    2  A    between atoms: C_11  and  N_21
                            x       y       z     vdW  Elec       q    Type
                         _______ _______ _______ _____ _____    ______ ____

>  <TORSDO>
F 2

$$$$
=
 OpenBabel11032419193D

 25 28  0  0  0  0  0  0  0  0999 V2000
  186.7780  178.2560  147.4890 C   0  0  0  0  0  3  0  0  0  0  0  0
  186.7110  177.8310  142.1000 O   0  0  0  0  0  0  0  0  0  0  0  0
  185.7480  178.6980  144.6260 C   0  0  0  0  0  0  0  0  0  0  0  0
  187.5990  177.4790  146.7860 C   0  0  0  0  0  0  0  0  0  0  0  0
  185.3050  179.2440  145.7650 C   0  0  0  0  0  3  0  0  0  0  0  0
  182.7960  178.7720  142.1900 N   0  0  0  0  0  0  0  0  0  0  0  0
  187.9310  177.7040  145.3640 C   0  0  0  0  0  3  0  0  0  0  0  0
  184.9110  178.7260  143.3930 C   0  0  0  0  0  0  0  0  0  0  0  0
  186.1650  179.5050  146.9560 C   0  0  0  0  0  2  0  0  0  0  0  0
  185.6640  178.7740  142.0850 C   0  0  0  0  0  2  0  0  0  0  0  0
  187.1530  178.2640  144.4230 C   0  0  0  0  0  0  0  0  0  0  0  0
  181.3510  178.6280  143.9630 N   0  0  0  0  0  0  0  0  0  0  0  0
  180.4910  178.7400  141.6240 N   0  0  0  0  0  1  0  0  0  0  0  0
  187.5890  178.2450  143.0550 N   0  0  0  0  0  0  0  0  0  0  0  0
  182.6690  178.6240  144.5760 C   0  0  0  0  0  3  0  0  0  0  0  0
  188.1930  176.4010  147.4280 O   0  0  0  0  0  1  0  0  0  0  0  0
  183.5660  178.7250  143.3860 C   0  0  0  0  0  0  0  0  0  0  0  0
  181.5630  178.7160  142.5590 C   0  0  0  0  0  0  0  0  0  0  0  0
  188.9430  178.6310  142.6730 C   0  0  0  0  0  2  0  0  0  0  0  0
  190.3840  175.2440  143.2190 C   0  0  0  0  0  2  0  0  0  0  0  0
  189.7860  177.4010  142.3660 C   0  0  0  0  0  3  0  0  0  0  0  0
  191.2160  177.7220  142.5360 N   0  0  0  0  0  2  0  0  0  0  0  0
  189.3420  176.2650  143.1900 N   0  0  0  0  0  2  0  0  0  0  0  0
  191.7040  177.2900  143.8440 C   0  0  0  0  0  2  0  0  0  0  0  0
  191.6090  175.7690  143.9670 C   0  0  0  0  0  2  0  0  0  0  0  0
  2 14  1  0  0  0  0
  3  5  2  0  0  0  0
  4 16  1  0  0  0  0
  4  1  2  0  0  0  0
  5  9  1  0  0  0  0
  6 18  2  0  0  0  0
  6 17  1  0  0  0  0
  7  4  1  0  0  0  0
  8  3  1  0  0  0  0
  9  1  1  0  0  0  0
 10  2  1  0  0  0  0
 10  8  1  0  0  0  0
 11  3  1  0  0  0  0
 11  7  2  0  0  0  0
 12 15  2  0  0  0  0
 13 18  1  0  0  0  0
 14 11  1  0  0  0  0
 17  8  2  0  0  0  0
 17 15  1  0  0  0  0
 18 12  1  0  0  0  0
 19 14  1  0  0  0  0
 20 25  1  0  0  0  0
 21 22  1  0  0  0  0
 21 19  1  0  0  0  0
 21 23  1  0  0  0  0
 22 24  1  0  0  0  0
 23 20  1  0  0  0  0
 24 25  1  0  0  0  0
M  END
>  <MODEL>
8

>  <REMARK>
 VINA RESULT:      -7.1      3.064      4.721
  Name = 
  2 active torsions:
  status: ('A' for Active; 'I' for Inactive)
    1  A    between atoms: C_2  and  C_11
    2  A    between atoms: C_11  and  N_21
                            x       y       z     vdW  Elec       q    Type
                         _______ _______ _______ _____ _____    ______ ____

>  <TORSDO>
F 2

$$$$
=
 OpenBabel11032419193D

 25 28  0  0  0  0  0  0  0  0999 V2000
  186.3630  178.2550  146.6240 C   0  0  0  0  0  3  0  0  0  0  0  0
  185.5140  177.8780  141.2980 O   0  0  0  0  0  0  0  0  0  0  0  0
  184.9260  178.7170  143.9460 C   0  0  0  0  0  0  0  0  0  0  0  0
  187.0770  177.4880  145.8020 C   0  0  0  0  0  0  0  0  0  0  0  0
  184.6520  179.2500  145.1420 C   0  0  0  0  0  3  0  0  0  0  0  0
  181.6510  178.7970  141.9670 N   0  0  0  0  0  0  0  0  0  0  0  0
  187.1970  177.7270  144.3490 C   0  0  0  0  0  3  0  0  0  0  0  0
  183.9180  178.7510  142.8490 C   0  0  0  0  0  0  0  0  0  0  0  0
  185.6750  179.5050  146.1980 C   0  0  0  0  0  2  0  0  0  0  0  0
  184.4730  178.8150  141.4450 C   0  0  0  0  0  2  0  0  0  0  0  0
  186.2880  178.2910  143.5360 C   0  0  0  0  0  0  0  0  0  0  0  0
  180.4800  178.6300  143.9290 N   0  0  0  0  0  0  0  0  0  0  0  0
  179.2880  178.7580  141.7410 N   0  0  0  0  0  1  0  0  0  0  0  0
  186.5210  178.2870  142.1200 N   0  0  0  0  0  0  0  0  0  0  0  0
  181.8730  178.6280  144.3440 C   0  0  0  0  0  3  0  0  0  0  0  0
  187.7620  176.4080  146.3400 O   0  0  0  0  0  1  0  0  0  0  0  0
  182.5870  178.7440  143.0370 C   0  0  0  0  0  0  0  0  0  0  0  0
  180.4850  178.7320  142.5110 C   0  0  0  0  0  0  0  0  0  0  0  0
  187.8030  178.6840  141.5480 C   0  0  0  0  0  2  0  0  0  0  0  0
  190.3020  176.7560  139.5770 C   0  0  0  0  0  2  0  0  0  0  0  0
  188.3060  177.6280  140.5740 C   0  0  0  0  0  3  0  0  0  0  0  0
  187.9390  178.0070  139.1950 N   0  0  0  0  0  2  0  0  0  0  0  0
  189.7520  177.4200  140.7550 N   0  0  0  0  0  2  0  0  0  0  0  0
  189.0540  178.6590  138.5110 C   0  0  0  0  0  2  0  0  0  0  0  0
  190.2260  177.6880  138.3680 C   0  0  0  0  0  2  0  0  0  0  0  0
  2 10  1  0  0  0  0
  2 14  1  0  0  0  0
  3  5  2  0  0  0  0
  4 16  1  0  0  0  0
  4  1  2  0  0  0  0
  5  9  1  0  0  0  0
  6 18  2  0  0  0  0
  6 17  1  0  0  0  0
  7  4  1  0  0  0  0
  8 17  2  0  0  0  0
  8  3  1  0  0  0  0
  9  1  1  0  0  0  0
 10  8  1  0  0  0  0
 11  3  1  0  0  0  0
 11  7  2  0  0  0  0
 12 15  2  0  0  0  0
 13 18  1  0  0  0  0
 14 11  1  0  0  0  0
 17 15  1  0  0  0  0
 18 12  1  0  0  0  0
 19 14  1  0  0  0  0
 20 23  1  0  0  0  0
 21 23  1  0  0  0  0
 21 19  1  0  0  0  0
 22 21  1  0  0  0  0
 24 22  1  0  0  0  0
 25 24  1  0  0  0  0
 25 20  1  0  0  0  0
M  END
>  <MODEL>
9

>  <REMARK>
 VINA RESULT:      -7.0      2.851      4.286
  Name = 
  2 active torsions:
  status: ('A' for Active; 'I' for Inactive)
    1  A    between atoms: C_2  and  C_11
    2  A    between atoms: C_11  and  N_21
                            x       y       z     vdW  Elec       q    Type
                         _______ _______ _______ _____ _____    ______ ____

>  <TORSDO>
F 2

$$$$
