=
 OpenBabel11032420163D

 28 31  0  0  1  0  0  0  0  0999 V2000
  189.7460  176.3740  139.5500 N   0  0  0  0  0  0  0  0  0  0  0  0
  189.4170  178.5510  137.5130 C   0  0  0  0  0  3  0  0  0  0  0  0
  188.3960  178.4070  139.8180 C   0  0  0  0  0  0  0  0  0  0  0  0
  190.0950  174.6590  137.5690 Cl  0  0  0  0  0  0  0  0  0  0  0  0
  188.5060  178.9630  138.5980 C   0  0  0  0  0  3  0  0  0  0  0  0
  189.3160  177.3450  140.3040 C   0  0  0  0  0  0  0  0  0  0  0  0
  189.3690  176.1700  138.1600 C   0  0  2  0  0  3  0  0  0  0  0  0
  189.8410  177.3050  137.3190 C   0  0  0  0  0  3  0  0  0  0  0  0
  188.3390  177.1490  143.6240 C   0  0  0  0  0  2  0  0  0  0  0  0
  188.9230  176.4210  142.5080 N   0  0  0  0  0  2  0  0  0  0  0  0
  191.2090  177.0680  141.8940 C   0  0  0  0  0  2  0  0  0  0  0  0
  191.7090  177.4470  143.2810 C   0  0  0  0  0  2  0  0  0  0  0  0
  190.4000  177.2400  145.0660 C   0  0  1  0  0  3  0  0  0  0  0  0
  191.2570  176.5200  144.2250 O   0  0  0  0  0  0  0  0  0  0  0  0
  188.9760  176.7100  144.9360 C   0  0  0  0  0  2  0  0  0  0  0  0
  189.7210  177.3720  141.7460 C   0  0  1  0  0  3  0  0  0  0  0  0
  190.8490  177.1500  146.4980 C   0  0  0  0  0  0  0  0  0  0  0  0
  189.8990  177.3770  147.6290 C   0  0  0  0  0  1  0  0  0  0  0  0
  192.0110  176.8730  146.7460 O   0  0  0  0  0  0  0  0  0  0  0  0
  187.4690  178.9560  140.7680 N   0  0  0  0  0  2  0  0  0  0  0  0
  185.4610  178.2140  142.1600 C   0  0  0  0  0  3  0  0  0  0  0  0
  183.5880  179.7890  139.0500 C   0  0  0  0  0  3  0  0  0  0  0  0
  183.9500  178.5120  140.6770 N   0  0  0  0  0  0  0  0  0  0  0  0
  184.1120  178.2250  141.9540 N   0  0  0  0  0  2  0  0  0  0  0  0
  185.0760  178.7600  140.0800 C   0  0  0  0  0  0  0  0  0  0  0  0
  186.1040  178.5650  140.9600 C   0  0  0  0  0  0  0  0  0  0  0  0
  184.9420  179.5860  139.0320 N   0  0  0  0  0  0  0  0  0  0  0  0
  182.9720  179.1730  140.1000 N   0  0  0  0  0  0  0  0  0  0  0  0
  1  6  2  0  0  0  0
  2  5  1  0  0  0  0
  3  6  1  0  0  0  0
  3 20  1  0  0  0  0
  5  3  2  0  0  0  0
  7  4  1  6  0  0  0
  7  1  1  0  0  0  0
  8  2  2  0  0  0  0
  8  7  1  0  0  0  0
  9 15  1  0  0  0  0
 10  9  1  0  0  0  0
 11 12  1  0  0  0  0
 12 14  1  0  0  0  0
 13 17  1  1  0  0  0
 14 13  1  0  0  0  0
 15 13  1  0  0  0  0
 16  6  1  6  0  0  0
 16 11  1  0  0  0  0
 16 10  1  0  0  0  0
 17 19  2  0  0  0  0
 17 18  1  0  0  0  0
 20 26  1  0  0  0  0
 22 28  2  0  0  0  0
 23 24  1  0  0  0  0
 24 21  1  0  0  0  0
 25 23  1  0  0  0  0
 25 26  1  0  0  0  0
 26 21  2  0  0  0  0
 27 22  1  0  0  0  0
 27 25  2  0  0  0  0
 28 23  1  0  0  0  0
M  END
>  <MODEL>
1

>  <REMARK>
 VINA RESULT:      -7.8      0.000      0.000
  Name = 
  4 active torsions:
  status: ('A' for Active; 'I' for Inactive)
    1  A    between atoms: C_4  and  C_21
    2  A    between atoms: N_9  and  C_10
    3  A    between atoms: N_9  and  C_19
    4  A    between atoms: C_20  and  C_28
                            x       y       z     vdW  Elec       q    Type
                         _______ _______ _______ _____ _____    ______ ____

>  <TORSDO>
F 4

$$$$
=
 OpenBabel11032420163D

 28 31  0  0  1  0  0  0  0  0999 V2000
  190.4500  176.6870  140.7080 N   0  0  0  0  0  0  0  0  0  0  0  0
  188.8150  178.7320  139.2430 C   0  0  0  0  0  3  0  0  0  0  0  0
  188.2490  177.5340  141.3930 C   0  0  0  0  0  0  0  0  0  0  0  0
  191.4820  175.9450  138.3900 Cl  0  0  0  0  0  0  0  0  0  0  0  0
  187.9300  178.3210  140.3500 C   0  0  0  0  0  3  0  0  0  0  0  0
  189.6370  177.0650  141.6520 C   0  0  0  0  0  0  0  0  0  0  0  0
  190.1160  176.6350  139.2920 C   0  0  2  0  0  3  0  0  0  0  0  0
  189.8230  178.0010  138.7750 C   0  0  0  0  0  3  0  0  0  0  0  0
  191.3170  175.2530  144.0820 C   0  0  0  0  0  2  0  0  0  0  0  0
  191.4100  176.3590  143.1420 N   0  0  0  0  0  2  0  0  0  0  0  0
  190.1140  178.3600  143.7210 C   0  0  0  0  0  2  0  0  0  0  0  0
  190.2150  178.2550  145.2360 C   0  0  0  0  0  2  0  0  0  0  0  0
  191.3720  176.6180  146.1960 C   0  0  1  0  0  3  0  0  0  0  0  0
  191.5100  177.8810  145.6080 O   0  0  0  0  0  0  0  0  0  0  0  0
  192.0930  175.5700  145.3540 C   0  0  0  0  0  2  0  0  0  0  0  0
  190.0930  176.9780  143.0760 C   0  0  1  0  0  3  0  0  0  0  0  0
  191.9200  176.6120  147.5960 C   0  0  0  0  0  0  0  0  0  0  0  0
  192.8190  175.5200  148.0770 C   0  0  0  0  0  1  0  0  0  0  0  0
  191.6390  177.5260  148.3540 O   0  0  0  0  0  0  0  0  0  0  0  0
  187.2640  177.2560  142.4000 N   0  0  0  0  0  2  0  0  0  0  0  0
  185.2390  178.8100  142.4360 C   0  0  0  0  0  3  0  0  0  0  0  0
  185.6290  178.1120  146.3120 C   0  0  0  0  0  3  0  0  0  0  0  0
  185.1670  179.1500  144.5460 N   0  0  0  0  0  0  0  0  0  0  0  0
  184.4930  179.3690  143.4330 N   0  0  0  0  0  2  0  0  0  0  0  0
  186.2320  178.4330  144.3450 C   0  0  0  0  0  0  0  0  0  0  0  0
  186.3660  178.1930  143.0060 C   0  0  0  0  0  0  0  0  0  0  0  0
  186.5930  177.7200  145.4210 N   0  0  0  0  0  0  0  0  0  0  0  0
  184.7080  178.9540  145.7610 N   0  0  0  0  0  0  0  0  0  0  0  0
  1  6  2  0  0  0  0
  2  5  1  0  0  0  0
  3  6  1  0  0  0  0
  3 20  1  0  0  0  0
  5  3  2  0  0  0  0
  7  4  1  6  0  0  0
  7  1  1  0  0  0  0
  8  2  2  0  0  0  0
  8  7  1  0  0  0  0
  9 15  1  0  0  0  0
 10  9  1  0  0  0  0
 11 12  1  0  0  0  0
 12 14  1  0  0  0  0
 13 17  1  1  0  0  0
 14 13  1  0  0  0  0
 15 13  1  0  0  0  0
 16  6  1  6  0  0  0
 16 10  1  0  0  0  0
 16 11  1  0  0  0  0
 17 18  1  0  0  0  0
 17 19  2  0  0  0  0
 20 26  1  0  0  0  0
 21 26  2  0  0  0  0
 21 24  1  0  0  0  0
 23 28  1  0  0  0  0
 24 23  1  0  0  0  0
 25 23  1  0  0  0  0
 25 27  2  0  0  0  0
 26 25  1  0  0  0  0
 27 22  1  0  0  0  0
 28 22  2  0  0  0  0
M  END
>  <MODEL>
2

>  <REMARK>
 VINA RESULT:      -7.8      2.112      3.194
  Name = 
  4 active torsions:
  status: ('A' for Active; 'I' for Inactive)
    1  A    between atoms: C_4  and  C_21
    2  A    between atoms: N_9  and  C_10
    3  A    between atoms: N_9  and  C_19
    4  A    between atoms: C_20  and  C_28
                            x       y       z     vdW  Elec       q    Type
                         _______ _______ _______ _____ _____    ______ ____

>  <TORSDO>
F 4

$$$$
=
 OpenBabel11032420163D

 28 31  0  0  1  0  0  0  0  0999 V2000
  190.3480  178.3760  142.9370 N   0  0  0  0  0  0  0  0  0  0  0  0
  189.7750  176.7430  145.3870 C   0  0  0  0  0  3  0  0  0  0  0  0
  188.2200  177.2740  143.4700 C   0  0  0  0  0  0  0  0  0  0  0  0
  192.0870  179.7760  144.3530 Cl  0  0  0  0  0  0  0  0  0  0  0  0
  188.4700  176.7920  144.7000 C   0  0  0  0  0  3  0  0  0  0  0  0
  189.2960  177.7160  142.5440 C   0  0  0  0  0  0  0  0  0  0  0  0
  190.6010  178.8020  144.3050 C   0  0  2  0  0  3  0  0  0  0  0  0
  190.7580  177.6200  145.1980 C   0  0  0  0  0  3  0  0  0  0  0  0
  187.4290  178.1860  139.6620 C   0  0  0  0  0  2  0  0  0  0  0  0
  188.6120  178.6040  140.3980 N   0  0  0  0  0  2  0  0  0  0  0  0
  190.4510  176.9820  140.4680 C   0  0  0  0  0  2  0  0  0  0  0  0
  190.2300  176.3430  139.1030 C   0  0  0  0  0  2  0  0  0  0  0  0
  188.6150  177.0560  137.7520 C   0  0  1  0  0  3  0  0  0  0  0  0
  189.9290  177.3250  138.1550 O   0  0  0  0  0  0  0  0  0  0  0  0
  187.7000  178.2040  138.1640 C   0  0  0  0  0  2  0  0  0  0  0  0
  189.1280  177.4280  141.0840 C   0  0  1  0  0  3  0  0  0  0  0  0
  188.5380  176.8500  136.2650 C   0  0  0  0  0  0  0  0  0  0  0  0
  187.5580  177.6000  135.4240 C   0  0  0  0  0  1  0  0  0  0  0  0
  189.3020  176.0640  135.7280 O   0  0  0  0  0  0  0  0  0  0  0  0
  186.8840  177.2180  142.9430 N   0  0  0  0  0  2  0  0  0  0  0  0
  184.6620  178.3930  142.4920 C   0  0  0  0  0  3  0  0  0  0  0  0
  184.7080  178.5200  146.4470 C   0  0  0  0  0  3  0  0  0  0  0  0
  184.3030  179.1110  144.4740 N   0  0  0  0  0  0  0  0  0  0  0  0
  183.7340  178.9990  143.2890 N   0  0  0  0  0  2  0  0  0  0  0  0
  185.4770  178.5570  144.5130 C   0  0  0  0  0  0  0  0  0  0  0  0
  185.7960  178.0920  143.2670 C   0  0  0  0  0  0  0  0  0  0  0  0
  185.8140  178.1310  145.7390 N   0  0  0  0  0  0  0  0  0  0  0  0
  183.7430  179.0770  145.6610 N   0  0  0  0  0  0  0  0  0  0  0  0
  1  7  1  0  0  0  0
  3  5  2  0  0  0  0
  5  2  1  0  0  0  0
  6  1  2  0  0  0  0
  6  3  1  0  0  0  0
  7  4  1  6  0  0  0
  7  8  1  0  0  0  0
  8  2  2  0  0  0  0
  9 10  1  0  0  0  0
 10 16  1  0  0  0  0
 11 16  1  0  0  0  0
 12 11  1  0  0  0  0
 13 17  1  6  0  0  0
 13 14  1  0  0  0  0
 13 15  1  0  0  0  0
 14 12  1  0  0  0  0
 15  9  1  0  0  0  0
 16  6  1  1  0  0  0
 18 17  1  0  0  0  0
 19 17  2  0  0  0  0
 20 26  1  0  0  0  0
 20  3  1  0  0  0  0
 21 26  2  0  0  0  0
 21 24  1  0  0  0  0
 23 25  1  0  0  0  0
 23 28  1  0  0  0  0
 24 23  1  0  0  0  0
 25 27  2  0  0  0  0
 26 25  1  0  0  0  0
 27 22  1  0  0  0  0
 28 22  2  0  0  0  0
M  END
>  <MODEL>
3

>  <REMARK>
 VINA RESULT:      -7.6      3.259      6.291
  Name = 
  4 active torsions:
  status: ('A' for Active; 'I' for Inactive)
    1  A    between atoms: C_4  and  C_21
    2  A    between atoms: N_9  and  C_10
    3  A    between atoms: N_9  and  C_19
    4  A    between atoms: C_20  and  C_28
                            x       y       z     vdW  Elec       q    Type
                         _______ _______ _______ _____ _____    ______ ____

>  <TORSDO>
F 4

$$$$
=
 OpenBabel11032420163D

 28 31  0  0  1  0  0  0  0  0999 V2000
  185.2250  178.1980  142.5290 N   0  0  0  0  0  0  0  0  0  0  0  0
  184.5800  179.6490  145.0740 C   0  0  0  0  0  3  0  0  0  0  0  0
  186.4370  177.9900  144.6540 C   0  0  0  0  0  0  0  0  0  0  0  0
  182.6620  178.3120  141.8890 Cl  0  0  0  0  0  0  0  0  0  0  0  0
  185.6810  178.7490  145.4680 C   0  0  0  0  0  3  0  0  0  0  0  0
  186.3500  178.0670  143.1720 C   0  0  0  0  0  0  0  0  0  0  0  0
  183.9110  178.2530  143.1520 C   0  0  2  0  0  3  0  0  0  0  0  0
  183.7940  179.4590  144.0180 C   0  0  0  0  0  3  0  0  0  0  0  0
  189.4610  176.5690  142.8660 C   0  0  0  0  0  2  0  0  0  0  0  0
  188.0790  176.5510  142.4120 N   0  0  0  0  0  2  0  0  0  0  0  0
  187.4150  178.4070  140.9510 C   0  0  0  0  0  2  0  0  0  0  0  0
  188.7510  178.6240  140.2530 C   0  0  0  0  0  2  0  0  0  0  0  0
  190.5040  177.3350  140.7080 C   0  0  1  0  0  3  0  0  0  0  0  0
  189.3360  177.3930  139.9390 O   0  0  0  0  0  0  0  0  0  0  0  0
  190.4010  176.2030  141.7250 C   0  0  0  0  0  2  0  0  0  0  0  0
  187.6180  177.9330  142.3860 C   0  0  1  0  0  3  0  0  0  0  0  0
  191.7130  177.1300  139.8380 C   0  0  0  0  0  0  0  0  0  0  0  0
  191.6050  176.4930  138.4910 C   0  0  0  0  0  1  0  0  0  0  0  0
  192.8060  177.5030  140.2320 O   0  0  0  0  0  0  0  0  0  0  0  0
  187.4900  177.1860  145.2080 N   0  0  0  0  0  2  0  0  0  0  0  0
  187.9290  177.5670  147.6950 C   0  0  0  0  0  3  0  0  0  0  0  0
  191.5940  176.6980  146.4830 C   0  0  0  0  0  3  0  0  0  0  0  0
  190.0650  177.5840  147.6170 N   0  0  0  0  0  0  0  0  0  0  0  0
  189.0550  177.5810  148.4650 N   0  0  0  0  0  2  0  0  0  0  0  0
  189.6730  177.4930  146.3820 C   0  0  0  0  0  0  0  0  0  0  0  0
  188.3070  177.5030  146.3430 C   0  0  0  0  0  0  0  0  0  0  0  0
  190.5860  176.9210  145.5840 N   0  0  0  0  0  0  0  0  0  0  0  0
  191.2590  177.0540  147.7570 N   0  0  0  0  0  0  0  0  0  0  0  0
  1  7  1  0  0  0  0
  1  6  2  0  0  0  0
  2  5  1  0  0  0  0
  3 20  1  0  0  0  0
  3  5  2  0  0  0  0
  6  3  1  0  0  0  0
  7  4  1  6  0  0  0
  7  8  1  0  0  0  0
  8  2  2  0  0  0  0
 10  9  1  0  0  0  0
 11 16  1  0  0  0  0
 12 11  1  0  0  0  0
 13 17  1  6  0  0  0
 13 15  1  0  0  0  0
 14 12  1  0  0  0  0
 14 13  1  0  0  0  0
 15  9  1  0  0  0  0
 16 10  1  0  0  0  0
 16  6  1  1  0  0  0
 17 19  2  0  0  0  0
 18 17  1  0  0  0  0
 20 26  1  0  0  0  0
 21 24  1  0  0  0  0
 22 28  2  0  0  0  0
 23 28  1  0  0  0  0
 23 24  1  0  0  0  0
 25 23  1  0  0  0  0
 26 25  1  0  0  0  0
 26 21  2  0  0  0  0
 27 25  2  0  0  0  0
 27 22  1  0  0  0  0
M  END
>  <MODEL>
4

>  <REMARK>
 VINA RESULT:      -7.6      3.395      7.008
  Name = 
  4 active torsions:
  status: ('A' for Active; 'I' for Inactive)
    1  A    between atoms: C_4  and  C_21
    2  A    between atoms: N_9  and  C_10
    3  A    between atoms: N_9  and  C_19
    4  A    between atoms: C_20  and  C_28
                            x       y       z     vdW  Elec       q    Type
                         _______ _______ _______ _____ _____    ______ ____

>  <TORSDO>
F 4

$$$$
=
 OpenBabel11032420163D

 28 31  0  0  1  0  0  0  0  0999 V2000
  190.1430  178.2170  142.7510 N   0  0  0  0  0  0  0  0  0  0  0  0
  188.7660  177.0760  145.1600 C   0  0  0  0  0  3  0  0  0  0  0  0
  187.7220  177.9050  143.0160 C   0  0  0  0  0  0  0  0  0  0  0  0
  192.0550  179.1080  144.3430 Cl  0  0  0  0  0  0  0  0  0  0  0  0
  187.6460  177.4780  144.2890 C   0  0  0  0  0  3  0  0  0  0  0  0
  188.9890  177.8950  142.2380 C   0  0  0  0  0  0  0  0  0  0  0  0
  190.3500  178.6590  144.1220 C   0  0  2  0  0  3  0  0  0  0  0  0
  189.9980  177.5730  145.0790 C   0  0  0  0  0  3  0  0  0  0  0  0
  187.3230  178.2530  139.2200 C   0  0  0  0  0  2  0  0  0  0  0  0
  188.4560  178.6960  140.0160 N   0  0  0  0  0  2  0  0  0  0  0  0
  190.2760  177.0710  140.2760 C   0  0  0  0  0  2  0  0  0  0  0  0
  190.1430  176.3770  138.9280 C   0  0  0  0  0  2  0  0  0  0  0  0
  188.6280  177.0400  137.4430 C   0  0  1  0  0  3  0  0  0  0  0  0
  189.9130  177.3200  137.9210 O   0  0  0  0  0  0  0  0  0  0  0  0
  187.6940  178.2080  137.7440 C   0  0  0  0  0  2  0  0  0  0  0  0
  188.9180  177.5480  140.7830 C   0  0  1  0  0  3  0  0  0  0  0  0
  188.6490  176.7730  135.9630 C   0  0  0  0  0  0  0  0  0  0  0  0
  188.0160  175.5520  135.3820 C   0  0  0  0  0  1  0  0  0  0  0  0
  189.1840  177.5770  135.2170 O   0  0  0  0  0  0  0  0  0  0  0  0
  186.5180  178.2320  142.3030 N   0  0  0  0  0  2  0  0  0  0  0  0
  184.8750  179.2420  143.9760 C   0  0  0  0  0  3  0  0  0  0  0  0
  182.4130  178.4990  140.9680 C   0  0  0  0  0  3  0  0  0  0  0  0
  183.0670  178.7450  142.9480 N   0  0  0  0  0  0  0  0  0  0  0  0
  183.5240  179.4350  143.9760 N   0  0  0  0  0  2  0  0  0  0  0  0
  184.0220  178.2010  142.2550 C   0  0  0  0  0  0  0  0  0  0  0  0
  185.2190  178.4520  142.8660 C   0  0  0  0  0  0  0  0  0  0  0  0
  183.6960  178.0200  140.9670 N   0  0  0  0  0  0  0  0  0  0  0  0
  182.0350  179.0030  142.1780 N   0  0  0  0  0  0  0  0  0  0  0  0
  1  7  1  0  0  0  0
  3  5  2  0  0  0  0
  5  2  1  0  0  0  0
  6  1  2  0  0  0  0
  6  3  1  0  0  0  0
  7  4  1  6  0  0  0
  7  8  1  0  0  0  0
  8  2  2  0  0  0  0
  9 10  1  0  0  0  0
 10 16  1  0  0  0  0
 11 16  1  0  0  0  0
 12 11  1  0  0  0  0
 13 17  1  6  0  0  0
 13 15  1  0  0  0  0
 13 14  1  0  0  0  0
 14 12  1  0  0  0  0
 15  9  1  0  0  0  0
 16  6  1  1  0  0  0
 18 17  1  0  0  0  0
 19 17  2  0  0  0  0
 20 26  1  0  0  0  0
 20  3  1  0  0  0  0
 21 24  1  0  0  0  0
 22 28  2  0  0  0  0
 23 24  1  0  0  0  0
 25 26  1  0  0  0  0
 25 23  1  0  0  0  0
 26 21  2  0  0  0  0
 27 22  1  0  0  0  0
 27 25  2  0  0  0  0
 28 23  1  0  0  0  0
M  END
>  <MODEL>
5

>  <REMARK>
 VINA RESULT:      -7.4      3.087      5.924
  Name = 
  4 active torsions:
  status: ('A' for Active; 'I' for Inactive)
    1  A    between atoms: C_4  and  C_21
    2  A    between atoms: N_9  and  C_10
    3  A    between atoms: N_9  and  C_19
    4  A    between atoms: C_20  and  C_28
                            x       y       z     vdW  Elec       q    Type
                         _______ _______ _______ _____ _____    ______ ____

>  <TORSDO>
F 4

$$$$
=
 OpenBabel11032420163D

 28 31  0  0  1  0  0  0  0  0999 V2000
  188.2180  178.6280  139.5180 N   0  0  0  0  0  0  0  0  0  0  0  0
  190.3650  176.5550  139.8210 C   0  0  0  0  0  3  0  0  0  0  0  0
  189.3360  178.0050  141.6130 C   0  0  0  0  0  0  0  0  0  0  0  0
  189.0660  179.0560  137.0510 Cl  0  0  0  0  0  0  0  0  0  0  0  0
  190.2630  177.1370  141.1730 C   0  0  0  0  0  3  0  0  0  0  0  0
  188.1570  178.4050  140.8000 C   0  0  0  0  0  0  0  0  0  0  0  0
  189.4300  178.5550  138.7170 C   0  0  2  0  0  3  0  0  0  0  0  0
  189.9670  177.1650  138.7070 C   0  0  0  0  0  3  0  0  0  0  0  0
  184.8360  179.3760  140.5960 C   0  0  0  0  0  2  0  0  0  0  0  0
  185.7460  178.2430  140.6330 N   0  0  0  0  0  2  0  0  0  0  0  0
  186.8080  177.8000  142.8000 C   0  0  0  0  0  2  0  0  0  0  0  0
  185.6730  178.2690  143.6990 C   0  0  0  0  0  2  0  0  0  0  0  0
  183.7580  179.0020  142.8390 C   0  0  1  0  0  3  0  0  0  0  0  0
  184.4450  177.8340  143.1910 O   0  0  0  0  0  0  0  0  0  0  0  0
  183.5440  179.0450  141.3300 C   0  0  0  0  0  2  0  0  0  0  0  0
  186.8520  178.6090  141.5070 C   0  0  1  0  0  3  0  0  0  0  0  0
  182.4340  179.0820  143.5450 C   0  0  0  0  0  0  0  0  0  0  0  0
  181.1700  179.3650  142.8010 C   0  0  0  0  0  1  0  0  0  0  0  0
  182.3850  178.8990  144.7500 O   0  0  0  0  0  0  0  0  0  0  0  0
  189.3710  178.4510  142.9780 N   0  0  0  0  0  2  0  0  0  0  0  0
  191.4670  177.9470  144.3480 C   0  0  0  0  0  3  0  0  0  0  0  0
  188.6900  177.3200  147.0970 C   0  0  0  0  0  3  0  0  0  0  0  0
  190.5030  177.1030  146.0590 N   0  0  0  0  0  0  0  0  0  0  0  0
  191.6810  177.5030  145.6210 N   0  0  0  0  0  2  0  0  0  0  0  0
  189.5530  177.3300  145.2030 C   0  0  0  0  0  0  0  0  0  0  0  0
  190.0940  177.8510  144.0600 C   0  0  0  0  0  0  0  0  0  0  0  0
  188.3550  177.4990  145.7810 N   0  0  0  0  0  0  0  0  0  0  0  0
  190.0280  177.1300  147.2840 N   0  0  0  0  0  0  0  0  0  0  0  0
  1  6  2  0  0  0  0
  2  5  1  0  0  0  0
  3 20  1  0  0  0  0
  5  3  2  0  0  0  0
  6  3  1  0  0  0  0
  7  4  1  6  0  0  0
  7  1  1  0  0  0  0
  8  7  1  0  0  0  0
  8  2  2  0  0  0  0
  9 10  1  0  0  0  0
  9 15  1  0  0  0  0
 10 16  1  0  0  0  0
 11 12  1  0  0  0  0
 13 14  1  0  0  0  0
 13 17  1  1  0  0  0
 14 12  1  0  0  0  0
 15 13  1  0  0  0  0
 16  6  1  6  0  0  0
 16 11  1  0  0  0  0
 17 19  2  0  0  0  0
 18 17  1  0  0  0  0
 20 26  1  0  0  0  0
 21 24  1  0  0  0  0
 22 28  2  0  0  0  0
 23 28  1  0  0  0  0
 24 23  1  0  0  0  0
 25 27  2  0  0  0  0
 25 23  1  0  0  0  0
 26 21  2  0  0  0  0
 26 25  1  0  0  0  0
 27 22  1  0  0  0  0
M  END
>  <MODEL>
6

>  <REMARK>
 VINA RESULT:      -7.3      3.240      6.402
  Name = 
  4 active torsions:
  status: ('A' for Active; 'I' for Inactive)
    1  A    between atoms: C_4  and  C_21
    2  A    between atoms: N_9  and  C_10
    3  A    between atoms: N_9  and  C_19
    4  A    between atoms: C_20  and  C_28
                            x       y       z     vdW  Elec       q    Type
                         _______ _______ _______ _____ _____    ______ ____

>  <TORSDO>
F 4

$$$$
=
 OpenBabel11032420163D

 28 31  0  0  1  0  0  0  0  0999 V2000
  183.3880  178.7290  143.2740 N   0  0  0  0  0  0  0  0  0  0  0  0
  183.1590  177.5880  140.5090 C   0  0  0  0  0  3  0  0  0  0  0  0
  185.1460  178.7390  141.5600 C   0  0  0  0  0  0  0  0  0  0  0  0
  180.7870  179.2000  143.2270 Cl  0  0  0  0  0  0  0  0  0  0  0  0
  184.4930  178.2190  140.5050 C   0  0  0  0  0  3  0  0  0  0  0  0
  184.6460  178.6190  142.9550 C   0  0  0  0  0  0  0  0  0  0  0  0
  182.3140  179.0160  142.3360 C   0  0  2  0  0  3  0  0  0  0  0  0
  182.1760  177.9120  141.3460 C   0  0  0  0  0  3  0  0  0  0  0  0
  185.6640  179.3760  146.1810 C   0  0  0  0  0  2  0  0  0  0  0  0
  184.9880  178.3980  145.3420 N   0  0  0  0  0  2  0  0  0  0  0  0
  186.4290  177.1190  143.8240 C   0  0  0  0  0  2  0  0  0  0  0  0
  187.6790  177.0760  144.6930 C   0  0  0  0  0  2  0  0  0  0  0  0
  187.6970  177.9930  146.7180 C   0  0  1  0  0  3  0  0  0  0  0  0
  187.3300  176.8330  146.0250 O   0  0  0  0  0  0  0  0  0  0  0  0
  186.4550  178.6780  147.2790 C   0  0  0  0  0  2  0  0  0  0  0  0
  185.6520  178.4130  144.0460 C   0  0  1  0  0  3  0  0  0  0  0  0
  188.6520  177.6740  147.8350 C   0  0  0  0  0  0  0  0  0  0  0  0
  190.0150  177.1260  147.5630 C   0  0  0  0  0  1  0  0  0  0  0  0
  188.3150  177.8800  148.9890 O   0  0  0  0  0  0  0  0  0  0  0  0
  186.4590  179.2930  141.3790 N   0  0  0  0  0  2  0  0  0  0  0  0
  188.5720  177.8670  141.5150 C   0  0  0  0  0  3  0  0  0  0  0  0
  187.6170  177.3080  137.7160 C   0  0  0  0  0  3  0  0  0  0  0  0
  188.8240  177.5160  139.4210 N   0  0  0  0  0  0  0  0  0  0  0  0
  189.2940  177.1560  140.6000 N   0  0  0  0  0  2  0  0  0  0  0  0
  187.8170  178.3300  139.5180 C   0  0  0  0  0  0  0  0  0  0  0  0
  187.6060  178.6280  140.8360 C   0  0  0  0  0  0  0  0  0  0  0  0
  186.9790  178.2530  138.4740 N   0  0  0  0  0  0  0  0  0  0  0  0
  188.7310  176.8040  138.3210 N   0  0  0  0  0  0  0  0  0  0  0  0
  2  8  2  0  0  0  0
  3  6  1  0  0  0  0
  5  2  1  0  0  0  0
  5  3  2  0  0  0  0
  6  1  2  0  0  0  0
  7  4  1  1  0  0  0
  7  1  1  0  0  0  0
  8  7  1  0  0  0  0
  9 15  1  0  0  0  0
 10  9  1  0  0  0  0
 11 16  1  0  0  0  0
 11 12  1  0  0  0  0
 12 14  1  0  0  0  0
 13 15  1  0  0  0  0
 13 17  1  1  0  0  0
 14 13  1  0  0  0  0
 16  6  1  6  0  0  0
 16 10  1  0  0  0  0
 17 19  2  0  0  0  0
 18 17  1  0  0  0  0
 20  3  1  0  0  0  0
 22 28  2  0  0  0  0
 22 27  1  0  0  0  0
 23 25  1  0  0  0  0
 23 24  1  0  0  0  0
 24 21  1  0  0  0  0
 25 26  1  0  0  0  0
 26 20  1  0  0  0  0
 26 21  2  0  0  0  0
 27 25  2  0  0  0  0
 28 23  1  0  0  0  0
M  END
>  <MODEL>
7

>  <REMARK>
 VINA RESULT:      -7.3      3.232      5.344
  Name = 
  4 active torsions:
  status: ('A' for Active; 'I' for Inactive)
    1  A    between atoms: C_4  and  C_21
    2  A    between atoms: N_9  and  C_10
    3  A    between atoms: N_9  and  C_19
    4  A    between atoms: C_20  and  C_28
                            x       y       z     vdW  Elec       q    Type
                         _______ _______ _______ _____ _____    ______ ____

>  <TORSDO>
F 4

$$$$
=
 OpenBabel11032420163D

 28 31  0  0  1  0  0  0  0  0999 V2000
  184.2960  178.5700  142.2970 N   0  0  0  0  0  0  0  0  0  0  0  0
  184.7170  179.6990  145.0440 C   0  0  0  0  0  3  0  0  0  0  0  0
  186.1200  177.9840  143.8330 C   0  0  0  0  0  0  0  0  0  0  0  0
  181.6990  178.9530  142.6060 Cl  0  0  0  0  0  0  0  0  0  0  0  0
  185.7740  178.6760  144.9330 C   0  0  0  0  0  3  0  0  0  0  0  0
  185.5490  178.2700  142.4900 C   0  0  0  0  0  0  0  0  0  0  0  0
  183.2850  178.6320  143.3410 C   0  0  2  0  0  3  0  0  0  0  0  0
  183.6050  179.7130  144.3140 C   0  0  0  0  0  3  0  0  0  0  0  0
  185.8450  177.8680  139.0600 C   0  0  0  0  0  2  0  0  0  0  0  0
  185.8630  178.8260  140.1540 N   0  0  0  0  0  2  0  0  0  0  0  0
  187.8310  178.7350  141.6170 C   0  0  0  0  0  2  0  0  0  0  0  0
  188.8560  178.3040  140.5770 C   0  0  0  0  0  2  0  0  0  0  0  0
  188.2810  178.0270  138.4480 C   0  0  1  0  0  3  0  0  0  0  0  0
  188.6520  179.0010  139.3820 O   0  0  0  0  0  0  0  0  0  0  0  0
  186.8470  178.2680  137.9860 C   0  0  0  0  0  2  0  0  0  0  0  0
  186.4550  178.1550  141.3030 C   0  0  1  0  0  3  0  0  0  0  0  0
  189.2060  178.0350  137.2630 C   0  0  0  0  0  0  0  0  0  0  0  0
  190.1730  176.9230  137.0200 C   0  0  0  0  0  1  0  0  0  0  0  0
  189.1590  178.9640  136.4730 O   0  0  0  0  0  0  0  0  0  0  0  0
  187.1990  177.0380  143.8980 N   0  0  0  0  0  2  0  0  0  0  0  0
  188.5610  177.2150  146.0510 C   0  0  0  0  0  3  0  0  0  0  0  0
  191.3500  175.8620  143.5910 C   0  0  0  0  0  3  0  0  0  0  0  0
  190.4980  176.9110  145.1990 N   0  0  0  0  0  0  0  0  0  0  0  0
  189.8760  177.0170  146.3570 N   0  0  0  0  0  2  0  0  0  0  0  0
  189.6770  176.9460  144.1930 C   0  0  0  0  0  0  0  0  0  0  0  0
  188.4100  177.1660  144.6550 C   0  0  0  0  0  0  0  0  0  0  0  0
  190.1350  176.2840  143.1200 N   0  0  0  0  0  0  0  0  0  0  0  0
  191.5590  176.1980  144.8970 N   0  0  0  0  0  0  0  0  0  0  0  0
  1  6  2  0  0  0  0
  1  7  1  0  0  0  0
  3 20  1  0  0  0  0
  3  5  2  0  0  0  0
  5  2  1  0  0  0  0
  6  3  1  0  0  0  0
  7  4  1  6  0  0  0
  7  8  1  0  0  0  0
  8  2  2  0  0  0  0
  9 10  1  0  0  0  0
 10 16  1  0  0  0  0
 12 11  1  0  0  0  0
 13 17  1  6  0  0  0
 13 14  1  0  0  0  0
 14 12  1  0  0  0  0
 15 13  1  0  0  0  0
 15  9  1  0  0  0  0
 16 11  1  0  0  0  0
 16  6  1  1  0  0  0
 18 17  1  0  0  0  0
 19 17  2  0  0  0  0
 20 26  1  0  0  0  0
 21 24  1  0  0  0  0
 22 28  2  0  0  0  0
 23 24  1  0  0  0  0
 25 26  1  0  0  0  0
 25 23  1  0  0  0  0
 26 21  2  0  0  0  0
 27 22  1  0  0  0  0
 27 25  2  0  0  0  0
 28 23  1  0  0  0  0
M  END
>  <MODEL>
8

>  <REMARK>
 VINA RESULT:      -7.3      3.421      7.362
  Name = 
  4 active torsions:
  status: ('A' for Active; 'I' for Inactive)
    1  A    between atoms: C_4  and  C_21
    2  A    between atoms: N_9  and  C_10
    3  A    between atoms: N_9  and  C_19
    4  A    between atoms: C_20  and  C_28
                            x       y       z     vdW  Elec       q    Type
                         _______ _______ _______ _____ _____    ______ ____

>  <TORSDO>
F 4

$$$$
=
 OpenBabel11032420163D

 28 31  0  0  1  0  0  0  0  0999 V2000
  188.7690  177.4200  144.8800 N   0  0  0  0  0  0  0  0  0  0  0  0
  191.3390  178.5880  143.8650 C   0  0  0  0  0  3  0  0  0  0  0  0
  189.4520  177.5750  142.5270 C   0  0  0  0  0  0  0  0  0  0  0  0
  190.0250  176.7530  147.1080 Cl  0  0  0  0  0  0  0  0  0  0  0  0
  190.7000  178.0620  142.6430 C   0  0  0  0  0  3  0  0  0  0  0  0
  188.4600  177.6320  143.6330 C   0  0  0  0  0  0  0  0  0  0  0  0
  190.0960  177.0680  145.3600 C   0  0  2  0  0  3  0  0  0  0  0  0
  191.0570  178.1750  145.0980 C   0  0  0  0  0  3  0  0  0  0  0  0
  185.1740  177.8790  144.7090 C   0  0  0  0  0  2  0  0  0  0  0  0
  186.3720  178.6240  144.3560 N   0  0  0  0  0  2  0  0  0  0  0  0
  186.9320  178.6700  141.9670 C   0  0  0  0  0  2  0  0  0  0  0  0
  185.5160  178.6270  141.4100 C   0  0  0  0  0  2  0  0  0  0  0  0
  183.7520  178.6060  142.7640 C   0  0  1  0  0  3  0  0  0  0  0  0
  184.6790  179.4620  142.1570 O   0  0  0  0  0  0  0  0  0  0  0  0
  183.9280  178.6400  144.2790 C   0  0  0  0  0  2  0  0  0  0  0  0
  187.0280  177.8960  143.2790 C   0  0  1  0  0  3  0  0  0  0  0  0
  182.3450  178.9930  142.4050 C   0  0  0  0  0  0  0  0  0  0  0  0
  181.8140  178.8060  141.0210 C   0  0  0  0  0  1  0  0  0  0  0  0
  181.6130  179.4580  143.2640 O   0  0  0  0  0  0  0  0  0  0  0  0
  188.9810  177.1260  141.2460 N   0  0  0  0  0  2  0  0  0  0  0  0
  190.6220  176.3790  139.4380 C   0  0  0  0  0  3  0  0  0  0  0  0
  188.2030  178.6400  137.2700 C   0  0  0  0  0  3  0  0  0  0  0  0
  189.9800  177.7090  137.8920 N   0  0  0  0  0  0  0  0  0  0  0  0
  190.7700  176.6770  138.1140 N   0  0  0  0  0  2  0  0  0  0  0  0
  189.2880  178.0370  138.9410 C   0  0  0  0  0  0  0  0  0  0  0  0
  189.6610  177.2440  139.9900 C   0  0  0  0  0  0  0  0  0  0  0  0
  188.1220  178.6260  138.6380 N   0  0  0  0  0  0  0  0  0  0  0  0
  189.3240  178.0230  136.7980 N   0  0  0  0  0  0  0  0  0  0  0  0
  1  7  1  0  0  0  0
  2  8  2  0  0  0  0
  3  5  2  0  0  0  0
  3  6  1  0  0  0  0
  5  2  1  0  0  0  0
  6  1  2  0  0  0  0
  7  4  1  1  0  0  0
  8  7  1  0  0  0  0
 10  9  1  0  0  0  0
 11 16  1  0  0  0  0
 12 11  1  0  0  0  0
 12 14  1  0  0  0  0
 13 17  1  1  0  0  0
 13 15  1  0  0  0  0
 14 13  1  0  0  0  0
 15  9  1  0  0  0  0
 16  6  1  1  0  0  0
 16 10  1  0  0  0  0
 17 19  2  0  0  0  0
 18 17  1  0  0  0  0
 20  3  1  0  0  0  0
 21 26  2  0  0  0  0
 22 27  1  0  0  0  0
 23 24  1  0  0  0  0
 23 25  1  0  0  0  0
 24 21  1  0  0  0  0
 25 26  1  0  0  0  0
 26 20  1  0  0  0  0
 27 25  2  0  0  0  0
 28 22  2  0  0  0  0
 28 23  1  0  0  0  0
M  END
>  <MODEL>
9

>  <REMARK>
 VINA RESULT:      -7.2      3.539      6.467
  Name = 
  4 active torsions:
  status: ('A' for Active; 'I' for Inactive)
    1  A    between atoms: C_4  and  C_21
    2  A    between atoms: N_9  and  C_10
    3  A    between atoms: N_9  and  C_19
    4  A    between atoms: C_20  and  C_28
                            x       y       z     vdW  Elec       q    Type
                         _______ _______ _______ _____ _____    ______ ____

>  <TORSDO>
F 4

$$$$
