=
 OpenBabel11042411183D

 48 53  0  0  1  0  0  0  0  0999 V2000
  184.3090  178.7050  144.2130 C   0  0  0  0  0  3  0  0  0  0  0  0
  184.9590  178.5790  141.5080 C   0  0  0  0  0  0  0  0  0  0  0  0
  188.9340  177.7020  136.9360 O   0  0  0  0  0  0  0  0  0  0  0  0
  185.2740  178.5200  140.1370 C   0  0  0  0  0  0  0  0  0  0  0  0
  188.9460  177.4810  140.6170 N   0  0  0  0  0  0  0  0  0  0  0  0
  186.9190  178.1270  138.2870 N   0  0  0  0  0  0  0  0  0  0  0  0
  183.3770  178.9840  143.2630 N   0  0  0  0  0  0  0  0  0  0  0  0
  189.3330  177.9870  138.2720 C   0  0  2  0  0  0  0  0  0  0  0  0
  186.5900  178.1800  139.7060 C   0  0  0  0  0  0  0  0  0  0  0  0
  185.9350  178.2840  142.4810 C   0  0  0  0  0  0  0  0  0  0  0  0
  184.2650  178.7820  139.2140 O   0  0  0  0  0  1  0  0  0  0  0  0
  189.5140  177.3260  141.9530 C   0  0  2  0  0  3  0  0  0  0  0  0
  183.6710  178.9290  141.9360 C   0  0  0  0  0  3  0  0  0  0  0  0
  189.7430  177.1180  139.4330 C   0  0  0  0  0  2  0  0  0  0  0  0
  187.5520  177.8530  140.7300 C   0  0  0  0  0  0  0  0  0  0  0  0
  187.8290  175.7820  137.8870 C   0  0  0  0  0  1  0  0  0  0  0  0
  187.2140  177.9250  142.0620 C   0  0  0  0  0  0  0  0  0  0  0  0
  185.6060  178.3490  143.8400 C   0  0  0  0  0  3  0  0  0  0  0  0
  188.3700  177.5940  142.9390 C   0  0  0  0  0  2  0  0  0  0  0  0
  188.0440  177.2970  137.9210 C   0  0  2  0  0  0  0  0  0  0  0  0
  189.1950  179.3470  138.5760 O   0  0  0  0  0  1  0  0  0  0  0  0
  190.6330  178.3390  142.1640 C   0  0  0  0  0  2  0  0  0  0  0  0
  191.7360  177.7670  143.0460 C   0  0  0  0  0  2  0  0  0  0  0  0
  191.5000  178.0770  144.5190 C   0  0  0  0  0  2  0  0  0  0  0  0
  191.7210  176.8430  145.3870 C   0  0  2  0  0  3  0  0  0  0  0  0
  191.6940  175.6060  144.4990 C   0  0  0  0  0  1  0  0  0  0  0  0
  190.6470  176.7420  146.4750 C   0  0  1  0  0  3  0  0  0  0  0  0
  191.2320  176.8660  147.7370 O   0  0  0  0  0  1  0  0  0  0  0  0
  189.6020  177.8420  146.3210 C   0  0  0  0  0  2  0  0  0  0  0  0
  188.1920  177.2990  146.5090 C   0  0  0  0  0  2  0  0  0  0  0  0
  188.0230  178.0200  148.9220 N   0  0  0  0  0  1  0  0  0  0  0  0
  187.4870  178.0240  147.6040 C   0  0  0  0  0  0  0  0  0  0  0  0
  186.4310  178.6620  147.3570 O   0  0  0  0  0  0  0  0  0  0  0  0
  186.0800  178.6650  137.2180 C   0  0  0  0  0  2  0  0  0  0  0  0
  185.6340  177.5610  136.2690 C   0  0  0  0  0  2  0  0  0  0  0  0
  184.2120  177.1130  136.5700 C   0  0  0  0  0  2  0  0  0  0  0  0
  184.1690  175.6640  137.0290 C   0  0  0  0  0  2  0  0  0  0  0  0
  183.1520  175.4930  138.1440 C   0  0  0  0  0  2  0  0  0  0  0  0
  180.1220  174.3390  138.8020 C   0  0  0  0  0  2  0  0  0  0  0  0
  181.8040  175.5700  137.5970 N   0  0  0  0  0  0  0  0  0  0  0  0
  181.2650  177.7790  139.2450 O   0  0  0  0  0  0  0  0  0  0  0  0
  180.9080  175.5440  138.6760 N   0  0  0  0  0  0  0  0  0  0  0  0
  181.5650  174.3230  136.8720 C   0  0  0  0  0  2  0  0  0  0  0  0
  179.5350  173.0720  136.8860 O   0  0  0  0  0  1  0  0  0  0  0  0
  180.6430  176.7050  139.4730 C   0  0  0  0  0  0  0  0  0  0  0  0
  180.6110  173.4560  137.6840 C   0  0  2  0  0  3  0  0  0  0  0  0
  179.6970  177.5610  141.5780 C   0  0  0  0  0  1  0  0  0  0  0  0
  179.6940  176.6420  140.4970 O   0  0  0  0  0  0  0  0  0  0  0  0
  2 13  2  0  0  0  0
  2 10  1  0  0  0  0
  3 20  1  0  0  0  0
  3  8  1  0  0  0  0
  4  2  1  0  0  0  0
  5 15  1  0  0  0  0
  5 12  1  0  0  0  0
  6  9  1  0  0  0  0
  7  1  2  0  0  0  0
  8 21  1  1  0  0  0
  8 14  1  0  0  0  0
  9  4  2  0  0  0  0
  9 15  1  0  0  0  0
 10 18  2  0  0  0  0
 11  4  1  0  0  0  0
 12 22  1  1  0  0  0
 12 19  1  0  0  0  0
 13  7  1  0  0  0  0
 14  5  1  0  0  0  0
 15 17  2  0  0  0  0
 17 10  1  0  0  0  0
 17 19  1  0  0  0  0
 18  1  1  0  0  0  0
 20 16  1  1  0  0  0
 20  8  1  0  0  0  0
 20  6  1  0  0  0  0
 22 23  1  0  0  0  0
 23 24  1  0  0  0  0
 24 25  1  0  0  0  0
 25 26  1  6  0  0  0
 25 27  1  0  0  0  0
 27 28  1  1  0  0  0
 29 27  1  0  0  0  0
 29 30  1  0  0  0  0
 30 32  1  0  0  0  0
 32 31  1  0  0  0  0
 33 32  2  0  0  0  0
 34  6  1  0  0  0  0
 35 36  1  0  0  0  0
 35 34  1  0  0  0  0
 36 37  1  0  0  0  0
 37 38  1  0  0  0  0
 40 38  1  0  0  0  0
 40 42  1  0  0  0  0
 41 45  2  0  0  0  0
 42 39  1  0  0  0  0
 42 45  1  0  0  0  0
 43 40  1  0  0  0  0
 43 46  1  0  0  0  0
 45 48  1  0  0  0  0
 46 44  1  6  0  0  0
 46 39  1  0  0  0  0
 48 47  1  0  0  0  0
M  END
>  <MODEL>
1

>  <REMARK>
 VINA RESULT:      -7.3      0.000      0.000
  Name = 
  15 active torsions:
  status: ('A' for Active; 'I' for Inactive)
    1  A    between atoms: C_3  and  C_5
    2  A    between atoms: C_3  and  C_29
    3  A    between atoms: C_4  and  C_9
    4  A    between atoms: C_4  and  N_13
    5  A    between atoms: C_5  and  C_45
    6  A    between atoms: C_6  and  C_20
    7  A    between atoms: C_6  and  C_31
    8  A    between atoms: C_9  and  C_23
    9  A    between atoms: O_14  and  C_43
   10  A    between atoms: N_16  and  C_32
   11  A    between atoms: C_17  and  C_38
   12  A    between atoms: C_20  and  C_29
   13  A    between atoms: C_23  and  C_46
   14  A    between atoms: C_32  and  C_46
   15  A    between atoms: C_38  and  C_45
                            x       y       z     vdW  Elec       q    Type
                         _______ _______ _______ _____ _____    ______ ____

>  <TORSDO>
F 15

$$$$
=
 OpenBabel11042411183D

 48 53  0  0  1  0  0  0  0  0999 V2000
  183.6500  178.7530  143.5640 C   0  0  0  0  0  3  0  0  0  0  0  0
  184.6390  178.5810  140.9670 C   0  0  0  0  0  0  0  0  0  0  0  0
  189.1890  177.7550  136.9560 O   0  0  0  0  0  0  0  0  0  0  0  0
  185.1260  178.4980  139.6480 C   0  0  0  0  0  0  0  0  0  0  0  0
  188.7480  177.6370  140.6160 N   0  0  0  0  0  0  0  0  0  0  0  0
  187.0060  178.1280  138.0320 N   0  0  0  0  0  0  0  0  0  0  0  0
  182.8340  178.9630  142.4970 N   0  0  0  0  0  0  0  0  0  0  0  0
  189.4060  178.0950  138.3220 C   0  0  2  0  0  0  0  0  0  0  0  0
  186.4990  178.2050  139.3960 C   0  0  0  0  0  0  0  0  0  0  0  0
  185.4960  178.3560  142.0630 C   0  0  0  0  0  0  0  0  0  0  0  0
  184.2310  178.6890  138.5990 O   0  0  0  0  0  1  0  0  0  0  0  0
  189.1490  177.5440  142.0160 C   0  0  2  0  0  3  0  0  0  0  0  0
  183.2950  178.8850  141.2190 C   0  0  0  0  0  3  0  0  0  0  0  0
  189.7010  177.2770  139.5520 C   0  0  0  0  0  2  0  0  0  0  0  0
  187.3370  177.9490  140.5420 C   0  0  0  0  0  0  0  0  0  0  0  0
  188.0530  175.8150  137.8250 C   0  0  0  0  0  1  0  0  0  0  0  0
  186.8310  178.0430  141.8180 C   0  0  0  0  0  0  0  0  0  0  0  0
  184.9970  178.4450  143.3670 C   0  0  0  0  0  3  0  0  0  0  0  0
  187.8800  177.7880  142.8430 C   0  0  0  0  0  2  0  0  0  0  0  0
  188.2000  177.3390  137.8360 C   0  0  2  0  0  0  0  0  0  0  0  0
  189.1760  179.4550  138.5620 O   0  0  0  0  0  1  0  0  0  0  0  0
  190.1910  178.6110  142.3310 C   0  0  0  0  0  2  0  0  0  0  0  0
  191.4310  178.0000  142.9730 C   0  0  0  0  0  2  0  0  0  0  0  0
  191.4710  178.2500  144.4750 C   0  0  0  0  0  2  0  0  0  0  0  0
  191.6310  176.9460  145.2490 C   0  0  2  0  0  3  0  0  0  0  0  0
  191.6060  175.7840  144.2660 C   0  0  0  0  0  1  0  0  0  0  0  0
  190.5150  176.7890  146.2890 C   0  0  1  0  0  3  0  0  0  0  0  0
  191.0440  176.8930  147.5760 O   0  0  0  0  0  1  0  0  0  0  0  0
  189.4500  177.8660  146.1190 C   0  0  0  0  0  2  0  0  0  0  0  0
  188.0600  177.3260  146.4250 C   0  0  0  0  0  2  0  0  0  0  0  0
  188.0750  178.0180  148.8530 N   0  0  0  0  0  1  0  0  0  0  0  0
  187.4490  178.0520  147.5740 C   0  0  0  0  0  0  0  0  0  0  0  0
  186.3950  178.7180  147.4090 O   0  0  0  0  0  0  0  0  0  0  0  0
  186.2860  178.5980  136.8500 C   0  0  0  0  0  2  0  0  0  0  0  0
  186.3970  177.5940  135.7100 C   0  0  0  0  0  2  0  0  0  0  0  0
  185.0770  177.4550  134.9650 C   0  0  0  0  0  2  0  0  0  0  0  0
  184.0220  176.7770  135.8240 C   0  0  0  0  0  2  0  0  0  0  0  0
  184.4770  175.3830  136.2170 C   0  0  0  0  0  2  0  0  0  0  0  0
  181.8610  173.5430  137.0660 C   0  0  0  0  0  2  0  0  0  0  0  0
  183.7780  174.9570  137.4220 N   0  0  0  0  0  0  0  0  0  0  0  0
  185.3720  172.6470  137.5280 O   0  0  0  0  0  0  0  0  0  0  0  0
  183.2950  173.6590  137.1950 N   0  0  0  0  0  0  0  0  0  0  0  0
  182.5840  175.7930  137.5400 C   0  0  0  0  0  2  0  0  0  0  0  0
  180.4200  175.0420  138.2040 O   0  0  0  0  0  1  0  0  0  0  0  0
  184.1400  172.5070  137.2880 C   0  0  0  0  0  0  0  0  0  0  0  0
  181.3600  174.9590  137.1790 C   0  0  2  0  0  3  0  0  0  0  0  0
  183.8340  170.4690  135.9410 C   0  0  0  0  0  1  0  0  0  0  0  0
  183.5970  171.2310  137.1140 O   0  0  0  0  0  0  0  0  0  0  0  0
  2 13  2  0  0  0  0
  2 10  1  0  0  0  0
  3 20  1  0  0  0  0
  3  8  1  0  0  0  0
  4  2  1  0  0  0  0
  5 12  1  0  0  0  0
  6  9  1  0  0  0  0
  7  1  2  0  0  0  0
  8 21  1  1  0  0  0
  8 14  1  0  0  0  0
  9  4  2  0  0  0  0
  9 15  1  0  0  0  0
 10 18  2  0  0  0  0
 11  4  1  0  0  0  0
 12 22  1  1  0  0  0
 12 19  1  0  0  0  0
 13  7  1  0  0  0  0
 14  5  1  0  0  0  0
 15  5  1  0  0  0  0
 15 17  2  0  0  0  0
 17 10  1  0  0  0  0
 17 19  1  0  0  0  0
 18  1  1  0  0  0  0
 20 16  1  1  0  0  0
 20  6  1  0  0  0  0
 20  8  1  0  0  0  0
 22 23  1  0  0  0  0
 23 24  1  0  0  0  0
 24 25  1  0  0  0  0
 25 26  1  6  0  0  0
 25 27  1  0  0  0  0
 27 28  1  1  0  0  0
 29 27  1  0  0  0  0
 29 30  1  0  0  0  0
 30 32  1  0  0  0  0
 32 31  1  0  0  0  0
 33 32  2  0  0  0  0
 34  6  1  0  0  0  0
 35 34  1  0  0  0  0
 36 35  1  0  0  0  0
 36 37  1  0  0  0  0
 37 38  1  0  0  0  0
 38 40  1  0  0  0  0
 39 46  1  0  0  0  0
 39 42  1  0  0  0  0
 40 43  1  0  0  0  0
 42 45  1  0  0  0  0
 42 40  1  0  0  0  0
 45 41  2  0  0  0  0
 46 43  1  0  0  0  0
 46 44  1  1  0  0  0
 47 48  1  0  0  0  0
 48 45  1  0  0  0  0
M  END
>  <MODEL>
2

>  <REMARK>
 VINA RESULT:      -7.2      1.551      2.461
  Name = 
  15 active torsions:
  status: ('A' for Active; 'I' for Inactive)
    1  A    between atoms: C_3  and  C_5
    2  A    between atoms: C_3  and  C_29
    3  A    between atoms: C_4  and  C_9
    4  A    between atoms: C_4  and  N_13
    5  A    between atoms: C_5  and  C_45
    6  A    between atoms: C_6  and  C_20
    7  A    between atoms: C_6  and  C_31
    8  A    between atoms: C_9  and  C_23
    9  A    between atoms: O_14  and  C_43
   10  A    between atoms: N_16  and  C_32
   11  A    between atoms: C_17  and  C_38
   12  A    between atoms: C_20  and  C_29
   13  A    between atoms: C_23  and  C_46
   14  A    between atoms: C_32  and  C_46
   15  A    between atoms: C_38  and  C_45
                            x       y       z     vdW  Elec       q    Type
                         _______ _______ _______ _____ _____    ______ ____

>  <TORSDO>
F 15

$$$$
=
 OpenBabel11042411183D

 48 53  0  0  1  0  0  0  0  0999 V2000
  183.0170  178.9470  142.2310 C   0  0  0  0  0  3  0  0  0  0  0  0
  185.6530  178.7280  141.3640 C   0  0  0  0  0  0  0  0  0  0  0  0
  189.8590  177.4000  137.1180 O   0  0  0  0  0  0  0  0  0  0  0  0
  186.9920  178.6200  140.9390 C   0  0  0  0  0  0  0  0  0  0  0  0
  186.1810  177.5560  137.3330 N   0  0  0  0  0  0  0  0  0  0  0  0
  188.6880  178.0960  139.1700 N   0  0  0  0  0  0  0  0  0  0  0  0
  184.0480  179.2100  143.0770 N   0  0  0  0  0  0  0  0  0  0  0  0
  188.5140  176.9380  137.0550 C   0  0  2  0  0  0  0  0  0  0  0  0
  187.3030  178.2160  139.6080 C   0  0  0  0  0  0  0  0  0  0  0  0
  184.5960  178.4560  140.4740 C   0  0  0  0  0  0  0  0  0  0  0  0
  188.0020  178.9390  141.8440 O   0  0  0  0  0  1  0  0  0  0  0  0
  184.8000  177.3790  136.8950 C   0  0  2  0  0  3  0  0  0  0  0  0
  185.3440  179.1090  142.6760 C   0  0  0  0  0  3  0  0  0  0  0  0
  187.2800  177.4510  136.3590 C   0  0  0  0  0  2  0  0  0  0  0  0
  186.1940  177.9780  138.7170 C   0  0  0  0  0  0  0  0  0  0  0  0
  188.8900  179.6080  137.1300 C   0  0  0  0  0  1  0  0  0  0  0  0
  184.8970  178.0870  139.1650 C   0  0  0  0  0  0  0  0  0  0  0  0
  183.2710  178.5650  140.9120 C   0  0  0  0  0  3  0  0  0  0  0  0
  183.9180  177.7500  138.0950 C   0  0  0  0  0  2  0  0  0  0  0  0
  188.9230  178.2080  137.7490 C   0  0  2  0  0  0  0  0  0  0  0  0
  188.2960  175.8550  137.9150 O   0  0  0  0  0  1  0  0  0  0  0  0
  184.5610  175.9260  136.5020 C   0  0  0  0  0  2  0  0  0  0  0  0
  183.8850  175.1530  137.6270 C   0  0  0  0  0  2  0  0  0  0  0  0
  184.2820  173.6820  137.6210 C   0  0  0  0  0  2  0  0  0  0  0  0
  184.2460  173.1050  136.2100 C   0  0  2  0  0  3  0  0  0  0  0  0
  182.8890  172.4550  135.9790 C   0  0  0  0  0  1  0  0  0  0  0  0
  185.3690  172.0810  136.0110 C   0  0  1  0  0  3  0  0  0  0  0  0
  184.8270  170.8310  135.7070 O   0  0  0  0  0  1  0  0  0  0  0  0
  186.2940  172.4930  134.8710 C   0  0  0  0  0  2  0  0  0  0  0  0
  187.2860  173.5570  135.3180 C   0  0  0  0  0  2  0  0  0  0  0  0
  189.5190  172.4690  134.8670 N   0  0  0  0  0  1  0  0  0  0  0  0
  188.5510  172.9340  135.8010 C   0  0  0  0  0  0  0  0  0  0  0  0
  188.7760  172.8440  137.0360 O   0  0  0  0  0  0  0  0  0  0  0  0
  189.8450  178.0910  140.0630 C   0  0  0  0  0  2  0  0  0  0  0  0
  190.2350  176.6680  140.4410 C   0  0  0  0  0  2  0  0  0  0  0  0
  190.3230  176.5010  141.9510 C   0  0  0  0  0  2  0  0  0  0  0  0
  191.2090  177.5670  142.5780 C   0  0  0  0  0  2  0  0  0  0  0  0
  190.6960  177.9330  143.9590 C   0  0  0  0  0  2  0  0  0  0  0  0
  190.1070  177.0410  147.0900 C   0  0  0  0  0  2  0  0  0  0  0  0
  190.4360  176.7220  144.7260 N   0  0  0  0  0  0  0  0  0  0  0  0
  187.6750  177.0890  144.3650 O   0  0  0  0  0  0  0  0  0  0  0  0
  189.5470  177.0580  145.7580 N   0  0  0  0  0  0  0  0  0  0  0  0
  191.6850  176.3660  145.3980 C   0  0  0  0  0  2  0  0  0  0  0  0
  191.8810  175.5670  147.6370 O   0  0  0  0  0  1  0  0  0  0  0  0
  188.1410  177.2070  145.5320 C   0  0  0  0  0  0  0  0  0  0  0  0
  191.5570  176.6920  146.8810 C   0  0  2  0  0  3  0  0  0  0  0  0
  186.1190  178.2680  146.4530 C   0  0  0  0  0  1  0  0  0  0  0  0
  187.2900  177.4810  146.6060 O   0  0  0  0  0  0  0  0  0  0  0  0
  1  7  1  0  0  0  0
  2 13  1  0  0  0  0
  3 20  1  0  0  0  0
  4  2  1  0  0  0  0
  4 11  1  0  0  0  0
  5 15  1  0  0  0  0
  6  9  1  0  0  0  0
  6 34  1  0  0  0  0
  8  3  1  0  0  0  0
  8 20  1  0  0  0  0
  8 21  1  1  0  0  0
  9  4  2  0  0  0  0
 10 18  1  0  0  0  0
 10  2  2  0  0  0  0
 12 22  1  1  0  0  0
 12  5  1  0  0  0  0
 12 19  1  0  0  0  0
 13  7  2  0  0  0  0
 14  8  1  0  0  0  0
 14  5  1  0  0  0  0
 15 17  2  0  0  0  0
 15  9  1  0  0  0  0
 17 10  1  0  0  0  0
 18  1  2  0  0  0  0
 19 17  1  0  0  0  0
 20 16  1  6  0  0  0
 20  6  1  0  0  0  0
 22 23  1  0  0  0  0
 24 23  1  0  0  0  0
 25 26  1  1  0  0  0
 25 24  1  0  0  0  0
 27 28  1  6  0  0  0
 27 25  1  0  0  0  0
 29 30  1  0  0  0  0
 29 27  1  0  0  0  0
 30 32  1  0  0  0  0
 31 32  1  0  0  0  0
 32 33  2  0  0  0  0
 34 35  1  0  0  0  0
 35 36  1  0  0  0  0
 36 37  1  0  0  0  0
 37 38  1  0  0  0  0
 38 40  1  0  0  0  0
 40 43  1  0  0  0  0
 40 42  1  0  0  0  0
 41 45  2  0  0  0  0
 42 39  1  0  0  0  0
 43 46  1  0  0  0  0
 45 42  1  0  0  0  0
 45 48  1  0  0  0  0
 46 39  1  0  0  0  0
 46 44  1  1  0  0  0
 47 48  1  0  0  0  0
M  END
>  <MODEL>
3

>  <REMARK>
 VINA RESULT:      -7.1      2.776      8.908
  Name = 
  15 active torsions:
  status: ('A' for Active; 'I' for Inactive)
    1  A    between atoms: C_3  and  C_5
    2  A    between atoms: C_3  and  C_29
    3  A    between atoms: C_4  and  C_9
    4  A    between atoms: C_4  and  N_13
    5  A    between atoms: C_5  and  C_45
    6  A    between atoms: C_6  and  C_20
    7  A    between atoms: C_6  and  C_31
    8  A    between atoms: C_9  and  C_23
    9  A    between atoms: O_14  and  C_43
   10  A    between atoms: N_16  and  C_32
   11  A    between atoms: C_17  and  C_38
   12  A    between atoms: C_20  and  C_29
   13  A    between atoms: C_23  and  C_46
   14  A    between atoms: C_32  and  C_46
   15  A    between atoms: C_38  and  C_45
                            x       y       z     vdW  Elec       q    Type
                         _______ _______ _______ _____ _____    ______ ____

>  <TORSDO>
F 15

$$$$
=
 OpenBabel11042411183D

 48 53  0  0  1  0  0  0  0  0999 V2000
  190.6630  177.9410  143.2800 C   0  0  0  0  0  3  0  0  0  0  0  0
  190.0700  177.2670  140.6440 C   0  0  0  0  0  0  0  0  0  0  0  0
  186.2730  177.0120  135.8490 O   0  0  0  0  0  0  0  0  0  0  0  0
  189.7840  176.9190  139.3100 C   0  0  0  0  0  0  0  0  0  0  0  0
  186.2260  178.3810  139.2740 N   0  0  0  0  0  0  0  0  0  0  0  0
  188.2140  176.8550  137.3570 N   0  0  0  0  0  0  0  0  0  0  0  0
  191.5770  177.2950  142.5070 N   0  0  0  0  0  0  0  0  0  0  0  0
  185.8270  177.1990  137.1880 C   0  0  2  0  0  0  0  0  0  0  0  0
  188.5150  177.2230  138.7350 C   0  0  0  0  0  0  0  0  0  0  0  0
  189.1140  177.9400  141.4300 C   0  0  0  0  0  0  0  0  0  0  0  0
  190.7760  176.2910  138.5610 O   0  0  0  0  0  1  0  0  0  0  0  0
  185.6560  179.0000  140.4670 C   0  0  2  0  0  3  0  0  0  0  0  0
  191.3100  176.9560  141.2180 C   0  0  0  0  0  3  0  0  0  0  0  0
  185.4880  178.4230  138.0000 C   0  0  0  0  0  2  0  0  0  0  0  0
  187.5740  177.9410  139.5600 C   0  0  0  0  0  0  0  0  0  0  0  0
  187.5480  179.0270  136.2040 C   0  0  0  0  0  1  0  0  0  0  0  0
  187.8840  178.2610  140.8620 C   0  0  0  0  0  0  0  0  0  0  0  0
  189.4140  178.2760  142.7550 C   0  0  0  0  0  3  0  0  0  0  0  0
  186.7530  178.9540  141.5390 C   0  0  0  0  0  2  0  0  0  0  0  0
  187.1830  177.6250  136.6990 C   0  0  2  0  0  0  0  0  0  0  0  0
  185.8240  175.9980  137.9080 O   0  0  0  0  0  1  0  0  0  0  0  0
  184.4390  178.2100  140.9320 C   0  0  0  0  0  2  0  0  0  0  0  0
  183.9830  178.6600  142.3140 C   0  0  0  0  0  2  0  0  0  0  0  0
  184.7810  177.9820  143.4210 C   0  0  0  0  0  2  0  0  0  0  0  0
  184.2910  178.4120  144.7990 C   0  0  2  0  0  3  0  0  0  0  0  0
  183.1190  179.3690  144.6280 C   0  0  0  0  0  1  0  0  0  0  0  0
  185.4170  179.0850  145.5930 C   0  0  1  0  0  3  0  0  0  0  0  0
  185.0920  179.1170  146.9500 O   0  0  0  0  0  1  0  0  0  0  0  0
  186.7310  178.3280  145.4320 C   0  0  0  0  0  2  0  0  0  0  0  0
  187.0050  177.4310  146.6300 C   0  0  0  0  0  2  0  0  0  0  0  0
  189.5260  177.3020  146.6440 N   0  0  0  0  0  1  0  0  0  0  0  0
  188.3210  177.7580  147.2490 C   0  0  0  0  0  0  0  0  0  0  0  0
  188.3690  178.4620  148.2910 O   0  0  0  0  0  0  0  0  0  0  0  0
  189.0120  175.9360  136.5480 C   0  0  0  0  0  2  0  0  0  0  0  0
  188.4480  174.5230  136.6160 C   0  0  0  0  0  2  0  0  0  0  0  0
  189.5570  173.4820  136.5540 C   0  0  0  0  0  2  0  0  0  0  0  0
  190.8120  174.0430  135.9050 C   0  0  0  0  0  2  0  0  0  0  0  0
  192.0070  173.1600  136.2170 C   0  0  0  0  0  2  0  0  0  0  0  0
  194.6470  174.8010  137.3500 C   0  0  0  0  0  2  0  0  0  0  0  0
  193.2230  173.7760  135.7010 N   0  0  0  0  0  0  0  0  0  0  0  0
  194.6110  171.3680  136.1050 O   0  0  0  0  0  0  0  0  0  0  0  0
  194.2270  173.6010  136.6650 N   0  0  0  0  0  0  0  0  0  0  0  0
  192.9850  175.2180  135.6560 C   0  0  0  0  0  2  0  0  0  0  0  0
  194.5540  176.9070  136.2650 O   0  0  0  0  0  1  0  0  0  0  0  0
  194.9290  172.3610  136.8160 C   0  0  0  0  0  0  0  0  0  0  0  0
  193.7640  175.8820  136.7830 C   0  0  2  0  0  3  0  0  0  0  0  0
  197.3230  172.1620  137.3520 C   0  0  0  0  0  1  0  0  0  0  0  0
  195.9640  172.2580  137.7490 O   0  0  0  0  0  0  0  0  0  0  0  0
  2 13  2  0  0  0  0
  2 10  1  0  0  0  0
  3 20  1  0  0  0  0
  3  8  1  0  0  0  0
  4  2  1  0  0  0  0
  5 15  1  0  0  0  0
  5 12  1  0  0  0  0
  6  9  1  0  0  0  0
  7  1  2  0  0  0  0
  8 21  1  1  0  0  0
  8 14  1  0  0  0  0
  9  4  2  0  0  0  0
  9 15  1  0  0  0  0
 10 18  2  0  0  0  0
 11  4  1  0  0  0  0
 12 22  1  1  0  0  0
 12 19  1  0  0  0  0
 13  7  1  0  0  0  0
 14  5  1  0  0  0  0
 15 17  2  0  0  0  0
 17 10  1  0  0  0  0
 17 19  1  0  0  0  0
 18  1  1  0  0  0  0
 20 16  1  6  0  0  0
 20  8  1  0  0  0  0
 20  6  1  0  0  0  0
 22 23  1  0  0  0  0
 23 24  1  0  0  0  0
 24 25  1  0  0  0  0
 25 26  1  6  0  0  0
 25 27  1  0  0  0  0
 27 28  1  1  0  0  0
 29 27  1  0  0  0  0
 29 30  1  0  0  0  0
 30 32  1  0  0  0  0
 31 32  1  0  0  0  0
 32 33  2  0  0  0  0
 34 35  1  0  0  0  0
 34  6  1  0  0  0  0
 36 35  1  0  0  0  0
 37 38  1  0  0  0  0
 37 36  1  0  0  0  0
 40 38  1  0  0  0  0
 40 42  1  0  0  0  0
 41 45  2  0  0  0  0
 42 45  1  0  0  0  0
 42 39  1  0  0  0  0
 43 40  1  0  0  0  0
 43 46  1  0  0  0  0
 45 48  1  0  0  0  0
 46 44  1  6  0  0  0
 46 39  1  0  0  0  0
 47 48  1  0  0  0  0
M  END
>  <MODEL>
4

>  <REMARK>
 VINA RESULT:      -7.0      3.772      8.215
  Name = 
  15 active torsions:
  status: ('A' for Active; 'I' for Inactive)
    1  A    between atoms: C_3  and  C_5
    2  A    between atoms: C_3  and  C_29
    3  A    between atoms: C_4  and  C_9
    4  A    between atoms: C_4  and  N_13
    5  A    between atoms: C_5  and  C_45
    6  A    between atoms: C_6  and  C_20
    7  A    between atoms: C_6  and  C_31
    8  A    between atoms: C_9  and  C_23
    9  A    between atoms: O_14  and  C_43
   10  A    between atoms: N_16  and  C_32
   11  A    between atoms: C_17  and  C_38
   12  A    between atoms: C_20  and  C_29
   13  A    between atoms: C_23  and  C_46
   14  A    between atoms: C_32  and  C_46
   15  A    between atoms: C_38  and  C_45
                            x       y       z     vdW  Elec       q    Type
                         _______ _______ _______ _____ _____    ______ ____

>  <TORSDO>
F 15

$$$$
=
 OpenBabel11042411183D

 48 53  0  0  1  0  0  0  0  0999 V2000
  183.5670  178.7130  143.5480 C   0  0  0  0  0  3  0  0  0  0  0  0
  184.5830  178.5560  140.9610 C   0  0  0  0  0  0  0  0  0  0  0  0
  189.1810  177.7850  136.9930 O   0  0  0  0  0  0  0  0  0  0  0  0
  185.0840  178.4810  139.6460 C   0  0  0  0  0  0  0  0  0  0  0  0
  188.7050  177.6550  140.6480 N   0  0  0  0  0  0  0  0  0  0  0  0
  186.9830  178.1330  138.0480 N   0  0  0  0  0  0  0  0  0  0  0  0
  182.7600  178.9170  142.4730 N   0  0  0  0  0  0  0  0  0  0  0  0
  189.3800  178.1240  138.3610 C   0  0  2  0  0  0  0  0  0  0  0  0
  186.4620  178.2020  139.4070 C   0  0  0  0  0  0  0  0  0  0  0  0
  185.4320  178.3380  142.0640 C   0  0  0  0  0  0  0  0  0  0  0  0
  184.1980  178.6650  138.5890 O   0  0  0  0  0  1  0  0  0  0  0  0
  189.0930  177.5630  142.0520 C   0  0  2  0  0  3  0  0  0  0  0  0
  183.2340  178.8460  141.2000 C   0  0  0  0  0  3  0  0  0  0  0  0
  189.6720  177.3070  139.5930 C   0  0  0  0  0  2  0  0  0  0  0  0
  187.2920  177.9530  140.5610 C   0  0  0  0  0  0  0  0  0  0  0  0
  188.0560  175.8320  137.8480 C   0  0  0  0  0  1  0  0  0  0  0  0
  186.7720  178.0390  141.8320 C   0  0  0  0  0  0  0  0  0  0  0  0
  184.9190  178.4190  143.3640 C   0  0  0  0  0  3  0  0  0  0  0  0
  187.8140  177.7930  142.8670 C   0  0  0  0  0  2  0  0  0  0  0  0
  188.1870  177.3570  137.8630 C   0  0  2  0  0  0  0  0  0  0  0  0
  189.1340  179.4810  138.6010 O   0  0  0  0  0  1  0  0  0  0  0  0
  190.1210  178.6400  142.3790 C   0  0  0  0  0  2  0  0  0  0  0  0
  191.3750  178.0370  143.0010 C   0  0  0  0  0  2  0  0  0  0  0  0
  191.4320  178.2780  144.5040 C   0  0  0  0  0  2  0  0  0  0  0  0
  191.6120  176.9690  145.2670 C   0  0  2  0  0  3  0  0  0  0  0  0
  191.5940  175.8150  144.2750 C   0  0  0  0  0  1  0  0  0  0  0  0
  190.5060  176.7920  146.3130 C   0  0  1  0  0  3  0  0  0  0  0  0
  191.0390  176.9140  147.5980 O   0  0  0  0  0  1  0  0  0  0  0  0
  189.4150  177.8440  146.1440 C   0  0  0  0  0  2  0  0  0  0  0  0
  188.0440  177.2830  146.4940 C   0  0  0  0  0  2  0  0  0  0  0  0
  186.1660  178.7780  147.2760 N   0  0  0  0  0  1  0  0  0  0  0  0
  187.3890  178.1030  147.5520 C   0  0  0  0  0  0  0  0  0  0  0  0
  187.9020  178.1770  148.6990 O   0  0  0  0  0  0  0  0  0  0  0  0
  186.2700  178.5980  136.8600 C   0  0  0  0  0  2  0  0  0  0  0  0
  186.1650  177.4900  135.8200 C   0  0  0  0  0  2  0  0  0  0  0  0
  184.8730  176.7010  135.9820 C   0  0  0  0  0  2  0  0  0  0  0  0
  185.0650  175.2380  135.6190 C   0  0  0  0  0  2  0  0  0  0  0  0
  184.3050  174.3490  136.5870 C   0  0  0  0  0  2  0  0  0  0  0  0
  182.4500  171.6650  137.1340 C   0  0  0  0  0  2  0  0  0  0  0  0
  183.4300  173.4490  135.8480 N   0  0  0  0  0  0  0  0  0  0  0  0
  181.2210  175.0480  136.5160 O   0  0  0  0  0  0  0  0  0  0  0  0
  182.4050  173.0470  136.7170 N   0  0  0  0  0  0  0  0  0  0  0  0
  184.1990  172.2340  135.5770 C   0  0  0  0  0  2  0  0  0  0  0  0
  183.3690  170.0030  135.7160 O   0  0  0  0  0  1  0  0  0  0  0  0
  181.2810  173.8870  137.0060 C   0  0  0  0  0  0  0  0  0  0  0  0
  183.6940  171.1190  136.4840 C   0  0  2  0  0  3  0  0  0  0  0  0
  179.8720  174.0950  139.0140 C   0  0  0  0  0  1  0  0  0  0  0  0
  180.2550  173.4150  137.8290 O   0  0  0  0  0  0  0  0  0  0  0  0
  2 13  2  0  0  0  0
  2 10  1  0  0  0  0
  3 20  1  0  0  0  0
  3  8  1  0  0  0  0
  4  2  1  0  0  0  0
  5 12  1  0  0  0  0
  6  9  1  0  0  0  0
  7  1  2  0  0  0  0
  8 21  1  1  0  0  0
  8 14  1  0  0  0  0
  9  4  2  0  0  0  0
  9 15  1  0  0  0  0
 10 18  2  0  0  0  0
 11  4  1  0  0  0  0
 12 22  1  1  0  0  0
 12 19  1  0  0  0  0
 13  7  1  0  0  0  0
 14  5  1  0  0  0  0
 15  5  1  0  0  0  0
 15 17  2  0  0  0  0
 17 10  1  0  0  0  0
 17 19  1  0  0  0  0
 18  1  1  0  0  0  0
 20 16  1  1  0  0  0
 20  6  1  0  0  0  0
 20  8  1  0  0  0  0
 22 23  1  0  0  0  0
 23 24  1  0  0  0  0
 24 25  1  0  0  0  0
 25 26  1  6  0  0  0
 25 27  1  0  0  0  0
 27 28  1  1  0  0  0
 29 27  1  0  0  0  0
 29 30  1  0  0  0  0
 30 32  1  0  0  0  0
 31 32  1  0  0  0  0
 32 33  2  0  0  0  0
 34  6  1  0  0  0  0
 35 36  1  0  0  0  0
 35 34  1  0  0  0  0
 37 36  1  0  0  0  0
 37 38  1  0  0  0  0
 40 38  1  0  0  0  0
 40 42  1  0  0  0  0
 41 45  2  0  0  0  0
 42 45  1  0  0  0  0
 42 39  1  0  0  0  0
 43 40  1  0  0  0  0
 43 46  1  0  0  0  0
 45 48  1  0  0  0  0
 46 44  1  6  0  0  0
 46 39  1  0  0  0  0
 48 47  1  0  0  0  0
M  END
>  <MODEL>
5

>  <REMARK>
 VINA RESULT:      -7.0      1.527      1.972
  Name = 
  15 active torsions:
  status: ('A' for Active; 'I' for Inactive)
    1  A    between atoms: C_3  and  C_5
    2  A    between atoms: C_3  and  C_29
    3  A    between atoms: C_4  and  C_9
    4  A    between atoms: C_4  and  N_13
    5  A    between atoms: C_5  and  C_45
    6  A    between atoms: C_6  and  C_20
    7  A    between atoms: C_6  and  C_31
    8  A    between atoms: C_9  and  C_23
    9  A    between atoms: O_14  and  C_43
   10  A    between atoms: N_16  and  C_32
   11  A    between atoms: C_17  and  C_38
   12  A    between atoms: C_20  and  C_29
   13  A    between atoms: C_23  and  C_46
   14  A    between atoms: C_32  and  C_46
   15  A    between atoms: C_38  and  C_45
                            x       y       z     vdW  Elec       q    Type
                         _______ _______ _______ _____ _____    ______ ____

>  <TORSDO>
F 15

$$$$
=
 OpenBabel11042411183D

 48 53  0  0  1  0  0  0  0  0999 V2000
  182.9580  178.9280  142.2700 C   0  0  0  0  0  3  0  0  0  0  0  0
  185.6010  178.7330  141.4150 C   0  0  0  0  0  0  0  0  0  0  0  0
  189.8350  177.5030  137.1690 O   0  0  0  0  0  0  0  0  0  0  0  0
  186.9420  178.6380  140.9960 C   0  0  0  0  0  0  0  0  0  0  0  0
  186.1550  177.6450  137.3640 N   0  0  0  0  0  0  0  0  0  0  0  0
  188.6500  178.1540  139.2270 N   0  0  0  0  0  0  0  0  0  0  0  0
  183.9840  179.1760  143.1270 N   0  0  0  0  0  0  0  0  0  0  0  0
  188.4920  177.0390  137.0880 C   0  0  2  0  0  0  0  0  0  0  0  0
  187.2620  178.2620  139.6590 C   0  0  0  0  0  0  0  0  0  0  0  0
  184.5490  178.4770  140.5130 C   0  0  0  0  0  0  0  0  0  0  0  0
  187.9450  178.9400  141.9140 O   0  0  0  0  0  1  0  0  0  0  0  0
  184.7770  177.4740  136.9150 C   0  0  2  0  0  3  0  0  0  0  0  0
  185.2820  179.0870  142.7320 C   0  0  0  0  0  3  0  0  0  0  0  0
  187.2610  177.5630  136.3950 C   0  0  0  0  0  2  0  0  0  0  0  0
  186.1590  178.0390  138.7570 C   0  0  0  0  0  0  0  0  0  0  0  0
  188.8600  179.7070  137.2200 C   0  0  0  0  0  1  0  0  0  0  0  0
  184.8590  178.1350  139.1990 C   0  0  0  0  0  0  0  0  0  0  0  0
  183.2210  178.5740  140.9460 C   0  0  0  0  0  3  0  0  0  0  0  0
  183.8880  177.8180  138.1160 C   0  0  0  0  0  2  0  0  0  0  0  0
  188.8930  178.2950  137.8100 C   0  0  2  0  0  0  0  0  0  0  0  0
  188.2710  175.9380  137.9240 O   0  0  0  0  0  1  0  0  0  0  0  0
  184.5450  176.0280  136.4900 C   0  0  0  0  0  2  0  0  0  0  0  0
  183.9730  175.9520  135.0800 C   0  0  0  0  0  2  0  0  0  0  0  0
  182.4580  175.7910  135.0910 C   0  0  0  0  0  2  0  0  0  0  0  0
  182.0160  174.7890  136.1530 C   0  0  2  0  0  3  0  0  0  0  0  0
  182.2570  173.3800  135.6300 C   0  0  0  0  0  1  0  0  0  0  0  0
  180.5370  174.9840  136.5030 C   0  0  1  0  0  3  0  0  0  0  0  0
  180.0590  173.8690  137.1940 O   0  0  0  0  0  1  0  0  0  0  0  0
  180.3360  176.2140  137.3810 C   0  0  0  0  0  2  0  0  0  0  0  0
  180.8150  175.9650  138.8040 C   0  0  0  0  0  2  0  0  0  0  0  0
  179.6550  176.4070  141.0020 N   0  0  0  0  0  1  0  0  0  0  0  0
  180.1470  176.8950  139.7590 C   0  0  0  0  0  0  0  0  0  0  0  0
  180.0430  178.1170  139.4780 O   0  0  0  0  0  0  0  0  0  0  0  0
  189.8020  178.1330  140.1270 C   0  0  0  0  0  2  0  0  0  0  0  0
  190.1860  176.7040  140.4860 C   0  0  0  0  0  2  0  0  0  0  0  0
  190.3190  176.5290  141.9920 C   0  0  0  0  0  2  0  0  0  0  0  0
  191.1460  177.6440  142.6120 C   0  0  0  0  0  2  0  0  0  0  0  0
  190.6250  177.9790  143.9980 C   0  0  0  0  0  2  0  0  0  0  0  0
  189.9600  177.0390  147.0990 C   0  0  0  0  0  2  0  0  0  0  0  0
  190.3990  176.7510  144.7500 N   0  0  0  0  0  0  0  0  0  0  0  0
  187.6390  176.9760  144.2800 O   0  0  0  0  0  0  0  0  0  0  0  0
  189.4530  177.0350  145.7470 N   0  0  0  0  0  0  0  0  0  0  0  0
  191.6370  176.4580  145.4700 C   0  0  0  0  0  2  0  0  0  0  0  0
  191.7860  175.6580  147.7120 O   0  0  0  0  0  1  0  0  0  0  0  0
  188.0510  177.1120  145.4650 C   0  0  0  0  0  0  0  0  0  0  0  0
  191.4330  176.7690  146.9480 C   0  0  2  0  0  3  0  0  0  0  0  0
  186.2580  178.4420  146.5020 C   0  0  0  0  0  1  0  0  0  0  0  0
  187.1450  177.3340  146.5060 O   0  0  0  0  0  0  0  0  0  0  0  0
  1  7  1  0  0  0  0
  2 13  1  0  0  0  0
  3 20  1  0  0  0  0
  4  2  1  0  0  0  0
  4 11  1  0  0  0  0
  5 15  1  0  0  0  0
  6  9  1  0  0  0  0
  6 34  1  0  0  0  0
  8  3  1  0  0  0  0
  8 20  1  0  0  0  0
  8 21  1  1  0  0  0
  9  4  2  0  0  0  0
 10 18  1  0  0  0  0
 10  2  2  0  0  0  0
 12 22  1  1  0  0  0
 12  5  1  0  0  0  0
 12 19  1  0  0  0  0
 13  7  2  0  0  0  0
 14  8  1  0  0  0  0
 14  5  1  0  0  0  0
 15 17  2  0  0  0  0
 15  9  1  0  0  0  0
 17 10  1  0  0  0  0
 18  1  2  0  0  0  0
 19 17  1  0  0  0  0
 20 16  1  6  0  0  0
 20  6  1  0  0  0  0
 23 24  1  0  0  0  0
 23 22  1  0  0  0  0
 24 25  1  0  0  0  0
 25 26  1  6  0  0  0
 25 27  1  0  0  0  0
 27 28  1  1  0  0  0
 27 29  1  0  0  0  0
 29 30  1  0  0  0  0
 30 32  1  0  0  0  0
 32 31  1  0  0  0  0
 33 32  2  0  0  0  0
 34 35  1  0  0  0  0
 35 36  1  0  0  0  0
 36 37  1  0  0  0  0
 37 38  1  0  0  0  0
 38 40  1  0  0  0  0
 40 43  1  0  0  0  0
 40 42  1  0  0  0  0
 41 45  2  0  0  0  0
 42 39  1  0  0  0  0
 43 46  1  0  0  0  0
 45 42  1  0  0  0  0
 45 48  1  0  0  0  0
 46 39  1  0  0  0  0
 46 44  1  1  0  0  0
 47 48  1  0  0  0  0
M  END
>  <MODEL>
6

>  <REMARK>
 VINA RESULT:      -6.8      1.698      8.875
  Name = 
  15 active torsions:
  status: ('A' for Active; 'I' for Inactive)
    1  A    between atoms: C_3  and  C_5
    2  A    between atoms: C_3  and  C_29
    3  A    between atoms: C_4  and  C_9
    4  A    between atoms: C_4  and  N_13
    5  A    between atoms: C_5  and  C_45
    6  A    between atoms: C_6  and  C_20
    7  A    between atoms: C_6  and  C_31
    8  A    between atoms: C_9  and  C_23
    9  A    between atoms: O_14  and  C_43
   10  A    between atoms: N_16  and  C_32
   11  A    between atoms: C_17  and  C_38
   12  A    between atoms: C_20  and  C_29
   13  A    between atoms: C_23  and  C_46
   14  A    between atoms: C_32  and  C_46
   15  A    between atoms: C_38  and  C_45
                            x       y       z     vdW  Elec       q    Type
                         _______ _______ _______ _____ _____    ______ ____

>  <TORSDO>
F 15

$$$$
=
 OpenBabel11042411183D

 48 53  0  0  1  0  0  0  0  0999 V2000
  191.5540  177.5280  142.4610 C   0  0  0  0  0  3  0  0  0  0  0  0
  189.4420  177.7610  140.6620 C   0  0  0  0  0  0  0  0  0  0  0  0
  186.8610  176.7940  135.1960 O   0  0  0  0  0  0  0  0  0  0  0  0
  188.3660  177.8870  139.7620 C   0  0  0  0  0  0  0  0  0  0  0  0
  189.9920  175.8760  136.9150 N   0  0  0  0  0  0  0  0  0  0  0  0
  187.3260  177.4500  137.5240 N   0  0  0  0  0  0  0  0  0  0  0  0
  190.4280  178.2100  142.8000 N   0  0  0  0  0  0  0  0  0  0  0  0
  188.2640  176.7070  135.4220 C   0  0  2  0  0  0  0  0  0  0  0  0
  188.4360  177.3120  138.4590 C   0  0  0  0  0  0  0  0  0  0  0  0
  190.6000  177.0460  140.2980 C   0  0  0  0  0  0  0  0  0  0  0  0
  187.2270  178.5690  140.1830 O   0  0  0  0  0  1  0  0  0  0  0  0
  191.3380  175.3290  137.0560 C   0  0  2  0  0  3  0  0  0  0  0  0
  189.3830  178.3380  141.9380 C   0  0  0  0  0  3  0  0  0  0  0  0
  189.1890  175.5560  135.7220 C   0  0  0  0  0  2  0  0  0  0  0  0
  189.6240  176.5610  138.1350 C   0  0  0  0  0  0  0  0  0  0  0  0
  186.6840  175.0730  136.8750 C   0  0  0  0  0  1  0  0  0  0  0  0
  190.6590  176.4610  139.0360 C   0  0  0  0  0  0  0  0  0  0  0  0
  191.6610  176.9320  141.2040 C   0  0  0  0  0  3  0  0  0  0  0  0
  191.8000  175.6850  138.4750 C   0  0  0  0  0  2  0  0  0  0  0  0
  187.2340  176.4480  136.4870 C   0  0  2  0  0  0  0  0  0  0  0  0
  188.8580  177.9720  135.4910 O   0  0  0  0  0  1  0  0  0  0  0  0
  192.2680  175.9640  136.0290 C   0  0  0  0  0  2  0  0  0  0  0  0
  193.6600  175.3470  136.0890 C   0  0  0  0  0  2  0  0  0  0  0  0
  193.6070  173.8250  136.0540 C   0  0  0  0  0  2  0  0  0  0  0  0
  194.9030  173.2130  136.5750 C   0  0  2  0  0  3  0  0  0  0  0  0
  194.8890  171.7180  136.2910 C   0  0  0  0  0  1  0  0  0  0  0  0
  195.0610  173.4700  138.0780 C   0  0  1  0  0  3  0  0  0  0  0  0
  195.4380  172.2930  138.7270 O   0  0  0  0  0  1  0  0  0  0  0  0
  196.1240  174.5290  138.3470 C   0  0  0  0  0  2  0  0  0  0  0  0
  196.2520  174.8230  139.8350 C   0  0  0  0  0  2  0  0  0  0  0  0
  198.0760  175.2560  141.5260 N   0  0  0  0  0  1  0  0  0  0  0  0
  197.6360  175.2620  140.1720 C   0  0  0  0  0  0  0  0  0  0  0  0
  198.4250  175.6130  139.2570 O   0  0  0  0  0  0  0  0  0  0  0  0
  186.2090  178.3780  137.6890 C   0  0  0  0  0  2  0  0  0  0  0  0
  184.8870  177.6280  137.7790 C   0  0  0  0  0  2  0  0  0  0  0  0
  183.8750  178.3900  138.6210 C   0  0  0  0  0  2  0  0  0  0  0  0
  182.6890  177.5150  138.9940 C   0  0  0  0  0  2  0  0  0  0  0  0
  182.5430  177.4400  140.5030 C   0  0  0  0  0  2  0  0  0  0  0  0
  181.5820  179.0110  143.2520 C   0  0  0  0  0  2  0  0  0  0  0  0
  182.5720  178.7830  141.0690 N   0  0  0  0  0  0  0  0  0  0  0  0
  185.0190  178.2010  142.3180 O   0  0  0  0  0  0  0  0  0  0  0  0
  182.7340  178.6530  142.4570 N   0  0  0  0  0  0  0  0  0  0  0  0
  181.2360  179.3490  140.8920 C   0  0  0  0  0  2  0  0  0  0  0  0
  180.0550  180.6590  142.4970 O   0  0  0  0  0  1  0  0  0  0  0  0
  184.0080  178.3840  143.0520 C   0  0  0  0  0  0  0  0  0  0  0  0
  180.5270  179.3740  142.2400 C   0  0  2  0  0  3  0  0  0  0  0  0
  185.0640  179.1260  145.1480 C   0  0  0  0  0  1  0  0  0  0  0  0
  184.1270  178.3270  144.4430 O   0  0  0  0  0  0  0  0  0  0  0  0
  1  7  1  0  0  0  0
  2 13  1  0  0  0  0
  3  8  1  0  0  0  0
  3 20  1  0  0  0  0
  4 11  1  0  0  0  0
  4  2  2  0  0  0  0
  5 12  1  0  0  0  0
  5 15  1  0  0  0  0
  6 34  1  0  0  0  0
  6  9  1  0  0  0  0
  8 21  1  1  0  0  0
  8 14  1  0  0  0  0
  8 20  1  0  0  0  0
  9  4  1  0  0  0  0
 10  2  1  0  0  0  0
 10 18  1  0  0  0  0
 12 22  1  6  0  0  0
 12 19  1  0  0  0  0
 13  7  2  0  0  0  0
 14  5  1  0  0  0  0
 15  9  2  0  0  0  0
 15 17  1  0  0  0  0
 17 10  2  0  0  0  0
 18  1  2  0  0  0  0
 19 17  1  0  0  0  0
 20 16  1  1  0  0  0
 20  6  1  0  0  0  0
 22 23  1  0  0  0  0
 24 23  1  0  0  0  0
 24 25  1  0  0  0  0
 25 26  1  1  0  0  0
 25 27  1  0  0  0  0
 27 29  1  0  0  0  0
 27 28  1  1  0  0  0
 29 30  1  0  0  0  0
 30 32  1  0  0  0  0
 32 31  1  0  0  0  0
 33 32  2  0  0  0  0
 34 35  1  0  0  0  0
 35 36  1  0  0  0  0
 36 37  1  0  0  0  0
 37 38  1  0  0  0  0
 38 40  1  0  0  0  0
 40 42  1  0  0  0  0
 41 45  2  0  0  0  0
 42 45  1  0  0  0  0
 42 39  1  0  0  0  0
 43 40  1  0  0  0  0
 43 46  1  0  0  0  0
 45 48  1  0  0  0  0
 46 44  1  1  0  0  0
 46 39  1  0  0  0  0
 48 47  1  0  0  0  0
M  END
>  <MODEL>
7

>  <REMARK>
 VINA RESULT:      -6.7      4.150      6.877
  Name = 
  15 active torsions:
  status: ('A' for Active; 'I' for Inactive)
    1  A    between atoms: C_3  and  C_5
    2  A    between atoms: C_3  and  C_29
    3  A    between atoms: C_4  and  C_9
    4  A    between atoms: C_4  and  N_13
    5  A    between atoms: C_5  and  C_45
    6  A    between atoms: C_6  and  C_20
    7  A    between atoms: C_6  and  C_31
    8  A    between atoms: C_9  and  C_23
    9  A    between atoms: O_14  and  C_43
   10  A    between atoms: N_16  and  C_32
   11  A    between atoms: C_17  and  C_38
   12  A    between atoms: C_20  and  C_29
   13  A    between atoms: C_23  and  C_46
   14  A    between atoms: C_32  and  C_46
   15  A    between atoms: C_38  and  C_45
                            x       y       z     vdW  Elec       q    Type
                         _______ _______ _______ _____ _____    ______ ____

>  <TORSDO>
F 15

$$$$
=
 OpenBabel11042411183D

 48 53  0  0  1  0  0  0  0  0999 V2000
  191.2060  177.6070  142.6620 C   0  0  0  0  0  3  0  0  0  0  0  0
  189.2940  177.7900  140.6470 C   0  0  0  0  0  0  0  0  0  0  0  0
  187.3200  176.7250  134.9510 O   0  0  0  0  0  0  0  0  0  0  0  0
  188.3180  177.8910  139.6360 C   0  0  0  0  0  0  0  0  0  0  0  0
  190.2630  175.8710  137.0040 N   0  0  0  0  0  0  0  0  0  0  0  0
  187.5280  177.4140  137.3060 N   0  0  0  0  0  0  0  0  0  0  0  0
  190.0420  178.2780  142.8710 N   0  0  0  0  0  0  0  0  0  0  0  0
  188.6920  176.6600  135.3260 C   0  0  2  0  0  0  0  0  0  0  0  0
  188.5330  177.3020  138.3560 C   0  0  0  0  0  0  0  0  0  0  0  0
  190.4940  177.0870  140.4170 C   0  0  0  0  0  0  0  0  0  0  0  0
  187.1320  178.5610  139.9260 O   0  0  0  0  0  1  0  0  0  0  0  0
  191.5930  175.3440  137.2930 C   0  0  2  0  0  3  0  0  0  0  0  0
  189.0930  178.3810  141.9020 C   0  0  0  0  0  3  0  0  0  0  0  0
  189.5950  175.5260  135.7370 C   0  0  0  0  0  2  0  0  0  0  0  0
  189.7590  176.5640  138.1690 C   0  0  0  0  0  0  0  0  0  0  0  0
  186.9890  175.0200  136.6240 C   0  0  0  0  0  1  0  0  0  0  0  0
  190.6940  176.4890  139.1760 C   0  0  0  0  0  0  0  0  0  0  0  0
  191.4540  176.9980  141.4310 C   0  0  0  0  0  3  0  0  0  0  0  0
  191.8970  175.7230  138.7480 C   0  0  0  0  0  2  0  0  0  0  0  0
  187.5590  176.3990  136.2790 C   0  0  2  0  0  0  0  0  0  0  0  0
  189.2600  177.9340  135.4400 O   0  0  0  0  0  1  0  0  0  0  0  0
  192.6190  175.9800  136.3630 C   0  0  0  0  0  2  0  0  0  0  0  0
  192.8660  175.1110  135.1360 C   0  0  0  0  0  2  0  0  0  0  0  0
  194.3360  174.7350  134.9960 C   0  0  0  0  0  2  0  0  0  0  0  0
  195.2400  175.7950  135.6160 C   0  0  2  0  0  3  0  0  0  0  0  0
  195.2140  177.0380  134.7380 C   0  0  0  0  0  1  0  0  0  0  0  0
  196.6730  175.2720  135.7600 C   0  0  1  0  0  3  0  0  0  0  0  0
  197.4990  176.2750  136.2720 O   0  0  0  0  0  1  0  0  0  0  0  0
  196.7310  174.0750  136.7020 C   0  0  0  0  0  2  0  0  0  0  0  0
  197.3160  174.4600  138.0540 C   0  0  0  0  0  2  0  0  0  0  0  0
  196.2570  175.2300  140.2120 N   0  0  0  0  0  1  0  0  0  0  0  0
  196.3040  174.3000  139.1360 C   0  0  0  0  0  0  0  0  0  0  0  0
  195.4710  173.3570  139.0830 O   0  0  0  0  0  0  0  0  0  0  0  0
  186.3880  178.3280  137.3410 C   0  0  0  0  0  2  0  0  0  0  0  0
  185.0780  177.5600  137.4560 C   0  0  0  0  0  2  0  0  0  0  0  0
  184.0310  178.3630  138.2150 C   0  0  0  0  0  2  0  0  0  0  0  0
  183.6700  177.7010  139.5350 C   0  0  0  0  0  2  0  0  0  0  0  0
  183.7170  178.7150  140.6640 C   0  0  0  0  0  2  0  0  0  0  0  0
  183.1530  179.4930  143.8300 C   0  0  0  0  0  2  0  0  0  0  0  0
  183.5040  178.0440  141.9390 N   0  0  0  0  0  0  0  0  0  0  0  0
  180.7320  178.0750  141.4910 O   0  0  0  0  0  0  0  0  0  0  0  0
  182.5980  178.8180  142.6790 N   0  0  0  0  0  0  0  0  0  0  0  0
  184.7640  178.1210  142.6780 C   0  0  0  0  0  2  0  0  0  0  0  0
  184.9850  178.5610  145.0110 O   0  0  0  0  0  1  0  0  0  0  0  0
  181.1870  178.7810  142.4330 C   0  0  0  0  0  0  0  0  0  0  0  0
  184.6170  179.1420  143.7990 C   0  0  2  0  0  3  0  0  0  0  0  0
  179.6210  178.9370  144.3260 C   0  0  0  0  0  1  0  0  0  0  0  0
  180.3220  179.5240  143.2400 O   0  0  0  0  0  0  0  0  0  0  0  0
  1  7  1  0  0  0  0
  2 13  1  0  0  0  0
  3  8  1  0  0  0  0
  3 20  1  0  0  0  0
  4 11  1  0  0  0  0
  4  2  2  0  0  0  0
  5 12  1  0  0  0  0
  5 15  1  0  0  0  0
  6 34  1  0  0  0  0
  6  9  1  0  0  0  0
  8 21  1  1  0  0  0
  8 14  1  0  0  0  0
  8 20  1  0  0  0  0
  9  4  1  0  0  0  0
 10  2  1  0  0  0  0
 10 18  1  0  0  0  0
 12 22  1  6  0  0  0
 12 19  1  0  0  0  0
 13  7  2  0  0  0  0
 14  5  1  0  0  0  0
 15  9  2  0  0  0  0
 15 17  1  0  0  0  0
 17 10  2  0  0  0  0
 18  1  2  0  0  0  0
 19 17  1  0  0  0  0
 20 16  1  1  0  0  0
 20  6  1  0  0  0  0
 23 22  1  0  0  0  0
 24 23  1  0  0  0  0
 24 25  1  0  0  0  0
 25 26  1  6  0  0  0
 25 27  1  0  0  0  0
 27 28  1  1  0  0  0
 27 29  1  0  0  0  0
 29 30  1  0  0  0  0
 30 32  1  0  0  0  0
 32 31  1  0  0  0  0
 33 32  2  0  0  0  0
 34 35  1  0  0  0  0
 35 36  1  0  0  0  0
 36 37  1  0  0  0  0
 37 38  1  0  0  0  0
 38 40  1  0  0  0  0
 40 43  1  0  0  0  0
 40 42  1  0  0  0  0
 41 45  2  0  0  0  0
 42 39  1  0  0  0  0
 43 46  1  0  0  0  0
 45 42  1  0  0  0  0
 45 48  1  0  0  0  0
 46 39  1  0  0  0  0
 46 44  1  1  0  0  0
 48 47  1  0  0  0  0
M  END
>  <MODEL>
8

>  <REMARK>
 VINA RESULT:      -6.6      4.063      7.156
  Name = 
  15 active torsions:
  status: ('A' for Active; 'I' for Inactive)
    1  A    between atoms: C_3  and  C_5
    2  A    between atoms: C_3  and  C_29
    3  A    between atoms: C_4  and  C_9
    4  A    between atoms: C_4  and  N_13
    5  A    between atoms: C_5  and  C_45
    6  A    between atoms: C_6  and  C_20
    7  A    between atoms: C_6  and  C_31
    8  A    between atoms: C_9  and  C_23
    9  A    between atoms: O_14  and  C_43
   10  A    between atoms: N_16  and  C_32
   11  A    between atoms: C_17  and  C_38
   12  A    between atoms: C_20  and  C_29
   13  A    between atoms: C_23  and  C_46
   14  A    between atoms: C_32  and  C_46
   15  A    between atoms: C_38  and  C_45
                            x       y       z     vdW  Elec       q    Type
                         _______ _______ _______ _____ _____    ______ ____

>  <TORSDO>
F 15

$$$$
=
 OpenBabel11042411183D

 48 53  0  0  1  0  0  0  0  0999 V2000
  181.7280  178.2440  138.5780 C   0  0  0  0  0  3  0  0  0  0  0  0
  184.4940  178.3040  138.8890 C   0  0  0  0  0  0  0  0  0  0  0  0
  190.1650  176.7830  137.1570 O   0  0  0  0  0  0  0  0  0  0  0  0
  185.8920  178.3410  139.0590 C   0  0  0  0  0  0  0  0  0  0  0  0
  186.7310  176.3210  135.8950 N   0  0  0  0  0  0  0  0  0  0  0  0
  188.2020  177.7250  138.3070 N   0  0  0  0  0  0  0  0  0  0  0  0
  182.2930  178.8830  139.6380 N   0  0  0  0  0  0  0  0  0  0  0  0
  189.0030  176.0840  136.7220 C   0  0  2  0  0  0  0  0  0  0  0  0
  186.7560  177.6940  138.1270 C   0  0  0  0  0  0  0  0  0  0  0  0
  183.9240  177.6420  137.7830 C   0  0  0  0  0  0  0  0  0  0  0  0
  186.4080  179.0420  140.1450 O   0  0  0  0  0  1  0  0  0  0  0  0
  185.6730  175.7990  135.0350 C   0  0  2  0  0  3  0  0  0  0  0  0
  183.6410  178.9250  139.8100 C   0  0  0  0  0  3  0  0  0  0  0  0
  188.1410  176.1860  135.4910 C   0  0  0  0  0  2  0  0  0  0  0  0
  186.1370  177.0550  136.9920 C   0  0  0  0  0  0  0  0  0  0  0  0
  189.1340  178.7180  136.1550 C   0  0  0  0  0  1  0  0  0  0  0  0
  184.7680  177.0320  136.8580 C   0  0  0  0  0  0  0  0  0  0  0  0
  182.5330  177.6120  137.6300 C   0  0  0  0  0  3  0  0  0  0  0  0
  184.3490  176.2800  135.6430 C   0  0  0  0  0  2  0  0  0  0  0  0
  188.9990  177.5350  137.1170 C   0  0  2  0  0  0  0  0  0  0  0  0
  188.5200  175.2160  137.7080 O   0  0  0  0  0  1  0  0  0  0  0  0
  185.7180  174.2750  135.0220 C   0  0  0  0  0  2  0  0  0  0  0  0
  184.3530  173.6790  135.3440 C   0  0  0  0  0  2  0  0  0  0  0  0
  184.3670  172.9160  136.6630 C   0  0  0  0  0  2  0  0  0  0  0  0
  183.1360  172.0260  136.8000 C   0  0  2  0  0  3  0  0  0  0  0  0
  183.4820  170.6280  136.3070 C   0  0  0  0  0  1  0  0  0  0  0  0
  181.9590  172.5980  136.0010 C   0  0  1  0  0  3  0  0  0  0  0  0
  181.4930  171.6470  135.0910 O   0  0  0  0  0  1  0  0  0  0  0  0
  180.8070  172.9870  136.9200 C   0  0  0  0  0  2  0  0  0  0  0  0
  181.1420  174.2290  137.7360 C   0  0  0  0  0  2  0  0  0  0  0  0
  179.6670  173.9330  139.7630 N   0  0  0  0  0  1  0  0  0  0  0  0
  179.9800  174.6450  138.5700 C   0  0  0  0  0  0  0  0  0  0  0  0
  179.2900  175.6430  138.2360 O   0  0  0  0  0  0  0  0  0  0  0  0
  188.8790  178.1410  139.5340 C   0  0  0  0  0  2  0  0  0  0  0  0
  189.3070  176.9330  140.3550 C   0  0  0  0  0  2  0  0  0  0  0  0
  189.4450  177.2870  141.8290 C   0  0  0  0  0  2  0  0  0  0  0  0
  188.1550  177.0220  142.5890 C   0  0  0  0  0  2  0  0  0  0  0  0
  188.4600  176.5690  144.0050 C   0  0  0  0  0  2  0  0  0  0  0  0
  188.4200  177.2610  147.2400 C   0  0  0  0  0  2  0  0  0  0  0  0
  188.5600  177.7290  144.8830 N   0  0  0  0  0  0  0  0  0  0  0  0
  191.3390  177.3620  145.0480 O   0  0  0  0  0  0  0  0  0  0  0  0
  189.2300  177.3220  146.0460 N   0  0  0  0  0  0  0  0  0  0  0  0
  187.2020  178.0520  145.3180 C   0  0  0  0  0  2  0  0  0  0  0  0
  186.5660  178.7120  147.5190 O   0  0  0  0  0  1  0  0  0  0  0  0
  190.6540  177.1750  146.0920 C   0  0  0  0  0  0  0  0  0  0  0  0
  187.0370  177.6340  146.7730 C   0  0  2  0  0  3  0  0  0  0  0  0
  192.2540  175.8000  147.3610 C   0  0  0  0  0  1  0  0  0  0  0  0
  191.2780  176.8290  147.2930 O   0  0  0  0  0  0  0  0  0  0  0  0
  1  7  1  0  0  0  0
  2  4  1  0  0  0  0
  2 13  1  0  0  0  0
  4 11  1  0  0  0  0
  5 15  1  0  0  0  0
  6 34  1  0  0  0  0
  7 13  2  0  0  0  0
  8 20  1  0  0  0  0
  8  3  1  0  0  0  0
  8 21  1  1  0  0  0
  9  6  1  0  0  0  0
  9  4  2  0  0  0  0
 10  2  2  0  0  0  0
 12 22  1  1  0  0  0
 12 19  1  0  0  0  0
 12  5  1  0  0  0  0
 14  5  1  0  0  0  0
 14  8  1  0  0  0  0
 15  9  1  0  0  0  0
 17 15  2  0  0  0  0
 17 10  1  0  0  0  0
 18 10  1  0  0  0  0
 18  1  2  0  0  0  0
 19 17  1  0  0  0  0
 20 16  1  6  0  0  0
 20  3  1  0  0  0  0
 20  6  1  0  0  0  0
 22 23  1  0  0  0  0
 23 24  1  0  0  0  0
 24 25  1  0  0  0  0
 25 26  1  6  0  0  0
 27 28  1  6  0  0  0
 27 25  1  0  0  0  0
 27 29  1  0  0  0  0
 29 30  1  0  0  0  0
 30 32  1  0  0  0  0
 32 31  1  0  0  0  0
 33 32  2  0  0  0  0
 34 35  1  0  0  0  0
 35 36  1  0  0  0  0
 36 37  1  0  0  0  0
 37 38  1  0  0  0  0
 38 40  1  0  0  0  0
 40 43  1  0  0  0  0
 40 42  1  0  0  0  0
 41 45  2  0  0  0  0
 42 45  1  0  0  0  0
 42 39  1  0  0  0  0
 43 46  1  0  0  0  0
 45 48  1  0  0  0  0
 46 39  1  0  0  0  0
 46 44  1  1  0  0  0
 48 47  1  0  0  0  0
M  END
>  <MODEL>
9

>  <REMARK>
 VINA RESULT:      -6.5      2.068      9.229
  Name = 
  15 active torsions:
  status: ('A' for Active; 'I' for Inactive)
    1  A    between atoms: C_3  and  C_5
    2  A    between atoms: C_3  and  C_29
    3  A    between atoms: C_4  and  C_9
    4  A    between atoms: C_4  and  N_13
    5  A    between atoms: C_5  and  C_45
    6  A    between atoms: C_6  and  C_20
    7  A    between atoms: C_6  and  C_31
    8  A    between atoms: C_9  and  C_23
    9  A    between atoms: O_14  and  C_43
   10  A    between atoms: N_16  and  C_32
   11  A    between atoms: C_17  and  C_38
   12  A    between atoms: C_20  and  C_29
   13  A    between atoms: C_23  and  C_46
   14  A    between atoms: C_32  and  C_46
   15  A    between atoms: C_38  and  C_45
                            x       y       z     vdW  Elec       q    Type
                         _______ _______ _______ _____ _____    ______ ____

>  <TORSDO>
F 15

$$$$
