=
 OpenBabel11032421113D

 34 36  0  0  1  0  0  0  0  0999 V2000
  189.9400  177.2900  143.1080 C   0  0  1  0  0  3  0  0  0  0  0  0
  187.5810  177.0350  143.6620 C   0  0  0  0  0  0  0  0  0  0  0  0
  185.8570  179.5070  147.2010 O   0  0  0  0  0  0  0  0  0  0  0  0
  183.2970  178.9790  143.2650 C   0  0  0  0  0  3  0  0  0  0  0  0
  185.6740  178.9040  146.1120 C   0  0  0  0  0  0  0  0  0  0  0  0
  188.6440  176.5400  143.0880 C   0  0  0  0  0  3  0  0  0  0  0  0
  186.5360  177.5390  144.2520 C   0  0  0  0  0  0  0  0  0  0  0  0
  184.3330  178.6260  144.0180 C   0  0  0  0  0  0  0  0  0  0  0  0
  186.5890  177.7830  145.7280 C   0  0  0  0  0  2  0  0  0  0  0  0
  182.4090  180.0180  143.6670 N   0  0  0  0  0  1  0  0  0  0  0  0
  185.2150  177.5060  143.5520 C   0  0  0  0  0  2  0  0  0  0  0  0
  184.5700  179.2660  145.2780 N   0  0  0  0  0  2  0  0  0  0  0  0
  191.5870  176.0450  147.4390 C   0  0  0  0  0  2  0  0  0  0  0  0
  190.5340  177.1380  147.7280 C   0  0  0  0  0  3  0  0  0  0  0  0
  190.9090  176.7130  144.0980 C   0  0  0  0  0  0  0  0  0  0  0  0
  190.0930  177.7230  146.3650 C   0  0  0  0  0  3  0  0  0  0  0  0
  191.7090  175.5770  143.9460 C   0  0  0  0  0  3  0  0  0  0  0  0
  190.9870  177.0100  145.4360 C   0  0  0  0  0  0  0  0  0  0  0  0
  192.2130  175.2370  145.1610 N   0  0  0  0  0  0  0  0  0  0  0  0
  191.7830  176.1450  146.0170 N   0  0  0  0  0  0  0  0  0  0  0  0
  190.5430  177.3920  141.7320 C   0  0  0  0  0  0  0  0  0  0  0  0
  191.7720  177.7680  141.5910 N   0  0  0  0  0  2  0  0  0  0  0  0
  190.1470  177.4840  139.3740 C   0  0  0  0  0  3  0  0  0  0  0  0
  189.7510  177.1580  140.5630 N   0  0  0  0  0  0  0  0  0  0  0  0
  189.2830  177.2210  138.1870 C   0  0  0  0  0  2  0  0  0  0  0  0
  188.6610  178.5080  137.6680 C   0  0  0  0  0  2  0  0  0  0  0  0
  187.2890  178.6270  138.1400 N   0  0  0  0  0  2  0  0  0  0  0  0
  186.3000  177.5180  135.9210 S   0  0  0  0  0  0  0  0  0  0  0  0
  186.1660  178.0360  137.4790 C   0  0  0  0  0  0  0  0  0  0  0  0
  184.2130  178.9010  138.9280 C   0  0  0  0  0  0  0  0  0  0  0  0
  184.9460  177.8910  138.2200 N   0  0  0  0  0  2  0  0  0  0  0  0
  184.6410  180.0810  139.0220 O   0  0  0  0  0  0  0  0  0  0  0  0
  182.9810  177.0820  140.0310 C   0  0  0  0  0  1  0  0  0  0  0  0
  182.9380  178.5350  139.6020 C   0  0  0  0  0  2  0  0  0  0  0  0
  1  6  1  6  0  0  0
  1 15  1  0  0  0  0
  2  7  2  0  0  0  0
  4 10  1  0  0  0  0
  4  8  2  0  0  0  0
  5  3  2  0  0  0  0
  6  2  2  0  0  0  0
  7  9  1  0  0  0  0
  8 12  1  0  0  0  0
  9  5  1  0  0  0  0
 11  8  1  0  0  0  0
 11  7  1  0  0  0  0
 12  5  1  0  0  0  0
 13 14  1  0  0  0  0
 15 18  2  0  0  0  0
 16 14  2  0  0  0  0
 17 15  1  0  0  0  0
 17 19  2  0  0  0  0
 18 20  1  0  0  0  0
 18 16  1  0  0  0  0
 19 20  1  0  0  0  0
 20 13  1  0  0  0  0
 21  1  1  0  0  0  0
 22 21  2  0  0  0  0
 23 24  2  0  0  0  0
 24 21  1  0  0  0  0
 25 23  1  0  0  0  0
 26 27  1  0  0  0  0
 26 25  1  0  0  0  0
 28 29  2  0  0  0  0
 29 27  1  0  0  0  0
 29 31  1  0  0  0  0
 30 32  2  0  0  0  0
 30 34  1  0  0  0  0
 31 30  1  0  0  0  0
 34 33  1  0  0  0  0
M  END
>  <MODEL>
1

>  <REMARK>
 VINA RESULT:      -8.2      0.000      0.000
  Name = 
  10 active torsions:
  status: ('A' for Active; 'I' for Inactive)
    1  A    between atoms: C_4  and  C_11
    2  A    between atoms: C_4  and  C_18
    3  A    between atoms: C_6  and  C_23
    4  A    between atoms: C_13  and  C_23
    5  A    between atoms: C_13  and  N_27
    6  A    between atoms: C_14  and  C_23
    7  A    between atoms: C_17  and  C_30
    8  A    between atoms: C_18  and  N_28
    9  A    between atoms: N_20  and  C_25
   10  A    between atoms: C_25  and  N_28
                            x       y       z     vdW  Elec       q    Type
                         _______ _______ _______ _____ _____    ______ ____

>  <TORSDO>
F 10

$$$$
=
 OpenBabel11032421113D

 34 36  0  0  1  0  0  0  0  0999 V2000
  189.4660  177.8870  140.3220 C   0  0  1  0  0  3  0  0  0  0  0  0
  188.8150  176.9500  142.4760 C   0  0  0  0  0  0  0  0  0  0  0  0
  191.8750  177.1010  145.9720 O   0  0  0  0  0  0  0  0  0  0  0  0
  187.3130  177.9820  146.8310 C   0  0  0  0  0  3  0  0  0  0  0  0
  190.6790  177.0520  145.5820 C   0  0  0  0  0  0  0  0  0  0  0  0
  188.6250  176.9970  141.1860 C   0  0  0  0  0  3  0  0  0  0  0  0
  189.0300  176.9070  143.7590 C   0  0  0  0  0  0  0  0  0  0  0  0
  188.2630  177.5280  146.0210 C   0  0  0  0  0  0  0  0  0  0  0  0
  190.3640  176.4410  144.2520 C   0  0  0  0  0  2  0  0  0  0  0  0
  187.6270  178.5190  148.1130 N   0  0  0  0  0  1  0  0  0  0  0  0
  187.8650  176.9490  144.6960 C   0  0  0  0  0  2  0  0  0  0  0  0
  189.6370  177.5390  146.4300 N   0  0  0  0  0  2  0  0  0  0  0  0
  191.9750  175.3860  137.0860 C   0  0  0  0  0  2  0  0  0  0  0  0
  190.4990  175.1380  136.7030 C   0  0  0  0  0  3  0  0  0  0  0  0
  190.6570  177.1650  139.7630 C   0  0  0  0  0  0  0  0  0  0  0  0
  189.6240  175.7610  137.8170 C   0  0  0  0  0  3  0  0  0  0  0  0
  192.0050  177.5080  139.9020 C   0  0  0  0  0  3  0  0  0  0  0  0
  190.6480  176.2090  138.7780 C   0  0  0  0  0  0  0  0  0  0  0  0
  192.7310  176.7780  139.0170 N   0  0  0  0  0  0  0  0  0  0  0  0
  191.8800  175.9870  138.3900 N   0  0  0  0  0  0  0  0  0  0  0  0
  188.6500  178.5400  139.2390 C   0  0  0  0  0  0  0  0  0  0  0  0
  189.2300  179.2730  138.3450 N   0  0  0  0  0  2  0  0  0  0  0  0
  186.5560  178.0770  138.1760 C   0  0  0  0  0  3  0  0  0  0  0  0
  187.2230  178.4340  139.2280 N   0  0  0  0  0  0  0  0  0  0  0  0
  185.0680  177.9840  138.2160 C   0  0  0  0  0  2  0  0  0  0  0  0
  184.4690  179.1430  138.9970 C   0  0  0  0  0  2  0  0  0  0  0  0
  183.0360  178.9480  139.1630 N   0  0  0  0  0  2  0  0  0  0  0  0
  181.9210  176.5910  139.7420 S   0  0  0  0  0  0  0  0  0  0  0  0
  182.4600  178.0920  140.1540 C   0  0  0  0  0  0  0  0  0  0  0  0
  183.4300  178.5780  142.4970 C   0  0  0  0  0  0  0  0  0  0  0  0
  182.3940  178.5730  141.5050 N   0  0  0  0  0  2  0  0  0  0  0  0
  184.5570  178.0630  142.2730 O   0  0  0  0  0  0  0  0  0  0  0  0
  184.2900  178.8440  144.7840 C   0  0  0  0  0  1  0  0  0  0  0  0
  183.1540  179.1670  143.8340 C   0  0  0  0  0  2  0  0  0  0  0  0
  1  6  1  6  0  0  0
  2  7  2  0  0  0  0
  4 10  1  0  0  0  0
  5  3  2  0  0  0  0
  5 12  1  0  0  0  0
  6  2  2  0  0  0  0
  7  9  1  0  0  0  0
  7 11  1  0  0  0  0
  8 12  1  0  0  0  0
  8  4  2  0  0  0  0
  9  5  1  0  0  0  0
 11  8  1  0  0  0  0
 13 20  1  0  0  0  0
 14 13  1  0  0  0  0
 14 16  2  0  0  0  0
 15 17  1  0  0  0  0
 15  1  1  0  0  0  0
 16 18  1  0  0  0  0
 18 15  2  0  0  0  0
 19 17  2  0  0  0  0
 20 18  1  0  0  0  0
 20 19  1  0  0  0  0
 21  1  1  0  0  0  0
 22 21  2  0  0  0  0
 23 25  1  0  0  0  0
 23 24  2  0  0  0  0
 24 21  1  0  0  0  0
 25 26  1  0  0  0  0
 26 27  1  0  0  0  0
 27 29  1  0  0  0  0
 28 29  2  0  0  0  0
 29 31  1  0  0  0  0
 30 34  1  0  0  0  0
 31 30  1  0  0  0  0
 32 30  2  0  0  0  0
 34 33  1  0  0  0  0
M  END
>  <MODEL>
2

>  <REMARK>
 VINA RESULT:      -7.8      2.448      5.433
  Name = 
  10 active torsions:
  status: ('A' for Active; 'I' for Inactive)
    1  A    between atoms: C_4  and  C_11
    2  A    between atoms: C_4  and  C_18
    3  A    between atoms: C_6  and  C_23
    4  A    between atoms: C_13  and  C_23
    5  A    between atoms: C_13  and  N_27
    6  A    between atoms: C_14  and  C_23
    7  A    between atoms: C_17  and  C_30
    8  A    between atoms: C_18  and  N_28
    9  A    between atoms: N_20  and  C_25
   10  A    between atoms: C_25  and  N_28
                            x       y       z     vdW  Elec       q    Type
                         _______ _______ _______ _____ _____    ______ ____

>  <TORSDO>
F 10

$$$$
=
 OpenBabel11032421113D

 34 36  0  0  1  0  0  0  0  0999 V2000
  189.8410  177.3990  142.8040 C   0  0  1  0  0  3  0  0  0  0  0  0
  187.4840  177.0860  143.3370 C   0  0  0  0  0  0  0  0  0  0  0  0
  185.6980  179.4190  146.9390 O   0  0  0  0  0  0  0  0  0  0  0  0
  183.1680  178.9660  142.9750 C   0  0  0  0  0  3  0  0  0  0  0  0
  185.5310  178.8460  145.8320 C   0  0  0  0  0  0  0  0  0  0  0  0
  188.5580  176.6280  142.7540 C   0  0  0  0  0  3  0  0  0  0  0  0
  186.4270  177.5530  143.9370 C   0  0  0  0  0  0  0  0  0  0  0  0
  184.2070  178.6080  143.7220 C   0  0  0  0  0  0  0  0  0  0  0  0
  186.4680  177.7540  145.4190 C   0  0  0  0  0  2  0  0  0  0  0  0
  182.2600  179.9760  143.4030 N   0  0  0  0  0  1  0  0  0  0  0  0
  185.1100  177.5180  143.2290 C   0  0  0  0  0  2  0  0  0  0  0  0
  184.4260  179.2140  145.0030 N   0  0  0  0  0  2  0  0  0  0  0  0
  191.2630  176.2850  147.2490 C   0  0  0  0  0  2  0  0  0  0  0  0
  190.1450  177.3320  147.4550 C   0  0  0  0  0  3  0  0  0  0  0  0
  190.7690  176.8790  143.8620 C   0  0  0  0  0  0  0  0  0  0  0  0
  189.7660  177.8800  146.0570 C   0  0  0  0  0  3  0  0  0  0  0  0
  191.6270  175.7780  143.7790 C   0  0  0  0  0  3  0  0  0  0  0  0
  190.7490  177.1960  145.1980 C   0  0  0  0  0  0  0  0  0  0  0  0
  192.0670  175.4770  145.0270 N   0  0  0  0  0  0  0  0  0  0  0  0
  191.5440  176.3760  145.8410 N   0  0  0  0  0  0  0  0  0  0  0  0
  190.5070  177.4540  141.4550 C   0  0  0  0  0  0  0  0  0  0  0  0
  191.7780  177.6770  141.3710 N   0  0  0  0  0  2  0  0  0  0  0  0
  189.1520  178.3620  139.7050 C   0  0  0  0  0  3  0  0  0  0  0  0
  189.7410  177.3470  140.2520 N   0  0  0  0  0  0  0  0  0  0  0  0
  188.3630  178.1970  138.4490 C   0  0  0  0  0  2  0  0  0  0  0  0
  188.1490  176.7260  138.1290 C   0  0  0  0  0  2  0  0  0  0  0  0
  188.2850  176.5000  136.6970 N   0  0  0  0  0  2  0  0  0  0  0  0
  189.3400  174.9720  134.7790 S   0  0  0  0  0  0  0  0  0  0  0  0
  189.4630  175.9680  136.0840 C   0  0  0  0  0  0  0  0  0  0  0  0
  191.5300  175.6560  137.5980 C   0  0  0  0  0  0  0  0  0  0  0  0
  190.7360  176.3500  136.6260 N   0  0  0  0  0  2  0  0  0  0  0  0
  191.1190  174.6040  138.1540 O   0  0  0  0  0  0  0  0  0  0  0  0
  193.7500  176.3170  136.7760 C   0  0  0  0  0  1  0  0  0  0  0  0
  192.8500  176.2170  137.9920 C   0  0  0  0  0  2  0  0  0  0  0  0
  1  6  1  6  0  0  0
  1 15  1  0  0  0  0
  2  7  2  0  0  0  0
  4 10  1  0  0  0  0
  4  8  2  0  0  0  0
  5  3  2  0  0  0  0
  6  2  2  0  0  0  0
  7  9  1  0  0  0  0
  8 12  1  0  0  0  0
  9  5  1  0  0  0  0
 11  8  1  0  0  0  0
 11  7  1  0  0  0  0
 12  5  1  0  0  0  0
 13 14  1  0  0  0  0
 15 18  2  0  0  0  0
 16 14  2  0  0  0  0
 17 15  1  0  0  0  0
 17 19  2  0  0  0  0
 18 20  1  0  0  0  0
 18 16  1  0  0  0  0
 19 20  1  0  0  0  0
 20 13  1  0  0  0  0
 21  1  1  0  0  0  0
 22 21  2  0  0  0  0
 23 24  2  0  0  0  0
 24 21  1  0  0  0  0
 25 23  1  0  0  0  0
 26 25  1  0  0  0  0
 27 26  1  0  0  0  0
 28 29  2  0  0  0  0
 29 31  1  0  0  0  0
 29 27  1  0  0  0  0
 30 34  1  0  0  0  0
 30 32  2  0  0  0  0
 31 30  1  0  0  0  0
 33 34  1  0  0  0  0
M  END
>  <MODEL>
3

>  <REMARK>
 VINA RESULT:      -7.8      2.218      3.687
  Name = 
  10 active torsions:
  status: ('A' for Active; 'I' for Inactive)
    1  A    between atoms: C_4  and  C_11
    2  A    between atoms: C_4  and  C_18
    3  A    between atoms: C_6  and  C_23
    4  A    between atoms: C_13  and  C_23
    5  A    between atoms: C_13  and  N_27
    6  A    between atoms: C_14  and  C_23
    7  A    between atoms: C_17  and  C_30
    8  A    between atoms: C_18  and  N_28
    9  A    between atoms: N_20  and  C_25
   10  A    between atoms: C_25  and  N_28
                            x       y       z     vdW  Elec       q    Type
                         _______ _______ _______ _____ _____    ______ ____

>  <TORSDO>
F 10

$$$$
=
 OpenBabel11032421113D

 34 36  0  0  1  0  0  0  0  0999 V2000
  186.9990  178.6280  141.8210 C   0  0  1  0  0  3  0  0  0  0  0  0
  187.9580  178.0300  139.6620 C   0  0  0  0  0  0  0  0  0  0  0  0
  192.4400  176.8060  139.4910 O   0  0  0  0  0  0  0  0  0  0  0  0
  189.2800  174.4410  136.8940 C   0  0  0  0  0  3  0  0  0  0  0  0
  191.2820  176.7450  139.0020 C   0  0  0  0  0  0  0  0  0  0  0  0
  187.0170  178.6460  140.3240 C   0  0  0  0  0  3  0  0  0  0  0  0
  188.9140  177.4210  139.0210 C   0  0  0  0  0  0  0  0  0  0  0  0
  189.5970  175.4940  137.6400 C   0  0  0  0  0  0  0  0  0  0  0  0
  190.3250  177.8730  139.2310 C   0  0  0  0  0  2  0  0  0  0  0  0
  190.2180  173.3980  136.6490 N   0  0  0  0  0  1  0  0  0  0  0  0
  188.5740  176.5730  137.8370 C   0  0  0  0  0  2  0  0  0  0  0  0
  190.9110  175.6220  138.1990 N   0  0  0  0  0  2  0  0  0  0  0  0
  183.4780  178.8680  145.0720 C   0  0  0  0  0  2  0  0  0  0  0  0
  184.7760  178.9660  145.9040 C   0  0  0  0  0  3  0  0  0  0  0  0
  185.6130  178.4390  142.3660 C   0  0  0  0  0  0  0  0  0  0  0  0
  185.9600  178.7060  144.9410 C   0  0  0  0  0  3  0  0  0  0  0  0
  184.4020  178.5770  141.6810 C   0  0  0  0  0  3  0  0  0  0  0  0
  185.2540  178.3820  143.6890 C   0  0  0  0  0  0  0  0  0  0  0  0
  183.3930  178.6080  142.5900 N   0  0  0  0  0  0  0  0  0  0  0  0
  183.9480  178.4500  143.7780 N   0  0  0  0  0  0  0  0  0  0  0  0
  187.9590  177.6090  142.3750 C   0  0  0  0  0  0  0  0  0  0  0  0
  187.5630  176.3960  142.5870 N   0  0  0  0  0  2  0  0  0  0  0  0
  190.2770  177.1430  142.7450 C   0  0  0  0  0  3  0  0  0  0  0  0
  189.2880  177.9790  142.7520 N   0  0  0  0  0  0  0  0  0  0  0  0
  191.6450  177.5790  143.1490 C   0  0  0  0  0  2  0  0  0  0  0  0
  191.7170  177.8280  144.6480 C   0  0  0  0  0  2  0  0  0  0  0  0
  191.6640  176.5640  145.3690 N   0  0  0  0  0  2  0  0  0  0  0  0
  192.5520  175.6300  147.7070 S   0  0  0  0  0  0  0  0  0  0  0  0
  191.4730  176.4620  146.7820 C   0  0  0  0  0  0  0  0  0  0  0  0
  188.9860  177.1490  146.8770 C   0  0  0  0  0  0  0  0  0  0  0  0
  190.3370  177.1240  147.3590 N   0  0  0  0  0  2  0  0  0  0  0  0
  188.6660  176.6050  145.7880 O   0  0  0  0  0  0  0  0  0  0  0  0
  188.5630  178.4490  148.9200 C   0  0  0  0  0  1  0  0  0  0  0  0
  187.9490  177.8710  147.6600 C   0  0  0  0  0  2  0  0  0  0  0  0
  1  6  1  6  0  0  0
  1 15  1  0  0  0  0
  1 21  1  0  0  0  0
  2  6  2  0  0  0  0
  4  8  2  0  0  0  0
  5  9  1  0  0  0  0
  5  3  2  0  0  0  0
  7  9  1  0  0  0  0
  7  2  2  0  0  0  0
  8 11  1  0  0  0  0
  8 12  1  0  0  0  0
 10  4  1  0  0  0  0
 11  7  1  0  0  0  0
 12  5  1  0  0  0  0
 13 14  1  0  0  0  0
 15 18  2  0  0  0  0
 16 14  2  0  0  0  0
 17 15  1  0  0  0  0
 17 19  2  0  0  0  0
 18 20  1  0  0  0  0
 18 16  1  0  0  0  0
 19 20  1  0  0  0  0
 20 13  1  0  0  0  0
 21 22  2  0  0  0  0
 21 24  1  0  0  0  0
 23 24  2  0  0  0  0
 23 25  1  0  0  0  0
 25 26  1  0  0  0  0
 26 27  1  0  0  0  0
 27 29  1  0  0  0  0
 29 31  1  0  0  0  0
 29 28  2  0  0  0  0
 30 31  1  0  0  0  0
 30 34  1  0  0  0  0
 32 30  2  0  0  0  0
 34 33  1  0  0  0  0
M  END
>  <MODEL>
4

>  <REMARK>
 VINA RESULT:      -7.6      3.466      8.118
  Name = 
  10 active torsions:
  status: ('A' for Active; 'I' for Inactive)
    1  A    between atoms: C_4  and  C_11
    2  A    between atoms: C_4  and  C_18
    3  A    between atoms: C_6  and  C_23
    4  A    between atoms: C_13  and  C_23
    5  A    between atoms: C_13  and  N_27
    6  A    between atoms: C_14  and  C_23
    7  A    between atoms: C_17  and  C_30
    8  A    between atoms: C_18  and  N_28
    9  A    between atoms: N_20  and  C_25
   10  A    between atoms: C_25  and  N_28
                            x       y       z     vdW  Elec       q    Type
                         _______ _______ _______ _____ _____    ______ ____

>  <TORSDO>
F 10

$$$$
=
 OpenBabel11032421113D

 34 36  0  0  1  0  0  0  0  0999 V2000
  189.9040  177.3740  142.8920 C   0  0  1  0  0  3  0  0  0  0  0  0
  187.5360  177.0660  143.3790 C   0  0  0  0  0  0  0  0  0  0  0  0
  185.6860  179.4030  146.9470 O   0  0  0  0  0  0  0  0  0  0  0  0
  183.2330  178.9570  142.9330 C   0  0  0  0  0  3  0  0  0  0  0  0
  185.5400  178.8300  145.8350 C   0  0  0  0  0  0  0  0  0  0  0  0
  188.6200  176.6060  142.8170 C   0  0  0  0  0  3  0  0  0  0  0  0
  186.4690  177.5360  143.9580 C   0  0  0  0  0  0  0  0  0  0  0  0
  184.2560  178.5970  143.7010 C   0  0  0  0  0  0  0  0  0  0  0  0
  186.4820  177.7360  145.4410 C   0  0  0  0  0  2  0  0  0  0  0  0
  182.3190  179.9690  143.3440 N   0  0  0  0  0  1  0  0  0  0  0  0
  185.1660  177.5050  143.2240 C   0  0  0  0  0  2  0  0  0  0  0  0
  184.4520  179.2010  144.9860 N   0  0  0  0  0  2  0  0  0  0  0  0
  191.2350  176.2580  147.3650 C   0  0  0  0  0  2  0  0  0  0  0  0
  190.1160  177.3080  147.5480 C   0  0  0  0  0  3  0  0  0  0  0  0
  190.8100  176.8520  143.9690 C   0  0  0  0  0  0  0  0  0  0  0  0
  189.7660  177.8560  146.1430 C   0  0  0  0  0  3  0  0  0  0  0  0
  191.6670  175.7500  143.9020 C   0  0  0  0  0  3  0  0  0  0  0  0
  190.7640  177.1690  145.3030 C   0  0  0  0  0  0  0  0  0  0  0  0
  192.0810  175.4480  145.1590 N   0  0  0  0  0  0  0  0  0  0  0  0
  191.5440  176.3470  145.9620 N   0  0  0  0  0  0  0  0  0  0  0  0
  190.5970  177.4270  141.5570 C   0  0  0  0  0  0  0  0  0  0  0  0
  191.8680  177.6620  141.4960 N   0  0  0  0  0  2  0  0  0  0  0  0
  190.4150  177.0080  139.2080 C   0  0  0  0  0  3  0  0  0  0  0  0
  189.8570  177.3050  140.3380 N   0  0  0  0  0  0  0  0  0  0  0  0
  189.5980  176.8950  137.9650 C   0  0  0  0  0  2  0  0  0  0  0  0
  188.4960  177.9430  137.9380 C   0  0  0  0  0  2  0  0  0  0  0  0
  187.1910  177.2970  137.8970 N   0  0  0  0  0  2  0  0  0  0  0  0
  186.5740  176.9820  135.3180 S   0  0  0  0  0  0  0  0  0  0  0  0
  186.7740  176.4150  136.8520 C   0  0  0  0  0  0  0  0  0  0  0  0
  185.3180  174.3330  137.3100 C   0  0  0  0  0  0  0  0  0  0  0  0
  186.5630  175.0330  137.1790 N   0  0  0  0  0  2  0  0  0  0  0  0
  184.2140  174.9280  137.2040 O   0  0  0  0  0  0  0  0  0  0  0  0
  184.1290  172.2060  136.9880 C   0  0  0  0  0  1  0  0  0  0  0  0
  185.3320  172.8780  137.6200 C   0  0  0  0  0  2  0  0  0  0  0  0
  1  6  1  6  0  0  0
  1 15  1  0  0  0  0
  2  7  2  0  0  0  0
  4 10  1  0  0  0  0
  4  8  2  0  0  0  0
  5  3  2  0  0  0  0
  6  2  2  0  0  0  0
  7  9  1  0  0  0  0
  8 12  1  0  0  0  0
  9  5  1  0  0  0  0
 11  8  1  0  0  0  0
 11  7  1  0  0  0  0
 12  5  1  0  0  0  0
 13 14  1  0  0  0  0
 15 18  2  0  0  0  0
 16 14  2  0  0  0  0
 17 15  1  0  0  0  0
 17 19  2  0  0  0  0
 18 20  1  0  0  0  0
 18 16  1  0  0  0  0
 19 20  1  0  0  0  0
 20 13  1  0  0  0  0
 21  1  1  0  0  0  0
 22 21  2  0  0  0  0
 23 24  2  0  0  0  0
 24 21  1  0  0  0  0
 25 23  1  0  0  0  0
 26 25  1  0  0  0  0
 27 26  1  0  0  0  0
 28 29  2  0  0  0  0
 29 31  1  0  0  0  0
 29 27  1  0  0  0  0
 30 34  1  0  0  0  0
 31 30  1  0  0  0  0
 32 30  2  0  0  0  0
 33 34  1  0  0  0  0
M  END
>  <MODEL>
5

>  <REMARK>
 VINA RESULT:      -7.5      1.934      2.113
  Name = 
  10 active torsions:
  status: ('A' for Active; 'I' for Inactive)
    1  A    between atoms: C_4  and  C_11
    2  A    between atoms: C_4  and  C_18
    3  A    between atoms: C_6  and  C_23
    4  A    between atoms: C_13  and  C_23
    5  A    between atoms: C_13  and  N_27
    6  A    between atoms: C_14  and  C_23
    7  A    between atoms: C_17  and  C_30
    8  A    between atoms: C_18  and  N_28
    9  A    between atoms: N_20  and  C_25
   10  A    between atoms: C_25  and  N_28
                            x       y       z     vdW  Elec       q    Type
                         _______ _______ _______ _____ _____    ______ ____

>  <TORSDO>
F 10

$$$$
=
 OpenBabel11032421113D

 34 36  0  0  1  0  0  0  0  0999 V2000
  188.6860  177.0910  139.0370 C   0  0  1  0  0  3  0  0  0  0  0  0
  187.1320  178.5690  140.1940 C   0  0  0  0  0  0  0  0  0  0  0  0
  182.5790  177.6850  139.8750 O   0  0  0  0  0  0  0  0  0  0  0  0
  184.3990  179.0610  144.0120 C   0  0  0  0  0  3  0  0  0  0  0  0
  183.5420  178.1870  140.5100 C   0  0  0  0  0  0  0  0  0  0  0  0
  188.3190  178.3920  139.6820 C   0  0  0  0  0  3  0  0  0  0  0  0
  185.9370  178.7310  140.6860 C   0  0  0  0  0  0  0  0  0  0  0  0
  184.5200  178.9060  142.6980 C   0  0  0  0  0  0  0  0  0  0  0  0
  184.7600  178.6380  139.7660 C   0  0  0  0  0  2  0  0  0  0  0  0
  183.2140  178.6670  144.6980 N   0  0  0  0  0  1  0  0  0  0  0  0
  185.7810  179.3670  142.0310 C   0  0  0  0  0  2  0  0  0  0  0  0
  183.4420  178.3610  141.9260 N   0  0  0  0  0  2  0  0  0  0  0  0
  186.4420  176.1060  134.9110 C   0  0  0  0  0  2  0  0  0  0  0  0
  185.9390  175.0220  135.8910 C   0  0  0  0  0  3  0  0  0  0  0  0
  188.4600  177.1150  137.5530 C   0  0  0  0  0  0  0  0  0  0  0  0
  186.7630  175.1610  137.1930 C   0  0  0  0  0  3  0  0  0  0  0  0
  188.6900  178.1760  136.6720 C   0  0  0  0  0  3  0  0  0  0  0  0
  187.7220  176.2180  136.8230 C   0  0  0  0  0  0  0  0  0  0  0  0
  188.0910  177.8910  135.4870 N   0  0  0  0  0  0  0  0  0  0  0  0
  187.5550  176.6910  135.6120 N   0  0  0  0  0  0  0  0  0  0  0  0
  190.0920  176.6790  139.3800 C   0  0  0  0  0  0  0  0  0  0  0  0
  190.6640  175.7220  138.7250 N   0  0  0  0  0  2  0  0  0  0  0  0
  190.7810  176.7600  141.6700 C   0  0  0  0  0  3  0  0  0  0  0  0
  190.7850  177.2740  140.4820 N   0  0  0  0  0  0  0  0  0  0  0  0
  191.5180  177.4210  142.7860 C   0  0  0  0  0  2  0  0  0  0  0  0
  191.6670  176.4820  143.9740 C   0  0  0  0  0  2  0  0  0  0  0  0
  191.6360  177.2390  145.2170 N   0  0  0  0  0  2  0  0  0  0  0  0
  192.0530  176.0120  147.5510 S   0  0  0  0  0  0  0  0  0  0  0  0
  191.0830  176.7410  146.4380 C   0  0  0  0  0  0  0  0  0  0  0  0
  189.0340  177.7550  147.6370 C   0  0  0  0  0  0  0  0  0  0  0  0
  189.6770  176.9190  146.6650 N   0  0  0  0  0  2  0  0  0  0  0  0
  189.6970  178.4070  148.4850 O   0  0  0  0  0  0  0  0  0  0  0  0
  187.0010  177.8420  146.2580 C   0  0  0  0  0  1  0  0  0  0  0  0
  187.5480  177.8200  147.6710 C   0  0  0  0  0  2  0  0  0  0  0  0
  1 21  1  0  0  0  0
  1  6  1  6  0  0  0
  2  7  2  0  0  0  0
  3  5  2  0  0  0  0
  4 10  1  0  0  0  0
  5 12  1  0  0  0  0
  6  2  2  0  0  0  0
  7 11  1  0  0  0  0
  8  4  2  0  0  0  0
  9  5  1  0  0  0  0
  9  7  1  0  0  0  0
 11  8  1  0  0  0  0
 12  8  1  0  0  0  0
 13 20  1  0  0  0  0
 13 14  1  0  0  0  0
 14 16  2  0  0  0  0
 15  1  1  0  0  0  0
 17 15  1  0  0  0  0
 18 16  1  0  0  0  0
 18 15  2  0  0  0  0
 19 20  1  0  0  0  0
 19 17  2  0  0  0  0
 20 18  1  0  0  0  0
 21 24  1  0  0  0  0
 22 21  2  0  0  0  0
 23 25  1  0  0  0  0
 24 23  2  0  0  0  0
 25 26  1  0  0  0  0
 26 27  1  0  0  0  0
 27 29  1  0  0  0  0
 29 31  1  0  0  0  0
 29 28  2  0  0  0  0
 30 34  1  0  0  0  0
 30 32  2  0  0  0  0
 31 30  1  0  0  0  0
 33 34  1  0  0  0  0
M  END
>  <MODEL>
6

>  <REMARK>
 VINA RESULT:      -7.5      3.081      7.746
  Name = 
  10 active torsions:
  status: ('A' for Active; 'I' for Inactive)
    1  A    between atoms: C_4  and  C_11
    2  A    between atoms: C_4  and  C_18
    3  A    between atoms: C_6  and  C_23
    4  A    between atoms: C_13  and  C_23
    5  A    between atoms: C_13  and  N_27
    6  A    between atoms: C_14  and  C_23
    7  A    between atoms: C_17  and  C_30
    8  A    between atoms: C_18  and  N_28
    9  A    between atoms: N_20  and  C_25
   10  A    between atoms: C_25  and  N_28
                            x       y       z     vdW  Elec       q    Type
                         _______ _______ _______ _____ _____    ______ ____

>  <TORSDO>
F 10

$$$$
=
 OpenBabel11032421113D

 34 36  0  0  1  0  0  0  0  0999 V2000
  184.8730  178.1580  141.8350 C   0  0  1  0  0  3  0  0  0  0  0  0
  187.1660  178.5900  141.1320 C   0  0  0  0  0  0  0  0  0  0  0  0
  190.4890  175.6280  142.4710 O   0  0  0  0  0  0  0  0  0  0  0  0
  190.5560  177.3720  138.0800 C   0  0  0  0  0  3  0  0  0  0  0  0
  190.0680  176.4820  141.6480 C   0  0  0  0  0  0  0  0  0  0  0  0
  185.9660  179.0570  141.3450 C   0  0  0  0  0  3  0  0  0  0  0  0
  188.3600  178.1080  140.9390 C   0  0  0  0  0  0  0  0  0  0  0  0
  190.0850  177.4040  139.3220 C   0  0  0  0  0  0  0  0  0  0  0  0
  189.1000  177.5290  142.1040 C   0  0  0  0  0  2  0  0  0  0  0  0
  191.5110  176.3950  137.6740 N   0  0  0  0  0  1  0  0  0  0  0  0
  189.1030  178.4740  139.6940 C   0  0  0  0  0  2  0  0  0  0  0  0
  190.5520  176.4680  140.3020 N   0  0  0  0  0  2  0  0  0  0  0  0
  185.7120  178.6960  146.5290 C   0  0  0  0  0  2  0  0  0  0  0  0
  186.9180  177.8780  146.0140 C   0  0  0  0  0  3  0  0  0  0  0  0
  184.5320  178.4190  143.2730 C   0  0  0  0  0  0  0  0  0  0  0  0
  186.6240  177.5030  144.5420 C   0  0  0  0  0  3  0  0  0  0  0  0
  183.6010  179.3320  143.7770 C   0  0  0  0  0  3  0  0  0  0  0  0
  185.2590  178.0320  144.3710 C   0  0  0  0  0  0  0  0  0  0  0  0
  183.8040  179.4640  145.1130 N   0  0  0  0  0  0  0  0  0  0  0  0
  184.7830  178.6380  145.4310 N   0  0  0  0  0  0  0  0  0  0  0  0
  183.6570  178.2310  140.9510 C   0  0  0  0  0  0  0  0  0  0  0  0
  183.2190  179.3790  140.5470 N   0  0  0  0  0  2  0  0  0  0  0  0
  182.6810  176.7020  139.3910 C   0  0  0  0  0  3  0  0  0  0  0  0
  182.9200  177.0510  140.6140 N   0  0  0  0  0  0  0  0  0  0  0  0
  181.9060  175.4630  139.0930 C   0  0  0  0  0  2  0  0  0  0  0  0
  181.8130  175.2240  137.5940 C   0  0  0  0  0  2  0  0  0  0  0  0
  182.7410  174.1760  137.1940 N   0  0  0  0  0  2  0  0  0  0  0  0
  184.1870  173.3840  135.0940 S   0  0  0  0  0  0  0  0  0  0  0  0
  183.8770  174.3980  136.3550 C   0  0  0  0  0  0  0  0  0  0  0  0
  186.0930  175.5460  137.0150 C   0  0  0  0  0  0  0  0  0  0  0  0
  184.7110  175.5330  136.6320 N   0  0  0  0  0  2  0  0  0  0  0  0
  186.7290  174.4800  137.2190 O   0  0  0  0  0  0  0  0  0  0  0  0
  185.7890  177.8780  137.7310 C   0  0  0  0  0  1  0  0  0  0  0  0
  186.7780  176.8510  137.2170 C   0  0  0  0  0  2  0  0  0  0  0  0
  1  6  1  6  0  0  0
  1 15  1  0  0  0  0
  2  6  2  0  0  0  0
  4  8  2  0  0  0  0
  5  9  1  0  0  0  0
  5  3  2  0  0  0  0
  7  2  2  0  0  0  0
  7  9  1  0  0  0  0
  8 11  1  0  0  0  0
  8 12  1  0  0  0  0
 10  4  1  0  0  0  0
 11  7  1  0  0  0  0
 12  5  1  0  0  0  0
 14 13  1  0  0  0  0
 15 17  1  0  0  0  0
 15 18  2  0  0  0  0
 16 14  2  0  0  0  0
 17 19  2  0  0  0  0
 18 16  1  0  0  0  0
 18 20  1  0  0  0  0
 19 20  1  0  0  0  0
 20 13  1  0  0  0  0
 21  1  1  0  0  0  0
 22 21  2  0  0  0  0
 23 24  2  0  0  0  0
 24 21  1  0  0  0  0
 25 23  1  0  0  0  0
 26 25  1  0  0  0  0
 27 26  1  0  0  0  0
 28 29  2  0  0  0  0
 29 31  1  0  0  0  0
 29 27  1  0  0  0  0
 30 34  1  0  0  0  0
 30 32  2  0  0  0  0
 31 30  1  0  0  0  0
 34 33  1  0  0  0  0
M  END
>  <MODEL>
7

>  <REMARK>
 VINA RESULT:      -7.4      3.105      6.575
  Name = 
  10 active torsions:
  status: ('A' for Active; 'I' for Inactive)
    1  A    between atoms: C_4  and  C_11
    2  A    between atoms: C_4  and  C_18
    3  A    between atoms: C_6  and  C_23
    4  A    between atoms: C_13  and  C_23
    5  A    between atoms: C_13  and  N_27
    6  A    between atoms: C_14  and  C_23
    7  A    between atoms: C_17  and  C_30
    8  A    between atoms: C_18  and  N_28
    9  A    between atoms: N_20  and  C_25
   10  A    between atoms: C_25  and  N_28
                            x       y       z     vdW  Elec       q    Type
                         _______ _______ _______ _____ _____    ______ ____

>  <TORSDO>
F 10

$$$$
=
 OpenBabel11032421113D

 34 36  0  0  1  0  0  0  0  0999 V2000
  182.9270  177.6640  140.5880 C   0  0  1  0  0  3  0  0  0  0  0  0
  184.7750  178.5010  141.9380 C   0  0  0  0  0  0  0  0  0  0  0  0
  184.1830  178.8400  146.5370 O   0  0  0  0  0  0  0  0  0  0  0  0
  188.3000  177.2730  144.8290 C   0  0  0  0  0  3  0  0  0  0  0  0
  184.9550  178.7030  145.5520 C   0  0  0  0  0  0  0  0  0  0  0  0
  184.2090  178.4180  140.7650 C   0  0  0  0  0  3  0  0  0  0  0  0
  185.3170  178.5830  143.1190 C   0  0  0  0  0  0  0  0  0  0  0  0
  187.1260  177.8640  144.6350 C   0  0  0  0  0  0  0  0  0  0  0  0
  184.5510  179.2510  144.2190 C   0  0  0  0  0  2  0  0  0  0  0  0
  188.6870  176.7970  146.1150 N   0  0  0  0  0  1  0  0  0  0  0  0
  186.7900  178.3680  143.2640 C   0  0  0  0  0  2  0  0  0  0  0  0
  186.2220  178.0650  145.7290 N   0  0  0  0  0  2  0  0  0  0  0  0
  179.5220  180.6250  142.2200 C   0  0  0  0  0  2  0  0  0  0  0  0
  179.9520  179.8120  143.4620 C   0  0  0  0  0  3  0  0  0  0  0  0
  181.7420  178.5810  140.4990 C   0  0  0  0  0  0  0  0  0  0  0  0
  180.9160  178.7040  142.9750 C   0  0  0  0  0  3  0  0  0  0  0  0
  181.4500  179.5030  139.4890 C   0  0  0  0  0  3  0  0  0  0  0  0
  180.8760  178.9010  141.5150 C   0  0  0  0  0  0  0  0  0  0  0  0
  180.4600  180.3230  139.9250 N   0  0  0  0  0  0  0  0  0  0  0  0
  180.1220  179.9020  141.1300 N   0  0  0  0  0  0  0  0  0  0  0  0
  182.9940  176.7250  139.4140 C   0  0  0  0  0  0  0  0  0  0  0  0
  182.2660  175.6560  139.3980 N   0  0  0  0  0  2  0  0  0  0  0  0
  183.8670  176.2960  137.2270 C   0  0  0  0  0  3  0  0  0  0  0  0
  183.9180  176.9500  138.3440 N   0  0  0  0  0  0  0  0  0  0  0  0
  184.8550  176.5680  136.1430 C   0  0  0  0  0  2  0  0  0  0  0  0
  185.7920  175.3860  135.9510 C   0  0  0  0  0  2  0  0  0  0  0  0
  186.7380  175.3110  137.0560 N   0  0  0  0  0  2  0  0  0  0  0  0
  188.9720  175.8930  135.7150 S   0  0  0  0  0  0  0  0  0  0  0  0
  188.0150  175.9550  137.0530 C   0  0  0  0  0  0  0  0  0  0  0  0
  187.8770  177.8880  138.7580 C   0  0  0  0  0  0  0  0  0  0  0  0
  188.4150  176.6660  138.2350 N   0  0  0  0  0  2  0  0  0  0  0  0
  186.9820  178.5280  138.1470 O   0  0  0  0  0  0  0  0  0  0  0  0
  189.1820  177.3530  140.7720 C   0  0  0  0  0  1  0  0  0  0  0  0
  188.4200  178.4340  140.0310 C   0  0  0  0  0  2  0  0  0  0  0  0
  1  6  1  6  0  0  0
  2  7  2  0  0  0  0
  4 10  1  0  0  0  0
  5 12  1  0  0  0  0
  5  3  2  0  0  0  0
  6  2  2  0  0  0  0
  7 11  1  0  0  0  0
  7  9  1  0  0  0  0
  8  4  2  0  0  0  0
  8 12  1  0  0  0  0
  9  5  1  0  0  0  0
 11  8  1  0  0  0  0
 13 14  1  0  0  0  0
 15  1  1  0  0  0  0
 15 18  2  0  0  0  0
 16 14  2  0  0  0  0
 17 19  2  0  0  0  0
 17 15  1  0  0  0  0
 18 16  1  0  0  0  0
 19 20  1  0  0  0  0
 20 18  1  0  0  0  0
 20 13  1  0  0  0  0
 21  1  1  0  0  0  0
 22 21  2  0  0  0  0
 23 24  2  0  0  0  0
 24 21  1  0  0  0  0
 25 23  1  0  0  0  0
 26 25  1  0  0  0  0
 26 27  1  0  0  0  0
 28 29  2  0  0  0  0
 29 27  1  0  0  0  0
 29 31  1  0  0  0  0
 30 34  1  0  0  0  0
 31 30  1  0  0  0  0
 32 30  2  0  0  0  0
 34 33  1  0  0  0  0
M  END
>  <MODEL>
8

>  <REMARK>
 VINA RESULT:      -7.4      2.490      7.277
  Name = 
  10 active torsions:
  status: ('A' for Active; 'I' for Inactive)
    1  A    between atoms: C_4  and  C_11
    2  A    between atoms: C_4  and  C_18
    3  A    between atoms: C_6  and  C_23
    4  A    between atoms: C_13  and  C_23
    5  A    between atoms: C_13  and  N_27
    6  A    between atoms: C_14  and  C_23
    7  A    between atoms: C_17  and  C_30
    8  A    between atoms: C_18  and  N_28
    9  A    between atoms: N_20  and  C_25
   10  A    between atoms: C_25  and  N_28
                            x       y       z     vdW  Elec       q    Type
                         _______ _______ _______ _____ _____    ______ ____

>  <TORSDO>
F 10

$$$$
=
 OpenBabel11032421113D

 34 36  0  0  1  0  0  0  0  0999 V2000
  186.2160  178.6320  144.2400 C   0  0  1  0  0  3  0  0  0  0  0  0
  184.4840  178.5670  142.5270 C   0  0  0  0  0  0  0  0  0  0  0  0
  185.7530  179.0040  138.0760 O   0  0  0  0  0  0  0  0  0  0  0  0
  182.4060  175.8810  139.2470 C   0  0  0  0  0  3  0  0  0  0  0  0
  184.9340  178.5780  138.9310 C   0  0  0  0  0  0  0  0  0  0  0  0
  184.7970  178.7650  143.7780 C   0  0  0  0  0  3  0  0  0  0  0  0
  184.1940  178.3800  141.2710 C   0  0  0  0  0  0  0  0  0  0  0  0
  183.1710  176.9200  139.5660 C   0  0  0  0  0  0  0  0  0  0  0  0
  184.8100  179.2800  140.2470 C   0  0  0  0  0  2  0  0  0  0  0  0
  182.5050  175.2520  137.9720 N   0  0  0  0  0  1  0  0  0  0  0  0
  182.9990  177.5550  140.9130 C   0  0  0  0  0  2  0  0  0  0  0  0
  184.1020  177.4580  138.6180 N   0  0  0  0  0  2  0  0  0  0  0  0
  188.3880  177.8890  148.4540 C   0  0  0  0  0  2  0  0  0  0  0  0
  189.4660  177.5490  147.4000 C   0  0  0  0  0  3  0  0  0  0  0  0
  186.3050  178.3640  145.7140 C   0  0  0  0  0  0  0  0  0  0  0  0
  188.7800  177.5840  146.0130 C   0  0  0  0  0  3  0  0  0  0  0  0
  185.4710  178.8560  146.7230 C   0  0  0  0  0  3  0  0  0  0  0  0
  187.3760  177.8290  146.3860 C   0  0  0  0  0  0  0  0  0  0  0  0
  186.0580  178.6170  147.9230 N   0  0  0  0  0  0  0  0  0  0  0  0
  187.1800  177.9670  147.6750 N   0  0  0  0  0  0  0  0  0  0  0  0
  186.9650  177.6010  143.4390 C   0  0  0  0  0  0  0  0  0  0  0  0
  186.7550  176.3420  143.6480 N   0  0  0  0  0  2  0  0  0  0  0  0
  187.7740  178.0020  141.2230 C   0  0  0  0  0  3  0  0  0  0  0  0
  187.9750  177.9880  142.5020 N   0  0  0  0  0  0  0  0  0  0  0  0
  188.8610  178.4130  140.2880 C   0  0  0  0  0  2  0  0  0  0  0  0
  189.2240  177.2790  139.3410 C   0  0  0  0  0  2  0  0  0  0  0  0
  190.3260  176.5020  139.8900 N   0  0  0  0  0  2  0  0  0  0  0  0
  192.8100  177.1240  139.1330 S   0  0  0  0  0  0  0  0  0  0  0  0
  191.5950  177.0610  140.2420 C   0  0  0  0  0  0  0  0  0  0  0  0
  191.3750  176.9740  142.8130 C   0  0  0  0  0  0  0  0  0  0  0  0
  191.7570  177.5800  141.5710 N   0  0  0  0  0  2  0  0  0  0  0  0
  190.7580  175.8770  142.8470 O   0  0  0  0  0  0  0  0  0  0  0  0
  191.3170  179.1450  143.9650 C   0  0  0  0  0  1  0  0  0  0  0  0
  191.6770  177.6770  144.0880 C   0  0  0  0  0  2  0  0  0  0  0  0
  1  6  1  6  0  0  0
  1 15  1  0  0  0  0
  2  6  2  0  0  0  0
  3  5  2  0  0  0  0
  4  8  2  0  0  0  0
  5  9  1  0  0  0  0
  7  2  2  0  0  0  0
  8 11  1  0  0  0  0
  9  7  1  0  0  0  0
 10  4  1  0  0  0  0
 11  7  1  0  0  0  0
 12  5  1  0  0  0  0
 12  8  1  0  0  0  0
 14 13  1  0  0  0  0
 15 18  2  0  0  0  0
 15 17  1  0  0  0  0
 16 18  1  0  0  0  0
 16 14  2  0  0  0  0
 17 19  2  0  0  0  0
 18 20  1  0  0  0  0
 20 19  1  0  0  0  0
 20 13  1  0  0  0  0
 21 22  2  0  0  0  0
 21  1  1  0  0  0  0
 23 24  2  0  0  0  0
 24 21  1  0  0  0  0
 25 23  1  0  0  0  0
 26 27  1  0  0  0  0
 26 25  1  0  0  0  0
 27 29  1  0  0  0  0
 28 29  2  0  0  0  0
 29 31  1  0  0  0  0
 30 32  2  0  0  0  0
 30 34  1  0  0  0  0
 31 30  1  0  0  0  0
 33 34  1  0  0  0  0
M  END
>  <MODEL>
9

>  <REMARK>
 VINA RESULT:      -7.3      2.741      5.864
  Name = 
  10 active torsions:
  status: ('A' for Active; 'I' for Inactive)
    1  A    between atoms: C_4  and  C_11
    2  A    between atoms: C_4  and  C_18
    3  A    between atoms: C_6  and  C_23
    4  A    between atoms: C_13  and  C_23
    5  A    between atoms: C_13  and  N_27
    6  A    between atoms: C_14  and  C_23
    7  A    between atoms: C_17  and  C_30
    8  A    between atoms: C_18  and  N_28
    9  A    between atoms: N_20  and  C_25
   10  A    between atoms: C_25  and  N_28
                            x       y       z     vdW  Elec       q    Type
                         _______ _______ _______ _____ _____    ______ ____

>  <TORSDO>
F 10

$$$$
