=
 OpenBabel11042411533D

 35 39  0  0  1  0  0  0  0  0999 V2000
  187.9600  178.0360  137.8360 C   0  0  1  0  0  3  0  0  0  0  0  0
  188.5320  179.3800  137.4020 C   0  0  0  0  0  1  0  0  0  0  0  0
  189.4340  175.5900  142.3300 O   0  0  0  0  0  0  0  0  0  0  0  0
  187.1850  178.0140  141.1730 C   0  0  1  0  0  3  0  0  0  0  0  0
  190.1990  177.2280  140.8640 N   0  0  0  0  0  0  0  0  0  0  0  0
  189.2650  176.7400  141.8380 C   0  0  0  0  0  0  0  0  0  0  0  0
  187.8710  178.7070  140.1680 O   0  0  0  0  0  0  0  0  0  0  0  0
  189.8230  177.4670  139.4620 C   0  0  1  0  0  3  0  0  0  0  0  0
  187.3700  176.9850  143.4760 C   0  0  0  0  0  2  0  0  0  0  0  0
  188.1430  177.6300  142.3190 C   0  0  2  0  0  3  0  0  0  0  0  0
  189.3050  175.0130  135.1530 C   0  0  0  0  0  3  0  0  0  0  0  0
  185.3030  178.2150  142.8230 C   0  0  1  0  0  3  0  0  0  0  0  0
  189.5640  176.1520  137.2570 C   0  0  0  0  0  0  0  0  0  0  0  0
  188.4510  176.9480  136.9200 C   0  0  0  0  0  0  0  0  0  0  0  0
  191.2280  175.6050  138.8640 O   0  0  0  0  0  0  0  0  0  0  0  0
  186.0550  178.9030  141.6890 C   0  0  0  0  0  2  0  0  0  0  0  0
  190.2520  176.3400  138.5540 C   0  0  0  0  0  0  0  0  0  0  0  0
  186.2600  177.9070  143.9650 C   0  0  0  0  0  2  0  0  0  0  0  0
  189.9850  175.1710  136.3580 C   0  0  0  0  0  3  0  0  0  0  0  0
  188.2440  175.8120  134.8710 N   0  0  0  0  0  0  0  0  0  0  0  0
  187.8310  176.7500  135.7260 N   0  0  0  0  0  0  0  0  0  0  0  0
  188.3150  177.7130  139.2920 C   0  0  2  0  0  3  0  0  0  0  0  0
  183.3890  179.7860  143.6820 N   0  0  0  0  0  0  0  0  0  0  0  0
  184.2340  179.0920  143.3020 C   0  0  0  0  0  0  0  0  0  0  0  0
  191.5970  177.3800  141.2430 C   0  0  0  0  0  2  0  0  0  0  0  0
  191.7510  177.2220  142.7430 C   0  0  0  0  0  2  0  0  0  0  0  0
  192.0920  178.5040  143.3320 N   0  0  0  0  0  2  0  0  0  0  0  0
  190.9870  178.8700  144.2010 C   0  0  0  0  0  2  0  0  0  0  0  0
  192.5150  176.0890  147.7520 O   0  0  0  0  0  0  0  0  0  0  0  0
  190.1630  176.3040  147.5580 C   0  0  0  0  0  3  0  0  0  0  0  0
  191.7550  177.3520  145.9430 N   0  0  0  0  0  2  0  0  0  0  0  0
  189.3990  178.0370  145.9570 C   0  0  0  0  0  2  0  0  0  0  0  0
  190.6180  177.6980  145.0910 C   0  0  1  0  0  3  0  0  0  0  0  0
  191.5390  176.5600  147.1140 C   0  0  0  0  0  0  0  0  0  0  0  0
  189.1520  176.9660  146.9870 C   0  0  0  0  0  3  0  0  0  0  0  0
  1  2  1  6  0  0  0
  1 22  1  0  0  0  0
  4 16  1  1  0  0  0
  4 10  1  0  0  0  0
  5 25  1  0  0  0  0
  5  6  1  0  0  0  0
  6 10  1  0  0  0  0
  6  3  2  0  0  0  0
  7  4  1  0  0  0  0
  8 17  1  6  0  0  0
  8  5  1  0  0  0  0
  9 18  1  0  0  0  0
 10  9  1  1  0  0  0
 11 19  1  0  0  0  0
 12 24  1  1  0  0  0
 12 18  1  0  0  0  0
 13 17  1  0  0  0  0
 14 13  1  0  0  0  0
 14  1  1  0  0  0  0
 16 12  1  0  0  0  0
 17 15  2  0  0  0  0
 19 13  2  0  0  0  0
 20 11  2  0  0  0  0
 20 21  1  0  0  0  0
 21 14  2  0  0  0  0
 22  8  1  0  0  0  0
 22  7  1  1  0  0  0
 24 23  3  0  0  0  0
 25 26  1  0  0  0  0
 26 27  1  0  0  0  0
 27 28  1  0  0  0  0
 31 34  1  0  0  0  0
 32 35  1  0  0  0  0
 33 28  1  1  0  0  0
 33 31  1  0  0  0  0
 33 32  1  0  0  0  0
 34 30  1  0  0  0  0
 34 29  2  0  0  0  0
 35 30  2  0  0  0  0
M  END
>  <MODEL>
1

>  <REMARK>
 VINA RESULT:      -9.1      0.000      0.000
  Name = 
  6 active torsions:
  status: ('A' for Active; 'I' for Inactive)
    1  A    between atoms: C_8  and  N_31
    2  A    between atoms: C_8  and  C_33
    3  A    between atoms: N_9  and  C_33
    4  A    between atoms: C_17  and  C_32
    5  A    between atoms: C_18  and  C_23
    6  A    between atoms: C_18  and  N_31
                            x       y       z     vdW  Elec       q    Type
                         _______ _______ _______ _____ _____    ______ ____

>  <TORSDO>
F 6

$$$$
=
 OpenBabel11042411533D

 35 39  0  0  1  0  0  0  0  0999 V2000
  188.1630  178.0840  138.0550 C   0  0  1  0  0  3  0  0  0  0  0  0
  188.7270  179.4480  137.6830 C   0  0  0  0  0  1  0  0  0  0  0  0
  188.7760  175.9280  142.8850 O   0  0  0  0  0  0  0  0  0  0  0  0
  186.6820  178.1310  141.1440 C   0  0  1  0  0  3  0  0  0  0  0  0
  189.7350  177.5610  141.5310 N   0  0  0  0  0  0  0  0  0  0  0  0
  188.6450  177.0420  142.3080 C   0  0  0  0  0  0  0  0  0  0  0  0
  187.5250  178.8340  140.2740 O   0  0  0  0  0  0  0  0  0  0  0  0
  189.6590  177.7180  140.0710 C   0  0  1  0  0  3  0  0  0  0  0  0
  186.4270  177.2080  143.4850 C   0  0  0  0  0  2  0  0  0  0  0  0
  187.3900  177.8640  142.4880 C   0  0  2  0  0  3  0  0  0  0  0  0
  190.2520  175.0690  135.8890 C   0  0  0  0  0  3  0  0  0  0  0  0
  184.4760  178.2540  142.3380 C   0  0  1  0  0  3  0  0  0  0  0  0
  189.9720  176.3040  137.9360 C   0  0  0  0  0  0  0  0  0  0  0  0
  188.9100  177.0010  137.3250 C   0  0  0  0  0  0  0  0  0  0  0  0
  191.2780  175.9440  139.8900 O   0  0  0  0  0  0  0  0  0  0  0  0
  185.4120  178.9520  141.3570 C   0  0  0  0  0  2  0  0  0  0  0  0
  190.3480  176.5920  139.3380 C   0  0  0  0  0  0  0  0  0  0  0  0
  185.1800  178.0620  143.6750 C   0  0  0  0  0  2  0  0  0  0  0  0
  190.6420  175.3230  137.2010 C   0  0  0  0  0  3  0  0  0  0  0  0
  189.2280  175.7750  135.3440 N   0  0  0  0  0  0  0  0  0  0  0  0
  188.5790  176.7120  136.0380 N   0  0  0  0  0  0  0  0  0  0  0  0
  188.2120  177.8430  139.5690 C   0  0  2  0  0  3  0  0  0  0  0  0
  182.3230  179.7080  142.6790 N   0  0  0  0  0  0  0  0  0  0  0  0
  183.2740  179.0660  142.5290 C   0  0  0  0  0  0  0  0  0  0  0  0
  191.0040  177.8310  142.1930 C   0  0  0  0  0  2  0  0  0  0  0  0
  190.7620  178.4780  143.5440 C   0  0  0  0  0  2  0  0  0  0  0  0
  191.5690  177.8140  144.5500 N   0  0  0  0  0  2  0  0  0  0  0  0
  190.6730  176.9520  145.3010 C   0  0  0  0  0  2  0  0  0  0  0  0
  186.2520  177.8090  146.8480 O   0  0  0  0  0  0  0  0  0  0  0  0
  187.9860  178.2660  148.3970 C   0  0  0  0  0  3  0  0  0  0  0  0
  188.4270  177.5070  146.0580 N   0  0  0  0  0  2  0  0  0  0  0  0
  190.2330  177.4670  147.7180 C   0  0  0  0  0  2  0  0  0  0  0  0
  189.8470  177.7800  146.2670 C   0  0  1  0  0  3  0  0  0  0  0  0
  187.4870  177.8550  147.0790 C   0  0  0  0  0  0  0  0  0  0  0  0
  189.2830  178.1240  148.6840 C   0  0  0  0  0  3  0  0  0  0  0  0
  1  2  1  1  0  0  0
  1 22  1  0  0  0  0
  4 16  1  1  0  0  0
  4 10  1  0  0  0  0
  5 25  1  0  0  0  0
  5  6  1  0  0  0  0
  6 10  1  0  0  0  0
  6  3  2  0  0  0  0
  7  4  1  0  0  0  0
  8 17  1  6  0  0  0
  8  5  1  0  0  0  0
  9 18  1  0  0  0  0
 10  9  1  1  0  0  0
 11 19  1  0  0  0  0
 12 24  1  1  0  0  0
 12 18  1  0  0  0  0
 13 17  1  0  0  0  0
 14 13  1  0  0  0  0
 14  1  1  0  0  0  0
 16 12  1  0  0  0  0
 17 15  2  0  0  0  0
 19 13  2  0  0  0  0
 20 11  2  0  0  0  0
 20 21  1  0  0  0  0
 21 14  2  0  0  0  0
 22  8  1  0  0  0  0
 22  7  1  1  0  0  0
 24 23  3  0  0  0  0
 25 26  1  0  0  0  0
 26 27  1  0  0  0  0
 27 28  1  0  0  0  0
 29 34  2  0  0  0  0
 30 35  2  0  0  0  0
 31 33  1  0  0  0  0
 31 34  1  0  0  0  0
 32 35  1  0  0  0  0
 33 28  1  6  0  0  0
 33 32  1  0  0  0  0
 34 30  1  0  0  0  0
M  END
>  <MODEL>
2

>  <REMARK>
 VINA RESULT:      -8.5      1.536      1.871
  Name = 
  6 active torsions:
  status: ('A' for Active; 'I' for Inactive)
    1  A    between atoms: C_8  and  N_31
    2  A    between atoms: C_8  and  C_33
    3  A    between atoms: N_9  and  C_33
    4  A    between atoms: C_17  and  C_32
    5  A    between atoms: C_18  and  C_23
    6  A    between atoms: C_18  and  N_31
                            x       y       z     vdW  Elec       q    Type
                         _______ _______ _______ _____ _____    ______ ____

>  <TORSDO>
F 6

$$$$
=
 OpenBabel11042411533D

 35 39  0  0  1  0  0  0  0  0999 V2000
  184.7290  178.0810  141.6160 C   0  0  1  0  0  3  0  0  0  0  0  0
  185.3310  179.3080  140.9450 C   0  0  0  0  0  1  0  0  0  0  0  0
  179.5810  176.7900  141.1810 O   0  0  0  0  0  0  0  0  0  0  0  0
  182.6290  176.3920  139.5010 C   0  0  1  0  0  3  0  0  0  0  0  0
  180.9800  178.6340  140.9310 N   0  0  0  0  0  0  0  0  0  0  0  0
  180.5240  177.3310  140.5400 C   0  0  0  0  0  0  0  0  0  0  0  0
  183.3220  177.5920  139.6990 O   0  0  0  0  0  0  0  0  0  0  0  0
  182.3190  178.8660  141.4920 C   0  0  1  0  0  3  0  0  0  0  0  0
  180.3790  175.3590  138.9840 C   0  0  0  0  0  2  0  0  0  0  0  0
  181.1200  176.6570  139.3260 C   0  0  2  0  0  3  0  0  0  0  0  0
  184.7530  178.6430  145.8390 C   0  0  0  0  0  3  0  0  0  0  0  0
  182.4500  174.4050  137.9750 C   0  0  1  0  0  3  0  0  0  0  0  0
  183.5370  178.7290  143.7630 C   0  0  0  0  0  0  0  0  0  0  0  0
  184.6980  178.2730  143.1080 C   0  0  0  0  0  0  0  0  0  0  0  0
  181.2520  179.3650  143.5920 O   0  0  0  0  0  0  0  0  0  0  0  0
  183.2020  175.6990  138.2660 C   0  0  0  0  0  2  0  0  0  0  0  0
  182.2970  178.9870  142.9970 C   0  0  0  0  0  0  0  0  0  0  0  0
  180.9760  174.7070  137.7420 C   0  0  0  0  0  2  0  0  0  0  0  0
  183.5730  178.9080  145.1480 C   0  0  0  0  0  3  0  0  0  0  0  0
  185.8470  178.2130  145.1580 N   0  0  0  0  0  0  0  0  0  0  0  0
  185.8210  178.0360  143.8360 N   0  0  0  0  0  0  0  0  0  0  0  0
  183.3230  177.7760  141.0840 C   0  0  2  0  0  3  0  0  0  0  0  0
  183.4590  173.2670  135.8410 N   0  0  0  0  0  0  0  0  0  0  0  0
  183.0140  173.7700  136.7830 C   0  0  0  0  0  0  0  0  0  0  0  0
  180.0450  179.7510  140.8830 C   0  0  0  0  0  2  0  0  0  0  0  0
  179.6460  180.0360  139.4480 C   0  0  0  0  0  2  0  0  0  0  0  0
  180.7900  180.5560  138.7220 N   0  0  0  0  0  2  0  0  0  0  0  0
  180.3860  180.6660  137.3310 C   0  0  0  0  0  2  0  0  0  0  0  0
  182.3160  184.9930  137.8030 O   0  0  0  0  0  0  0  0  0  0  0  0
  181.0320  184.6530  135.8410 C   0  0  0  0  0  3  0  0  0  0  0  0
  181.2680  182.9160  137.6220 N   0  0  0  0  0  2  0  0  0  0  0  0
  180.3530  182.3030  135.4290 C   0  0  0  0  0  2  0  0  0  0  0  0
  180.2390  182.1270  136.9490 C   0  0  1  0  0  3  0  0  0  0  0  0
  181.5810  184.2240  137.1330 C   0  0  0  0  0  0  0  0  0  0  0  0
  180.4180  183.7620  135.0580 C   0  0  0  0  0  3  0  0  0  0  0  0
  1  2  1  6  0  0  0
  1 14  1  0  0  0  0
  4 16  1  6  0  0  0
  4  7  1  0  0  0  0
  5  8  1  0  0  0  0
  6  5  1  0  0  0  0
  6  3  2  0  0  0  0
  8 17  1  1  0  0  0
 10  9  1  1  0  0  0
 10  4  1  0  0  0  0
 10  6  1  0  0  0  0
 12 24  1  6  0  0  0
 12 16  1  0  0  0  0
 13 19  1  0  0  0  0
 14 13  2  0  0  0  0
 14 21  1  0  0  0  0
 17 15  2  0  0  0  0
 17 13  1  0  0  0  0
 18 12  1  0  0  0  0
 18  9  1  0  0  0  0
 19 11  2  0  0  0  0
 20 11  1  0  0  0  0
 21 20  2  0  0  0  0
 22  7  1  6  0  0  0
 22  8  1  0  0  0  0
 22  1  1  0  0  0  0
 23 24  3  0  0  0  0
 25  5  1  0  0  0  0
 26 25  1  0  0  0  0
 27 26  1  0  0  0  0
 28 27  1  0  0  0  0
 30 34  1  0  0  0  0
 32 33  1  0  0  0  0
 33 28  1  6  0  0  0
 33 31  1  0  0  0  0
 34 31  1  0  0  0  0
 34 29  2  0  0  0  0
 35 32  1  0  0  0  0
 35 30  2  0  0  0  0
M  END
>  <MODEL>
3

>  <REMARK>
 VINA RESULT:      -7.9      5.868     10.793
  Name = 
  6 active torsions:
  status: ('A' for Active; 'I' for Inactive)
    1  A    between atoms: C_8  and  N_31
    2  A    between atoms: C_8  and  C_33
    3  A    between atoms: N_9  and  C_33
    4  A    between atoms: C_17  and  C_32
    5  A    between atoms: C_18  and  C_23
    6  A    between atoms: C_18  and  N_31
                            x       y       z     vdW  Elec       q    Type
                         _______ _______ _______ _____ _____    ______ ____

>  <TORSDO>
F 6

$$$$
=
 OpenBabel11042411533D

 35 39  0  0  1  0  0  0  0  0999 V2000
  188.9520  174.8040  136.4360 C   0  0  1  0  0  3  0  0  0  0  0  0
  188.0820  174.0370  137.4230 C   0  0  0  0  0  1  0  0  0  0  0  0
  193.4540  177.2630  137.8640 O   0  0  0  0  0  0  0  0  0  0  0  0
  192.2770  174.1110  136.8860 C   0  0  1  0  0  3  0  0  0  0  0  0
  191.4940  176.4450  138.8180 N   0  0  0  0  0  0  0  0  0  0  0  0
  192.7450  176.2560  138.1410 C   0  0  0  0  0  0  0  0  0  0  0  0
  191.0030  173.9980  137.4550 O   0  0  0  0  0  0  0  0  0  0  0  0
  190.2000  176.1600  138.1790 C   0  0  1  0  0  3  0  0  0  0  0  0
  194.6580  174.8720  137.2710 C   0  0  0  0  0  2  0  0  0  0  0  0
  193.2330  174.8590  137.8370 C   0  0  2  0  0  3  0  0  0  0  0  0
  186.8650  178.2850  135.1420 C   0  0  0  0  0  3  0  0  0  0  0  0
  194.2100  172.7710  136.0070 C   0  0  1  0  0  3  0  0  0  0  0  0
  188.5070  177.2990  136.6000 C   0  0  0  0  0  0  0  0  0  0  0  0
  188.2460  176.0560  135.9910 C   0  0  0  0  0  0  0  0  0  0  0  0
  189.7770  178.5310  138.1890 O   0  0  0  0  0  0  0  0  0  0  0  0
  192.8010  172.7080  136.5870 C   0  0  0  0  0  2  0  0  0  0  0  0
  189.5250  177.4100  137.6690 C   0  0  0  0  0  0  0  0  0  0  0  0
  195.1440  173.4550  136.9960 C   0  0  0  0  0  2  0  0  0  0  0  0
  187.8060  178.4230  136.1590 C   0  0  0  0  0  3  0  0  0  0  0  0
  186.6450  177.0610  134.5940 N   0  0  0  0  0  0  0  0  0  0  0  0
  187.3120  175.9820  135.0060 N   0  0  0  0  0  0  0  0  0  0  0  0
  190.3230  175.1430  137.0340 C   0  0  2  0  0  3  0  0  0  0  0  0
  195.0680  170.3410  135.5280 N   0  0  0  0  0  0  0  0  0  0  0  0
  194.6880  171.4140  135.7400 C   0  0  0  0  0  0  0  0  0  0  0  0
  191.4950  177.0540  140.1410 C   0  0  0  0  0  2  0  0  0  0  0  0
  190.3250  176.5350  140.9550 C   0  0  0  0  0  2  0  0  0  0  0  0
  190.0970  177.4130  142.0880 N   0  0  0  0  0  2  0  0  0  0  0  0
  191.1760  177.1680  143.0290 C   0  0  0  0  0  2  0  0  0  0  0  0
  192.2060  176.5220  147.6330 O   0  0  0  0  0  0  0  0  0  0  0  0
  189.9320  176.9800  147.1460 C   0  0  0  0  0  3  0  0  0  0  0  0
  191.6710  176.7210  145.3700 N   0  0  0  0  0  2  0  0  0  0  0  0
  189.4830  177.6800  144.8100 C   0  0  0  0  0  2  0  0  0  0  0  0
  190.6080  176.7360  144.3670 C   0  0  1  0  0  3  0  0  0  0  0  0
  191.3260  176.7280  146.7580 C   0  0  0  0  0  0  0  0  0  0  0  0
  189.0550  177.3860  146.2240 C   0  0  0  0  0  3  0  0  0  0  0  0
  1 22  1  0  0  0  0
  1  2  1  1  0  0  0
  3  6  2  0  0  0  0
  4 16  1  1  0  0  0
  4  7  1  0  0  0  0
  4 10  1  0  0  0  0
  5 25  1  0  0  0  0
  6  5  1  0  0  0  0
  8 17  1  6  0  0  0
  8  5  1  0  0  0  0
 10  9  1  6  0  0  0
 10  6  1  0  0  0  0
 11 19  1  0  0  0  0
 12 24  1  1  0  0  0
 12 16  1  0  0  0  0
 12 18  1  0  0  0  0
 13 17  1  0  0  0  0
 14  1  1  0  0  0  0
 14 13  1  0  0  0  0
 17 15  2  0  0  0  0
 18  9  1  0  0  0  0
 19 13  2  0  0  0  0
 20 21  1  0  0  0  0
 20 11  2  0  0  0  0
 21 14  2  0  0  0  0
 22  7  1  1  0  0  0
 22  8  1  0  0  0  0
 23 24  3  0  0  0  0
 25 26  1  0  0  0  0
 26 27  1  0  0  0  0
 27 28  1  0  0  0  0
 31 34  1  0  0  0  0
 32 35  1  0  0  0  0
 33 28  1  6  0  0  0
 33 32  1  0  0  0  0
 33 31  1  0  0  0  0
 34 30  1  0  0  0  0
 34 29  2  0  0  0  0
 35 30  2  0  0  0  0
M  END
>  <MODEL>
4

>  <REMARK>
 VINA RESULT:      -7.3      2.891      6.304
  Name = 
  6 active torsions:
  status: ('A' for Active; 'I' for Inactive)
    1  A    between atoms: C_8  and  N_31
    2  A    between atoms: C_8  and  C_33
    3  A    between atoms: N_9  and  C_33
    4  A    between atoms: C_17  and  C_32
    5  A    between atoms: C_18  and  C_23
    6  A    between atoms: C_18  and  N_31
                            x       y       z     vdW  Elec       q    Type
                         _______ _______ _______ _____ _____    ______ ____

>  <TORSDO>
F 6

$$$$
=
 OpenBabel11042411533D

 35 39  0  0  1  0  0  0  0  0999 V2000
  180.1170  179.0530  138.9560 C   0  0  1  0  0  3  0  0  0  0  0  0
  179.7060  179.0590  140.4220 C   0  0  0  0  0  1  0  0  0  0  0  0
  184.9900  177.6430  137.3330 O   0  0  0  0  0  0  0  0  0  0  0  0
  181.8900  176.2320  138.1560 C   0  0  1  0  0  3  0  0  0  0  0  0
  183.8950  178.3680  139.2560 N   0  0  0  0  0  0  0  0  0  0  0  0
  184.1340  177.3960  138.2270 C   0  0  0  0  0  0  0  0  0  0  0  0
  181.3990  177.0070  139.2140 O   0  0  0  0  0  0  0  0  0  0  0  0
  182.6190  179.0870  139.3810 C   0  0  1  0  0  3  0  0  0  0  0  0
  183.9410  175.1150  137.1840 C   0  0  0  0  0  2  0  0  0  0  0  0
  183.4190  176.0660  138.2680 C   0  0  2  0  0  3  0  0  0  0  0  0
  180.2510  183.0630  137.5240 C   0  0  0  0  0  3  0  0  0  0  0  0
  181.7290  173.9680  137.0820 C   0  0  1  0  0  3  0  0  0  0  0  0
  181.4320  181.1510  138.3860 C   0  0  0  0  0  0  0  0  0  0  0  0
  180.2030  180.4630  138.4390 C   0  0  0  0  0  0  0  0  0  0  0  0
  183.7850  181.0870  138.7190 O   0  0  0  0  0  0  0  0  0  0  0  0
  181.1960  174.8720  138.1870 C   0  0  0  0  0  2  0  0  0  0  0  0
  182.6840  180.4780  138.7980 C   0  0  0  0  0  0  0  0  0  0  0  0
  183.2280  173.7690  137.2570 C   0  0  0  0  0  2  0  0  0  0  0  0
  181.4460  182.4660  137.9160 C   0  0  0  0  0  3  0  0  0  0  0  0
  179.0920  182.3590  137.6030 N   0  0  0  0  0  0  0  0  0  0  0  0
  179.0680  181.1010  138.0480 N   0  0  0  0  0  0  0  0  0  0  0  0
  181.4490  178.3210  138.7440 C   0  0  2  0  0  3  0  0  0  0  0  0
  180.5190  171.6460  137.1910 N   0  0  0  0  0  0  0  0  0  0  0  0
  181.0530  172.6720  137.1420 C   0  0  0  0  0  0  0  0  0  0  0  0
  184.9940  178.7470  140.1350 C   0  0  0  0  0  2  0  0  0  0  0  0
  184.5060  178.8420  141.5680 C   0  0  0  0  0  2  0  0  0  0  0  0
  185.6240  179.1540  142.4390 N   0  0  0  0  0  2  0  0  0  0  0  0
  186.5270  178.0180  142.3810 C   0  0  0  0  0  2  0  0  0  0  0  0
  189.8700  177.5900  145.7450 O   0  0  0  0  0  0  0  0  0  0  0  0
  187.6330  177.6500  146.5250 C   0  0  0  0  0  3  0  0  0  0  0  0
  188.2210  177.6780  144.0970 N   0  0  0  0  0  2  0  0  0  0  0  0
  185.9430  178.2470  144.8110 C   0  0  0  0  0  2  0  0  0  0  0  0
  186.8040  177.5040  143.7820 C   0  0  1  0  0  3  0  0  0  0  0  0
  188.6460  177.6370  145.4620 C   0  0  0  0  0  0  0  0  0  0  0  0
  186.3570  177.8950  146.2170 C   0  0  0  0  0  3  0  0  0  0  0  0
  1  2  1  1  0  0  0
  3  6  2  0  0  0  0
  4 16  1  1  0  0  0
  4 10  1  0  0  0  0
  4  7  1  0  0  0  0
  5  8  1  0  0  0  0
  5 25  1  0  0  0  0
  6 10  1  0  0  0  0
  6  5  1  0  0  0  0
  8 17  1  6  0  0  0
  9 18  1  0  0  0  0
 10  9  1  6  0  0  0
 11 20  2  0  0  0  0
 11 19  1  0  0  0  0
 12 24  1  1  0  0  0
 12 18  1  0  0  0  0
 12 16  1  0  0  0  0
 13 14  1  0  0  0  0
 13 17  1  0  0  0  0
 14  1  1  0  0  0  0
 15 17  2  0  0  0  0
 19 13  2  0  0  0  0
 20 21  1  0  0  0  0
 21 14  2  0  0  0  0
 22  1  1  0  0  0  0
 22  7  1  1  0  0  0
 22  8  1  0  0  0  0
 24 23  3  0  0  0  0
 25 26  1  0  0  0  0
 26 27  1  0  0  0  0
 28 27  1  0  0  0  0
 31 34  1  0  0  0  0
 32 35  1  0  0  0  0
 33 28  1  6  0  0  0
 33 31  1  0  0  0  0
 33 32  1  0  0  0  0
 34 29  2  0  0  0  0
 34 30  1  0  0  0  0
 35 30  2  0  0  0  0
M  END
>  <MODEL>
5

>  <REMARK>
 VINA RESULT:      -7.1      5.338      7.694
  Name = 
  6 active torsions:
  status: ('A' for Active; 'I' for Inactive)
    1  A    between atoms: C_8  and  N_31
    2  A    between atoms: C_8  and  C_33
    3  A    between atoms: N_9  and  C_33
    4  A    between atoms: C_17  and  C_32
    5  A    between atoms: C_18  and  C_23
    6  A    between atoms: C_18  and  N_31
                            x       y       z     vdW  Elec       q    Type
                         _______ _______ _______ _____ _____    ______ ____

>  <TORSDO>
F 6

$$$$
=
 OpenBabel11042411533D

 35 39  0  0  1  0  0  0  0  0999 V2000
  181.9580  180.5550  138.2670 C   0  0  1  0  0  3  0  0  0  0  0  0
  181.5360  179.5350  137.2180 C   0  0  0  0  0  1  0  0  0  0  0  0
  181.8780  179.5200  143.4900 O   0  0  0  0  0  0  0  0  0  0  0  0
  183.9340  179.1360  140.6800 C   0  0  1  0  0  3  0  0  0  0  0  0
  180.9420  178.7380  141.5070 N   0  0  0  0  0  0  0  0  0  0  0  0
  182.0640  178.9630  142.3730 C   0  0  0  0  0  0  0  0  0  0  0  0
  183.0630  178.8660  139.6170 O   0  0  0  0  0  0  0  0  0  0  0  0
  180.7900  179.4280  140.2180 C   0  0  1  0  0  3  0  0  0  0  0  0
  184.4510  178.6540  143.1080 C   0  0  0  0  0  2  0  0  0  0  0  0
  183.4340  178.4660  141.9750 C   0  0  2  0  0  3  0  0  0  0  0  0
  179.1280  183.7380  138.3410 C   0  0  0  0  0  3  0  0  0  0  0  0
  186.3050  178.8510  141.4540 C   0  0  1  0  0  3  0  0  0  0  0  0
  179.9230  181.6770  139.2950 C   0  0  0  0  0  0  0  0  0  0  0  0
  180.9530  181.6730  138.3330 C   0  0  0  0  0  0  0  0  0  0  0  0
  178.9310  180.6190  141.1790 O   0  0  0  0  0  0  0  0  0  0  0  0
  185.3240  178.6250  140.3090 C   0  0  0  0  0  2  0  0  0  0  0  0
  179.8350  180.5950  140.3010 C   0  0  0  0  0  0  0  0  0  0  0  0
  185.8200  178.1240  142.7000 C   0  0  0  0  0  2  0  0  0  0  0  0
  179.0070  182.7300  139.2940 C   0  0  0  0  0  3  0  0  0  0  0  0
  180.1340  183.6830  137.4300 N   0  0  0  0  0  0  0  0  0  0  0  0
  181.0160  182.6820  137.4240 N   0  0  0  0  0  0  0  0  0  0  0  0
  182.1340  179.9090  139.6470 C   0  0  2  0  0  3  0  0  0  0  0  0
  188.6670  177.9420  140.7720 N   0  0  0  0  0  0  0  0  0  0  0  0
  187.6250  178.3440  141.0740 C   0  0  0  0  0  0  0  0  0  0  0  0
  179.8540  177.8870  141.9710 C   0  0  0  0  0  2  0  0  0  0  0  0
  179.3070  177.0650  140.8200 C   0  0  0  0  0  2  0  0  0  0  0  0
  179.9940  175.7880  140.7680 N   0  0  0  0  0  2  0  0  0  0  0  0
  179.6330  175.1720  139.5030 C   0  0  0  0  0  2  0  0  0  0  0  0
  181.5930  176.3130  135.3150 O   0  0  0  0  0  0  0  0  0  0  0  0
  183.1190  175.8490  137.0680 C   0  0  0  0  0  3  0  0  0  0  0  0
  180.6440  175.6360  137.3370 N   0  0  0  0  0  2  0  0  0  0  0  0
  182.0940  175.6280  139.3160 C   0  0  0  0  0  2  0  0  0  0  0  0
  180.8680  175.0070  138.6360 C   0  0  1  0  0  3  0  0  0  0  0  0
  181.7650  175.9520  136.5080 C   0  0  0  0  0  0  0  0  0  0  0  0
  183.2750  175.6550  138.3810 C   0  0  0  0  0  3  0  0  0  0  0  0
  1  2  1  6  0  0  0
  1 14  1  0  0  0  0
  1 22  1  0  0  0  0
  4 16  1  6  0  0  0
  4 10  1  0  0  0  0
  5 25  1  0  0  0  0
  5  6  1  0  0  0  0
  6  3  2  0  0  0  0
  7  4  1  0  0  0  0
  8 17  1  1  0  0  0
  8  5  1  0  0  0  0
 10  6  1  0  0  0  0
 10  9  1  1  0  0  0
 11 19  1  0  0  0  0
 12 24  1  6  0  0  0
 12 18  1  0  0  0  0
 13 17  1  0  0  0  0
 14 13  1  0  0  0  0
 16 12  1  0  0  0  0
 17 15  2  0  0  0  0
 18  9  1  0  0  0  0
 19 13  2  0  0  0  0
 20 11  2  0  0  0  0
 21 20  1  0  0  0  0
 21 14  2  0  0  0  0
 22  7  1  6  0  0  0
 22  8  1  0  0  0  0
 23 24  3  0  0  0  0
 26 25  1  0  0  0  0
 27 26  1  0  0  0  0
 28 27  1  0  0  0  0
 29 34  2  0  0  0  0
 30 35  2  0  0  0  0
 31 33  1  0  0  0  0
 33 32  1  0  0  0  0
 33 28  1  1  0  0  0
 34 30  1  0  0  0  0
 34 31  1  0  0  0  0
 35 32  1  0  0  0  0
M  END
>  <MODEL>
6

>  <REMARK>
 VINA RESULT:      -7.1      5.624     10.016
  Name = 
  6 active torsions:
  status: ('A' for Active; 'I' for Inactive)
    1  A    between atoms: C_8  and  N_31
    2  A    between atoms: C_8  and  C_33
    3  A    between atoms: N_9  and  C_33
    4  A    between atoms: C_17  and  C_32
    5  A    between atoms: C_18  and  C_23
    6  A    between atoms: C_18  and  N_31
                            x       y       z     vdW  Elec       q    Type
                         _______ _______ _______ _____ _____    ______ ____

>  <TORSDO>
F 6

$$$$
=
 OpenBabel11042411533D

 35 39  0  0  1  0  0  0  0  0999 V2000
  184.2160  178.6680  139.4630 C   0  0  1  0  0  3  0  0  0  0  0  0
  184.1510  180.1280  139.0360 C   0  0  0  0  0  1  0  0  0  0  0  0
  188.7060  176.3560  141.1530 O   0  0  0  0  0  0  0  0  0  0  0  0
  186.0300  178.2780  142.3440 C   0  0  1  0  0  3  0  0  0  0  0  0
  188.0120  178.2070  139.9230 N   0  0  0  0  0  0  0  0  0  0  0  0
  188.1050  177.4660  141.1490 C   0  0  0  0  0  0  0  0  0  0  0  0
  185.7180  179.1640  141.3050 O   0  0  0  0  0  0  0  0  0  0  0  0
  186.7330  178.4370  139.2350 C   0  0  1  0  0  3  0  0  0  0  0  0
  187.9050  177.1840  143.6410 C   0  0  0  0  0  2  0  0  0  0  0  0
  187.5530  178.0520  142.4270 C   0  0  2  0  0  3  0  0  0  0  0  0
  183.6250  176.1850  136.0520 C   0  0  0  0  0  3  0  0  0  0  0  0
  185.8520  177.9540  144.8280 C   0  0  1  0  0  3  0  0  0  0  0  0
  185.1540  177.2280  137.5910 C   0  0  0  0  0  0  0  0  0  0  0  0
  184.0430  177.7730  138.2660 C   0  0  0  0  0  0  0  0  0  0  0  0
  187.5160  176.9760  137.4880 O   0  0  0  0  0  0  0  0  0  0  0  0
  185.4980  178.8590  143.6520 C   0  0  0  0  0  2  0  0  0  0  0  0
  186.5270  177.4900  138.0770 C   0  0  0  0  0  0  0  0  0  0  0  0
  187.3640  177.8030  144.9240 C   0  0  0  0  0  2  0  0  0  0  0  0
  184.9310  176.4210  136.4740 C   0  0  0  0  0  3  0  0  0  0  0  0
  182.5890  176.7410  136.7330 N   0  0  0  0  0  0  0  0  0  0  0  0
  182.7910  177.5110  137.8040 N   0  0  0  0  0  0  0  0  0  0  0  0
  185.5300  178.3480  140.1870 C   0  0  2  0  0  3  0  0  0  0  0  0
  184.9310  179.0030  147.0460 N   0  0  0  0  0  0  0  0  0  0  0  0
  185.3380  178.5400  146.0670 C   0  0  0  0  0  0  0  0  0  0  0  0
  189.2390  178.6470  139.2720 C   0  0  0  0  0  2  0  0  0  0  0  0
  190.2620  177.5270  139.2760 C   0  0  0  0  0  2  0  0  0  0  0  0
  191.3590  177.8780  140.1580 N   0  0  0  0  0  2  0  0  0  0  0  0
  191.6770  176.6840  140.9230 C   0  0  0  0  0  2  0  0  0  0  0  0
  190.9310  179.9850  144.2730 O   0  0  0  0  0  0  0  0  0  0  0  0
  191.3120  177.7850  145.0690 C   0  0  0  0  0  3  0  0  0  0  0  0
  191.4160  178.3850  142.6460 N   0  0  0  0  0  2  0  0  0  0  0  0
  191.3240  176.0270  143.3200 C   0  0  0  0  0  2  0  0  0  0  0  0
  191.9520  177.0540  142.3690 C   0  0  1  0  0  3  0  0  0  0  0  0
  191.2040  178.7880  144.0010 C   0  0  0  0  0  0  0  0  0  0  0  0
  191.4100  176.4920  144.7500 C   0  0  0  0  0  3  0  0  0  0  0  0
  1  2  1  6  0  0  0
  1 22  1  0  0  0  0
  4 10  1  0  0  0  0
  4 16  1  1  0  0  0
  5  6  1  0  0  0  0
  6  3  2  0  0  0  0
  6 10  1  0  0  0  0
  7  4  1  0  0  0  0
  8 17  1  6  0  0  0
  8  5  1  0  0  0  0
  8 22  1  0  0  0  0
  9 18  1  0  0  0  0
 10  9  1  1  0  0  0
 11 19  2  0  0  0  0
 11 20  1  0  0  0  0
 12 18  1  0  0  0  0
 12 24  1  1  0  0  0
 13 17  1  0  0  0  0
 13 14  2  0  0  0  0
 14  1  1  0  0  0  0
 15 17  2  0  0  0  0
 16 12  1  0  0  0  0
 19 13  1  0  0  0  0
 20 21  2  0  0  0  0
 21 14  1  0  0  0  0
 22  7  1  1  0  0  0
 24 23  3  0  0  0  0
 25 26  1  0  0  0  0
 25  5  1  0  0  0  0
 26 27  1  0  0  0  0
 27 28  1  0  0  0  0
 31 34  1  0  0  0  0
 32 35  1  0  0  0  0
 33 28  1  6  0  0  0
 33 31  1  0  0  0  0
 33 32  1  0  0  0  0
 34 29  2  0  0  0  0
 34 30  1  0  0  0  0
 35 30  2  0  0  0  0
M  END
>  <MODEL>
7

>  <REMARK>
 VINA RESULT:      -6.9      2.607      3.671
  Name = 
  6 active torsions:
  status: ('A' for Active; 'I' for Inactive)
    1  A    between atoms: C_8  and  N_31
    2  A    between atoms: C_8  and  C_33
    3  A    between atoms: N_9  and  C_33
    4  A    between atoms: C_17  and  C_32
    5  A    between atoms: C_18  and  C_23
    6  A    between atoms: C_18  and  N_31
                            x       y       z     vdW  Elec       q    Type
                         _______ _______ _______ _____ _____    ______ ____

>  <TORSDO>
F 6

$$$$
=
 OpenBabel11042411533D

 35 39  0  0  1  0  0  0  0  0999 V2000
  181.5210  177.4830  137.6640 C   0  0  1  0  0  3  0  0  0  0  0  0
  180.8730  176.8180  138.8700 C   0  0  0  0  0  1  0  0  0  0  0  0
  186.6250  179.0040  137.6060 O   0  0  0  0  0  0  0  0  0  0  0  0
  184.6270  176.1850  137.0270 C   0  0  1  0  0  3  0  0  0  0  0  0
  184.9400  178.4840  139.1270 N   0  0  0  0  0  0  0  0  0  0  0  0
  185.8600  178.1230  138.0850 C   0  0  0  0  0  0  0  0  0  0  0  0
  183.5960  176.2600  137.9710 O   0  0  0  0  0  0  0  0  0  0  0  0
  183.4830  178.4760  138.9310 C   0  0  1  0  0  3  0  0  0  0  0  0
  187.1090  176.4840  136.6410 C   0  0  0  0  0  2  0  0  0  0  0  0
  185.9550  176.6850  137.6310 C   0  0  2  0  0  3  0  0  0  0  0  0
  179.8350  181.3580  137.1290 C   0  0  0  0  0  3  0  0  0  0  0  0
  185.9010  174.5860  135.5680 C   0  0  1  0  0  3  0  0  0  0  0  0
  181.6310  180.0020  137.9810 C   0  0  0  0  0  0  0  0  0  0  0  0
  180.9630  178.8680  137.4770 C   0  0  0  0  0  0  0  0  0  0  0  0
  183.5410  180.8780  139.0940 O   0  0  0  0  0  0  0  0  0  0  0  0
  184.7570  174.7350  136.5650 C   0  0  0  0  0  2  0  0  0  0  0  0
  182.9320  179.8580  138.6720 C   0  0  0  0  0  0  0  0  0  0  0  0
  187.2080  175.0250  136.2140 C   0  0  0  0  0  2  0  0  0  0  0  0
  181.0540  181.2590  137.7950 C   0  0  0  0  0  3  0  0  0  0  0  0
  179.2280  180.2340  136.6700 N   0  0  0  0  0  0  0  0  0  0  0  0
  179.7730  179.0280  136.8400 N   0  0  0  0  0  0  0  0  0  0  0  0
  183.0490  177.5340  137.7970 C   0  0  2  0  0  3  0  0  0  0  0  0
  186.0880  172.0810  134.8200 N   0  0  0  0  0  0  0  0  0  0  0  0
  186.0060  173.1870  135.1510 C   0  0  0  0  0  0  0  0  0  0  0  0
  185.4680  178.9920  140.3860 C   0  0  0  0  0  2  0  0  0  0  0  0
  184.5640  178.5840  141.5330 C   0  0  0  0  0  2  0  0  0  0  0  0
  185.2680  178.7580  142.7900 N   0  0  0  0  0  2  0  0  0  0  0  0
  186.4500  177.9160  142.7250 C   0  0  0  0  0  2  0  0  0  0  0  0
  190.0160  177.4200  145.8420 O   0  0  0  0  0  0  0  0  0  0  0  0
  187.8470  177.5890  146.7830 C   0  0  0  0  0  3  0  0  0  0  0  0
  188.2520  177.5420  144.3180 N   0  0  0  0  0  2  0  0  0  0  0  0
  186.0590  178.2190  145.1850 C   0  0  0  0  0  2  0  0  0  0  0  0
  186.8110  177.4210  144.1130 C   0  0  1  0  0  3  0  0  0  0  0  0
  188.7760  177.5120  145.6490 C   0  0  0  0  0  0  0  0  0  0  0  0
  186.5620  177.8790  146.5640 C   0  0  0  0  0  3  0  0  0  0  0  0
  1 22  1  0  0  0  0
  1  2  1  1  0  0  0
  3  6  2  0  0  0  0
  4 16  1  1  0  0  0
  4 10  1  0  0  0  0
  4  7  1  0  0  0  0
  5 25  1  0  0  0  0
  6  5  1  0  0  0  0
  8 17  1  6  0  0  0
  8  5  1  0  0  0  0
 10  9  1  6  0  0  0
 10  6  1  0  0  0  0
 11 19  1  0  0  0  0
 12 24  1  1  0  0  0
 12 18  1  0  0  0  0
 12 16  1  0  0  0  0
 13 17  1  0  0  0  0
 14  1  1  0  0  0  0
 14 13  1  0  0  0  0
 17 15  2  0  0  0  0
 18  9  1  0  0  0  0
 19 13  2  0  0  0  0
 20 21  1  0  0  0  0
 20 11  2  0  0  0  0
 21 14  2  0  0  0  0
 22  7  1  1  0  0  0
 22  8  1  0  0  0  0
 23 24  3  0  0  0  0
 25 26  1  0  0  0  0
 26 27  1  0  0  0  0
 28 27  1  0  0  0  0
 31 34  1  0  0  0  0
 32 35  1  0  0  0  0
 33 28  1  6  0  0  0
 33 31  1  0  0  0  0
 33 32  1  0  0  0  0
 34 29  2  0  0  0  0
 34 30  1  0  0  0  0
 35 30  2  0  0  0  0
M  END
>  <MODEL>
8

>  <REMARK>
 VINA RESULT:      -6.9      4.400      7.190
  Name = 
  6 active torsions:
  status: ('A' for Active; 'I' for Inactive)
    1  A    between atoms: C_8  and  N_31
    2  A    between atoms: C_8  and  C_33
    3  A    between atoms: N_9  and  C_33
    4  A    between atoms: C_17  and  C_32
    5  A    between atoms: C_18  and  C_23
    6  A    between atoms: C_18  and  N_31
                            x       y       z     vdW  Elec       q    Type
                         _______ _______ _______ _____ _____    ______ ____

>  <TORSDO>
F 6

$$$$
=
 OpenBabel11042411533D

 35 39  0  0  1  0  0  0  0  0999 V2000
  188.8130  174.9690  136.4400 C   0  0  1  0  0  3  0  0  0  0  0  0
  187.9070  174.1900  137.3840 C   0  0  0  0  0  1  0  0  0  0  0  0
  193.3040  177.3340  138.0530 O   0  0  0  0  0  0  0  0  0  0  0  0
  192.1160  174.2230  136.9630 C   0  0  1  0  0  3  0  0  0  0  0  0
  191.3080  176.5180  138.9310 N   0  0  0  0  0  0  0  0  0  0  0  0
  192.5760  176.3300  138.2840 C   0  0  0  0  0  0  0  0  0  0  0  0
  190.8250  174.1120  137.4950 O   0  0  0  0  0  0  0  0  0  0  0  0
  190.0300  176.2660  138.2510 C   0  0  1  0  0  3  0  0  0  0  0  0
  194.4950  174.9440  137.4320 C   0  0  0  0  0  2  0  0  0  0  0  0
  193.0550  174.9340  137.9590 C   0  0  2  0  0  3  0  0  0  0  0  0
  186.8060  178.5080  135.1780 C   0  0  0  0  0  3  0  0  0  0  0  0
  194.0560  172.8800  136.1040 C   0  0  1  0  0  3  0  0  0  0  0  0
  188.3950  177.4660  136.6550 C   0  0  0  0  0  0  0  0  0  0  0  0
  188.1360  176.2410  136.0080 C   0  0  0  0  0  0  0  0  0  0  0  0
  189.6360  178.6410  138.3090 O   0  0  0  0  0  0  0  0  0  0  0  0
  192.6310  172.8210  136.6430 C   0  0  0  0  0  2  0  0  0  0  0  0
  189.3840  177.5370  137.7540 C   0  0  0  0  0  0  0  0  0  0  0  0
  194.9710  173.5270  137.1350 C   0  0  0  0  0  2  0  0  0  0  0  0
  187.7200  178.6090  136.2230 C   0  0  0  0  0  3  0  0  0  0  0  0
  186.5860  177.3020  134.5940 N   0  0  0  0  0  0  0  0  0  0  0  0
  187.2280  176.2040  134.9960 N   0  0  0  0  0  0  0  0  0  0  0  0
  190.1720  175.2760  137.0840 C   0  0  2  0  0  3  0  0  0  0  0  0
  194.8960  170.4510  135.5880 N   0  0  0  0  0  0  0  0  0  0  0  0
  194.5250  171.5240  135.8150 C   0  0  0  0  0  0  0  0  0  0  0  0
  191.2800  177.0940  140.2700 C   0  0  0  0  0  2  0  0  0  0  0  0
  190.1930  176.4360  141.0980 C   0  0  0  0  0  2  0  0  0  0  0  0
  189.9420  177.2310  142.2850 N   0  0  0  0  0  2  0  0  0  0  0  0
  188.9250  176.5290  143.0490 C   0  0  0  0  0  2  0  0  0  0  0  0
  184.5510  178.4100  143.0580 O   0  0  0  0  0  0  0  0  0  0  0  0
  185.6820  178.4370  145.1410 C   0  0  0  0  0  3  0  0  0  0  0  0
  186.7390  177.6010  143.0370 N   0  0  0  0  0  2  0  0  0  0  0  0
  187.7870  177.1270  145.2050 C   0  0  0  0  0  2  0  0  0  0  0  0
  188.0170  177.5280  143.7420 C   0  0  1  0  0  3  0  0  0  0  0  0
  185.6020  178.1600  143.7010 C   0  0  0  0  0  0  0  0  0  0  0  0
  186.7270  177.9890  145.8410 C   0  0  0  0  0  3  0  0  0  0  0  0
  1 22  1  0  0  0  0
  1  2  1  1  0  0  0
  3  6  2  0  0  0  0
  4 16  1  1  0  0  0
  4  7  1  0  0  0  0
  4 10  1  0  0  0  0
  5 25  1  0  0  0  0
  6  5  1  0  0  0  0
  8 17  1  6  0  0  0
  8  5  1  0  0  0  0
 10  9  1  6  0  0  0
 10  6  1  0  0  0  0
 11 19  1  0  0  0  0
 12 24  1  1  0  0  0
 12 16  1  0  0  0  0
 12 18  1  0  0  0  0
 13 17  1  0  0  0  0
 14  1  1  0  0  0  0
 14 13  1  0  0  0  0
 17 15  2  0  0  0  0
 18  9  1  0  0  0  0
 19 13  2  0  0  0  0
 20 21  1  0  0  0  0
 20 11  2  0  0  0  0
 21 14  2  0  0  0  0
 22  7  1  1  0  0  0
 22  8  1  0  0  0  0
 23 24  3  0  0  0  0
 25 26  1  0  0  0  0
 26 27  1  0  0  0  0
 27 28  1  0  0  0  0
 29 34  2  0  0  0  0
 30 35  2  0  0  0  0
 31 34  1  0  0  0  0
 31 33  1  0  0  0  0
 32 35  1  0  0  0  0
 33 28  1  6  0  0  0
 33 32  1  0  0  0  0
 34 30  1  0  0  0  0
M  END
>  <MODEL>
9

>  <REMARK>
 VINA RESULT:      -6.9      3.010      6.700
  Name = 
  6 active torsions:
  status: ('A' for Active; 'I' for Inactive)
    1  A    between atoms: C_8  and  N_31
    2  A    between atoms: C_8  and  C_33
    3  A    between atoms: N_9  and  C_33
    4  A    between atoms: C_17  and  C_32
    5  A    between atoms: C_18  and  C_23
    6  A    between atoms: C_18  and  N_31
                            x       y       z     vdW  Elec       q    Type
                         _______ _______ _______ _____ _____    ______ ____

>  <TORSDO>
F 6

$$$$
