=
 OpenBabel11032419083D

 42 48  0  0  1  0  0  0  0  0999 V2000
  185.6050  178.5190  141.3930 C   0  0  0  0  0  0  0  0  0  0  0  0
  187.4690  177.7550  142.7610 C   0  0  0  0  0  0  0  0  0  0  0  0
  184.7370  178.4280  142.5080 C   0  0  0  0  0  0  0  0  0  0  0  0
  182.5590  179.0870  143.5640 C   0  0  0  0  0  3  0  0  0  0  0  0
  185.1630  178.9650  140.1170 N   0  0  0  0  0  0  0  0  0  0  0  0
  186.9560  178.1820  141.5320 C   0  0  0  0  0  3  0  0  0  0  0  0
  181.0830  178.9750  142.0110 C   0  0  0  0  0  0  0  0  0  0  0  0
  183.2860  178.7580  142.4760 C   0  0  0  0  0  0  0  0  0  0  0  0
  180.0110  179.0060  141.0390 C   0  0  0  0  0  3  0  0  0  0  0  0
  182.0830  178.5160  140.1170 C   0  0  0  0  0  0  0  0  0  0  0  0
  182.2970  178.6750  141.4110 C   0  0  0  0  0  0  0  0  0  0  0  0
  185.2780  178.0190  143.7410 C   0  0  0  0  0  3  0  0  0  0  0  0
  183.1050  178.3200  139.0540 C   0  0  0  0  0  2  0  0  0  0  0  0
  186.6260  177.6830  143.8680 C   0  0  0  0  0  3  0  0  0  0  0  0
  184.1540  179.4230  139.1770 C   0  0  2  0  0  3  0  0  0  0  0  0
  185.3980  179.1810  138.6850 N   0  0  0  0  0  0  0  0  0  0  0  0
  181.1570  179.2540  143.2640 N   0  0  0  0  0  0  0  0  0  0  0  0
  180.6320  178.7210  139.8790 C   0  0  0  0  0  3  0  0  0  0  0  0
  189.7710  178.6430  143.0600 C   0  0  0  0  0  1  0  0  0  0  0  0
  188.9120  177.3990  142.9170 C   0  0  1  0  0  3  0  0  0  0  0  0
  189.0950  176.5290  144.0650 N   0  0  0  0  0  2  0  0  0  0  0  0
  190.5830  176.9040  145.9940 C   0  0  0  0  0  0  0  0  0  0  0  0
  190.3670  176.8030  144.5860 N   0  0  0  0  0  2  0  0  0  0  0  0
  191.7730  177.1420  146.4390 N   0  0  0  0  0  2  0  0  0  0  0  0
  189.4480  176.7600  146.9520 C   0  0  0  0  0  2  0  0  0  0  0  0
  189.4770  177.8520  148.0030 C   0  0  0  0  0  2  0  0  0  0  0  0
  188.0560  178.2500  148.3920 C   0  0  0  0  0  2  0  0  0  0  0  0
  187.0850  177.9730  147.2550 C   0  0  0  0  0  2  0  0  0  0  0  0
  185.9090  178.8930  147.3230 C   0  0  0  0  0  0  0  0  0  0  0  0
  184.6180  178.4220  146.9590 N   0  0  0  0  0  1  0  0  0  0  0  0
  186.0540  180.0800  147.7150 O   0  0  0  0  0  0  0  0  0  0  0  0
  185.6000  177.8590  138.0870 C   0  0  0  0  0  2  0  0  0  0  0  0
  186.5580  177.9630  136.9150 C   0  0  0  0  0  2  0  0  0  0  0  0
  187.9370  178.3810  137.3990 C   0  0  0  0  0  2  0  0  0  0  0  0
  189.5360  177.7700  139.2020 C   0  0  0  0  0  2  0  0  0  0  0  0
  189.6210  176.2780  137.0260 S   0  0  0  0  0  0  0  0  0  0  0  0
  190.4520  176.7060  139.5800 N   0  0  2  0  0  0  0  0  0  0  0  0
  192.1530  176.3560  137.9440 N   0  0  0  0  0  2  0  0  0  0  0  0
  191.6700  177.3470  140.0370 C   0  0  0  0  0  2  0  0  0  0  0  0
  190.8170  175.9680  138.3680 C   0  0  2  0  0  3  0  0  0  0  0  0
  192.7820  176.8740  139.1410 C   0  0  0  0  0  2  0  0  0  0  0  0
  188.5980  177.2390  138.1510 C   0  0  2  0  0  3  0  0  0  0  0  0
  1  6  2  0  0  0  0
  1  3  1  0  0  0  0
  2 20  1  0  0  0  0
  2 14  2  0  0  0  0
  3 12  2  0  0  0  0
  5  1  1  0  0  0  0
  6  2  1  0  0  0  0
  7 17  2  0  0  0  0
  8  3  1  0  0  0  0
  8  4  2  0  0  0  0
  9  7  1  0  0  0  0
 10 11  2  0  0  0  0
 11  7  1  0  0  0  0
 11  8  1  0  0  0  0
 12 14  1  0  0  0  0
 13 10  1  0  0  0  0
 15 13  1  6  0  0  0
 15  5  1  0  0  0  0
 16 15  1  0  0  0  0
 16  5  1  0  0  0  0
 17  4  1  0  0  0  0
 18 10  1  0  0  0  0
 18  9  2  0  0  0  0
 20 19  1  1  0  0  0
 20 21  1  0  0  0  0
 21 23  1  0  0  0  0
 22 24  2  0  0  0  0
 22 25  1  0  0  0  0
 23 22  1  0  0  0  0
 25 26  1  0  0  0  0
 26 27  1  0  0  0  0
 28 29  1  0  0  0  0
 28 27  1  0  0  0  0
 29 31  2  0  0  0  0
 30 29  1  0  0  0  0
 32 16  1  0  0  0  0
 33 34  1  0  0  0  0
 33 32  1  0  0  0  0
 36 42  1  0  0  0  0
 37 35  1  6  0  0  0
 37 39  1  0  0  0  0
 38 40  1  0  0  0  0
 38 41  1  0  0  0  0
 40 36  1  6  0  0  0
 40 37  1  0  0  0  0
 41 39  1  0  0  0  0
 42 34  1  6  0  0  0
 42 35  1  0  0  0  0
M  END
>  <MODEL>
1

>  <REMARK>
 VINA RESULT:      -9.4      0.000      0.000
  Name = 
  12 active torsions:
  status: ('A' for Active; 'I' for Inactive)
    1  A    between atoms: C_1  and  C_10
    2  A    between atoms: C_1  and  C_34
    3  A    between atoms: C_2  and  C_11
    4  A    between atoms: C_2  and  C_16
    5  A    between atoms: C_4  and  C_10
    6  A    between atoms: C_6  and  C_30
    7  A    between atoms: C_8  and  C_40
    8  A    between atoms: C_11  and  C_38
    9  A    between atoms: N_12  and  N_24
   10  A    between atoms: C_16  and  N_39
   11  A    between atoms: N_24  and  C_30
   12  A    between atoms: C_34  and  C_40
                            x       y       z     vdW  Elec       q    Type
                         _______ _______ _______ _____ _____    ______ ____

>  <TORSDO>
F 12

$$$$
=
 OpenBabel11032419083D

 42 48  0  0  1  0  0  0  0  0999 V2000
  186.2680  178.4180  141.3280 C   0  0  0  0  0  0  0  0  0  0  0  0
  188.5020  177.5300  141.7090 C   0  0  0  0  0  0  0  0  0  0  0  0
  185.9740  178.2970  142.7080 C   0  0  0  0  0  0  0  0  0  0  0  0
  184.5160  178.9660  144.6370 C   0  0  0  0  0  3  0  0  0  0  0  0
  185.3320  178.9420  140.3930 N   0  0  0  0  0  0  0  0  0  0  0  0
  187.5240  178.0350  140.8470 C   0  0  0  0  0  3  0  0  0  0  0  0
  182.5050  178.9780  143.8900 C   0  0  0  0  0  0  0  0  0  0  0  0
  184.6740  178.6710  143.3300 C   0  0  0  0  0  0  0  0  0  0  0  0
  181.1180  179.0900  143.4920 C   0  0  0  0  0  3  0  0  0  0  0  0
  182.5480  178.5850  141.7360 C   0  0  0  0  0  0  0  0  0  0  0  0
  183.3150  178.6720  142.8070 C   0  0  0  0  0  0  0  0  0  0  0  0
  186.9800  177.8090  143.5620 C   0  0  0  0  0  3  0  0  0  0  0  0
  182.9890  178.4140  140.3260 C   0  0  0  0  0  2  0  0  0  0  0  0
  188.2290  177.4280  143.0710 C   0  0  0  0  0  3  0  0  0  0  0  0
  184.0370  179.4770  140.0090 C   0  0  2  0  0  3  0  0  0  0  0  0
  184.9250  179.2230  139.0120 N   0  0  0  0  0  0  0  0  0  0  0  0
  183.1350  179.1890  144.9910 N   0  0  0  0  0  0  0  0  0  0  0  0
  181.1510  178.8460  142.1690 C   0  0  0  0  0  3  0  0  0  0  0  0
  190.1340  177.7490  139.8470 C   0  0  0  0  0  1  0  0  0  0  0  0
  189.8490  177.1240  141.2010 C   0  0  1  0  0  3  0  0  0  0  0  0
  190.8790  177.4990  142.1530 N   0  0  0  0  0  2  0  0  0  0  0  0
  191.6410  176.0650  144.0080 C   0  0  0  0  0  0  0  0  0  0  0  0
  191.4620  176.3100  142.6120 N   0  0  0  0  0  2  0  0  0  0  0  0
  192.1690  174.9510  144.3960 N   0  0  0  0  0  2  0  0  0  0  0  0
  191.2480  177.0910  145.0180 C   0  0  0  0  0  2  0  0  0  0  0  0
  191.5730  176.6260  146.4240 C   0  0  0  0  0  2  0  0  0  0  0  0
  190.4050  176.9170  147.3620 C   0  0  0  0  0  2  0  0  0  0  0  0
  189.1380  177.2140  146.5730 C   0  0  0  0  0  2  0  0  0  0  0  0
  188.0470  177.6890  147.4780 C   0  0  0  0  0  0  0  0  0  0  0  0
  188.3370  178.0030  148.8330 N   0  0  0  0  0  1  0  0  0  0  0  0
  186.8750  177.8250  147.0400 O   0  0  0  0  0  0  0  0  0  0  0  0
  184.7790  177.9280  138.3430 C   0  0  0  0  0  2  0  0  0  0  0  0
  185.6030  177.9070  137.0700 C   0  0  0  0  0  2  0  0  0  0  0  0
  187.0800  177.7640  137.4020 C   0  0  0  0  0  2  0  0  0  0  0  0
  188.1970  175.5600  137.1310 C   0  0  0  0  0  2  0  0  0  0  0  0
  189.2410  177.5610  135.7620 S   0  0  0  0  0  0  0  0  0  0  0  0
  189.1900  174.8950  136.3010 N   0  0  2  0  0  0  0  0  0  0  0  0
  191.3180  175.9690  136.4050 N   0  0  0  0  0  2  0  0  0  0  0  0
  190.0440  174.1390  137.1970 C   0  0  0  0  0  2  0  0  0  0  0  0
  190.0450  175.9240  135.7030 C   0  0  2  0  0  3  0  0  0  0  0  0
  191.4430  174.6650  137.0220 C   0  0  0  0  0  2  0  0  0  0  0  0
  187.7460  176.8100  136.4250 C   0  0  2  0  0  3  0  0  0  0  0  0
  1  3  1  0  0  0  0
  2 14  2  0  0  0  0
  3  8  1  0  0  0  0
  3 12  2  0  0  0  0
  4 17  1  0  0  0  0
  5  1  1  0  0  0  0
  6  1  2  0  0  0  0
  6  2  1  0  0  0  0
  7 17  2  0  0  0  0
  8  4  2  0  0  0  0
  9  7  1  0  0  0  0
 10 18  1  0  0  0  0
 10 11  2  0  0  0  0
 11  8  1  0  0  0  0
 11  7  1  0  0  0  0
 13 10  1  0  0  0  0
 14 12  1  0  0  0  0
 15 13  1  6  0  0  0
 15  5  1  0  0  0  0
 16 15  1  0  0  0  0
 16  5  1  0  0  0  0
 18  9  2  0  0  0  0
 20 19  1  6  0  0  0
 20  2  1  0  0  0  0
 20 21  1  0  0  0  0
 21 23  1  0  0  0  0
 22 24  2  0  0  0  0
 22 25  1  0  0  0  0
 23 22  1  0  0  0  0
 25 26  1  0  0  0  0
 26 27  1  0  0  0  0
 28 27  1  0  0  0  0
 28 29  1  0  0  0  0
 29 30  1  0  0  0  0
 31 29  2  0  0  0  0
 32 16  1  0  0  0  0
 33 34  1  0  0  0  0
 33 32  1  0  0  0  0
 36 42  1  0  0  0  0
 37 35  1  1  0  0  0
 37 39  1  0  0  0  0
 38 41  1  0  0  0  0
 40 36  1  1  0  0  0
 40 37  1  0  0  0  0
 40 38  1  0  0  0  0
 41 39  1  0  0  0  0
 42 35  1  0  0  0  0
 42 34  1  1  0  0  0
M  END
>  <MODEL>
2

>  <REMARK>
 VINA RESULT:      -9.1      1.718      2.363
  Name = 
  12 active torsions:
  status: ('A' for Active; 'I' for Inactive)
    1  A    between atoms: C_1  and  C_10
    2  A    between atoms: C_1  and  C_34
    3  A    between atoms: C_2  and  C_11
    4  A    between atoms: C_2  and  C_16
    5  A    between atoms: C_4  and  C_10
    6  A    between atoms: C_6  and  C_30
    7  A    between atoms: C_8  and  C_40
    8  A    between atoms: C_11  and  C_38
    9  A    between atoms: N_12  and  N_24
   10  A    between atoms: C_16  and  N_39
   11  A    between atoms: N_24  and  C_30
   12  A    between atoms: C_34  and  C_40
                            x       y       z     vdW  Elec       q    Type
                         _______ _______ _______ _____ _____    ______ ____

>  <TORSDO>
F 12

$$$$
=
 OpenBabel11032419083D

 42 48  0  0  1  0  0  0  0  0999 V2000
  186.1890  178.4040  141.4240 C   0  0  0  0  0  0  0  0  0  0  0  0
  188.0100  177.8440  142.9410 C   0  0  0  0  0  0  0  0  0  0  0  0
  185.2650  178.3410  142.4950 C   0  0  0  0  0  0  0  0  0  0  0  0
  182.9980  178.9450  143.3840 C   0  0  0  0  0  3  0  0  0  0  0  0
  185.7970  178.7350  140.0970 N   0  0  0  0  0  0  0  0  0  0  0  0
  187.5460  178.1560  141.6580 C   0  0  0  0  0  3  0  0  0  0  0  0
  181.6210  178.6420  141.7660 C   0  0  0  0  0  0  0  0  0  0  0  0
  183.8030  178.5840  142.3630 C   0  0  0  0  0  0  0  0  0  0  0  0
  180.6070  178.5440  140.7390 C   0  0  0  0  0  3  0  0  0  0  0  0
  182.7510  178.1110  139.9660 C   0  0  0  0  0  0  0  0  0  0  0  0
  182.8820  178.3710  141.2550 C   0  0  0  0  0  0  0  0  0  0  0  0
  185.7560  178.0490  143.7810 C   0  0  0  0  0  3  0  0  0  0  0  0
  183.8410  177.9020  138.9760 C   0  0  0  0  0  2  0  0  0  0  0  0
  187.1100  177.8000  144.0040 C   0  0  0  0  0  3  0  0  0  0  0  0
  184.8210  179.0690  139.0750 C   0  0  2  0  0  3  0  0  0  0  0  0
  186.1020  178.8650  138.6680 N   0  0  0  0  0  0  0  0  0  0  0  0
  181.6090  179.0090  142.9980 N   0  0  0  0  0  0  0  0  0  0  0  0
  181.3070  178.2160  139.6370 C   0  0  0  0  0  3  0  0  0  0  0  0
  190.2880  177.8200  141.9480 C   0  0  0  0  0  1  0  0  0  0  0  0
  189.4590  177.5830  143.1980 C   0  0  1  0  0  3  0  0  0  0  0  0
  189.9360  178.4230  144.2820 N   0  0  0  0  0  2  0  0  0  0  0  0
  190.8490  177.0350  146.1040 C   0  0  0  0  0  0  0  0  0  0  0  0
  191.0110  177.7490  144.8780 N   0  0  0  0  0  2  0  0  0  0  0  0
  191.8580  176.4130  146.6160 N   0  0  0  0  0  2  0  0  0  0  0  0
  189.5330  177.0190  146.8080 C   0  0  0  0  0  2  0  0  0  0  0  0
  189.5140  178.0110  147.9550 C   0  0  0  0  0  2  0  0  0  0  0  0
  188.0800  178.2760  148.4030 C   0  0  0  0  0  2  0  0  0  0  0  0
  187.0980  177.9850  147.2780 C   0  0  0  0  0  2  0  0  0  0  0  0
  185.9230  178.9050  147.3460 C   0  0  0  0  0  0  0  0  0  0  0  0
  184.6410  178.4500  146.9320 N   0  0  0  0  0  1  0  0  0  0  0  0
  186.0600  180.0790  147.7800 O   0  0  0  0  0  0  0  0  0  0  0  0
  186.4080  177.5190  138.1780 C   0  0  0  0  0  2  0  0  0  0  0  0
  187.5440  177.5810  137.1750 C   0  0  0  0  0  2  0  0  0  0  0  0
  188.7650  178.2340  137.8020 C   0  0  0  0  0  2  0  0  0  0  0  0
  189.8130  176.7270  136.1240 C   0  0  0  0  0  2  0  0  0  0  0  0
  190.3830  176.2180  138.6510 S   0  0  0  0  0  0  0  0  0  0  0  0
  190.8320  175.6940  136.0200 N   0  0  2  0  0  0  0  0  0  0  0  0
  190.3640  173.8200  137.4210 N   0  0  0  0  0  2  0  0  0  0  0  0
  190.2710  174.6360  135.2020 C   0  0  0  0  0  2  0  0  0  0  0  0
  191.0280  175.1130  137.3510 C   0  0  2  0  0  3  0  0  0  0  0  0
  190.2550  173.3880  136.0430 C   0  0  0  0  0  2  0  0  0  0  0  0
  190.0220  177.4740  137.4140 C   0  0  2  0  0  3  0  0  0  0  0  0
  1  6  2  0  0  0  0
  1  3  1  0  0  0  0
  2 20  1  0  0  0  0
  2 14  2  0  0  0  0
  3 12  2  0  0  0  0
  5  1  1  0  0  0  0
  6  2  1  0  0  0  0
  7 17  2  0  0  0  0
  8  3  1  0  0  0  0
  8  4  2  0  0  0  0
  9  7  1  0  0  0  0
 10 11  2  0  0  0  0
 11  7  1  0  0  0  0
 11  8  1  0  0  0  0
 12 14  1  0  0  0  0
 13 10  1  0  0  0  0
 15 13  1  6  0  0  0
 15  5  1  0  0  0  0
 16 15  1  0  0  0  0
 16  5  1  0  0  0  0
 17  4  1  0  0  0  0
 18 10  1  0  0  0  0
 18  9  2  0  0  0  0
 20 19  1  6  0  0  0
 20 21  1  0  0  0  0
 21 23  1  0  0  0  0
 22 24  2  0  0  0  0
 22 25  1  0  0  0  0
 23 22  1  0  0  0  0
 25 26  1  0  0  0  0
 26 27  1  0  0  0  0
 28 29  1  0  0  0  0
 28 27  1  0  0  0  0
 29 31  2  0  0  0  0
 30 29  1  0  0  0  0
 32 16  1  0  0  0  0
 33 34  1  0  0  0  0
 33 32  1  0  0  0  0
 35 42  1  0  0  0  0
 37 39  1  6  0  0  0
 37 35  1  0  0  0  0
 37 40  1  0  0  0  0
 39 41  1  0  0  0  0
 40 38  1  6  0  0  0
 40 36  1  0  0  0  0
 41 38  1  0  0  0  0
 42 34  1  1  0  0  0
 42 36  1  0  0  0  0
M  END
>  <MODEL>
3

>  <REMARK>
 VINA RESULT:      -9.0      1.309      1.711
  Name = 
  12 active torsions:
  status: ('A' for Active; 'I' for Inactive)
    1  A    between atoms: C_1  and  C_10
    2  A    between atoms: C_1  and  C_34
    3  A    between atoms: C_2  and  C_11
    4  A    between atoms: C_2  and  C_16
    5  A    between atoms: C_4  and  C_10
    6  A    between atoms: C_6  and  C_30
    7  A    between atoms: C_8  and  C_40
    8  A    between atoms: C_11  and  C_38
    9  A    between atoms: N_12  and  N_24
   10  A    between atoms: C_16  and  N_39
   11  A    between atoms: N_24  and  C_30
   12  A    between atoms: C_34  and  C_40
                            x       y       z     vdW  Elec       q    Type
                         _______ _______ _______ _____ _____    ______ ____

>  <TORSDO>
F 12

$$$$
=
 OpenBabel11032419083D

 42 48  0  0  1  0  0  0  0  0999 V2000
  186.9780  177.5340  143.7780 C   0  0  0  0  0  0  0  0  0  0  0  0
  184.8160  178.6080  143.4600 C   0  0  0  0  0  0  0  0  0  0  0  0
  186.9210  177.8090  145.1660 C   0  0  0  0  0  0  0  0  0  0  0  0
  187.7680  177.2940  147.4700 C   0  0  0  0  0  3  0  0  0  0  0  0
  188.0660  176.8370  143.1830 N   0  0  0  0  0  0  0  0  0  0  0  0
  185.9290  177.9360  142.9440 C   0  0  0  0  0  3  0  0  0  0  0  0
  189.8930  177.0560  147.2870 C   0  0  0  0  0  0  0  0  0  0  0  0
  187.9770  177.4310  146.1450 C   0  0  0  0  0  0  0  0  0  0  0  0
  191.3180  176.8040  147.2830 C   0  0  0  0  0  3  0  0  0  0  0  0
  190.4380  177.1760  145.1690 C   0  0  0  0  0  0  0  0  0  0  0  0
  189.4180  177.2750  146.0030 C   0  0  0  0  0  0  0  0  0  0  0  0
  185.7820  178.4650  145.6680 C   0  0  0  0  0  3  0  0  0  0  0  0
  190.3890  177.1980  143.6830 C   0  0  0  0  0  2  0  0  0  0  0  0
  184.7420  178.8630  144.8280 C   0  0  0  0  0  3  0  0  0  0  0  0
  189.3580  176.1740  143.2130 C   0  0  2  0  0  3  0  0  0  0  0  0
  188.7830  176.3580  141.9960 N   0  0  0  0  0  0  0  0  0  0  0  0
  188.9860  177.0270  148.1980 N   0  0  0  0  0  0  0  0  0  0  0  0
  191.6460  176.8810  145.9800 C   0  0  0  0  0  3  0  0  0  0  0  0
  183.7250  178.2950  141.2490 C   0  0  0  0  0  1  0  0  0  0  0  0
  183.6890  179.0340  142.5750 C   0  0  1  0  0  3  0  0  0  0  0  0
  182.4170  178.8120  143.2380 N   0  0  0  0  0  2  0  0  0  0  0  0
  180.2360  179.7560  142.5850 C   0  0  0  0  0  0  0  0  0  0  0  0
  181.6070  179.9180  142.9480 N   0  0  0  0  0  2  0  0  0  0  0  0
  179.5150  180.8000  142.3390 N   0  0  0  0  0  2  0  0  0  0  0  0
  179.6350  178.3960  142.4650 C   0  0  0  0  0  2  0  0  0  0  0  0
  179.1020  178.1540  141.0660 C   0  0  0  0  0  2  0  0  0  0  0  0
  180.2560  177.9650  140.0850 C   0  0  0  0  0  2  0  0  0  0  0  0
  180.6250  176.4940  139.9600 C   0  0  0  0  0  2  0  0  0  0  0  0
  181.7150  176.3020  138.9560 C   0  0  0  0  0  0  0  0  0  0  0  0
  181.6560  176.9810  137.7090 N   0  0  0  0  0  1  0  0  0  0  0  0
  182.6910  175.5520  139.2150 O   0  0  0  0  0  0  0  0  0  0  0  0
  189.2180  177.5470  141.2580 C   0  0  0  0  0  2  0  0  0  0  0  0
  188.3110  177.7750  140.0650 C   0  0  0  0  0  2  0  0  0  0  0  0
  189.0570  178.5200  138.9700 C   0  0  0  0  0  2  0  0  0  0  0  0
  187.1720  178.2530  137.3710 C   0  0  0  0  0  2  0  0  0  0  0  0
  188.8440  176.2170  137.5380 S   0  0  0  0  0  0  0  0  0  0  0  0
  186.7230  177.3810  136.2970 N   0  0  2  0  0  0  0  0  0  0  0  0
  186.4340  175.1270  137.0240 N   0  0  0  0  0  2  0  0  0  0  0  0
  185.3080  177.1450  136.5160 C   0  0  0  0  0  2  0  0  0  0  0  0
  187.3780  176.0810  136.4620 C   0  0  2  0  0  3  0  0  0  0  0  0
  185.1300  175.6610  136.6920 C   0  0  0  0  0  2  0  0  0  0  0  0
  188.6390  178.0030  137.6050 C   0  0  2  0  0  3  0  0  0  0  0  0
  1  3  1  0  0  0  0
  2 14  2  0  0  0  0
  3 12  2  0  0  0  0
  3  8  1  0  0  0  0
  4 17  1  0  0  0  0
  5 15  1  0  0  0  0
  5  1  1  0  0  0  0
  6  2  1  0  0  0  0
  6  1  2  0  0  0  0
  7 17  2  0  0  0  0
  8  4  2  0  0  0  0
  9  7  1  0  0  0  0
 10 18  1  0  0  0  0
 10 11  2  0  0  0  0
 11  8  1  0  0  0  0
 11  7  1  0  0  0  0
 13 10  1  0  0  0  0
 14 12  1  0  0  0  0
 15 13  1  6  0  0  0
 16  5  1  0  0  0  0
 16 15  1  0  0  0  0
 18  9  2  0  0  0  0
 20 19  1  6  0  0  0
 20 21  1  0  0  0  0
 20  2  1  0  0  0  0
 22 23  1  0  0  0  0
 23 21  1  0  0  0  0
 24 22  2  0  0  0  0
 25 22  1  0  0  0  0
 26 25  1  0  0  0  0
 27 26  1  0  0  0  0
 28 27  1  0  0  0  0
 29 31  2  0  0  0  0
 29 28  1  0  0  0  0
 30 29  1  0  0  0  0
 32 16  1  0  0  0  0
 33 32  1  0  0  0  0
 34 33  1  0  0  0  0
 35 42  1  0  0  0  0
 36 42  1  0  0  0  0
 37 40  1  0  0  0  0
 37 39  1  1  0  0  0
 37 35  1  0  0  0  0
 39 41  1  0  0  0  0
 40 38  1  1  0  0  0
 40 36  1  0  0  0  0
 41 38  1  0  0  0  0
 42 34  1  1  0  0  0
M  END
>  <MODEL>
4

>  <REMARK>
 VINA RESULT:      -8.9      2.646      7.824
  Name = 
  12 active torsions:
  status: ('A' for Active; 'I' for Inactive)
    1  A    between atoms: C_1  and  C_10
    2  A    between atoms: C_1  and  C_34
    3  A    between atoms: C_2  and  C_11
    4  A    between atoms: C_2  and  C_16
    5  A    between atoms: C_4  and  C_10
    6  A    between atoms: C_6  and  C_30
    7  A    between atoms: C_8  and  C_40
    8  A    between atoms: C_11  and  C_38
    9  A    between atoms: N_12  and  N_24
   10  A    between atoms: C_16  and  N_39
   11  A    between atoms: N_24  and  C_30
   12  A    between atoms: C_34  and  C_40
                            x       y       z     vdW  Elec       q    Type
                         _______ _______ _______ _____ _____    ______ ____

>  <TORSDO>
F 12

$$$$
=
 OpenBabel11032419083D

 42 48  0  0  1  0  0  0  0  0999 V2000
  186.3740  178.4390  141.3340 C   0  0  0  0  0  0  0  0  0  0  0  0
  188.5860  177.5390  141.8100 C   0  0  0  0  0  0  0  0  0  0  0  0
  186.0140  178.2990  142.6970 C   0  0  0  0  0  0  0  0  0  0  0  0
  184.4660  178.9440  144.5620 C   0  0  0  0  0  3  0  0  0  0  0  0
  185.4860  178.9780  140.3630 N   0  0  0  0  0  0  0  0  0  0  0  0
  187.6510  178.0590  140.9080 C   0  0  0  0  0  3  0  0  0  0  0  0
  182.4930  178.9720  143.7200 C   0  0  0  0  0  0  0  0  0  0  0  0
  184.6870  178.6680  143.2610 C   0  0  0  0  0  0  0  0  0  0  0  0
  181.1270  179.0940  143.2570 C   0  0  0  0  0  3  0  0  0  0  0  0
  182.6390  178.6110  141.5650 C   0  0  0  0  0  0  0  0  0  0  0  0
  183.3540  178.6800  142.6730 C   0  0  0  0  0  0  0  0  0  0  0  0
  186.9770  177.7960  143.5910 C   0  0  0  0  0  3  0  0  0  0  0  0
  183.1470  178.4580  140.1750 C   0  0  0  0  0  2  0  0  0  0  0  0
  188.2470  177.4170  143.1550 C   0  0  0  0  0  3  0  0  0  0  0  0
  184.2120  179.5230  139.9250 C   0  0  2  0  0  3  0  0  0  0  0  0
  185.1460  179.2810  138.9680 N   0  0  0  0  0  0  0  0  0  0  0  0
  183.0700  179.1660  144.8530 N   0  0  0  0  0  0  0  0  0  0  0  0
  181.2240  178.8690  141.9340 C   0  0  0  0  0  3  0  0  0  0  0  0
  190.2870  177.7420  140.0090 C   0  0  0  0  0  1  0  0  0  0  0  0
  189.9540  177.1370  141.3610 C   0  0  1  0  0  3  0  0  0  0  0  0
  190.9430  177.5350  142.3460 N   0  0  0  0  0  2  0  0  0  0  0  0
  191.6740  176.0720  144.1910 C   0  0  0  0  0  0  0  0  0  0  0  0
  191.5660  176.3630  142.7970 N   0  0  0  0  0  2  0  0  0  0  0  0
  192.2410  174.9750  144.5690 N   0  0  0  0  0  2  0  0  0  0  0  0
  191.1590  177.0310  145.2120 C   0  0  0  0  0  2  0  0  0  0  0  0
  191.1620  176.4110  146.5950 C   0  0  0  0  0  2  0  0  0  0  0  0
  190.2370  177.1890  147.5260 C   0  0  0  0  0  2  0  0  0  0  0  0
  189.0280  177.7200  146.7700 C   0  0  0  0  0  2  0  0  0  0  0  0
  187.8430  177.8350  147.6740 C   0  0  0  0  0  0  0  0  0  0  0  0
  186.6050  178.3110  147.1620 N   0  0  0  0  0  1  0  0  0  0  0  0
  187.9340  177.5010  148.8840 O   0  0  0  0  0  0  0  0  0  0  0  0
  185.0300  177.9960  138.2740 C   0  0  0  0  0  2  0  0  0  0  0  0
  186.3270  177.6770  137.5570 C   0  0  0  0  0  2  0  0  0  0  0  0
  186.0810  177.5250  136.0650 C   0  0  0  0  0  2  0  0  0  0  0  0
  184.9230  175.3590  135.6750 C   0  0  0  0  0  2  0  0  0  0  0  0
  187.2840  175.2130  136.8450 S   0  0  0  0  0  0  0  0  0  0  0  0
  185.1720  173.9270  135.7130 N   0  0  2  0  0  0  0  0  0  0  0  0
  185.8420  173.1850  137.8800 N   0  0  0  0  0  2  0  0  0  0  0  0
  184.0280  173.3220  136.3670 C   0  0  0  0  0  2  0  0  0  0  0  0
  186.3150  173.6880  136.5990 C   0  0  2  0  0  3  0  0  0  0  0  0
  184.5420  172.6170  137.5940 C   0  0  0  0  0  2  0  0  0  0  0  0
  186.2490  176.0730  135.6510 C   0  0  2  0  0  3  0  0  0  0  0  0
  1  3  1  0  0  0  0
  2 14  2  0  0  0  0
  3  8  1  0  0  0  0
  3 12  2  0  0  0  0
  4 17  1  0  0  0  0
  5  1  1  0  0  0  0
  6  1  2  0  0  0  0
  6  2  1  0  0  0  0
  7 17  2  0  0  0  0
  8  4  2  0  0  0  0
  9  7  1  0  0  0  0
 10 18  1  0  0  0  0
 10 11  2  0  0  0  0
 11  8  1  0  0  0  0
 11  7  1  0  0  0  0
 13 10  1  0  0  0  0
 14 12  1  0  0  0  0
 15 13  1  6  0  0  0
 15  5  1  0  0  0  0
 16 15  1  0  0  0  0
 16  5  1  0  0  0  0
 18  9  2  0  0  0  0
 20 19  1  6  0  0  0
 20  2  1  0  0  0  0
 20 21  1  0  0  0  0
 21 23  1  0  0  0  0
 22 24  2  0  0  0  0
 22 25  1  0  0  0  0
 23 22  1  0  0  0  0
 25 26  1  0  0  0  0
 26 27  1  0  0  0  0
 28 27  1  0  0  0  0
 28 29  1  0  0  0  0
 29 31  2  0  0  0  0
 30 29  1  0  0  0  0
 32 16  1  0  0  0  0
 33 32  1  0  0  0  0
 34 33  1  0  0  0  0
 37 35  1  1  0  0  0
 37 39  1  0  0  0  0
 37 40  1  0  0  0  0
 39 41  1  0  0  0  0
 40 36  1  1  0  0  0
 40 38  1  0  0  0  0
 41 38  1  0  0  0  0
 42 35  1  0  0  0  0
 42 34  1  1  0  0  0
 42 36  1  0  0  0  0
M  END
>  <MODEL>
5

>  <REMARK>
 VINA RESULT:      -8.7      2.376      3.462
  Name = 
  12 active torsions:
  status: ('A' for Active; 'I' for Inactive)
    1  A    between atoms: C_1  and  C_10
    2  A    between atoms: C_1  and  C_34
    3  A    between atoms: C_2  and  C_11
    4  A    between atoms: C_2  and  C_16
    5  A    between atoms: C_4  and  C_10
    6  A    between atoms: C_6  and  C_30
    7  A    between atoms: C_8  and  C_40
    8  A    between atoms: C_11  and  C_38
    9  A    between atoms: N_12  and  N_24
   10  A    between atoms: C_16  and  N_39
   11  A    between atoms: N_24  and  C_30
   12  A    between atoms: C_34  and  C_40
                            x       y       z     vdW  Elec       q    Type
                         _______ _______ _______ _____ _____    ______ ____

>  <TORSDO>
F 12

$$$$
=
 OpenBabel11032419083D

 42 48  0  0  1  0  0  0  0  0999 V2000
  186.6860  177.7790  143.8600 C   0  0  0  0  0  0  0  0  0  0  0  0
  184.5060  178.8310  143.5990 C   0  0  0  0  0  0  0  0  0  0  0  0
  186.6160  177.9620  145.2630 C   0  0  0  0  0  0  0  0  0  0  0  0
  187.4620  177.3140  147.5340 C   0  0  0  0  0  3  0  0  0  0  0  0
  187.7900  177.1430  143.2280 N   0  0  0  0  0  0  0  0  0  0  0  0
  185.6340  178.2150  143.0470 C   0  0  0  0  0  3  0  0  0  0  0  0
  189.5910  177.1280  147.3490 C   0  0  0  0  0  0  0  0  0  0  0  0
  187.6740  177.5410  146.2210 C   0  0  0  0  0  0  0  0  0  0  0  0
  191.0210  176.9030  147.3380 C   0  0  0  0  0  3  0  0  0  0  0  0
  190.1440  177.3960  145.2460 C   0  0  0  0  0  0  0  0  0  0  0  0
  189.1190  177.4220  146.0780 C   0  0  0  0  0  0  0  0  0  0  0  0
  185.4630  178.5630  145.7990 C   0  0  0  0  0  3  0  0  0  0  0  0
  190.1030  177.5130  143.7650 C   0  0  0  0  0  2  0  0  0  0  0  0
  184.4200  178.9960  144.9790 C   0  0  0  0  0  3  0  0  0  0  0  0
  189.0940  176.5030  143.2230 C   0  0  2  0  0  3  0  0  0  0  0  0
  188.5210  176.7550  142.0160 N   0  0  0  0  0  0  0  0  0  0  0  0
  188.6800  177.0220  148.2500 N   0  0  0  0  0  0  0  0  0  0  0  0
  191.3540  177.0710  146.0450 C   0  0  0  0  0  3  0  0  0  0  0  0
  183.0600  178.2750  141.6550 C   0  0  0  0  0  1  0  0  0  0  0  0
  183.3760  179.2930  142.7360 C   0  0  1  0  0  3  0  0  0  0  0  0
  182.1970  179.5480  143.5450 N   0  0  0  0  0  2  0  0  0  0  0  0
  179.9430  179.0500  142.6800 C   0  0  0  0  0  0  0  0  0  0  0  0
  181.2220  178.6230  143.1480 N   0  0  0  0  0  2  0  0  0  0  0  0
  179.0740  178.1690  142.3080 N   0  0  0  0  0  2  0  0  0  0  0  0
  179.5930  180.5000  142.6360 C   0  0  0  0  0  2  0  0  0  0  0  0
  178.9850  180.8770  141.2990 C   0  0  0  0  0  2  0  0  0  0  0  0
  180.0560  180.8780  140.2120 C   0  0  0  0  0  2  0  0  0  0  0  0
  179.7300  181.8970  139.1310 C   0  0  0  0  0  2  0  0  0  0  0  0
  180.8760  182.0550  138.1850 C   0  0  0  0  0  0  0  0  0  0  0  0
  180.6370  182.4590  136.8430 N   0  0  0  0  0  1  0  0  0  0  0  0
  182.0540  181.8450  138.5750 O   0  0  0  0  0  0  0  0  0  0  0  0
  188.9380  177.9970  141.3600 C   0  0  0  0  0  2  0  0  0  0  0  0
  188.2600  178.1200  140.0090 C   0  0  0  0  0  2  0  0  0  0  0  0
  189.2930  178.0740  138.8950 C   0  0  0  0  0  2  0  0  0  0  0  0
  190.8050  176.1100  138.7020 C   0  0  0  0  0  2  0  0  0  0  0  0
  189.3300  176.6470  136.5800 S   0  0  0  0  0  0  0  0  0  0  0  0
  191.0650  174.9710  137.8350 N   0  0  2  0  0  0  0  0  0  0  0  0
  191.6350  175.6370  135.6160 N   0  0  0  0  0  2  0  0  0  0  0  0
  192.5050  174.8830  137.6820 C   0  0  0  0  0  2  0  0  0  0  0  0
  190.5380  175.2830  136.5040 C   0  0  2  0  0  3  0  0  0  0  0  0
  192.8040  175.0280  136.2150 C   0  0  0  0  0  2  0  0  0  0  0  0
  189.4400  176.6540  138.3750 C   0  0  2  0  0  3  0  0  0  0  0  0
  1  3  1  0  0  0  0
  2 14  2  0  0  0  0
  3 12  2  0  0  0  0
  3  8  1  0  0  0  0
  4 17  1  0  0  0  0
  5  1  1  0  0  0  0
  6  2  1  0  0  0  0
  6  1  2  0  0  0  0
  7 17  2  0  0  0  0
  8  4  2  0  0  0  0
  9  7  1  0  0  0  0
 10 18  1  0  0  0  0
 10 11  2  0  0  0  0
 11  8  1  0  0  0  0
 11  7  1  0  0  0  0
 13 10  1  0  0  0  0
 14 12  1  0  0  0  0
 15  5  1  0  0  0  0
 15 13  1  6  0  0  0
 16 15  1  0  0  0  0
 16  5  1  0  0  0  0
 18  9  2  0  0  0  0
 20 19  1  6  0  0  0
 20 21  1  0  0  0  0
 20  2  1  0  0  0  0
 22 23  1  0  0  0  0
 23 21  1  0  0  0  0
 24 22  2  0  0  0  0
 25 22  1  0  0  0  0
 26 25  1  0  0  0  0
 27 26  1  0  0  0  0
 28 27  1  0  0  0  0
 29 31  2  0  0  0  0
 29 28  1  0  0  0  0
 30 29  1  0  0  0  0
 32 16  1  0  0  0  0
 33 32  1  0  0  0  0
 34 33  1  0  0  0  0
 36 42  1  0  0  0  0
 37 39  1  6  0  0  0
 37 35  1  0  0  0  0
 38 41  1  0  0  0  0
 40 38  1  6  0  0  0
 40 36  1  0  0  0  0
 40 37  1  0  0  0  0
 41 39  1  0  0  0  0
 42 35  1  0  0  0  0
 42 34  1  6  0  0  0
M  END
>  <MODEL>
6

>  <REMARK>
 VINA RESULT:      -8.7      2.630      7.731
  Name = 
  12 active torsions:
  status: ('A' for Active; 'I' for Inactive)
    1  A    between atoms: C_1  and  C_10
    2  A    between atoms: C_1  and  C_34
    3  A    between atoms: C_2  and  C_11
    4  A    between atoms: C_2  and  C_16
    5  A    between atoms: C_4  and  C_10
    6  A    between atoms: C_6  and  C_30
    7  A    between atoms: C_8  and  C_40
    8  A    between atoms: C_11  and  C_38
    9  A    between atoms: N_12  and  N_24
   10  A    between atoms: C_16  and  N_39
   11  A    between atoms: N_24  and  C_30
   12  A    between atoms: C_34  and  C_40
                            x       y       z     vdW  Elec       q    Type
                         _______ _______ _______ _____ _____    ______ ____

>  <TORSDO>
F 12

$$$$
=
 OpenBabel11032419083D

 42 48  0  0  1  0  0  0  0  0999 V2000
  187.9320  178.2010  141.8460 C   0  0  0  0  0  0  0  0  0  0  0  0
  189.8340  177.2190  140.6850 C   0  0  0  0  0  0  0  0  0  0  0  0
  188.4010  177.6780  143.0750 C   0  0  0  0  0  0  0  0  0  0  0  0
  188.3330  177.7570  145.5820 C   0  0  0  0  0  3  0  0  0  0  0  0
  186.7500  178.9870  141.7530 N   0  0  0  0  0  0  0  0  0  0  0  0
  188.6510  177.9660  140.6690 C   0  0  0  0  0  3  0  0  0  0  0  0
  186.2700  178.0090  146.1160 C   0  0  0  0  0  0  0  0  0  0  0  0
  187.7190  177.8630  144.3850 C   0  0  0  0  0  0  0  0  0  0  0  0
  184.9280  178.2470  146.6020 C   0  0  0  0  0  3  0  0  0  0  0  0
  185.0930  178.2740  144.2880 C   0  0  0  0  0  0  0  0  0  0  0  0
  186.3140  178.0320  144.7300 C   0  0  0  0  0  0  0  0  0  0  0  0
  189.6050  176.9490  143.0730 C   0  0  0  0  0  3  0  0  0  0  0  0
  184.6800  178.5250  142.8820 C   0  0  0  0  0  2  0  0  0  0  0  0
  190.3130  176.7190  141.8930 C   0  0  0  0  0  3  0  0  0  0  0  0
  185.5660  179.6250  142.3010 C   0  0  2  0  0  3  0  0  0  0  0  0
  185.7280  179.6700  140.9520 N   0  0  0  0  0  0  0  0  0  0  0  0
  187.4140  177.8780  146.6880 N   0  0  0  0  0  0  0  0  0  0  0  0
  184.2100  178.4070  145.4750 C   0  0  0  0  0  3  0  0  0  0  0  0
  192.1000  177.1360  139.6670 C   0  0  0  0  0  1  0  0  0  0  0  0
  190.6090  176.9700  139.4310 C   0  0  1  0  0  3  0  0  0  0  0  0
  190.3280  175.6390  138.9220 N   0  0  0  0  0  2  0  0  0  0  0  0
  191.4800  174.9770  136.8460 C   0  0  0  0  0  0  0  0  0  0  0  0
  191.4810  175.2040  138.2560 N   0  0  0  0  0  2  0  0  0  0  0  0
  192.5660  174.5910  136.2630 N   0  0  0  0  0  2  0  0  0  0  0  0
  190.2340  175.1590  136.0460 C   0  0  0  0  0  2  0  0  0  0  0  0
  190.3310  176.3800  135.1520 C   0  0  0  0  0  2  0  0  0  0  0  0
  189.0420  177.1940  135.2260 C   0  0  0  0  0  2  0  0  0  0  0  0
  189.0130  178.0510  136.4820 C   0  0  0  0  0  2  0  0  0  0  0  0
  187.6610  178.0190  137.1170 C   0  0  0  0  0  0  0  0  0  0  0  0
  187.1280  176.7890  137.5900 N   0  0  0  0  0  1  0  0  0  0  0  0
  186.9960  179.0800  137.2470 O   0  0  0  0  0  0  0  0  0  0  0  0
  185.0270  178.6330  140.1910 C   0  0  0  0  0  2  0  0  0  0  0  0
  184.1600  179.2730  139.1240 C   0  0  0  0  0  2  0  0  0  0  0  0
  183.5140  178.2040  138.2590 C   0  0  0  0  0  2  0  0  0  0  0  0
  181.6370  179.8330  138.3460 C   0  0  0  0  0  2  0  0  0  0  0  0
  181.2970  177.6020  139.7150 S   0  0  0  0  0  0  0  0  0  0  0  0
  180.2520  179.9310  138.7780 N   0  0  2  0  0  0  0  0  0  0  0  0
  180.0020  179.5070  141.1130 N   0  0  0  0  0  2  0  0  0  0  0  0
  180.1180  181.2010  139.4650 C   0  0  0  0  0  2  0  0  0  0  0  0
  180.0170  178.8990  139.7910 C   0  0  2  0  0  3  0  0  0  0  0  0
  179.6810  180.8990  140.8730 C   0  0  0  0  0  2  0  0  0  0  0  0
  182.0040  178.3750  138.2530 C   0  0  2  0  0  3  0  0  0  0  0  0
  1  3  1  0  0  0  0
  2 14  2  0  0  0  0
  3  8  1  0  0  0  0
  4 17  1  0  0  0  0
  5  1  1  0  0  0  0
  5 15  1  0  0  0  0
  6  2  1  0  0  0  0
  6  1  2  0  0  0  0
  7  9  1  0  0  0  0
  7 17  2  0  0  0  0
  8 11  1  0  0  0  0
  8  4  2  0  0  0  0
 10 11  2  0  0  0  0
 10 18  1  0  0  0  0
 11  7  1  0  0  0  0
 12  3  2  0  0  0  0
 13 10  1  0  0  0  0
 14 12  1  0  0  0  0
 15 13  1  6  0  0  0
 16  5  1  0  0  0  0
 16 15  1  0  0  0  0
 18  9  2  0  0  0  0
 20 19  1  1  0  0  0
 20  2  1  0  0  0  0
 21 20  1  0  0  0  0
 22 23  1  0  0  0  0
 23 21  1  0  0  0  0
 24 22  2  0  0  0  0
 25 22  1  0  0  0  0
 26 27  1  0  0  0  0
 26 25  1  0  0  0  0
 27 28  1  0  0  0  0
 28 29  1  0  0  0  0
 29 31  2  0  0  0  0
 29 30  1  0  0  0  0
 32 16  1  0  0  0  0
 33 32  1  0  0  0  0
 34 33  1  0  0  0  0
 37 35  1  1  0  0  0
 37 39  1  0  0  0  0
 37 40  1  0  0  0  0
 39 41  1  0  0  0  0
 40 36  1  1  0  0  0
 40 38  1  0  0  0  0
 41 38  1  0  0  0  0
 42 34  1  1  0  0  0
 42 35  1  0  0  0  0
 42 36  1  0  0  0  0
M  END
>  <MODEL>
7

>  <REMARK>
 VINA RESULT:      -8.5      2.842      7.887
  Name = 
  12 active torsions:
  status: ('A' for Active; 'I' for Inactive)
    1  A    between atoms: C_1  and  C_10
    2  A    between atoms: C_1  and  C_34
    3  A    between atoms: C_2  and  C_11
    4  A    between atoms: C_2  and  C_16
    5  A    between atoms: C_4  and  C_10
    6  A    between atoms: C_6  and  C_30
    7  A    between atoms: C_8  and  C_40
    8  A    between atoms: C_11  and  C_38
    9  A    between atoms: N_12  and  N_24
   10  A    between atoms: C_16  and  N_39
   11  A    between atoms: N_24  and  C_30
   12  A    between atoms: C_34  and  C_40
                            x       y       z     vdW  Elec       q    Type
                         _______ _______ _______ _____ _____    ______ ____

>  <TORSDO>
F 12

$$$$
=
 OpenBabel11032419083D

 42 48  0  0  1  0  0  0  0  0999 V2000
  187.3100  177.5870  143.4450 C   0  0  0  0  0  0  0  0  0  0  0  0
  185.2470  178.7260  142.8310 C   0  0  0  0  0  0  0  0  0  0  0  0
  187.0730  177.8770  144.8110 C   0  0  0  0  0  0  0  0  0  0  0  0
  187.5820  177.3580  147.2120 C   0  0  0  0  0  3  0  0  0  0  0  0
  188.4450  176.8500  143.0080 N   0  0  0  0  0  0  0  0  0  0  0  0
  186.3970  178.0140  142.4750 C   0  0  0  0  0  3  0  0  0  0  0  0
  189.7030  177.0510  147.3210 C   0  0  0  0  0  0  0  0  0  0  0  0
  187.9740  177.4760  145.9270 C   0  0  0  0  0  0  0  0  0  0  0  0
  191.1070  176.7540  147.5120 C   0  0  0  0  0  3  0  0  0  0  0  0
  190.5340  177.1330  145.2960 C   0  0  0  0  0  0  0  0  0  0  0  0
  189.4150  177.2730  145.9830 C   0  0  0  0  0  0  0  0  0  0  0  0
  185.8990  178.5740  145.1500 C   0  0  0  0  0  3  0  0  0  0  0  0
  190.6890  177.1410  143.8170 C   0  0  0  0  0  2  0  0  0  0  0  0
  184.9960  178.9970  144.1740 C   0  0  0  0  0  3  0  0  0  0  0  0
  189.6980  176.1460  143.2170 C   0  0  2  0  0  3  0  0  0  0  0  0
  189.3000  176.3370  141.9320 N   0  0  0  0  0  0  0  0  0  0  0  0
  188.6800  177.0590  148.1000 N   0  0  0  0  0  0  0  0  0  0  0  0
  191.6110  176.8080  146.2660 C   0  0  0  0  0  3  0  0  0  0  0  0
  184.7160  178.7810  140.4030 C   0  0  0  0  0  1  0  0  0  0  0  0
  184.2660  179.1790  141.7980 C   0  0  1  0  0  3  0  0  0  0  0  0
  182.9520  178.6270  142.0770 N   0  0  0  0  0  2  0  0  0  0  0  0
  181.1340  177.8830  140.5870 C   0  0  0  0  0  0  0  0  0  0  0  0
  182.5220  177.9850  140.9070 N   0  0  0  0  0  2  0  0  0  0  0  0
  180.7760  177.2970  139.4920 N   0  0  0  0  0  2  0  0  0  0  0  0
  180.0960  178.4250  141.5120 C   0  0  0  0  0  2  0  0  0  0  0  0
  179.1990  179.4210  140.8040 C   0  0  0  0  0  2  0  0  0  0  0  0
  179.9520  180.7230  140.5460 C   0  0  0  0  0  2  0  0  0  0  0  0
  179.9140  181.0880  139.0700 C   0  0  0  0  0  2  0  0  0  0  0  0
  181.2750  181.4620  138.5800 C   0  0  0  0  0  0  0  0  0  0  0  0
  181.4850  182.7280  137.9690 N   0  0  0  0  0  1  0  0  0  0  0  0
  182.2400  180.6660  138.7170 O   0  0  0  0  0  0  0  0  0  0  0  0
  189.8700  177.5030  141.2540 C   0  0  0  0  0  2  0  0  0  0  0  0
  190.0130  177.2200  139.7710 C   0  0  0  0  0  2  0  0  0  0  0  0
  189.2500  178.2550  138.9610 C   0  0  0  0  0  2  0  0  0  0  0  0
  188.1480  178.5000  136.7450 C   0  0  0  0  0  2  0  0  0  0  0  0
  189.2270  176.1440  137.2460 S   0  0  0  0  0  0  0  0  0  0  0  0
  188.0210  177.8130  135.4700 N   0  0  2  0  0  0  0  0  0  0  0  0
  187.0740  175.6360  135.7080 N   0  0  0  0  0  2  0  0  0  0  0  0
  186.6200  177.8770  135.0990 C   0  0  0  0  0  2  0  0  0  0  0  0
  188.3150  176.3940  135.6860 C   0  0  2  0  0  3  0  0  0  0  0  0
  186.1280  176.4590  134.9840 C   0  0  0  0  0  2  0  0  0  0  0  0
  189.3300  177.9240  137.4800 C   0  0  2  0  0  3  0  0  0  0  0  0
  1  3  1  0  0  0  0
  2 14  2  0  0  0  0
  3 12  2  0  0  0  0
  3  8  1  0  0  0  0
  4 17  1  0  0  0  0
  5 15  1  0  0  0  0
  5  1  1  0  0  0  0
  6  2  1  0  0  0  0
  6  1  2  0  0  0  0
  7  9  1  0  0  0  0
  7 17  2  0  0  0  0
  8 11  1  0  0  0  0
  8  4  2  0  0  0  0
 10 11  2  0  0  0  0
 10 18  1  0  0  0  0
 11  7  1  0  0  0  0
 13 10  1  0  0  0  0
 14 12  1  0  0  0  0
 15 13  1  6  0  0  0
 16  5  1  0  0  0  0
 16 15  1  0  0  0  0
 18  9  2  0  0  0  0
 20 19  1  6  0  0  0
 20 21  1  0  0  0  0
 20  2  1  0  0  0  0
 22 23  1  0  0  0  0
 22 25  1  0  0  0  0
 23 21  1  0  0  0  0
 24 22  2  0  0  0  0
 26 25  1  0  0  0  0
 27 26  1  0  0  0  0
 28 27  1  0  0  0  0
 29 31  2  0  0  0  0
 29 28  1  0  0  0  0
 30 29  1  0  0  0  0
 32 16  1  0  0  0  0
 33 32  1  0  0  0  0
 34 33  1  0  0  0  0
 35 42  1  0  0  0  0
 36 42  1  0  0  0  0
 37 39  1  1  0  0  0
 37 40  1  0  0  0  0
 37 35  1  0  0  0  0
 40 38  1  1  0  0  0
 40 36  1  0  0  0  0
 41 39  1  0  0  0  0
 41 38  1  0  0  0  0
 42 34  1  1  0  0  0
M  END
>  <MODEL>
8

>  <REMARK>
 VINA RESULT:      -8.5      2.625      7.825
  Name = 
  12 active torsions:
  status: ('A' for Active; 'I' for Inactive)
    1  A    between atoms: C_1  and  C_10
    2  A    between atoms: C_1  and  C_34
    3  A    between atoms: C_2  and  C_11
    4  A    between atoms: C_2  and  C_16
    5  A    between atoms: C_4  and  C_10
    6  A    between atoms: C_6  and  C_30
    7  A    between atoms: C_8  and  C_40
    8  A    between atoms: C_11  and  C_38
    9  A    between atoms: N_12  and  N_24
   10  A    between atoms: C_16  and  N_39
   11  A    between atoms: N_24  and  C_30
   12  A    between atoms: C_34  and  C_40
                            x       y       z     vdW  Elec       q    Type
                         _______ _______ _______ _____ _____    ______ ____

>  <TORSDO>
F 12

$$$$
=
 OpenBabel11032419083D

 42 48  0  0  1  0  0  0  0  0999 V2000
  187.9350  178.1660  141.7930 C   0  0  0  0  0  0  0  0  0  0  0  0
  189.8160  177.1980  140.5870 C   0  0  0  0  0  0  0  0  0  0  0  0
  188.4570  177.6780  143.0160 C   0  0  0  0  0  0  0  0  0  0  0  0
  188.4740  177.8090  145.5210 C   0  0  0  0  0  3  0  0  0  0  0  0
  186.7350  178.9270  141.7260 N   0  0  0  0  0  0  0  0  0  0  0  0
  188.6180  177.9210  140.5970 C   0  0  0  0  0  3  0  0  0  0  0  0
  186.4260  178.0300  146.1230 C   0  0  0  0  0  0  0  0  0  0  0  0
  187.8170  177.8770  144.3450 C   0  0  0  0  0  0  0  0  0  0  0  0
  185.0970  178.2520  146.6500 C   0  0  0  0  0  3  0  0  0  0  0  0
  185.1820  178.2340  144.3320 C   0  0  0  0  0  0  0  0  0  0  0  0
  186.4220  178.0250  144.7360 C   0  0  0  0  0  0  0  0  0  0  0  0
  189.6750  176.9740  142.9870 C   0  0  0  0  0  3  0  0  0  0  0  0
  184.7150  178.4470  142.9360 C   0  0  0  0  0  2  0  0  0  0  0  0
  190.3470  176.7330  141.7880 C   0  0  0  0  0  3  0  0  0  0  0  0
  185.5570  179.5520  142.3030 C   0  0  2  0  0  3  0  0  0  0  0  0
  185.6720  179.5730  140.9480 N   0  0  0  0  0  0  0  0  0  0  0  0
  187.5920  177.9340  146.6570 N   0  0  0  0  0  0  0  0  0  0  0  0
  184.3380  178.3740  145.5460 C   0  0  0  0  0  3  0  0  0  0  0  0
  192.0540  177.0460  139.5150 C   0  0  0  0  0  1  0  0  0  0  0  0
  190.5530  176.9380  139.3120 C   0  0  1  0  0  3  0  0  0  0  0  0
  190.2090  175.6270  138.7920 N   0  0  0  0  0  2  0  0  0  0  0  0
  191.0700  174.6170  136.7140 C   0  0  0  0  0  0  0  0  0  0  0  0
  191.2840  175.2100  137.9950 N   0  0  0  0  0  2  0  0  0  0  0  0
  192.0850  174.2580  136.0010 N   0  0  0  0  0  2  0  0  0  0  0  0
  189.6860  174.3880  136.2030 C   0  0  0  0  0  2  0  0  0  0  0  0
  189.2530  175.5070  135.2760 C   0  0  0  0  0  2  0  0  0  0  0  0
  188.4100  176.5280  136.0360 C   0  0  0  0  0  2  0  0  0  0  0  0
  189.0840  177.8920  136.0410 C   0  0  0  0  0  2  0  0  0  0  0  0
  188.3990  178.8210  136.9890 C   0  0  0  0  0  0  0  0  0  0  0  0
  187.0030  178.6900  137.2250 N   0  0  0  0  0  1  0  0  0  0  0  0
  189.0540  179.7110  137.5900 O   0  0  0  0  0  0  0  0  0  0  0  0
  184.9660  178.5060  140.2330 C   0  0  0  0  0  2  0  0  0  0  0  0
  183.7750  179.0830  139.4920 C   0  0  0  0  0  2  0  0  0  0  0  0
  183.5690  178.3490  138.1760 C   0  0  0  0  0  2  0  0  0  0  0  0
  184.4620  176.2630  137.1610 C   0  0  0  0  0  2  0  0  0  0  0  0
  182.1990  176.0210  138.4980 S   0  0  0  0  0  0  0  0  0  0  0  0
  184.2560  174.8240  137.1810 N   0  0  2  0  0  0  0  0  0  0  0  0
  182.0500  174.2180  136.5010 N   0  0  0  0  0  2  0  0  0  0  0  0
  184.3050  174.3750  135.8030 C   0  0  0  0  0  2  0  0  0  0  0  0
  182.8870  174.5670  137.6390 C   0  0  2  0  0  3  0  0  0  0  0  0
  182.9760  173.7390  135.4970 C   0  0  0  0  0  2  0  0  0  0  0  0
  183.7860  176.8580  138.3680 C   0  0  2  0  0  3  0  0  0  0  0  0
  1  3  1  0  0  0  0
  2  6  1  0  0  0  0
  2 14  2  0  0  0  0
  3  8  1  0  0  0  0
  4 17  1  0  0  0  0
  5  1  1  0  0  0  0
  5 15  1  0  0  0  0
  6  1  2  0  0  0  0
  7  9  1  0  0  0  0
  7 17  2  0  0  0  0
  8 11  1  0  0  0  0
  8  4  2  0  0  0  0
 10 11  2  0  0  0  0
 10 18  1  0  0  0  0
 11  7  1  0  0  0  0
 12  3  2  0  0  0  0
 13 10  1  0  0  0  0
 14 12  1  0  0  0  0
 15 13  1  6  0  0  0
 16  5  1  0  0  0  0
 16 15  1  0  0  0  0
 18  9  2  0  0  0  0
 20 19  1  1  0  0  0
 20  2  1  0  0  0  0
 21 20  1  0  0  0  0
 22 23  1  0  0  0  0
 23 21  1  0  0  0  0
 24 22  2  0  0  0  0
 25 22  1  0  0  0  0
 26 27  1  0  0  0  0
 26 25  1  0  0  0  0
 27 28  1  0  0  0  0
 28 29  1  0  0  0  0
 29 30  1  0  0  0  0
 29 31  2  0  0  0  0
 32 16  1  0  0  0  0
 33 32  1  0  0  0  0
 34 33  1  0  0  0  0
 35 37  1  0  0  0  0
 35 42  1  0  0  0  0
 37 39  1  6  0  0  0
 37 40  1  0  0  0  0
 40 38  1  6  0  0  0
 40 36  1  0  0  0  0
 41 39  1  0  0  0  0
 41 38  1  0  0  0  0
 42 34  1  6  0  0  0
 42 36  1  0  0  0  0
M  END
>  <MODEL>
9

>  <REMARK>
 VINA RESULT:      -8.5      3.105      7.299
  Name = 
  12 active torsions:
  status: ('A' for Active; 'I' for Inactive)
    1  A    between atoms: C_1  and  C_10
    2  A    between atoms: C_1  and  C_34
    3  A    between atoms: C_2  and  C_11
    4  A    between atoms: C_2  and  C_16
    5  A    between atoms: C_4  and  C_10
    6  A    between atoms: C_6  and  C_30
    7  A    between atoms: C_8  and  C_40
    8  A    between atoms: C_11  and  C_38
    9  A    between atoms: N_12  and  N_24
   10  A    between atoms: C_16  and  N_39
   11  A    between atoms: N_24  and  C_30
   12  A    between atoms: C_34  and  C_40
                            x       y       z     vdW  Elec       q    Type
                         _______ _______ _______ _____ _____    ______ ____

>  <TORSDO>
F 12

$$$$
