=
 OpenBabel11042412033D

 30 32  0  0  1  0  0  0  0  0999 V2000
  186.1720  179.0180  141.9040 C   0  0  0  0  0  2  0  0  0  0  0  0
  184.6500  178.8950  143.7900 C   0  0  0  0  0  0  0  0  0  0  0  0
  184.4820  179.0170  145.0780 C   0  0  0  0  0  3  0  0  0  0  0  0
  184.8240  178.7810  142.5010 C   0  0  0  0  0  0  0  0  0  0  0  0
  185.5060  178.5000  146.0270 C   0  0  0  0  0  3  0  0  0  0  0  0
  186.0090  177.3040  145.5530 F   0  0  0  0  0  0  0  0  0  0  0  0
  184.9380  178.2960  147.2730 F   0  0  0  0  0  0  0  0  0  0  0  0
  183.7260  178.2240  141.6580 C   0  0  0  0  0  2  0  0  0  0  0  0
  183.8410  178.6940  140.2140 C   0  0  0  0  0  2  0  0  0  0  0  0
  184.0380  177.6060  139.3590 O   0  0  0  0  0  0  0  0  0  0  0  0
  184.2920  178.1690  138.1050 C   0  0  0  0  0  3  0  0  0  0  0  0
  186.4670  176.9730  137.7000 C   0  0  0  0  0  2  0  0  0  0  0  0
  183.6870  177.2930  137.0070 C   0  0  0  0  0  2  0  0  0  0  0  0
  185.8000  178.3360  137.8920 C   0  0  0  0  0  2  0  0  0  0  0  0
  185.8720  176.2810  136.5580 N   0  0  0  0  0  2  0  0  0  0  0  0
  184.4750  175.9900  136.8720 C   0  0  0  0  0  2  0  0  0  0  0  0
  187.1800  178.0250  142.4510 C   0  0  0  0  0  2  0  0  0  0  0  0
  188.4600  178.3850  142.0290 O   0  0  0  0  0  0  0  0  0  0  0  0
  188.7780  177.4630  141.0280 C   0  0  0  0  0  2  0  0  0  0  0  0
  190.0720  176.7410  141.3690 C   0  0  0  0  0  2  0  0  0  0  0  0
  190.9940  177.6520  142.1560 C   0  0  0  0  0  2  0  0  0  0  0  0
  191.6440  176.9120  143.1440 O   0  0  0  0  0  0  0  0  0  0  0  0
  189.1990  177.9900  145.6030 C   0  0  0  0  0  3  0  0  0  0  0  0
  192.5480  175.9160  147.3580 N   0  0  0  0  0  1  0  0  0  0  0  0
  189.1390  177.4820  146.8650 C   0  0  0  0  0  3  0  0  0  0  0  0
  190.2970  176.7920  147.5290 C   0  0  0  0  0  3  0  0  0  0  0  0
  190.4660  177.9600  144.7650 C   0  0  1  0  0  3  0  0  0  0  0  0
  191.3980  176.5530  146.8160 C   0  0  0  0  0  0  0  0  0  0  0  0
  191.3370  176.9950  145.4800 N   0  0  0  0  0  0  0  0  0  0  0  0
  190.6920  176.7570  144.1510 C   0  0  2  0  0  3  0  0  0  0  0  0
  1 17  1  0  0  0  0
  1  4  1  0  0  0  0
  2  3  2  0  0  0  0
  3  5  1  0  0  0  0
  4  2  2  0  0  0  0
  5  7  1  0  0  0  0
  6  5  1  0  0  0  0
  8  4  1  0  0  0  0
  9  8  1  0  0  0  0
 10  9  1  0  0  0  0
 11 10  1  0  0  0  0
 12 14  1  0  0  0  0
 13 11  1  0  0  0  0
 14 11  1  0  0  0  0
 15 16  1  0  0  0  0
 15 12  1  0  0  0  0
 16 13  1  0  0  0  0
 18 17  1  0  0  0  0
 19 20  1  0  0  0  0
 19 18  1  0  0  0  0
 20 21  1  0  0  0  0
 21 22  1  0  0  0  0
 23 25  2  0  0  0  0
 25 26  1  0  0  0  0
 27 29  1  0  0  0  0
 27 23  1  1  0  0  0
 28 24  1  0  0  0  0
 28 26  2  0  0  0  0
 29 28  1  0  0  0  0
 30 22  1  6  0  0  0
 30 27  1  0  0  0  0
 30 29  1  0  0  0  0
M  END
>  <MODEL>
1

>  <REMARK>
 VINA RESULT:      -7.1      0.000      0.000
  Name = 
  13 active torsions:
  status: ('A' for Active; 'I' for Inactive)
    1  A    between atoms: O_3  and  C_23
    2  A    between atoms: O_3  and  C_26
    3  A    between atoms: O_6  and  C_10
    4  A    between atoms: O_6  and  C_15
    5  A    between atoms: C_8  and  O_9
    6  A    between atoms: O_9  and  C_18
    7  A    between atoms: C_10  and  C_21
    8  A    between atoms: C_12  and  C_15
    9  A    between atoms: C_12  and  C_30
   10  A    between atoms: C_18  and  C_22
   11  A    between atoms: C_21  and  C_23
   12  A    between atoms: C_22  and  C_30
   13  A    between atoms: C_24  and  C_29
                            x       y       z     vdW  Elec       q    Type
                         _______ _______ _______ _____ _____    ______ ____

>  <TORSDO>
F 13

$$$$
=
 OpenBabel11042412033D

 30 32  0  0  1  0  0  0  0  0999 V2000
  186.3270  179.0000  141.6090 C   0  0  0  0  0  2  0  0  0  0  0  0
  184.7900  178.7020  143.4640 C   0  0  0  0  0  0  0  0  0  0  0  0
  184.5750  178.8190  144.7450 C   0  0  0  0  0  3  0  0  0  0  0  0
  185.0080  178.5930  142.1810 C   0  0  0  0  0  0  0  0  0  0  0  0
  185.6360  178.4590  145.7260 C   0  0  0  0  0  3  0  0  0  0  0  0
  186.2600  177.2950  145.3200 F   0  0  0  0  0  0  0  0  0  0  0  0
  185.0790  178.2670  146.9780 F   0  0  0  0  0  0  0  0  0  0  0  0
  184.0160  177.8800  141.3240 C   0  0  0  0  0  2  0  0  0  0  0  0
  183.5500  178.7560  140.1690 C   0  0  0  0  0  2  0  0  0  0  0  0
  182.3060  179.3260  140.4580 O   0  0  0  0  0  0  0  0  0  0  0  0
  181.6700  178.4070  141.2980 C   0  0  0  0  0  3  0  0  0  0  0  0
  180.0390  180.0350  142.3040 C   0  0  0  0  0  2  0  0  0  0  0  0
  180.4820  177.7720  140.5740 C   0  0  0  0  0  2  0  0  0  0  0  0
  181.2100  179.0950  142.5880 C   0  0  0  0  0  2  0  0  0  0  0  0
  178.9310  179.2890  141.7100 N   0  0  0  0  0  2  0  0  0  0  0  0
  179.3560  178.7920  140.4040 C   0  0  0  0  0  2  0  0  0  0  0  0
  187.4390  178.1290  142.1620 C   0  0  0  0  0  2  0  0  0  0  0  0
  188.6680  178.5980  141.6960 O   0  0  0  0  0  0  0  0  0  0  0  0
  189.0360  177.6960  140.6940 C   0  0  0  0  0  2  0  0  0  0  0  0
  190.1380  176.7760  141.1920 C   0  0  0  0  0  2  0  0  0  0  0  0
  191.1310  177.5480  142.0370 C   0  0  0  0  0  2  0  0  0  0  0  0
  191.6770  176.7020  143.0020 O   0  0  0  0  0  0  0  0  0  0  0  0
  189.3900  178.1060  145.4470 C   0  0  0  0  0  3  0  0  0  0  0  0
  192.5510  175.7840  147.2400 N   0  0  0  0  0  1  0  0  0  0  0  0
  189.3030  177.6560  146.7290 C   0  0  0  0  0  3  0  0  0  0  0  0
  190.3990  176.8820  147.4050 C   0  0  0  0  0  3  0  0  0  0  0  0
  190.6350  177.9210  144.5950 C   0  0  1  0  0  3  0  0  0  0  0  0
  191.4600  176.5100  146.6880 C   0  0  0  0  0  0  0  0  0  0  0  0
  191.4200  176.9040  145.3370 N   0  0  0  0  0  0  0  0  0  0  0  0
  190.7320  176.6780  144.0270 C   0  0  2  0  0  3  0  0  0  0  0  0
  1 17  1  0  0  0  0
  1  4  1  0  0  0  0
  2  3  2  0  0  0  0
  3  5  1  0  0  0  0
  4  2  2  0  0  0  0
  5  7  1  0  0  0  0
  6  5  1  0  0  0  0
  8  4  1  0  0  0  0
  9 10  1  0  0  0  0
  9  8  1  0  0  0  0
 10 11  1  0  0  0  0
 11 14  1  0  0  0  0
 12 14  1  0  0  0  0
 13 11  1  0  0  0  0
 15 12  1  0  0  0  0
 16 13  1  0  0  0  0
 16 15  1  0  0  0  0
 18 17  1  0  0  0  0
 19 20  1  0  0  0  0
 19 18  1  0  0  0  0
 20 21  1  0  0  0  0
 21 22  1  0  0  0  0
 23 25  2  0  0  0  0
 25 26  1  0  0  0  0
 27 29  1  0  0  0  0
 27 23  1  1  0  0  0
 28 24  1  0  0  0  0
 28 26  2  0  0  0  0
 29 28  1  0  0  0  0
 30 22  1  6  0  0  0
 30 27  1  0  0  0  0
 30 29  1  0  0  0  0
M  END
>  <MODEL>
2

>  <REMARK>
 VINA RESULT:      -7.0      2.285      3.140
  Name = 
  13 active torsions:
  status: ('A' for Active; 'I' for Inactive)
    1  A    between atoms: O_3  and  C_23
    2  A    between atoms: O_3  and  C_26
    3  A    between atoms: O_6  and  C_10
    4  A    between atoms: O_6  and  C_15
    5  A    between atoms: C_8  and  O_9
    6  A    between atoms: O_9  and  C_18
    7  A    between atoms: C_10  and  C_21
    8  A    between atoms: C_12  and  C_15
    9  A    between atoms: C_12  and  C_30
   10  A    between atoms: C_18  and  C_22
   11  A    between atoms: C_21  and  C_23
   12  A    between atoms: C_22  and  C_30
   13  A    between atoms: C_24  and  C_29
                            x       y       z     vdW  Elec       q    Type
                         _______ _______ _______ _____ _____    ______ ____

>  <TORSDO>
F 13

$$$$
=
 OpenBabel11042412033D

 30 32  0  0  1  0  0  0  0  0999 V2000
  186.1060  179.1090  141.8260 C   0  0  0  0  0  2  0  0  0  0  0  0
  184.5530  178.7600  143.6590 C   0  0  0  0  0  0  0  0  0  0  0  0
  184.3210  178.8550  144.9390 C   0  0  0  0  0  3  0  0  0  0  0  0
  184.7880  178.6720  142.3770 C   0  0  0  0  0  0  0  0  0  0  0  0
  185.3770  178.5010  145.9270 C   0  0  0  0  0  3  0  0  0  0  0  0
  186.0030  177.3350  145.5320 F   0  0  0  0  0  0  0  0  0  0  0  0
  184.8130  178.3170  147.1770 F   0  0  0  0  0  0  0  0  0  0  0  0
  183.8180  177.9530  141.4990 C   0  0  0  0  0  2  0  0  0  0  0  0
  183.7750  178.5620  140.1050 C   0  0  0  0  0  2  0  0  0  0  0  0
  182.7850  179.5470  140.0320 O   0  0  0  0  0  0  0  0  0  0  0  0
  182.6930  179.8720  138.6750 C   0  0  0  0  0  3  0  0  0  0  0  0
  180.5050  178.7050  138.2570 C   0  0  0  0  0  2  0  0  0  0  0  0
  181.9400  181.1930  138.5050 C   0  0  0  0  0  2  0  0  0  0  0  0
  181.9920  178.7500  137.9040 C   0  0  0  0  0  2  0  0  0  0  0  0
  179.8800  179.9910  137.9510 N   0  0  0  0  0  2  0  0  0  0  0  0
  180.4580  181.0060  138.8280 C   0  0  0  0  0  2  0  0  0  0  0  0
  187.1770  178.0780  142.1240 C   0  0  0  0  0  2  0  0  0  0  0  0
  188.4140  178.5610  141.6990 O   0  0  0  0  0  0  0  0  0  0  0  0
  188.8010  177.6960  140.6710 C   0  0  0  0  0  2  0  0  0  0  0  0
  189.9910  176.8570  141.1090 C   0  0  0  0  0  2  0  0  0  0  0  0
  190.8690  177.6420  142.0640 C   0  0  0  0  0  2  0  0  0  0  0  0
  191.4510  176.7680  142.9830 O   0  0  0  0  0  0  0  0  0  0  0  0
  189.0980  178.0180  145.4500 C   0  0  0  0  0  3  0  0  0  0  0  0
  192.4600  175.9740  147.2150 N   0  0  0  0  0  1  0  0  0  0  0  0
  189.0670  177.5780  146.7380 C   0  0  0  0  0  3  0  0  0  0  0  0
  190.2320  176.9010  147.4040 C   0  0  0  0  0  3  0  0  0  0  0  0
  190.3400  177.9210  144.5800 C   0  0  1  0  0  3  0  0  0  0  0  0
  191.3070  176.6050  146.6740 C   0  0  0  0  0  0  0  0  0  0  0  0
  191.2150  176.9780  145.3190 N   0  0  0  0  0  0  0  0  0  0  0  0
  190.5270  176.6830  144.0230 C   0  0  2  0  0  3  0  0  0  0  0  0
  1 17  1  0  0  0  0
  1  4  1  0  0  0  0
  2  3  2  0  0  0  0
  3  5  1  0  0  0  0
  4  2  2  0  0  0  0
  5  7  1  0  0  0  0
  6  5  1  0  0  0  0
  8  4  1  0  0  0  0
  9  8  1  0  0  0  0
 10  9  1  0  0  0  0
 11 10  1  0  0  0  0
 13 11  1  0  0  0  0
 13 16  1  0  0  0  0
 14 12  1  0  0  0  0
 14 11  1  0  0  0  0
 15 12  1  0  0  0  0
 15 16  1  0  0  0  0
 18 17  1  0  0  0  0
 19 20  1  0  0  0  0
 19 18  1  0  0  0  0
 20 21  1  0  0  0  0
 21 22  1  0  0  0  0
 23 25  2  0  0  0  0
 25 26  1  0  0  0  0
 27 29  1  0  0  0  0
 27 23  1  1  0  0  0
 28 24  1  0  0  0  0
 28 26  2  0  0  0  0
 29 28  1  0  0  0  0
 30 22  1  6  0  0  0
 30 27  1  0  0  0  0
 30 29  1  0  0  0  0
M  END
>  <MODEL>
3

>  <REMARK>
 VINA RESULT:      -6.9      1.955      2.474
  Name = 
  13 active torsions:
  status: ('A' for Active; 'I' for Inactive)
    1  A    between atoms: O_3  and  C_23
    2  A    between atoms: O_3  and  C_26
    3  A    between atoms: O_6  and  C_10
    4  A    between atoms: O_6  and  C_15
    5  A    between atoms: C_8  and  O_9
    6  A    between atoms: O_9  and  C_18
    7  A    between atoms: C_10  and  C_21
    8  A    between atoms: C_12  and  C_15
    9  A    between atoms: C_12  and  C_30
   10  A    between atoms: C_18  and  C_22
   11  A    between atoms: C_21  and  C_23
   12  A    between atoms: C_22  and  C_30
   13  A    between atoms: C_24  and  C_29
                            x       y       z     vdW  Elec       q    Type
                         _______ _______ _______ _____ _____    ______ ____

>  <TORSDO>
F 13

$$$$
=
 OpenBabel11042412033D

 30 32  0  0  1  0  0  0  0  0999 V2000
  190.8530  177.9380  143.2050 C   0  0  0  0  0  2  0  0  0  0  0  0
  189.7470  177.1320  145.2090 C   0  0  0  0  0  0  0  0  0  0  0  0
  189.7850  176.9870  146.5050 C   0  0  0  0  0  3  0  0  0  0  0  0
  189.7110  177.2850  143.9120 C   0  0  0  0  0  0  0  0  0  0  0  0
  191.0460  176.5780  147.1840 C   0  0  0  0  0  3  0  0  0  0  0  0
  191.3150  177.4540  148.2170 F   0  0  0  0  0  0  0  0  0  0  0  0
  192.0960  176.5960  146.2820 F   0  0  0  0  0  0  0  0  0  0  0  0
  188.6250  176.6330  143.1250 C   0  0  0  0  0  2  0  0  0  0  0  0
  187.6990  177.6640  142.4950 C   0  0  0  0  0  2  0  0  0  0  0  0
  187.0830  178.4370  143.4840 O   0  0  0  0  0  0  0  0  0  0  0  0
  186.0100  177.6640  143.9360 C   0  0  0  0  0  3  0  0  0  0  0  0
  185.5790  178.9860  146.0310 C   0  0  0  0  0  2  0  0  0  0  0  0
  184.6950  178.2270  143.3940 C   0  0  0  0  0  2  0  0  0  0  0  0
  185.9890  177.6260  145.4670 C   0  0  0  0  0  2  0  0  0  0  0  0
  184.2620  179.3630  145.5200 N   0  0  0  0  0  2  0  0  0  0  0  0
  184.3640  179.5550  144.0750 C   0  0  0  0  0  2  0  0  0  0  0  0
  191.2720  177.1190  141.9990 C   0  0  0  0  0  2  0  0  0  0  0  0
  190.8130  177.7390  140.8370 O   0  0  0  0  0  0  0  0  0  0  0  0
  190.7850  176.7230  139.8770 C   0  0  0  0  0  2  0  0  0  0  0  0
  189.7010  177.0000  138.8480 C   0  0  0  0  0  2  0  0  0  0  0  0
  189.1950  178.4230  138.9830 C   0  0  0  0  0  2  0  0  0  0  0  0
  188.3190  178.7050  137.9340 O   0  0  0  0  0  0  0  0  0  0  0  0
  185.5390  176.5980  136.9300 C   0  0  0  0  0  3  0  0  0  0  0  0
  184.3510  179.8230  139.5340 N   0  0  0  0  0  1  0  0  0  0  0  0
  184.3440  176.5820  137.5820 C   0  0  0  0  0  3  0  0  0  0  0  0
  183.8730  177.7050  138.4630 C   0  0  0  0  0  3  0  0  0  0  0  0
  186.4870  177.7840  136.9830 C   0  0  1  0  0  3  0  0  0  0  0  0
  184.7070  178.7120  138.7210 C   0  0  0  0  0  0  0  0  0  0  0  0
  185.9720  178.5960  138.1130 N   0  0  0  0  0  0  0  0  0  0  0  0
  187.2540  177.8250  138.1180 C   0  0  2  0  0  3  0  0  0  0  0  0
  1  4  1  0  0  0  0
  2  3  2  0  0  0  0
  3  5  1  0  0  0  0
  4  2  2  0  0  0  0
  5  6  1  0  0  0  0
  7  5  1  0  0  0  0
  8  4  1  0  0  0  0
  9  8  1  0  0  0  0
  9 10  1  0  0  0  0
 10 11  1  0  0  0  0
 11 14  1  0  0  0  0
 13 11  1  0  0  0  0
 13 16  1  0  0  0  0
 14 12  1  0  0  0  0
 15 12  1  0  0  0  0
 16 15  1  0  0  0  0
 17  1  1  0  0  0  0
 18 17  1  0  0  0  0
 19 18  1  0  0  0  0
 20 21  1  0  0  0  0
 20 19  1  0  0  0  0
 22 21  1  0  0  0  0
 23 25  2  0  0  0  0
 25 26  1  0  0  0  0
 26 28  2  0  0  0  0
 27 23  1  1  0  0  0
 27 29  1  0  0  0  0
 27 30  1  0  0  0  0
 28 24  1  0  0  0  0
 29 30  1  0  0  0  0
 29 28  1  0  0  0  0
 30 22  1  6  0  0  0
M  END
>  <MODEL>
4

>  <REMARK>
 VINA RESULT:      -6.9      3.105      7.253
  Name = 
  13 active torsions:
  status: ('A' for Active; 'I' for Inactive)
    1  A    between atoms: O_3  and  C_23
    2  A    between atoms: O_3  and  C_26
    3  A    between atoms: O_6  and  C_10
    4  A    between atoms: O_6  and  C_15
    5  A    between atoms: C_8  and  O_9
    6  A    between atoms: O_9  and  C_18
    7  A    between atoms: C_10  and  C_21
    8  A    between atoms: C_12  and  C_15
    9  A    between atoms: C_12  and  C_30
   10  A    between atoms: C_18  and  C_22
   11  A    between atoms: C_21  and  C_23
   12  A    between atoms: C_22  and  C_30
   13  A    between atoms: C_24  and  C_29
                            x       y       z     vdW  Elec       q    Type
                         _______ _______ _______ _____ _____    ______ ____

>  <TORSDO>
F 13

$$$$
=
 OpenBabel11042412033D

 30 32  0  0  1  0  0  0  0  0999 V2000
  187.8430  176.8230  143.3230 C   0  0  0  0  0  2  0  0  0  0  0  0
  189.9920  177.6540  142.5600 C   0  0  0  0  0  0  0  0  0  0  0  0
  191.2400  177.9040  142.8470 C   0  0  0  0  0  3  0  0  0  0  0  0
  188.7430  177.3960  142.2780 C   0  0  0  0  0  0  0  0  0  0  0  0
  191.6090  178.5060  144.1580 C   0  0  0  0  0  3  0  0  0  0  0  0
  191.4880  177.5530  145.1500 F   0  0  0  0  0  0  0  0  0  0  0  0
  190.7740  179.5720  144.4420 F   0  0  0  0  0  0  0  0  0  0  0  0
  188.1730  177.8570  140.9780 C   0  0  0  0  0  2  0  0  0  0  0  0
  189.2300  177.8710  139.8820 C   0  0  0  0  0  2  0  0  0  0  0  0
  188.6680  178.2730  138.6670 O   0  0  0  0  0  0  0  0  0  0  0  0
  188.2620  177.0900  138.0430 C   0  0  0  0  0  3  0  0  0  0  0  0
  186.8260  178.1790  136.2890 C   0  0  0  0  0  2  0  0  0  0  0  0
  189.2370  176.7290  136.9210 C   0  0  0  0  0  2  0  0  0  0  0  0
  186.8400  177.2380  137.4940 C   0  0  0  0  0  2  0  0  0  0  0  0
  187.7160  177.6700  135.2470 N   0  0  0  0  0  2  0  0  0  0  0  0
  189.0870  177.7040  135.7530 C   0  0  0  0  0  2  0  0  0  0  0  0
  188.0690  177.5090  144.6560 C   0  0  0  0  0  2  0  0  0  0  0  0
  187.0090  177.2130  145.5140 O   0  0  0  0  0  0  0  0  0  0  0  0
  187.2600  177.9670  146.6640 C   0  0  0  0  0  2  0  0  0  0  0  0
  186.1270  178.9510  146.9060 C   0  0  0  0  0  2  0  0  0  0  0  0
  184.7880  178.2890  146.6530 C   0  0  0  0  0  2  0  0  0  0  0  0
  183.9910  179.1320  145.8780 O   0  0  0  0  0  0  0  0  0  0  0  0
  184.8170  178.8440  142.3550 C   0  0  0  0  0  3  0  0  0  0  0  0
  180.5760  179.1740  143.0680 N   0  0  0  0  0  1  0  0  0  0  0  0
  183.9060  178.4990  141.4030 C   0  0  0  0  0  3  0  0  0  0  0  0
  182.4220  178.6400  141.5950 C   0  0  0  0  0  3  0  0  0  0  0  0
  184.4200  179.4640  143.6840 C   0  0  1  0  0  3  0  0  0  0  0  0
  181.9610  179.0050  142.7910 C   0  0  0  0  0  0  0  0  0  0  0  0
  182.9580  179.2220  143.7620 N   0  0  0  0  0  0  0  0  0  0  0  0
  183.9910  178.5520  144.6110 C   0  0  2  0  0  3  0  0  0  0  0  0
  1 17  1  0  0  0  0
  2  3  2  0  0  0  0
  3  5  1  0  0  0  0
  4  2  2  0  0  0  0
  4  1  1  0  0  0  0
  5  7  1  0  0  0  0
  5  6  1  0  0  0  0
  8  4  1  0  0  0  0
  9  8  1  0  0  0  0
 10  9  1  0  0  0  0
 11 10  1  0  0  0  0
 12 14  1  0  0  0  0
 13 11  1  0  0  0  0
 14 11  1  0  0  0  0
 15 16  1  0  0  0  0
 15 12  1  0  0  0  0
 16 13  1  0  0  0  0
 17 18  1  0  0  0  0
 18 19  1  0  0  0  0
 19 20  1  0  0  0  0
 21 20  1  0  0  0  0
 22 21  1  0  0  0  0
 25 26  1  0  0  0  0
 25 23  2  0  0  0  0
 26 28  2  0  0  0  0
 27 23  1  6  0  0  0
 27 29  1  0  0  0  0
 27 30  1  0  0  0  0
 28 24  1  0  0  0  0
 28 29  1  0  0  0  0
 29 30  1  0  0  0  0
 30 22  1  1  0  0  0
M  END
>  <MODEL>
5

>  <REMARK>
 VINA RESULT:      -6.8      3.690      6.483
  Name = 
  13 active torsions:
  status: ('A' for Active; 'I' for Inactive)
    1  A    between atoms: O_3  and  C_23
    2  A    between atoms: O_3  and  C_26
    3  A    between atoms: O_6  and  C_10
    4  A    between atoms: O_6  and  C_15
    5  A    between atoms: C_8  and  O_9
    6  A    between atoms: O_9  and  C_18
    7  A    between atoms: C_10  and  C_21
    8  A    between atoms: C_12  and  C_15
    9  A    between atoms: C_12  and  C_30
   10  A    between atoms: C_18  and  C_22
   11  A    between atoms: C_21  and  C_23
   12  A    between atoms: C_22  and  C_30
   13  A    between atoms: C_24  and  C_29
                            x       y       z     vdW  Elec       q    Type
                         _______ _______ _______ _____ _____    ______ ____

>  <TORSDO>
F 13

$$$$
=
 OpenBabel11042412033D

 30 32  0  0  1  0  0  0  0  0999 V2000
  186.0200  178.9660  145.3770 C   0  0  0  0  0  2  0  0  0  0  0  0
  187.6720  177.5030  146.3880 C   0  0  0  0  0  0  0  0  0  0  0  0
  188.3470  177.1760  147.4550 C   0  0  0  0  0  3  0  0  0  0  0  0
  186.9890  177.8300  145.3240 C   0  0  0  0  0  0  0  0  0  0  0  0
  188.9150  178.2280  148.3430 C   0  0  0  0  0  3  0  0  0  0  0  0
  190.2430  177.9440  148.5990 F   0  0  0  0  0  0  0  0  0  0  0  0
  188.2170  178.2680  149.5370 F   0  0  0  0  0  0  0  0  0  0  0  0
  187.3220  177.2000  144.0130 C   0  0  0  0  0  2  0  0  0  0  0  0
  188.6260  176.4170  144.0890 C   0  0  0  0  0  2  0  0  0  0  0  0
  189.1660  176.2410  142.8120 O   0  0  0  0  0  0  0  0  0  0  0  0
  189.3740  177.5340  142.3220 C   0  0  0  0  0  3  0  0  0  0  0  0
  191.8520  177.2980  141.9610 C   0  0  0  0  0  2  0  0  0  0  0  0
  189.2250  177.5460  140.8000 C   0  0  0  0  0  2  0  0  0  0  0  0
  190.7600  178.0420  142.7320 C   0  0  0  0  0  2  0  0  0  0  0  0
  191.6570  177.4740  140.5230 N   0  0  0  0  0  2  0  0  0  0  0  0
  190.4030  176.8270  140.1440 C   0  0  0  0  0  2  0  0  0  0  0  0
  184.6850  178.5030  145.9290 C   0  0  0  0  0  2  0  0  0  0  0  0
  183.7050  178.6440  144.9470 O   0  0  0  0  0  0  0  0  0  0  0  0
  184.2990  179.4390  143.9630 C   0  0  0  0  0  2  0  0  0  0  0  0
  184.1250  178.8000  142.5940 C   0  0  0  0  0  2  0  0  0  0  0  0
  185.3790  178.9820  141.7620 C   0  0  0  0  0  2  0  0  0  0  0  0
  185.0700  179.7090  140.6120 O   0  0  0  0  0  0  0  0  0  0  0  0
  183.4530  177.6750  138.0760 C   0  0  0  0  0  3  0  0  0  0  0  0
  181.6100  181.5450  138.5570 N   0  0  0  0  0  1  0  0  0  0  0  0
  182.2020  177.9310  137.6030 C   0  0  0  0  0  3  0  0  0  0  0  0
  181.5420  179.2770  137.7110 C   0  0  0  0  0  3  0  0  0  0  0  0
  184.3270  178.7460  138.7060 C   0  0  1  0  0  3  0  0  0  0  0  0
  182.1500  180.2380  138.4060 C   0  0  0  0  0  0  0  0  0  0  0  0
  183.3830  179.8590  138.9730 N   0  0  0  0  0  0  0  0  0  0  0  0
  184.0260  179.0020  140.0170 C   0  0  2  0  0  3  0  0  0  0  0  0
  1 17  1  0  0  0  0
  2  3  2  0  0  0  0
  3  5  1  0  0  0  0
  4  1  1  0  0  0  0
  4  2  2  0  0  0  0
  5  6  1  0  0  0  0
  5  7  1  0  0  0  0
  8  9  1  0  0  0  0
  8  4  1  0  0  0  0
 10  9  1  0  0  0  0
 11 14  1  0  0  0  0
 11 10  1  0  0  0  0
 12 14  1  0  0  0  0
 13 11  1  0  0  0  0
 15 12  1  0  0  0  0
 16 15  1  0  0  0  0
 16 13  1  0  0  0  0
 18 17  1  0  0  0  0
 19 18  1  0  0  0  0
 20 19  1  0  0  0  0
 21 20  1  0  0  0  0
 22 21  1  0  0  0  0
 25 26  1  0  0  0  0
 25 23  2  0  0  0  0
 26 28  2  0  0  0  0
 27 23  1  6  0  0  0
 27 29  1  0  0  0  0
 27 30  1  0  0  0  0
 28 24  1  0  0  0  0
 28 29  1  0  0  0  0
 29 30  1  0  0  0  0
 30 22  1  1  0  0  0
M  END
>  <MODEL>
6

>  <REMARK>
 VINA RESULT:      -6.7      2.797      7.711
  Name = 
  13 active torsions:
  status: ('A' for Active; 'I' for Inactive)
    1  A    between atoms: O_3  and  C_23
    2  A    between atoms: O_3  and  C_26
    3  A    between atoms: O_6  and  C_10
    4  A    between atoms: O_6  and  C_15
    5  A    between atoms: C_8  and  O_9
    6  A    between atoms: O_9  and  C_18
    7  A    between atoms: C_10  and  C_21
    8  A    between atoms: C_12  and  C_15
    9  A    between atoms: C_12  and  C_30
   10  A    between atoms: C_18  and  C_22
   11  A    between atoms: C_21  and  C_23
   12  A    between atoms: C_22  and  C_30
   13  A    between atoms: C_24  and  C_29
                            x       y       z     vdW  Elec       q    Type
                         _______ _______ _______ _____ _____    ______ ____

>  <TORSDO>
F 13

$$$$
=
 OpenBabel11042412033D

 30 32  0  0  1  0  0  0  0  0999 V2000
  186.0810  178.3380  145.2210 C   0  0  0  0  0  2  0  0  0  0  0  0
  187.7680  177.2310  146.5700 C   0  0  0  0  0  0  0  0  0  0  0  0
  188.2640  177.0210  147.7590 C   0  0  0  0  0  3  0  0  0  0  0  0
  187.2630  177.4400  145.3840 C   0  0  0  0  0  0  0  0  0  0  0  0
  188.3930  178.1390  148.7330 C   0  0  0  0  0  3  0  0  0  0  0  0
  187.5870  179.1880  148.3370 F   0  0  0  0  0  0  0  0  0  0  0  0
  189.7070  178.5690  148.7890 F   0  0  0  0  0  0  0  0  0  0  0  0
  187.9890  176.9420  144.1790 C   0  0  0  0  0  2  0  0  0  0  0  0
  189.1540  177.8520  143.8170 C   0  0  0  0  0  2  0  0  0  0  0  0
  189.2340  178.0170  142.4310 O   0  0  0  0  0  0  0  0  0  0  0  0
  189.6740  176.7840  141.9420 C   0  0  0  0  0  3  0  0  0  0  0  0
  190.4890  177.6410  139.7220 C   0  0  0  0  0  2  0  0  0  0  0  0
  191.1420  176.5670  142.3170 C   0  0  0  0  0  2  0  0  0  0  0  0
  189.4910  176.7180  140.4220 C   0  0  0  0  0  2  0  0  0  0  0  0
  191.8560  177.2650  140.0800 N   0  0  0  0  0  2  0  0  0  0  0  0
  192.0410  177.5030  141.5100 C   0  0  0  0  0  2  0  0  0  0  0  0
  185.2160  178.3120  146.4670 C   0  0  0  0  0  2  0  0  0  0  0  0
  184.0070  178.9550  146.2040 O   0  0  0  0  0  0  0  0  0  0  0  0
  183.9250  179.0040  144.8100 C   0  0  0  0  0  2  0  0  0  0  0  0
  182.4900  178.7880  144.3580 C   0  0  0  0  0  2  0  0  0  0  0  0
  182.3710  178.9890  142.8600 C   0  0  0  0  0  2  0  0  0  0  0  0
  183.6200  178.8080  142.2670 O   0  0  0  0  0  0  0  0  0  0  0  0
  182.5580  177.4800  139.0590 C   0  0  0  0  0  3  0  0  0  0  0  0
  186.7140  178.6300  139.1110 N   0  0  0  0  0  1  0  0  0  0  0  0
  183.2590  177.6690  137.9070 C   0  0  0  0  0  3  0  0  0  0  0  0
  184.7180  178.0270  137.8810 C   0  0  0  0  0  3  0  0  0  0  0  0
  183.2030  177.5530  140.4330 C   0  0  1  0  0  3  0  0  0  0  0  0
  185.3350  178.2920  139.0320 C   0  0  0  0  0  0  0  0  0  0  0  0
  184.5130  178.1990  140.1720 N   0  0  0  0  0  0  0  0  0  0  0  0
  183.3670  178.8320  140.8960 C   0  0  2  0  0  3  0  0  0  0  0  0
  1  4  1  0  0  0  0
  1 17  1  0  0  0  0
  2  3  2  0  0  0  0
  3  5  1  0  0  0  0
  4  2  2  0  0  0  0
  5  7  1  0  0  0  0
  6  5  1  0  0  0  0
  8  4  1  0  0  0  0
  9  8  1  0  0  0  0
 10  9  1  0  0  0  0
 11 13  1  0  0  0  0
 11 10  1  0  0  0  0
 12 15  1  0  0  0  0
 12 14  1  0  0  0  0
 14 11  1  0  0  0  0
 15 16  1  0  0  0  0
 16 13  1  0  0  0  0
 18 17  1  0  0  0  0
 19 18  1  0  0  0  0
 20 19  1  0  0  0  0
 21 20  1  0  0  0  0
 22 21  1  0  0  0  0
 25 23  2  0  0  0  0
 26 25  1  0  0  0  0
 26 28  2  0  0  0  0
 27 23  1  6  0  0  0
 27 30  1  0  0  0  0
 28 24  1  0  0  0  0
 28 29  1  0  0  0  0
 29 27  1  0  0  0  0
 29 30  1  0  0  0  0
 30 22  1  1  0  0  0
M  END
>  <MODEL>
7

>  <REMARK>
 VINA RESULT:      -6.7      2.600      7.312
  Name = 
  13 active torsions:
  status: ('A' for Active; 'I' for Inactive)
    1  A    between atoms: O_3  and  C_23
    2  A    between atoms: O_3  and  C_26
    3  A    between atoms: O_6  and  C_10
    4  A    between atoms: O_6  and  C_15
    5  A    between atoms: C_8  and  O_9
    6  A    between atoms: O_9  and  C_18
    7  A    between atoms: C_10  and  C_21
    8  A    between atoms: C_12  and  C_15
    9  A    between atoms: C_12  and  C_30
   10  A    between atoms: C_18  and  C_22
   11  A    between atoms: C_21  and  C_23
   12  A    between atoms: C_22  and  C_30
   13  A    between atoms: C_24  and  C_29
                            x       y       z     vdW  Elec       q    Type
                         _______ _______ _______ _____ _____    ______ ____

>  <TORSDO>
F 13

$$$$
=
 OpenBabel11042412033D

 30 32  0  0  1  0  0  0  0  0999 V2000
  185.1430  178.4790  146.0080 C   0  0  0  0  0  2  0  0  0  0  0  0
  187.3620  177.6260  146.5010 C   0  0  0  0  0  0  0  0  0  0  0  0
  188.2690  177.3750  147.4040 C   0  0  0  0  0  3  0  0  0  0  0  0
  186.4480  177.8750  145.6020 C   0  0  0  0  0  0  0  0  0  0  0  0
  188.5300  178.3430  148.5050 C   0  0  0  0  0  3  0  0  0  0  0  0
  189.8770  178.3400  148.8100 F   0  0  0  0  0  0  0  0  0  0  0  0
  187.8050  177.9890  149.6290 F   0  0  0  0  0  0  0  0  0  0  0  0
  186.7840  177.7390  144.1540 C   0  0  0  0  0  2  0  0  0  0  0  0
  187.4100  176.3840  143.8550 C   0  0  0  0  0  2  0  0  0  0  0  0
  188.4670  176.5230  142.9500 O   0  0  0  0  0  0  0  0  0  0  0  0
  189.2910  177.5100  143.5000 C   0  0  0  0  0  3  0  0  0  0  0  0
  191.3800  176.1120  143.5820 C   0  0  0  0  0  2  0  0  0  0  0  0
  189.9580  178.3150  142.3830 C   0  0  0  0  0  2  0  0  0  0  0  0
  190.3460  176.8750  144.4110 C   0  0  0  0  0  2  0  0  0  0  0  0
  192.0190  177.0150  142.6250 N   0  0  0  0  0  2  0  0  0  0  0  0
  191.0090  177.4660  141.6700 C   0  0  0  0  0  2  0  0  0  0  0  0
  184.5300  179.2490  144.8540 C   0  0  0  0  0  2  0  0  0  0  0  0
  183.3010  178.6790  144.5200 O   0  0  0  0  0  0  0  0  0  0  0  0
  183.0460  179.1210  143.2190 C   0  0  0  0  0  2  0  0  0  0  0  0
  183.8880  178.3400  142.2220 C   0  0  0  0  0  2  0  0  0  0  0  0
  183.4670  178.6680  140.8030 C   0  0  0  0  0  2  0  0  0  0  0  0
  184.4420  179.4650  140.2030 O   0  0  0  0  0  0  0  0  0  0  0  0
  183.8990  177.2930  137.3450 C   0  0  0  0  0  3  0  0  0  0  0  0
  187.9820  178.6390  137.6840 N   0  0  0  0  0  1  0  0  0  0  0  0
  184.7640  177.2130  136.2970 C   0  0  0  0  0  3  0  0  0  0  0  0
  186.2050  177.6300  136.3860 C   0  0  0  0  0  3  0  0  0  0  0  0
  184.3260  177.7560  138.7280 C   0  0  1  0  0  3  0  0  0  0  0  0
  186.6360  178.2180  137.5010 C   0  0  0  0  0  0  0  0  0  0  0  0
  185.6510  178.3810  138.4950 N   0  0  0  0  0  0  0  0  0  0  0  0
  184.4000  179.1180  138.8530 C   0  0  2  0  0  3  0  0  0  0  0  0
  2  3  2  0  0  0  0
  3  5  1  0  0  0  0
  4  1  1  0  0  0  0
  4  2  2  0  0  0  0
  5  6  1  0  0  0  0
  5  7  1  0  0  0  0
  8  4  1  0  0  0  0
  9  8  1  0  0  0  0
 10 11  1  0  0  0  0
 10  9  1  0  0  0  0
 11 14  1  0  0  0  0
 12 14  1  0  0  0  0
 13 11  1  0  0  0  0
 15 12  1  0  0  0  0
 16 13  1  0  0  0  0
 16 15  1  0  0  0  0
 17  1  1  0  0  0  0
 18 17  1  0  0  0  0
 19 18  1  0  0  0  0
 20 19  1  0  0  0  0
 21 20  1  0  0  0  0
 22 21  1  0  0  0  0
 25 26  1  0  0  0  0
 25 23  2  0  0  0  0
 26 28  2  0  0  0  0
 27 23  1  6  0  0  0
 27 30  1  0  0  0  0
 28 24  1  0  0  0  0
 28 29  1  0  0  0  0
 29 27  1  0  0  0  0
 29 30  1  0  0  0  0
 30 22  1  1  0  0  0
M  END
>  <MODEL>
8

>  <REMARK>
 VINA RESULT:      -6.7      2.162      7.501
  Name = 
  13 active torsions:
  status: ('A' for Active; 'I' for Inactive)
    1  A    between atoms: O_3  and  C_23
    2  A    between atoms: O_3  and  C_26
    3  A    between atoms: O_6  and  C_10
    4  A    between atoms: O_6  and  C_15
    5  A    between atoms: C_8  and  O_9
    6  A    between atoms: O_9  and  C_18
    7  A    between atoms: C_10  and  C_21
    8  A    between atoms: C_12  and  C_15
    9  A    between atoms: C_12  and  C_30
   10  A    between atoms: C_18  and  C_22
   11  A    between atoms: C_21  and  C_23
   12  A    between atoms: C_22  and  C_30
   13  A    between atoms: C_24  and  C_29
                            x       y       z     vdW  Elec       q    Type
                         _______ _______ _______ _____ _____    ______ ____

>  <TORSDO>
F 13

$$$$
=
 OpenBabel11042412033D

 30 32  0  0  1  0  0  0  0  0999 V2000
  185.4050  178.3470  142.6170 C   0  0  0  0  0  2  0  0  0  0  0  0
  186.2270  177.5090  144.7410 C   0  0  0  0  0  0  0  0  0  0  0  0
  186.0900  177.4740  146.0380 C   0  0  0  0  0  3  0  0  0  0  0  0
  186.3560  177.5440  143.4420 C   0  0  0  0  0  0  0  0  0  0  0  0
  185.7460  178.7080  146.7960 C   0  0  0  0  0  3  0  0  0  0  0  0
  185.6630  179.7740  145.9230 F   0  0  0  0  0  0  0  0  0  0  0  0
  186.7200  178.9680  147.7450 F   0  0  0  0  0  0  0  0  0  0  0  0
  187.5670  176.9450  142.8070 C   0  0  0  0  0  2  0  0  0  0  0  0
  188.8290  177.7040  143.1940 C   0  0  0  0  0  2  0  0  0  0  0  0
  189.6100  176.9410  144.0660 O   0  0  0  0  0  0  0  0  0  0  0  0
  190.2350  177.8700  144.9040 C   0  0  0  0  0  3  0  0  0  0  0  0
  189.6060  176.7570  147.0700 C   0  0  0  0  0  2  0  0  0  0  0  0
  191.6760  177.4370  145.1820 C   0  0  0  0  0  2  0  0  0  0  0  0
  189.4540  178.0150  146.2140 C   0  0  0  0  0  2  0  0  0  0  0  0
  191.0190  176.5110  147.3520 N   0  0  0  0  0  2  0  0  0  0  0  0
  191.6960  176.2100  146.0930 C   0  0  0  0  0  2  0  0  0  0  0  0
  186.1580  179.2220  141.6330 C   0  0  0  0  0  2  0  0  0  0  0  0
  185.2930  179.6260  140.6170 O   0  0  0  0  0  0  0  0  0  0  0  0
  184.7100  178.4440  140.1530 C   0  0  0  0  0  2  0  0  0  0  0  0
  184.4810  178.5230  138.6520 C   0  0  0  0  0  2  0  0  0  0  0  0
  185.6350  177.8820  137.9070 C   0  0  0  0  0  2  0  0  0  0  0  0
  186.7900  178.6410  138.0970 O   0  0  0  0  0  0  0  0  0  0  0  0
  188.4090  175.6160  136.9100 C   0  0  0  0  0  3  0  0  0  0  0  0
  190.5310  177.4960  140.1600 N   0  0  0  0  0  1  0  0  0  0  0  0
  189.7080  175.3120  137.1820 C   0  0  0  0  0  3  0  0  0  0  0  0
  190.4700  175.9110  138.3310 C   0  0  0  0  0  3  0  0  0  0  0  0
  187.5850  176.5480  137.7820 C   0  0  1  0  0  3  0  0  0  0  0  0
  189.8950  176.8750  139.0500 C   0  0  0  0  0  0  0  0  0  0  0  0
  188.5970  177.2250  138.6290 N   0  0  0  0  0  0  0  0  0  0  0  0
  187.8110  177.8770  137.5350 C   0  0  2  0  0  3  0  0  0  0  0  0
  1  4  1  0  0  0  0
  2  3  2  0  0  0  0
  3  5  1  0  0  0  0
  4  2  2  0  0  0  0
  5  7  1  0  0  0  0
  6  5  1  0  0  0  0
  8  9  1  0  0  0  0
  8  4  1  0  0  0  0
  9 10  1  0  0  0  0
 10 11  1  0  0  0  0
 11 13  1  0  0  0  0
 11 14  1  0  0  0  0
 12 15  1  0  0  0  0
 13 16  1  0  0  0  0
 14 12  1  0  0  0  0
 16 15  1  0  0  0  0
 17  1  1  0  0  0  0
 18 17  1  0  0  0  0
 19 18  1  0  0  0  0
 20 19  1  0  0  0  0
 21 22  1  0  0  0  0
 21 20  1  0  0  0  0
 23 25  2  0  0  0  0
 25 26  1  0  0  0  0
 26 28  2  0  0  0  0
 27 23  1  6  0  0  0
 27 29  1  0  0  0  0
 28 24  1  0  0  0  0
 29 28  1  0  0  0  0
 30 27  1  0  0  0  0
 30 22  1  1  0  0  0
 30 29  1  0  0  0  0
M  END
>  <MODEL>
9

>  <REMARK>
 VINA RESULT:      -6.7      2.103      7.158
  Name = 
  13 active torsions:
  status: ('A' for Active; 'I' for Inactive)
    1  A    between atoms: O_3  and  C_23
    2  A    between atoms: O_3  and  C_26
    3  A    between atoms: O_6  and  C_10
    4  A    between atoms: O_6  and  C_15
    5  A    between atoms: C_8  and  O_9
    6  A    between atoms: O_9  and  C_18
    7  A    between atoms: C_10  and  C_21
    8  A    between atoms: C_12  and  C_15
    9  A    between atoms: C_12  and  C_30
   10  A    between atoms: C_18  and  C_22
   11  A    between atoms: C_21  and  C_23
   12  A    between atoms: C_22  and  C_30
   13  A    between atoms: C_24  and  C_29
                            x       y       z     vdW  Elec       q    Type
                         _______ _______ _______ _____ _____    ______ ____

>  <TORSDO>
F 13

$$$$
