=
 OpenBabel11042412003D

 28 30  0  0  1  0  0  0  0  0999 V2000
  191.4260  176.5100  146.3660 C   0  0  0  0  0  0  0  0  0  0  0  0
  189.0070  177.6110  145.4690 C   0  0  0  0  0  0  0  0  0  0  0  0
  191.3290  177.0180  145.0700 C   0  0  0  0  0  3  0  0  0  0  0  0
  190.1350  177.5920  144.6190 C   0  0  0  0  0  0  0  0  0  0  0  0
  192.5930  175.9720  146.7970 F   0  0  0  0  0  0  0  0  0  0  0  0
  190.3240  176.5580  147.2210 C   0  0  0  0  0  3  0  0  0  0  0  0
  189.1190  177.1000  146.7720 C   0  0  0  0  0  3  0  0  0  0  0  0
  190.2280  176.0150  142.1540 O   0  0  0  0  0  0  0  0  0  0  0  0
  190.3500  177.2680  142.1100 C   0  0  0  0  0  0  0  0  0  0  0  0
  190.0760  178.0670  143.2680 N   0  0  0  0  0  2  0  0  0  0  0  0
  192.4560  176.6600  139.5470 C   0  0  0  0  0  3  0  0  0  0  0  0
  187.6380  177.8200  138.5970 C   0  0  0  0  0  2  0  0  0  0  0  0
  188.6140  178.1340  139.7030 C   0  0  0  0  0  3  0  0  0  0  0  0
  192.1690  177.4790  140.5190 N   0  0  0  0  0  0  0  0  0  0  0  0
  189.8410  177.6080  139.7280 C   0  0  0  0  0  0  0  0  0  0  0  0
  190.2190  176.6090  138.7180 C   0  0  0  0  0  0  0  0  0  0  0  0
  191.4370  176.1690  138.6630 N   0  0  0  0  0  0  0  0  0  0  0  0
  190.8050  177.9180  140.8430 C   0  0  1  0  0  3  0  0  0  0  0  0
  189.2200  176.0920  137.8330 N   0  0  0  0  0  0  0  0  0  0  0  0
  188.0250  176.6050  137.7860 C   0  0  0  0  0  3  0  0  0  0  0  0
  187.7510  178.1060  144.9910 N   0  0  0  0  0  2  0  0  0  0  0  0
  186.7790  177.3020  144.2650 C   0  0  0  0  0  2  0  0  0  0  0  0
  186.5920  177.8650  142.8650 C   0  0  0  0  0  2  0  0  0  0  0  0
  185.3260  178.7180  142.7920 C   0  0  2  0  0  3  0  0  0  0  0  0
  183.5150  179.4570  144.2090 C   0  0  0  0  0  1  0  0  0  0  0  0
  184.3250  178.3160  143.7880 N   0  0  0  0  0  2  0  0  0  0  0  0
  185.2250  179.5550  140.5660 O   0  0  0  0  0  0  0  0  0  0  0  0
  184.7520  178.8000  141.4020 C   0  0  0  0  0  3  0  0  0  0  0  0
  1  5  1  0  0  0  0
  1  6  1  0  0  0  0
  2  7  1  0  0  0  0
  3  1  2  0  0  0  0
  4  3  1  0  0  0  0
  4  2  2  0  0  0  0
  7  6  2  0  0  0  0
  9  8  2  0  0  0  0
  9 10  1  0  0  0  0
 10  4  1  0  0  0  0
 11 14  2  0  0  0  0
 12 13  1  0  0  0  0
 13 15  2  0  0  0  0
 14 18  1  0  0  0  0
 15 18  1  0  0  0  0
 16 15  1  0  0  0  0
 17 16  2  0  0  0  0
 17 11  1  0  0  0  0
 18  9  1  1  0  0  0
 19 16  1  0  0  0  0
 20 19  2  0  0  0  0
 20 12  1  0  0  0  0
 21  2  1  0  0  0  0
 22 21  1  0  0  0  0
 23 22  1  0  0  0  0
 24 28  1  6  0  0  0
 24 23  1  0  0  0  0
 24 26  1  0  0  0  0
 26 25  1  0  0  0  0
 27 28  2  0  0  0  0
M  END
>  <MODEL>
1

>  <REMARK>
 VINA RESULT:      -7.6      0.000      0.000
  Name = 
  8 active torsions:
  status: ('A' for Active; 'I' for Inactive)
    1  A    between atoms: C_1  and  C_10
    2  A    between atoms: C_1  and  N_16
    3  A    between atoms: C_6  and  N_16
    4  A    between atoms: C_10  and  CA_25
    5  A    between atoms: C_11  and  N_28
    6  A    between atoms: C_17  and  C_22
    7  A    between atoms: N_21  and  CA_25
    8  A    between atoms: C_24  and  CA_25
                            x       y       z     vdW  Elec       q    Type
                         _______ _______ _______ _____ _____    ______ ____

>  <TORSDO>
F 8

$$$$
=
 OpenBabel11042412003D

 28 30  0  0  1  0  0  0  0  0999 V2000
  185.4110  178.4260  145.4820 C   0  0  0  0  0  0  0  0  0  0  0  0
  186.7220  177.8670  143.0660 C   0  0  0  0  0  0  0  0  0  0  0  0
  184.9770  179.0240  144.2980 C   0  0  0  0  0  3  0  0  0  0  0  0
  185.6070  178.7340  143.0830 C   0  0  0  0  0  0  0  0  0  0  0  0
  184.7810  178.7010  146.6500 F   0  0  0  0  0  0  0  0  0  0  0  0
  186.4890  177.5410  145.4640 C   0  0  0  0  0  3  0  0  0  0  0  0
  187.1460  177.2680  144.2630 C   0  0  0  0  0  3  0  0  0  0  0  0
  183.7190  177.7420  141.0770 O   0  0  0  0  0  0  0  0  0  0  0  0
  184.4010  178.7770  140.8500 C   0  0  0  0  0  0  0  0  0  0  0  0
  185.1480  179.4020  141.9000 N   0  0  0  0  0  2  0  0  0  0  0  0
  185.3280  177.8410  137.7450 C   0  0  0  0  0  3  0  0  0  0  0  0
  180.6890  179.6700  138.5200 C   0  0  0  0  0  2  0  0  0  0  0  0
  182.0340  179.8540  139.1780 C   0  0  0  0  0  3  0  0  0  0  0  0
  185.5240  178.7050  138.7000 N   0  0  0  0  0  0  0  0  0  0  0  0
  183.1060  179.1570  138.7940 C   0  0  0  0  0  0  0  0  0  0  0  0
  182.9560  178.1020  137.7810 C   0  0  0  0  0  0  0  0  0  0  0  0
  184.0020  177.4910  137.3200 N   0  0  0  0  0  0  0  0  0  0  0  0
  184.4420  179.3390  139.4650 C   0  0  1  0  0  3  0  0  0  0  0  0
  181.6450  177.7230  137.3500 N   0  0  0  0  0  0  0  0  0  0  0  0
  180.5930  178.4010  137.7040 C   0  0  0  0  0  3  0  0  0  0  0  0
  187.4380  177.6350  141.8470 N   0  0  0  0  0  2  0  0  0  0  0  0
  188.6470  178.3480  141.4620 C   0  0  0  0  0  2  0  0  0  0  0  0
  189.6350  177.3790  140.8320 C   0  0  0  0  0  2  0  0  0  0  0  0
  189.9640  177.8000  139.4010 C   0  0  2  0  0  3  0  0  0  0  0  0
  189.0010  178.8040  137.4260 C   0  0  0  0  0  1  0  0  0  0  0  0
  189.0310  178.8090  138.8880 N   0  0  0  0  0  2  0  0  0  0  0  0
  190.7140  175.6200  138.8060 O   0  0  0  0  0  0  0  0  0  0  0  0
  190.1180  176.6310  138.4640 C   0  0  0  0  0  3  0  0  0  0  0  0
  1  5  1  0  0  0  0
  2  4  2  0  0  0  0
  2  7  1  0  0  0  0
  3  1  2  0  0  0  0
  4  3  1  0  0  0  0
  6  1  1  0  0  0  0
  7  6  2  0  0  0  0
  9  8  2  0  0  0  0
  9 10  1  0  0  0  0
 10  4  1  0  0  0  0
 11 14  2  0  0  0  0
 12 13  1  0  0  0  0
 14 18  1  0  0  0  0
 15 13  2  0  0  0  0
 15 18  1  0  0  0  0
 16 15  1  0  0  0  0
 17 11  1  0  0  0  0
 17 16  2  0  0  0  0
 18  9  1  1  0  0  0
 19 20  2  0  0  0  0
 19 16  1  0  0  0  0
 20 12  1  0  0  0  0
 21  2  1  0  0  0  0
 22 21  1  0  0  0  0
 23 22  1  0  0  0  0
 24 28  1  6  0  0  0
 24 23  1  0  0  0  0
 25 26  1  0  0  0  0
 26 24  1  0  0  0  0
 28 27  2  0  0  0  0
M  END
>  <MODEL>
2

>  <REMARK>
 VINA RESULT:      -6.8      3.452      6.395
  Name = 
  8 active torsions:
  status: ('A' for Active; 'I' for Inactive)
    1  A    between atoms: C_1  and  C_10
    2  A    between atoms: C_1  and  N_16
    3  A    between atoms: C_6  and  N_16
    4  A    between atoms: C_10  and  CA_25
    5  A    between atoms: C_11  and  N_28
    6  A    between atoms: C_17  and  C_22
    7  A    between atoms: N_21  and  CA_25
    8  A    between atoms: C_24  and  CA_25
                            x       y       z     vdW  Elec       q    Type
                         _______ _______ _______ _____ _____    ______ ____

>  <TORSDO>
F 8

$$$$
=
 OpenBabel11042412003D

 28 30  0  0  1  0  0  0  0  0999 V2000
  189.9000  177.4920  145.7780 C   0  0  0  0  0  0  0  0  0  0  0  0
  187.5510  177.5320  144.2450 C   0  0  0  0  0  0  0  0  0  0  0  0
  189.9700  177.6840  144.3970 C   0  0  0  0  0  3  0  0  0  0  0  0
  188.8050  177.7310  143.6250 C   0  0  0  0  0  0  0  0  0  0  0  0
  191.0350  177.4670  146.5170 F   0  0  0  0  0  0  0  0  0  0  0  0
  188.6600  177.3310  146.3990 C   0  0  0  0  0  3  0  0  0  0  0  0
  187.4920  177.3430  145.6350 C   0  0  0  0  0  3  0  0  0  0  0  0
  190.1650  175.9640  141.7280 O   0  0  0  0  0  0  0  0  0  0  0  0
  189.7970  177.1150  141.3710 C   0  0  0  0  0  0  0  0  0  0  0  0
  188.9330  177.8940  142.2070 N   0  0  0  0  0  2  0  0  0  0  0  0
  191.9180  176.2930  138.8810 C   0  0  0  0  0  3  0  0  0  0  0  0
  187.1500  177.5330  137.7920 C   0  0  0  0  0  2  0  0  0  0  0  0
  188.1200  177.8840  138.8920 C   0  0  0  0  0  3  0  0  0  0  0  0
  191.6430  177.1770  139.7980 N   0  0  0  0  0  0  0  0  0  0  0  0
  189.3300  177.3260  138.9660 C   0  0  0  0  0  0  0  0  0  0  0  0
  189.6910  176.2570  138.0230 C   0  0  0  0  0  0  0  0  0  0  0  0
  190.8970  175.7800  138.0130 N   0  0  0  0  0  0  0  0  0  0  0  0
  190.2890  177.6740  140.0750 C   0  0  1  0  0  3  0  0  0  0  0  0
  188.6890  175.7180  137.1560 N   0  0  0  0  0  0  0  0  0  0  0  0
  187.5110  176.2600  137.0610 C   0  0  0  0  0  3  0  0  0  0  0  0
  186.3560  177.4800  143.4570 N   0  0  0  0  0  2  0  0  0  0  0  0
  185.5750  178.6490  143.0800 C   0  0  0  0  0  2  0  0  0  0  0  0
  185.6990  178.8880  141.5840 C   0  0  0  0  0  2  0  0  0  0  0  0
  184.3220  179.1050  140.9580 C   0  0  2  0  0  3  0  0  0  0  0  0
  183.0350  177.2100  140.1900 C   0  0  0  0  0  1  0  0  0  0  0  0
  183.3660  178.0570  141.3340 N   0  0  0  0  0  2  0  0  0  0  0  0
  184.2480  180.4340  138.9830 O   0  0  0  0  0  0  0  0  0  0  0  0
  184.3810  179.3190  139.4680 C   0  0  0  0  0  3  0  0  0  0  0  0
  1  6  1  0  0  0  0
  1  5  1  0  0  0  0
  2  7  1  0  0  0  0
  3  1  2  0  0  0  0
  4  2  2  0  0  0  0
  4  3  1  0  0  0  0
  7  6  2  0  0  0  0
  9  8  2  0  0  0  0
  9 10  1  0  0  0  0
 10  4  1  0  0  0  0
 11 14  2  0  0  0  0
 12 13  1  0  0  0  0
 13 15  2  0  0  0  0
 14 18  1  0  0  0  0
 15 18  1  0  0  0  0
 16 15  1  0  0  0  0
 17 16  2  0  0  0  0
 17 11  1  0  0  0  0
 18  9  1  1  0  0  0
 19 16  1  0  0  0  0
 20 19  2  0  0  0  0
 20 12  1  0  0  0  0
 21  2  1  0  0  0  0
 22 21  1  0  0  0  0
 23 22  1  0  0  0  0
 24 28  1  6  0  0  0
 24 26  1  0  0  0  0
 24 23  1  0  0  0  0
 25 26  1  0  0  0  0
 27 28  2  0  0  0  0
M  END
>  <MODEL>
3

>  <REMARK>
 VINA RESULT:      -6.8      1.361      1.816
  Name = 
  8 active torsions:
  status: ('A' for Active; 'I' for Inactive)
    1  A    between atoms: C_1  and  C_10
    2  A    between atoms: C_1  and  N_16
    3  A    between atoms: C_6  and  N_16
    4  A    between atoms: C_10  and  CA_25
    5  A    between atoms: C_11  and  N_28
    6  A    between atoms: C_17  and  C_22
    7  A    between atoms: N_21  and  CA_25
    8  A    between atoms: C_24  and  CA_25
                            x       y       z     vdW  Elec       q    Type
                         _______ _______ _______ _____ _____    ______ ____

>  <TORSDO>
F 8

$$$$
=
 OpenBabel11042412003D

 28 30  0  0  1  0  0  0  0  0999 V2000
  185.2820  178.3440  145.5470 C   0  0  0  0  0  0  0  0  0  0  0  0
  186.8050  177.8780  143.2380 C   0  0  0  0  0  0  0  0  0  0  0  0
  184.9220  178.9450  144.3400 C   0  0  0  0  0  3  0  0  0  0  0  0
  185.6590  178.7010  143.1760 C   0  0  0  0  0  0  0  0  0  0  0  0
  184.5500  178.5750  146.6640 F   0  0  0  0  0  0  0  0  0  0  0  0
  186.3940  177.5030  145.6040 C   0  0  0  0  0  3  0  0  0  0  0  0
  187.1550  177.2760  144.4570 C   0  0  0  0  0  3  0  0  0  0  0  0
  183.7760  177.7740  141.1340 O   0  0  0  0  0  0  0  0  0  0  0  0
  184.5190  178.7670  140.9090 C   0  0  0  0  0  0  0  0  0  0  0  0
  185.2690  179.3700  141.9700 N   0  0  0  0  0  2  0  0  0  0  0  0
  185.6120  177.7710  137.8770 C   0  0  0  0  0  3  0  0  0  0  0  0
  180.9290  179.5860  138.3710 C   0  0  0  0  0  2  0  0  0  0  0  0
  182.2370  179.7920  139.0940 C   0  0  0  0  0  3  0  0  0  0  0  0
  185.7530  178.6560  138.8230 N   0  0  0  0  0  0  0  0  0  0  0  0
  183.3310  179.0950  138.7810 C   0  0  0  0  0  0  0  0  0  0  0  0
  183.2400  178.0170  137.7850 C   0  0  0  0  0  0  0  0  0  0  0  0
  184.3120  177.4030  137.3910 N   0  0  0  0  0  0  0  0  0  0  0  0
  184.6300  179.3000  139.5160 C   0  0  1  0  0  3  0  0  0  0  0  0
  181.9560  177.6210  137.2940 N   0  0  0  0  0  0  0  0  0  0  0  0
  180.8820  178.3000  137.5780 C   0  0  0  0  0  3  0  0  0  0  0  0
  187.6260  177.6950  142.0780 N   0  0  0  0  0  2  0  0  0  0  0  0
  188.9430  178.2890  141.9080 C   0  0  0  0  0  2  0  0  0  0  0  0
  190.0080  177.2090  142.0000 C   0  0  0  0  0  2  0  0  0  0  0  0
  190.9560  177.4850  143.1660 C   0  0  2  0  0  3  0  0  0  0  0  0
  191.5260  176.6680  145.3670 C   0  0  0  0  0  1  0  0  0  0  0  0
  191.1810  176.2960  143.9960 N   0  0  0  0  0  2  0  0  0  0  0  0
  191.2280  179.7040  143.9860 O   0  0  0  0  0  0  0  0  0  0  0  0
  190.5520  178.6860  143.9800 C   0  0  0  0  0  3  0  0  0  0  0  0
  1  6  1  0  0  0  0
  1  5  1  0  0  0  0
  2  7  1  0  0  0  0
  3  1  2  0  0  0  0
  4  2  2  0  0  0  0
  4  3  1  0  0  0  0
  7  6  2  0  0  0  0
  9  8  2  0  0  0  0
  9 10  1  0  0  0  0
 10  4  1  0  0  0  0
 11 14  2  0  0  0  0
 12 13  1  0  0  0  0
 14 18  1  0  0  0  0
 15 13  2  0  0  0  0
 15 18  1  0  0  0  0
 16 15  1  0  0  0  0
 17 16  2  0  0  0  0
 17 11  1  0  0  0  0
 18  9  1  1  0  0  0
 19 20  2  0  0  0  0
 19 16  1  0  0  0  0
 20 12  1  0  0  0  0
 21  2  1  0  0  0  0
 22 23  1  0  0  0  0
 22 21  1  0  0  0  0
 24 23  1  6  0  0  0
 24 28  1  0  0  0  0
 24 26  1  0  0  0  0
 26 25  1  0  0  0  0
 28 27  2  0  0  0  0
M  END
>  <MODEL>
4

>  <REMARK>
 VINA RESULT:      -6.8      3.401      6.265
  Name = 
  8 active torsions:
  status: ('A' for Active; 'I' for Inactive)
    1  A    between atoms: C_1  and  C_10
    2  A    between atoms: C_1  and  N_16
    3  A    between atoms: C_6  and  N_16
    4  A    between atoms: C_10  and  CA_25
    5  A    between atoms: C_11  and  N_28
    6  A    between atoms: C_17  and  C_22
    7  A    between atoms: N_21  and  CA_25
    8  A    between atoms: C_24  and  CA_25
                            x       y       z     vdW  Elec       q    Type
                         _______ _______ _______ _____ _____    ______ ____

>  <TORSDO>
F 8

$$$$
=
 OpenBabel11042412003D

 28 30  0  0  1  0  0  0  0  0999 V2000
  184.3690  178.5960  145.2090 C   0  0  0  0  0  0  0  0  0  0  0  0
  186.3080  178.1290  143.2360 C   0  0  0  0  0  0  0  0  0  0  0  0
  185.6730  178.2610  145.5770 C   0  0  0  0  0  3  0  0  0  0  0  0
  186.6550  178.0500  144.6040 C   0  0  0  0  0  0  0  0  0  0  0  0
  183.4310  178.8160  146.1620 F   0  0  0  0  0  0  0  0  0  0  0  0
  184.0310  178.7100  143.8600 C   0  0  0  0  0  3  0  0  0  0  0  0
  184.9940  178.4700  142.8780 C   0  0  0  0  0  3  0  0  0  0  0  0
  187.7570  178.1430  147.3140 O   0  0  0  0  0  0  0  0  0  0  0  0
  188.5160  177.9520  146.3270 C   0  0  0  0  0  0  0  0  0  0  0  0
  187.9700  177.6740  145.0320 N   0  0  0  0  0  2  0  0  0  0  0  0
  191.0800  176.0100  147.3410 C   0  0  0  0  0  3  0  0  0  0  0  0
  191.3350  178.3520  142.8790 C   0  0  0  0  0  2  0  0  0  0  0  0
  190.6470  178.6280  144.1920 C   0  0  0  0  0  3  0  0  0  0  0  0
  190.4260  177.1130  147.5670 N   0  0  0  0  0  0  0  0  0  0  0  0
  190.6980  177.7630  145.2080 C   0  0  0  0  0  0  0  0  0  0  0  0
  191.3420  176.4560  145.0110 C   0  0  0  0  0  0  0  0  0  0  0  0
  191.4950  175.6490  146.0150 N   0  0  0  0  0  0  0  0  0  0  0  0
  189.9970  178.0410  146.5120 C   0  0  1  0  0  3  0  0  0  0  0  0
  191.7520  176.0660  143.6970 N   0  0  0  0  0  0  0  0  0  0  0  0
  191.7240  176.9020  142.7010 C   0  0  0  0  0  3  0  0  0  0  0  0
  187.2770  177.8220  142.2270 N   0  0  0  0  0  2  0  0  0  0  0  0
  187.5940  178.6950  141.1060 C   0  0  0  0  0  2  0  0  0  0  0  0
  187.9790  177.8570  139.8970 C   0  0  0  0  0  2  0  0  0  0  0  0
  189.2750  178.3740  139.2750 C   0  0  2  0  0  3  0  0  0  0  0  0
  188.0130  178.3040  137.2170 C   0  0  0  0  0  1  0  0  0  0  0  0
  189.0550  179.0020  137.9670 N   0  0  0  0  0  2  0  0  0  0  0  0
  190.1420  176.1730  139.5470 O   0  0  0  0  0  0  0  0  0  0  0  0
  190.3640  177.3350  139.2370 C   0  0  0  0  0  3  0  0  0  0  0  0
  1  3  1  0  0  0  0
  1  5  1  0  0  0  0
  2  4  1  0  0  0  0
  4 10  1  0  0  0  0
  4  3  2  0  0  0  0
  6  1  2  0  0  0  0
  7  2  2  0  0  0  0
  7  6  1  0  0  0  0
  9  8  2  0  0  0  0
 10  9  1  0  0  0  0
 11 14  2  0  0  0  0
 12 13  1  0  0  0  0
 13 15  2  0  0  0  0
 15 18  1  0  0  0  0
 16 15  1  0  0  0  0
 16 17  2  0  0  0  0
 17 11  1  0  0  0  0
 18  9  1  6  0  0  0
 18 14  1  0  0  0  0
 19 16  1  0  0  0  0
 20 12  1  0  0  0  0
 20 19  2  0  0  0  0
 21  2  1  0  0  0  0
 22 21  1  0  0  0  0
 23 22  1  0  0  0  0
 24 28  1  6  0  0  0
 24 23  1  0  0  0  0
 25 26  1  0  0  0  0
 26 24  1  0  0  0  0
 28 27  2  0  0  0  0
M  END
>  <MODEL>
5

>  <REMARK>
 VINA RESULT:      -6.6      2.788      6.078
  Name = 
  8 active torsions:
  status: ('A' for Active; 'I' for Inactive)
    1  A    between atoms: C_1  and  C_10
    2  A    between atoms: C_1  and  N_16
    3  A    between atoms: C_6  and  N_16
    4  A    between atoms: C_10  and  CA_25
    5  A    between atoms: C_11  and  N_28
    6  A    between atoms: C_17  and  C_22
    7  A    between atoms: N_21  and  CA_25
    8  A    between atoms: C_24  and  CA_25
                            x       y       z     vdW  Elec       q    Type
                         _______ _______ _______ _____ _____    ______ ____

>  <TORSDO>
F 8

$$$$
=
 OpenBabel11042412003D

 28 30  0  0  1  0  0  0  0  0999 V2000
  191.0250  176.7570  144.4390 C   0  0  0  0  0  0  0  0  0  0  0  0
  189.2430  177.5150  142.4100 C   0  0  0  0  0  0  0  0  0  0  0  0
  191.2850  176.4040  143.1140 C   0  0  0  0  0  3  0  0  0  0  0  0
  190.4160  176.7970  142.0900 C   0  0  0  0  0  0  0  0  0  0  0  0
  191.8830  176.3860  145.4190 F   0  0  0  0  0  0  0  0  0  0  0  0
  189.8850  177.4970  144.7540 C   0  0  0  0  0  3  0  0  0  0  0  0
  188.9940  177.8680  143.7460 C   0  0  0  0  0  3  0  0  0  0  0  0
  192.4880  177.8270  140.2960 O   0  0  0  0  0  0  0  0  0  0  0  0
  191.5830  177.0710  139.8520 C   0  0  0  0  0  0  0  0  0  0  0  0
  190.7080  176.3780  140.7500 N   0  0  0  0  0  2  0  0  0  0  0  0
  191.0740  174.6280  137.5830 C   0  0  0  0  0  3  0  0  0  0  0  0
  187.9900  178.6200  137.6880 C   0  0  0  0  0  2  0  0  0  0  0  0
  189.4310  178.3750  138.0560 C   0  0  0  0  0  3  0  0  0  0  0  0
  191.8730  175.5890  137.9530 N   0  0  0  0  0  0  0  0  0  0  0  0
  189.9750  177.1570  137.9930 C   0  0  0  0  0  0  0  0  0  0  0  0
  189.1250  176.0030  137.6670 C   0  0  0  0  0  0  0  0  0  0  0  0
  189.6560  174.8320  137.4970 N   0  0  0  0  0  0  0  0  0  0  0  0
  191.4130  176.9190  138.3740 C   0  0  1  0  0  3  0  0  0  0  0  0
  187.7070  176.1740  137.5890 N   0  0  0  0  0  0  0  0  0  0  0  0
  187.1630  177.3560  137.6330 C   0  0  0  0  0  3  0  0  0  0  0  0
  188.2940  177.8410  141.3860 N   0  0  0  0  0  2  0  0  0  0  0  0
  187.2600  178.8560  141.5250 C   0  0  0  0  0  2  0  0  0  0  0  0
  185.9670  178.2080  141.9950 C   0  0  0  0  0  2  0  0  0  0  0  0
  184.7630  179.0630  141.6030 C   0  0  2  0  0  3  0  0  0  0  0  0
  182.3870  178.6260  141.6090 C   0  0  0  0  0  1  0  0  0  0  0  0
  183.5850  178.7810  142.4320 N   0  0  0  0  0  2  0  0  0  0  0  0
  184.5570  179.9990  139.4230 O   0  0  0  0  0  0  0  0  0  0  0  0
  184.4560  179.0060  140.1300 C   0  0  0  0  0  3  0  0  0  0  0  0
  1  6  1  0  0  0  0
  1  5  1  0  0  0  0
  2  7  1  0  0  0  0
  3  1  2  0  0  0  0
  4  2  2  0  0  0  0
  4  3  1  0  0  0  0
  7  6  2  0  0  0  0
  9  8  2  0  0  0  0
  9 10  1  0  0  0  0
 10  4  1  0  0  0  0
 11 14  2  0  0  0  0
 12 13  1  0  0  0  0
 14 18  1  0  0  0  0
 15 13  2  0  0  0  0
 15 18  1  0  0  0  0
 16 15  1  0  0  0  0
 17 11  1  0  0  0  0
 17 16  2  0  0  0  0
 18  9  1  1  0  0  0
 19 20  2  0  0  0  0
 19 16  1  0  0  0  0
 20 12  1  0  0  0  0
 21 22  1  0  0  0  0
 21  2  1  0  0  0  0
 22 23  1  0  0  0  0
 24 28  1  6  0  0  0
 24 23  1  0  0  0  0
 24 26  1  0  0  0  0
 25 26  1  0  0  0  0
 27 28  2  0  0  0  0
M  END
>  <MODEL>
6

>  <REMARK>
 VINA RESULT:      -6.6      1.830      2.409
  Name = 
  8 active torsions:
  status: ('A' for Active; 'I' for Inactive)
    1  A    between atoms: C_1  and  C_10
    2  A    between atoms: C_1  and  N_16
    3  A    between atoms: C_6  and  N_16
    4  A    between atoms: C_10  and  CA_25
    5  A    between atoms: C_11  and  N_28
    6  A    between atoms: C_17  and  C_22
    7  A    between atoms: N_21  and  CA_25
    8  A    between atoms: C_24  and  CA_25
                            x       y       z     vdW  Elec       q    Type
                         _______ _______ _______ _____ _____    ______ ____

>  <TORSDO>
F 8

$$$$
=
 OpenBabel11042412003D

 28 30  0  0  1  0  0  0  0  0999 V2000
  189.9960  177.6730  145.5220 C   0  0  0  0  0  0  0  0  0  0  0  0
  187.6180  177.6660  144.0330 C   0  0  0  0  0  0  0  0  0  0  0  0
  190.0370  177.8610  144.1390 C   0  0  0  0  0  3  0  0  0  0  0  0
  188.8570  177.8840  143.3890 C   0  0  0  0  0  0  0  0  0  0  0  0
  191.1450  177.6700  146.2390 F   0  0  0  0  0  0  0  0  0  0  0  0
  188.7720  177.4930  146.1660 C   0  0  0  0  0  3  0  0  0  0  0  0
  187.5890  177.4820  145.4250 C   0  0  0  0  0  3  0  0  0  0  0  0
  189.9200  175.9810  141.4350 O   0  0  0  0  0  0  0  0  0  0  0  0
  189.6870  177.1720  141.0980 C   0  0  0  0  0  0  0  0  0  0  0  0
  188.9550  178.0440  141.9680 N   0  0  0  0  0  2  0  0  0  0  0  0
  191.7570  176.1960  138.6210 C   0  0  0  0  0  3  0  0  0  0  0  0
  187.0480  177.6340  137.5170 C   0  0  0  0  0  2  0  0  0  0  0  0
  188.0380  177.9640  138.6060 C   0  0  0  0  0  3  0  0  0  0  0  0
  191.5280  177.1120  139.5180 N   0  0  0  0  0  0  0  0  0  0  0  0
  189.2220  177.3510  138.6900 C   0  0  0  0  0  0  0  0  0  0  0  0
  189.5280  176.2460  137.7700 C   0  0  0  0  0  0  0  0  0  0  0  0
  190.7100  175.7120  137.7670 N   0  0  0  0  0  0  0  0  0  0  0  0
  190.1990  177.6790  139.7880 C   0  0  1  0  0  3  0  0  0  0  0  0
  188.4990  175.7350  136.9180 N   0  0  0  0  0  0  0  0  0  0  0  0
  187.3470  176.3300  136.8140 C   0  0  0  0  0  3  0  0  0  0  0  0
  186.4100  177.5910  143.2670 N   0  0  0  0  0  2  0  0  0  0  0  0
  185.5910  178.7420  142.9190 C   0  0  0  0  0  2  0  0  0  0  0  0
  184.1850  178.2830  142.5690 C   0  0  0  0  0  2  0  0  0  0  0  0
  183.2070  178.6430  143.6870 C   0  0  2  0  0  3  0  0  0  0  0  0
  181.3400  178.7300  142.1570 C   0  0  0  0  0  1  0  0  0  0  0  0
  182.0740  179.4390  143.2030 N   0  0  0  0  0  2  0  0  0  0  0  0
  183.9630  178.6780  145.9450 O   0  0  0  0  0  0  0  0  0  0  0  0
  183.8820  179.2700  144.8790 C   0  0  0  0  0  3  0  0  0  0  0  0
  1  6  1  0  0  0  0
  1  5  1  0  0  0  0
  2  7  1  0  0  0  0
  3  1  2  0  0  0  0
  4  2  2  0  0  0  0
  4  3  1  0  0  0  0
  7  6  2  0  0  0  0
  9  8  2  0  0  0  0
  9 10  1  0  0  0  0
 10  4  1  0  0  0  0
 11 14  2  0  0  0  0
 12 13  1  0  0  0  0
 13 15  2  0  0  0  0
 14 18  1  0  0  0  0
 15 18  1  0  0  0  0
 16 15  1  0  0  0  0
 17 16  2  0  0  0  0
 17 11  1  0  0  0  0
 18  9  1  1  0  0  0
 19 16  1  0  0  0  0
 20 19  2  0  0  0  0
 20 12  1  0  0  0  0
 21  2  1  0  0  0  0
 22 21  1  0  0  0  0
 23 22  1  0  0  0  0
 24 23  1  6  0  0  0
 24 28  1  0  0  0  0
 25 26  1  0  0  0  0
 26 24  1  0  0  0  0
 28 27  2  0  0  0  0
M  END
>  <MODEL>
7

>  <REMARK>
 VINA RESULT:      -6.6      1.757      2.164
  Name = 
  8 active torsions:
  status: ('A' for Active; 'I' for Inactive)
    1  A    between atoms: C_1  and  C_10
    2  A    between atoms: C_1  and  N_16
    3  A    between atoms: C_6  and  N_16
    4  A    between atoms: C_10  and  CA_25
    5  A    between atoms: C_11  and  N_28
    6  A    between atoms: C_17  and  C_22
    7  A    between atoms: N_21  and  CA_25
    8  A    between atoms: C_24  and  CA_25
                            x       y       z     vdW  Elec       q    Type
                         _______ _______ _______ _____ _____    ______ ____

>  <TORSDO>
F 8

$$$$
=
 OpenBabel11042412003D

 28 30  0  0  1  0  0  0  0  0999 V2000
  191.3220  178.5800  144.1640 C   0  0  0  0  0  0  0  0  0  0  0  0
  188.7960  177.5430  143.5210 C   0  0  0  0  0  0  0  0  0  0  0  0
  190.8680  178.6180  142.8450 C   0  0  0  0  0  3  0  0  0  0  0  0
  189.6000  178.1260  142.5150 C   0  0  0  0  0  0  0  0  0  0  0  0
  192.5450  179.0750  144.4730 F   0  0  0  0  0  0  0  0  0  0  0  0
  190.5170  178.0370  145.1660 C   0  0  0  0  0  3  0  0  0  0  0  0
  189.2630  177.5150  144.8440 C   0  0  0  0  0  3  0  0  0  0  0  0
  190.2090  176.1740  140.4200 O   0  0  0  0  0  0  0  0  0  0  0  0
  189.7080  177.2910  140.1210 C   0  0  0  0  0  0  0  0  0  0  0  0
  189.1930  178.1550  141.1410 N   0  0  0  0  0  2  0  0  0  0  0  0
  190.6170  176.1280  137.0880 C   0  0  0  0  0  3  0  0  0  0  0  0
  185.8850  177.7130  137.8390 C   0  0  0  0  0  2  0  0  0  0  0  0
  187.2310  178.0470  138.4340 C   0  0  0  0  0  3  0  0  0  0  0  0
  190.7780  177.0890  137.9520 N   0  0  0  0  0  0  0  0  0  0  0  0
  188.3380  177.3890  138.0810 C   0  0  0  0  0  0  0  0  0  0  0  0
  188.2340  176.2350  137.1770 C   0  0  0  0  0  0  0  0  0  0  0  0
  189.3070  175.6530  136.7400 N   0  0  0  0  0  0  0  0  0  0  0  0
  189.6750  177.7210  138.6890 C   0  0  1  0  0  3  0  0  0  0  0  0
  186.9420  175.7320  136.8250 N   0  0  0  0  0  0  0  0  0  0  0  0
  185.8550  176.3700  137.1480 C   0  0  0  0  0  3  0  0  0  0  0  0
  187.5370  176.9490  143.1840 N   0  0  0  0  0  2  0  0  0  0  0  0
  186.4070  176.8590  144.0970 C   0  0  0  0  0  2  0  0  0  0  0  0
  185.8170  178.2430  144.3190 C   0  0  0  0  0  2  0  0  0  0  0  0
  185.0700  178.3020  145.6510 C   0  0  2  0  0  3  0  0  0  0  0  0
  183.3780  179.2220  144.1920 C   0  0  0  0  0  1  0  0  0  0  0  0
  183.8510  179.1150  145.5710 N   0  0  0  0  0  2  0  0  0  0  0  0
  185.7720  179.7510  147.4050 O   0  0  0  0  0  0  0  0  0  0  0  0
  185.9530  178.7020  146.8030 C   0  0  0  0  0  3  0  0  0  0  0  0
  1  5  1  0  0  0  0
  1  6  1  0  0  0  0
  2  7  1  0  0  0  0
  3  1  2  0  0  0  0
  4  3  1  0  0  0  0
  4  2  2  0  0  0  0
  7  6  2  0  0  0  0
  9  8  2  0  0  0  0
  9 10  1  0  0  0  0
 10  4  1  0  0  0  0
 11 14  2  0  0  0  0
 12 13  1  0  0  0  0
 14 18  1  0  0  0  0
 15 13  2  0  0  0  0
 15 18  1  0  0  0  0
 16 15  1  0  0  0  0
 17 11  1  0  0  0  0
 17 16  2  0  0  0  0
 18  9  1  1  0  0  0
 19 20  2  0  0  0  0
 19 16  1  0  0  0  0
 20 12  1  0  0  0  0
 21  2  1  0  0  0  0
 21 22  1  0  0  0  0
 22 23  1  0  0  0  0
 24 23  1  6  0  0  0
 24 28  1  0  0  0  0
 25 26  1  0  0  0  0
 26 24  1  0  0  0  0
 28 27  2  0  0  0  0
M  END
>  <MODEL>
8

>  <REMARK>
 VINA RESULT:      -6.5      2.167      2.835
  Name = 
  8 active torsions:
  status: ('A' for Active; 'I' for Inactive)
    1  A    between atoms: C_1  and  C_10
    2  A    between atoms: C_1  and  N_16
    3  A    between atoms: C_6  and  N_16
    4  A    between atoms: C_10  and  CA_25
    5  A    between atoms: C_11  and  N_28
    6  A    between atoms: C_17  and  C_22
    7  A    between atoms: N_21  and  CA_25
    8  A    between atoms: C_24  and  CA_25
                            x       y       z     vdW  Elec       q    Type
                         _______ _______ _______ _____ _____    ______ ____

>  <TORSDO>
F 8

$$$$
=
 OpenBabel11042412003D

 28 30  0  0  1  0  0  0  0  0999 V2000
  185.3010  178.4170  142.8580 C   0  0  0  0  0  0  0  0  0  0  0  0
  187.9930  177.7270  143.2440 C   0  0  0  0  0  0  0  0  0  0  0  0
  186.2340  178.6520  141.8470 C   0  0  0  0  0  3  0  0  0  0  0  0
  187.5740  178.2900  142.0170 C   0  0  0  0  0  0  0  0  0  0  0  0
  184.0020  178.7560  142.6740 F   0  0  0  0  0  0  0  0  0  0  0  0
  185.7040  177.8280  144.0570 C   0  0  0  0  0  3  0  0  0  0  0  0
  187.0450  177.4910  144.2520 C   0  0  0  0  0  3  0  0  0  0  0  0
  187.0840  178.2490  139.1310 O   0  0  0  0  0  0  0  0  0  0  0  0
  188.2600  178.3310  139.5740 C   0  0  0  0  0  0  0  0  0  0  0  0
  188.4990  178.5860  140.9630 N   0  0  0  0  0  2  0  0  0  0  0  0
  190.9940  176.3790  139.2630 C   0  0  0  0  0  3  0  0  0  0  0  0
  187.7320  176.7360  135.4290 C   0  0  0  0  0  2  0  0  0  0  0  0
  188.1500  177.6390  136.5630 C   0  0  0  0  0  3  0  0  0  0  0  0
  190.5670  177.6050  139.3720 N   0  0  0  0  0  0  0  0  0  0  0  0
  189.0080  177.2340  137.5040 C   0  0  0  0  0  0  0  0  0  0  0  0
  189.4730  175.8400  137.5050 C   0  0  0  0  0  0  0  0  0  0  0  0
  190.3860  175.4600  138.3440 N   0  0  0  0  0  0  0  0  0  0  0  0
  189.4110  178.1380  138.6390 C   0  0  1  0  0  3  0  0  0  0  0  0
  188.8740  174.8990  136.6090 N   0  0  0  0  0  0  0  0  0  0  0  0
  188.0490  175.2800  135.6770 C   0  0  0  0  0  3  0  0  0  0  0  0
  189.3780  177.4400  143.4710 N   0  0  0  0  0  2  0  0  0  0  0  0
  190.2890  178.3230  144.1830 C   0  0  0  0  0  2  0  0  0  0  0  0
  191.1910  177.5040  145.0920 C   0  0  0  0  0  2  0  0  0  0  0  0
  190.3900  176.9070  146.2490 C   0  0  2  0  0  3  0  0  0  0  0  0
  188.4940  177.2120  147.7140 C   0  0  0  0  0  1  0  0  0  0  0  0
  189.4610  177.8760  146.8420 N   0  0  0  0  0  2  0  0  0  0  0  0
  192.0600  176.8800  147.9470 O   0  0  0  0  0  0  0  0  0  0  0  0
  191.2590  176.2390  147.2820 C   0  0  0  0  0  3  0  0  0  0  0  0
  1  6  1  0  0  0  0
  2 21  1  0  0  0  0
  2  7  1  0  0  0  0
  3  4  1  0  0  0  0
  3  1  2  0  0  0  0
  4  2  2  0  0  0  0
  5  1  1  0  0  0  0
  6  7  2  0  0  0  0
  8  9  2  0  0  0  0
  9 10  1  0  0  0  0
 10  4  1  0  0  0  0
 11 14  2  0  0  0  0
 12 20  1  0  0  0  0
 12 13  1  0  0  0  0
 13 15  2  0  0  0  0
 15 16  1  0  0  0  0
 15 18  1  0  0  0  0
 16 17  2  0  0  0  0
 17 11  1  0  0  0  0
 18 14  1  0  0  0  0
 18  9  1  1  0  0  0
 19 16  1  0  0  0  0
 20 19  2  0  0  0  0
 21 22  1  0  0  0  0
 22 23  1  0  0  0  0
 24 23  1  6  0  0  0
 24 26  1  0  0  0  0
 24 28  1  0  0  0  0
 26 25  1  0  0  0  0
 28 27  2  0  0  0  0
M  END
>  <MODEL>
9

>  <REMARK>
 VINA RESULT:      -6.5      2.708      5.029
  Name = 
  8 active torsions:
  status: ('A' for Active; 'I' for Inactive)
    1  A    between atoms: C_1  and  C_10
    2  A    between atoms: C_1  and  N_16
    3  A    between atoms: C_6  and  N_16
    4  A    between atoms: C_10  and  CA_25
    5  A    between atoms: C_11  and  N_28
    6  A    between atoms: C_17  and  C_22
    7  A    between atoms: N_21  and  CA_25
    8  A    between atoms: C_24  and  CA_25
                            x       y       z     vdW  Elec       q    Type
                         _______ _______ _______ _____ _____    ______ ____

>  <TORSDO>
F 8

$$$$
