=
 OpenBabel11032421053D

 59 66  0  0  1  0  0  0  0  0999 V2000
  185.1010  172.5240  135.9530 C   0  0  1  0  0  3  0  0  0  0  0  0
  186.5520  172.8450  136.3040 C   0  0  0  0  0  2  0  0  0  0  0  0
  190.8380  176.7290  136.4440 O   0  0  0  0  0  0  0  0  0  0  0  0
  189.6010  176.7280  135.7430 C   0  0  0  0  0  2  0  0  0  0  0  0
  184.0800  173.5280  135.5010 C   0  0  1  0  0  3  0  0  0  0  0  0
  188.6140  175.7490  136.2790 C   0  0  0  0  0  0  0  0  0  0  0  0
  180.3290  177.6480  137.9890 C   0  0  2  0  0  3  0  0  0  0  0  0
  182.2730  171.4980  134.6870 C   0  0  0  0  0  2  0  0  0  0  0  0
  183.0460  173.7620  136.6580 C   0  0  1  0  0  3  0  0  0  0  0  0
  191.3310  173.7700  136.8740 C   0  0  0  0  0  2  0  0  0  0  0  0
  180.5510  174.6190  135.9060 N   0  0  0  0  0  2  0  0  0  0  0  0
  185.0430  175.5770  136.6800 C   0  0  0  0  0  0  0  0  0  0  0  0
  181.2070  176.0660  138.0780 S   0  0  0  0  0  0  0  0  0  0  0  0
  192.4330  174.7040  136.1990 C   0  0  1  0  0  3  0  0  0  0  0  0
  184.6440  171.2690  135.8520 C   0  0  0  0  0  2  0  0  0  0  0  0
  187.8870  171.6940  135.6690 S   0  0  0  0  0  0  0  0  0  0  0  0
  191.9090  176.0890  135.7680 C   0  0  0  0  0  0  0  0  0  0  0  0
  181.3100  172.4760  135.3000 N   0  0  0  0  0  0  0  0  0  0  0  0
  189.0080  174.6240  136.8330 N   0  0  0  0  0  0  0  0  0  0  0  0
  187.3940  176.3140  136.6590 N   0  0  0  0  0  2  0  0  0  0  0  0
  192.1220  176.4540  134.5940 O   0  0  0  0  0  0  0  0  0  0  0  0
  184.6430  176.3860  137.6440 C   0  0  0  0  0  2  0  0  0  0  0  0
  189.3870  172.3040  136.5480 C   0  0  0  0  0  2  0  0  0  0  0  0
  189.9420  173.6720  136.2390 C   0  0  2  0  0  3  0  0  0  0  0  0
  183.8210  174.9180  136.0110 C   0  0  1  0  0  3  0  0  0  0  0  0
  181.5870  173.5580  135.9230 C   0  0  0  0  0  0  0  0  0  0  0  0
  179.0410  176.2580  136.6130 N   0  0  0  0  0  0  0  0  0  0  0  0
  178.9310  177.4780  137.4060 C   0  0  0  0  0  2  0  0  0  0  0  0
  186.2740  175.8650  135.8990 C   0  0  0  0  0  2  0  0  0  0  0  0
  180.1470  175.5660  136.8250 C   0  0  0  0  0  0  0  0  0  0  0  0
  183.2800  170.8260  135.6720 C   0  0  0  0  0  2  0  0  0  0  0  0
  179.9380  180.2250  138.6400 C   0  0  0  0  0  2  0  0  0  0  0  0
  182.0700  178.9410  139.2300 N   0  0  0  0  0  0  0  0  0  0  0  0
  182.3320  181.2700  138.5280 C   0  0  0  0  0  2  0  0  0  0  0  0
  182.8020  179.9720  139.1710 C   0  0  0  0  0  0  0  0  0  0  0  0
  180.8080  181.5390  138.9110 C   0  0  0  0  0  2  0  0  0  0  0  0
  180.9560  179.0280  138.3470 C   0  0  1  0  0  3  0  0  0  0  0  0
  184.0900  179.7760  139.5920 O   0  0  0  0  0  0  0  0  0  0  0  0
  184.4470  179.3870  140.8760 C   0  0  0  0  0  2  0  0  0  0  0  0
  185.5290  178.3730  140.6150 C   0  0  0  0  0  2  0  0  0  0  0  0
  186.8090  178.6200  141.3530 C   0  0  1  0  0  3  0  0  0  0  0  0
  186.9820  180.0100  141.4040 O   0  0  0  0  0  1  0  0  0  0  0  0
  190.8880  176.7210  143.0980 O   0  0  0  0  0  0  0  0  0  0  0  0
  185.8980  177.4900  143.3490 O   0  0  0  0  0  0  0  0  0  0  0  0
  188.6040  177.5740  145.6610 N   0  0  0  0  0  0  0  0  0  0  0  0
  187.4790  177.6980  146.6290 C   0  0  0  0  0  0  0  0  0  0  0  0
  188.6730  176.7790  144.3740 C   0  0  1  0  0  3  0  0  0  0  0  0
  188.1900  177.5520  143.1790 N   0  0  0  0  0  0  0  0  0  0  0  0
  191.9840  176.0790  145.9210 O   0  0  0  0  0  1  0  0  0  0  0  0
  186.9210  177.9370  142.7300 C   0  0  0  0  0  0  0  0  0  0  0  0
  189.0320  177.2170  141.9950 C   0  0  0  0  0  2  0  0  0  0  0  0
  190.3080  177.5450  142.2790 O   0  0  0  0  0  0  0  0  0  0  0  0
  190.2290  176.5870  144.3230 C   0  0  2  0  0  3  0  0  0  0  0  0
  191.0980  177.1370  145.4900 C   0  0  1  0  0  3  0  0  0  0  0  0
  186.3560  177.2580  146.4070 O   0  0  0  0  0  0  0  0  0  0  0  0
  187.7690  178.3900  147.9030 C   0  0  0  0  0  1  0  0  0  0  0  0
  189.8370  177.1700  146.4200 C   0  0  0  0  0  2  0  0  0  0  0  0
  193.9560  175.1470  138.0190 C   0  0  0  0  0  1  0  0  0  0  0  0
  193.9160  174.7980  136.5550 C   0  0  0  0  0  2  0  0  0  0  0  0
  1 15  1  6  0  0  0
  1  2  1  0  0  0  0
  4  6  1  0  0  0  0
  4  3  1  0  0  0  0
  5  1  1  0  0  0  0
  5 25  1  0  0  0  0
  5  9  1  0  0  0  0
  6 20  1  0  0  0  0
  6 19  2  0  0  0  0
  7 13  1  0  0  0  0
  7 37  1  0  0  0  0
  8 18  1  0  0  0  0
  8 31  1  0  0  0  0
 11 26  1  0  0  0  0
 11 30  1  0  0  0  0
 12 22  2  0  0  0  0
 14 59  1  0  0  0  0
 14 10  1  0  0  0  0
 16  2  1  0  0  0  0
 16 23  1  0  0  0  0
 17 14  1  0  0  0  0
 17  3  1  0  0  0  0
 18 26  2  0  0  0  0
 21 17  2  0  0  0  0
 24 23  1  0  0  0  0
 24 19  1  0  0  0  0
 24 10  1  0  0  0  0
 25  9  1  0  0  0  0
 25 12  1  0  0  0  0
 26  9  1  0  0  0  0
 27 30  2  0  0  0  0
 27 28  1  0  0  0  0
 28  7  1  0  0  0  0
 29 20  1  0  0  0  0
 29 12  1  0  0  0  0
 30 13  1  0  0  0  0
 31 15  1  0  0  0  0
 32 36  1  0  0  0  0
 34 36  1  0  0  0  0
 34 35  1  0  0  0  0
 35 33  2  0  0  0  0
 35 38  1  0  0  0  0
 37 32  1  0  0  0  0
 37 33  1  0  0  0  0
 38 39  1  0  0  0  0
 40 39  1  0  0  0  0
 40 41  1  0  0  0  0
 41 42  1  0  0  0  0
 41 50  1  0  0  0  0
 43 53  1  0  0  0  0
 45 57  1  0  0  0  0
 45 46  1  0  0  0  0
 46 56  1  0  0  0  0
 47 45  1  0  0  0  0
 48 47  1  0  0  0  0
 50 48  1  0  0  0  0
 50 44  2  0  0  0  0
 51 52  1  0  0  0  0
 51 48  1  0  0  0  0
 52 43  1  0  0  0  0
 53 47  1  0  0  0  0
 53 54  1  0  0  0  0
 54 49  1  0  0  0  0
 54 57  1  0  0  0  0
 55 46  2  0  0  0  0
 59 58  1  0  0  0  0
M  END
>  <MODEL>
1

>  <REMARK>
 VINA RESULT:      -8.2      0.000      0.000
  Name = 
  7 active torsions:
  status: ('A' for Active; 'I' for Inactive)
    1  A    between atoms: C_11  and  C_28
    2  A    between atoms: C_11  and  C_33
    3  A    between atoms: C_12  and  C_57
    4  A    between atoms: C_21  and  O_26
    5  A    between atoms: O_26  and  C_32
    6  A    between atoms: C_28  and  C_32
    7  A    between atoms: C_30  and  C_44
                            x       y       z     vdW  Elec       q    Type
                         _______ _______ _______ _____ _____    ______ ____

>  <TORSDO>
F 7

$$$$
=
 OpenBabel11032421053D

 59 66  0  0  1  0  0  0  0  0999 V2000
  181.5950  174.0290  135.6180 C   0  0  1  0  0  3  0  0  0  0  0  0
  181.1910  175.4860  135.8250 C   0  0  0  0  0  2  0  0  0  0  0  0
  182.0560  180.4870  138.6030 O   0  0  0  0  0  0  0  0  0  0  0  0
  182.4960  179.1670  138.8970 C   0  0  0  0  0  2  0  0  0  0  0  0
  182.7950  173.3700  136.2370 C   0  0  1  0  0  3  0  0  0  0  0  0
  182.4020  178.2360  137.7370 C   0  0  0  0  0  0  0  0  0  0  0  0
  188.7970  172.9520  135.2180 C   0  0  2  0  0  3  0  0  0  0  0  0
  181.8900  170.7790  135.5140 C   0  0  0  0  0  2  0  0  0  0  0  0
  183.8750  173.1280  135.1260 C   0  0  1  0  0  3  0  0  0  0  0  0
  179.5760  179.9790  136.9360 C   0  0  0  0  0  2  0  0  0  0  0  0
  185.6450  171.0800  135.5730 N   0  0  0  0  0  2  0  0  0  0  0  0
  184.2700  175.4410  136.4590 C   0  0  0  0  0  0  0  0  0  0  0  0
  187.1040  173.1180  134.5940 S   0  0  0  0  0  0  0  0  0  0  0  0
  179.5330  180.9240  138.2190 C   0  0  1  0  0  3  0  0  0  0  0  0
  180.8090  173.1440  134.9910 C   0  0  0  0  0  2  0  0  0  0  0  0
  179.3820  175.8640  136.1280 S   0  0  0  0  0  0  0  0  0  0  0  0
  180.7790  180.8220  139.1230 C   0  0  0  0  0  0  0  0  0  0  0  0
  183.3590  170.6310  135.2360 N   0  0  0  0  0  0  0  0  0  0  0  0
  181.4670  178.3850  136.8240 N   0  0  0  0  0  0  0  0  0  0  0  0
  183.6090  177.6210  137.3960 N   0  0  0  0  0  2  0  0  0  0  0  0
  180.6010  180.6090  140.3400 O   0  0  0  0  0  0  0  0  0  0  0  0
  185.4150  175.8440  135.9390 C   0  0  0  0  0  2  0  0  0  0  0  0
  179.3400  177.7030  136.0400 C   0  0  0  0  0  2  0  0  0  0  0  0
  180.0400  178.5280  137.0920 C   0  0  2  0  0  3  0  0  0  0  0  0
  184.1890  173.9020  136.4130 C   0  0  1  0  0  3  0  0  0  0  0  0
  184.2610  171.5370  135.2970 C   0  0  0  0  0  0  0  0  0  0  0  0
  187.9560  170.7730  135.4020 N   0  0  0  0  0  0  0  0  0  0  0  0
  189.2230  171.4900  135.2930 C   0  0  0  0  0  2  0  0  0  0  0  0
  183.6130  176.2040  137.5520 C   0  0  0  0  0  2  0  0  0  0  0  0
  186.8870  171.5110  135.1550 C   0  0  0  0  0  0  0  0  0  0  0  0
  181.1230  171.7880  134.6030 C   0  0  0  0  0  2  0  0  0  0  0  0
  190.7530  174.7220  134.7130 C   0  0  0  0  0  2  0  0  0  0  0  0
  188.9400  175.1060  136.4760 N   0  0  0  0  0  0  0  0  0  0  0  0
  191.2080  175.8330  137.0350 C   0  0  0  0  0  2  0  0  0  0  0  0
  189.6980  175.7990  137.2170 C   0  0  0  0  0  0  0  0  0  0  0  0
  191.5620  175.8670  135.4810 C   0  0  0  0  0  2  0  0  0  0  0  0
  189.6700  174.1350  135.7300 C   0  0  1  0  0  3  0  0  0  0  0  0
  189.0640  176.3870  138.2800 O   0  0  0  0  0  0  0  0  0  0  0  0
  189.3530  177.6570  138.7620 C   0  0  0  0  0  2  0  0  0  0  0  0
  189.5220  177.4090  140.2370 C   0  0  0  0  0  2  0  0  0  0  0  0
  188.7180  178.3130  141.1200 C   0  0  1  0  0  3  0  0  0  0  0  0
  187.6400  178.7730  140.3490 O   0  0  0  0  0  1  0  0  0  0  0  0
  191.8120  176.6330  144.4210 O   0  0  0  0  0  0  0  0  0  0  0  0
  187.1110  177.2680  142.6750 O   0  0  0  0  0  0  0  0  0  0  0  0
  188.7080  177.5580  145.8430 N   0  0  0  0  0  0  0  0  0  0  0  0
  187.2950  177.7020  146.2910 C   0  0  0  0  0  0  0  0  0  0  0  0
  189.2750  176.6960  144.7340 C   0  0  1  0  0  3  0  0  0  0  0  0
  189.2890  177.3880  143.4000 N   0  0  0  0  0  0  0  0  0  0  0  0
  191.7310  176.1800  147.4820 O   0  0  0  0  0  1  0  0  0  0  0  0
  188.2910  177.7100  142.4730 C   0  0  0  0  0  0  0  0  0  0  0  0
  190.5260  177.0130  142.6570 C   0  0  0  0  0  2  0  0  0  0  0  0
  191.5900  177.3940  143.3910 O   0  0  0  0  0  0  0  0  0  0  0  0
  190.7300  176.5480  145.3010 C   0  0  2  0  0  3  0  0  0  0  0  0
  191.0760  177.1860  146.6770 C   0  0  1  0  0  3  0  0  0  0  0  0
  186.3490  177.2180  145.6790 O   0  0  0  0  0  0  0  0  0  0  0  0
  187.0640  178.4700  147.5320 C   0  0  0  0  0  1  0  0  0  0  0  0
  189.5520  177.2320  147.0430 C   0  0  0  0  0  2  0  0  0  0  0  0
  179.9590  183.2460  137.7140 C   0  0  0  0  0  1  0  0  0  0  0  0
  178.9330  182.3260  138.3210 C   0  0  0  0  0  2  0  0  0  0  0  0
  1 15  1  1  0  0  0
  1  2  1  0  0  0  0
  1  5  1  0  0  0  0
  2 16  1  0  0  0  0
  3  4  1  0  0  0  0
  3 17  1  0  0  0  0
  5 25  1  0  0  0  0
  6  4  1  0  0  0  0
  7 28  1  0  0  0  0
  7 37  1  0  0  0  0
  9 26  1  0  0  0  0
  9  5  1  0  0  0  0
  9 25  1  0  0  0  0
 10 24  1  0  0  0  0
 10 14  1  0  0  0  0
 12 29  1  0  0  0  0
 13 30  1  0  0  0  0
 13  7  1  0  0  0  0
 14 59  1  0  0  0  0
 14 17  1  0  0  0  0
 17 21  2  0  0  0  0
 18 26  2  0  0  0  0
 18  8  1  0  0  0  0
 19 24  1  0  0  0  0
 19  6  2  0  0  0  0
 20 29  1  0  0  0  0
 20  6  1  0  0  0  0
 22 12  2  0  0  0  0
 23 16  1  0  0  0  0
 23 24  1  0  0  0  0
 25 12  1  0  0  0  0
 26 11  1  0  0  0  0
 28 27  1  0  0  0  0
 30 27  2  0  0  0  0
 30 11  1  0  0  0  0
 31 15  1  0  0  0  0
 31  8  1  0  0  0  0
 32 36  1  0  0  0  0
 32 37  1  0  0  0  0
 33 35  2  0  0  0  0
 34 35  1  0  0  0  0
 35 38  1  0  0  0  0
 36 34  1  0  0  0  0
 37 33  1  0  0  0  0
 38 39  1  0  0  0  0
 39 40  1  0  0  0  0
 40 41  1  0  0  0  0
 41 50  1  0  0  0  0
 42 41  1  0  0  0  0
 43 53  1  0  0  0  0
 45 46  1  0  0  0  0
 45 57  1  0  0  0  0
 46 56  1  0  0  0  0
 47 53  1  0  0  0  0
 47 45  1  0  0  0  0
 48 47  1  0  0  0  0
 50 44  2  0  0  0  0
 50 48  1  0  0  0  0
 51 52  1  0  0  0  0
 51 48  1  0  0  0  0
 52 43  1  0  0  0  0
 53 54  1  0  0  0  0
 54 57  1  0  0  0  0
 54 49  1  0  0  0  0
 55 46  2  0  0  0  0
 58 59  1  0  0  0  0
M  END
>  <MODEL>
2

>  <REMARK>
 VINA RESULT:      -8.0      1.800      7.524
  Name = 
  7 active torsions:
  status: ('A' for Active; 'I' for Inactive)
    1  A    between atoms: C_11  and  C_28
    2  A    between atoms: C_11  and  C_33
    3  A    between atoms: C_12  and  C_57
    4  A    between atoms: C_21  and  O_26
    5  A    between atoms: O_26  and  C_32
    6  A    between atoms: C_28  and  C_32
    7  A    between atoms: C_30  and  C_44
                            x       y       z     vdW  Elec       q    Type
                         _______ _______ _______ _____ _____    ______ ____

>  <TORSDO>
F 7

$$$$
=
 OpenBabel11032421053D

 59 66  0  0  1  0  0  0  0  0999 V2000
  185.2930  172.3840  135.9010 C   0  0  1  0  0  3  0  0  0  0  0  0
  186.7230  172.7620  136.2760 C   0  0  0  0  0  2  0  0  0  0  0  0
  190.8760  176.7890  136.4070 O   0  0  0  0  0  0  0  0  0  0  0  0
  189.6570  176.7280  135.6770 C   0  0  0  0  0  2  0  0  0  0  0  0
  184.2510  173.3410  135.3960 C   0  0  1  0  0  3  0  0  0  0  0  0
  188.6890  175.7310  136.2180 C   0  0  0  0  0  0  0  0  0  0  0  0
  180.3080  177.4020  137.6760 C   0  0  2  0  0  3  0  0  0  0  0  0
  182.5310  171.2300  134.5980 C   0  0  0  0  0  2  0  0  0  0  0  0
  183.1820  173.5720  136.5210 C   0  0  1  0  0  3  0  0  0  0  0  0
  191.4550  173.8610  136.9330 C   0  0  0  0  0  2  0  0  0  0  0  0
  180.6790  174.3250  135.6860 N   0  0  0  0  0  2  0  0  0  0  0  0
  185.1180  175.4530  136.5390 C   0  0  0  0  0  0  0  0  0  0  0  0
  181.2340  175.8530  137.8310 S   0  0  0  0  0  0  0  0  0  0  0  0
  192.5420  174.8120  136.2580 C   0  0  1  0  0  3  0  0  0  0  0  0
  184.8790  171.1120  135.8250 C   0  0  0  0  0  2  0  0  0  0  0  0
  188.1100  171.6400  135.7070 S   0  0  0  0  0  0  0  0  0  0  0  0
  191.9840  176.1670  135.7750 C   0  0  0  0  0  0  0  0  0  0  0  0
  181.5220  172.1920  135.1600 N   0  0  0  0  0  0  0  0  0  0  0  0
  189.1070  174.6360  136.8120 N   0  0  0  0  0  0  0  0  0  0  0  0
  187.4430  176.2660  136.5520 N   0  0  0  0  0  2  0  0  0  0  0  0
  192.2140  176.5050  134.5960 O   0  0  0  0  0  0  0  0  0  0  0  0
  184.6670  176.2750  137.4690 C   0  0  0  0  0  2  0  0  0  0  0  0
  189.5670  172.3230  136.6030 C   0  0  0  0  0  2  0  0  0  0  0  0
  190.0850  173.7000  136.2680 C   0  0  2  0  0  3  0  0  0  0  0  0
  183.9340  174.7350  135.8600 C   0  0  1  0  0  3  0  0  0  0  0  0
  181.7490  173.2990  135.7580 C   0  0  0  0  0  0  0  0  0  0  0  0
  179.1000  175.9320  136.3100 N   0  0  0  0  0  0  0  0  0  0  0  0
  178.9310  177.1690  137.0650 C   0  0  0  0  0  2  0  0  0  0  0  0
  186.3570  175.7590  135.7790 C   0  0  0  0  0  2  0  0  0  0  0  0
  180.2220  175.2830  136.5680 C   0  0  0  0  0  0  0  0  0  0  0  0
  183.5360  170.6200  135.6250 C   0  0  0  0  0  2  0  0  0  0  0  0
  179.9330  180.0610  137.7040 C   0  0  0  0  0  2  0  0  0  0  0  0
  181.5890  178.8660  139.2440 N   0  0  0  0  0  0  0  0  0  0  0  0
  182.2870  181.0190  138.3170 C   0  0  0  0  0  2  0  0  0  0  0  0
  182.3790  179.8540  139.2920 C   0  0  0  0  0  0  0  0  0  0  0  0
  180.7570  181.3850  138.0580 C   0  0  0  0  0  2  0  0  0  0  0  0
  180.8800  178.8100  138.0090 C   0  0  1  0  0  3  0  0  0  0  0  0
  183.4070  179.7130  140.1860 O   0  0  0  0  0  0  0  0  0  0  0  0
  183.4300  178.7820  141.2160 C   0  0  0  0  0  2  0  0  0  0  0  0
  184.8250  178.2260  141.1150 C   0  0  0  0  0  2  0  0  0  0  0  0
  185.8410  178.9270  141.9640 C   0  0  1  0  0  3  0  0  0  0  0  0
  185.1360  179.5460  143.0060 O   0  0  0  0  0  1  0  0  0  0  0  0
  189.7020  177.8500  139.2750 O   0  0  0  0  0  0  0  0  0  0  0  0
  186.8960  177.2520  143.4370 O   0  0  0  0  0  0  0  0  0  0  0  0
  190.3690  177.5980  142.7400 N   0  0  0  0  0  0  0  0  0  0  0  0
  190.4650  177.2470  144.1850 C   0  0  0  0  0  0  0  0  0  0  0  0
  189.3880  177.1000  141.7000 C   0  0  1  0  0  3  0  0  0  0  0  0
  188.1380  177.9310  141.6260 N   0  0  0  0  0  0  0  0  0  0  0  0
  192.6210  177.0000  139.8600 O   0  0  0  0  0  1  0  0  0  0  0  0
  187.0130  178.0530  142.4510 C   0  0  0  0  0  0  0  0  0  0  0  0
  187.7010  178.0480  140.2050 C   0  0  0  0  0  2  0  0  0  0  0  0
  188.6930  178.6350  139.5060 O   0  0  0  0  0  0  0  0  0  0  0  0
  190.2850  177.3280  140.4330 C   0  0  2  0  0  3  0  0  0  0  0  0
  191.7360  177.8560  140.6180 C   0  0  1  0  0  3  0  0  0  0  0  0
  189.6150  176.5830  144.7680 O   0  0  0  0  0  0  0  0  0  0  0  0
  191.6520  177.7420  144.9140 C   0  0  0  0  0  1  0  0  0  0  0  0
  191.7200  177.3910  142.1150 C   0  0  0  0  0  2  0  0  0  0  0  0
  194.1040  174.4790  138.0670 C   0  0  0  0  0  1  0  0  0  0  0  0
  194.0110  174.9650  136.6460 C   0  0  0  0  0  2  0  0  0  0  0  0
  1 15  1  6  0  0  0
  1  2  1  0  0  0  0
  4  6  1  0  0  0  0
  4  3  1  0  0  0  0
  5 25  1  0  0  0  0
  5  1  1  0  0  0  0
  5  9  1  0  0  0  0
  6 20  1  0  0  0  0
  6 19  2  0  0  0  0
  7 13  1  0  0  0  0
  7 37  1  0  0  0  0
  8 18  1  0  0  0  0
  8 31  1  0  0  0  0
 11 26  1  0  0  0  0
 11 30  1  0  0  0  0
 12 22  2  0  0  0  0
 14 59  1  0  0  0  0
 14 10  1  0  0  0  0
 16  2  1  0  0  0  0
 16 23  1  0  0  0  0
 17 14  1  0  0  0  0
 17  3  1  0  0  0  0
 18 26  2  0  0  0  0
 21 17  2  0  0  0  0
 24 23  1  0  0  0  0
 24 19  1  0  0  0  0
 24 10  1  0  0  0  0
 25  9  1  0  0  0  0
 25 12  1  0  0  0  0
 26  9  1  0  0  0  0
 27 30  2  0  0  0  0
 27 28  1  0  0  0  0
 28  7  1  0  0  0  0
 29 12  1  0  0  0  0
 29 20  1  0  0  0  0
 30 13  1  0  0  0  0
 31 15  1  0  0  0  0
 32 37  1  0  0  0  0
 32 36  1  0  0  0  0
 33 35  2  0  0  0  0
 34 35  1  0  0  0  0
 35 38  1  0  0  0  0
 36 34  1  0  0  0  0
 37 33  1  0  0  0  0
 38 39  1  0  0  0  0
 40 39  1  0  0  0  0
 40 41  1  0  0  0  0
 41 50  1  0  0  0  0
 41 42  1  0  0  0  0
 43 52  1  0  0  0  0
 43 53  1  0  0  0  0
 45 46  1  0  0  0  0
 46 55  2  0  0  0  0
 46 56  1  0  0  0  0
 47 45  1  0  0  0  0
 48 47  1  0  0  0  0
 48 50  1  0  0  0  0
 49 54  1  0  0  0  0
 50 44  2  0  0  0  0
 51 48  1  0  0  0  0
 52 51  1  0  0  0  0
 53 54  1  0  0  0  0
 53 47  1  0  0  0  0
 54 57  1  0  0  0  0
 57 45  1  0  0  0  0
 59 58  1  0  0  0  0
M  END
>  <MODEL>
3

>  <REMARK>
 VINA RESULT:      -7.7      1.351      1.962
  Name = 
  7 active torsions:
  status: ('A' for Active; 'I' for Inactive)
    1  A    between atoms: C_11  and  C_28
    2  A    between atoms: C_11  and  C_33
    3  A    between atoms: C_12  and  C_57
    4  A    between atoms: C_21  and  O_26
    5  A    between atoms: O_26  and  C_32
    6  A    between atoms: C_28  and  C_32
    7  A    between atoms: C_30  and  C_44
                            x       y       z     vdW  Elec       q    Type
                         _______ _______ _______ _____ _____    ______ ____

>  <TORSDO>
F 7

$$$$
=
 OpenBabel11032421053D

 59 66  0  0  1  0  0  0  0  0999 V2000
  184.8260  173.0360  135.6510 C   0  0  1  0  0  3  0  0  0  0  0  0
  184.1600  174.3890  135.8870 C   0  0  0  0  0  2  0  0  0  0  0  0
  184.1000  179.4120  138.7580 O   0  0  0  0  0  0  0  0  0  0  0  0
  184.7790  178.1920  139.0250 C   0  0  0  0  0  2  0  0  0  0  0  0
  186.1310  172.6000  136.2550 C   0  0  1  0  0  3  0  0  0  0  0  0
  184.8510  177.2810  137.8480 C   0  0  0  0  0  0  0  0  0  0  0  0
  192.1000  173.3210  135.2130 C   0  0  2  0  0  3  0  0  0  0  0  0
  185.7180  169.9000  135.4840 C   0  0  0  0  0  2  0  0  0  0  0  0
  187.2310  172.5830  135.1360 C   0  0  1  0  0  3  0  0  0  0  0  0
  181.7470  178.4830  137.0880 C   0  0  0  0  0  2  0  0  0  0  0  0
  189.3520  170.8900  135.5400 N   0  0  0  0  0  2  0  0  0  0  0  0
  187.1980  174.9050  136.5120 C   0  0  0  0  0  0  0  0  0  0  0  0
  190.4020  173.1820  134.5960 S   0  0  0  0  0  0  0  0  0  0  0  0
  181.5370  179.3810  138.3880 C   0  0  1  0  0  3  0  0  0  0  0  0
  184.2140  172.0320  135.0090 C   0  0  0  0  0  2  0  0  0  0  0  0
  182.3140  174.4190  136.2010 S   0  0  0  0  0  0  0  0  0  0  0  0
  182.7860  179.4940  139.2870 C   0  0  0  0  0  0  0  0  0  0  0  0
  187.1870  170.0320  135.2000 N   0  0  0  0  0  0  0  0  0  0  0  0
  183.9000  177.2700  136.9400 N   0  0  0  0  0  0  0  0  0  0  0  0
  186.1490  176.9060  137.4920 N   0  0  0  0  0  2  0  0  0  0  0  0
  182.6570  179.2310  140.5000 O   0  0  0  0  0  0  0  0  0  0  0  0
  188.2450  175.5220  135.9970 C   0  0  0  0  0  2  0  0  0  0  0  0
  181.9310  176.2200  136.1480 C   0  0  0  0  0  2  0  0  0  0  0  0
  182.4730  177.1410  137.2140 C   0  0  2  0  0  3  0  0  0  0  0  0
  187.4030  173.3780  136.4370 C   0  0  1  0  0  3  0  0  0  0  0  0
  187.9050  171.0880  135.2760 C   0  0  0  0  0  0  0  0  0  0  0  0
  191.6790  171.0210  135.3570 N   0  0  0  0  0  0  0  0  0  0  0  0
  192.7900  171.9620  135.2590 C   0  0  0  0  0  2  0  0  0  0  0  0
  186.4180  175.5120  137.6210 C   0  0  0  0  0  2  0  0  0  0  0  0
  190.4910  171.5520  135.1270 C   0  0  0  0  0  0  0  0  0  0  0  0
  184.7710  170.7660  134.5940 C   0  0  0  0  0  2  0  0  0  0  0  0
  193.9160  175.2690  134.8670 C   0  0  0  0  0  2  0  0  0  0  0  0
  191.7960  175.5660  136.2660 N   0  0  0  0  0  0  0  0  0  0  0  0
  193.8440  176.6010  137.1150 C   0  0  0  0  0  2  0  0  0  0  0  0
  192.3360  176.4000  137.0510 C   0  0  0  0  0  0  0  0  0  0  0  0
  194.4560  176.5580  135.6440 C   0  0  0  0  0  2  0  0  0  0  0  0
  192.7410  174.6360  135.7450 C   0  0  1  0  0  3  0  0  0  0  0  0
  191.4700  176.9870  137.9350 O   0  0  0  0  0  0  0  0  0  0  0  0
  191.6840  177.0740  139.3040 C   0  0  0  0  0  2  0  0  0  0  0  0
  190.4460  177.7880  139.7770 C   0  0  0  0  0  2  0  0  0  0  0  0
  189.7030  177.0920  140.8760 C   0  0  1  0  0  3  0  0  0  0  0  0
  189.8290  175.7160  140.6380 O   0  0  0  0  0  1  0  0  0  0  0  0
  186.5270  178.1050  144.3660 O   0  0  0  0  0  0  0  0  0  0  0  0
  191.2550  177.9700  142.5820 O   0  0  0  0  0  0  0  0  0  0  0  0
  189.6730  177.1310  145.6590 N   0  0  0  0  0  0  0  0  0  0  0  0
  191.0910  176.9910  146.0910 C   0  0  0  0  0  0  0  0  0  0  0  0
  189.0640  178.1200  144.6870 C   0  0  1  0  0  3  0  0  0  0  0  0
  189.0850  177.6360  143.2640 N   0  0  0  0  0  0  0  0  0  0  0  0
  186.5850  178.0980  147.4610 O   0  0  0  0  0  1  0  0  0  0  0  0
  190.0990  177.5060  142.3070 C   0  0  0  0  0  0  0  0  0  0  0  0
  187.8310  178.0570  142.5760 C   0  0  0  0  0  2  0  0  0  0  0  0
  186.7870  177.5190  143.2370 O   0  0  0  0  0  0  0  0  0  0  0  0
  187.6030  178.1100  145.2580 C   0  0  2  0  0  3  0  0  0  0  0  0
  187.2890  177.2570  146.5200 C   0  0  1  0  0  3  0  0  0  0  0  0
  192.0120  177.6070  145.5670 O   0  0  0  0  0  0  0  0  0  0  0  0
  191.3590  176.0580  147.2050 C   0  0  0  0  0  1  0  0  0  0  0  0
  188.8130  177.2310  146.8880 C   0  0  0  0  0  2  0  0  0  0  0  0
  181.0290  181.4820  137.3140 C   0  0  0  0  0  1  0  0  0  0  0  0
  180.6880  180.6450  138.5180 C   0  0  0  0  0  2  0  0  0  0  0  0
  1 15  1  1  0  0  0
  1  2  1  0  0  0  0
  1  5  1  0  0  0  0
  2 16  1  0  0  0  0
  3  4  1  0  0  0  0
  3 17  1  0  0  0  0
  5 25  1  0  0  0  0
  6  4  1  0  0  0  0
  7 28  1  0  0  0  0
  7 37  1  0  0  0  0
  9 26  1  0  0  0  0
  9  5  1  0  0  0  0
  9 25  1  0  0  0  0
 10 24  1  0  0  0  0
 10 14  1  0  0  0  0
 12 29  1  0  0  0  0
 13 30  1  0  0  0  0
 13  7  1  0  0  0  0
 14 59  1  0  0  0  0
 14 17  1  0  0  0  0
 17 21  2  0  0  0  0
 18 26  2  0  0  0  0
 18  8  1  0  0  0  0
 19 24  1  0  0  0  0
 19  6  2  0  0  0  0
 20 29  1  0  0  0  0
 20  6  1  0  0  0  0
 22 12  2  0  0  0  0
 23 16  1  0  0  0  0
 23 24  1  0  0  0  0
 25 12  1  0  0  0  0
 26 11  1  0  0  0  0
 28 27  1  0  0  0  0
 30 27  2  0  0  0  0
 30 11  1  0  0  0  0
 31 15  1  0  0  0  0
 31  8  1  0  0  0  0
 32 36  1  0  0  0  0
 32 37  1  0  0  0  0
 33 35  2  0  0  0  0
 35 34  1  0  0  0  0
 35 38  1  0  0  0  0
 36 34  1  0  0  0  0
 37 33  1  0  0  0  0
 38 39  1  0  0  0  0
 39 40  1  0  0  0  0
 40 41  1  0  0  0  0
 41 50  1  0  0  0  0
 42 41  1  0  0  0  0
 43 53  1  0  0  0  0
 45 46  1  0  0  0  0
 45 57  1  0  0  0  0
 46 56  1  0  0  0  0
 47 53  1  0  0  0  0
 47 45  1  0  0  0  0
 48 47  1  0  0  0  0
 50 44  2  0  0  0  0
 50 48  1  0  0  0  0
 51 52  1  0  0  0  0
 51 48  1  0  0  0  0
 52 43  1  0  0  0  0
 53 54  1  0  0  0  0
 54 57  1  0  0  0  0
 54 49  1  0  0  0  0
 55 46  2  0  0  0  0
 58 59  1  0  0  0  0
M  END
>  <MODEL>
4

>  <REMARK>
 VINA RESULT:      -7.4      2.051      7.953
  Name = 
  7 active torsions:
  status: ('A' for Active; 'I' for Inactive)
    1  A    between atoms: C_11  and  C_28
    2  A    between atoms: C_11  and  C_33
    3  A    between atoms: C_12  and  C_57
    4  A    between atoms: C_21  and  O_26
    5  A    between atoms: O_26  and  C_32
    6  A    between atoms: C_28  and  C_32
    7  A    between atoms: C_30  and  C_44
                            x       y       z     vdW  Elec       q    Type
                         _______ _______ _______ _____ _____    ______ ____

>  <TORSDO>
F 7

$$$$
=
 OpenBabel11032421053D

 59 66  0  0  1  0  0  0  0  0999 V2000
  184.6860  173.3630  135.7370 C   0  0  1  0  0  3  0  0  0  0  0  0
  184.0740  174.7390  135.9860 C   0  0  0  0  0  2  0  0  0  0  0  0
  184.2420  179.7550  138.8660 O   0  0  0  0  0  0  0  0  0  0  0  0
  184.8800  178.5090  139.1200 C   0  0  0  0  0  2  0  0  0  0  0  0
  185.9840  172.8780  136.3190 C   0  0  1  0  0  3  0  0  0  0  0  0
  184.9010  177.5990  137.9400 C   0  0  0  0  0  0  0  0  0  0  0  0
  191.9580  173.3840  135.1830 C   0  0  2  0  0  3  0  0  0  0  0  0
  185.4600  170.1970  135.5510 C   0  0  0  0  0  2  0  0  0  0  0  0
  187.0640  172.8240  135.1830 C   0  0  1  0  0  3  0  0  0  0  0  0
  181.8310  178.9160  137.2320 C   0  0  0  0  0  2  0  0  0  0  0  0
  189.1290  171.0550  135.5500 N   0  0  0  0  0  2  0  0  0  0  0  0
  187.1380  175.1420  136.5630 C   0  0  0  0  0  0  0  0  0  0  0  0
  190.2470  173.3080  134.5940 S   0  0  0  0  0  0  0  0  0  0  0  0
  181.6750  179.8170  138.5370 C   0  0  1  0  0  3  0  0  0  0  0  0
  184.0280  172.3840  135.1030 C   0  0  0  0  0  2  0  0  0  0  0  0
  182.2360  174.8350  136.3300 S   0  0  0  0  0  0  0  0  0  0  0  0
  182.9410  179.8830  139.4160 C   0  0  0  0  0  0  0  0  0  0  0  0
  186.9290  170.2760  135.2430 N   0  0  0  0  0  0  0  0  0  0  0  0
  183.9360  177.6250  137.0480 N   0  0  0  0  0  0  0  0  0  0  0  0
  186.1790  177.1790  137.5630 N   0  0  0  0  0  2  0  0  0  0  0  0
  182.8220  179.6220  140.6300 O   0  0  0  0  0  0  0  0  0  0  0  0
  188.1990  175.7220  136.0330 C   0  0  0  0  0  2  0  0  0  0  0  0
  181.9180  176.6500  136.2860 C   0  0  0  0  0  2  0  0  0  0  0  0
  182.5100  177.5470  137.3450 C   0  0  2  0  0  3  0  0  0  0  0  0
  187.2870  173.6090  136.4820 C   0  0  1  0  0  3  0  0  0  0  0  0
  187.6860  171.3050  135.3090 C   0  0  0  0  0  0  0  0  0  0  0  0
  191.4560  171.1010  135.3300 N   0  0  0  0  0  0  0  0  0  0  0  0
  192.5990  172.0010  135.2160 C   0  0  0  0  0  2  0  0  0  0  0  0
  186.3980  175.7750  137.6860 C   0  0  0  0  0  2  0  0  0  0  0  0
  190.2840  171.6750  135.1200 C   0  0  0  0  0  0  0  0  0  0  0  0
  184.5320  171.0990  134.6770 C   0  0  0  0  0  2  0  0  0  0  0  0
  193.5680  175.4700  134.6670 C   0  0  0  0  0  2  0  0  0  0  0  0
  191.8220  175.4810  136.5360 N   0  0  0  0  0  0  0  0  0  0  0  0
  193.9710  176.5490  137.0140 C   0  0  0  0  0  2  0  0  0  0  0  0
  192.4980  176.2590  137.2710 C   0  0  0  0  0  0  0  0  0  0  0  0
  194.2240  176.7020  135.4480 C   0  0  0  0  0  2  0  0  0  0  0  0
  192.6550  174.6730  135.7080 C   0  0  1  0  0  3  0  0  0  0  0  0
  191.8400  176.6920  138.3910 O   0  0  0  0  0  0  0  0  0  0  0  0
  190.5410  177.1800  138.3990 C   0  0  0  0  0  2  0  0  0  0  0  0
  190.1030  176.9030  139.8130 C   0  0  0  0  0  2  0  0  0  0  0  0
  189.4870  178.0720  140.5180 C   0  0  1  0  0  3  0  0  0  0  0  0
  189.0740  178.9700  139.5230 O   0  0  0  0  0  1  0  0  0  0  0  0
  190.3160  176.8170  145.1040 O   0  0  0  0  0  0  0  0  0  0  0  0
  187.2060  177.3820  141.1590 O   0  0  0  0  0  0  0  0  0  0  0  0
  187.0600  178.1180  144.6390 N   0  0  0  0  0  0  0  0  0  0  0  0
  185.6400  178.4040  144.2900 C   0  0  0  0  0  0  0  0  0  0  0  0
  187.9850  177.0570  144.0810 C   0  0  1  0  0  3  0  0  0  0  0  0
  188.7410  177.5150  142.8660 N   0  0  0  0  0  0  0  0  0  0  0  0
  188.6820  176.8870  147.7320 O   0  0  0  0  0  1  0  0  0  0  0  0
  188.3780  177.7260  141.5300 C   0  0  0  0  0  0  0  0  0  0  0  0
  190.1240  176.9600  142.9010 C   0  0  0  0  0  2  0  0  0  0  0  0
  190.7280  177.4050  144.0210 O   0  0  0  0  0  0  0  0  0  0  0  0
  188.9400  176.9340  145.3190 C   0  0  2  0  0  3  0  0  0  0  0  0
  188.6420  177.7750  146.5930 C   0  0  1  0  0  3  0  0  0  0  0  0
  185.0650  177.8720  143.3470 O   0  0  0  0  0  0  0  0  0  0  0  0
  184.9280  179.3800  145.1410 C   0  0  0  0  0  1  0  0  0  0  0  0
  187.1550  177.9570  146.1300 C   0  0  0  0  0  2  0  0  0  0  0  0
  179.8480  180.8300  139.7470 C   0  0  0  0  0  1  0  0  0  0  0  0
  180.8750  181.1110  138.6830 C   0  0  0  0  0  2  0  0  0  0  0  0
  1 15  1  1  0  0  0
  1  2  1  0  0  0  0
  1  5  1  0  0  0  0
  2 16  1  0  0  0  0
  3  4  1  0  0  0  0
  3 17  1  0  0  0  0
  5 25  1  0  0  0  0
  6  4  1  0  0  0  0
  7 28  1  0  0  0  0
  7 37  1  0  0  0  0
  9 26  1  0  0  0  0
  9  5  1  0  0  0  0
  9 25  1  0  0  0  0
 10 24  1  0  0  0  0
 10 14  1  0  0  0  0
 12 29  1  0  0  0  0
 13 30  1  0  0  0  0
 13  7  1  0  0  0  0
 14 59  1  0  0  0  0
 14 17  1  0  0  0  0
 17 21  2  0  0  0  0
 18 26  2  0  0  0  0
 18  8  1  0  0  0  0
 19 24  1  0  0  0  0
 19  6  2  0  0  0  0
 20 29  1  0  0  0  0
 20  6  1  0  0  0  0
 22 12  2  0  0  0  0
 23 16  1  0  0  0  0
 23 24  1  0  0  0  0
 25 12  1  0  0  0  0
 26 11  1  0  0  0  0
 28 27  1  0  0  0  0
 30 27  2  0  0  0  0
 30 11  1  0  0  0  0
 31 15  1  0  0  0  0
 31  8  1  0  0  0  0
 32 36  1  0  0  0  0
 32 37  1  0  0  0  0
 33 35  2  0  0  0  0
 34 35  1  0  0  0  0
 35 38  1  0  0  0  0
 36 34  1  0  0  0  0
 37 33  1  0  0  0  0
 38 39  1  0  0  0  0
 39 40  1  0  0  0  0
 40 41  1  0  0  0  0
 41 50  1  0  0  0  0
 42 41  1  0  0  0  0
 43 53  1  0  0  0  0
 44 50  2  0  0  0  0
 45 57  1  0  0  0  0
 46 45  1  0  0  0  0
 46 56  1  0  0  0  0
 47 45  1  0  0  0  0
 47 53  1  0  0  0  0
 48 51  1  0  0  0  0
 48 47  1  0  0  0  0
 50 48  1  0  0  0  0
 51 52  1  0  0  0  0
 52 43  1  0  0  0  0
 53 54  1  0  0  0  0
 54 49  1  0  0  0  0
 55 46  2  0  0  0  0
 57 54  1  0  0  0  0
 59 58  1  0  0  0  0
M  END
>  <MODEL>
5

>  <REMARK>
 VINA RESULT:      -7.4      2.137      7.791
  Name = 
  7 active torsions:
  status: ('A' for Active; 'I' for Inactive)
    1  A    between atoms: C_11  and  C_28
    2  A    between atoms: C_11  and  C_33
    3  A    between atoms: C_12  and  C_57
    4  A    between atoms: C_21  and  O_26
    5  A    between atoms: O_26  and  C_32
    6  A    between atoms: C_28  and  C_32
    7  A    between atoms: C_30  and  C_44
                            x       y       z     vdW  Elec       q    Type
                         _______ _______ _______ _____ _____    ______ ____

>  <TORSDO>
F 7

$$$$
=
 OpenBabel11032421053D

 59 66  0  0  1  0  0  0  0  0999 V2000
  182.3430  173.5870  135.8850 C   0  0  1  0  0  3  0  0  0  0  0  0
  181.8050  174.9710  136.2400 C   0  0  0  0  0  2  0  0  0  0  0  0
  182.2640  179.7510  139.4680 O   0  0  0  0  0  0  0  0  0  0  0  0
  182.8380  178.4600  139.6250 C   0  0  0  0  0  2  0  0  0  0  0  0
  183.6190  172.9960  136.4130 C   0  0  1  0  0  3  0  0  0  0  0  0
  182.8000  177.6370  138.3820 C   0  0  0  0  0  0  0  0  0  0  0  0
  189.6000  173.2750  135.2360 C   0  0  2  0  0  3  0  0  0  0  0  0
  182.9490  170.4080  135.4630 C   0  0  0  0  0  2  0  0  0  0  0  0
  184.6840  172.9680  135.2620 C   0  0  1  0  0  3  0  0  0  0  0  0
  179.7960  179.1570  137.8120 C   0  0  0  0  0  2  0  0  0  0  0  0
  186.6570  171.0730  135.4730 N   0  0  0  0  0  2  0  0  0  0  0  0
  184.8920  175.1740  136.8030 C   0  0  0  0  0  0  0  0  0  0  0  0
  187.8810  173.3300  134.6650 S   0  0  0  0  0  0  0  0  0  0  0  0
  179.7000  179.9690  139.1800 C   0  0  1  0  0  3  0  0  0  0  0  0
  181.6280  172.6910  135.1920 C   0  0  0  0  0  2  0  0  0  0  0  0
  179.9780  175.1370  136.6150 S   0  0  0  0  0  0  0  0  0  0  0  0
  180.9760  179.9070  140.0440 C   0  0  0  0  0  0  0  0  0  0  0  0
  184.4170  170.4330  135.1420 N   0  0  0  0  0  0  0  0  0  0  0  0
  181.8290  177.7770  137.5080 N   0  0  0  0  0  0  0  0  0  0  0  0
  184.0500  177.1800  137.9590 N   0  0  0  0  0  2  0  0  0  0  0  0
  180.8560  179.5650  141.2380 O   0  0  0  0  0  0  0  0  0  0  0  0
  185.9760  175.7360  136.3010 C   0  0  0  0  0  2  0  0  0  0  0  0
  179.7550  176.9630  136.7050 C   0  0  0  0  0  2  0  0  0  0  0  0
  180.4030  177.7510  137.8170 C   0  0  2  0  0  3  0  0  0  0  0  0
  184.9600  173.6460  136.6110 C   0  0  1  0  0  3  0  0  0  0  0  0
  185.2270  171.4140  135.2710 C   0  0  0  0  0  0  0  0  0  0  0  0
  188.9810  171.0160  135.2250 N   0  0  0  0  0  0  0  0  0  0  0  0
  190.1680  171.8620  135.1610 C   0  0  0  0  0  2  0  0  0  0  0  0
  184.1970  175.7620  137.9770 C   0  0  0  0  0  2  0  0  0  0  0  0
  187.8380  171.6640  135.0730 C   0  0  0  0  0  0  0  0  0  0  0  0
  182.0600  171.4160  134.6690 C   0  0  0  0  0  2  0  0  0  0  0  0
  191.4000  175.2360  134.8790 C   0  0  0  0  0  2  0  0  0  0  0  0
  189.5580  175.3340  136.6510 N   0  0  0  0  0  0  0  0  0  0  0  0
  191.7560  176.2060  137.2810 C   0  0  0  0  0  2  0  0  0  0  0  0
  190.2530  176.0310  137.4470 C   0  0  0  0  0  0  0  0  0  0  0  0
  192.1090  176.3850  135.7360 C   0  0  0  0  0  2  0  0  0  0  0  0
  190.3680  174.4860  135.8410 C   0  0  1  0  0  3  0  0  0  0  0  0
  189.5700  176.4830  138.5450 O   0  0  0  0  0  0  0  0  0  0  0  0
  190.1400  176.6940  139.7930 C   0  0  0  0  0  2  0  0  0  0  0  0
  189.3700  177.8840  140.3010 C   0  0  0  0  0  2  0  0  0  0  0  0
  188.6080  177.6420  141.5670 C   0  0  1  0  0  3  0  0  0  0  0  0
  188.0450  176.3620  141.4600 O   0  0  0  0  0  1  0  0  0  0  0  0
  186.5890  177.9770  145.9380 O   0  0  0  0  0  0  0  0  0  0  0  0
  190.5900  178.3250  142.8690 O   0  0  0  0  0  0  0  0  0  0  0  0
  189.9740  176.9650  146.1000 N   0  0  0  0  0  0  0  0  0  0  0  0
  191.4580  176.8270  146.0780 C   0  0  0  0  0  0  0  0  0  0  0  0
  189.1090  178.0590  145.5120 C   0  0  1  0  0  3  0  0  0  0  0  0
  188.7140  177.7940  144.0870 N   0  0  0  0  0  0  0  0  0  0  0  0
  187.5470  177.5110  148.8450 O   0  0  0  0  0  1  0  0  0  0  0  0
  189.4040  177.8550  142.8700 C   0  0  0  0  0  0  0  0  0  0  0  0
  187.3140  178.2560  143.8640 C   0  0  0  0  0  2  0  0  0  0  0  0
  186.5080  177.5780  144.7050 O   0  0  0  0  0  0  0  0  0  0  0  0
  187.8780  177.8980  146.4710 C   0  0  2  0  0  3  0  0  0  0  0  0
  187.9460  176.8520  147.6210 C   0  0  1  0  0  3  0  0  0  0  0  0
  192.1860  177.5560  145.4130 O   0  0  0  0  0  0  0  0  0  0  0  0
  192.0390  175.7510  146.9080 C   0  0  0  0  0  1  0  0  0  0  0  0
  189.5110  176.8410  147.5250 C   0  0  0  0  0  2  0  0  0  0  0  0
  179.6690  182.3030  138.5640 C   0  0  0  0  0  1  0  0  0  0  0  0
  178.9700  181.2880  139.4280 C   0  0  0  0  0  2  0  0  0  0  0  0
  1 15  1  1  0  0  0
  1  2  1  0  0  0  0
  1  5  1  0  0  0  0
  2 16  1  0  0  0  0
  3  4  1  0  0  0  0
  3 17  1  0  0  0  0
  5 25  1  0  0  0  0
  6  4  1  0  0  0  0
  7 37  1  0  0  0  0
  9 26  1  0  0  0  0
  9  5  1  0  0  0  0
  9 25  1  0  0  0  0
 10 24  1  0  0  0  0
 10 14  1  0  0  0  0
 12 29  1  0  0  0  0
 13 30  1  0  0  0  0
 13  7  1  0  0  0  0
 14 59  1  0  0  0  0
 14 17  1  0  0  0  0
 16 23  1  0  0  0  0
 17 21  2  0  0  0  0
 18 26  2  0  0  0  0
 18  8  1  0  0  0  0
 19 24  1  0  0  0  0
 19  6  2  0  0  0  0
 20 29  1  0  0  0  0
 20  6  1  0  0  0  0
 22 12  2  0  0  0  0
 23 24  1  0  0  0  0
 25 12  1  0  0  0  0
 26 11  1  0  0  0  0
 28 27  1  0  0  0  0
 28  7  1  0  0  0  0
 30 27  2  0  0  0  0
 30 11  1  0  0  0  0
 31 15  1  0  0  0  0
 31  8  1  0  0  0  0
 32 36  1  0  0  0  0
 32 37  1  0  0  0  0
 33 35  2  0  0  0  0
 34 35  1  0  0  0  0
 35 38  1  0  0  0  0
 36 34  1  0  0  0  0
 37 33  1  0  0  0  0
 38 39  1  0  0  0  0
 39 40  1  0  0  0  0
 40 41  1  0  0  0  0
 41 50  1  0  0  0  0
 42 41  1  0  0  0  0
 43 53  1  0  0  0  0
 44 50  2  0  0  0  0
 45 57  1  0  0  0  0
 46 45  1  0  0  0  0
 46 56  1  0  0  0  0
 47 45  1  0  0  0  0
 47 53  1  0  0  0  0
 48 47  1  0  0  0  0
 50 48  1  0  0  0  0
 51 48  1  0  0  0  0
 51 52  1  0  0  0  0
 52 43  1  0  0  0  0
 53 54  1  0  0  0  0
 54 49  1  0  0  0  0
 55 46  2  0  0  0  0
 57 54  1  0  0  0  0
 58 59  1  0  0  0  0
M  END
>  <MODEL>
6

>  <REMARK>
 VINA RESULT:      -7.1      1.866      7.768
  Name = 
  7 active torsions:
  status: ('A' for Active; 'I' for Inactive)
    1  A    between atoms: C_11  and  C_28
    2  A    between atoms: C_11  and  C_33
    3  A    between atoms: C_12  and  C_57
    4  A    between atoms: C_21  and  O_26
    5  A    between atoms: O_26  and  C_32
    6  A    between atoms: C_28  and  C_32
    7  A    between atoms: C_30  and  C_44
                            x       y       z     vdW  Elec       q    Type
                         _______ _______ _______ _____ _____    ______ ____

>  <TORSDO>
F 7

$$$$
=
 OpenBabel11032421053D

 59 66  0  0  1  0  0  0  0  0999 V2000
  187.3000  178.0910  143.4250 C   0  0  1  0  0  3  0  0  0  0  0  0
  185.8840  178.0800  142.8550 C   0  0  0  0  0  2  0  0  0  0  0  0
  182.3080  179.4870  138.5290 O   0  0  0  0  0  0  0  0  0  0  0  0
  183.6210  179.9370  138.8410 C   0  0  0  0  0  2  0  0  0  0  0  0
  188.5260  178.5390  142.6820 C   0  0  1  0  0  3  0  0  0  0  0  0
  184.3450  179.0490  139.7930 C   0  0  0  0  0  0  0  0  0  0  0  0
  192.4720  176.2700  138.6180 C   0  0  2  0  0  3  0  0  0  0  0  0
  190.0850  178.5960  145.0520 C   0  0  0  0  0  2  0  0  0  0  0  0
  189.3970  177.2830  142.3300 C   0  0  1  0  0  3  0  0  0  0  0  0
  181.2850  178.5800  141.2350 C   0  0  0  0  0  2  0  0  0  0  0  0
  192.0830  177.7220  141.9800 N   0  0  0  0  0  2  0  0  0  0  0  0
  187.7380  177.9800  140.3180 C   0  0  0  0  0  0  0  0  0  0  0  0
  191.3480  176.0330  140.0180 S   0  0  0  0  0  0  0  0  0  0  0  0
  180.4630  179.6140  140.3420 C   0  0  1  0  0  3  0  0  0  0  0  0
  187.5590  177.8590  144.7190 C   0  0  0  0  0  2  0  0  0  0  0  0
  184.4930  178.7080  143.9400 S   0  0  0  0  0  0  0  0  0  0  0  0
  181.2620  180.2070  139.1630 C   0  0  0  0  0  0  0  0  0  0  0  0
  191.0890  178.0230  144.0920 N   0  0  0  0  0  0  0  0  0  0  0  0
  183.6950  178.3660  140.7090 N   0  0  0  0  0  0  0  0  0  0  0  0
  185.5680  178.5730  139.3160 N   0  0  0  0  0  2  0  0  0  0  0  0
  181.2910  181.4490  139.0430 O   0  0  0  0  0  0  0  0  0  0  0  0
  188.1140  177.1380  139.3730 C   0  0  0  0  0  2  0  0  0  0  0  0
  182.9950  178.2530  142.9690 C   0  0  0  0  0  2  0  0  0  0  0  0
  182.7210  178.9210  141.6440 C   0  0  2  0  0  3  0  0  0  0  0  0
  188.9260  178.2740  141.2570 C   0  0  1  0  0  3  0  0  0  0  0  0
  190.8980  177.6850  142.8730 C   0  0  0  0  0  0  0  0  0  0  0  0
  193.7120  177.0890  140.4280 N   0  0  0  0  0  0  0  0  0  0  0  0
  193.8970  176.5450  139.0870 C   0  0  0  0  0  2  0  0  0  0  0  0
  186.7030  179.0130  140.0580 C   0  0  0  0  0  2  0  0  0  0  0  0
  192.4910  176.9490  140.9120 C   0  0  0  0  0  0  0  0  0  0  0  0
  188.8450  177.6980  145.3580 C   0  0  0  0  0  2  0  0  0  0  0  0
  193.1330  175.9210  136.0380 C   0  0  0  0  0  2  0  0  0  0  0  0
  190.7290  175.7730  136.8980 N   0  0  0  0  0  0  0  0  0  0  0  0
  191.0710  176.8550  134.7310 C   0  0  0  0  0  2  0  0  0  0  0  0
  190.2310  176.1880  135.8100 C   0  0  0  0  0  0  0  0  0  0  0  0
  192.4700  176.1020  134.5950 C   0  0  0  0  0  2  0  0  0  0  0  0
  192.0300  176.3100  137.1260 C   0  0  1  0  0  3  0  0  0  0  0  0
  188.8640  176.1230  135.7540 O   0  0  0  0  0  0  0  0  0  0  0  0
  188.1310  174.9440  135.7900 C   0  0  0  0  0  2  0  0  0  0  0  0
  186.8730  175.3700  136.4980 C   0  0  0  0  0  2  0  0  0  0  0  0
  185.8730  174.2750  136.7110 C   0  0  1  0  0  3  0  0  0  0  0  0
  186.3380  173.5100  137.7900 O   0  0  0  0  0  1  0  0  0  0  0  0
  182.0490  171.4680  135.8240 O   0  0  0  0  0  0  0  0  0  0  0  0
  184.0880  175.9710  136.8830 O   0  0  0  0  0  0  0  0  0  0  0  0
  181.2830  174.1110  138.0450 N   0  0  0  0  0  0  0  0  0  0  0  0
  180.9970  175.4020  138.7330 C   0  0  0  0  0  0  0  0  0  0  0  0
  181.8960  173.8720  136.6810 C   0  0  1  0  0  3  0  0  0  0  0  0
  183.3950  173.7850  136.7170 N   0  0  0  0  0  0  0  0  0  0  0  0
  179.0930  171.4250  136.7400 O   0  0  0  0  0  1  0  0  0  0  0  0
  184.4110  174.7360  136.8700 C   0  0  0  0  0  0  0  0  0  0  0  0
  183.8570  172.7460  135.7520 C   0  0  0  0  0  2  0  0  0  0  0  0
  183.3120  171.5670  136.1090 O   0  0  0  0  0  0  0  0  0  0  0  0
  181.2610  172.4640  136.4060 C   0  0  2  0  0  3  0  0  0  0  0  0
  180.2750  171.8610  137.4480 C   0  0  1  0  0  3  0  0  0  0  0  0
  181.3810  176.4850  138.3050 O   0  0  0  0  0  0  0  0  0  0  0  0
  180.2120  175.3310  139.9830 C   0  0  0  0  0  1  0  0  0  0  0  0
  180.0250  173.2890  138.0450 C   0  0  0  0  0  2  0  0  0  0  0  0
  178.9310  179.3340  138.4990 C   0  0  0  0  0  1  0  0  0  0  0  0
  178.9780  179.5590  139.9860 C   0  0  0  0  0  2  0  0  0  0  0  0
  1  2  1  1  0  0  0
  1 15  1  0  0  0  0
  2 16  1  0  0  0  0
  3  4  1  0  0  0  0
  3 17  1  0  0  0  0
  4  6  1  0  0  0  0
  5  1  1  0  0  0  0
  6 19  2  0  0  0  0
  7 28  1  0  0  0  0
  7 13  1  0  0  0  0
  8 31  1  0  0  0  0
  9  5  1  0  0  0  0
  9 26  1  0  0  0  0
 10 24  1  0  0  0  0
 11 26  1  0  0  0  0
 12 25  1  0  0  0  0
 13 30  1  0  0  0  0
 14 10  1  0  0  0  0
 15 31  1  0  0  0  0
 17 14  1  0  0  0  0
 18  8  1  0  0  0  0
 19 24  1  0  0  0  0
 20  6  1  0  0  0  0
 20 29  1  0  0  0  0
 21 17  2  0  0  0  0
 22 12  2  0  0  0  0
 23 16  1  0  0  0  0
 24 23  1  0  0  0  0
 25  9  1  0  0  0  0
 25  5  1  0  0  0  0
 26 18  2  0  0  0  0
 27 30  2  0  0  0  0
 28 27  1  0  0  0  0
 29 12  1  0  0  0  0
 30 11  1  0  0  0  0
 32 37  1  0  0  0  0
 33 37  1  0  0  0  0
 34 35  1  0  0  0  0
 35 33  2  0  0  0  0
 36 34  1  0  0  0  0
 36 32  1  0  0  0  0
 37  7  1  0  0  0  0
 38 39  1  0  0  0  0
 38 35  1  0  0  0  0
 39 40  1  0  0  0  0
 40 41  1  0  0  0  0
 41 50  1  0  0  0  0
 41 42  1  0  0  0  0
 43 52  1  0  0  0  0
 43 53  1  0  0  0  0
 45 46  1  0  0  0  0
 46 56  1  0  0  0  0
 47 48  1  0  0  0  0
 47 45  1  0  0  0  0
 48 50  1  0  0  0  0
 49 54  1  0  0  0  0
 50 44  2  0  0  0  0
 51 52  1  0  0  0  0
 51 48  1  0  0  0  0
 53 47  1  0  0  0  0
 53 54  1  0  0  0  0
 54 57  1  0  0  0  0
 55 46  2  0  0  0  0
 57 45  1  0  0  0  0
 58 59  1  0  0  0  0
 59 14  1  0  0  0  0
M  END
>  <MODEL>
7

>  <REMARK>
 VINA RESULT:      -6.7      3.425     10.992
  Name = 
  7 active torsions:
  status: ('A' for Active; 'I' for Inactive)
    1  A    between atoms: C_11  and  C_28
    2  A    between atoms: C_11  and  C_33
    3  A    between atoms: C_12  and  C_57
    4  A    between atoms: C_21  and  O_26
    5  A    between atoms: O_26  and  C_32
    6  A    between atoms: C_28  and  C_32
    7  A    between atoms: C_30  and  C_44
                            x       y       z     vdW  Elec       q    Type
                         _______ _______ _______ _____ _____    ______ ____

>  <TORSDO>
F 7

$$$$
=
 OpenBabel11032421053D

 59 66  0  0  1  0  0  0  0  0999 V2000
  184.2130  178.5220  144.5080 C   0  0  1  0  0  3  0  0  0  0  0  0
  183.3140  178.5130  143.2740 C   0  0  0  0  0  2  0  0  0  0  0  0
  182.5390  180.0020  137.7370 O   0  0  0  0  0  0  0  0  0  0  0  0
  183.4780  180.4560  138.7040 C   0  0  0  0  0  2  0  0  0  0  0  0
  185.6360  179.0010  144.5350 C   0  0  1  0  0  3  0  0  0  0  0  0
  183.6080  179.5490  139.8800 C   0  0  0  0  0  0  0  0  0  0  0  0
  191.1850  176.8810  143.1390 C   0  0  2  0  0  3  0  0  0  0  0  0
  185.7020  179.0090  147.3720 C   0  0  0  0  0  2  0  0  0  0  0  0
  186.5890  177.7630  144.6760 C   0  0  1  0  0  3  0  0  0  0  0  0
  180.2600  179.0130  139.4730 C   0  0  0  0  0  2  0  0  0  0  0  0
  189.0420  178.2380  145.8100 N   0  0  0  0  0  2  0  0  0  0  0  0
  186.2320  178.4990  142.1040 C   0  0  0  0  0  0  0  0  0  0  0  0
  189.4960  176.5950  143.7260 S   0  0  0  0  0  0  0  0  0  0  0  0
  180.0130  180.0630  138.2990 C   0  0  1  0  0  3  0  0  0  0  0  0
  183.7530  178.2580  145.7380 C   0  0  0  0  0  2  0  0  0  0  0  0
  181.5460  179.0980  143.4690 S   0  0  0  0  0  0  0  0  0  0  0  0
  181.3010  180.6950  137.7330 C   0  0  0  0  0  0  0  0  0  0  0  0
  187.0750  178.4720  147.0790 N   0  0  0  0  0  0  0  0  0  0  0  0
  182.5870  178.8360  140.3000 N   0  0  0  0  0  0  0  0  0  0  0  0
  184.9090  179.0980  140.1140 N   0  0  0  0  0  2  0  0  0  0  0  0
  181.3610  181.9390  137.6690 O   0  0  0  0  0  0  0  0  0  0  0  0
  187.0700  177.6870  141.4860 C   0  0  0  0  0  2  0  0  0  0  0  0
  180.8000  178.6550  141.8430 C   0  0  0  0  0  2  0  0  0  0  0  0
  181.2540  179.3560  140.5860 C   0  0  2  0  0  3  0  0  0  0  0  0
  186.7350  178.7790  143.5340 C   0  0  1  0  0  3  0  0  0  0  0  0
  187.5660  178.1660  145.9390 C   0  0  0  0  0  0  0  0  0  0  0  0
  191.2600  177.6620  145.3460 N   0  0  0  0  0  0  0  0  0  0  0  0
  192.1390  177.1570  144.2960 C   0  0  0  0  0  2  0  0  0  0  0  0
  185.4680  179.5290  141.3530 C   0  0  0  0  0  2  0  0  0  0  0  0
  189.9710  177.4980  145.1060 C   0  0  0  0  0  0  0  0  0  0  0  0
  184.5090  178.0910  146.9580 C   0  0  0  0  0  2  0  0  0  0  0  0
  193.1480  176.7460  141.3100 C   0  0  0  0  0  2  0  0  0  0  0  0
  190.6900  176.3020  140.7590 N   0  0  0  0  0  0  0  0  0  0  0  0
  191.9980  177.5310  139.0980 C   0  0  0  0  0  2  0  0  0  0  0  0
  190.7990  176.7210  139.5700 C   0  0  0  0  0  0  0  0  0  0  0  0
  193.3330  176.9370  139.7330 C   0  0  0  0  0  2  0  0  0  0  0  0
  191.5980  176.9570  141.6400 C   0  0  1  0  0  3  0  0  0  0  0  0
  189.6880  176.5180  138.7950 O   0  0  0  0  0  0  0  0  0  0  0  0
  189.5090  177.0470  137.5240 C   0  0  0  0  0  2  0  0  0  0  0  0
  188.1950  176.4410  137.1070 C   0  0  0  0  0  2  0  0  0  0  0  0
  186.9960  177.0080  137.8040 C   0  0  1  0  0  3  0  0  0  0  0  0
  187.2070  178.3900  137.9070 O   0  0  0  0  0  1  0  0  0  0  0  0
  185.6600  172.5020  136.7050 O   0  0  0  0  0  0  0  0  0  0  0  0
  184.9140  177.5000  136.5730 O   0  0  0  0  0  0  0  0  0  0  0  0
  182.8850  174.6410  137.1910 N   0  0  0  0  0  0  0  0  0  0  0  0
  181.8090  175.6700  137.1330 C   0  0  0  0  0  0  0  0  0  0  0  0
  184.1700  174.5560  136.3930 C   0  0  1  0  0  3  0  0  0  0  0  0
  185.3130  175.2850  137.0410 N   0  0  0  0  0  0  0  0  0  0  0  0
  182.9580  171.0380  136.3320 O   0  0  0  0  0  1  0  0  0  0  0  0
  185.6340  176.6400  137.1820 C   0  0  0  0  0  0  0  0  0  0  0  0
  186.5740  174.5160  136.8360 C   0  0  0  0  0  2  0  0  0  0  0  0
  186.4210  173.2980  137.3930 O   0  0  0  0  0  0  0  0  0  0  0  0
  184.3750  173.0030  136.4820 C   0  0  2  0  0  3  0  0  0  0  0  0
  183.3030  172.1380  137.2050 C   0  0  1  0  0  3  0  0  0  0  0  0
  181.9170  176.7110  136.4940 O   0  0  0  0  0  0  0  0  0  0  0  0
  180.5740  175.3860  137.8930 C   0  0  0  0  0  1  0  0  0  0  0  0
  182.2510  173.2870  137.0310 C   0  0  0  0  0  2  0  0  0  0  0  0
  179.1480  178.6820  136.5180 C   0  0  0  0  0  1  0  0  0  0  0  0
  178.9430  180.0030  137.2100 C   0  0  0  0  0  2  0  0  0  0  0  0
  1  2  1  1  0  0  0
  1  5  1  0  0  0  0
  1 15  1  0  0  0  0
  2 16  1  0  0  0  0
  3  4  1  0  0  0  0
  4  6  1  0  0  0  0
  5  9  1  0  0  0  0
  6 20  1  0  0  0  0
  6 19  2  0  0  0  0
  7 13  1  0  0  0  0
  7 28  1  0  0  0  0
  9 26  1  0  0  0  0
 10 24  1  0  0  0  0
 11 26  1  0  0  0  0
 12 25  1  0  0  0  0
 13 30  1  0  0  0  0
 14 10  1  0  0  0  0
 15 31  1  0  0  0  0
 17  3  1  0  0  0  0
 17 14  1  0  0  0  0
 18  8  1  0  0  0  0
 19 24  1  0  0  0  0
 20 29  1  0  0  0  0
 21 17  2  0  0  0  0
 22 12  2  0  0  0  0
 23 16  1  0  0  0  0
 24 23  1  0  0  0  0
 25  5  1  0  0  0  0
 25  9  1  0  0  0  0
 26 18  2  0  0  0  0
 28 27  1  0  0  0  0
 29 12  1  0  0  0  0
 30 27  2  0  0  0  0
 30 11  1  0  0  0  0
 31  8  1  0  0  0  0
 32 37  1  0  0  0  0
 33 37  1  0  0  0  0
 34 35  1  0  0  0  0
 34 36  1  0  0  0  0
 35 33  2  0  0  0  0
 36 32  1  0  0  0  0
 37  7  1  0  0  0  0
 38 35  1  0  0  0  0
 39 38  1  0  0  0  0
 40 39  1  0  0  0  0
 40 41  1  0  0  0  0
 41 42  1  0  0  0  0
 43 52  1  0  0  0  0
 44 50  2  0  0  0  0
 46 45  1  0  0  0  0
 46 56  1  0  0  0  0
 47 53  1  0  0  0  0
 47 48  1  0  0  0  0
 47 45  1  0  0  0  0
 48 50  1  0  0  0  0
 49 54  1  0  0  0  0
 50 41  1  0  0  0  0
 51 48  1  0  0  0  0
 51 52  1  0  0  0  0
 53 43  1  0  0  0  0
 53 54  1  0  0  0  0
 55 46  2  0  0  0  0
 57 45  1  0  0  0  0
 57 54  1  0  0  0  0
 58 59  1  0  0  0  0
 59 14  1  0  0  0  0
M  END
>  <MODEL>
8

>  <REMARK>
 VINA RESULT:      -6.5      3.177     10.777
  Name = 
  7 active torsions:
  status: ('A' for Active; 'I' for Inactive)
    1  A    between atoms: C_11  and  C_28
    2  A    between atoms: C_11  and  C_33
    3  A    between atoms: C_12  and  C_57
    4  A    between atoms: C_21  and  O_26
    5  A    between atoms: O_26  and  C_32
    6  A    between atoms: C_28  and  C_32
    7  A    between atoms: C_30  and  C_44
                            x       y       z     vdW  Elec       q    Type
                         _______ _______ _______ _____ _____    ______ ____

>  <TORSDO>
F 7

$$$$
=
 OpenBabel11032421053D

 59 66  0  0  1  0  0  0  0  0999 V2000
  184.4560  178.4620  144.3640 C   0  0  1  0  0  3  0  0  0  0  0  0
  183.5070  178.5350  143.1700 C   0  0  0  0  0  2  0  0  0  0  0  0
  182.5450  180.3150  137.7490 O   0  0  0  0  0  0  0  0  0  0  0  0
  183.5330  180.6990  138.6970 C   0  0  0  0  0  2  0  0  0  0  0  0
  185.8910  178.9060  144.3540 C   0  0  1  0  0  3  0  0  0  0  0  0
  183.6880  179.7320  139.8210 C   0  0  0  0  0  0  0  0  0  0  0  0
  191.3230  176.7300  142.6240 C   0  0  2  0  0  3  0  0  0  0  0  0
  186.0730  178.7710  147.1830 C   0  0  0  0  0  2  0  0  0  0  0  0
  186.8170  177.6410  144.3940 C   0  0  1  0  0  3  0  0  0  0  0  0
  180.3140  179.2940  139.5300 C   0  0  0  0  0  2  0  0  0  0  0  0
  189.3260  178.0020  145.4450 N   0  0  0  0  0  2  0  0  0  0  0  0
  186.3740  178.5120  141.8780 C   0  0  0  0  0  0  0  0  0  0  0  0
  189.6520  176.4550  143.2680 S   0  0  0  0  0  0  0  0  0  0  0  0
  180.0450  180.4060  138.4200 C   0  0  1  0  0  3  0  0  0  0  0  0
  184.0400  178.1470  145.5980 C   0  0  0  0  0  2  0  0  0  0  0  0
  181.7640  179.1500  143.4670 S   0  0  0  0  0  0  0  0  0  0  0  0
  181.3250  181.0360  137.8320 C   0  0  0  0  0  0  0  0  0  0  0  0
  187.4180  178.2180  146.8070 N   0  0  0  0  0  0  0  0  0  0  0  0
  182.6670  179.0230  140.2490 N   0  0  0  0  0  0  0  0  0  0  0  0
  184.9860  179.2400  139.9780 N   0  0  0  0  0  2  0  0  0  0  0  0
  181.4130  182.2800  137.8260 O   0  0  0  0  0  0  0  0  0  0  0  0
  187.1650  177.7120  141.1870 C   0  0  0  0  0  2  0  0  0  0  0  0
  180.9410  178.8060  141.8550 C   0  0  0  0  0  2  0  0  0  0  0  0
  181.3610  179.5580  140.6160 C   0  0  2  0  0  3  0  0  0  0  0  0
  186.9420  178.7080  143.2990 C   0  0  1  0  0  3  0  0  0  0  0  0
  187.8550  177.9570  145.6330 C   0  0  0  0  0  0  0  0  0  0  0  0
  191.5070  177.3980  144.8610 N   0  0  0  0  0  0  0  0  0  0  0  0
  192.3300  176.9250  143.7520 C   0  0  0  0  0  2  0  0  0  0  0  0
  185.6060  179.5950  141.2120 C   0  0  0  0  0  2  0  0  0  0  0  0
  190.2060  177.2760  144.6690 C   0  0  0  0  0  0  0  0  0  0  0  0
  184.8410  177.9030  146.7750 C   0  0  0  0  0  2  0  0  0  0  0  0
  193.1700  176.4960  140.6880 C   0  0  0  0  0  2  0  0  0  0  0  0
  190.6540  176.4030  140.2390 N   0  0  0  0  0  0  0  0  0  0  0  0
  192.0330  177.5880  138.6020 C   0  0  0  0  0  2  0  0  0  0  0  0
  190.7620  176.8980  139.0780 C   0  0  0  0  0  0  0  0  0  0  0  0
  193.3090  176.7850  139.1220 C   0  0  0  0  0  2  0  0  0  0  0  0
  191.6760  176.8710  141.1150 C   0  0  1  0  0  3  0  0  0  0  0  0
  189.6020  176.8940  138.3520 O   0  0  0  0  0  0  0  0  0  0  0  0
  188.7820  175.7860  138.1860 C   0  0  0  0  0  2  0  0  0  0  0  0
  188.4780  175.8300  136.7120 C   0  0  0  0  0  2  0  0  0  0  0  0
  187.0330  176.0390  136.3770 C   0  0  1  0  0  3  0  0  0  0  0  0
  186.9860  176.4480  135.0370 O   0  0  0  0  0  1  0  0  0  0  0  0
  182.6030  176.4960  138.2380 O   0  0  0  0  0  0  0  0  0  0  0  0
  186.5470  173.6620  136.8340 O   0  0  0  0  0  0  0  0  0  0  0  0
  183.0110  173.4530  136.4820 N   0  0  0  0  0  0  0  0  0  0  0  0
  183.3670  172.0970  135.9770 C   0  0  0  0  0  0  0  0  0  0  0  0
  183.6610  174.2610  137.5850 C   0  0  1  0  0  3  0  0  0  0  0  0
  184.7910  175.1230  137.0950 N   0  0  0  0  0  0  0  0  0  0  0  0
  180.0360  174.7670  138.2540 O   0  0  0  0  0  1  0  0  0  0  0  0
  186.1020  174.8500  136.6890 C   0  0  0  0  0  0  0  0  0  0  0  0
  184.7780  176.4230  137.8240 C   0  0  0  0  0  2  0  0  0  0  0  0
  183.5960  177.0270  137.5900 O   0  0  0  0  0  0  0  0  0  0  0  0
  182.4180  175.1370  137.9690 C   0  0  2  0  0  3  0  0  0  0  0  0
  181.0630  174.8890  137.2450 C   0  0  1  0  0  3  0  0  0  0  0  0
  184.3830  171.5030  136.3210 O   0  0  0  0  0  0  0  0  0  0  0  0
  182.4280  171.4750  135.0200 C   0  0  0  0  0  1  0  0  0  0  0  0
  181.5470  173.4590  136.8210 C   0  0  0  0  0  2  0  0  0  0  0  0
  179.4210  179.5560  136.2480 C   0  0  0  0  0  1  0  0  0  0  0  0
  178.9310  180.4260  137.3750 C   0  0  0  0  0  2  0  0  0  0  0  0
  1  2  1  1  0  0  0
  1 15  1  0  0  0  0
  2 16  1  0  0  0  0
  3 17  1  0  0  0  0
  3  4  1  0  0  0  0
  4  6  1  0  0  0  0
  5  1  1  0  0  0  0
  5  9  1  0  0  0  0
  6 20  1  0  0  0  0
  6 19  2  0  0  0  0
  7 13  1  0  0  0  0
  7 28  1  0  0  0  0
  9 26  1  0  0  0  0
 10 24  1  0  0  0  0
 11 26  1  0  0  0  0
 12 25  1  0  0  0  0
 13 30  1  0  0  0  0
 14 10  1  0  0  0  0
 15 31  1  0  0  0  0
 17 14  1  0  0  0  0
 18  8  1  0  0  0  0
 19 24  1  0  0  0  0
 20 29  1  0  0  0  0
 21 17  2  0  0  0  0
 22 12  2  0  0  0  0
 23 16  1  0  0  0  0
 24 23  1  0  0  0  0
 25  5  1  0  0  0  0
 25  9  1  0  0  0  0
 26 18  2  0  0  0  0
 28 27  1  0  0  0  0
 29 12  1  0  0  0  0
 30 27  2  0  0  0  0
 30 11  1  0  0  0  0
 31  8  1  0  0  0  0
 32 37  1  0  0  0  0
 33 37  1  0  0  0  0
 34 35  1  0  0  0  0
 34 36  1  0  0  0  0
 35 33  2  0  0  0  0
 36 32  1  0  0  0  0
 37  7  1  0  0  0  0
 38 35  1  0  0  0  0
 39 38  1  0  0  0  0
 40 39  1  0  0  0  0
 41 50  1  0  0  0  0
 41 40  1  0  0  0  0
 42 41  1  0  0  0  0
 45 57  1  0  0  0  0
 45 47  1  0  0  0  0
 46 55  2  0  0  0  0
 46 45  1  0  0  0  0
 47 53  1  0  0  0  0
 48 47  1  0  0  0  0
 48 51  1  0  0  0  0
 50 44  2  0  0  0  0
 50 48  1  0  0  0  0
 52 51  1  0  0  0  0
 52 43  1  0  0  0  0
 53 43  1  0  0  0  0
 54 53  1  0  0  0  0
 54 49  1  0  0  0  0
 56 46  1  0  0  0  0
 57 54  1  0  0  0  0
 58 59  1  0  0  0  0
 59 14  1  0  0  0  0
M  END
>  <MODEL>
9

>  <REMARK>
 VINA RESULT:      -5.9      3.208     10.952
  Name = 
  7 active torsions:
  status: ('A' for Active; 'I' for Inactive)
    1  A    between atoms: C_11  and  C_28
    2  A    between atoms: C_11  and  C_33
    3  A    between atoms: C_12  and  C_57
    4  A    between atoms: C_21  and  O_26
    5  A    between atoms: O_26  and  C_32
    6  A    between atoms: C_28  and  C_32
    7  A    between atoms: C_30  and  C_44
                            x       y       z     vdW  Elec       q    Type
                         _______ _______ _______ _____ _____    ______ ____

>  <TORSDO>
F 7

$$$$
