=
 OpenBabel11042410033D

 38 43  0  0  1  0  0  0  0  0999 V2000
  185.2880  177.9450  138.1370 C   0  0  0  0  0  0  0  0  0  0  0  0
  182.9950  177.5880  137.0880 C   0  0  0  0  0  0  0  0  0  0  0  0
  186.5860  177.8950  137.9630 N   0  0  0  0  0  0  0  0  0  0  0  0
  182.2410  178.5250  137.6830 C   0  0  0  0  0  3  0  0  0  0  0  0
  189.1330  178.2690  141.8370 N   0  0  0  0  0  2  0  0  0  0  0  0
  183.8360  179.6040  139.2760 C   0  0  0  0  0  3  0  0  0  0  0  0
  185.5840  179.0620  141.7410 C   0  0  0  0  0  3  0  0  0  0  0  0
  187.1260  178.3940  140.2320 C   0  0  0  0  0  0  0  0  0  0  0  0
  184.4250  177.5450  137.0620 N   0  0  0  0  0  0  0  0  0  0  0  0
  186.9220  179.1060  142.3670 C   0  0  0  0  0  3  0  0  0  0  0  0
  184.6750  178.3780  139.4600 C   0  0  2  0  0  3  0  0  0  0  0  0
  185.5450  177.1250  134.9370 C   0  0  0  0  0  1  0  0  0  0  0  0
  183.4780  175.9540  135.6620 C   0  0  0  0  0  0  0  0  0  0  0  0
  182.7410  179.6390  138.5130 C   0  0  0  0  0  3  0  0  0  0  0  0
  190.9110  177.4940  139.5450 C   0  0  0  0  0  2  0  0  0  0  0  0
  183.3330  174.8010  134.7350 C   0  0  0  0  0  1  0  0  0  0  0  0
  189.5120  176.8850  141.5630 C   0  0  1  0  0  3  0  0  0  0  0  0
  182.4420  176.5710  136.2170 C   0  0  0  0  0  3  0  0  0  0  0  0
  188.9850  178.3650  138.5990 C   0  0  0  0  0  2  0  0  0  0  0  0
  185.7330  178.6020  140.5040 C   0  0  0  0  0  0  0  0  0  0  0  0
  187.8270  178.7280  141.4670 C   0  0  0  0  0  0  0  0  0  0  0  0
  189.7380  177.1340  138.7550 N   0  0  0  0  0  2  0  0  0  0  0  0
  187.5550  178.1780  138.9870 C   0  0  0  0  0  0  0  0  0  0  0  0
  184.8000  176.5090  136.1110 C   0  0  2  0  0  3  0  0  0  0  0  0
  190.8840  176.8100  140.9050 C   0  0  0  0  0  2  0  0  0  0  0  0
  189.5330  176.0750  142.8520 C   0  0  0  0  0  2  0  0  0  0  0  0
  191.2480  175.8700  143.4380 S   0  0  0  0  0  0  0  0  0  0  0  0
  191.2220  177.4040  144.4230 C   0  0  0  0  0  2  0  0  0  0  0  0
  189.3140  177.0670  147.6700 N   0  0  0  0  0  0  0  0  0  0  0  0
  187.5440  177.9010  146.6480 C   0  0  0  0  0  0  0  0  0  0  0  0
  188.5990  177.8770  145.7550 C   0  0  0  0  0  3  0  0  0  0  0  0
  188.0150  177.3870  147.8440 C   0  0  0  0  0  3  0  0  0  0  0  0
  190.9530  177.1210  145.8690 C   0  0  0  0  0  0  0  0  0  0  0  0
  189.6520  177.3620  146.4240 N   0  0  0  0  0  0  0  0  0  0  0  0
  191.8760  176.6600  146.5990 O   0  0  0  0  0  0  0  0  0  0  0  0
  186.1800  178.3780  146.3800 C   0  0  0  0  0  0  0  0  0  0  0  0
  185.6050  179.3530  147.1900 O   0  0  0  0  0  1  0  0  0  0  0  0
  185.5330  177.9210  145.3990 O   0  0  0  0  0  0  0  0  0  0  0  0
  1 11  1  0  0  0  0
  2  4  2  0  0  0  0
  3  1  2  0  0  0  0
  3 23  1  0  0  0  0
  4 14  1  0  0  0  0
  7 10  1  0  0  0  0
  8 20  1  0  0  0  0
  8 21  1  0  0  0  0
  9  2  1  0  0  0  0
  9  1  1  0  0  0  0
 11  6  1  6  0  0  0
 11 20  1  0  0  0  0
 13 24  1  0  0  0  0
 13 18  2  0  0  0  0
 14  6  2  0  0  0  0
 15 25  1  0  0  0  0
 16 13  1  0  0  0  0
 17  5  1  0  0  0  0
 17 26  1  1  0  0  0
 18  2  1  0  0  0  0
 19 22  1  0  0  0  0
 19 23  1  0  0  0  0
 20  7  2  0  0  0  0
 21  5  1  0  0  0  0
 21 10  2  0  0  0  0
 22 15  1  0  0  0  0
 23  8  2  0  0  0  0
 24 12  1  6  0  0  0
 24  9  1  0  0  0  0
 25 17  1  0  0  0  0
 26 27  1  0  0  0  0
 27 28  1  0  0  0  0
 28 33  1  0  0  0  0
 29 32  2  0  0  0  0
 30 32  1  0  0  0  0
 31 34  1  0  0  0  0
 31 30  2  0  0  0  0
 33 34  1  0  0  0  0
 33 35  2  0  0  0  0
 34 29  1  0  0  0  0
 36 30  1  0  0  0  0
 36 37  1  0  0  0  0
 38 36  2  0  0  0  0
M  END
>  <MODEL>
1

>  <REMARK>
 VINA RESULT:      -9.4      0.000      0.000
  Name = 
  5 active torsions:
  status: ('A' for Active; 'I' for Inactive)
    1  A    between atoms: C_6  and  C_16
    2  A    between atoms: C_9  and  C_25
    3  A    between atoms: C_25  and  S_28
    4  A    between atoms: C_27  and  C_34
    5  A    between atoms: S_28  and  C_34
                            x       y       z     vdW  Elec       q    Type
                         _______ _______ _______ _____ _____    ______ ____

>  <TORSDO>
F 5

$$$$
=
 OpenBabel11042410033D

 38 43  0  0  1  0  0  0  0  0999 V2000
  191.0280  175.9280  137.6460 C   0  0  0  0  0  0  0  0  0  0  0  0
  191.2260  174.6190  135.4700 C   0  0  0  0  0  0  0  0  0  0  0  0
  191.6230  176.2960  138.7550 N   0  0  0  0  0  0  0  0  0  0  0  0
  190.4730  175.3330  134.6190 C   0  0  0  0  0  3  0  0  0  0  0  0
  188.8560  178.2240  141.9560 N   0  0  0  0  0  2  0  0  0  0  0  0
  189.5760  177.1660  136.0610 C   0  0  0  0  0  3  0  0  0  0  0  0
  187.8080  177.7190  138.5100 C   0  0  0  0  0  3  0  0  0  0  0  0
  189.7010  177.3570  139.6870 C   0  0  0  0  0  0  0  0  0  0  0  0
  191.7270  175.0670  136.7340 N   0  0  0  0  0  0  0  0  0  0  0  0
  187.6700  178.3330  139.8470 C   0  0  0  0  0  2  0  0  0  0  0  0
  189.6070  176.3590  137.3210 C   0  0  0  0  0  0  0  0  0  0  0  0
  194.0730  174.6750  137.2690 C   0  0  0  0  0  1  0  0  0  0  0  0
  192.6270  173.0190  136.1130 C   0  0  0  0  0  0  0  0  0  0  0  0
  189.9290  176.6820  134.8670 C   0  0  0  0  0  3  0  0  0  0  0  0
  191.5580  177.7020  143.1580 C   0  0  0  0  0  2  0  0  0  0  0  0
  193.3780  171.7370  136.1620 C   0  0  0  0  0  1  0  0  0  0  0  0
  189.1540  177.0290  142.7420 C   0  0  1  0  0  3  0  0  0  0  0  0
  191.7970  173.3330  135.1260 C   0  0  0  0  0  3  0  0  0  0  0  0
  191.8570  177.6690  140.8620 C   0  0  0  0  0  2  0  0  0  0  0  0
  188.9930  177.1200  138.4630 C   0  0  0  0  0  0  0  0  0  0  0  0
  188.7960  178.1320  140.5280 C   0  0  0  0  0  0  0  0  0  0  0  0
  191.8850  176.8220  142.0400 N   0  0  0  0  0  2  0  0  0  0  0  0
  191.0020  177.0770  139.7900 C   0  0  0  0  0  0  0  0  0  0  0  0
  192.6810  174.0670  137.1880 C   0  0  2  0  0  3  0  0  0  0  0  0
  190.2270  177.3110  143.7860 C   0  0  0  0  0  2  0  0  0  0  0  0
  187.8990  176.5270  143.4420 C   0  0  0  0  0  2  0  0  0  0  0  0
  186.8050  177.9260  143.8540 S   0  0  0  0  0  0  0  0  0  0  0  0
  186.1370  177.1210  145.3480 C   0  0  0  0  0  2  0  0  0  0  0  0
  188.0970  178.5990  148.2240 N   0  0  0  0  0  0  0  0  0  0  0  0
  189.8290  177.3850  147.5900 C   0  0  0  0  0  0  0  0  0  0  0  0
  188.7640  177.1040  146.7560 C   0  0  0  0  0  3  0  0  0  0  0  0
  189.3890  178.3270  148.5040 C   0  0  0  0  0  3  0  0  0  0  0  0
  186.4340  177.9210  146.5790 C   0  0  0  0  0  0  0  0  0  0  0  0
  187.7350  177.8650  147.1820 N   0  0  0  0  0  0  0  0  0  0  0  0
  185.5340  178.6520  147.0830 O   0  0  0  0  0  0  0  0  0  0  0  0
  191.1750  176.7990  147.5200 C   0  0  0  0  0  0  0  0  0  0  0  0
  192.1580  177.1840  148.4280 O   0  0  0  0  0  1  0  0  0  0  0  0
  191.4390  175.9270  146.6490 O   0  0  0  0  0  0  0  0  0  0  0  0
  1  3  1  0  0  0  0
  2  9  1  0  0  0  0
  3 23  2  0  0  0  0
  4 14  1  0  0  0  0
  4  2  2  0  0  0  0
  5 17  1  0  0  0  0
  6 11  1  0  0  0  0
  7 10  1  0  0  0  0
  8 23  1  0  0  0  0
  8 21  2  0  0  0  0
  9 24  1  0  0  0  0
  9  1  1  0  0  0  0
 10 21  1  0  0  0  0
 11  1  2  0  0  0  0
 11 20  1  0  0  0  0
 13 16  1  0  0  0  0
 13 24  1  0  0  0  0
 14  6  2  0  0  0  0
 15 25  1  0  0  0  0
 17 26  1  1  0  0  0
 17 25  1  0  0  0  0
 18  2  1  0  0  0  0
 18 13  2  0  0  0  0
 19 22  1  0  0  0  0
 20  7  2  0  0  0  0
 20  8  1  0  0  0  0
 21  5  1  0  0  0  0
 22 15  1  0  0  0  0
 23 19  1  0  0  0  0
 24 12  1  6  0  0  0
 26 27  1  0  0  0  0
 27 28  1  0  0  0  0
 28 33  1  0  0  0  0
 29 32  2  0  0  0  0
 30 32  1  0  0  0  0
 31 34  1  0  0  0  0
 31 30  2  0  0  0  0
 33 35  2  0  0  0  0
 33 34  1  0  0  0  0
 34 29  1  0  0  0  0
 36 30  1  0  0  0  0
 36 37  1  0  0  0  0
 38 36  2  0  0  0  0
M  END
>  <MODEL>
2

>  <REMARK>
 VINA RESULT:      -9.1      3.261      5.810
  Name = 
  5 active torsions:
  status: ('A' for Active; 'I' for Inactive)
    1  A    between atoms: C_6  and  C_16
    2  A    between atoms: C_9  and  C_25
    3  A    between atoms: C_25  and  S_28
    4  A    between atoms: C_27  and  C_34
    5  A    between atoms: S_28  and  C_34
                            x       y       z     vdW  Elec       q    Type
                         _______ _______ _______ _____ _____    ______ ____

>  <TORSDO>
F 5

$$$$
=
 OpenBabel11042410033D

 38 43  0  0  1  0  0  0  0  0999 V2000
  190.6950  176.2990  138.1000 C   0  0  0  0  0  0  0  0  0  0  0  0
  190.8520  175.2130  135.8020 C   0  0  0  0  0  0  0  0  0  0  0  0
  191.2970  176.5230  139.2430 N   0  0  0  0  0  0  0  0  0  0  0  0
  190.1390  176.0440  135.0260 C   0  0  0  0  0  3  0  0  0  0  0  0
  188.5920  178.2370  142.6160 N   0  0  0  0  0  2  0  0  0  0  0  0
  189.3140  177.7590  136.6460 C   0  0  0  0  0  3  0  0  0  0  0  0
  187.5520  178.1380  139.1320 C   0  0  0  0  0  3  0  0  0  0  0  0
  189.4170  177.5700  140.2720 C   0  0  0  0  0  0  0  0  0  0  0  0
  191.3610  175.5040  137.1070 N   0  0  0  0  0  0  0  0  0  0  0  0
  187.4310  178.6170  140.5240 C   0  0  0  0  0  2  0  0  0  0  0  0
  189.2970  176.8260  137.8160 C   0  0  0  0  0  0  0  0  0  0  0  0
  193.6820  174.9520  137.6080 C   0  0  0  0  0  1  0  0  0  0  0  0
  192.1730  173.4920  136.2820 C   0  0  0  0  0  0  0  0  0  0  0  0
  189.6550  177.3840  135.4100 C   0  0  0  0  0  3  0  0  0  0  0  0
  191.2570  177.4700  143.7670 C   0  0  0  0  0  2  0  0  0  0  0  0
  192.8650  172.1790  136.2020 C   0  0  0  0  0  1  0  0  0  0  0  0
  188.8290  176.9550  143.2750 C   0  0  1  0  0  3  0  0  0  0  0  0
  191.3670  173.9440  135.3290 C   0  0  0  0  0  3  0  0  0  0  0  0
  191.5740  177.6600  141.4820 C   0  0  0  0  0  2  0  0  0  0  0  0
  188.7090  177.4920  139.0270 C   0  0  0  0  0  0  0  0  0  0  0  0
  188.5400  178.2950  141.1860 C   0  0  0  0  0  0  0  0  0  0  0  0
  191.5540  176.6960  142.5670 N   0  0  0  0  0  2  0  0  0  0  0  0
  190.7020  177.2210  140.3510 C   0  0  0  0  0  0  0  0  0  0  0  0
  192.2660  174.4200  137.4590 C   0  0  2  0  0  3  0  0  0  0  0  0
  189.9050  177.0790  144.3470 C   0  0  0  0  0  2  0  0  0  0  0  0
  187.5460  176.4420  143.9150 C   0  0  0  0  0  2  0  0  0  0  0  0
  187.4300  177.0150  145.6420 S   0  0  0  0  0  0  0  0  0  0  0  0
  186.7680  178.6500  145.1830 C   0  0  0  0  0  2  0  0  0  0  0  0
  183.1040  178.6700  144.2480 N   0  0  0  0  0  0  0  0  0  0  0  0
  183.7060  178.6600  142.1240 C   0  0  0  0  0  0  0  0  0  0  0  0
  184.8460  178.6970  142.9060 C   0  0  0  0  0  3  0  0  0  0  0  0
  182.6240  178.6420  142.9870 C   0  0  0  0  0  3  0  0  0  0  0  0
  185.2790  178.7020  145.3420 C   0  0  0  0  0  0  0  0  0  0  0  0
  184.4270  178.7030  144.1890 N   0  0  0  0  0  0  0  0  0  0  0  0
  184.7750  178.7360  146.5020 O   0  0  0  0  0  0  0  0  0  0  0  0
  183.6530  178.6390  140.6550 C   0  0  0  0  0  0  0  0  0  0  0  0
  184.1140  179.7270  139.9200 O   0  0  0  0  0  0  0  0  0  0  0  0
  183.2090  177.6240  140.0540 O   0  0  0  0  0  1  0  0  0  0  0  0
  1  3  1  0  0  0  0
  2  9  1  0  0  0  0
  3 23  2  0  0  0  0
  4 14  1  0  0  0  0
  4  2  2  0  0  0  0
  5 17  1  0  0  0  0
  6 11  1  0  0  0  0
  7 10  1  0  0  0  0
  8 23  1  0  0  0  0
  8 21  2  0  0  0  0
  9 24  1  0  0  0  0
  9  1  1  0  0  0  0
 10 21  1  0  0  0  0
 11  1  2  0  0  0  0
 11 20  1  0  0  0  0
 13 24  1  0  0  0  0
 14  6  2  0  0  0  0
 15 25  1  0  0  0  0
 16 13  1  0  0  0  0
 17 26  1  1  0  0  0
 17 25  1  0  0  0  0
 18  2  1  0  0  0  0
 18 13  2  0  0  0  0
 19 22  1  0  0  0  0
 20  7  2  0  0  0  0
 20  8  1  0  0  0  0
 21  5  1  0  0  0  0
 22 15  1  0  0  0  0
 23 19  1  0  0  0  0
 24 12  1  6  0  0  0
 26 27  1  0  0  0  0
 28 33  1  0  0  0  0
 28 27  1  0  0  0  0
 30 31  2  0  0  0  0
 30 32  1  0  0  0  0
 31 34  1  0  0  0  0
 32 29  2  0  0  0  0
 33 35  2  0  0  0  0
 34 29  1  0  0  0  0
 34 33  1  0  0  0  0
 36 30  1  0  0  0  0
 37 36  2  0  0  0  0
 38 36  1  0  0  0  0
M  END
>  <MODEL>
3

>  <REMARK>
 VINA RESULT:      -8.7      3.345      6.015
  Name = 
  5 active torsions:
  status: ('A' for Active; 'I' for Inactive)
    1  A    between atoms: C_6  and  C_16
    2  A    between atoms: C_9  and  C_25
    3  A    between atoms: C_25  and  S_28
    4  A    between atoms: C_27  and  C_34
    5  A    between atoms: S_28  and  C_34
                            x       y       z     vdW  Elec       q    Type
                         _______ _______ _______ _____ _____    ______ ____

>  <TORSDO>
F 5

$$$$
=
 OpenBabel11042410033D

 38 43  0  0  1  0  0  0  0  0999 V2000
  182.9260  177.3650  139.4540 C   0  0  0  0  0  0  0  0  0  0  0  0
  180.5620  176.4310  139.2960 C   0  0  0  0  0  0  0  0  0  0  0  0
  184.0530  177.5900  138.8240 N   0  0  0  0  0  0  0  0  0  0  0  0
  179.8690  177.2200  140.1320 C   0  0  0  0  0  3  0  0  0  0  0  0
  187.6370  178.8080  141.5260 N   0  0  0  0  0  2  0  0  0  0  0  0
  181.6240  178.7420  141.0550 C   0  0  0  0  0  3  0  0  0  0  0  0
  184.2020  178.7880  142.7210 C   0  0  0  0  0  3  0  0  0  0  0  0
  185.2240  178.3660  140.7520 C   0  0  0  0  0  0  0  0  0  0  0  0
  181.8590  176.7040  138.7570 N   0  0  0  0  0  0  0  0  0  0  0  0
  185.6250  179.1730  142.8240 C   0  0  0  0  0  3  0  0  0  0  0  0
  182.7350  177.7500  140.9130 C   0  0  2  0  0  3  0  0  0  0  0  0
  182.2250  176.3840  136.3680 C   0  0  0  0  0  1  0  0  0  0  0  0
  180.8800  174.8420  137.7770 C   0  0  0  0  0  0  0  0  0  0  0  0
  180.3540  178.4760  140.7370 C   0  0  0  0  0  3  0  0  0  0  0  0
  188.6240  178.2770  138.7400 C   0  0  0  0  0  2  0  0  0  0  0  0
  180.6910  173.6190  136.9520 C   0  0  0  0  0  1  0  0  0  0  0  0
  188.2080  177.5260  141.1200 C   0  0  1  0  0  3  0  0  0  0  0  0
  179.9920  175.2540  138.6720 C   0  0  0  0  0  3  0  0  0  0  0  0
  186.3420  178.6260  138.5600 C   0  0  0  0  0  2  0  0  0  0  0  0
  184.0090  178.2800  141.5080 C   0  0  0  0  0  0  0  0  0  0  0  0
  186.2170  178.9390  141.6550 C   0  0  0  0  0  0  0  0  0  0  0  0
  187.3670  177.6070  138.4220 N   0  0  0  0  0  2  0  0  0  0  0  0
  185.2260  178.1560  139.4340 C   0  0  0  0  0  0  0  0  0  0  0  0
  182.1060  175.7080  137.7250 C   0  0  2  0  0  3  0  0  0  0  0  0
  189.2370  177.7070  140.0120 C   0  0  0  0  0  2  0  0  0  0  0  0
  188.8700  176.8400  142.3080 C   0  0  0  0  0  2  0  0  0  0  0  0
  190.6770  177.0780  142.2450 S   0  0  0  0  0  0  0  0  0  0  0  0
  190.6940  178.2410  143.6490 C   0  0  0  0  0  2  0  0  0  0  0  0
  189.3690  176.8870  146.9220 N   0  0  0  0  0  0  0  0  0  0  0  0
  187.4910  177.9870  146.5490 C   0  0  0  0  0  0  0  0  0  0  0  0
  188.3710  178.2520  145.5160 C   0  0  0  0  0  3  0  0  0  0  0  0
  188.1380  177.1270  147.4190 C   0  0  0  0  0  3  0  0  0  0  0  0
  190.6670  177.5160  144.9600 C   0  0  0  0  0  0  0  0  0  0  0  0
  189.4970  177.5620  145.7890 N   0  0  0  0  0  0  0  0  0  0  0  0
  191.6800  176.8560  145.3300 O   0  0  0  0  0  0  0  0  0  0  0  0
  186.1270  178.5150  146.6940 C   0  0  0  0  0  0  0  0  0  0  0  0
  185.9080  179.7270  147.3430 O   0  0  0  0  0  1  0  0  0  0  0  0
  185.1500  177.8810  146.2110 O   0  0  0  0  0  0  0  0  0  0  0  0
  1 11  1  0  0  0  0
  2  4  2  0  0  0  0
  3 23  1  0  0  0  0
  3  1  2  0  0  0  0
  4 14  1  0  0  0  0
  5 21  1  0  0  0  0
  7 10  1  0  0  0  0
  8 20  1  0  0  0  0
  8 21  1  0  0  0  0
  9  2  1  0  0  0  0
  9  1  1  0  0  0  0
 11  6  1  6  0  0  0
 11 20  1  0  0  0  0
 13 18  2  0  0  0  0
 14  6  2  0  0  0  0
 15 25  1  0  0  0  0
 16 13  1  0  0  0  0
 17  5  1  0  0  0  0
 17 26  1  1  0  0  0
 18  2  1  0  0  0  0
 19 23  1  0  0  0  0
 20  7  2  0  0  0  0
 21 10  2  0  0  0  0
 22 19  1  0  0  0  0
 22 15  1  0  0  0  0
 23  8  2  0  0  0  0
 24 12  1  6  0  0  0
 24 13  1  0  0  0  0
 24  9  1  0  0  0  0
 25 17  1  0  0  0  0
 27 26  1  0  0  0  0
 27 28  1  0  0  0  0
 28 33  1  0  0  0  0
 29 32  2  0  0  0  0
 30 36  1  0  0  0  0
 30 32  1  0  0  0  0
 31 34  1  0  0  0  0
 31 30  2  0  0  0  0
 33 35  2  0  0  0  0
 33 34  1  0  0  0  0
 34 29  1  0  0  0  0
 36 37  1  0  0  0  0
 38 36  2  0  0  0  0
M  END
>  <MODEL>
4

>  <REMARK>
 VINA RESULT:      -8.7      1.874      2.310
  Name = 
  5 active torsions:
  status: ('A' for Active; 'I' for Inactive)
    1  A    between atoms: C_6  and  C_16
    2  A    between atoms: C_9  and  C_25
    3  A    between atoms: C_25  and  S_28
    4  A    between atoms: C_27  and  C_34
    5  A    between atoms: S_28  and  C_34
                            x       y       z     vdW  Elec       q    Type
                         _______ _______ _______ _____ _____    ______ ____

>  <TORSDO>
F 5

$$$$
=
 OpenBabel11042410033D

 38 43  0  0  1  0  0  0  0  0999 V2000
  182.4230  177.2620  139.7000 C   0  0  0  0  0  0  0  0  0  0  0  0
  180.1280  176.2490  140.1390 C   0  0  0  0  0  0  0  0  0  0  0  0
  183.3680  177.4800  138.8170 N   0  0  0  0  0  0  0  0  0  0  0  0
  179.6080  177.0690  141.0640 C   0  0  0  0  0  3  0  0  0  0  0  0
  187.4130  178.9780  140.5560 N   0  0  0  0  0  2  0  0  0  0  0  0
  181.4570  178.7000  141.4750 C   0  0  0  0  0  3  0  0  0  0  0  0
  184.3410  178.9310  142.5030 C   0  0  0  0  0  3  0  0  0  0  0  0
  184.9090  178.4140  140.3800 C   0  0  0  0  0  0  0  0  0  0  0  0
  181.2560  176.5260  139.3030 N   0  0  0  0  0  0  0  0  0  0  0  0
  185.7320  179.3650  142.2570 C   0  0  0  0  0  3  0  0  0  0  0  0
  182.5500  177.7350  141.1390 C   0  0  2  0  0  3  0  0  0  0  0  0
  181.0860  176.0620  136.9150 C   0  0  0  0  0  1  0  0  0  0  0  0
  180.1640  174.5750  138.6780 C   0  0  0  0  0  0  0  0  0  0  0  0
  180.1610  178.3760  141.4720 C   0  0  0  0  0  3  0  0  0  0  0  0
  187.7660  178.2970  137.6530 C   0  0  0  0  0  2  0  0  0  0  0  0
  179.8470  173.2960  137.9890 C   0  0  0  0  0  1  0  0  0  0  0  0
  187.9320  177.6900  140.1040 C   0  0  1  0  0  3  0  0  0  0  0  0
  179.4840  175.0180  139.7280 C   0  0  0  0  0  3  0  0  0  0  0  0
  185.4890  178.5650  137.9790 C   0  0  0  0  0  2  0  0  0  0  0  0
  183.9010  178.3400  141.3970 C   0  0  0  0  0  0  0  0  0  0  0  0
  186.0530  179.0730  140.9980 C   0  0  0  0  0  0  0  0  0  0  0  0
  186.5000  177.5710  137.6690 N   0  0  0  0  0  2  0  0  0  0  0  0
  184.6220  178.1190  139.1100 C   0  0  0  0  0  0  0  0  0  0  0  0
  181.3070  175.4730  138.2990 C   0  0  2  0  0  3  0  0  0  0  0  0
  188.6750  177.8300  138.7810 C   0  0  0  0  0  2  0  0  0  0  0  0
  188.8750  177.1030  141.1450 C   0  0  0  0  0  2  0  0  0  0  0  0
  188.8890  178.1450  142.6410 S   0  0  0  0  0  0  0  0  0  0  0  0
  187.9670  176.9300  143.6420 C   0  0  0  0  0  2  0  0  0  0  0  0
  188.4530  177.8750  147.2710 N   0  0  0  0  0  0  0  0  0  0  0  0
  190.4420  176.9200  147.1920 C   0  0  0  0  0  0  0  0  0  0  0  0
  189.8280  176.7620  145.9640 C   0  0  0  0  0  3  0  0  0  0  0  0
  189.5620  177.6230  147.9970 C   0  0  0  0  0  3  0  0  0  0  0  0
  187.6580  177.4680  145.0060 C   0  0  0  0  0  0  0  0  0  0  0  0
  188.6210  177.3590  146.0630 N   0  0  0  0  0  0  0  0  0  0  0  0
  186.5430  178.0250  145.2200 O   0  0  0  0  0  0  0  0  0  0  0  0
  191.7780  176.4380  147.5710 C   0  0  0  0  0  0  0  0  0  0  0  0
  192.3410  175.3440  146.9190 O   0  0  0  0  0  0  0  0  0  0  0  0
  192.4290  177.0280  148.4740 O   0  0  0  0  0  1  0  0  0  0  0  0
  1 11  1  0  0  0  0
  2  4  2  0  0  0  0
  3 23  1  0  0  0  0
  3  1  2  0  0  0  0
  4 14  1  0  0  0  0
  5 21  1  0  0  0  0
  8 21  1  0  0  0  0
  8 20  1  0  0  0  0
  9  1  1  0  0  0  0
  9  2  1  0  0  0  0
 10  7  1  0  0  0  0
 11 20  1  0  0  0  0
 11  6  1  6  0  0  0
 13 18  2  0  0  0  0
 14  6  2  0  0  0  0
 15 22  1  0  0  0  0
 15 25  1  0  0  0  0
 16 13  1  0  0  0  0
 17  5  1  0  0  0  0
 17 26  1  1  0  0  0
 18  2  1  0  0  0  0
 19 23  1  0  0  0  0
 20  7  2  0  0  0  0
 21 10  2  0  0  0  0
 22 19  1  0  0  0  0
 23  8  2  0  0  0  0
 24 12  1  6  0  0  0
 24 13  1  0  0  0  0
 24  9  1  0  0  0  0
 25 17  1  0  0  0  0
 26 27  1  0  0  0  0
 27 28  1  0  0  0  0
 28 33  1  0  0  0  0
 29 32  2  0  0  0  0
 30 36  1  0  0  0  0
 30 32  1  0  0  0  0
 31 34  1  0  0  0  0
 31 30  2  0  0  0  0
 33 35  2  0  0  0  0
 33 34  1  0  0  0  0
 34 29  1  0  0  0  0
 36 38  1  0  0  0  0
 37 36  2  0  0  0  0
M  END
>  <MODEL>
5

>  <REMARK>
 VINA RESULT:      -8.3      2.411      3.828
  Name = 
  5 active torsions:
  status: ('A' for Active; 'I' for Inactive)
    1  A    between atoms: C_6  and  C_16
    2  A    between atoms: C_9  and  C_25
    3  A    between atoms: C_25  and  S_28
    4  A    between atoms: C_27  and  C_34
    5  A    between atoms: S_28  and  C_34
                            x       y       z     vdW  Elec       q    Type
                         _______ _______ _______ _____ _____    ______ ____

>  <TORSDO>
F 5

$$$$
=
 OpenBabel11042410033D

 38 43  0  0  1  0  0  0  0  0999 V2000
  184.2960  174.8640  136.6040 C   0  0  0  0  0  0  0  0  0  0  0  0
  182.3230  173.2830  136.3030 C   0  0  0  0  0  0  0  0  0  0  0  0
  185.5720  175.0700  136.3820 N   0  0  0  0  0  0  0  0  0  0  0  0
  181.2810  174.1190  136.1810 C   0  0  0  0  0  3  0  0  0  0  0  0
  187.4510  178.6280  138.7150 N   0  0  0  0  0  2  0  0  0  0  0  0
  182.3300  176.3700  136.4630 C   0  0  0  0  0  3  0  0  0  0  0  0
  183.8560  178.1330  138.4610 C   0  0  0  0  0  3  0  0  0  0  0  0
  185.6870  177.0850  137.6540 C   0  0  0  0  0  0  0  0  0  0  0  0
  183.7050  173.6300  136.1710 N   0  0  0  0  0  0  0  0  0  0  0  0
  185.0510  178.9510  138.7580 C   0  0  0  0  0  3  0  0  0  0  0  0
  183.4390  175.8810  137.3410 C   0  0  2  0  0  3  0  0  0  0  0  0
  185.1390  172.2240  134.7880 C   0  0  0  0  0  1  0  0  0  0  0  0
  183.3900  171.3340  136.3130 C   0  0  0  0  0  0  0  0  0  0  0  0
  181.3620  175.5810  135.9890 C   0  0  0  0  0  3  0  0  0  0  0  0
  189.6290  177.0470  137.3830 C   0  0  0  0  0  2  0  0  0  0  0  0
  183.6690  169.8780  136.4250 C   0  0  0  0  0  1  0  0  0  0  0  0
  188.2160  177.5950  139.4100 C   0  0  1  0  0  3  0  0  0  0  0  0
  182.1690  171.8450  136.4050 C   0  0  0  0  0  3  0  0  0  0  0  0
  187.6650  176.4820  136.2940 C   0  0  0  0  0  2  0  0  0  0  0  0
  184.2680  177.0270  137.8500 C   0  0  0  0  0  0  0  0  0  0  0  0
  186.1230  178.3360  138.2630 C   0  0  0  0  0  0  0  0  0  0  0  0
  188.6960  175.9460  137.1640 N   0  0  0  0  0  2  0  0  0  0  0  0
  186.3020  176.2190  136.8460 C   0  0  0  0  0  0  0  0  0  0  0  0
  184.4520  172.3810  136.1360 C   0  0  2  0  0  3  0  0  0  0  0  0
  189.6260  177.4800  138.8430 C   0  0  0  0  0  2  0  0  0  0  0  0
  188.3020  177.9080  140.8970 C   0  0  0  0  0  2  0  0  0  0  0  0
  189.8240  177.1950  141.6040 S   0  0  0  0  0  0  0  0  0  0  0  0
  188.9260  176.1890  142.8320 C   0  0  0  0  0  2  0  0  0  0  0  0
  187.7710  177.9650  145.9640 N   0  0  0  0  0  0  0  0  0  0  0  0
  185.8020  178.2470  145.0070 C   0  0  0  0  0  0  0  0  0  0  0  0
  186.6390  177.6080  144.1120 C   0  0  0  0  0  3  0  0  0  0  0  0
  186.5320  178.4600  146.1630 C   0  0  0  0  0  3  0  0  0  0  0  0
  188.9810  176.8110  144.1940 C   0  0  0  0  0  0  0  0  0  0  0  0
  187.8250  177.4600  144.7400 N   0  0  0  0  0  0  0  0  0  0  0  0
  190.0520  176.7550  144.8640 O   0  0  0  0  0  0  0  0  0  0  0  0
  184.4000  178.6250  144.7760 C   0  0  0  0  0  0  0  0  0  0  0  0
  183.5900  179.0030  145.8430 O   0  0  0  0  0  1  0  0  0  0  0  0
  183.9320  178.6320  143.6060 O   0  0  0  0  0  0  0  0  0  0  0  0
  1 11  1  0  0  0  0
  2 18  1  0  0  0  0
  3  1  2  0  0  0  0
  3 23  1  0  0  0  0
  4  2  2  0  0  0  0
  5 17  1  0  0  0  0
  7 10  1  0  0  0  0
  8 20  1  0  0  0  0
  8 21  1  0  0  0  0
  9  2  1  0  0  0  0
  9  1  1  0  0  0  0
 11  6  1  6  0  0  0
 11 20  1  0  0  0  0
 13 18  2  0  0  0  0
 13 16  1  0  0  0  0
 14  4  1  0  0  0  0
 14  6  2  0  0  0  0
 15 25  1  0  0  0  0
 17 26  1  1  0  0  0
 19 23  1  0  0  0  0
 19 22  1  0  0  0  0
 20  7  2  0  0  0  0
 21  5  1  0  0  0  0
 21 10  2  0  0  0  0
 22 15  1  0  0  0  0
 23  8  2  0  0  0  0
 24 12  1  6  0  0  0
 24  9  1  0  0  0  0
 24 13  1  0  0  0  0
 25 17  1  0  0  0  0
 26 27  1  0  0  0  0
 27 28  1  0  0  0  0
 28 33  1  0  0  0  0
 29 32  2  0  0  0  0
 30 32  1  0  0  0  0
 31 34  1  0  0  0  0
 31 30  2  0  0  0  0
 33 34  1  0  0  0  0
 33 35  2  0  0  0  0
 34 29  1  0  0  0  0
 36 30  1  0  0  0  0
 36 37  1  0  0  0  0
 38 36  2  0  0  0  0
M  END
>  <MODEL>
6

>  <REMARK>
 VINA RESULT:      -8.3      2.296      3.500
  Name = 
  5 active torsions:
  status: ('A' for Active; 'I' for Inactive)
    1  A    between atoms: C_6  and  C_16
    2  A    between atoms: C_9  and  C_25
    3  A    between atoms: C_25  and  S_28
    4  A    between atoms: C_27  and  C_34
    5  A    between atoms: S_28  and  C_34
                            x       y       z     vdW  Elec       q    Type
                         _______ _______ _______ _____ _____    ______ ____

>  <TORSDO>
F 5

$$$$
=
 OpenBabel11042410033D

 38 43  0  0  1  0  0  0  0  0999 V2000
  180.7600  181.0910  137.8390 C   0  0  0  0  0  0  0  0  0  0  0  0
  180.7440  182.4880  135.7100 C   0  0  0  0  0  0  0  0  0  0  0  0
  180.3800  181.0080  139.0910 N   0  0  0  0  0  0  0  0  0  0  0  0
  180.7260  181.5610  134.7400 C   0  0  0  0  0  3  0  0  0  0  0  0
  182.3690  177.6010  141.5550 N   0  0  0  0  0  2  0  0  0  0  0  0
  180.8160  179.4120  136.0140 C   0  0  0  0  0  3  0  0  0  0  0  0
  182.5640  177.7650  137.9270 C   0  0  0  0  0  3  0  0  0  0  0  0
  181.5720  178.9920  139.5420 C   0  0  0  0  0  0  0  0  0  0  0  0
  180.4360  182.2730  137.0910 N   0  0  0  0  0  0  0  0  0  0  0  0
  182.6910  177.0560  139.2170 C   0  0  0  0  0  2  0  0  0  0  0  0
  181.5670  179.9870  137.1740 C   0  0  0  0  0  0  0  0  0  0  0  0
  178.9310  183.8290  138.2120 C   0  0  0  0  0  1  0  0  0  0  0  0
  180.6790  184.5270  136.5910 C   0  0  0  0  0  0  0  0  0  0  0  0
  180.4840  180.1170  134.9290 C   0  0  0  0  0  3  0  0  0  0  0  0
  180.8280  179.3990  143.4020 C   0  0  0  0  0  2  0  0  0  0  0  0
  180.7970  186.0000  136.7490 C   0  0  0  0  0  1  0  0  0  0  0  0
  182.9940  178.6880  142.3040 C   0  0  1  0  0  3  0  0  0  0  0  0
  180.9040  183.9030  135.4420 C   0  0  0  0  0  3  0  0  0  0  0  0
  180.0010  179.7980  141.2760 C   0  0  0  0  0  2  0  0  0  0  0  0
  181.9390  178.9150  138.1590 C   0  0  0  0  0  0  0  0  0  0  0  0
  182.0890  177.7760  140.1610 C   0  0  0  0  0  0  0  0  0  0  0  0
  180.7540  180.4130  142.3540 N   0  0  0  0  0  2  0  0  0  0  0  0
  180.7200  179.9240  139.9730 C   0  0  0  0  0  0  0  0  0  0  0  0
  180.3460  183.5850  137.7130 C   0  0  2  0  0  3  0  0  0  0  0  0
  182.2640  178.9430  143.6170 C   0  0  0  0  0  2  0  0  0  0  0  0
  184.4510  178.3600  142.6000 C   0  0  0  0  0  2  0  0  0  0  0  0
  185.0640  179.3940  143.9710 S   0  0  0  0  0  0  0  0  0  0  0  0
  185.8470  177.9930  144.8370 C   0  0  0  0  0  2  0  0  0  0  0  0
  187.6980  178.3280  148.1180 N   0  0  0  0  0  0  0  0  0  0  0  0
  189.4280  177.3320  147.1750 C   0  0  0  0  0  0  0  0  0  0  0  0
  188.3990  177.3930  146.2550 C   0  0  0  0  0  3  0  0  0  0  0  0
  188.9670  177.9260  148.3370 C   0  0  0  0  0  3  0  0  0  0  0  0
  186.1020  178.3150  146.2780 C   0  0  0  0  0  0  0  0  0  0  0  0
  187.3690  178.0070  146.8750 N   0  0  0  0  0  0  0  0  0  0  0  0
  185.1970  178.8680  146.9650 O   0  0  0  0  0  0  0  0  0  0  0  0
  190.7610  176.7510  146.9610 C   0  0  0  0  0  0  0  0  0  0  0  0
  191.2090  176.4760  145.6710 O   0  0  0  0  0  0  0  0  0  0  0  0
  191.5140  176.5190  147.9440 O   0  0  0  0  0  1  0  0  0  0  0  0
  1  3  1  0  0  0  0
  2  9  1  0  0  0  0
  3 23  2  0  0  0  0
  4 14  1  0  0  0  0
  4  2  2  0  0  0  0
  5 17  1  0  0  0  0
  6 11  1  0  0  0  0
  7 20  2  0  0  0  0
  7 10  1  0  0  0  0
  8 23  1  0  0  0  0
  8 21  2  0  0  0  0
  9 24  1  0  0  0  0
  9  1  1  0  0  0  0
 10 21  1  0  0  0  0
 11  1  2  0  0  0  0
 11 20  1  0  0  0  0
 13 16  1  0  0  0  0
 13 24  1  0  0  0  0
 14  6  2  0  0  0  0
 15 25  1  0  0  0  0
 17 26  1  1  0  0  0
 17 25  1  0  0  0  0
 18  2  1  0  0  0  0
 18 13  2  0  0  0  0
 19 22  1  0  0  0  0
 20  8  1  0  0  0  0
 21  5  1  0  0  0  0
 22 15  1  0  0  0  0
 23 19  1  0  0  0  0
 24 12  1  6  0  0  0
 26 27  1  0  0  0  0
 27 28  1  0  0  0  0
 28 33  1  0  0  0  0
 29 32  2  0  0  0  0
 30 32  1  0  0  0  0
 31 34  1  0  0  0  0
 31 30  2  0  0  0  0
 33 34  1  0  0  0  0
 33 35  2  0  0  0  0
 34 29  1  0  0  0  0
 36 30  1  0  0  0  0
 36 38  1  0  0  0  0
 37 36  2  0  0  0  0
M  END
>  <MODEL>
7

>  <REMARK>
 VINA RESULT:      -8.2      3.759      6.635
  Name = 
  5 active torsions:
  status: ('A' for Active; 'I' for Inactive)
    1  A    between atoms: C_6  and  C_16
    2  A    between atoms: C_9  and  C_25
    3  A    between atoms: C_25  and  S_28
    4  A    between atoms: C_27  and  C_34
    5  A    between atoms: S_28  and  C_34
                            x       y       z     vdW  Elec       q    Type
                         _______ _______ _______ _____ _____    ______ ____

>  <TORSDO>
F 5

$$$$
=
 OpenBabel11042410033D

 38 43  0  0  1  0  0  0  0  0999 V2000
  187.8190  174.5950  136.1980 C   0  0  0  0  0  0  0  0  0  0  0  0
  186.2310  172.9370  135.0950 C   0  0  0  0  0  0  0  0  0  0  0  0
  189.0660  174.9010  136.4580 N   0  0  0  0  0  0  0  0  0  0  0  0
  185.2210  173.7160  134.6800 C   0  0  0  0  0  3  0  0  0  0  0  0
  189.6750  178.2950  139.5800 N   0  0  0  0  0  2  0  0  0  0  0  0
  185.8880  175.9840  135.4920 C   0  0  0  0  0  3  0  0  0  0  0  0
  186.4550  177.6110  138.0330 C   0  0  0  0  0  3  0  0  0  0  0  0
  188.5420  176.7700  137.8440 C   0  0  0  0  0  0  0  0  0  0  0  0
  187.5340  173.3800  135.4880 N   0  0  0  0  0  0  0  0  0  0  0  0
  187.3900  178.4640  138.7970 C   0  0  0  0  0  3  0  0  0  0  0  0
  186.6660  175.4720  136.6630 C   0  0  2  0  0  3  0  0  0  0  0  0
  189.4840  172.2220  134.5940 C   0  0  0  0  0  1  0  0  0  0  0  0
  187.4100  171.0680  135.3260 C   0  0  0  0  0  0  0  0  0  0  0  0
  185.2240  175.1920  134.6460 C   0  0  0  0  0  3  0  0  0  0  0  0
  192.3200  177.0030  138.9810 C   0  0  0  0  0  2  0  0  0  0  0  0
  187.7700  169.6280  135.4130 C   0  0  0  0  0  1  0  0  0  0  0  0
  190.2480  177.2420  140.4150 C   0  0  1  0  0  3  0  0  0  0  0  0
  186.1890  171.4900  135.0210 C   0  0  0  0  0  3  0  0  0  0  0  0
  190.9160  176.4390  137.2280 C   0  0  0  0  0  2  0  0  0  0  0  0
  187.1550  176.6040  137.5210 C   0  0  0  0  0  0  0  0  0  0  0  0
  188.6200  177.9730  138.6660 C   0  0  0  0  0  0  0  0  0  0  0  0
  191.6300  175.8770  138.3600 N   0  0  0  0  0  2  0  0  0  0  0  0
  189.4780  176.0360  137.2400 C   0  0  0  0  0  0  0  0  0  0  0  0
  188.3620  172.1910  135.6200 C   0  0  2  0  0  3  0  0  0  0  0  0
  191.7710  177.2760  140.3750 C   0  0  0  0  0  2  0  0  0  0  0  0
  189.7850  177.3980  141.8570 C   0  0  0  0  0  2  0  0  0  0  0  0
  191.1950  177.8330  142.9290 S   0  0  0  0  0  0  0  0  0  0  0  0
  190.9370  176.4160  144.0470 C   0  0  0  0  0  2  0  0  0  0  0  0
  189.5140  177.6410  147.3290 N   0  0  0  0  0  0  0  0  0  0  0  0
  187.5580  177.8640  146.3300 C   0  0  0  0  0  0  0  0  0  0  0  0
  188.4820  177.4310  145.3990 C   0  0  0  0  0  3  0  0  0  0  0  0
  188.2260  177.9880  147.5360 C   0  0  0  0  0  3  0  0  0  0  0  0
  190.8870  176.8520  145.4800 C   0  0  0  0  0  0  0  0  0  0  0  0
  189.6560  177.3120  146.0540 N   0  0  0  0  0  0  0  0  0  0  0  0
  191.9360  176.8070  146.1840 O   0  0  0  0  0  0  0  0  0  0  0  0
  186.1340  178.1380  146.0890 C   0  0  0  0  0  0  0  0  0  0  0  0
  185.3890  178.8560  147.0200 O   0  0  0  0  0  1  0  0  0  0  0  0
  185.5860  177.7410  145.0250 O   0  0  0  0  0  0  0  0  0  0  0  0
  1  3  2  0  0  0  0
  1 11  1  0  0  0  0
  2  9  1  0  0  0  0
  3 23  1  0  0  0  0
  4  2  2  0  0  0  0
  5 17  1  0  0  0  0
  7 10  1  0  0  0  0
  8 21  1  0  0  0  0
  9 24  1  0  0  0  0
  9  1  1  0  0  0  0
 11  6  1  6  0  0  0
 11 20  1  0  0  0  0
 13 16  1  0  0  0  0
 13 24  1  0  0  0  0
 14  4  1  0  0  0  0
 14  6  2  0  0  0  0
 15 25  1  0  0  0  0
 17 26  1  1  0  0  0
 18  2  1  0  0  0  0
 18 13  2  0  0  0  0
 19 23  1  0  0  0  0
 19 22  1  0  0  0  0
 20  8  1  0  0  0  0
 20  7  2  0  0  0  0
 21 10  2  0  0  0  0
 21  5  1  0  0  0  0
 22 15  1  0  0  0  0
 23  8  2  0  0  0  0
 24 12  1  6  0  0  0
 25 17  1  0  0  0  0
 26 27  1  0  0  0  0
 27 28  1  0  0  0  0
 28 33  1  0  0  0  0
 29 32  2  0  0  0  0
 30 32  1  0  0  0  0
 31 34  1  0  0  0  0
 31 30  2  0  0  0  0
 33 34  1  0  0  0  0
 33 35  2  0  0  0  0
 34 29  1  0  0  0  0
 36 30  1  0  0  0  0
 36 37  1  0  0  0  0
 38 36  2  0  0  0  0
M  END
>  <MODEL>
8

>  <REMARK>
 VINA RESULT:      -8.1      2.766      3.802
  Name = 
  5 active torsions:
  status: ('A' for Active; 'I' for Inactive)
    1  A    between atoms: C_6  and  C_16
    2  A    between atoms: C_9  and  C_25
    3  A    between atoms: C_25  and  S_28
    4  A    between atoms: C_27  and  C_34
    5  A    between atoms: S_28  and  C_34
                            x       y       z     vdW  Elec       q    Type
                         _______ _______ _______ _____ _____    ______ ____

>  <TORSDO>
F 5

$$$$
=
 OpenBabel11042410033D

 38 43  0  0  1  0  0  0  0  0999 V2000
  188.4340  177.9400  142.3140 C   0  0  0  0  0  0  0  0  0  0  0  0
  188.6610  177.8870  144.8500 C   0  0  0  0  0  0  0  0  0  0  0  0
  187.6600  178.2240  141.2940 N   0  0  0  0  0  0  0  0  0  0  0  0
  189.9630  178.1490  145.0430 C   0  0  0  0  0  3  0  0  0  0  0  0
  189.1480  176.6700  137.1710 N   0  0  0  0  0  2  0  0  0  0  0  0
  190.8510  178.3340  142.7140 C   0  0  0  0  0  3  0  0  0  0  0  0
  191.2780  176.7510  140.1180 C   0  0  0  0  0  3  0  0  0  0  0  0
  189.1600  177.3740  139.6450 C   0  0  0  0  0  0  0  0  0  0  0  0
  187.9230  178.1120  143.6440 N   0  0  0  0  0  0  0  0  0  0  0  0
  191.0580  176.6440  138.6600 C   0  0  0  0  0  3  0  0  0  0  0  0
  189.8430  177.4000  142.1220 C   0  0  2  0  0  3  0  0  0  0  0  0
  185.7570  179.2210  143.7870 C   0  0  0  0  0  1  0  0  0  0  0  0
  186.5440  177.5170  145.4140 C   0  0  0  0  0  0  0  0  0  0  0  0
  190.9100  178.6250  144.0160 C   0  0  0  0  0  3  0  0  0  0  0  0
  186.3450  177.7100  136.8930 C   0  0  0  0  0  2  0  0  0  0  0  0
  185.3380  177.1280  146.1920 C   0  0  0  0  0  1  0  0  0  0  0  0
  187.9740  175.8020  137.2230 C   0  0  1  0  0  3  0  0  0  0  0  0
  187.7690  177.5030  145.9250 C   0  0  0  0  0  3  0  0  0  0  0  0
  187.1810  178.6280  138.8470 C   0  0  0  0  0  2  0  0  0  0  0  0
  190.1350  177.1410  140.6710 C   0  0  0  0  0  0  0  0  0  0  0  0
  189.8130  177.0300  138.3870 C   0  0  0  0  0  0  0  0  0  0  0  0
  186.1930  177.6910  138.3440 N   0  0  0  0  0  2  0  0  0  0  0  0
  188.0180  178.0080  139.9180 C   0  0  0  0  0  0  0  0  0  0  0  0
  186.5170  177.9160  143.9670 C   0  0  2  0  0  3  0  0  0  0  0  0
  186.8370  176.3640  136.3790 C   0  0  0  0  0  2  0  0  0  0  0  0
  188.3220  174.4070  136.7240 C   0  0  0  0  0  2  0  0  0  0  0  0
  189.1710  174.5080  135.1130 S   0  0  0  0  0  0  0  0  0  0  0  0
  190.7640  173.9230  135.7790 C   0  0  0  0  0  2  0  0  0  0  0  0
  194.1440  175.6060  135.9930 N   0  0  0  0  0  0  0  0  0  0  0  0
  194.6790  174.1940  137.6040 C   0  0  0  0  0  0  0  0  0  0  0  0
  193.3780  173.9430  137.2110 C   0  0  0  0  0  3  0  0  0  0  0  0
  195.1420  175.2410  136.8250 C   0  0  0  0  0  3  0  0  0  0  0  0
  191.8650  174.9020  135.5040 C   0  0  0  0  0  0  0  0  0  0  0  0
  193.0990  174.8270  136.2300 N   0  0  0  0  0  0  0  0  0  0  0  0
  191.7030  175.7930  134.6220 O   0  0  0  0  0  0  0  0  0  0  0  0
  195.4310  173.4830  138.6470 C   0  0  0  0  0  0  0  0  0  0  0  0
  195.3910  172.0930  138.7190 O   0  0  0  0  0  0  0  0  0  0  0  0
  196.1360  174.1290  139.4690 O   0  0  0  0  0  1  0  0  0  0  0  0
  1  9  1  0  0  0  0
  2  4  2  0  0  0  0
  2 18  1  0  0  0  0
  3  1  2  0  0  0  0
  5 17  1  0  0  0  0
  5 21  1  0  0  0  0
  6 14  2  0  0  0  0
  7 20  2  0  0  0  0
  8 23  2  0  0  0  0
  8 20  1  0  0  0  0
  9 24  1  0  0  0  0
  9  2  1  0  0  0  0
 10  7  1  0  0  0  0
 11  1  1  0  0  0  0
 11  6  1  6  0  0  0
 13 18  2  0  0  0  0
 13 16  1  0  0  0  0
 14  4  1  0  0  0  0
 15 22  1  0  0  0  0
 17 26  1  6  0  0  0
 19 23  1  0  0  0  0
 20 11  1  0  0  0  0
 21 10  2  0  0  0  0
 21  8  1  0  0  0  0
 22 19  1  0  0  0  0
 23  3  1  0  0  0  0
 24 12  1  1  0  0  0
 24 13  1  0  0  0  0
 25 15  1  0  0  0  0
 25 17  1  0  0  0  0
 27 28  1  0  0  0  0
 27 26  1  0  0  0  0
 29 34  1  0  0  0  0
 29 32  2  0  0  0  0
 30 36  1  0  0  0  0
 31 30  2  0  0  0  0
 32 30  1  0  0  0  0
 33 28  1  0  0  0  0
 33 34  1  0  0  0  0
 34 31  1  0  0  0  0
 35 33  2  0  0  0  0
 36 37  2  0  0  0  0
 36 38  1  0  0  0  0
M  END
>  <MODEL>
9

>  <REMARK>
 VINA RESULT:      -8.0      4.317      8.885
  Name = 
  5 active torsions:
  status: ('A' for Active; 'I' for Inactive)
    1  A    between atoms: C_6  and  C_16
    2  A    between atoms: C_9  and  C_25
    3  A    between atoms: C_25  and  S_28
    4  A    between atoms: C_27  and  C_34
    5  A    between atoms: S_28  and  C_34
                            x       y       z     vdW  Elec       q    Type
                         _______ _______ _______ _____ _____    ______ ____

>  <TORSDO>
F 5

$$$$
