=
 OpenBabel11032420473D

 47 52  0  0  1  0  0  0  0  0999 V2000
  188.6620  178.9960  137.5630 C   0  0  0  0  0  2  0  0  0  0  0  0
  188.1460  174.4170  135.9550 C   0  0  0  0  0  0  0  0  0  0  0  0
  189.5800  174.8850  136.0240 C   0  0  1  0  0  3  0  0  0  0  0  0
  185.8360  174.5820  136.6880 C   0  0  0  0  0  3  0  0  0  0  0  0
  189.7110  176.2960  136.6190 C   0  0  2  0  0  3  0  0  0  0  0  0
  187.4930  176.0650  137.6300 O   0  0  0  0  0  0  0  0  0  0  0  0
  187.7940  173.3730  135.0920 C   0  0  0  0  0  3  0  0  0  0  0  0
  185.4820  173.5470  135.8160 C   0  0  0  0  0  0  0  0  0  0  0  0
  188.9660  177.8240  138.5070 C   0  0  2  0  0  3  0  0  0  0  0  0
  188.1230  178.5420  136.2130 C   0  0  0  0  0  2  0  0  0  0  0  0
  187.1610  175.0170  136.7660 C   0  0  0  0  0  0  0  0  0  0  0  0
  188.8510  176.4270  137.8870 C   0  0  2  0  0  3  0  0  0  0  0  0
  189.3720  177.5530  135.3180 S   0  0  0  0  0  0  0  0  0  0  0  0
  186.4680  172.9340  135.0270 C   0  0  0  0  0  3  0  0  0  0  0  0
  182.3150  175.0790  136.0390 C   0  0  0  0  0  2  0  0  0  0  0  0
  183.9520  171.6900  136.2830 N   0  0  0  0  0  0  0  0  0  0  0  0
  184.0640  173.0740  135.7910 C   0  0  1  0  0  3  0  0  0  0  0  0
  181.7180  171.7260  137.3490 N   0  0  0  0  0  0  0  0  0  0  0  0
  182.9680  171.1050  136.9330 C   0  0  0  0  0  3  0  0  0  0  0  0
  181.8830  173.6410  135.8970 C   0  0  1  0  0  3  0  0  0  0  0  0
  183.1810  173.9770  136.6070 C   0  0  2  0  0  3  0  0  0  0  0  0
  181.2040  172.8640  136.9550 C   0  0  0  0  0  0  0  0  0  0  0  0
  179.9030  173.9240  138.7650 C   0  0  0  0  0  1  0  0  0  0  0  0
  179.9940  173.3290  137.4760 O   0  0  0  0  0  0  0  0  0  0  0  0
  191.6590  174.1960  137.1540 C   0  0  0  0  0  0  0  0  0  0  0  0
  192.8590  174.5070  137.5760 C   0  0  0  0  0  3  0  0  0  0  0  0
  190.4580  173.8940  136.7310 C   0  0  0  0  0  3  0  0  0  0  0  0
  196.1820  172.8190  138.2490 C   0  0  0  0  0  3  0  0  0  0  0  0
  195.0110  171.6230  136.5010 C   0  0  0  0  0  3  0  0  0  0  0  0
  193.9500  172.5280  136.5910 C   0  0  0  0  0  3  0  0  0  0  0  0
  196.1330  171.7620  137.3320 C   0  0  0  0  0  0  0  0  0  0  0  0
  193.9960  173.5800  137.5100 C   0  0  0  0  0  0  0  0  0  0  0  0
  195.1200  173.7240  138.3400 C   0  0  0  0  0  3  0  0  0  0  0  0
  197.2080  170.8730  137.2680 O   0  0  0  0  0  0  0  0  0  0  0  0
  198.1600  170.8990  136.2130 C   0  0  0  0  0  1  0  0  0  0  0  0
  188.2270  177.9470  139.8380 C   0  0  0  0  0  2  0  0  0  0  0  0
  188.9720  177.3050  140.9150 N   0  0  0  0  0  2  0  0  0  0  0  0
  188.2570  177.5790  142.1510 C   0  0  0  0  0  2  0  0  0  0  0  0
  188.4140  176.4100  143.1060 C   0  0  0  0  0  2  0  0  0  0  0  0
  188.7760  176.9090  144.4720 C   0  0  0  0  0  0  0  0  0  0  0  0
  187.8870  177.1080  145.2860 O   0  0  0  0  0  0  0  0  0  0  0  0
  190.2030  177.1930  144.8650 C   0  0  1  0  0  3  0  0  0  0  0  0
  190.5250  178.5170  144.5460 O   0  0  0  0  0  0  0  0  0  0  0  0
  191.5210  178.4250  143.5720 C   0  0  0  0  0  1  0  0  0  0  0  0
  190.4660  176.9440  146.3520 C   0  0  0  0  0  2  0  0  0  0  0  0
  191.8320  177.0330  146.6160 O   0  0  0  0  0  0  0  0  0  0  0  0
  192.1770  175.7670  147.0880 C   0  0  0  0  0  1  0  0  0  0  0  0
  1  9  1  0  0  0  0
  2  3  1  0  0  0  0
  2 11  1  0  0  0  0
  3  5  1  0  0  0  0
  3 27  1  1  0  0  0
  4 11  2  0  0  0  0
  5 13  1  6  0  0  0
  5 12  1  0  0  0  0
  7  2  2  0  0  0  0
  8  4  1  0  0  0  0
  9 36  1  1  0  0  0
 10  1  1  0  0  0  0
 11  6  1  0  0  0  0
 12  6  1  6  0  0  0
 12  9  1  0  0  0  0
 13 10  1  0  0  0  0
 14  7  1  0  0  0  0
 14  8  2  0  0  0  0
 16 19  2  0  0  0  0
 17  8  1  1  0  0  0
 17 16  1  0  0  0  0
 17 21  1  0  0  0  0
 19 18  1  0  0  0  0
 20 15  1  1  0  0  0
 20 21  1  0  0  0  0
 20 22  1  0  0  0  0
 21 15  1  6  0  0  0
 22 18  2  0  0  0  0
 22 24  1  0  0  0  0
 24 23  1  0  0  0  0
 25 26  2  0  0  0  0
 27 25  2  0  0  0  0
 28 33  1  0  0  0  0
 29 30  2  0  0  0  0
 29 31  1  0  0  0  0
 30 32  1  0  0  0  0
 31 28  2  0  0  0  0
 32 26  1  0  0  0  0
 32 33  2  0  0  0  0
 34 31  1  0  0  0  0
 35 34  1  0  0  0  0
 36 37  1  0  0  0  0
 37 38  1  0  0  0  0
 38 39  1  0  0  0  0
 39 40  1  0  0  0  0
 40 42  1  0  0  0  0
 40 41  2  0  0  0  0
 42 45  1  1  0  0  0
 43 42  1  0  0  0  0
 44 43  1  0  0  0  0
 45 46  1  0  0  0  0
 46 47  1  0  0  0  0
M  END
>  <MODEL>
1

>  <REMARK>
 VINA RESULT:      -6.8      0.000      0.000
  Name = 
  14 active torsions:
  status: ('A' for Active; 'I' for Inactive)
    1  A    between atoms: C_6  and  C_17
    2  A    between atoms: C_6  and  O_19
    3  A    between atoms: O_8  and  C_24
    4  A    between atoms: C_11  and  N_23
    5  A    between atoms: C_11  and  C_41
    6  A    between atoms: C_12  and  C_27
    7  A    between atoms: C_13  and  C_44
    8  A    between atoms: O_14  and  C_17
    9  A    between atoms: C_17  and  C_30
   10  A    between atoms: C_22  and  N_23
   11  A    between atoms: C_22  and  C_34
   12  A    between atoms: C_25  and  C_43
   13  A    between atoms: C_30  and  C_41
   14  A    between atoms: O_35  and  C_46
                            x       y       z     vdW  Elec       q    Type
                         _______ _______ _______ _____ _____    ______ ____

>  <TORSDO>
F 14

$$$$
=
 OpenBabel11032420473D

 47 52  0  0  1  0  0  0  0  0999 V2000
  191.1630  175.2740  134.6530 C   0  0  0  0  0  2  0  0  0  0  0  0
  187.7300  177.0370  137.6390 C   0  0  0  0  0  0  0  0  0  0  0  0
  187.2310  176.7240  136.2490 C   0  0  1  0  0  3  0  0  0  0  0  0
  189.3280  176.6900  139.4340 C   0  0  0  0  0  3  0  0  0  0  0  0
  188.3150  176.0870  135.3650 C   0  0  2  0  0  3  0  0  0  0  0  0
  189.5700  175.4590  137.3710 O   0  0  0  0  0  0  0  0  0  0  0  0
  187.0470  177.9670  138.4310 C   0  0  0  0  0  3  0  0  0  0  0  0
  188.6530  177.6300  140.2210 C   0  0  0  0  0  0  0  0  0  0  0  0
  190.1350  174.3160  135.2710 C   0  0  2  0  0  3  0  0  0  0  0  0
  191.0180  176.7030  135.1580 C   0  0  0  0  0  2  0  0  0  0  0  0
  188.8720  176.3870  138.1500 C   0  0  0  0  0  0  0  0  0  0  0  0
  189.0500  174.9750  136.1310 C   0  0  2  0  0  3  0  0  0  0  0  0
  189.4010  177.4000  134.6700 S   0  0  0  0  0  0  0  0  0  0  0  0
  187.5020  178.2580  139.7210 C   0  0  0  0  0  3  0  0  0  0  0  0
  191.7670  177.4680  141.8670 C   0  0  0  0  0  2  0  0  0  0  0  0
  188.0740  177.6890  142.6020 N   0  0  0  0  0  0  0  0  0  0  0  0
  189.1420  177.8970  141.6090 C   0  0  1  0  0  3  0  0  0  0  0  0
  189.3670  176.8840  144.5540 N   0  0  0  0  0  0  0  0  0  0  0  0
  188.1540  177.2710  143.8480 C   0  0  0  0  0  3  0  0  0  0  0  0
  190.9040  177.9240  143.0170 C   0  0  1  0  0  3  0  0  0  0  0  0
  190.3220  177.0270  141.9410 C   0  0  2  0  0  3  0  0  0  0  0  0
  190.6130  177.1110  144.2160 C   0  0  0  0  0  0  0  0  0  0  0  0
  191.6310  176.6880  146.4240 C   0  0  0  0  0  1  0  0  0  0  0  0
  191.6690  176.6460  145.0020 O   0  0  0  0  0  0  0  0  0  0  0  0
  184.7920  176.4320  136.4610 C   0  0  0  0  0  0  0  0  0  0  0  0
  183.6130  176.9700  136.6450 C   0  0  0  0  0  3  0  0  0  0  0  0
  185.9740  175.9020  136.2770 C   0  0  0  0  0  3  0  0  0  0  0  0
  181.4980  175.8220  139.5700 C   0  0  0  0  0  3  0  0  0  0  0  0
  180.5440  174.9840  137.5080 C   0  0  0  0  0  3  0  0  0  0  0  0
  181.5670  175.6020  136.7840 C   0  0  0  0  0  3  0  0  0  0  0  0
  180.5020  175.0930  138.9070 C   0  0  0  0  0  0  0  0  0  0  0  0
  182.5580  176.3330  137.4440 C   0  0  0  0  0  0  0  0  0  0  0  0
  182.5210  176.4400  138.8440 C   0  0  0  0  0  3  0  0  0  0  0  0
  179.4930  174.4900  139.6600 O   0  0  0  0  0  0  0  0  0  0  0  0
  179.7460  173.8400  140.8980 C   0  0  0  0  0  1  0  0  0  0  0  0
  190.7950  173.1230  135.9570 C   0  0  0  0  0  2  0  0  0  0  0  0
  191.7250  172.4470  135.0600 N   0  0  0  0  0  2  0  0  0  0  0  0
  192.9450  172.2050  135.8120 C   0  0  0  0  0  2  0  0  0  0  0  0
  194.0530  173.1070  135.3000 C   0  0  0  0  0  2  0  0  0  0  0  0
  195.1270  173.2400  136.3370 C   0  0  0  0  0  0  0  0  0  0  0  0
  195.8070  172.2640  136.6140 O   0  0  0  0  0  0  0  0  0  0  0  0
  195.3790  174.5360  137.0640 C   0  0  1  0  0  3  0  0  0  0  0  0
  195.7610  175.5220  136.1480 O   0  0  0  0  0  0  0  0  0  0  0  0
  197.1430  175.3800  136.0150 C   0  0  0  0  0  1  0  0  0  0  0  0
  194.1620  175.0140  137.8570 C   0  0  0  0  0  2  0  0  0  0  0  0
  193.8920  176.3480  137.5580 O   0  0  0  0  0  0  0  0  0  0  0  0
  192.8740  176.7040  138.4430 C   0  0  0  0  0  1  0  0  0  0  0  0
  1 10  1  0  0  0  0
  1  9  1  0  0  0  0
  2 11  2  0  0  0  0
  2  7  1  0  0  0  0
  3 27  1  1  0  0  0
  3  2  1  0  0  0  0
  4  8  2  0  0  0  0
  5 13  1  1  0  0  0
  5 12  1  0  0  0  0
  5  3  1  0  0  0  0
  6 11  1  0  0  0  0
  7 14  2  0  0  0  0
  9 36  1  1  0  0  0
  9 12  1  0  0  0  0
 11  4  1  0  0  0  0
 12  6  1  1  0  0  0
 13 10  1  0  0  0  0
 14  8  1  0  0  0  0
 16 19  2  0  0  0  0
 17  8  1  6  0  0  0
 17 21  1  0  0  0  0
 17 16  1  0  0  0  0
 19 18  1  0  0  0  0
 20 15  1  6  0  0  0
 20 22  1  0  0  0  0
 21 15  1  6  0  0  0
 21 20  1  0  0  0  0
 22 18  2  0  0  0  0
 22 24  1  0  0  0  0
 24 23  1  0  0  0  0
 25 26  2  0  0  0  0
 26 32  1  0  0  0  0
 27 25  2  0  0  0  0
 29 31  2  0  0  0  0
 30 32  2  0  0  0  0
 30 29  1  0  0  0  0
 31 28  1  0  0  0  0
 31 34  1  0  0  0  0
 32 33  1  0  0  0  0
 33 28  2  0  0  0  0
 34 35  1  0  0  0  0
 37 38  1  0  0  0  0
 37 36  1  0  0  0  0
 39 38  1  0  0  0  0
 39 40  1  0  0  0  0
 40 41  2  0  0  0  0
 40 42  1  0  0  0  0
 42 45  1  6  0  0  0
 43 42  1  0  0  0  0
 44 43  1  0  0  0  0
 46 45  1  0  0  0  0
 46 47  1  0  0  0  0
M  END
>  <MODEL>
2

>  <REMARK>
 VINA RESULT:      -6.5      2.722     10.110
  Name = 
  14 active torsions:
  status: ('A' for Active; 'I' for Inactive)
    1  A    between atoms: C_6  and  C_17
    2  A    between atoms: C_6  and  O_19
    3  A    between atoms: O_8  and  C_24
    4  A    between atoms: C_11  and  N_23
    5  A    between atoms: C_11  and  C_41
    6  A    between atoms: C_12  and  C_27
    7  A    between atoms: C_13  and  C_44
    8  A    between atoms: O_14  and  C_17
    9  A    between atoms: C_17  and  C_30
   10  A    between atoms: C_22  and  N_23
   11  A    between atoms: C_22  and  C_34
   12  A    between atoms: C_25  and  C_43
   13  A    between atoms: C_30  and  C_41
   14  A    between atoms: O_35  and  C_46
                            x       y       z     vdW  Elec       q    Type
                         _______ _______ _______ _____ _____    ______ ____

>  <TORSDO>
F 14

$$$$
=
 OpenBabel11032420473D

 47 52  0  0  1  0  0  0  0  0999 V2000
  190.0740  175.5230  134.5940 C   0  0  0  0  0  2  0  0  0  0  0  0
  187.1030  177.3850  137.9870 C   0  0  0  0  0  0  0  0  0  0  0  0
  186.4360  177.1450  136.6540 C   0  0  1  0  0  3  0  0  0  0  0  0
  188.8660  176.8900  139.5840 C   0  0  0  0  0  3  0  0  0  0  0  0
  187.3750  176.4750  135.6390 C   0  0  2  0  0  3  0  0  0  0  0  0
  188.8030  175.7130  137.4760 O   0  0  0  0  0  0  0  0  0  0  0  0
  186.5690  178.3270  138.8740 C   0  0  0  0  0  3  0  0  0  0  0  0
  188.3390  177.8410  140.4640 C   0  0  0  0  0  0  0  0  0  0  0  0
  189.0630  174.6060  135.2980 C   0  0  2  0  0  3  0  0  0  0  0  0
  190.0720  176.9410  135.1470 C   0  0  0  0  0  2  0  0  0  0  0  0
  188.2530  176.6550  138.3510 C   0  0  0  0  0  0  0  0  0  0  0  0
  188.1220  175.2990  136.2900 C   0  0  2  0  0  3  0  0  0  0  0  0
  188.4560  177.7450  134.8600 S   0  0  0  0  0  0  0  0  0  0  0  0
  187.1800  178.5500  140.1120 C   0  0  0  0  0  3  0  0  0  0  0  0
  191.5990  177.4450  141.7490 C   0  0  0  0  0  2  0  0  0  0  0  0
  188.0290  177.8600  142.8960 N   0  0  0  0  0  0  0  0  0  0  0  0
  188.9930  178.0360  141.7950 C   0  0  1  0  0  3  0  0  0  0  0  0
  189.4770  176.9210  144.6710 N   0  0  0  0  0  0  0  0  0  0  0  0
  188.2200  177.4000  144.1140 C   0  0  0  0  0  3  0  0  0  0  0  0
  190.8970  177.9140  142.9980 C   0  0  1  0  0  3  0  0  0  0  0  0
  190.1460  177.0880  141.9730 C   0  0  2  0  0  3  0  0  0  0  0  0
  190.6890  177.0840  144.2020 C   0  0  0  0  0  0  0  0  0  0  0  0
  191.8310  176.3560  146.2660 C   0  0  0  0  0  1  0  0  0  0  0  0
  191.7950  176.5330  144.8540 O   0  0  0  0  0  0  0  0  0  0  0  0
  185.0980  175.1220  137.0960 C   0  0  0  0  0  0  0  0  0  0  0  0
  185.0630  173.8470  137.3930 C   0  0  0  0  0  3  0  0  0  0  0  0
  185.1430  176.3960  136.8020 C   0  0  0  0  0  3  0  0  0  0  0  0
  181.9410  172.4350  135.7780 C   0  0  0  0  0  3  0  0  0  0  0  0
  183.5210  170.6450  136.1780 C   0  0  0  0  0  3  0  0  0  0  0  0
  184.4190  171.5610  136.7300 C   0  0  0  0  0  3  0  0  0  0  0  0
  182.2750  171.0770  135.6960 C   0  0  0  0  0  0  0  0  0  0  0  0
  184.0880  172.9160  136.8090 C   0  0  0  0  0  0  0  0  0  0  0  0
  182.8410  173.3510  136.3310 C   0  0  0  0  0  3  0  0  0  0  0  0
  181.3560  170.1880  135.1360 O   0  0  0  0  0  0  0  0  0  0  0  0
  180.0180  170.0780  135.6020 C   0  0  0  0  0  1  0  0  0  0  0  0
  189.7220  173.3560  135.8760 C   0  0  0  0  0  2  0  0  0  0  0  0
  191.0170  173.1070  135.2550 N   0  0  0  0  0  2  0  0  0  0  0  0
  191.9410  172.7540  136.3190 C   0  0  0  0  0  2  0  0  0  0  0  0
  193.3380  172.5820  135.7520 C   0  0  0  0  0  2  0  0  0  0  0  0
  194.3380  172.5070  136.8650 C   0  0  0  0  0  0  0  0  0  0  0  0
  195.0040  171.4920  136.9980 O   0  0  0  0  0  0  0  0  0  0  0  0
  194.5330  173.6410  137.8400 C   0  0  1  0  0  3  0  0  0  0  0  0
  195.3210  173.2090  138.9120 O   0  0  0  0  0  0  0  0  0  0  0  0
  196.0590  174.3290  139.2970 C   0  0  0  0  0  1  0  0  0  0  0  0
  195.1730  174.8710  137.1940 C   0  0  0  0  0  2  0  0  0  0  0  0
  194.2690  175.9320  137.1920 O   0  0  0  0  0  0  0  0  0  0  0  0
  193.9560  176.1200  135.8450 C   0  0  0  0  0  1  0  0  0  0  0  0
  1 10  1  0  0  0  0
  1  9  1  0  0  0  0
  2 11  2  0  0  0  0
  2  7  1  0  0  0  0
  3 27  1  1  0  0  0
  3  2  1  0  0  0  0
  4  8  2  0  0  0  0
  5 13  1  1  0  0  0
  5 12  1  0  0  0  0
  5  3  1  0  0  0  0
  6 11  1  0  0  0  0
  7 14  2  0  0  0  0
  9 36  1  1  0  0  0
  9 12  1  0  0  0  0
 11  4  1  0  0  0  0
 12  6  1  1  0  0  0
 13 10  1  0  0  0  0
 14  8  1  0  0  0  0
 16 19  2  0  0  0  0
 17  8  1  6  0  0  0
 17 21  1  0  0  0  0
 17 16  1  0  0  0  0
 19 18  1  0  0  0  0
 20 15  1  6  0  0  0
 20 22  1  0  0  0  0
 21 15  1  6  0  0  0
 21 20  1  0  0  0  0
 22 18  2  0  0  0  0
 22 24  1  0  0  0  0
 24 23  1  0  0  0  0
 25 26  2  0  0  0  0
 27 25  2  0  0  0  0
 28 33  1  0  0  0  0
 29 30  2  0  0  0  0
 30 32  1  0  0  0  0
 31 28  2  0  0  0  0
 31 29  1  0  0  0  0
 32 26  1  0  0  0  0
 33 32  2  0  0  0  0
 34 35  1  0  0  0  0
 34 31  1  0  0  0  0
 37 36  1  0  0  0  0
 37 38  1  0  0  0  0
 39 38  1  0  0  0  0
 39 40  1  0  0  0  0
 40 41  2  0  0  0  0
 40 42  1  0  0  0  0
 42 45  1  6  0  0  0
 42 43  1  0  0  0  0
 43 44  1  0  0  0  0
 46 45  1  0  0  0  0
 47 46  1  0  0  0  0
M  END
>  <MODEL>
3

>  <REMARK>
 VINA RESULT:      -6.4      2.543      9.591
  Name = 
  14 active torsions:
  status: ('A' for Active; 'I' for Inactive)
    1  A    between atoms: C_6  and  C_17
    2  A    between atoms: C_6  and  O_19
    3  A    between atoms: O_8  and  C_24
    4  A    between atoms: C_11  and  N_23
    5  A    between atoms: C_11  and  C_41
    6  A    between atoms: C_12  and  C_27
    7  A    between atoms: C_13  and  C_44
    8  A    between atoms: O_14  and  C_17
    9  A    between atoms: C_17  and  C_30
   10  A    between atoms: C_22  and  N_23
   11  A    between atoms: C_22  and  C_34
   12  A    between atoms: C_25  and  C_43
   13  A    between atoms: C_30  and  C_41
   14  A    between atoms: O_35  and  C_46
                            x       y       z     vdW  Elec       q    Type
                         _______ _______ _______ _____ _____    ______ ____

>  <TORSDO>
F 14

$$$$
=
 OpenBabel11032420473D

 47 52  0  0  1  0  0  0  0  0999 V2000
  184.5010  176.5270  137.5810 C   0  0  0  0  0  2  0  0  0  0  0  0
  181.6890  179.1420  140.5920 C   0  0  0  0  0  0  0  0  0  0  0  0
  182.5080  178.0800  141.2860 C   0  0  1  0  0  3  0  0  0  0  0  0
  181.3360  180.6410  138.7140 C   0  0  0  0  0  3  0  0  0  0  0  0
  183.4470  177.3380  140.3220 C   0  0  2  0  0  3  0  0  0  0  0  0
  183.2680  179.1930  138.7340 O   0  0  0  0  0  0  0  0  0  0  0  0
  180.5190  179.6220  141.1910 C   0  0  0  0  0  3  0  0  0  0  0  0
  180.1590  181.1110  139.3070 C   0  0  0  0  0  0  0  0  0  0  0  0
  185.1370  177.6250  138.4460 C   0  0  2  0  0  3  0  0  0  0  0  0
  182.9870  176.4650  137.7220 C   0  0  0  0  0  2  0  0  0  0  0  0
  182.1050  179.6640  139.3500 C   0  0  0  0  0  0  0  0  0  0  0  0
  184.1870  178.3370  139.4160 C   0  0  2  0  0  3  0  0  0  0  0  0
  182.5140  176.0250  139.4310 S   0  0  0  0  0  0  0  0  0  0  0  0
  179.7590  180.6080  140.5550 C   0  0  0  0  0  3  0  0  0  0  0  0
  179.8990  182.3100  136.0020 C   0  0  0  0  0  2  0  0  0  0  0  0
  179.0640  183.2910  139.5470 N   0  0  0  0  0  0  0  0  0  0  0  0
  179.3830  182.1900  138.6210 C   0  0  1  0  0  3  0  0  0  0  0  0
  179.0950  185.2410  138.0220 N   0  0  0  0  0  0  0  0  0  0  0  0
  178.9310  184.5790  139.3080 C   0  0  0  0  0  3  0  0  0  0  0  0
  178.9310  183.2470  136.6800 C   0  0  1  0  0  3  0  0  0  0  0  0
  180.1380  182.7260  137.4360 C   0  0  2  0  0  3  0  0  0  0  0  0
  179.1420  184.7020  136.8290 C   0  0  0  0  0  0  0  0  0  0  0  0
  180.1430  185.0620  134.6020 C   0  0  0  0  0  1  0  0  0  0  0  0
  179.3300  185.4870  135.6890 O   0  0  0  0  0  0  0  0  0  0  0  0
  184.5310  178.4690  142.6390 C   0  0  0  0  0  0  0  0  0  0  0  0
  185.8210  178.3070  142.7950 C   0  0  0  0  0  3  0  0  0  0  0  0
  183.2430  178.6270  142.4760 C   0  0  0  0  0  3  0  0  0  0  0  0
  186.3380  177.8530  146.5200 C   0  0  0  0  0  3  0  0  0  0  0  0
  188.4360  177.4950  145.3660 C   0  0  0  0  0  3  0  0  0  0  0  0
  187.8080  177.7470  144.1440 C   0  0  0  0  0  3  0  0  0  0  0  0
  187.7030  177.5440  146.5630 C   0  0  0  0  0  0  0  0  0  0  0  0
  186.4440  178.0520  144.1000 C   0  0  0  0  0  0  0  0  0  0  0  0
  185.7100  178.1060  145.2960 C   0  0  0  0  0  3  0  0  0  0  0  0
  188.3010  177.2940  147.8000 O   0  0  0  0  0  0  0  0  0  0  0  0
  187.9480  178.0070  148.9770 C   0  0  0  0  0  1  0  0  0  0  0  0
  185.9810  178.5940  137.6210 C   0  0  0  0  0  2  0  0  0  0  0  0
  187.0360  177.8920  136.9010 N   0  0  0  0  0  2  0  0  0  0  0  0
  188.2720  178.1080  137.6340 C   0  0  0  0  0  2  0  0  0  0  0  0
  188.6930  176.8240  138.3250 C   0  0  0  0  0  2  0  0  0  0  0  0
  190.1860  176.6990  138.3110 C   0  0  0  0  0  0  0  0  0  0  0  0
  190.8440  177.3590  139.1010 O   0  0  0  0  0  0  0  0  0  0  0  0
  190.9020  175.7990  137.3360 C   0  0  1  0  0  3  0  0  0  0  0  0
  192.1820  175.5070  137.8190 O   0  0  0  0  0  0  0  0  0  0  0  0
  193.0360  176.3710  137.1320 C   0  0  0  0  0  1  0  0  0  0  0  0
  190.1440  174.4980  137.0690 C   0  0  0  0  0  2  0  0  0  0  0  0
  189.4450  174.5920  135.8660 O   0  0  0  0  0  0  0  0  0  0  0  0
  188.5420  173.5300  135.9050 C   0  0  0  0  0  1  0  0  0  0  0  0
  1 10  1  0  0  0  0
  1  9  1  0  0  0  0
  2  7  1  0  0  0  0
  2  3  1  0  0  0  0
  3 27  1  1  0  0  0
  4  8  2  0  0  0  0
  4 11  1  0  0  0  0
  5 13  1  6  0  0  0
  5  3  1  0  0  0  0
  6 11  1  0  0  0  0
  8 14  1  0  0  0  0
  9 36  1  6  0  0  0
  9 12  1  0  0  0  0
 10 13  1  0  0  0  0
 11  2  2  0  0  0  0
 12  6  1  6  0  0  0
 12  5  1  0  0  0  0
 14  7  2  0  0  0  0
 17  8  1  1  0  0  0
 17 16  1  0  0  0  0
 18 19  1  0  0  0  0
 19 16  2  0  0  0  0
 20 15  1  6  0  0  0
 20 22  1  0  0  0  0
 20 21  1  0  0  0  0
 21 15  1  6  0  0  0
 21 17  1  0  0  0  0
 22 18  2  0  0  0  0
 23 24  1  0  0  0  0
 24 22  1  0  0  0  0
 25 26  2  0  0  0  0
 26 32  1  0  0  0  0
 27 25  2  0  0  0  0
 28 31  1  0  0  0  0
 29 31  2  0  0  0  0
 30 29  1  0  0  0  0
 31 34  1  0  0  0  0
 32 30  2  0  0  0  0
 32 33  1  0  0  0  0
 33 28  2  0  0  0  0
 34 35  1  0  0  0  0
 37 36  1  0  0  0  0
 37 38  1  0  0  0  0
 38 39  1  0  0  0  0
 40 39  1  0  0  0  0
 40 41  2  0  0  0  0
 42 45  1  1  0  0  0
 42 43  1  0  0  0  0
 42 40  1  0  0  0  0
 44 43  1  0  0  0  0
 46 47  1  0  0  0  0
 46 45  1  0  0  0  0
M  END
>  <MODEL>
4

>  <REMARK>
 VINA RESULT:      -6.3      5.960     10.029
  Name = 
  14 active torsions:
  status: ('A' for Active; 'I' for Inactive)
    1  A    between atoms: C_6  and  C_17
    2  A    between atoms: C_6  and  O_19
    3  A    between atoms: O_8  and  C_24
    4  A    between atoms: C_11  and  N_23
    5  A    between atoms: C_11  and  C_41
    6  A    between atoms: C_12  and  C_27
    7  A    between atoms: C_13  and  C_44
    8  A    between atoms: O_14  and  C_17
    9  A    between atoms: C_17  and  C_30
   10  A    between atoms: C_22  and  N_23
   11  A    between atoms: C_22  and  C_34
   12  A    between atoms: C_25  and  C_43
   13  A    between atoms: C_30  and  C_41
   14  A    between atoms: O_35  and  C_46
                            x       y       z     vdW  Elec       q    Type
                         _______ _______ _______ _____ _____    ______ ____

>  <TORSDO>
F 14

$$$$
=
 OpenBabel11032420473D

 47 52  0  0  1  0  0  0  0  0999 V2000
  186.0120  177.2750  135.5410 C   0  0  0  0  0  2  0  0  0  0  0  0
  181.9960  177.5170  138.3020 C   0  0  0  0  0  0  0  0  0  0  0  0
  182.8550  176.3060  138.5750 C   0  0  1  0  0  3  0  0  0  0  0  0
  181.7540  179.7910  137.4820 C   0  0  0  0  0  3  0  0  0  0  0  0
  184.1540  176.3090  137.7540 C   0  0  2  0  0  3  0  0  0  0  0  0
  183.9180  178.7210  137.4070 O   0  0  0  0  0  0  0  0  0  0  0  0
  180.6330  177.4920  138.6220 C   0  0  0  0  0  3  0  0  0  0  0  0
  180.3900  179.7600  137.7910 C   0  0  0  0  0  0  0  0  0  0  0  0
  186.1270  177.7240  137.0050 C   0  0  2  0  0  3  0  0  0  0  0  0
  184.5720  177.0430  135.1050 C   0  0  0  0  0  2  0  0  0  0  0  0
  182.5600  178.6790  137.7380 C   0  0  0  0  0  0  0  0  0  0  0  0
  184.8240  177.6930  137.8110 C   0  0  2  0  0  3  0  0  0  0  0  0
  183.8190  175.6780  136.0580 S   0  0  0  0  0  0  0  0  0  0  0  0
  179.8340  178.6110  138.3740 C   0  0  0  0  0  3  0  0  0  0  0  0
  180.0160  182.0550  135.1410 C   0  0  0  0  0  2  0  0  0  0  0  0
  179.2320  181.6650  138.8100 N   0  0  0  0  0  0  0  0  0  0  0  0
  179.5650  180.9830  137.5470 C   0  0  1  0  0  3  0  0  0  0  0  0
  179.1660  184.0320  138.0880 N   0  0  0  0  0  0  0  0  0  0  0  0
  179.0520  182.9470  139.0520 C   0  0  0  0  0  3  0  0  0  0  0  0
  179.0350  182.6490  136.1200 C   0  0  1  0  0  3  0  0  0  0  0  0
  180.2740  181.9370  136.6260 C   0  0  2  0  0  3  0  0  0  0  0  0
  179.2020  183.9600  136.7810 C   0  0  0  0  0  0  0  0  0  0  0  0
  179.1050  185.1010  134.5950 C   0  0  0  0  0  1  0  0  0  0  0  0
  179.3390  185.1090  135.9980 O   0  0  0  0  0  0  0  0  0  0  0  0
  183.0850  177.1230  140.8900 C   0  0  0  0  0  0  0  0  0  0  0  0
  183.0480  178.1260  141.7310 C   0  0  0  0  0  3  0  0  0  0  0  0
  183.1190  176.1260  140.0420 C   0  0  0  0  0  3  0  0  0  0  0  0
  184.4960  178.8780  145.1490 C   0  0  0  0  0  3  0  0  0  0  0  0
  186.2340  177.9890  143.7160 C   0  0  0  0  0  3  0  0  0  0  0  0
  185.3150  177.8780  142.6700 C   0  0  0  0  0  3  0  0  0  0  0  0
  185.8290  178.4890  144.9640 C   0  0  0  0  0  0  0  0  0  0  0  0
  183.9840  178.2630  142.8550 C   0  0  0  0  0  0  0  0  0  0  0  0
  183.5770  178.7660  144.1010 C   0  0  0  0  0  3  0  0  0  0  0  0
  186.7220  178.6100  146.0310 O   0  0  0  0  0  0  0  0  0  0  0  0
  187.0770  177.5110  146.8590 C   0  0  0  0  0  1  0  0  0  0  0  0
  186.8820  179.0440  137.1460 C   0  0  0  0  0  2  0  0  0  0  0  0
  188.2820  178.8170  137.4870 N   0  0  0  0  0  2  0  0  0  0  0  0
  188.3890  178.9000  138.9340 C   0  0  0  0  0  2  0  0  0  0  0  0
  188.6900  177.5280  139.5080 C   0  0  0  0  0  2  0  0  0  0  0  0
  189.2310  177.6620  140.9000 C   0  0  0  0  0  0  0  0  0  0  0  0
  188.7640  178.5160  141.6380 O   0  0  0  0  0  0  0  0  0  0  0  0
  190.3480  176.7890  141.4090 C   0  0  1  0  0  3  0  0  0  0  0  0
  191.4870  177.5680  141.6380 O   0  0  0  0  0  0  0  0  0  0  0  0
  192.2240  177.4920  140.4550 C   0  0  0  0  0  1  0  0  0  0  0  0
  189.9730  176.0380  142.6880 C   0  0  0  0  0  2  0  0  0  0  0  0
  191.1180  175.5120  143.2860 O   0  0  0  0  0  0  0  0  0  0  0  0
  191.3740  176.3670  144.3580 C   0  0  0  0  0  1  0  0  0  0  0  0
  1  9  1  0  0  0  0
  2  3  1  0  0  0  0
  2  7  1  0  0  0  0
  3 27  1  1  0  0  0
  4 11  1  0  0  0  0
  4  8  2  0  0  0  0
  5 13  1  6  0  0  0
  5 12  1  0  0  0  0
  5  3  1  0  0  0  0
  6 11  1  0  0  0  0
  8 14  1  0  0  0  0
  9 36  1  6  0  0  0
  9 12  1  0  0  0  0
 10  1  1  0  0  0  0
 10 13  1  0  0  0  0
 11  2  2  0  0  0  0
 12  6  1  6  0  0  0
 14  7  2  0  0  0  0
 16 19  2  0  0  0  0
 17  8  1  1  0  0  0
 17 16  1  0  0  0  0
 18 19  1  0  0  0  0
 20 15  1  6  0  0  0
 20 21  1  0  0  0  0
 20 22  1  0  0  0  0
 21 15  1  6  0  0  0
 21 17  1  0  0  0  0
 22 18  2  0  0  0  0
 23 24  1  0  0  0  0
 24 22  1  0  0  0  0
 25 26  2  0  0  0  0
 26 32  1  0  0  0  0
 27 25  2  0  0  0  0
 29 31  2  0  0  0  0
 30 32  2  0  0  0  0
 30 29  1  0  0  0  0
 31 28  1  0  0  0  0
 31 34  1  0  0  0  0
 32 33  1  0  0  0  0
 33 28  2  0  0  0  0
 34 35  1  0  0  0  0
 36 37  1  0  0  0  0
 37 38  1  0  0  0  0
 38 39  1  0  0  0  0
 39 40  1  0  0  0  0
 40 42  1  0  0  0  0
 40 41  2  0  0  0  0
 42 43  1  0  0  0  0
 42 45  1  1  0  0  0
 44 43  1  0  0  0  0
 45 46  1  0  0  0  0
 46 47  1  0  0  0  0
M  END
>  <MODEL>
5

>  <REMARK>
 VINA RESULT:      -6.0      5.407      8.970
  Name = 
  14 active torsions:
  status: ('A' for Active; 'I' for Inactive)
    1  A    between atoms: C_6  and  C_17
    2  A    between atoms: C_6  and  O_19
    3  A    between atoms: O_8  and  C_24
    4  A    between atoms: C_11  and  N_23
    5  A    between atoms: C_11  and  C_41
    6  A    between atoms: C_12  and  C_27
    7  A    between atoms: C_13  and  C_44
    8  A    between atoms: O_14  and  C_17
    9  A    between atoms: C_17  and  C_30
   10  A    between atoms: C_22  and  N_23
   11  A    between atoms: C_22  and  C_34
   12  A    between atoms: C_25  and  C_43
   13  A    between atoms: C_30  and  C_41
   14  A    between atoms: O_35  and  C_46
                            x       y       z     vdW  Elec       q    Type
                         _______ _______ _______ _____ _____    ______ ____

>  <TORSDO>
F 14

$$$$
=
 OpenBabel11032420473D

 47 52  0  0  1  0  0  0  0  0999 V2000
  188.9880  178.8980  138.0980 C   0  0  0  0  0  2  0  0  0  0  0  0
  188.3090  174.6160  135.8580 C   0  0  0  0  0  0  0  0  0  0  0  0
  189.7460  175.0780  135.8740 C   0  0  1  0  0  3  0  0  0  0  0  0
  186.0720  174.6490  136.8050 C   0  0  0  0  0  3  0  0  0  0  0  0
  189.9360  176.3830  136.6640 C   0  0  2  0  0  3  0  0  0  0  0  0
  187.8130  175.9830  137.8160 O   0  0  0  0  0  0  0  0  0  0  0  0
  187.8780  173.7130  134.8800 C   0  0  0  0  0  3  0  0  0  0  0  0
  185.6390  173.7570  135.8180 C   0  0  0  0  0  0  0  0  0  0  0  0
  189.3670  177.5980  138.8220 C   0  0  2  0  0  3  0  0  0  0  0  0
  188.3330  178.6530  136.7460 C   0  0  0  0  0  2  0  0  0  0  0  0
  187.4010  175.0770  136.8330 C   0  0  0  0  0  0  0  0  0  0  0  0
  189.1900  176.3120  138.0080 C   0  0  2  0  0  3  0  0  0  0  0  0
  189.4940  177.8220  135.6050 S   0  0  0  0  0  0  0  0  0  0  0  0
  186.5490  173.2800  134.8630 C   0  0  0  0  0  3  0  0  0  0  0  0
  182.5010  175.2360  136.4510 C   0  0  0  0  0  2  0  0  0  0  0  0
  184.1410  171.8500  136.1800 N   0  0  0  0  0  0  0  0  0  0  0  0
  184.2210  173.2820  135.8440 C   0  0  1  0  0  3  0  0  0  0  0  0
  181.9920  171.7510  137.4060 N   0  0  0  0  0  0  0  0  0  0  0  0
  183.2060  171.1900  136.8300 C   0  0  0  0  0  3  0  0  0  0  0  0
  182.0550  173.8220  136.1760 C   0  0  1  0  0  3  0  0  0  0  0  0
  183.4030  174.0800  136.8220 C   0  0  2  0  0  3  0  0  0  0  0  0
  181.4540  172.9250  137.1850 C   0  0  0  0  0  0  0  0  0  0  0  0
  180.2990  174.2780  138.8960 C   0  0  0  0  0  1  0  0  0  0  0  0
  180.2880  173.3200  137.8440 O   0  0  0  0  0  0  0  0  0  0  0  0
  191.8550  174.2560  136.8500 C   0  0  0  0  0  0  0  0  0  0  0  0
  193.0310  174.5240  137.3590 C   0  0  0  0  0  3  0  0  0  0  0  0
  190.6770  173.9970  136.3420 C   0  0  0  0  0  3  0  0  0  0  0  0
  195.6790  172.4660  135.5980 C   0  0  0  0  0  3  0  0  0  0  0  0
  196.2060  172.6080  137.9570 C   0  0  0  0  0  3  0  0  0  0  0  0
  195.0620  173.3820  138.1660 C   0  0  0  0  0  3  0  0  0  0  0  0
  196.5230  172.1470  136.6700 C   0  0  0  0  0  0  0  0  0  0  0  0
  194.2220  173.7040  137.0970 C   0  0  0  0  0  0  0  0  0  0  0  0
  194.5350  173.2410  135.8080 C   0  0  0  0  0  3  0  0  0  0  0  0
  197.6600  171.3740  136.4260 O   0  0  0  0  0  0  0  0  0  0  0  0
  198.9180  171.6520  137.0290 C   0  0  0  0  0  1  0  0  0  0  0  0
  188.7470  177.5110  140.2140 C   0  0  0  0  0  2  0  0  0  0  0  0
  187.8300  178.6190  140.4540 N   0  0  0  0  0  2  0  0  0  0  0  0
  187.1590  178.3550  141.7150 C   0  0  0  0  0  2  0  0  0  0  0  0
  188.1860  178.1710  142.8170 C   0  0  0  0  0  2  0  0  0  0  0  0
  187.8250  176.9870  143.6620 C   0  0  0  0  0  0  0  0  0  0  0  0
  187.9940  175.8640  143.2130 O   0  0  0  0  0  0  0  0  0  0  0  0
  187.2400  177.1410  145.0420 C   0  0  1  0  0  3  0  0  0  0  0  0
  188.1810  176.7460  145.9990 O   0  0  0  0  0  0  0  0  0  0  0  0
  189.0050  177.8580  146.1800 C   0  0  0  0  0  1  0  0  0  0  0  0
  186.7800  178.5710  145.3320 C   0  0  0  0  0  2  0  0  0  0  0  0
  185.4560  178.5670  145.7690 O   0  0  0  0  0  0  0  0  0  0  0  0
  184.7080  178.7980  144.6150 C   0  0  0  0  0  1  0  0  0  0  0  0
  1  9  1  0  0  0  0
  2  3  1  0  0  0  0
  2 11  1  0  0  0  0
  3 27  1  1  0  0  0
  3  5  1  0  0  0  0
  4 11  2  0  0  0  0
  5 13  1  6  0  0  0
  5 12  1  0  0  0  0
  7  2  2  0  0  0  0
  8  4  1  0  0  0  0
  9 36  1  1  0  0  0
 10  1  1  0  0  0  0
 11  6  1  0  0  0  0
 12  6  1  6  0  0  0
 12  9  1  0  0  0  0
 13 10  1  0  0  0  0
 14  7  1  0  0  0  0
 14  8  2  0  0  0  0
 16 19  2  0  0  0  0
 17  8  1  1  0  0  0
 17 16  1  0  0  0  0
 17 21  1  0  0  0  0
 19 18  1  0  0  0  0
 20 15  1  1  0  0  0
 20 21  1  0  0  0  0
 20 22  1  0  0  0  0
 21 15  1  6  0  0  0
 22 18  2  0  0  0  0
 22 24  1  0  0  0  0
 24 23  1  0  0  0  0
 25 26  2  0  0  0  0
 27 25  2  0  0  0  0
 28 33  2  0  0  0  0
 28 31  1  0  0  0  0
 29 30  1  0  0  0  0
 31 29  2  0  0  0  0
 32 26  1  0  0  0  0
 32 30  2  0  0  0  0
 33 32  1  0  0  0  0
 34 31  1  0  0  0  0
 34 35  1  0  0  0  0
 36 37  1  0  0  0  0
 37 38  1  0  0  0  0
 38 39  1  0  0  0  0
 39 40  1  0  0  0  0
 40 42  1  0  0  0  0
 41 40  2  0  0  0  0
 42 45  1  1  0  0  0
 42 43  1  0  0  0  0
 43 44  1  0  0  0  0
 45 46  1  0  0  0  0
 47 46  1  0  0  0  0
M  END
>  <MODEL>
6

>  <REMARK>
 VINA RESULT:      -5.9      1.287      2.129
  Name = 
  14 active torsions:
  status: ('A' for Active; 'I' for Inactive)
    1  A    between atoms: C_6  and  C_17
    2  A    between atoms: C_6  and  O_19
    3  A    between atoms: O_8  and  C_24
    4  A    between atoms: C_11  and  N_23
    5  A    between atoms: C_11  and  C_41
    6  A    between atoms: C_12  and  C_27
    7  A    between atoms: C_13  and  C_44
    8  A    between atoms: O_14  and  C_17
    9  A    between atoms: C_17  and  C_30
   10  A    between atoms: C_22  and  N_23
   11  A    between atoms: C_22  and  C_34
   12  A    between atoms: C_25  and  C_43
   13  A    between atoms: C_30  and  C_41
   14  A    between atoms: O_35  and  C_46
                            x       y       z     vdW  Elec       q    Type
                         _______ _______ _______ _____ _____    ______ ____

>  <TORSDO>
F 14

$$$$
=
 OpenBabel11032420473D

 47 52  0  0  1  0  0  0  0  0999 V2000
  185.3670  176.6820  136.0650 C   0  0  0  0  0  2  0  0  0  0  0  0
  181.5390  177.7180  138.9090 C   0  0  0  0  0  0  0  0  0  0  0  0
  182.2960  176.4810  139.3270 C   0  0  1  0  0  3  0  0  0  0  0  0
  181.4660  179.8610  137.7680 C   0  0  0  0  0  3  0  0  0  0  0  0
  183.5460  176.2360  138.4670 C   0  0  2  0  0  3  0  0  0  0  0  0
  183.5150  178.5840  137.7720 O   0  0  0  0  0  0  0  0  0  0  0  0
  180.1990  177.8740  139.2810 C   0  0  0  0  0  3  0  0  0  0  0  0
  180.1220  180.0100  138.1290 C   0  0  0  0  0  0  0  0  0  0  0  0
  185.5990  177.3260  137.4400 C   0  0  2  0  0  3  0  0  0  0  0  0
  183.8910  176.5320  135.7240 C   0  0  0  0  0  2  0  0  0  0  0  0
  182.1780  178.7240  138.1570 C   0  0  0  0  0  0  0  0  0  0  0  0
  184.3420  177.5400  138.2910 C   0  0  2  0  0  3  0  0  0  0  0  0
  183.0660  175.4010  136.8980 S   0  0  0  0  0  0  0  0  0  0  0  0
  179.4940  179.0190  138.8980 C   0  0  0  0  0  3  0  0  0  0  0  0
  180.0800  182.1050  135.2930 C   0  0  0  0  0  2  0  0  0  0  0  0
  179.0360  182.0610  138.9180 N   0  0  0  0  0  0  0  0  0  0  0  0
  179.4010  181.2600  137.7360 C   0  0  1  0  0  3  0  0  0  0  0  0
  179.1820  184.3630  138.0160 N   0  0  0  0  0  0  0  0  0  0  0  0
  178.9310  183.3670  139.0490 C   0  0  0  0  0  3  0  0  0  0  0  0
  179.0820  182.8370  136.1550 C   0  0  1  0  0  3  0  0  0  0  0  0
  180.2340  182.0900  136.7980 C   0  0  2  0  0  3  0  0  0  0  0  0
  179.2970  184.1840  136.7240 C   0  0  0  0  0  0  0  0  0  0  0  0
  180.8650  185.5060  135.3500 C   0  0  0  0  0  1  0  0  0  0  0  0
  179.5630  185.2550  135.8680 O   0  0  0  0  0  0  0  0  0  0  0  0
  183.2270  177.4950  141.3730 C   0  0  0  0  0  0  0  0  0  0  0  0
  183.8360  178.5030  141.9440 C   0  0  0  0  0  3  0  0  0  0  0  0
  182.6180  176.4910  140.7940 C   0  0  0  0  0  3  0  0  0  0  0  0
  185.5470  178.4530  145.3230 C   0  0  0  0  0  3  0  0  0  0  0  0
  187.0980  177.6990  143.6230 C   0  0  0  0  0  3  0  0  0  0  0  0
  186.1140  177.8740  142.6470 C   0  0  0  0  0  3  0  0  0  0  0  0
  186.8190  177.9860  144.9690 C   0  0  0  0  0  0  0  0  0  0  0  0
  184.8430  178.3370  143.0000 C   0  0  0  0  0  0  0  0  0  0  0  0
  184.5630  178.6280  144.3450 C   0  0  0  0  0  3  0  0  0  0  0  0
  187.7800  177.8190  145.9690 O   0  0  0  0  0  0  0  0  0  0  0  0
  189.1700  177.9980  145.7320 C   0  0  0  0  0  1  0  0  0  0  0  0
  186.4780  178.5710  137.3540 C   0  0  0  0  0  2  0  0  0  0  0  0
  187.3910  178.4940  136.2180 N   0  0  0  0  0  2  0  0  0  0  0  0
  188.1210  177.2430  136.3400 C   0  0  0  0  0  2  0  0  0  0  0  0
  189.5320  177.4170  135.8090 C   0  0  0  0  0  2  0  0  0  0  0  0
  190.4900  176.6050  136.6260 C   0  0  0  0  0  0  0  0  0  0  0  0
  191.6260  176.4330  136.2110 O   0  0  0  0  0  0  0  0  0  0  0  0
  190.0890  175.9750  137.9350 C   0  0  1  0  0  3  0  0  0  0  0  0
  190.5570  174.6580  137.9870 O   0  0  0  0  0  0  0  0  0  0  0  0
  189.7000  173.9340  137.1560 C   0  0  0  0  0  1  0  0  0  0  0  0
  190.6070  176.7530  139.1470 C   0  0  0  0  0  2  0  0  0  0  0  0
  189.8720  177.9270  139.3100 O   0  0  0  0  0  0  0  0  0  0  0  0
  189.2190  177.7610  140.5310 C   0  0  0  0  0  1  0  0  0  0  0  0
  1  9  1  0  0  0  0
  2  7  1  0  0  0  0
  2  3  1  0  0  0  0
  3 27  1  1  0  0  0
  4  8  2  0  0  0  0
  4 11  1  0  0  0  0
  5 13  1  6  0  0  0
  5  3  1  0  0  0  0
  6 11  1  0  0  0  0
  8 14  1  0  0  0  0
  9 36  1  6  0  0  0
  9 12  1  0  0  0  0
 10  1  1  0  0  0  0
 10 13  1  0  0  0  0
 11  2  2  0  0  0  0
 12  6  1  6  0  0  0
 12  5  1  0  0  0  0
 14  7  2  0  0  0  0
 16 19  2  0  0  0  0
 17  8  1  1  0  0  0
 17 16  1  0  0  0  0
 18 19  1  0  0  0  0
 20 15  1  6  0  0  0
 20 22  1  0  0  0  0
 20 21  1  0  0  0  0
 21 15  1  6  0  0  0
 21 17  1  0  0  0  0
 22 18  2  0  0  0  0
 23 24  1  0  0  0  0
 24 22  1  0  0  0  0
 25 26  2  0  0  0  0
 26 32  1  0  0  0  0
 27 25  2  0  0  0  0
 29 31  2  0  0  0  0
 30 32  2  0  0  0  0
 30 29  1  0  0  0  0
 31 28  1  0  0  0  0
 31 34  1  0  0  0  0
 32 33  1  0  0  0  0
 33 28  2  0  0  0  0
 35 34  1  0  0  0  0
 37 38  1  0  0  0  0
 37 36  1  0  0  0  0
 39 38  1  0  0  0  0
 39 40  1  0  0  0  0
 40 42  1  0  0  0  0
 41 40  2  0  0  0  0
 42 43  1  0  0  0  0
 42 45  1  1  0  0  0
 44 43  1  0  0  0  0
 45 46  1  0  0  0  0
 46 47  1  0  0  0  0
M  END
>  <MODEL>
7

>  <REMARK>
 VINA RESULT:      -5.8      5.455      9.469
  Name = 
  14 active torsions:
  status: ('A' for Active; 'I' for Inactive)
    1  A    between atoms: C_6  and  C_17
    2  A    between atoms: C_6  and  O_19
    3  A    between atoms: O_8  and  C_24
    4  A    between atoms: C_11  and  N_23
    5  A    between atoms: C_11  and  C_41
    6  A    between atoms: C_12  and  C_27
    7  A    between atoms: C_13  and  C_44
    8  A    between atoms: O_14  and  C_17
    9  A    between atoms: C_17  and  C_30
   10  A    between atoms: C_22  and  N_23
   11  A    between atoms: C_22  and  C_34
   12  A    between atoms: C_25  and  C_43
   13  A    between atoms: C_30  and  C_41
   14  A    between atoms: O_35  and  C_46
                            x       y       z     vdW  Elec       q    Type
                         _______ _______ _______ _____ _____    ______ ____

>  <TORSDO>
F 14

$$$$
=
 OpenBabel11032420473D

 47 52  0  0  1  0  0  0  0  0999 V2000
  189.5610  177.1260  135.4270 C   0  0  0  0  0  2  0  0  0  0  0  0
  186.5210  177.9430  139.1560 C   0  0  0  0  0  0  0  0  0  0  0  0
  185.8280  177.7720  137.8260 C   0  0  1  0  0  3  0  0  0  0  0  0
  188.4360  177.5580  140.6020 C   0  0  0  0  0  3  0  0  0  0  0  0
  186.8060  177.4270  136.6920 C   0  0  2  0  0  3  0  0  0  0  0  0
  188.4510  176.6890  138.3490 O   0  0  0  0  0  0  0  0  0  0  0  0
  185.8870  178.6430  140.1890 C   0  0  0  0  0  3  0  0  0  0  0  0
  187.8060  178.2700  141.6290 C   0  0  0  0  0  0  0  0  0  0  0  0
  188.7670  175.9560  136.0250 C   0  0  2  0  0  3  0  0  0  0  0  0
  189.3470  178.4320  136.1800 C   0  0  0  0  0  2  0  0  0  0  0  0
  187.8000  177.3880  139.3700 C   0  0  0  0  0  0  0  0  0  0  0  0
  187.7820  176.3250  137.1390 C   0  0  2  0  0  3  0  0  0  0  0  0
  187.6030  178.9650  136.0690 S   0  0  0  0  0  0  0  0  0  0  0  0
  186.5240  178.8010  141.4230 C   0  0  0  0  0  3  0  0  0  0  0  0
  191.1540  178.2310  142.7350 C   0  0  0  0  0  2  0  0  0  0  0  0
  187.6310  177.9310  144.0500 N   0  0  0  0  0  0  0  0  0  0  0  0
  188.4950  178.3950  142.9500 C   0  0  1  0  0  3  0  0  0  0  0  0
  189.3000  177.0130  145.6320 N   0  0  0  0  0  0  0  0  0  0  0  0
  187.9560  177.3550  145.1890 C   0  0  0  0  0  3  0  0  0  0  0  0
  190.4590  178.4220  144.0600 C   0  0  1  0  0  3  0  0  0  0  0  0
  189.7870  177.6250  142.9590 C   0  0  2  0  0  3  0  0  0  0  0  0
  190.4460  177.4230  145.1480 C   0  0  0  0  0  0  0  0  0  0  0  0
  191.9830  175.5930  145.7640 C   0  0  0  0  0  1  0  0  0  0  0  0
  191.6570  176.9750  145.6820 O   0  0  0  0  0  0  0  0  0  0  0  0
  184.8600  175.5070  137.7100 C   0  0  0  0  0  0  0  0  0  0  0  0
  185.0350  174.2250  137.5120 C   0  0  0  0  0  3  0  0  0  0  0  0
  184.6940  176.7900  137.9080 C   0  0  0  0  0  3  0  0  0  0  0  0
  183.2550  171.2220  136.0420 C   0  0  0  0  0  3  0  0  0  0  0  0
  182.0110  173.2330  135.5170 C   0  0  0  0  0  3  0  0  0  0  0  0
  182.9620  173.9980  136.1970 C   0  0  0  0  0  3  0  0  0  0  0  0
  182.1510  171.8380  135.4370 C   0  0  0  0  0  0  0  0  0  0  0  0
  184.0610  173.3840  136.8040 C   0  0  0  0  0  0  0  0  0  0  0  0
  184.2060  171.9900  136.7220 C   0  0  0  0  0  3  0  0  0  0  0  0
  181.2180  171.0440  134.7680 O   0  0  0  0  0  0  0  0  0  0  0  0
  181.1810  169.6290  134.9030 C   0  0  0  0  0  1  0  0  0  0  0  0
  189.6650  174.7760  136.3920 C   0  0  0  0  0  2  0  0  0  0  0  0
  190.0310  174.0050  135.2100 N   0  0  0  0  0  2  0  0  0  0  0  0
  191.4820  174.0150  135.1260 C   0  0  0  0  0  2  0  0  0  0  0  0
  192.0800  173.8420  136.5100 C   0  0  0  0  0  2  0  0  0  0  0  0
  193.5750  173.7920  136.4200 C   0  0  0  0  0  0  0  0  0  0  0  0
  194.1180  172.7340  136.1400 O   0  0  0  0  0  0  0  0  0  0  0  0
  194.4310  175.0040  136.6860 C   0  0  1  0  0  3  0  0  0  0  0  0
  194.3170  175.3750  138.0300 O   0  0  0  0  0  0  0  0  0  0  0  0
  195.0960  174.4520  138.7300 C   0  0  0  0  0  1  0  0  0  0  0  0
  195.9030  174.7730  136.3390 C   0  0  0  0  0  2  0  0  0  0  0  0
  196.5230  175.9900  136.0570 O   0  0  0  0  0  0  0  0  0  0  0  0
  197.3170  175.7240  134.9410 C   0  0  0  0  0  1  0  0  0  0  0  0
  1  9  1  0  0  0  0
  1 10  1  0  0  0  0
  2 11  2  0  0  0  0
  2  7  1  0  0  0  0
  3 27  1  1  0  0  0
  3  2  1  0  0  0  0
  4  8  2  0  0  0  0
  5 13  1  1  0  0  0
  5 12  1  0  0  0  0
  5  3  1  0  0  0  0
  6 11  1  0  0  0  0
  7 14  2  0  0  0  0
  9 36  1  1  0  0  0
  9 12  1  0  0  0  0
 11  4  1  0  0  0  0
 12  6  1  1  0  0  0
 13 10  1  0  0  0  0
 14  8  1  0  0  0  0
 16 19  2  0  0  0  0
 17  8  1  6  0  0  0
 17 21  1  0  0  0  0
 17 16  1  0  0  0  0
 19 18  1  0  0  0  0
 20 15  1  6  0  0  0
 20 22  1  0  0  0  0
 21 15  1  6  0  0  0
 21 20  1  0  0  0  0
 22 18  2  0  0  0  0
 22 24  1  0  0  0  0
 24 23  1  0  0  0  0
 25 27  2  0  0  0  0
 26 25  2  0  0  0  0
 28 33  1  0  0  0  0
 29 30  2  0  0  0  0
 30 32  1  0  0  0  0
 31 29  1  0  0  0  0
 31 28  2  0  0  0  0
 32 26  1  0  0  0  0
 33 32  2  0  0  0  0
 34 35  1  0  0  0  0
 34 31  1  0  0  0  0
 37 36  1  0  0  0  0
 38 37  1  0  0  0  0
 38 39  1  0  0  0  0
 40 39  1  0  0  0  0
 40 42  1  0  0  0  0
 41 40  2  0  0  0  0
 42 45  1  1  0  0  0
 42 43  1  0  0  0  0
 43 44  1  0  0  0  0
 46 45  1  0  0  0  0
 47 46  1  0  0  0  0
M  END
>  <MODEL>
8

>  <REMARK>
 VINA RESULT:      -5.4      2.562      9.787
  Name = 
  14 active torsions:
  status: ('A' for Active; 'I' for Inactive)
    1  A    between atoms: C_6  and  C_17
    2  A    between atoms: C_6  and  O_19
    3  A    between atoms: O_8  and  C_24
    4  A    between atoms: C_11  and  N_23
    5  A    between atoms: C_11  and  C_41
    6  A    between atoms: C_12  and  C_27
    7  A    between atoms: C_13  and  C_44
    8  A    between atoms: O_14  and  C_17
    9  A    between atoms: C_17  and  C_30
   10  A    between atoms: C_22  and  N_23
   11  A    between atoms: C_22  and  C_34
   12  A    between atoms: C_25  and  C_43
   13  A    between atoms: C_30  and  C_41
   14  A    between atoms: O_35  and  C_46
                            x       y       z     vdW  Elec       q    Type
                         _______ _______ _______ _____ _____    ______ ____

>  <TORSDO>
F 14

$$$$
=
 OpenBabel11032420473D

 47 52  0  0  1  0  0  0  0  0999 V2000
  186.4180  175.6820  135.9650 C   0  0  0  0  0  2  0  0  0  0  0  0
  189.8790  176.2630  139.3560 C   0  0  0  0  0  0  0  0  0  0  0  0
  190.3880  175.7010  138.0500 C   0  0  1  0  0  3  0  0  0  0  0  0
  188.2290  177.5350  140.6040 C   0  0  0  0  0  3  0  0  0  0  0  0
  189.2910  175.6160  136.9780 C   0  0  2  0  0  3  0  0  0  0  0  0
  187.9650  177.2580  138.2200 O   0  0  0  0  0  0  0  0  0  0  0  0
  190.5940  176.0370  140.5380 C   0  0  0  0  0  3  0  0  0  0  0  0
  188.9370  177.2980  141.7870 C   0  0  0  0  0  0  0  0  0  0  0  0
  187.3830  176.8720  135.8640 C   0  0  2  0  0  3  0  0  0  0  0  0
  186.6280  174.8560  137.2270 C   0  0  0  0  0  2  0  0  0  0  0  0
  188.6950  177.0260  139.3900 C   0  0  0  0  0  0  0  0  0  0  0  0
  188.4830  176.9250  136.9300 C   0  0  2  0  0  3  0  0  0  0  0  0
  188.2880  174.0940  137.2330 S   0  0  0  0  0  0  0  0  0  0  0  0
  190.1280  176.5580  141.7490 C   0  0  0  0  0  3  0  0  0  0  0  0
  190.1670  177.6020  145.0770 C   0  0  0  0  0  2  0  0  0  0  0  0
  186.9620  177.9000  143.1100 N   0  0  0  0  0  0  0  0  0  0  0  0
  188.4350  177.8950  143.0630 C   0  0  1  0  0  3  0  0  0  0  0  0
  186.5460  177.6080  145.5330 N   0  0  0  0  0  0  0  0  0  0  0  0
  186.1530  177.7880  144.1430 C   0  0  0  0  0  3  0  0  0  0  0  0
  188.8380  178.2940  145.2470 C   0  0  1  0  0  3  0  0  0  0  0  0
  188.9790  177.1560  144.2540 C   0  0  2  0  0  3  0  0  0  0  0  0
  187.7270  177.7780  146.0740 C   0  0  0  0  0  0  0  0  0  0  0  0
  187.5340  178.4580  148.4390 C   0  0  0  0  0  1  0  0  0  0  0  0
  187.9390  177.5370  147.4330 O   0  0  0  0  0  0  0  0  0  0  0  0
  192.1850  176.1500  136.4230 C   0  0  0  0  0  0  0  0  0  0  0  0
  192.7630  175.8560  135.2860 C   0  0  0  0  0  3  0  0  0  0  0  0
  191.5990  176.4390  137.5570 C   0  0  0  0  0  3  0  0  0  0  0  0
  196.3070  177.0500  134.6870 C   0  0  0  0  0  3  0  0  0  0  0  0
  196.3090  174.6490  135.0050 C   0  0  0  0  0  3  0  0  0  0  0  0
  194.9220  174.6700  135.1720 C   0  0  0  0  0  3  0  0  0  0  0  0
  197.0110  175.8400  134.7630 C   0  0  0  0  0  0  0  0  0  0  0  0
  194.2200  175.8770  135.1010 C   0  0  0  0  0  0  0  0  0  0  0  0
  194.9200  177.0700  134.8540 C   0  0  0  0  0  3  0  0  0  0  0  0
  198.3970  175.8540  134.5940 O   0  0  0  0  0  0  0  0  0  0  0  0
  199.1800  174.6680  134.6010 C   0  0  0  0  0  1  0  0  0  0  0  0
  186.6480  178.2010  135.7030 C   0  0  0  0  0  2  0  0  0  0  0  0
  185.2230  178.0510  135.9770 N   0  0  0  0  0  2  0  0  0  0  0  0
  185.0070  178.4630  137.3540 C   0  0  0  0  0  2  0  0  0  0  0  0
  183.7260  177.8440  137.8820 C   0  0  0  0  0  2  0  0  0  0  0  0
  183.3820  178.4370  139.2140 C   0  0  0  0  0  0  0  0  0  0  0  0
  184.2820  178.7040  139.9960 O   0  0  0  0  0  0  0  0  0  0  0  0
  181.9560  178.6970  139.6280 C   0  0  1  0  0  3  0  0  0  0  0  0
  181.6220  180.0280  139.3570 O   0  0  0  0  0  0  0  0  0  0  0  0
  180.4090  180.2400  140.0140 C   0  0  0  0  0  1  0  0  0  0  0  0
  180.9610  177.7660  138.9320 C   0  0  0  0  0  2  0  0  0  0  0  0
  180.5330  176.7770  139.8170 O   0  0  0  0  0  0  0  0  0  0  0  0
  181.1550  175.6130  139.3660 C   0  0  0  0  0  1  0  0  0  0  0  0
  1 10  1  0  0  0  0
  2 11  2  0  0  0  0
  2  7  1  0  0  0  0
  3 27  1  6  0  0  0
  3  2  1  0  0  0  0
  4  8  2  0  0  0  0
  5 13  1  1  0  0  0
  5  3  1  0  0  0  0
  6 11  1  0  0  0  0
  7 14  2  0  0  0  0
  9 36  1  1  0  0  0
  9  1  1  0  0  0  0
  9 12  1  0  0  0  0
 10 13  1  0  0  0  0
 11  4  1  0  0  0  0
 12  5  1  0  0  0  0
 12  6  1  1  0  0  0
 14  8  1  0  0  0  0
 16 19  2  0  0  0  0
 17  8  1  6  0  0  0
 17 16  1  0  0  0  0
 17 21  1  0  0  0  0
 18 22  2  0  0  0  0
 19 18  1  0  0  0  0
 20 15  1  1  0  0  0
 20 22  1  0  0  0  0
 21 15  1  6  0  0  0
 21 20  1  0  0  0  0
 22 24  1  0  0  0  0
 24 23  1  0  0  0  0
 25 27  2  0  0  0  0
 26 25  2  0  0  0  0
 28 31  2  0  0  0  0
 28 33  1  0  0  0  0
 29 30  2  0  0  0  0
 31 29  1  0  0  0  0
 32 30  1  0  0  0  0
 32 26  1  0  0  0  0
 33 32  2  0  0  0  0
 34 35  1  0  0  0  0
 34 31  1  0  0  0  0
 36 37  1  0  0  0  0
 37 38  1  0  0  0  0
 38 39  1  0  0  0  0
 39 40  1  0  0  0  0
 40 42  1  0  0  0  0
 40 41  2  0  0  0  0
 42 45  1  6  0  0  0
 43 42  1  0  0  0  0
 43 44  1  0  0  0  0
 45 46  1  0  0  0  0
 47 46  1  0  0  0  0
M  END
>  <MODEL>
9

>  <REMARK>
 VINA RESULT:      -5.2      3.427      7.880
  Name = 
  14 active torsions:
  status: ('A' for Active; 'I' for Inactive)
    1  A    between atoms: C_6  and  C_17
    2  A    between atoms: C_6  and  O_19
    3  A    between atoms: O_8  and  C_24
    4  A    between atoms: C_11  and  N_23
    5  A    between atoms: C_11  and  C_41
    6  A    between atoms: C_12  and  C_27
    7  A    between atoms: C_13  and  C_44
    8  A    between atoms: O_14  and  C_17
    9  A    between atoms: C_17  and  C_30
   10  A    between atoms: C_22  and  N_23
   11  A    between atoms: C_22  and  C_34
   12  A    between atoms: C_25  and  C_43
   13  A    between atoms: C_30  and  C_41
   14  A    between atoms: O_35  and  C_46
                            x       y       z     vdW  Elec       q    Type
                         _______ _______ _______ _____ _____    ______ ____

>  <TORSDO>
F 14

$$$$
