=
 OpenBabel11042411163D

 48 53  0  0  1  0  0  0  0  0999 V2000
  183.9160  178.6510  141.4810 N   0  0  0  0  0  2  0  0  0  0  0  0
  187.8380  177.5260  140.4780 N   0  0  0  0  0  0  0  0  0  0  0  0
  189.0520  177.2930  141.0460 C   0  0  0  0  0  0  0  0  0  0  0  0
  186.4480  178.3060  138.6440 N   0  0  0  0  0  2  0  0  0  0  0  0
  186.6750  177.7840  144.6150 C   0  0  0  0  0  0  0  0  0  0  0  0
  185.7330  177.9740  143.5930 O   0  0  0  0  0  0  0  0  0  0  0  0
  185.5010  179.3230  146.1760 N   0  0  0  0  0  1  0  0  0  0  0  0
  190.1010  178.2450  139.1180 N   0  0  0  0  0  0  0  0  0  0  0  0
  188.7240  176.7310  145.3470 N   0  0  0  0  0  0  0  0  0  0  0  0
  185.9990  179.6490  141.1500 O   0  0  0  0  0  0  0  0  0  0  0  0
  183.7680  179.1650  142.8350 C   0  0  2  0  0  3  0  0  0  0  0  0
  187.7120  178.7410  148.3920 S   0  0  0  0  0  0  0  0  0  0  0  0
  189.1570  176.6760  142.3050 C   0  0  0  0  0  0  0  0  0  0  0  0
  191.5780  176.7990  142.1540 C   0  0  0  0  0  3  0  0  0  0  0  0
  191.4860  177.4310  140.9110 C   0  0  0  0  0  0  0  0  0  0  0  0
  187.5440  178.1630  146.8270 C   0  0  0  0  0  0  0  0  0  0  0  0
  184.3500  178.1870  143.8410 C   0  0  0  0  0  2  0  0  0  0  0  0
  184.1670  177.9020  138.7700 O   0  0  0  0  0  0  0  0  0  0  0  0
  189.1510  177.8870  148.6640 C   0  0  0  0  0  3  0  0  0  0  0  0
  189.4990  177.1690  147.5640 N   0  0  0  0  0  0  0  0  0  0  0  0
  187.7920  176.9470  144.3690 C   0  0  0  0  0  0  0  0  0  0  0  0
  186.5590  178.4170  145.8790 C   0  0  0  0  0  0  0  0  0  0  0  0
  188.8830  178.4670  138.5580 C   0  0  0  0  0  3  0  0  0  0  0  0
  190.4250  176.4170  142.8400 C   0  0  0  0  0  3  0  0  0  0  0  0
  185.0860  178.9040  140.6980 C   0  0  0  0  0  0  0  0  0  0  0  0
  187.9340  176.2350  143.0570 C   0  0  0  0  0  2  0  0  0  0  0  0
  185.2000  178.3320  139.3480 C   0  0  0  0  0  0  0  0  0  0  0  0
  188.6060  177.3310  146.5560 C   0  0  0  0  0  0  0  0  0  0  0  0
  190.2210  177.6660  140.3440 C   0  0  0  0  0  0  0  0  0  0  0  0
  187.7270  178.1120  139.2540 C   0  0  0  0  0  0  0  0  0  0  0  0
  182.2980  179.3640  143.1480 C   0  0  0  0  0  2  0  0  0  0  0  0
  181.2680  178.5880  141.8670 S   0  0  0  0  0  0  0  0  0  0  0  0
  178.9530  179.7370  142.2660 F   0  0  0  0  0  0  0  0  0  0  0  0
  180.1930  180.0450  141.7400 C   0  0  2  0  0  3  0  0  0  0  0  0
  180.0430  180.4420  140.2820 C   0  0  0  0  0  2  0  0  0  0  0  0
  181.1470  179.8310  139.4250 C   0  0  0  0  0  2  0  0  0  0  0  0
  181.5830  180.4860  137.1700 F   0  0  0  0  0  0  0  0  0  0  0  0
  181.2410  182.0850  138.7110 F   0  0  0  0  0  0  0  0  0  0  0  0
  183.1620  180.9120  138.7310 F   0  0  0  0  0  0  0  0  0  0  0  0
  181.8020  180.8410  138.4880 C   0  0  0  0  0  0  0  0  0  0  0  0
  192.7450  177.8780  140.2380 C   0  0  0  0  0  2  0  0  0  0  0  0
  193.4410  176.7220  139.5270 C   0  0  0  0  0  2  0  0  0  0  0  0
  193.2370  176.8020  138.0850 N   0  0  0  0  0  2  0  0  0  0  0  0
  192.7210  175.7200  137.2980 C   0  0  0  0  0  0  0  0  0  0  0  0
  193.3090  175.3630  136.1590 C   0  0  0  0  0  2  0  0  0  0  0  0
  190.2890  175.2490  137.1830 C   0  0  0  0  0  2  0  0  0  0  0  0
  191.6100  174.8740  137.8350 C   0  0  0  0  0  3  0  0  0  0  0  0
  191.0320  174.0160  136.7220 C   0  0  0  0  0  2  0  0  0  0  0  0
  1 11  1  0  0  0  0
  2  3  1  0  0  0  0
  3 13  1  0  0  0  0
  4 30  1  0  0  0  0
  4 27  1  0  0  0  0
  5 22  1  0  0  0  0
  6 17  1  0  0  0  0
  6  5  1  0  0  0  0
  8 29  1  0  0  0  0
  9 28  2  0  0  0  0
 11 31  1  1  0  0  0
 11 17  1  0  0  0  0
 12 19  1  0  0  0  0
 13 24  2  0  0  0  0
 13 26  1  0  0  0  0
 14 24  1  0  0  0  0
 15 14  2  0  0  0  0
 16 12  1  0  0  0  0
 18 27  2  0  0  0  0
 20 19  2  0  0  0  0
 21  5  2  0  0  0  0
 21  9  1  0  0  0  0
 22  7  1  0  0  0  0
 22 16  2  0  0  0  0
 23  8  2  0  0  0  0
 23 30  1  0  0  0  0
 25 10  2  0  0  0  0
 25  1  1  0  0  0  0
 26 21  1  0  0  0  0
 27 25  1  0  0  0  0
 28 16  1  0  0  0  0
 28 20  1  0  0  0  0
 29 15  1  0  0  0  0
 29  3  2  0  0  0  0
 30  2  2  0  0  0  0
 32 31  1  0  0  0  0
 34 32  1  0  0  0  0
 34 33  1  6  0  0  0
 35 34  1  0  0  0  0
 36 35  1  0  0  0  0
 37 40  1  0  0  0  0
 40 38  1  0  0  0  0
 40 39  1  0  0  0  0
 40 36  1  0  0  0  0
 41 15  1  0  0  0  0
 42 41  1  0  0  0  0
 43 42  1  0  0  0  0
 44 47  1  0  0  0  0
 44 43  1  0  0  0  0
 45 44  2  0  0  0  0
 46 47  1  0  0  0  0
 48 46  1  0  0  0  0
 48 47  1  0  0  0  0
M  END
>  <MODEL>
1

>  <REMARK>
 VINA RESULT:      -8.3      0.000      0.000
  Name = 
  11 active torsions:
  status: ('A' for Active; 'I' for Inactive)
    1  A    between atoms: C_3  and  C_16
    2  A    between atoms: C_3  and  S_39
    3  A    between atoms: N_4  and  C_14
    4  A    between atoms: N_4  and  C_41
    5  A    between atoms: C_14  and  C_29
    6  A    between atoms: C_18  and  C_24
    7  A    between atoms: C_18  and  C_38
    8  A    between atoms: C_22  and  C_24
    9  A    between atoms: C_22  and  S_39
   10  A    between atoms: C_23  and  C_32
   11  A    between atoms: C_32  and  C_41
                            x       y       z     vdW  Elec       q    Type
                         _______ _______ _______ _____ _____    ______ ____

>  <TORSDO>
F 11

$$$$
=
 OpenBabel11042411163D

 48 53  0  0  1  0  0  0  0  0999 V2000
  183.9180  178.6380  141.4340 N   0  0  0  0  0  2  0  0  0  0  0  0
  187.8480  177.5180  140.4590 N   0  0  0  0  0  0  0  0  0  0  0  0
  189.0590  177.2890  141.0360 C   0  0  0  0  0  0  0  0  0  0  0  0
  186.4690  178.2930  138.6150 N   0  0  0  0  0  2  0  0  0  0  0  0
  186.6580  177.7810  144.5880 C   0  0  0  0  0  0  0  0  0  0  0  0
  185.7230  177.9680  143.5600 O   0  0  0  0  0  0  0  0  0  0  0  0
  185.4710  179.3200  146.1390 N   0  0  0  0  0  1  0  0  0  0  0  0
  190.1190  178.2390  139.1130 N   0  0  0  0  0  0  0  0  0  0  0  0
  188.7040  176.7320  145.3350 N   0  0  0  0  0  0  0  0  0  0  0  0
  186.0020  179.6390  141.1160 O   0  0  0  0  0  0  0  0  0  0  0  0
  183.7600  179.1540  142.7870 C   0  0  2  0  0  3  0  0  0  0  0  0
  187.6680  178.7450  148.3700 S   0  0  0  0  0  0  0  0  0  0  0  0
  189.1560  176.6730  142.2960 C   0  0  0  0  0  0  0  0  0  0  0  0
  191.5780  176.8010  142.1610 C   0  0  0  0  0  3  0  0  0  0  0  0
  191.4930  177.4300  140.9170 C   0  0  0  0  0  0  0  0  0  0  0  0
  187.5120  178.1650  146.8050 C   0  0  0  0  0  0  0  0  0  0  0  0
  184.3370  178.1780  143.7980 C   0  0  0  0  0  2  0  0  0  0  0  0
  184.1880  177.8860  138.7270 O   0  0  0  0  0  0  0  0  0  0  0  0
  189.1070  177.8930  148.6530 C   0  0  0  0  0  3  0  0  0  0  0  0
  189.4630  177.1750  147.5570 N   0  0  0  0  0  0  0  0  0  0  0  0
  187.7780  176.9450  144.3510 C   0  0  0  0  0  0  0  0  0  0  0  0
  186.5320  178.4150  145.8500 C   0  0  0  0  0  0  0  0  0  0  0  0
  188.9050  178.4580  138.5450 C   0  0  0  0  0  3  0  0  0  0  0  0
  190.4220  176.4180  142.8400 C   0  0  0  0  0  3  0  0  0  0  0  0
  185.0930  178.8920  140.6600 C   0  0  0  0  0  0  0  0  0  0  0  0
  187.9300  176.2320  143.0400 C   0  0  0  0  0  2  0  0  0  0  0  0
  185.2170  178.3180  139.3100 C   0  0  0  0  0  0  0  0  0  0  0  0
  188.5770  177.3340  146.5420 C   0  0  0  0  0  0  0  0  0  0  0  0
  190.2320  177.6630  140.3410 C   0  0  0  0  0  0  0  0  0  0  0  0
  187.7440  178.1030  139.2330 C   0  0  0  0  0  0  0  0  0  0  0  0
  182.2880  179.3510  143.0900 C   0  0  0  0  0  2  0  0  0  0  0  0
  181.3140  179.3010  141.5560 S   0  0  0  0  0  0  0  0  0  0  0  0
  180.4070  177.9420  143.5970 F   0  0  0  0  0  0  0  0  0  0  0  0
  180.0010  178.3170  142.3310 C   0  0  2  0  0  3  0  0  0  0  0  0
  179.7320  177.0780  141.4960 C   0  0  0  0  0  2  0  0  0  0  0  0
  180.4370  177.1550  140.1460 C   0  0  0  0  0  2  0  0  0  0  0  0
  182.3760  175.7700  139.9850 F   0  0  0  0  0  0  0  0  0  0  0  0
  180.3880  174.8030  140.3900 F   0  0  0  0  0  0  0  0  0  0  0  0
  180.8270  175.6340  138.3450 F   0  0  0  0  0  0  0  0  0  0  0  0
  181.0230  175.8200  139.7020 C   0  0  0  0  0  0  0  0  0  0  0  0
  192.7560  177.8790  140.2510 C   0  0  0  0  0  2  0  0  0  0  0  0
  193.4550  176.7240  139.5400 C   0  0  0  0  0  2  0  0  0  0  0  0
  193.4060  176.9010  138.0930 N   0  0  0  0  0  2  0  0  0  0  0  0
  192.9340  175.8930  137.1890 C   0  0  0  0  0  0  0  0  0  0  0  0
  193.3110  175.8890  135.9130 C   0  0  0  0  0  2  0  0  0  0  0  0
  190.6510  175.0280  137.6240 C   0  0  0  0  0  2  0  0  0  0  0  0
  192.1400  174.7380  137.7120 C   0  0  0  0  0  3  0  0  0  0  0  0
  191.3050  174.1380  136.5940 C   0  0  0  0  0  2  0  0  0  0  0  0
  1 11  1  0  0  0  0
  2  3  1  0  0  0  0
  3 13  1  0  0  0  0
  4 30  1  0  0  0  0
  4 27  1  0  0  0  0
  5 22  1  0  0  0  0
  6 17  1  0  0  0  0
  6  5  1  0  0  0  0
  8 29  1  0  0  0  0
  9 28  2  0  0  0  0
 11 31  1  1  0  0  0
 11 17  1  0  0  0  0
 12 19  1  0  0  0  0
 13 24  2  0  0  0  0
 13 26  1  0  0  0  0
 14 24  1  0  0  0  0
 15 14  2  0  0  0  0
 16 12  1  0  0  0  0
 18 27  2  0  0  0  0
 20 19  2  0  0  0  0
 21  5  2  0  0  0  0
 21  9  1  0  0  0  0
 22  7  1  0  0  0  0
 22 16  2  0  0  0  0
 23  8  2  0  0  0  0
 23 30  1  0  0  0  0
 25 10  2  0  0  0  0
 25  1  1  0  0  0  0
 26 21  1  0  0  0  0
 27 25  1  0  0  0  0
 28 16  1  0  0  0  0
 28 20  1  0  0  0  0
 29 15  1  0  0  0  0
 29  3  2  0  0  0  0
 30  2  2  0  0  0  0
 32 34  1  0  0  0  0
 32 31  1  0  0  0  0
 34 33  1  1  0  0  0
 35 34  1  0  0  0  0
 36 35  1  0  0  0  0
 39 40  1  0  0  0  0
 40 37  1  0  0  0  0
 40 36  1  0  0  0  0
 40 38  1  0  0  0  0
 41 15  1  0  0  0  0
 42 41  1  0  0  0  0
 43 42  1  0  0  0  0
 44 47  1  0  0  0  0
 44 43  1  0  0  0  0
 45 44  2  0  0  0  0
 46 47  1  0  0  0  0
 48 46  1  0  0  0  0
 48 47  1  0  0  0  0
M  END
>  <MODEL>
2

>  <REMARK>
 VINA RESULT:      -8.3      1.728      1.945
  Name = 
  11 active torsions:
  status: ('A' for Active; 'I' for Inactive)
    1  A    between atoms: C_3  and  C_16
    2  A    between atoms: C_3  and  S_39
    3  A    between atoms: N_4  and  C_14
    4  A    between atoms: N_4  and  C_41
    5  A    between atoms: C_14  and  C_29
    6  A    between atoms: C_18  and  C_24
    7  A    between atoms: C_18  and  C_38
    8  A    between atoms: C_22  and  C_24
    9  A    between atoms: C_22  and  S_39
   10  A    between atoms: C_23  and  C_32
   11  A    between atoms: C_32  and  C_41
                            x       y       z     vdW  Elec       q    Type
                         _______ _______ _______ _____ _____    ______ ____

>  <TORSDO>
F 11

$$$$
=
 OpenBabel11042411163D

 48 53  0  0  1  0  0  0  0  0999 V2000
  180.2610  179.4470  139.5000 N   0  0  0  0  0  2  0  0  0  0  0  0
  183.3490  179.2450  142.3420 N   0  0  0  0  0  0  0  0  0  0  0  0
  184.6220  178.7900  142.4930 C   0  0  0  0  0  0  0  0  0  0  0  0
  181.1280  179.7160  143.2090 N   0  0  0  0  0  2  0  0  0  0  0  0
  184.1110  178.0920  138.2640 C   0  0  0  0  0  0  0  0  0  0  0  0
  182.8700  178.6300  138.6370 O   0  0  0  0  0  0  0  0  0  0  0  0
  183.1240  176.6980  136.4570 N   0  0  0  0  0  1  0  0  0  0  0  0
  184.1120  178.2090  144.7570 N   0  0  0  0  0  0  0  0  0  0  0  0
  186.4940  177.9700  138.6530 N   0  0  0  0  0  0  0  0  0  0  0  0
  181.1890  177.8980  140.9780 O   0  0  0  0  0  0  0  0  0  0  0  0
  180.4700  178.6100  138.3270 C   0  0  2  0  0  3  0  0  0  0  0  0
  186.0270  175.6140  135.7260 S   0  0  0  0  0  0  0  0  0  0  0  0
  185.5480  178.8630  141.4370 C   0  0  0  0  0  0  0  0  0  0  0  0
  187.2450  177.8770  142.8680 C   0  0  0  0  0  3  0  0  0  0  0  0
  186.3280  177.7820  143.9190 C   0  0  0  0  0  0  0  0  0  0  0  0
  185.5210  176.6960  136.9020 C   0  0  0  0  0  0  0  0  0  0  0  0
  181.8280  178.8950  137.7070 C   0  0  0  0  0  2  0  0  0  0  0  0
  179.6660  180.8970  141.8480 O   0  0  0  0  0  0  0  0  0  0  0  0
  187.6540  175.7070  136.1930 C   0  0  0  0  0  3  0  0  0  0  0  0
  187.8050  176.5580  137.2410 N   0  0  0  0  0  0  0  0  0  0  0  0
  185.2660  178.4660  138.9960 C   0  0  0  0  0  0  0  0  0  0  0  0
  184.2470  177.1710  137.1950 C   0  0  0  0  0  0  0  0  0  0  0  0
  182.8450  178.6710  144.5960 C   0  0  0  0  0  3  0  0  0  0  0  0
  186.8610  178.4200  141.6430 C   0  0  0  0  0  3  0  0  0  0  0  0
  180.6810  179.0400  140.8050 C   0  0  0  0  0  0  0  0  0  0  0  0
  185.1690  179.4610  140.1140 C   0  0  0  0  0  2  0  0  0  0  0  0
  180.4760  179.9380  141.9530 C   0  0  0  0  0  0  0  0  0  0  0  0
  186.6210  177.0960  137.6260 C   0  0  0  0  0  0  0  0  0  0  0  0
  185.0160  178.2530  143.7400 C   0  0  0  0  0  0  0  0  0  0  0  0
  182.4490  179.1890  143.3630 C   0  0  0  0  0  0  0  0  0  0  0  0
  179.3980  178.8990  137.2950 C   0  0  0  0  0  2  0  0  0  0  0  0
  178.9310  180.6550  137.3430 S   0  0  0  0  0  0  0  0  0  0  0  0
  180.9480  180.6580  135.6800 F   0  0  0  0  0  0  0  0  0  0  0  0
  179.5990  180.9570  135.6830 C   0  0  2  0  0  3  0  0  0  0  0  0
  179.4010  182.4160  135.3130 C   0  0  0  0  0  2  0  0  0  0  0  0
  180.7310  183.1610  135.2610 C   0  0  0  0  0  2  0  0  0  0  0  0
  179.6860  184.3140  137.0730 F   0  0  0  0  0  0  0  0  0  0  0  0
  181.9030  183.9570  137.1550 F   0  0  0  0  0  0  0  0  0  0  0  0
  181.0740  185.4800  135.7210 F   0  0  0  0  0  0  0  0  0  0  0  0
  180.8440  184.2540  136.3180 C   0  0  0  0  0  0  0  0  0  0  0  0
  186.7650  177.1370  145.1970 C   0  0  0  0  0  2  0  0  0  0  0  0
  187.4530  178.1370  146.1220 C   0  0  0  0  0  2  0  0  0  0  0  0
  188.4740  177.4770  146.9290 N   0  0  0  0  0  0  0  0  0  0  0  0
  189.7680  177.1170  146.4280 C   0  0  0  0  0  0  0  0  0  0  0  0
  190.7010  176.6220  147.2380 C   0  0  0  0  0  1  0  0  0  0  0  0
  190.7790  178.4030  144.5640 C   0  0  0  0  0  2  0  0  0  0  0  0
  190.0280  177.1410  144.9540 C   0  0  0  0  0  3  0  0  0  0  0  0
  191.5240  177.0950  144.6940 C   0  0  0  0  0  2  0  0  0  0  0  0
  1 25  1  0  0  0  0
  2  3  1  0  0  0  0
  2 30  2  0  0  0  0
  3 29  1  0  0  0  0
  4 30  1  0  0  0  0
  5  6  1  0  0  0  0
  5 21  2  0  0  0  0
  7 22  1  0  0  0  0
  9 21  1  0  0  0  0
 11 31  1  6  0  0  0
 11  1  1  0  0  0  0
 12 19  1  0  0  0  0
 12 16  1  0  0  0  0
 13 24  1  0  0  0  0
 13  3  2  0  0  0  0
 14 15  1  0  0  0  0
 15 41  1  0  0  0  0
 16 22  2  0  0  0  0
 16 28  1  0  0  0  0
 17 11  1  0  0  0  0
 17  6  1  0  0  0  0
 18 27  2  0  0  0  0
 19 20  2  0  0  0  0
 20 28  1  0  0  0  0
 21 26  1  0  0  0  0
 22  5  1  0  0  0  0
 23  8  2  0  0  0  0
 24 14  2  0  0  0  0
 25 10  2  0  0  0  0
 25 27  1  0  0  0  0
 26 13  1  0  0  0  0
 27  4  1  0  0  0  0
 28  9  2  0  0  0  0
 29 15  2  0  0  0  0
 29  8  1  0  0  0  0
 30 23  1  0  0  0  0
 31 32  1  0  0  0  0
 34 33  1  1  0  0  0
 34 32  1  0  0  0  0
 35 34  1  0  0  0  0
 36 35  1  0  0  0  0
 36 40  1  0  0  0  0
 39 40  1  0  0  0  0
 40 37  1  0  0  0  0
 40 38  1  0  0  0  0
 41 42  1  0  0  0  0
 42 43  1  0  0  0  0
 44 43  2  0  0  0  0
 44 45  1  0  0  0  0
 46 48  1  0  0  0  0
 46 47  1  0  0  0  0
 47 44  1  0  0  0  0
 48 47  1  0  0  0  0
M  END
>  <MODEL>
3

>  <REMARK>
 VINA RESULT:      -8.1      3.604      7.370
  Name = 
  11 active torsions:
  status: ('A' for Active; 'I' for Inactive)
    1  A    between atoms: C_3  and  C_16
    2  A    between atoms: C_3  and  S_39
    3  A    between atoms: N_4  and  C_14
    4  A    between atoms: N_4  and  C_41
    5  A    between atoms: C_14  and  C_29
    6  A    between atoms: C_18  and  C_24
    7  A    between atoms: C_18  and  C_38
    8  A    between atoms: C_22  and  C_24
    9  A    between atoms: C_22  and  S_39
   10  A    between atoms: C_23  and  C_32
   11  A    between atoms: C_32  and  C_41
                            x       y       z     vdW  Elec       q    Type
                         _______ _______ _______ _____ _____    ______ ____

>  <TORSDO>
F 11

$$$$
=
 OpenBabel11042411163D

 48 53  0  0  1  0  0  0  0  0999 V2000
  191.6880  177.5000  141.6120 N   0  0  0  0  0  2  0  0  0  0  0  0
  189.8260  176.9680  137.8840 N   0  0  0  0  0  0  0  0  0  0  0  0
  188.5940  176.9650  137.3050 C   0  0  0  0  0  0  0  0  0  0  0  0
  192.1070  176.1510  138.0640 N   0  0  0  0  0  2  0  0  0  0  0  0
  187.5260  178.3550  141.2490 C   0  0  0  0  0  0  0  0  0  0  0  0
  188.9120  178.1730  141.3550 O   0  0  0  0  0  0  0  0  0  0  0  0
  187.1290  177.8150  143.6440 N   0  0  0  0  0  1  0  0  0  0  0  0
  189.3110  175.1940  135.8650 N   0  0  0  0  0  0  0  0  0  0  0  0
  185.6260  178.8750  139.8470 N   0  0  0  0  0  0  0  0  0  0  0  0
  190.5250  175.8440  140.4500 O   0  0  0  0  0  0  0  0  0  0  0  0
  190.7740  177.4940  142.7450 C   0  0  2  0  0  3  0  0  0  0  0  0
  184.0120  178.3090  143.2250 S   0  0  0  0  0  0  0  0  0  0  0  0
  187.5980  177.8670  137.7160 C   0  0  0  0  0  0  0  0  0  0  0  0
  186.0880  176.9450  136.0520 C   0  0  0  0  0  3  0  0  0  0  0  0
  187.0640  176.0300  135.6480 C   0  0  0  0  0  0  0  0  0  0  0  0
  185.2950  178.4080  142.1500 C   0  0  0  0  0  0  0  0  0  0  0  0
  189.6510  178.4940  142.5260 C   0  0  0  0  0  2  0  0  0  0  0  0
  193.5450  177.2740  139.4980 O   0  0  0  0  0  0  0  0  0  0  0  0
  182.8600  178.7040  142.0450 C   0  0  0  0  0  3  0  0  0  0  0  0
  183.4540  178.9070  140.8410 N   0  0  0  0  0  0  0  0  0  0  0  0
  186.9730  178.6790  139.9840 C   0  0  0  0  0  0  0  0  0  0  0  0
  186.6560  178.2050  142.3580 C   0  0  0  0  0  0  0  0  0  0  0  0
  190.5390  175.2100  136.4460 C   0  0  0  0  0  3  0  0  0  0  0  0
  186.3550  177.8600  137.0690 C   0  0  0  0  0  3  0  0  0  0  0  0
  191.4830  176.6660  140.4690 C   0  0  0  0  0  0  0  0  0  0  0  0
  187.8640  178.8770  138.7940 C   0  0  0  0  0  2  0  0  0  0  0  0
  192.4180  176.7350  139.3350 C   0  0  0  0  0  0  0  0  0  0  0  0
  184.7990  178.7390  140.9100 C   0  0  0  0  0  0  0  0  0  0  0  0
  188.3280  176.0470  136.2630 C   0  0  0  0  0  0  0  0  0  0  0  0
  190.8010  176.1050  137.4840 C   0  0  0  0  0  0  0  0  0  0  0  0
  191.5220  177.8750  144.0070 C   0  0  0  0  0  2  0  0  0  0  0  0
  191.7660  176.4150  145.0620 S   0  0  0  0  0  0  0  0  0  0  0  0
  191.0760  176.3760  147.5830 F   0  0  0  0  0  0  0  0  0  0  0  0
  191.0440  177.2420  146.5070 C   0  0  2  0  0  3  0  0  0  0  0  0
  189.6070  177.6280  146.2070 C   0  0  0  0  0  2  0  0  0  0  0  0
  188.6460  177.0200  147.2220 C   0  0  0  0  0  2  0  0  0  0  0  0
  187.6520  177.4110  149.3580 F   0  0  0  0  0  0  0  0  0  0  0  0
  189.1080  178.9210  148.5520 F   0  0  0  0  0  0  0  0  0  0  0  0
  187.0570  178.7550  147.6410 F   0  0  0  0  0  0  0  0  0  0  0  0
  188.0970  178.0430  148.2110 C   0  0  0  0  0  0  0  0  0  0  0  0
  186.7160  175.0260  134.5950 C   0  0  0  0  0  2  0  0  0  0  0  0
  186.3740  173.6700  135.2060 C   0  0  0  0  0  2  0  0  0  0  0  0
  184.9410  173.5610  135.4540 N   0  0  0  0  0  2  0  0  0  0  0  0
  184.3720  173.4370  136.7650 C   0  0  0  0  0  0  0  0  0  0  0  0
  185.0860  172.9500  137.7770 C   0  0  0  0  0  2  0  0  0  0  0  0
  183.1030  175.5110  137.2550 C   0  0  0  0  0  2  0  0  0  0  0  0
  183.0180  174.0080  137.0440 C   0  0  0  0  0  3  0  0  0  0  0  0
  182.6220  174.9640  135.9320 C   0  0  0  0  0  2  0  0  0  0  0  0
  1 11  1  0  0  0  0
  3 13  1  0  0  0  0
  3  2  1  0  0  0  0
  4 27  1  0  0  0  0
  5  6  1  0  0  0  0
  5 22  1  0  0  0  0
  6 17  1  0  0  0  0
  8 29  1  0  0  0  0
  8 23  2  0  0  0  0
  9 21  1  0  0  0  0
  9 28  2  0  0  0  0
 10 25  2  0  0  0  0
 11 31  1  1  0  0  0
 13 26  1  0  0  0  0
 14 24  1  0  0  0  0
 15 14  2  0  0  0  0
 15 29  1  0  0  0  0
 16 22  2  0  0  0  0
 16 12  1  0  0  0  0
 17 11  1  0  0  0  0
 19 12  1  0  0  0  0
 20 28  1  0  0  0  0
 20 19  2  0  0  0  0
 21  5  2  0  0  0  0
 22  7  1  0  0  0  0
 23 30  1  0  0  0  0
 24 13  2  0  0  0  0
 25  1  1  0  0  0  0
 26 21  1  0  0  0  0
 27 18  2  0  0  0  0
 27 25  1  0  0  0  0
 28 16  1  0  0  0  0
 29  3  2  0  0  0  0
 30  2  2  0  0  0  0
 30  4  1  0  0  0  0
 31 32  1  0  0  0  0
 32 34  1  0  0  0  0
 34 33  1  1  0  0  0
 35 34  1  0  0  0  0
 35 36  1  0  0  0  0
 36 40  1  0  0  0  0
 39 40  1  0  0  0  0
 40 38  1  0  0  0  0
 40 37  1  0  0  0  0
 41 42  1  0  0  0  0
 41 15  1  0  0  0  0
 42 43  1  0  0  0  0
 43 44  1  0  0  0  0
 44 47  1  0  0  0  0
 44 45  2  0  0  0  0
 47 46  1  0  0  0  0
 48 47  1  0  0  0  0
 48 46  1  0  0  0  0
M  END
>  <MODEL>
4

>  <REMARK>
 VINA RESULT:      -8.0      4.608      8.080
  Name = 
  11 active torsions:
  status: ('A' for Active; 'I' for Inactive)
    1  A    between atoms: C_3  and  C_16
    2  A    between atoms: C_3  and  S_39
    3  A    between atoms: N_4  and  C_14
    4  A    between atoms: N_4  and  C_41
    5  A    between atoms: C_14  and  C_29
    6  A    between atoms: C_18  and  C_24
    7  A    between atoms: C_18  and  C_38
    8  A    between atoms: C_22  and  C_24
    9  A    between atoms: C_22  and  S_39
   10  A    between atoms: C_23  and  C_32
   11  A    between atoms: C_32  and  C_41
                            x       y       z     vdW  Elec       q    Type
                         _______ _______ _______ _____ _____    ______ ____

>  <TORSDO>
F 11

$$$$
=
 OpenBabel11042411163D

 48 53  0  0  1  0  0  0  0  0999 V2000
  189.7890  177.3200  139.0500 N   0  0  0  0  0  2  0  0  0  0  0  0
  185.9760  177.5840  137.3060 N   0  0  0  0  0  0  0  0  0  0  0  0
  184.6670  177.7490  137.6390 C   0  0  0  0  0  0  0  0  0  0  0  0
  187.7260  176.6380  135.9110 N   0  0  0  0  0  2  0  0  0  0  0  0
  186.4780  178.4300  141.4980 C   0  0  0  0  0  0  0  0  0  0  0  0
  187.5880  178.1630  140.6830 O   0  0  0  0  0  0  0  0  0  0  0  0
  187.5580  177.4720  143.5230 N   0  0  0  0  0  1  0  0  0  0  0  0
  184.0630  176.2450  135.8800 N   0  0  0  0  0  0  0  0  0  0  0  0
  184.2280  179.2950  141.6820 N   0  0  0  0  0  0  0  0  0  0  0  0
  187.9190  175.9680  138.7040 O   0  0  0  0  0  0  0  0  0  0  0  0
  189.7760  177.1480  140.4960 C   0  0  2  0  0  3  0  0  0  0  0  0
  184.9650  178.1880  145.2270 S   0  0  0  0  0  0  0  0  0  0  0  0
  184.2890  178.6070  138.6870 C   0  0  0  0  0  0  0  0  0  0  0  0
  181.9560  178.0860  138.2590 C   0  0  0  0  0  3  0  0  0  0  0  0
  182.3210  177.2160  137.2280 C   0  0  0  0  0  0  0  0  0  0  0  0
  185.3140  178.4230  143.6040 C   0  0  0  0  0  0  0  0  0  0  0  0
  188.9290  178.2240  141.1510 C   0  0  0  0  0  2  0  0  0  0  0  0
  189.8930  177.4020  136.2300 O   0  0  0  0  0  0  0  0  0  0  0  0
  183.4100  178.8520  145.0950 C   0  0  0  0  0  3  0  0  0  0  0  0
  183.1620  179.2470  143.8200 N   0  0  0  0  0  0  0  0  0  0  0  0
  185.3240  179.0110  140.9140 C   0  0  0  0  0  0  0  0  0  0  0  0
  186.4620  178.1180  142.8810 C   0  0  0  0  0  0  0  0  0  0  0  0
  185.3720  176.0920  135.5520 C   0  0  0  0  0  3  0  0  0  0  0  0
  182.9290  178.7810  138.9750 C   0  0  0  0  0  3  0  0  0  0  0  0
  188.7990  176.7250  138.2080 C   0  0  0  0  0  0  0  0  0  0  0  0
  185.3130  179.3840  139.4610 C   0  0  0  0  0  2  0  0  0  0  0  0
  188.8380  176.9590  136.7560 C   0  0  0  0  0  0  0  0  0  0  0  0
  184.2190  179.0030  143.0040 C   0  0  0  0  0  0  0  0  0  0  0  0
  183.6790  177.0560  136.9030 C   0  0  0  0  0  0  0  0  0  0  0  0
  186.3520  176.7640  136.2850 C   0  0  0  0  0  0  0  0  0  0  0  0
  191.1890  177.2490  141.0350 C   0  0  0  0  0  2  0  0  0  0  0  0
  191.1780  177.9660  142.7060 S   0  0  0  0  0  0  0  0  0  0  0  0
  190.1740  175.6080  143.2200 F   0  0  0  0  0  0  0  0  0  0  0  0
  191.3170  176.3360  143.4900 C   0  0  2  0  0  3  0  0  0  0  0  0
  191.4690  176.5040  144.9920 C   0  0  0  0  0  2  0  0  0  0  0  0
  190.5050  177.5550  145.5320 C   0  0  0  0  0  2  0  0  0  0  0  0
  188.4870  176.7530  146.5270 F   0  0  0  0  0  0  0  0  0  0  0  0
  190.4530  176.0140  147.3260 F   0  0  0  0  0  0  0  0  0  0  0  0
  189.8060  178.1280  147.7440 F   0  0  0  0  0  0  0  0  0  0  0  0
  189.7940  177.1110  146.8060 C   0  0  0  0  0  0  0  0  0  0  0  0
  181.2480  176.4430  136.5260 C   0  0  0  0  0  2  0  0  0  0  0  0
  181.0030  175.0930  137.1920 C   0  0  0  0  0  2  0  0  0  0  0  0
  181.1990  174.0040  136.2420 N   0  0  0  0  0  2  0  0  0  0  0  0
  181.8330  172.7630  136.5800 C   0  0  0  0  0  0  0  0  0  0  0  0
  181.1640  171.8050  137.2170 C   0  0  0  0  0  2  0  0  0  0  0  0
  184.2440  172.7160  137.1570 C   0  0  0  0  0  2  0  0  0  0  0  0
  183.2100  172.4700  136.0720 C   0  0  0  0  0  3  0  0  0  0  0  0
  183.8060  171.3050  136.8430 C   0  0  0  0  0  2  0  0  0  0  0  0
  1 11  1  0  0  0  0
  2  3  1  0  0  0  0
  3 13  1  0  0  0  0
  4 30  1  0  0  0  0
  4 27  1  0  0  0  0
  5 22  1  0  0  0  0
  6 17  1  0  0  0  0
  6  5  1  0  0  0  0
  8 29  1  0  0  0  0
  9 28  2  0  0  0  0
 11 31  1  1  0  0  0
 11 17  1  0  0  0  0
 13 24  2  0  0  0  0
 13 26  1  0  0  0  0
 14 24  1  0  0  0  0
 15 14  2  0  0  0  0
 16 12  1  0  0  0  0
 18 27  2  0  0  0  0
 19 12  1  0  0  0  0
 20 19  2  0  0  0  0
 21  5  2  0  0  0  0
 21  9  1  0  0  0  0
 22  7  1  0  0  0  0
 22 16  2  0  0  0  0
 23  8  2  0  0  0  0
 23 30  1  0  0  0  0
 25 10  2  0  0  0  0
 25  1  1  0  0  0  0
 26 21  1  0  0  0  0
 27 25  1  0  0  0  0
 28 16  1  0  0  0  0
 28 20  1  0  0  0  0
 29 15  1  0  0  0  0
 29  3  2  0  0  0  0
 30  2  2  0  0  0  0
 31 32  1  0  0  0  0
 32 34  1  0  0  0  0
 34 33  1  1  0  0  0
 34 35  1  0  0  0  0
 35 36  1  0  0  0  0
 36 40  1  0  0  0  0
 37 40  1  0  0  0  0
 40 38  1  0  0  0  0
 40 39  1  0  0  0  0
 41 42  1  0  0  0  0
 41 15  1  0  0  0  0
 43 44  1  0  0  0  0
 43 42  1  0  0  0  0
 44 45  2  0  0  0  0
 47 44  1  0  0  0  0
 47 48  1  0  0  0  0
 47 46  1  0  0  0  0
 48 46  1  0  0  0  0
M  END
>  <MODEL>
5

>  <REMARK>
 VINA RESULT:      -7.5      4.827      8.411
  Name = 
  11 active torsions:
  status: ('A' for Active; 'I' for Inactive)
    1  A    between atoms: C_3  and  C_16
    2  A    between atoms: C_3  and  S_39
    3  A    between atoms: N_4  and  C_14
    4  A    between atoms: N_4  and  C_41
    5  A    between atoms: C_14  and  C_29
    6  A    between atoms: C_18  and  C_24
    7  A    between atoms: C_18  and  C_38
    8  A    between atoms: C_22  and  C_24
    9  A    between atoms: C_22  and  S_39
   10  A    between atoms: C_23  and  C_32
   11  A    between atoms: C_32  and  C_41
                            x       y       z     vdW  Elec       q    Type
                         _______ _______ _______ _____ _____    ______ ____

>  <TORSDO>
F 11

$$$$
=
 OpenBabel11042411163D

 48 53  0  0  1  0  0  0  0  0999 V2000
  182.6200  179.0650  140.6330 N   0  0  0  0  0  2  0  0  0  0  0  0
  186.4000  178.2750  142.2890 N   0  0  0  0  0  0  0  0  0  0  0  0
  187.6200  177.7750  141.9550 C   0  0  0  0  0  0  0  0  0  0  0  0
  184.5910  178.6230  143.8740 N   0  0  0  0  0  2  0  0  0  0  0  0
  185.7970  177.8850  138.0440 C   0  0  0  0  0  0  0  0  0  0  0  0
  184.7730  178.3690  138.8710 O   0  0  0  0  0  0  0  0  0  0  0  0
  184.2030  176.8710  136.4270 N   0  0  0  0  0  1  0  0  0  0  0  0
  187.7780  176.7930  144.1310 N   0  0  0  0  0  0  0  0  0  0  0  0
  188.1680  177.6440  137.6410 N   0  0  0  0  0  0  0  0  0  0  0  0
  183.8310  177.2500  141.4600 O   0  0  0  0  0  0  0  0  0  0  0  0
  182.3980  178.4570  139.3290 C   0  0  2  0  0  3  0  0  0  0  0  0
  186.6540  175.8830  134.6510 S   0  0  0  0  0  0  0  0  0  0  0  0
  188.1840  178.0240  140.6910 C   0  0  0  0  0  0  0  0  0  0  0  0
  190.1540  176.7550  141.3300 C   0  0  0  0  0  3  0  0  0  0  0  0
  189.5960  176.4850  142.5820 C   0  0  0  0  0  0  0  0  0  0  0  0
  186.6150  176.7390  136.0930 C   0  0  0  0  0  0  0  0  0  0  0  0
  183.5210  178.8240  138.3740 C   0  0  0  0  0  2  0  0  0  0  0  0
  182.8800  180.0660  143.2600 O   0  0  0  0  0  0  0  0  0  0  0  0
  188.3480  175.8550  134.5950 C   0  0  0  0  0  3  0  0  0  0  0  0
  188.8760  176.4930  135.6710 N   0  0  0  0  0  0  0  0  0  0  0  0
  187.1450  178.0930  138.4310 C   0  0  0  0  0  0  0  0  0  0  0  0
  185.5300  177.1770  136.8450 C   0  0  0  0  0  0  0  0  0  0  0  0
  186.5620  177.3030  144.4560 C   0  0  0  0  0  3  0  0  0  0  0  0
  189.4600  177.5240  140.3980 C   0  0  0  0  0  3  0  0  0  0  0  0
  183.3840  178.4150  141.6520 C   0  0  0  0  0  0  0  0  0  0  0  0
  187.4690  178.8650  139.6750 C   0  0  0  0  0  2  0  0  0  0  0  0
  183.6080  179.0880  142.9410 C   0  0  0  0  0  0  0  0  0  0  0  0
  187.9100  176.9750  136.4930 C   0  0  0  0  0  0  0  0  0  0  0  0
  188.3310  177.0080  142.9060 C   0  0  0  0  0  0  0  0  0  0  0  0
  185.8510  178.0500  143.5150 C   0  0  0  0  0  0  0  0  0  0  0  0
  181.0890  178.9540  138.7490 C   0  0  0  0  0  2  0  0  0  0  0  0
  180.4090  180.2900  139.7780 S   0  0  0  0  0  0  0  0  0  0  0  0
  180.1590  180.5580  137.1890 F   0  0  0  0  0  0  0  0  0  0  0  0
  179.6430  181.1040  138.3480 C   0  0  2  0  0  3  0  0  0  0  0  0
  179.9440  182.5920  138.3870 C   0  0  0  0  0  2  0  0  0  0  0  0
  181.0600  182.9580  137.4140 C   0  0  0  0  0  2  0  0  0  0  0  0
  181.2700  184.7540  135.8540 F   0  0  0  0  0  0  0  0  0  0  0  0
  180.0890  185.0910  137.7360 F   0  0  0  0  0  0  0  0  0  0  0  0
  182.3310  184.9350  137.8420 F   0  0  0  0  0  0  0  0  0  0  0  0
  181.1990  184.4610  137.2040 C   0  0  0  0  0  0  0  0  0  0  0  0
  190.3480  175.6050  143.5310 C   0  0  0  0  0  2  0  0  0  0  0  0
  191.5970  176.2980  144.0660 C   0  0  0  0  0  2  0  0  0  0  0  0
  192.0190  175.7020  145.3290 N   0  0  0  0  0  0  0  0  0  0  0  0
  191.6520  176.2240  146.6120 C   0  0  0  0  0  0  0  0  0  0  0  0
  192.2000  175.7460  147.7270 C   0  0  0  0  0  1  0  0  0  0  0  0
  189.3230  177.0160  146.9280 C   0  0  0  0  0  2  0  0  0  0  0  0
  190.7680  177.4280  146.7000 C   0  0  0  0  0  3  0  0  0  0  0  0
  190.1540  177.5170  148.0860 C   0  0  0  0  0  2  0  0  0  0  0  0
  1 25  1  0  0  0  0
  2 30  2  0  0  0  0
  3  2  1  0  0  0  0
  3 29  1  0  0  0  0
  5 21  2  0  0  0  0
  5  6  1  0  0  0  0
  7 22  1  0  0  0  0
  8 23  2  0  0  0  0
  9 21  1  0  0  0  0
 10 25  2  0  0  0  0
 11 31  1  6  0  0  0
 11  1  1  0  0  0  0
 12 16  1  0  0  0  0
 13  3  2  0  0  0  0
 14 15  1  0  0  0  0
 15 29  2  0  0  0  0
 15 41  1  0  0  0  0
 16 28  1  0  0  0  0
 16 22  2  0  0  0  0
 17  6  1  0  0  0  0
 17 11  1  0  0  0  0
 19 12  1  0  0  0  0
 19 20  2  0  0  0  0
 20 28  1  0  0  0  0
 21 26  1  0  0  0  0
 22  5  1  0  0  0  0
 24 13  1  0  0  0  0
 24 14  2  0  0  0  0
 25 27  1  0  0  0  0
 26 13  1  0  0  0  0
 27 18  2  0  0  0  0
 27  4  1  0  0  0  0
 28  9  2  0  0  0  0
 29  8  1  0  0  0  0
 30  4  1  0  0  0  0
 30 23  1  0  0  0  0
 31 32  1  0  0  0  0
 34 33  1  6  0  0  0
 34 35  1  0  0  0  0
 34 32  1  0  0  0  0
 36 35  1  0  0  0  0
 37 40  1  0  0  0  0
 40 36  1  0  0  0  0
 40 38  1  0  0  0  0
 40 39  1  0  0  0  0
 41 42  1  0  0  0  0
 42 43  1  0  0  0  0
 43 44  2  0  0  0  0
 44 47  1  0  0  0  0
 44 45  1  0  0  0  0
 46 48  1  0  0  0  0
 47 46  1  0  0  0  0
 47 48  1  0  0  0  0
M  END
>  <MODEL>
6

>  <REMARK>
 VINA RESULT:      -7.5      3.030      6.795
  Name = 
  11 active torsions:
  status: ('A' for Active; 'I' for Inactive)
    1  A    between atoms: C_3  and  C_16
    2  A    between atoms: C_3  and  S_39
    3  A    between atoms: N_4  and  C_14
    4  A    between atoms: N_4  and  C_41
    5  A    between atoms: C_14  and  C_29
    6  A    between atoms: C_18  and  C_24
    7  A    between atoms: C_18  and  C_38
    8  A    between atoms: C_22  and  C_24
    9  A    between atoms: C_22  and  S_39
   10  A    between atoms: C_23  and  C_32
   11  A    between atoms: C_32  and  C_41
                            x       y       z     vdW  Elec       q    Type
                         _______ _______ _______ _____ _____    ______ ____

>  <TORSDO>
F 11

$$$$
=
 OpenBabel11042411163D

 48 53  0  0  1  0  0  0  0  0999 V2000
  191.1550  177.1860  140.3600 N   0  0  0  0  0  2  0  0  0  0  0  0
  188.1760  176.8210  137.4210 N   0  0  0  0  0  0  0  0  0  0  0  0
  186.8250  176.8900  137.2650 C   0  0  0  0  0  0  0  0  0  0  0  0
  190.3490  175.8900  136.8610 N   0  0  0  0  0  2  0  0  0  0  0  0
  187.1450  178.2520  141.3490 C   0  0  0  0  0  0  0  0  0  0  0  0
  188.4820  178.0000  141.0060 O   0  0  0  0  0  0  0  0  0  0  0  0
  187.5050  177.6840  143.7430 N   0  0  0  0  0  1  0  0  0  0  0  0
  186.9510  175.1160  135.6660 N   0  0  0  0  0  0  0  0  0  0  0  0
  184.9290  178.8930  140.6290 N   0  0  0  0  0  0  0  0  0  0  0  0
  189.5960  175.6130  139.6260 O   0  0  0  0  0  0  0  0  0  0  0  0
  190.6500  177.2020  141.7260 C   0  0  2  0  0  3  0  0  0  0  0  0
  184.4480  178.3400  144.3430 S   0  0  0  0  0  0  0  0  0  0  0  0
  186.0620  177.8330  137.9760 C   0  0  0  0  0  0  0  0  0  0  0  0
  184.0530  177.0190  136.8790 C   0  0  0  0  0  3  0  0  0  0  0  0
  184.8000  176.0660  136.1810 C   0  0  0  0  0  0  0  0  0  0  0  0
  185.3250  178.3970  142.9160 C   0  0  0  0  0  0  0  0  0  0  0  0
  189.5710  178.2610  141.8810 C   0  0  0  0  0  2  0  0  0  0  0  0
  192.2260  176.9110  137.7630 O   0  0  0  0  0  0  0  0  0  0  0  0
  183.0020  178.8150  143.5950 C   0  0  0  0  0  3  0  0  0  0  0  0
  183.1920  179.0120  142.2650 N   0  0  0  0  0  0  0  0  0  0  0  0
  186.2370  178.6290  140.3280 C   0  0  0  0  0  0  0  0  0  0  0  0
  186.6680  178.1230  142.6770 C   0  0  0  0  0  0  0  0  0  0  0  0
  188.2990  175.0600  135.8250 C   0  0  0  0  0  3  0  0  0  0  0  0
  184.6790  177.9000  137.7600 C   0  0  0  0  0  3  0  0  0  0  0  0
  190.5520  176.3860  139.3400 C   0  0  0  0  0  0  0  0  0  0  0  0
  186.7100  178.8070  138.9160 C   0  0  0  0  0  2  0  0  0  0  0  0
  191.0790  176.4320  137.9670 C   0  0  0  0  0  0  0  0  0  0  0  0
  184.4770  178.7760  141.9000 C   0  0  0  0  0  0  0  0  0  0  0  0
  186.1930  176.0080  136.3600 C   0  0  0  0  0  0  0  0  0  0  0  0
  188.9250  175.9200  136.7270 C   0  0  0  0  0  0  0  0  0  0  0  0
  191.7810  177.5200  142.6850 C   0  0  0  0  0  2  0  0  0  0  0  0
  191.2190  178.6880  143.9590 S   0  0  0  0  0  0  0  0  0  0  0  0
  191.8260  176.2650  144.7310 F   0  0  0  0  0  0  0  0  0  0  0  0
  191.2870  177.4220  145.2590 C   0  0  2  0  0  3  0  0  0  0  0  0
  189.8860  177.1430  145.7710 C   0  0  0  0  0  2  0  0  0  0  0  0
  189.8760  176.9560  147.2840 C   0  0  0  0  0  2  0  0  0  0  0  0
  187.8890  178.2550  147.0220 F   0  0  0  0  0  0  0  0  0  0  0  0
  187.9790  176.7430  148.6820 F   0  0  0  0  0  0  0  0  0  0  0  0
  189.1840  178.6370  148.8350 F   0  0  0  0  0  0  0  0  0  0  0  0
  188.7130  177.6700  147.9660 C   0  0  0  0  0  0  0  0  0  0  0  0
  184.0810  175.1010  135.2910 C   0  0  0  0  0  2  0  0  0  0  0  0
  183.3120  174.0600  136.0990 C   0  0  0  0  0  2  0  0  0  0  0  0
  181.8740  174.2230  135.9160 N   0  0  0  0  0  2  0  0  0  0  0  0
  180.9580  174.4350  136.9990 C   0  0  0  0  0  0  0  0  0  0  0  0
  179.6740  174.1060  136.8820 C   0  0  0  0  0  2  0  0  0  0  0  0
  181.0100  176.2950  138.6390 C   0  0  0  0  0  2  0  0  0  0  0  0
  181.4720  174.8800  138.3310 C   0  0  0  0  0  3  0  0  0  0  0  0
  180.3100  175.1190  139.2790 C   0  0  0  0  0  2  0  0  0  0  0  0
  1 11  1  0  0  0  0
  3  2  1  0  0  0  0
  3 13  1  0  0  0  0
  4 27  1  0  0  0  0
  5 22  1  0  0  0  0
  6  5  1  0  0  0  0
  6 17  1  0  0  0  0
  8 23  2  0  0  0  0
  8 29  1  0  0  0  0
  9 28  2  0  0  0  0
 11 17  1  0  0  0  0
 11 31  1  1  0  0  0
 13 26  1  0  0  0  0
 14 24  1  0  0  0  0
 15 29  1  0  0  0  0
 15 14  2  0  0  0  0
 16 12  1  0  0  0  0
 18 27  2  0  0  0  0
 19 12  1  0  0  0  0
 20 19  2  0  0  0  0
 21  9  1  0  0  0  0
 21  5  2  0  0  0  0
 22 16  2  0  0  0  0
 22  7  1  0  0  0  0
 23 30  1  0  0  0  0
 24 13  2  0  0  0  0
 25 10  2  0  0  0  0
 25  1  1  0  0  0  0
 26 21  1  0  0  0  0
 27 25  1  0  0  0  0
 28 20  1  0  0  0  0
 28 16  1  0  0  0  0
 29  3  2  0  0  0  0
 30  4  1  0  0  0  0
 30  2  2  0  0  0  0
 31 32  1  0  0  0  0
 32 34  1  0  0  0  0
 34 33  1  6  0  0  0
 34 35  1  0  0  0  0
 35 36  1  0  0  0  0
 36 40  1  0  0  0  0
 37 40  1  0  0  0  0
 40 38  1  0  0  0  0
 40 39  1  0  0  0  0
 41 42  1  0  0  0  0
 41 15  1  0  0  0  0
 43 42  1  0  0  0  0
 43 44  1  0  0  0  0
 44 47  1  0  0  0  0
 45 44  2  0  0  0  0
 46 48  1  0  0  0  0
 47 46  1  0  0  0  0
 47 48  1  0  0  0  0
M  END
>  <MODEL>
7

>  <REMARK>
 VINA RESULT:      -7.4      4.662      8.537
  Name = 
  11 active torsions:
  status: ('A' for Active; 'I' for Inactive)
    1  A    between atoms: C_3  and  C_16
    2  A    between atoms: C_3  and  S_39
    3  A    between atoms: N_4  and  C_14
    4  A    between atoms: N_4  and  C_41
    5  A    between atoms: C_14  and  C_29
    6  A    between atoms: C_18  and  C_24
    7  A    between atoms: C_18  and  C_38
    8  A    between atoms: C_22  and  C_24
    9  A    between atoms: C_22  and  S_39
   10  A    between atoms: C_23  and  C_32
   11  A    between atoms: C_32  and  C_41
                            x       y       z     vdW  Elec       q    Type
                         _______ _______ _______ _____ _____    ______ ____

>  <TORSDO>
F 11

$$$$
=
 OpenBabel11042411163D

 48 53  0  0  1  0  0  0  0  0999 V2000
  188.8950  177.2070  136.9410 N   0  0  0  0  0  2  0  0  0  0  0  0
  184.8790  177.8000  138.0240 N   0  0  0  0  0  0  0  0  0  0  0  0
  184.0800  177.8930  139.1210 C   0  0  0  0  0  0  0  0  0  0  0  0
  185.2800  177.1510  135.7170 N   0  0  0  0  0  2  0  0  0  0  0  0
  187.9380  177.8050  141.0540 C   0  0  0  0  0  0  0  0  0  0  0  0
  188.2750  177.7070  139.6960 O   0  0  0  0  0  0  0  0  0  0  0  0
  189.9050  176.4700  141.7840 N   0  0  0  0  0  1  0  0  0  0  0  0
  182.3490  176.7630  137.9160 N   0  0  0  0  0  0  0  0  0  0  0  0
  186.3960  178.6110  142.7320 N   0  0  0  0  0  0  0  0  0  0  0  0
  187.0580  175.9460  137.6330 O   0  0  0  0  0  0  0  0  0  0  0  0
  189.7490  176.7530  138.0300 C   0  0  2  0  0  3  0  0  0  0  0  0
  189.0070  176.8300  144.8170 S   0  0  0  0  0  0  0  0  0  0  0  0
  184.5280  178.5270  140.2930 C   0  0  0  0  0  0  0  0  0  0  0  0
  182.3800  178.0940  141.3390 C   0  0  0  0  0  3  0  0  0  0  0  0
  181.9290  177.4450  140.1860 C   0  0  0  0  0  0  0  0  0  0  0  0
  188.3150  177.3810  143.3930 C   0  0  0  0  0  0  0  0  0  0  0  0
  189.6170  177.6780  139.2290 C   0  0  0  0  0  2  0  0  0  0  0  0
  187.2620  177.8430  134.7290 O   0  0  0  0  0  0  0  0  0  0  0  0
  187.7910  177.5030  145.7890 C   0  0  0  0  0  3  0  0  0  0  0  0
  186.8650  178.1400  145.0270 N   0  0  0  0  0  0  0  0  0  0  0  0
  186.7490  178.4870  141.4170 C   0  0  0  0  0  0  0  0  0  0  0  0
  188.7340  177.2270  142.0750 C   0  0  0  0  0  0  0  0  0  0  0  0
  183.1540  176.6820  136.8250 C   0  0  0  0  0  3  0  0  0  0  0  0
  183.6620  178.6370  141.3890 C   0  0  0  0  0  3  0  0  0  0  0  0
  187.5340  176.7870  136.8210 C   0  0  0  0  0  0  0  0  0  0  0  0
  185.8970  179.1390  140.3690 C   0  0  0  0  0  2  0  0  0  0  0  0
  186.7040  177.3030  135.7200 C   0  0  0  0  0  0  0  0  0  0  0  0
  187.1630  178.0640  143.7060 C   0  0  0  0  0  0  0  0  0  0  0  0
  182.7730  177.3560  139.0650 C   0  0  0  0  0  0  0  0  0  0  0  0
  184.4490  177.1990  136.8800 C   0  0  0  0  0  0  0  0  0  0  0  0
  191.1960  176.7500  137.5780 C   0  0  0  0  0  2  0  0  0  0  0  0
  191.8590  175.0580  137.5930 S   0  0  0  0  0  0  0  0  0  0  0  0
  193.5950  176.9770  137.2190 F   0  0  0  0  0  0  0  0  0  0  0  0
  193.5750  175.6490  137.5980 C   0  0  2  0  0  3  0  0  0  0  0  0
  194.3990  174.8280  136.6210 C   0  0  0  0  0  2  0  0  0  0  0  0
  195.7760  174.5050  137.1910 C   0  0  0  0  0  2  0  0  0  0  0  0
  194.6810  172.5050  137.9000 F   0  0  0  0  0  0  0  0  0  0  0  0
  196.9230  172.6050  138.0080 F   0  0  0  0  0  0  0  0  0  0  0  0
  195.6850  173.7870  139.4680 F   0  0  0  0  0  0  0  0  0  0  0  0
  195.7580  173.3310  138.1640 C   0  0  0  0  0  0  0  0  0  0  0  0
  180.5680  176.8240  140.1960 C   0  0  0  0  0  2  0  0  0  0  0  0
  179.4820  177.8580  140.4760 C   0  0  0  0  0  2  0  0  0  0  0  0
  179.4930  178.9070  139.4630 N   0  0  0  0  0  2  0  0  0  0  0  0
  179.8120  180.2770  139.7440 C   0  0  0  0  0  0  0  0  0  0  0  0
  179.6790  180.7700  140.9730 C   0  0  0  0  0  2  0  0  0  0  0  0
  181.9650  180.9570  138.7180 C   0  0  0  0  0  2  0  0  0  0  0  0
  180.4550  181.1220  138.6900 C   0  0  0  0  0  3  0  0  0  0  0  0
  181.1500  180.2360  137.6710 C   0  0  0  0  0  2  0  0  0  0  0  0
  1 11  1  0  0  0  0
  2  3  1  0  0  0  0
  3 13  1  0  0  0  0
  4 27  1  0  0  0  0
  4 30  1  0  0  0  0
  5 21  2  0  0  0  0
  5 22  1  0  0  0  0
  6  5  1  0  0  0  0
  7 22  1  0  0  0  0
  8 29  1  0  0  0  0
  9 28  2  0  0  0  0
 11 31  1  6  0  0  0
 11 17  1  0  0  0  0
 12 19  1  0  0  0  0
 13 26  1  0  0  0  0
 13 24  2  0  0  0  0
 14 24  1  0  0  0  0
 15 41  1  0  0  0  0
 15 14  2  0  0  0  0
 16 28  1  0  0  0  0
 16 12  1  0  0  0  0
 17  6  1  0  0  0  0
 18 27  2  0  0  0  0
 20 19  2  0  0  0  0
 21  9  1  0  0  0  0
 22 16  2  0  0  0  0
 23 30  1  0  0  0  0
 23  8  2  0  0  0  0
 25  1  1  0  0  0  0
 25 10  2  0  0  0  0
 26 21  1  0  0  0  0
 27 25  1  0  0  0  0
 28 20  1  0  0  0  0
 29  3  2  0  0  0  0
 29 15  1  0  0  0  0
 30  2  2  0  0  0  0
 31 32  1  0  0  0  0
 32 34  1  0  0  0  0
 34 33  1  6  0  0  0
 35 36  1  0  0  0  0
 35 34  1  0  0  0  0
 36 40  1  0  0  0  0
 37 40  1  0  0  0  0
 38 40  1  0  0  0  0
 40 39  1  0  0  0  0
 41 42  1  0  0  0  0
 43 44  1  0  0  0  0
 43 42  1  0  0  0  0
 44 45  2  0  0  0  0
 47 46  1  0  0  0  0
 47 44  1  0  0  0  0
 48 47  1  0  0  0  0
 48 46  1  0  0  0  0
M  END
>  <MODEL>
8

>  <REMARK>
 VINA RESULT:      -7.1      5.048      9.788
  Name = 
  11 active torsions:
  status: ('A' for Active; 'I' for Inactive)
    1  A    between atoms: C_3  and  C_16
    2  A    between atoms: C_3  and  S_39
    3  A    between atoms: N_4  and  C_14
    4  A    between atoms: N_4  and  C_41
    5  A    between atoms: C_14  and  C_29
    6  A    between atoms: C_18  and  C_24
    7  A    between atoms: C_18  and  C_38
    8  A    between atoms: C_22  and  C_24
    9  A    between atoms: C_22  and  S_39
   10  A    between atoms: C_23  and  C_32
   11  A    between atoms: C_32  and  C_41
                            x       y       z     vdW  Elec       q    Type
                         _______ _______ _______ _____ _____    ______ ____

>  <TORSDO>
F 11

$$$$
=
 OpenBabel11042411163D

 48 53  0  0  1  0  0  0  0  0999 V2000
  189.2080  177.3270  137.5000 N   0  0  0  0  0  2  0  0  0  0  0  0
  185.0620  177.7720  138.0100 N   0  0  0  0  0  0  0  0  0  0  0  0
  184.1170  177.8540  138.9850 C   0  0  0  0  0  0  0  0  0  0  0  0
  185.7990  177.0920  135.7970 N   0  0  0  0  0  2  0  0  0  0  0  0
  187.6740  177.9700  141.4270 C   0  0  0  0  0  0  0  0  0  0  0  0
  188.1980  177.8580  140.1310 O   0  0  0  0  0  0  0  0  0  0  0  0
  189.5740  176.7360  142.4530 N   0  0  0  0  0  1  0  0  0  0  0  0
  182.6130  176.6260  137.5870 N   0  0  0  0  0  0  0  0  0  0  0  0
  185.8860  178.7460  142.8580 N   0  0  0  0  0  0  0  0  0  0  0  0
  187.3450  176.0040  137.9680 O   0  0  0  0  0  0  0  0  0  0  0  0
  189.9220  176.9330  138.7070 C   0  0  2  0  0  3  0  0  0  0  0  0
  188.2550  177.1220  145.3250 S   0  0  0  0  0  0  0  0  0  0  0  0
  184.3750  178.5310  140.1900 C   0  0  0  0  0  0  0  0  0  0  0  0
  182.1220  178.0300  140.9450 C   0  0  0  0  0  3  0  0  0  0  0  0
  181.8600  177.3380  139.7600 C   0  0  0  0  0  0  0  0  0  0  0  0
  187.7440  177.6120  143.8050 C   0  0  0  0  0  0  0  0  0  0  0  0
  189.5910  177.8760  139.8510 C   0  0  0  0  0  2  0  0  0  0  0  0
  187.8690  177.8460  135.0700 O   0  0  0  0  0  0  0  0  0  0  0  0
  186.8920  177.7630  146.1040 C   0  0  0  0  0  3  0  0  0  0  0  0
  186.0550  178.3440  145.2070 N   0  0  0  0  0  0  0  0  0  0  0  0
  186.4210  178.6090  141.6060 C   0  0  0  0  0  0  0  0  0  0  0  0
  188.3450  177.4490  142.5620 C   0  0  0  0  0  0  0  0  0  0  0  0
  183.5620  176.5560  136.6180 C   0  0  0  0  0  3  0  0  0  0  0  0
  183.3640  178.6280  141.1540 C   0  0  0  0  0  3  0  0  0  0  0  0
  187.8940  176.8470  137.2070 C   0  0  0  0  0  0  0  0  0  0  0  0
  185.6960  179.2020  140.4350 C   0  0  0  0  0  2  0  0  0  0  0  0
  187.2030  177.3030  135.9900 C   0  0  0  0  0  0  0  0  0  0  0  0
  186.5340  178.2530  143.9400 C   0  0  0  0  0  0  0  0  0  0  0  0
  182.8520  177.2610  138.7670 C   0  0  0  0  0  0  0  0  0  0  0  0
  184.8160  177.1280  136.8350 C   0  0  0  0  0  0  0  0  0  0  0  0
  191.4160  176.9820  138.4560 C   0  0  0  0  0  2  0  0  0  0  0  0
  191.8140  176.2180  136.8550 S   0  0  0  0  0  0  0  0  0  0  0  0
  192.9870  174.1620  137.9660 F   0  0  0  0  0  0  0  0  0  0  0  0
  191.7270  174.5420  137.5470 C   0  0  2  0  0  3  0  0  0  0  0  0
  191.2330  173.5770  136.4830 C   0  0  0  0  0  2  0  0  0  0  0  0
  190.0310  174.1440  135.7350 C   0  0  0  0  0  2  0  0  0  0  0  0
  188.5820  172.9660  137.2240 F   0  0  0  0  0  0  0  0  0  0  0  0
  187.6850  174.0230  135.4550 F   0  0  0  0  0  0  0  0  0  0  0  0
  188.8750  172.1390  135.1410 F   0  0  0  0  0  0  0  0  0  0  0  0
  188.7750  173.2950  135.8950 C   0  0  0  0  0  0  0  0  0  0  0  0
  180.5350  176.6600  139.6010 C   0  0  0  0  0  2  0  0  0  0  0  0
  179.3790  177.6210  139.8600 C   0  0  0  0  0  2  0  0  0  0  0  0
  179.3890  178.7130  138.8920 N   0  0  0  0  0  2  0  0  0  0  0  0
  179.6320  180.0810  139.2460 C   0  0  0  0  0  0  0  0  0  0  0  0
  179.3560  180.5310  140.4670 C   0  0  0  0  0  2  0  0  0  0  0  0
  181.8570  180.8590  138.4750 C   0  0  0  0  0  2  0  0  0  0  0  0
  180.3540  180.9780  138.2900 C   0  0  0  0  0  3  0  0  0  0  0  0
  181.1820  180.1460  137.3270 C   0  0  0  0  0  2  0  0  0  0  0  0
  1 11  1  0  0  0  0
  2  3  1  0  0  0  0
  3 13  1  0  0  0  0
  4 27  1  0  0  0  0
  4 30  1  0  0  0  0
  5 21  2  0  0  0  0
  5 22  1  0  0  0  0
  6  5  1  0  0  0  0
  7 22  1  0  0  0  0
  8 29  1  0  0  0  0
  9 28  2  0  0  0  0
 11 31  1  6  0  0  0
 11 17  1  0  0  0  0
 12 19  1  0  0  0  0
 13 26  1  0  0  0  0
 13 24  2  0  0  0  0
 14 24  1  0  0  0  0
 15 14  2  0  0  0  0
 16 28  1  0  0  0  0
 16 12  1  0  0  0  0
 17  6  1  0  0  0  0
 18 27  2  0  0  0  0
 20 19  2  0  0  0  0
 21  9  1  0  0  0  0
 22 16  2  0  0  0  0
 23 30  1  0  0  0  0
 23  8  2  0  0  0  0
 25  1  1  0  0  0  0
 25 10  2  0  0  0  0
 26 21  1  0  0  0  0
 27 25  1  0  0  0  0
 28 20  1  0  0  0  0
 29  3  2  0  0  0  0
 29 15  1  0  0  0  0
 30  2  2  0  0  0  0
 32 34  1  0  0  0  0
 32 31  1  0  0  0  0
 34 33  1  6  0  0  0
 35 34  1  0  0  0  0
 36 40  1  0  0  0  0
 36 35  1  0  0  0  0
 38 40  1  0  0  0  0
 39 40  1  0  0  0  0
 40 37  1  0  0  0  0
 41 15  1  0  0  0  0
 41 42  1  0  0  0  0
 43 44  1  0  0  0  0
 43 42  1  0  0  0  0
 44 45  2  0  0  0  0
 47 46  1  0  0  0  0
 47 44  1  0  0  0  0
 48 47  1  0  0  0  0
 48 46  1  0  0  0  0
M  END
>  <MODEL>
9

>  <REMARK>
 VINA RESULT:      -7.1      4.175      8.860
  Name = 
  11 active torsions:
  status: ('A' for Active; 'I' for Inactive)
    1  A    between atoms: C_3  and  C_16
    2  A    between atoms: C_3  and  S_39
    3  A    between atoms: N_4  and  C_14
    4  A    between atoms: N_4  and  C_41
    5  A    between atoms: C_14  and  C_29
    6  A    between atoms: C_18  and  C_24
    7  A    between atoms: C_18  and  C_38
    8  A    between atoms: C_22  and  C_24
    9  A    between atoms: C_22  and  S_39
   10  A    between atoms: C_23  and  C_32
   11  A    between atoms: C_32  and  C_41
                            x       y       z     vdW  Elec       q    Type
                         _______ _______ _______ _____ _____    ______ ____

>  <TORSDO>
F 11

$$$$
