=
 OpenBabel11032420343D

 53 60  0  0  1  0  0  0  0  0999 V2000
  189.6480  177.6850  141.3820 C   0  0  1  0  0  3  0  0  0  0  0  0
  190.4730  176.5060  141.6430 N   0  0  0  0  0  2  0  0  0  0  0  0
  189.4430  177.8660  139.8660 C   0  0  1  0  0  3  0  0  0  0  0  0
  191.8580  176.8210  141.2680 C   0  0  0  0  0  2  0  0  0  0  0  0
  190.6820  177.4000  139.0770 C   0  0  0  0  0  2  0  0  0  0  0  0
  191.9650  177.5270  139.8930 C   0  0  2  0  0  3  0  0  0  0  0  0
  188.3550  177.2750  143.4540 C   0  0  2  0  0  3  0  0  0  0  0  0
  188.9630  177.5580  145.6580 C   0  0  1  0  0  3  0  0  0  0  0  0
  186.0600  178.2370  143.7530 C   0  0  2  0  0  3  0  0  0  0  0  0
  187.1640  178.1800  141.6080 N   0  0  0  0  0  0  0  0  0  0  0  0
  187.6580  177.6070  145.6220 C   0  0  1  0  0  3  0  0  0  0  0  0
  186.0610  178.5530  142.4520 C   0  0  0  0  0  3  0  0  0  0  0  0
  187.0990  177.2700  144.2800 C   0  0  2  0  0  3  0  0  0  0  0  0
  187.0670  177.3060  146.8760 N   0  0  0  0  0  2  0  0  0  0  0  0
  188.1040  178.3180  149.1060 Cl  0  0  0  0  0  0  0  0  0  0  0  0
  189.4670  177.2200  147.0300 C   0  0  0  0  0  2  0  0  0  0  0  0
  189.5730  177.2080  144.3370 C   0  0  0  0  0  2  0  0  0  0  0  0
  188.1550  177.0790  147.8270 C   0  0  2  0  0  3  0  0  0  0  0  0
  188.3660  177.6290  142.1660 C   0  0  1  0  0  3  0  0  0  0  0  0
  184.3510  179.8930  144.1520 N   0  0  0  0  0  1  0  0  0  0  0  0
  184.8830  178.6150  144.5920 C   0  0  0  0  0  2  0  0  0  0  0  0
  193.1290  176.9490  139.1130 C   0  0  0  0  0  2  0  0  0  0  0  0
  194.3740  176.8130  136.5570 O   0  0  0  0  0  0  0  0  0  0  0  0
  193.3440  176.1180  136.7410 C   0  0  0  0  0  0  0  0  0  0  0  0
  192.6290  176.1940  137.9760 N   0  0  0  0  0  2  0  0  0  0  0  0
  192.8520  175.2120  135.6540 C   0  0  0  0  0  2  0  0  0  0  0  0
  193.9400  174.5870  135.0150 O   0  0  0  0  0  0  0  0  0  0  0  0
  194.0200  173.3890  135.5660 O   0  0  0  0  0  0  0  0  0  0  0  0
  195.3230  173.2960  136.0530 C   0  0  0  0  0  2  0  0  0  0  0  0
  196.0880  173.3760  138.3740 C   0  0  0  0  0  2  0  0  0  0  0  0
  194.6840  173.4090  138.3460 O   0  0  0  0  0  0  0  0  0  0  0  0
  195.3160  172.5850  137.3940 C   0  0  1  0  0  3  0  0  0  0  0  0
  188.3370  177.1320  139.4210 O   0  0  0  0  0  0  0  0  0  0  0  0
  187.6590  176.0220  137.4100 C   0  0  0  0  0  1  0  0  0  0  0  0
  188.3550  177.2300  138.0210 C   0  0  1  0  0  3  0  0  0  0  0  0
  188.3820  179.3830  137.0130 O   0  0  0  0  0  0  0  0  0  0  0  0
  187.6840  178.4950  137.5640 C   0  0  0  0  0  0  0  0  0  0  0  0
  186.2740  178.7020  137.6760 N   0  0  0  0  0  2  0  0  0  0  0  0
  185.4030  177.8410  138.4530 C   0  0  0  0  0  2  0  0  0  0  0  0
  184.0350  177.8020  137.8070 C   0  0  2  0  0  3  0  0  0  0  0  0
  181.6720  178.8670  138.0470 C   0  0  2  0  0  3  0  0  0  0  0  0
  183.0180  178.5180  138.7350 C   0  0  1  0  0  3  0  0  0  0  0  0
  180.2270  175.7370  138.8170 C   0  0  0  0  0  1  0  0  0  0  0  0
  184.2940  176.0880  136.1440 O   0  0  0  0  0  1  0  0  0  0  0  0
  183.7060  176.3640  137.3750 C   0  0  2  0  0  3  0  0  0  0  0  0
  181.4450  176.9320  136.3120 C   0  0  0  0  0  2  0  0  0  0  0  0
  181.7400  177.7690  139.1270 C   0  0  2  0  0  0  0  0  0  0  0  0
  181.6470  176.2830  138.7170 C   0  0  2  0  0  3  0  0  0  0  0  0
  181.6130  178.4340  136.5670 C   0  0  0  0  0  2  0  0  0  0  0  0
  182.2080  176.0660  137.3260 C   0  0  2  0  0  3  0  0  0  0  0  0
  180.2590  179.3360  140.4540 C   0  0  0  0  0  1  0  0  0  0  0  0
  181.2750  178.2070  140.5230 C   0  0  0  0  0  3  0  0  0  0  0  0
  182.4400  178.5870  141.4300 C   0  0  0  0  0  1  0  0  0  0  0  0
  1  2  1  6  0  0  0
  1 19  1  0  0  0  0
  3 33  1  6  0  0  0
  3  1  1  0  0  0  0
  4  2  1  0  0  0  0
  5  3  1  0  0  0  0
  5  6  1  0  0  0  0
  6 22  1  6  0  0  0
  6  4  1  0  0  0  0
  7 13  1  0  0  0  0
  7 17  1  1  0  0  0
  8 17  1  6  0  0  0
  8 16  1  0  0  0  0
  9 13  1  0  0  0  0
  9 21  1  6  0  0  0
 10 19  1  0  0  0  0
 10 12  2  0  0  0  0
 11  8  1  0  0  0  0
 11 14  1  1  0  0  0
 12  9  1  0  0  0  0
 13 11  1  0  0  0  0
 14 18  1  0  0  0  0
 16 18  1  0  0  0  0
 18 15  1  0  0  0  0
 19  7  1  0  0  0  0
 20 21  1  0  0  0  0
 23 24  2  0  0  0  0
 24 25  1  0  0  0  0
 25 22  1  0  0  0  0
 26 24  1  0  0  0  0
 27 28  1  0  0  0  0
 27 26  1  0  0  0  0
 28 29  1  0  0  0  0
 29 32  1  0  0  0  0
 31 30  1  0  0  0  0
 32 31  1  0  0  0  0
 32 30  1  0  0  0  0
 34 35  1  0  0  0  0
 35 33  1  0  0  0  0
 36 37  2  0  0  0  0
 37 38  1  0  0  0  0
 37 35  1  0  0  0  0
 38 39  1  0  0  0  0
 40 39  1  0  0  0  0
 40 42  1  0  0  0  0
 41 42  1  0  0  0  0
 41 47  1  0  0  0  0
 42 47  1  0  0  0  0
 44 45  1  0  0  0  0
 45 40  1  0  0  0  0
 46 49  1  0  0  0  0
 46 50  1  0  0  0  0
 47 52  1  0  0  0  0
 48 43  1  0  0  0  0
 48 47  1  0  0  0  0
 49 41  1  0  0  0  0
 50 45  1  0  0  0  0
 50 48  1  0  0  0  0
 51 52  1  0  0  0  0
 52 53  1  0  0  0  0
M  END
>  <MODEL>
1

>  <REMARK>
 VINA RESULT:      -8.3      0.000      0.000
  Name = 
  15 active torsions:
  status: ('A' for Active; 'I' for Inactive)
    1  A    between atoms: C_2  and  C_32
    2  A    between atoms: C_3  and  C_53
    3  A    between atoms: C_7  and  C_13
    4  A    between atoms: C_7  and  O_40
    5  A    between atoms: C_12  and  C_23
    6  A    between atoms: C_18  and  O_35
    7  A    between atoms: C_21  and  C_38
    8  A    between atoms: C_32  and  N_44
    9  A    between atoms: C_34  and  N_47
   10  A    between atoms: C_34  and  C_51
   11  A    between atoms: O_35  and  C_37
   12  A    between atoms: C_36  and  C_37
   13  A    between atoms: O_39  and  O_40
   14  A    between atoms: O_39  and  C_41
   15  A    between atoms: C_41  and  C_43
                            x       y       z     vdW  Elec       q    Type
                         _______ _______ _______ _____ _____    ______ ____

>  <TORSDO>
F 15

$$$$
=
 OpenBabel11032420343D

 53 60  0  0  1  0  0  0  0  0999 V2000
  185.3290  178.2580  143.0600 C   0  0  1  0  0  3  0  0  0  0  0  0
  184.9150  179.5460  143.6160 N   0  0  0  0  0  2  0  0  0  0  0  0
  184.4820  177.9190  141.8180 C   0  0  1  0  0  3  0  0  0  0  0  0
  183.6160  179.3670  144.2770 C   0  0  0  0  0  2  0  0  0  0  0  0
  183.0450  178.4570  141.9600 C   0  0  0  0  0  2  0  0  0  0  0  0
  182.6100  178.5580  143.4190 C   0  0  2  0  0  3  0  0  0  0  0  0
  187.6840  178.1750  143.8200 C   0  0  2  0  0  3  0  0  0  0  0  0
  188.6060  177.1640  145.6740 C   0  0  1  0  0  3  0  0  0  0  0  0
  189.5150  177.4560  142.2670 C   0  0  2  0  0  3  0  0  0  0  0  0
  187.3070  178.0260  141.4780 N   0  0  0  0  0  0  0  0  0  0  0  0
  189.5680  177.2880  144.7980 C   0  0  1  0  0  3  0  0  0  0  0  0
  188.6450  177.5520  141.2530 C   0  0  0  0  0  3  0  0  0  0  0  0
  189.1690  178.0830  143.6000 C   0  0  2  0  0  3  0  0  0  0  0  0
  190.8550  177.2650  145.3980 N   0  0  0  0  0  2  0  0  0  0  0  0
  191.3890  175.5040  147.3180 Cl  0  0  0  0  0  0  0  0  0  0  0  0
  189.1400  177.0050  147.0660 C   0  0  0  0  0  2  0  0  0  0  0  0
  187.3330  177.8210  145.2410 C   0  0  0  0  0  2  0  0  0  0  0  0
  190.6630  177.0570  146.8330 C   0  0  2  0  0  3  0  0  0  0  0  0
  186.8120  178.2300  142.8100 C   0  0  1  0  0  3  0  0  0  0  0  0
  191.3310  177.4480  140.6770 N   0  0  0  0  0  1  0  0  0  0  0  0
  190.9070  176.9890  141.9880 C   0  0  0  0  0  2  0  0  0  0  0  0
  181.2390  179.1990  143.5030 C   0  0  0  0  0  2  0  0  0  0  0  0
  179.5570  181.2260  142.4240 O   0  0  0  0  0  0  0  0  0  0  0  0
  179.8160  180.2350  141.6960 C   0  0  0  0  0  0  0  0  0  0  0  0
  180.5950  179.1480  142.2010 N   0  0  0  0  0  2  0  0  0  0  0  0
  179.2950  180.1840  140.2920 C   0  0  0  0  0  2  0  0  0  0  0  0
  180.1430  180.9090  139.4340 O   0  0  0  0  0  0  0  0  0  0  0  0
  179.6110  182.1170  139.3680 O   0  0  0  0  0  0  0  0  0  0  0  0
  179.4790  182.3840  138.0060 C   0  0  0  0  0  2  0  0  0  0  0  0
  180.7950  183.4590  136.2470 C   0  0  0  0  0  2  0  0  0  0  0  0
  181.3010  183.8350  137.5030 O   0  0  0  0  0  0  0  0  0  0  0  0
  180.8540  182.5060  137.3740 C   0  0  1  0  0  3  0  0  0  0  0  0
  185.0470  178.4720  140.6630 O   0  0  0  0  0  0  0  0  0  0  0  0
  184.0360  179.8820  139.0120 C   0  0  0  0  0  1  0  0  0  0  0  0
  184.0040  178.5390  139.7250 C   0  0  1  0  0  3  0  0  0  0  0  0
  183.2170  176.5400  138.7070 O   0  0  0  0  0  0  0  0  0  0  0  0
  184.1110  177.4220  138.7250 C   0  0  0  0  0  0  0  0  0  0  0  0
  185.1580  177.3580  137.7530 N   0  0  0  0  0  2  0  0  0  0  0  0
  186.3350  178.2040  137.7940 C   0  0  0  0  0  2  0  0  0  0  0  0
  187.3910  177.6350  136.8710 C   0  0  2  0  0  3  0  0  0  0  0  0
  187.6320  175.9690  134.8860 C   0  0  2  0  0  3  0  0  0  0  0  0
  186.7950  176.4200  136.1120 C   0  0  1  0  0  3  0  0  0  0  0  0
  189.6700  173.8170  136.8080 C   0  0  0  0  0  1  0  0  0  0  0  0
  189.4130  178.6000  137.7380 O   0  0  0  0  0  1  0  0  0  0  0  0
  188.6950  177.4100  137.6520 C   0  0  2  0  0  3  0  0  0  0  0  0
  190.0530  176.5870  135.6410 C   0  0  0  0  0  2  0  0  0  0  0  0
  187.5590  175.0920  136.1530 C   0  0  2  0  0  0  0  0  0  0  0  0
  188.7740  175.0150  137.1030 C   0  0  2  0  0  3  0  0  0  0  0  0
  188.8970  176.8260  134.6630 C   0  0  0  0  0  2  0  0  0  0  0  0
  189.5730  176.3020  137.0720 C   0  0  2  0  0  3  0  0  0  0  0  0
  185.5120  174.1400  135.0080 C   0  0  0  0  0  1  0  0  0  0  0  0
  186.5800  173.9140  136.0660 C   0  0  0  0  0  3  0  0  0  0  0  0
  185.9430  173.5880  137.4120 C   0  0  0  0  0  1  0  0  0  0  0  0
  1  2  1  6  0  0  0
  2  4  1  0  0  0  0
  3 33  1  6  0  0  0
  3  5  1  0  0  0  0
  3  1  1  0  0  0  0
  5  6  1  0  0  0  0
  6 22  1  6  0  0  0
  6  4  1  0  0  0  0
  7 17  1  6  0  0  0
  8 17  1  1  0  0  0
  8 16  1  0  0  0  0
  9 21  1  6  0  0  0
  9 13  1  0  0  0  0
 10 19  1  0  0  0  0
 11 14  1  1  0  0  0
 11  8  1  0  0  0  0
 12 10  2  0  0  0  0
 12  9  1  0  0  0  0
 13  7  1  0  0  0  0
 13 11  1  0  0  0  0
 14 18  1  0  0  0  0
 18 16  1  0  0  0  0
 18 15  1  0  0  0  0
 19  1  1  0  0  0  0
 19  7  1  0  0  0  0
 20 21  1  0  0  0  0
 24 25  1  0  0  0  0
 24 23  2  0  0  0  0
 25 22  1  0  0  0  0
 26 24  1  0  0  0  0
 27 26  1  0  0  0  0
 28 27  1  0  0  0  0
 29 28  1  0  0  0  0
 30 32  1  0  0  0  0
 30 31  1  0  0  0  0
 32 31  1  0  0  0  0
 32 29  1  0  0  0  0
 34 35  1  0  0  0  0
 35 33  1  0  0  0  0
 36 37  2  0  0  0  0
 37 35  1  0  0  0  0
 38 39  1  0  0  0  0
 38 37  1  0  0  0  0
 40 45  1  0  0  0  0
 40 39  1  0  0  0  0
 41 42  1  0  0  0  0
 41 47  1  0  0  0  0
 42 47  1  0  0  0  0
 42 40  1  0  0  0  0
 43 48  1  0  0  0  0
 45 44  1  0  0  0  0
 46 50  1  0  0  0  0
 47 48  1  0  0  0  0
 49 41  1  0  0  0  0
 49 46  1  0  0  0  0
 50 48  1  0  0  0  0
 50 45  1  0  0  0  0
 51 52  1  0  0  0  0
 52 47  1  0  0  0  0
 52 53  1  0  0  0  0
M  END
>  <MODEL>
2

>  <REMARK>
 VINA RESULT:      -8.3      3.176      9.017
  Name = 
  15 active torsions:
  status: ('A' for Active; 'I' for Inactive)
    1  A    between atoms: C_2  and  C_32
    2  A    between atoms: C_3  and  C_53
    3  A    between atoms: C_7  and  C_13
    4  A    between atoms: C_7  and  O_40
    5  A    between atoms: C_12  and  C_23
    6  A    between atoms: C_18  and  O_35
    7  A    between atoms: C_21  and  C_38
    8  A    between atoms: C_32  and  N_44
    9  A    between atoms: C_34  and  N_47
   10  A    between atoms: C_34  and  C_51
   11  A    between atoms: O_35  and  C_37
   12  A    between atoms: C_36  and  C_37
   13  A    between atoms: O_39  and  O_40
   14  A    between atoms: O_39  and  C_41
   15  A    between atoms: C_41  and  C_43
                            x       y       z     vdW  Elec       q    Type
                         _______ _______ _______ _____ _____    ______ ____

>  <TORSDO>
F 15

$$$$
=
 OpenBabel11032420343D

 53 60  0  0  1  0  0  0  0  0999 V2000
  185.5420  178.2430  142.9380 C   0  0  1  0  0  3  0  0  0  0  0  0
  185.0440  179.3970  143.6850 N   0  0  0  0  0  2  0  0  0  0  0  0
  184.7820  178.1040  141.6040 C   0  0  1  0  0  3  0  0  0  0  0  0
  183.7180  179.0630  144.2200 C   0  0  0  0  0  2  0  0  0  0  0  0
  183.3180  178.5640  141.7480 C   0  0  0  0  0  2  0  0  0  0  0  0
  182.7960  178.3900  143.1710 C   0  0  2  0  0  3  0  0  0  0  0  0
  187.8490  178.2190  143.8380 C   0  0  2  0  0  3  0  0  0  0  0  0
  188.7100  177.1210  145.6720 C   0  0  1  0  0  3  0  0  0  0  0  0
  189.8050  177.7060  142.3580 C   0  0  2  0  0  3  0  0  0  0  0  0
  187.6210  178.2230  141.4730 N   0  0  0  0  0  0  0  0  0  0  0  0
  189.7150  177.3560  144.8710 C   0  0  1  0  0  3  0  0  0  0  0  0
  188.9940  177.8330  141.3010 C   0  0  0  0  0  3  0  0  0  0  0  0
  189.3460  178.2150  143.7080 C   0  0  2  0  0  3  0  0  0  0  0  0
  190.9620  177.3510  145.5470 N   0  0  0  0  0  2  0  0  0  0  0  0
  191.4740  175.4830  147.3700 Cl  0  0  0  0  0  0  0  0  0  0  0  0
  189.1670  176.8870  147.0810 C   0  0  0  0  0  2  0  0  0  0  0  0
  187.4320  177.7460  145.2060 C   0  0  0  0  0  2  0  0  0  0  0  0
  190.6970  177.0310  146.9490 C   0  0  2  0  0  3  0  0  0  0  0  0
  187.0360  178.3050  142.7810 C   0  0  1  0  0  3  0  0  0  0  0  0
  191.5080  177.2390  140.7140 N   0  0  0  0  0  1  0  0  0  0  0  0
  191.2340  177.3280  142.1370 C   0  0  0  0  0  2  0  0  0  0  0  0
  181.3980  178.9630  143.2790 C   0  0  0  0  0  2  0  0  0  0  0  0
  179.6760  181.0650  142.4300 O   0  0  0  0  0  0  0  0  0  0  0  0
  180.0120  180.2060  141.5760 C   0  0  0  0  0  0  0  0  0  0  0  0
  180.8160  179.0850  141.9530 N   0  0  0  0  0  2  0  0  0  0  0  0
  179.5570  180.3480  140.1560 C   0  0  0  0  0  2  0  0  0  0  0  0
  179.7450  181.6730  139.7180 O   0  0  0  0  0  0  0  0  0  0  0  0
  180.9070  181.6640  139.0890 O   0  0  0  0  0  0  0  0  0  0  0  0
  180.6170  182.0500  137.7800 C   0  0  0  0  0  2  0  0  0  0  0  0
  181.3720  184.2950  137.1700 C   0  0  0  0  0  2  0  0  0  0  0  0
  180.2330  183.9650  136.4160 O   0  0  0  0  0  0  0  0  0  0  0  0
  180.2540  183.5240  137.7530 C   0  0  1  0  0  3  0  0  0  0  0  0
  185.3880  178.8720  140.6030 O   0  0  0  0  0  0  0  0  0  0  0  0
  183.8810  179.8230  139.0030 C   0  0  0  0  0  1  0  0  0  0  0  0
  184.6720  178.5950  139.4270 C   0  0  1  0  0  3  0  0  0  0  0  0
  186.6370  178.8510  138.1140 O   0  0  0  0  0  0  0  0  0  0  0  0
  185.6000  178.1730  138.3220 C   0  0  0  0  0  0  0  0  0  0  0  0
  185.3800  176.9970  137.5400 N   0  0  0  0  0  2  0  0  0  0  0  0
  184.1390  176.2480  137.5620 C   0  0  0  0  0  2  0  0  0  0  0  0
  183.0700  177.0300  136.8290 C   0  0  2  0  0  3  0  0  0  0  0  0
  180.7190  178.0730  137.2290 C   0  0  2  0  0  3  0  0  0  0  0  0
  181.7700  177.0230  137.6770 C   0  0  1  0  0  3  0  0  0  0  0  0
  179.2400  175.8960  134.8730 C   0  0  0  0  0  1  0  0  0  0  0  0
  183.9500  177.1440  134.5960 O   0  0  0  0  0  1  0  0  0  0  0  0
  182.9710  176.5360  135.3770 C   0  0  2  0  0  3  0  0  0  0  0  0
  181.1750  178.2200  134.6630 C   0  0  0  0  0  2  0  0  0  0  0  0
  180.4690  176.5680  137.0060 C   0  0  2  0  0  0  0  0  0  0  0  0
  180.5860  175.9730  135.5860 C   0  0  2  0  0  3  0  0  0  0  0  0
  181.1810  178.9230  136.0250 C   0  0  0  0  0  2  0  0  0  0  0  0
  181.5910  176.7440  134.7540 C   0  0  2  0  0  3  0  0  0  0  0  0
  179.4740  176.7060  139.3300 C   0  0  0  0  0  1  0  0  0  0  0  0
  179.5440  175.9090  138.0370 C   0  0  0  0  0  3  0  0  0  0  0  0
  179.9270  174.4600  138.3200 C   0  0  0  0  0  1  0  0  0  0  0  0
  1  2  1  6  0  0  0
  2  4  1  0  0  0  0
  3 33  1  6  0  0  0
  3  5  1  0  0  0  0
  3  1  1  0  0  0  0
  5  6  1  0  0  0  0
  6 22  1  6  0  0  0
  6  4  1  0  0  0  0
  7 17  1  6  0  0  0
  8 17  1  1  0  0  0
  8 16  1  0  0  0  0
  9 21  1  6  0  0  0
  9 13  1  0  0  0  0
 10 19  1  0  0  0  0
 11 14  1  1  0  0  0
 11  8  1  0  0  0  0
 12 10  2  0  0  0  0
 12  9  1  0  0  0  0
 13  7  1  0  0  0  0
 13 11  1  0  0  0  0
 14 18  1  0  0  0  0
 18 16  1  0  0  0  0
 18 15  1  0  0  0  0
 19  1  1  0  0  0  0
 19  7  1  0  0  0  0
 20 21  1  0  0  0  0
 24 25  1  0  0  0  0
 24 23  2  0  0  0  0
 25 22  1  0  0  0  0
 26 24  1  0  0  0  0
 27 26  1  0  0  0  0
 28 27  1  0  0  0  0
 29 28  1  0  0  0  0
 30 32  1  0  0  0  0
 31 30  1  0  0  0  0
 31 32  1  0  0  0  0
 32 29  1  0  0  0  0
 34 35  1  0  0  0  0
 35 33  1  0  0  0  0
 36 37  2  0  0  0  0
 37 35  1  0  0  0  0
 38 39  1  0  0  0  0
 38 37  1  0  0  0  0
 40 39  1  0  0  0  0
 40 42  1  0  0  0  0
 41 42  1  0  0  0  0
 43 48  1  0  0  0  0
 44 45  1  0  0  0  0
 45 40  1  0  0  0  0
 46 50  1  0  0  0  0
 46 49  1  0  0  0  0
 47 41  1  0  0  0  0
 47 42  1  0  0  0  0
 47 52  1  0  0  0  0
 48 47  1  0  0  0  0
 49 41  1  0  0  0  0
 50 45  1  0  0  0  0
 50 48  1  0  0  0  0
 52 53  1  0  0  0  0
 52 51  1  0  0  0  0
M  END
>  <MODEL>
3

>  <REMARK>
 VINA RESULT:      -8.3      3.793      8.244
  Name = 
  15 active torsions:
  status: ('A' for Active; 'I' for Inactive)
    1  A    between atoms: C_2  and  C_32
    2  A    between atoms: C_3  and  C_53
    3  A    between atoms: C_7  and  C_13
    4  A    between atoms: C_7  and  O_40
    5  A    between atoms: C_12  and  C_23
    6  A    between atoms: C_18  and  O_35
    7  A    between atoms: C_21  and  C_38
    8  A    between atoms: C_32  and  N_44
    9  A    between atoms: C_34  and  N_47
   10  A    between atoms: C_34  and  C_51
   11  A    between atoms: O_35  and  C_37
   12  A    between atoms: C_36  and  C_37
   13  A    between atoms: O_39  and  O_40
   14  A    between atoms: O_39  and  C_41
   15  A    between atoms: C_41  and  C_43
                            x       y       z     vdW  Elec       q    Type
                         _______ _______ _______ _____ _____    ______ ____

>  <TORSDO>
F 15

$$$$
=
 OpenBabel11032420343D

 53 60  0  0  1  0  0  0  0  0999 V2000
  185.6090  174.9170  136.2100 C   0  0  1  0  0  3  0  0  0  0  0  0
  186.3540  174.5420  135.0090 N   0  0  0  0  0  2  0  0  0  0  0  0
  186.5060  175.7380  137.1580 C   0  0  1  0  0  3  0  0  0  0  0  0
  187.3140  173.4910  135.3710 C   0  0  0  0  0  2  0  0  0  0  0  0
  187.9740  175.2750  137.0750 C   0  0  0  0  0  2  0  0  0  0  0  0
  188.0930  173.8070  136.6730 C   0  0  2  0  0  3  0  0  0  0  0  0
  183.2730  175.5890  136.6840 C   0  0  2  0  0  3  0  0  0  0  0  0
  182.2510  176.0730  138.6910 C   0  0  1  0  0  3  0  0  0  0  0  0
  182.2020  177.4880  135.4480 C   0  0  2  0  0  3  0  0  0  0  0  0
  184.2650  176.4750  134.7140 N   0  0  0  0  0  0  0  0  0  0  0  0
  181.5530  176.6720  137.7620 C   0  0  1  0  0  3  0  0  0  0  0  0
  183.2330  177.4680  134.5940 C   0  0  0  0  0  3  0  0  0  0  0  0
  181.9920  176.3150  136.3810 C   0  0  2  0  0  3  0  0  0  0  0  0
  180.2240  176.9490  138.1740 N   0  0  0  0  0  2  0  0  0  0  0  0
  179.7640  177.8910  140.6190 Cl  0  0  0  0  0  0  0  0  0  0  0  0
  181.4500  175.8720  139.9430 C   0  0  0  0  0  2  0  0  0  0  0  0
  183.3370  175.2040  138.1380 C   0  0  0  0  0  2  0  0  0  0  0  0
  180.0940  176.4970  139.5590 C   0  0  2  0  0  3  0  0  0  0  0  0
  184.3180  175.6010  135.8520 C   0  0  1  0  0  3  0  0  0  0  0  0
  179.9550  177.9110  134.6770 N   0  0  0  0  0  1  0  0  0  0  0  0
  181.1330  178.5170  135.2730 C   0  0  0  0  0  2  0  0  0  0  0  0
  189.5520  173.4410  136.4960 C   0  0  0  0  0  2  0  0  0  0  0  0
  191.9380  174.8610  135.8680 O   0  0  0  0  0  0  0  0  0  0  0  0
  191.5130  174.9280  137.0490 C   0  0  0  0  0  0  0  0  0  0  0  0
  190.3620  174.1820  137.4490 N   0  0  0  0  0  2  0  0  0  0  0  0
  192.2250  175.7850  138.0500 C   0  0  0  0  0  2  0  0  0  0  0  0
  193.6160  175.7250  137.8380 O   0  0  0  0  0  0  0  0  0  0  0  0
  193.9280  174.4480  137.9770 O   0  0  0  0  0  0  0  0  0  0  0  0
  195.2980  174.3780  137.7260 C   0  0  0  0  0  2  0  0  0  0  0  0
  197.4460  174.5030  138.8880 C   0  0  0  0  0  2  0  0  0  0  0  0
  196.4990  175.2840  139.5730 O   0  0  0  0  0  0  0  0  0  0  0  0
  196.0370  174.0750  139.0170 C   0  0  1  0  0  3  0  0  0  0  0  0
  186.4550  177.1000  136.8370 O   0  0  0  0  0  0  0  0  0  0  0  0
  188.1790  178.7500  136.6290 C   0  0  0  0  0  1  0  0  0  0  0  0
  187.5380  177.6880  137.5100 C   0  0  1  0  0  3  0  0  0  0  0  0
  185.9120  178.7170  138.9060 O   0  0  0  0  0  0  0  0  0  0  0  0
  187.0920  178.2980  138.8100 C   0  0  0  0  0  0  0  0  0  0  0  0
  187.9410  178.3650  139.9590 N   0  0  0  0  0  2  0  0  0  0  0  0
  189.3640  178.0890  139.9140 C   0  0  0  0  0  2  0  0  0  0  0  0
  189.7540  177.2860  141.1360 C   0  0  2  0  0  3  0  0  0  0  0  0
  188.6690  176.0110  143.1290 C   0  0  2  0  0  3  0  0  0  0  0  0
  188.5060  177.1040  142.0400 C   0  0  1  0  0  3  0  0  0  0  0  0
  190.0790  178.2550  145.4650 C   0  0  0  0  0  1  0  0  0  0  0  0
  192.1510  177.4500  141.1210 O   0  0  0  0  0  1  0  0  0  0  0  0
  191.0090  177.8980  141.7790 C   0  0  2  0  0  3  0  0  0  0  0  0
  191.2280  176.1360  143.6270 C   0  0  0  0  0  2  0  0  0  0  0  0
  188.6130  177.5020  143.5160 C   0  0  2  0  0  0  0  0  0  0  0  0
  189.9040  178.2310  143.9500 C   0  0  2  0  0  3  0  0  0  0  0  0
  190.0480  175.3160  143.0940 C   0  0  0  0  0  2  0  0  0  0  0  0
  191.1220  177.6290  143.2790 C   0  0  2  0  0  3  0  0  0  0  0  0
  186.8110  177.2120  145.2690 C   0  0  0  0  0  1  0  0  0  0  0  0
  187.2520  177.9840  144.0360 C   0  0  0  0  0  3  0  0  0  0  0  0
  186.1710  177.9410  142.9600 C   0  0  0  0  0  1  0  0  0  0  0  0
  1  2  1  6  0  0  0
  1  3  1  0  0  0  0
  2  4  1  0  0  0  0
  3 33  1  6  0  0  0
  4  6  1  0  0  0  0
  5  3  1  0  0  0  0
  6 22  1  6  0  0  0
  6  5  1  0  0  0  0
  7 17  1  1  0  0  0
  8 17  1  6  0  0  0
  8 16  1  0  0  0  0
  9 21  1  6  0  0  0
  9 13  1  0  0  0  0
 10 19  1  0  0  0  0
 11 14  1  6  0  0  0
 11  8  1  0  0  0  0
 12 10  2  0  0  0  0
 12  9  1  0  0  0  0
 13  7  1  0  0  0  0
 13 11  1  0  0  0  0
 14 18  1  0  0  0  0
 18 16  1  0  0  0  0
 18 15  1  0  0  0  0
 19  1  1  0  0  0  0
 19  7  1  0  0  0  0
 20 21  1  0  0  0  0
 22 25  1  0  0  0  0
 23 24  2  0  0  0  0
 24 25  1  0  0  0  0
 24 26  1  0  0  0  0
 27 28  1  0  0  0  0
 27 26  1  0  0  0  0
 29 28  1  0  0  0  0
 29 32  1  0  0  0  0
 30 32  1  0  0  0  0
 30 31  1  0  0  0  0
 32 31  1  0  0  0  0
 33 35  1  0  0  0  0
 34 35  1  0  0  0  0
 35 37  1  0  0  0  0
 37 36  2  0  0  0  0
 37 38  1  0  0  0  0
 39 38  1  0  0  0  0
 39 40  1  0  0  0  0
 40 45  1  0  0  0  0
 40 42  1  0  0  0  0
 41 47  1  0  0  0  0
 42 41  1  0  0  0  0
 42 47  1  0  0  0  0
 44 45  1  0  0  0  0
 45 50  1  0  0  0  0
 47 48  1  0  0  0  0
 47 52  1  0  0  0  0
 48 43  1  0  0  0  0
 49 41  1  0  0  0  0
 49 46  1  0  0  0  0
 50 46  1  0  0  0  0
 50 48  1  0  0  0  0
 52 51  1  0  0  0  0
 53 52  1  0  0  0  0
M  END
>  <MODEL>
4

>  <REMARK>
 VINA RESULT:      -8.2      2.866      7.564
  Name = 
  15 active torsions:
  status: ('A' for Active; 'I' for Inactive)
    1  A    between atoms: C_2  and  C_32
    2  A    between atoms: C_3  and  C_53
    3  A    between atoms: C_7  and  C_13
    4  A    between atoms: C_7  and  O_40
    5  A    between atoms: C_12  and  C_23
    6  A    between atoms: C_18  and  O_35
    7  A    between atoms: C_21  and  C_38
    8  A    between atoms: C_32  and  N_44
    9  A    between atoms: C_34  and  N_47
   10  A    between atoms: C_34  and  C_51
   11  A    between atoms: O_35  and  C_37
   12  A    between atoms: C_36  and  C_37
   13  A    between atoms: O_39  and  O_40
   14  A    between atoms: O_39  and  C_41
   15  A    between atoms: C_41  and  C_43
                            x       y       z     vdW  Elec       q    Type
                         _______ _______ _______ _____ _____    ______ ____

>  <TORSDO>
F 15

$$$$
=
 OpenBabel11032420343D

 53 60  0  0  1  0  0  0  0  0999 V2000
  188.3630  178.0000  141.0440 C   0  0  1  0  0  3  0  0  0  0  0  0
  189.1210  176.7500  141.1000 N   0  0  0  0  0  2  0  0  0  0  0  0
  187.8440  178.2430  139.6140 C   0  0  1  0  0  3  0  0  0  0  0  0
  190.4100  176.9630  140.4300 C   0  0  0  0  0  2  0  0  0  0  0  0
  188.8330  177.7020  138.5630 C   0  0  0  0  0  2  0  0  0  0  0  0
  190.2710  177.6990  139.0730 C   0  0  2  0  0  3  0  0  0  0  0  0
  187.5160  177.5840  143.3340 C   0  0  2  0  0  3  0  0  0  0  0  0
  188.6220  177.6450  145.3540 C   0  0  1  0  0  3  0  0  0  0  0  0
  185.4740  178.7590  144.1860 C   0  0  2  0  0  3  0  0  0  0  0  0
  186.0650  178.7370  141.8470 N   0  0  0  0  0  0  0  0  0  0  0  0
  187.3560  177.8340  145.6150 C   0  0  1  0  0  3  0  0  0  0  0  0
  185.2270  179.1640  142.9340 C   0  0  0  0  0  3  0  0  0  0  0  0
  186.4800  177.6530  144.4210 C   0  0  2  0  0  3  0  0  0  0  0  0
  187.0230  177.5090  146.9560 N   0  0  0  0  0  2  0  0  0  0  0  0
  188.6360  178.2470  148.9380 Cl  0  0  0  0  0  0  0  0  0  0  0  0
  189.3700  177.1600  146.5600 C   0  0  0  0  0  2  0  0  0  0  0  0
  188.8810  177.3260  143.9150 C   0  0  0  0  0  2  0  0  0  0  0  0
  188.2580  177.1020  147.6260 C   0  0  2  0  0  3  0  0  0  0  0  0
  187.2870  178.0250  142.0940 C   0  0  1  0  0  3  0  0  0  0  0  0
  183.1800  178.9520  144.9110 N   0  0  0  0  0  1  0  0  0  0  0  0
  184.5620  179.2000  145.2850 C   0  0  0  0  0  2  0  0  0  0  0  0
  191.1780  177.0530  138.0460 C   0  0  0  0  0  2  0  0  0  0  0  0
  190.9980  174.2480  137.5930 O   0  0  0  0  0  0  0  0  0  0  0  0
  190.2810  175.0000  136.8870 C   0  0  0  0  0  0  0  0  0  0  0  0
  190.3750  176.4200  137.0120 N   0  0  0  0  0  2  0  0  0  0  0  0
  189.3280  174.4060  135.8950 C   0  0  0  0  0  2  0  0  0  0  0  0
  188.7830  173.2110  136.4030 O   0  0  0  0  0  0  0  0  0  0  0  0
  187.6150  173.5580  136.9150 O   0  0  0  0  0  0  0  0  0  0  0  0
  186.6890  172.6910  136.3360 C   0  0  0  0  0  2  0  0  0  0  0  0
  184.4080  171.9720  136.8450 C   0  0  0  0  0  2  0  0  0  0  0  0
  184.9350  172.6660  137.9480 O   0  0  0  0  0  0  0  0  0  0  0  0
  185.2820  173.1510  136.6720 C   0  0  1  0  0  3  0  0  0  0  0  0
  186.6070  177.6150  139.4190 O   0  0  0  0  0  0  0  0  0  0  0  0
  185.7970  177.2840  137.1900 C   0  0  0  0  0  1  0  0  0  0  0  0
  186.0170  178.2700  138.3270 C   0  0  1  0  0  3  0  0  0  0  0  0
  184.7200  180.0610  139.2010 O   0  0  0  0  0  0  0  0  0  0  0  0
  184.7100  178.8990  138.7230 C   0  0  0  0  0  0  0  0  0  0  0  0
  183.4520  178.2510  138.5190 N   0  0  0  0  0  2  0  0  0  0  0  0
  183.3270  176.8530  138.1530 C   0  0  0  0  0  2  0  0  0  0  0  0
  181.8600  176.4900  138.0640 C   0  0  2  0  0  3  0  0  0  0  0  0
  179.5170  177.4470  138.6710 C   0  0  2  0  0  3  0  0  0  0  0  0
  181.0440  177.4720  138.9460 C   0  0  1  0  0  3  0  0  0  0  0  0
  178.9330  174.8330  140.9740 C   0  0  0  0  0  1  0  0  0  0  0  0
  181.9300  174.2630  137.1660 O   0  0  0  0  0  1  0  0  0  0  0  0
  181.6820  174.9870  138.3290 C   0  0  2  0  0  3  0  0  0  0  0  0
  179.1470  174.9650  137.9540 C   0  0  0  0  0  2  0  0  0  0  0  0
  180.0860  176.8860  139.9900 C   0  0  2  0  0  0  0  0  0  0  0  0
  180.1450  175.3580  140.2110 C   0  0  2  0  0  3  0  0  0  0  0  0
  179.1130  176.4480  137.5660 C   0  0  0  0  0  2  0  0  0  0  0  0
  180.3110  174.6230  138.8970 C   0  0  2  0  0  3  0  0  0  0  0  0
  179.0250  178.9870  140.9220 C   0  0  0  0  0  1  0  0  0  0  0  0
  179.9730  177.8290  141.1950 C   0  0  0  0  0  3  0  0  0  0  0  0
  181.3310  178.3440  141.6590 C   0  0  0  0  0  1  0  0  0  0  0  0
  1  2  1  6  0  0  0
  1 19  1  0  0  0  0
  3 33  1  1  0  0  0
  3  1  1  0  0  0  0
  4  2  1  0  0  0  0
  5  6  1  0  0  0  0
  5  3  1  0  0  0  0
  6 22  1  6  0  0  0
  6  4  1  0  0  0  0
  7 17  1  1  0  0  0
  7 13  1  0  0  0  0
  8 17  1  6  0  0  0
  8 11  1  0  0  0  0
  8 16  1  0  0  0  0
  9 13  1  0  0  0  0
  9 21  1  6  0  0  0
 10 19  1  0  0  0  0
 10 12  2  0  0  0  0
 11 14  1  1  0  0  0
 12  9  1  0  0  0  0
 13 11  1  0  0  0  0
 14 18  1  0  0  0  0
 16 18  1  0  0  0  0
 18 15  1  0  0  0  0
 19  7  1  0  0  0  0
 20 21  1  0  0  0  0
 24 25  1  0  0  0  0
 24 23  2  0  0  0  0
 25 22  1  0  0  0  0
 26 27  1  0  0  0  0
 26 24  1  0  0  0  0
 27 28  1  0  0  0  0
 29 32  1  0  0  0  0
 29 28  1  0  0  0  0
 30 31  1  0  0  0  0
 32 30  1  0  0  0  0
 32 31  1  0  0  0  0
 34 35  1  0  0  0  0
 35 37  1  0  0  0  0
 35 33  1  0  0  0  0
 37 36  2  0  0  0  0
 38 37  1  0  0  0  0
 39 38  1  0  0  0  0
 40 39  1  0  0  0  0
 40 45  1  0  0  0  0
 40 42  1  0  0  0  0
 41 42  1  0  0  0  0
 41 47  1  0  0  0  0
 42 47  1  0  0  0  0
 44 45  1  0  0  0  0
 45 50  1  0  0  0  0
 46 50  1  0  0  0  0
 47 48  1  0  0  0  0
 47 52  1  0  0  0  0
 48 43  1  0  0  0  0
 49 46  1  0  0  0  0
 49 41  1  0  0  0  0
 50 48  1  0  0  0  0
 51 52  1  0  0  0  0
 52 53  1  0  0  0  0
M  END
>  <MODEL>
5

>  <REMARK>
 VINA RESULT:      -8.1      2.298      3.676
  Name = 
  15 active torsions:
  status: ('A' for Active; 'I' for Inactive)
    1  A    between atoms: C_2  and  C_32
    2  A    between atoms: C_3  and  C_53
    3  A    between atoms: C_7  and  C_13
    4  A    between atoms: C_7  and  O_40
    5  A    between atoms: C_12  and  C_23
    6  A    between atoms: C_18  and  O_35
    7  A    between atoms: C_21  and  C_38
    8  A    between atoms: C_32  and  N_44
    9  A    between atoms: C_34  and  N_47
   10  A    between atoms: C_34  and  C_51
   11  A    between atoms: O_35  and  C_37
   12  A    between atoms: C_36  and  C_37
   13  A    between atoms: O_39  and  O_40
   14  A    between atoms: O_39  and  C_41
   15  A    between atoms: C_41  and  C_43
                            x       y       z     vdW  Elec       q    Type
                         _______ _______ _______ _____ _____    ______ ____

>  <TORSDO>
F 15

$$$$
=
 OpenBabel11032420343D

 53 60  0  0  1  0  0  0  0  0999 V2000
  182.7880  176.3090  137.2090 C   0  0  1  0  0  3  0  0  0  0  0  0
  182.9210  175.8630  135.8230 N   0  0  0  0  0  2  0  0  0  0  0  0
  184.1790  176.5490  137.8270 C   0  0  1  0  0  3  0  0  0  0  0  0
  183.4030  174.4760  135.8290 C   0  0  0  0  0  2  0  0  0  0  0  0
  185.2180  175.5630  137.2580 C   0  0  0  0  0  2  0  0  0  0  0  0
  184.5820  174.2510  136.8100 C   0  0  2  0  0  3  0  0  0  0  0  0
  181.0830  177.6760  138.3750 C   0  0  2  0  0  3  0  0  0  0  0  0
  180.7410  178.0080  140.6290 C   0  0  1  0  0  3  0  0  0  0  0  0
  180.7140  180.0760  137.7590 C   0  0  2  0  0  3  0  0  0  0  0  0
  181.9850  178.5700  136.3660 N   0  0  0  0  0  0  0  0  0  0  0  0
  180.2090  179.0310  140.0160 C   0  0  1  0  0  3  0  0  0  0  0  0
  181.4680  179.8770  136.6700 C   0  0  0  0  0  3  0  0  0  0  0  0
  180.1990  178.8810  138.5310 C   0  0  2  0  0  3  0  0  0  0  0  0
  179.2200  179.6800  140.7990 N   0  0  0  0  0  2  0  0  0  0  0  0
  179.6500  180.1040  143.3900 Cl  0  0  0  0  0  0  0  0  0  0  0  0
  180.1700  177.8270  142.0040 C   0  0  0  0  0  2  0  0  0  0  0  0
  181.2380  176.9550  139.6880 C   0  0  0  0  0  2  0  0  0  0  0  0
  179.1620  178.9900  142.0880 C   0  0  2  0  0  3  0  0  0  0  0  0
  181.8670  177.4940  137.3090 C   0  0  1  0  0  3  0  0  0  0  0  0
  181.2410  182.4210  137.9760 N   0  0  0  0  0  1  0  0  0  0  0  0
  180.1690  181.4420  138.0250 C   0  0  0  0  0  2  0  0  0  0  0  0
  185.6270  173.3700  136.1560 C   0  0  0  0  0  2  0  0  0  0  0  0
  188.0880  172.3690  137.1790 O   0  0  0  0  0  0  0  0  0  0  0  0
  188.1110  173.4770  136.5880 C   0  0  0  0  0  0  0  0  0  0  0  0
  186.9000  174.0720  136.1140 N   0  0  0  0  0  2  0  0  0  0  0  0
  189.4130  174.1900  136.3900 C   0  0  0  0  0  2  0  0  0  0  0  0
  189.9750  174.5270  137.6350 O   0  0  0  0  0  0  0  0  0  0  0  0
  191.2130  174.0670  137.5890 O   0  0  0  0  0  0  0  0  0  0  0  0
  192.0270  175.1910  137.7220 C   0  0  0  0  0  2  0  0  0  0  0  0
  194.1710  175.5860  136.6140 C   0  0  0  0  0  2  0  0  0  0  0  0
  194.2940  175.8780  137.9830 O   0  0  0  0  0  0  0  0  0  0  0  0
  193.4850  174.7760  137.6420 C   0  0  1  0  0  3  0  0  0  0  0  0
  184.6210  177.8520  137.5690 O   0  0  0  0  0  0  0  0  0  0  0  0
  186.8080  178.5470  136.8830 C   0  0  0  0  0  1  0  0  0  0  0  0
  185.9680  177.8800  137.9620 C   0  0  1  0  0  3  0  0  0  0  0  0
  185.2020  179.3620  139.6560 O   0  0  0  0  0  0  0  0  0  0  0  0
  186.1310  178.6120  139.2660 C   0  0  0  0  0  0  0  0  0  0  0  0
  187.2730  178.4390  140.1070 N   0  0  0  0  0  2  0  0  0  0  0  0
  188.4790  177.7540  139.6820 C   0  0  0  0  0  2  0  0  0  0  0  0
  189.1470  177.1260  140.8870 C   0  0  2  0  0  3  0  0  0  0  0  0
  188.5460  176.0470  143.1780 C   0  0  2  0  0  3  0  0  0  0  0  0
  188.1030  176.9890  142.0270 C   0  0  1  0  0  3  0  0  0  0  0  0
  190.1880  178.6290  144.9420 C   0  0  0  0  0  1  0  0  0  0  0  0
  191.4800  177.4150  140.3950 O   0  0  0  0  0  1  0  0  0  0  0  0
  190.4480  177.8780  141.2070 C   0  0  2  0  0  3  0  0  0  0  0  0
  191.1360  176.3680  143.1600 C   0  0  0  0  0  2  0  0  0  0  0  0
  188.4500  177.5690  143.4030 C   0  0  2  0  0  0  0  0  0  0  0  0
  189.7400  178.4130  143.5000 C   0  0  2  0  0  3  0  0  0  0  0  0
  189.9430  175.4280  142.9560 C   0  0  0  0  0  2  0  0  0  0  0  0
  190.8550  177.7990  142.6780 C   0  0  2  0  0  3  0  0  0  0  0  0
  186.8330  177.1490  145.3050 C   0  0  0  0  0  1  0  0  0  0  0  0
  187.1750  178.0360  144.1180 C   0  0  0  0  0  3  0  0  0  0  0  0
  185.9860  178.1500  143.1710 C   0  0  0  0  0  1  0  0  0  0  0  0
  1  2  1  6  0  0  0
  1 19  1  0  0  0  0
  1  3  1  0  0  0  0
  2  4  1  0  0  0  0
  3 33  1  6  0  0  0
  4  6  1  0  0  0  0
  5  3  1  0  0  0  0
  6 22  1  6  0  0  0
  6  5  1  0  0  0  0
  7 13  1  0  0  0  0
  7 17  1  1  0  0  0
  8 17  1  6  0  0  0
  8 16  1  0  0  0  0
  9 21  1  6  0  0  0
  9 13  1  0  0  0  0
 10 12  2  0  0  0  0
 10 19  1  0  0  0  0
 11  8  1  0  0  0  0
 11 14  1  1  0  0  0
 12  9  1  0  0  0  0
 13 11  1  0  0  0  0
 14 18  1  0  0  0  0
 16 18  1  0  0  0  0
 18 15  1  0  0  0  0
 19  7  1  0  0  0  0
 20 21  1  0  0  0  0
 24 23  2  0  0  0  0
 25 22  1  0  0  0  0
 25 24  1  0  0  0  0
 26 24  1  0  0  0  0
 26 27  1  0  0  0  0
 28 27  1  0  0  0  0
 28 29  1  0  0  0  0
 30 32  1  0  0  0  0
 30 31  1  0  0  0  0
 32 29  1  0  0  0  0
 32 31  1  0  0  0  0
 33 35  1  0  0  0  0
 34 35  1  0  0  0  0
 35 37  1  0  0  0  0
 37 36  2  0  0  0  0
 37 38  1  0  0  0  0
 39 38  1  0  0  0  0
 39 40  1  0  0  0  0
 40 45  1  0  0  0  0
 40 42  1  0  0  0  0
 41 47  1  0  0  0  0
 42 41  1  0  0  0  0
 42 47  1  0  0  0  0
 44 45  1  0  0  0  0
 45 50  1  0  0  0  0
 47 48  1  0  0  0  0
 47 52  1  0  0  0  0
 48 43  1  0  0  0  0
 49 46  1  0  0  0  0
 49 41  1  0  0  0  0
 50 46  1  0  0  0  0
 50 48  1  0  0  0  0
 52 51  1  0  0  0  0
 53 52  1  0  0  0  0
M  END
>  <MODEL>
6

>  <REMARK>
 VINA RESULT:      -7.8      2.902      7.682
  Name = 
  15 active torsions:
  status: ('A' for Active; 'I' for Inactive)
    1  A    between atoms: C_2  and  C_32
    2  A    between atoms: C_3  and  C_53
    3  A    between atoms: C_7  and  C_13
    4  A    between atoms: C_7  and  O_40
    5  A    between atoms: C_12  and  C_23
    6  A    between atoms: C_18  and  O_35
    7  A    between atoms: C_21  and  C_38
    8  A    between atoms: C_32  and  N_44
    9  A    between atoms: C_34  and  N_47
   10  A    between atoms: C_34  and  C_51
   11  A    between atoms: O_35  and  C_37
   12  A    between atoms: C_36  and  C_37
   13  A    between atoms: O_39  and  O_40
   14  A    between atoms: O_39  and  C_41
   15  A    between atoms: C_41  and  C_43
                            x       y       z     vdW  Elec       q    Type
                         _______ _______ _______ _____ _____    ______ ____

>  <TORSDO>
F 15

$$$$
=
 OpenBabel11032420343D

 53 60  0  0  1  0  0  0  0  0999 V2000
  185.4570  178.2100  143.5420 C   0  0  1  0  0  3  0  0  0  0  0  0
  185.0940  179.3390  144.3970 N   0  0  0  0  0  2  0  0  0  0  0  0
  184.5400  178.1650  142.3040 C   0  0  1  0  0  3  0  0  0  0  0  0
  183.8290  179.0200  145.0710 C   0  0  0  0  0  2  0  0  0  0  0  0
  183.1210  178.6640  142.6430 C   0  0  0  0  0  2  0  0  0  0  0  0
  182.7650  178.4320  144.1090 C   0  0  2  0  0  3  0  0  0  0  0  0
  187.8520  178.1700  144.1690 C   0  0  2  0  0  3  0  0  0  0  0  0
  188.9020  177.1250  145.9340 C   0  0  1  0  0  3  0  0  0  0  0  0
  189.6120  177.5570  142.4940 C   0  0  2  0  0  3  0  0  0  0  0  0
  187.3490  178.0880  141.8470 N   0  0  0  0  0  0  0  0  0  0  0  0
  189.8100  177.3060  145.0120 C   0  0  1  0  0  3  0  0  0  0  0  0
  188.6860  177.6610  141.5340 C   0  0  0  0  0  3  0  0  0  0  0  0
  189.3240  178.1280  143.8660 C   0  0  2  0  0  3  0  0  0  0  0  0
  191.1280  177.3000  145.5390 N   0  0  0  0  0  2  0  0  0  0  0  0
  191.8150  175.4920  147.3660 Cl  0  0  0  0  0  0  0  0  0  0  0  0
  189.5160  176.9350  147.2890 C   0  0  0  0  0  2  0  0  0  0  0  0
  187.5900  177.7590  145.5940 C   0  0  0  0  0  2  0  0  0  0  0  0
  191.0220  177.0390  146.9750 C   0  0  2  0  0  3  0  0  0  0  0  0
  186.9230  178.2330  143.2110 C   0  0  1  0  0  3  0  0  0  0  0  0
  191.1970  177.2910  140.6940 N   0  0  0  0  0  1  0  0  0  0  0  0
  190.9990  177.1390  142.1250 C   0  0  0  0  0  2  0  0  0  0  0  0
  181.4120  179.0430  144.4110 C   0  0  0  0  0  2  0  0  0  0  0  0
  179.9010  180.8720  142.8370 O   0  0  0  0  0  0  0  0  0  0  0  0
  179.7910  179.6470  142.5750 C   0  0  0  0  0  0  0  0  0  0  0  0
  180.4640  178.6720  143.3720 N   0  0  0  0  0  2  0  0  0  0  0  0
  178.9350  179.2040  141.4280 C   0  0  0  0  0  2  0  0  0  0  0  0
  179.7310  178.6010  140.4350 O   0  0  0  0  0  0  0  0  0  0  0  0
  178.9820  177.6330  139.9380 O   0  0  0  0  0  0  0  0  0  0  0  0
  179.6890  176.4570  140.1910 C   0  0  0  0  0  2  0  0  0  0  0  0
  181.6100  175.2200  139.3210 C   0  0  0  0  0  2  0  0  0  0  0  0
  180.4250  174.6280  138.8530 O   0  0  0  0  0  0  0  0  0  0  0  0
  180.4380  176.0340  138.9400 C   0  0  1  0  0  3  0  0  0  0  0  0
  185.0520  178.9650  141.2750 O   0  0  0  0  0  0  0  0  0  0  0  0
  182.9970  178.5400  140.1210 C   0  0  0  0  0  1  0  0  0  0  0  0
  184.5150  178.4440  140.0870 C   0  0  1  0  0  3  0  0  0  0  0  0
  184.6450  180.3480  138.6680 O   0  0  0  0  0  0  0  0  0  0  0  0
  185.0510  179.1800  138.8900 C   0  0  0  0  0  0  0  0  0  0  0  0
  186.0480  178.6240  138.0290 N   0  0  0  0  0  2  0  0  0  0  0  0
  186.4510  177.2310  138.0730 C   0  0  0  0  0  2  0  0  0  0  0  0
  187.6090  177.0170  137.1220 C   0  0  2  0  0  3  0  0  0  0  0  0
  188.3330  175.4640  135.1630 C   0  0  2  0  0  3  0  0  0  0  0  0
  187.4290  175.6500  136.4100 C   0  0  1  0  0  3  0  0  0  0  0  0
  191.0260  174.1710  137.0480 C   0  0  0  0  0  1  0  0  0  0  0  0
  189.2190  178.6250  137.8930 O   0  0  0  0  0  1  0  0  0  0  0  0
  188.9360  177.2620  137.8580 C   0  0  2  0  0  3  0  0  0  0  0  0
  190.4310  176.8740  135.8130 C   0  0  0  0  0  2  0  0  0  0  0  0
  188.5930  174.6530  136.4480 C   0  0  2  0  0  0  0  0  0  0  0  0
  189.7920  175.0130  137.3530 C   0  0  2  0  0  3  0  0  0  0  0  0
  189.2330  176.6850  134.8750 C   0  0  0  0  0  2  0  0  0  0  0  0
  190.1150  176.4910  137.2670 C   0  0  2  0  0  3  0  0  0  0  0  0
  188.3690  172.5190  135.1050 C   0  0  0  0  0  1  0  0  0  0  0  0
  188.0600  173.2140  136.4220 C   0  0  0  0  0  3  0  0  0  0  0  0
  186.5690  173.1410  136.7310 C   0  0  0  0  0  1  0  0  0  0  0  0
  1  2  1  6  0  0  0
  2  4  1  0  0  0  0
  3 33  1  6  0  0  0
  3  5  1  0  0  0  0
  3  1  1  0  0  0  0
  5  6  1  0  0  0  0
  6 22  1  1  0  0  0
  6  4  1  0  0  0  0
  7 17  1  6  0  0  0
  8 17  1  1  0  0  0
  8 16  1  0  0  0  0
  9 21  1  6  0  0  0
  9 13  1  0  0  0  0
 10 19  1  0  0  0  0
 11 14  1  1  0  0  0
 11  8  1  0  0  0  0
 12 10  2  0  0  0  0
 12  9  1  0  0  0  0
 13  7  1  0  0  0  0
 13 11  1  0  0  0  0
 14 18  1  0  0  0  0
 18 16  1  0  0  0  0
 18 15  1  0  0  0  0
 19  1  1  0  0  0  0
 19  7  1  0  0  0  0
 20 21  1  0  0  0  0
 24 23  2  0  0  0  0
 24 25  1  0  0  0  0
 25 22  1  0  0  0  0
 26 24  1  0  0  0  0
 27 26  1  0  0  0  0
 28 29  1  0  0  0  0
 28 27  1  0  0  0  0
 31 32  1  0  0  0  0
 31 30  1  0  0  0  0
 32 30  1  0  0  0  0
 32 29  1  0  0  0  0
 35 34  1  0  0  0  0
 35 33  1  0  0  0  0
 36 37  2  0  0  0  0
 37 35  1  0  0  0  0
 38 39  1  0  0  0  0
 38 37  1  0  0  0  0
 40 45  1  0  0  0  0
 40 39  1  0  0  0  0
 41 42  1  0  0  0  0
 41 47  1  0  0  0  0
 42 47  1  0  0  0  0
 42 40  1  0  0  0  0
 43 48  1  0  0  0  0
 45 44  1  0  0  0  0
 46 50  1  0  0  0  0
 47 48  1  0  0  0  0
 49 41  1  0  0  0  0
 49 46  1  0  0  0  0
 50 48  1  0  0  0  0
 50 45  1  0  0  0  0
 51 52  1  0  0  0  0
 52 47  1  0  0  0  0
 52 53  1  0  0  0  0
M  END
>  <MODEL>
7

>  <REMARK>
 VINA RESULT:      -7.7      2.965      8.827
  Name = 
  15 active torsions:
  status: ('A' for Active; 'I' for Inactive)
    1  A    between atoms: C_2  and  C_32
    2  A    between atoms: C_3  and  C_53
    3  A    between atoms: C_7  and  C_13
    4  A    between atoms: C_7  and  O_40
    5  A    between atoms: C_12  and  C_23
    6  A    between atoms: C_18  and  O_35
    7  A    between atoms: C_21  and  C_38
    8  A    between atoms: C_32  and  N_44
    9  A    between atoms: C_34  and  N_47
   10  A    between atoms: C_34  and  C_51
   11  A    between atoms: O_35  and  C_37
   12  A    between atoms: C_36  and  C_37
   13  A    between atoms: O_39  and  O_40
   14  A    between atoms: O_39  and  C_41
   15  A    between atoms: C_41  and  C_43
                            x       y       z     vdW  Elec       q    Type
                         _______ _______ _______ _____ _____    ______ ____

>  <TORSDO>
F 15

$$$$
=
 OpenBabel11032420343D

 53 60  0  0  1  0  0  0  0  0999 V2000
  185.1760  178.1170  143.5560 C   0  0  1  0  0  3  0  0  0  0  0  0
  184.8660  179.2820  144.3840 N   0  0  0  0  0  2  0  0  0  0  0  0
  184.2760  178.0980  142.3050 C   0  0  1  0  0  3  0  0  0  0  0  0
  183.5750  179.0480  145.0430 C   0  0  0  0  0  2  0  0  0  0  0  0
  182.8830  178.6820  142.6130 C   0  0  0  0  0  2  0  0  0  0  0  0
  182.4940  178.5000  144.0770 C   0  0  2  0  0  3  0  0  0  0  0  0
  187.5600  178.0410  144.2220 C   0  0  2  0  0  3  0  0  0  0  0  0
  188.5450  177.1240  146.0930 C   0  0  1  0  0  3  0  0  0  0  0  0
  189.3140  177.2050  142.6400 C   0  0  2  0  0  3  0  0  0  0  0  0
  187.0830  177.7630  141.9110 N   0  0  0  0  0  0  0  0  0  0  0  0
  189.4720  177.1830  145.1730 C   0  0  1  0  0  3  0  0  0  0  0  0
  188.4040  177.2560  141.6590 C   0  0  0  0  0  3  0  0  0  0  0  0
  189.0330  177.9130  143.9480 C   0  0  2  0  0  3  0  0  0  0  0  0
  190.7810  177.1740  145.7190 N   0  0  0  0  0  2  0  0  0  0  0  0
  191.3730  175.5190  147.7160 Cl  0  0  0  0  0  0  0  0  0  0  0  0
  189.1350  177.0380  147.4690 C   0  0  0  0  0  2  0  0  0  0  0  0
  187.2640  177.7750  145.6750 C   0  0  0  0  0  2  0  0  0  0  0  0
  190.6480  177.0530  147.1710 C   0  0  2  0  0  3  0  0  0  0  0  0
  186.6470  178.0510  143.2480 C   0  0  1  0  0  3  0  0  0  0  0  0
  191.5760  177.8170  142.0620 N   0  0  0  0  0  1  0  0  0  0  0  0
  190.6870  176.7000  142.3320 C   0  0  0  0  0  2  0  0  0  0  0  0
  181.1730  179.1920  144.3460 C   0  0  0  0  0  2  0  0  0  0  0  0
  179.1700  177.9140  142.7780 O   0  0  0  0  0  0  0  0  0  0  0  0
  179.5730  179.0430  142.4000 C   0  0  0  0  0  0  0  0  0  0  0  0
  180.6280  179.7070  143.1000 N   0  0  0  0  0  2  0  0  0  0  0  0
  178.9560  179.6920  141.2000 C   0  0  0  0  0  2  0  0  0  0  0  0
  179.7280  180.7990  140.7980 O   0  0  0  0  0  0  0  0  0  0  0  0
  179.8480  180.6750  139.4880 O   0  0  0  0  0  0  0  0  0  0  0  0
  179.9320  181.9800  139.0030 C   0  0  0  0  0  2  0  0  0  0  0  0
  180.7850  183.3610  137.1740 C   0  0  0  0  0  2  0  0  0  0  0  0
  181.8590  182.9310  137.9720 O   0  0  0  0  0  0  0  0  0  0  0  0
  180.8140  182.0080  137.7680 C   0  0  1  0  0  3  0  0  0  0  0  0
  184.8480  178.8460  141.2690 O   0  0  0  0  0  0  0  0  0  0  0  0
  182.7700  178.8230  140.0770 C   0  0  0  0  0  1  0  0  0  0  0  0
  184.2310  178.3960  140.0910 C   0  0  1  0  0  3  0  0  0  0  0  0
  185.0750  180.1770  138.7620 O   0  0  0  0  0  0  0  0  0  0  0  0
  184.9360  178.9340  138.8770 C   0  0  0  0  0  0  0  0  0  0  0  0
  185.5090  178.0830  137.8810 N   0  0  0  0  0  2  0  0  0  0  0  0
  185.2540  176.6570  137.8100 C   0  0  0  0  0  2  0  0  0  0  0  0
  186.3400  175.9970  136.9880 C   0  0  2  0  0  3  0  0  0  0  0  0
  188.8380  175.2880  137.1650 C   0  0  2  0  0  3  0  0  0  0  0  0
  187.7050  176.2060  137.6960 C   0  0  1  0  0  3  0  0  0  0  0  0
  189.7680  177.5560  134.6220 C   0  0  0  0  0  1  0  0  0  0  0  0
  185.2670  175.6880  134.8610 O   0  0  0  0  0  1  0  0  0  0  0  0
  186.2270  176.4480  135.5230 C   0  0  2  0  0  3  0  0  0  0  0  0
  188.1540  174.9920  134.6650 C   0  0  0  0  0  2  0  0  0  0  0  0
  188.8600  176.8040  136.8850 C   0  0  2  0  0  0  0  0  0  0  0  0
  188.5220  177.3280  135.4720 C   0  0  2  0  0  3  0  0  0  0  0  0
  188.3780  174.3430  136.0350 C   0  0  0  0  0  2  0  0  0  0  0  0
  187.5530  176.4020  134.7650 C   0  0  2  0  0  3  0  0  0  0  0  0
  190.6530  176.7200  138.6700 C   0  0  0  0  0  1  0  0  0  0  0  0
  189.7850  177.6170  137.8010 C   0  0  0  0  0  3  0  0  0  0  0  0
  189.0210  178.6190  138.6580 C   0  0  0  0  0  1  0  0  0  0  0  0
  1  2  1  6  0  0  0
  2  4  1  0  0  0  0
  3 33  1  6  0  0  0
  3  5  1  0  0  0  0
  3  1  1  0  0  0  0
  5  6  1  0  0  0  0
  6 22  1  6  0  0  0
  6  4  1  0  0  0  0
  7 17  1  1  0  0  0
  8 17  1  1  0  0  0
  8 16  1  0  0  0  0
  9 21  1  6  0  0  0
  9 13  1  0  0  0  0
 10 19  1  0  0  0  0
 11 14  1  1  0  0  0
 11  8  1  0  0  0  0
 12 10  2  0  0  0  0
 12  9  1  0  0  0  0
 13  7  1  0  0  0  0
 13 11  1  0  0  0  0
 14 18  1  0  0  0  0
 18 16  1  0  0  0  0
 18 15  1  0  0  0  0
 19  1  1  0  0  0  0
 19  7  1  0  0  0  0
 20 21  1  0  0  0  0
 24 23  2  0  0  0  0
 24 25  1  0  0  0  0
 25 22  1  0  0  0  0
 26 24  1  0  0  0  0
 27 26  1  0  0  0  0
 28 27  1  0  0  0  0
 29 28  1  0  0  0  0
 30 32  1  0  0  0  0
 30 31  1  0  0  0  0
 32 31  1  0  0  0  0
 32 29  1  0  0  0  0
 34 35  1  0  0  0  0
 35 33  1  0  0  0  0
 36 37  2  0  0  0  0
 37 35  1  0  0  0  0
 38 37  1  0  0  0  0
 39 38  1  0  0  0  0
 40 42  1  0  0  0  0
 40 39  1  0  0  0  0
 41 42  1  0  0  0  0
 43 48  1  0  0  0  0
 44 45  1  0  0  0  0
 45 40  1  0  0  0  0
 46 50  1  0  0  0  0
 46 49  1  0  0  0  0
 47 41  1  0  0  0  0
 47 42  1  0  0  0  0
 47 52  1  0  0  0  0
 48 47  1  0  0  0  0
 49 41  1  0  0  0  0
 50 48  1  0  0  0  0
 50 45  1  0  0  0  0
 52 53  1  0  0  0  0
 52 51  1  0  0  0  0
M  END
>  <MODEL>
8

>  <REMARK>
 VINA RESULT:      -7.6      3.687      8.976
  Name = 
  15 active torsions:
  status: ('A' for Active; 'I' for Inactive)
    1  A    between atoms: C_2  and  C_32
    2  A    between atoms: C_3  and  C_53
    3  A    between atoms: C_7  and  C_13
    4  A    between atoms: C_7  and  O_40
    5  A    between atoms: C_12  and  C_23
    6  A    between atoms: C_18  and  O_35
    7  A    between atoms: C_21  and  C_38
    8  A    between atoms: C_32  and  N_44
    9  A    between atoms: C_34  and  N_47
   10  A    between atoms: C_34  and  C_51
   11  A    between atoms: O_35  and  C_37
   12  A    between atoms: C_36  and  C_37
   13  A    between atoms: O_39  and  O_40
   14  A    between atoms: O_39  and  C_41
   15  A    between atoms: C_41  and  C_43
                            x       y       z     vdW  Elec       q    Type
                         _______ _______ _______ _____ _____    ______ ____

>  <TORSDO>
F 15

$$$$
=
 OpenBabel11032420343D

 53 60  0  0  1  0  0  0  0  0999 V2000
  186.3230  178.6650  141.3720 C   0  0  1  0  0  3  0  0  0  0  0  0
  186.3780  177.4970  142.2510 N   0  0  0  0  0  2  0  0  0  0  0  0
  187.4900  178.6300  140.3670 C   0  0  1  0  0  3  0  0  0  0  0  0
  187.4880  177.6810  143.1940 C   0  0  0  0  0  2  0  0  0  0  0  0
  188.7440  177.9890  140.9920 C   0  0  0  0  0  2  0  0  0  0  0  0
  188.7890  178.1700  142.5070 C   0  0  2  0  0  3  0  0  0  0  0  0
  183.8530  178.4930  141.3970 C   0  0  2  0  0  3  0  0  0  0  0  0
  182.3660  178.7900  143.1320 C   0  0  1  0  0  3  0  0  0  0  0  0
  182.4580  179.7290  139.7220 C   0  0  2  0  0  3  0  0  0  0  0  0
  184.8420  179.4570  139.4630 N   0  0  0  0  0  0  0  0  0  0  0  0
  181.6970  178.9910  142.0280 C   0  0  1  0  0  3  0  0  0  0  0  0
  183.5770  179.9910  139.0350 C   0  0  0  0  0  3  0  0  0  0  0  0
  182.4830  178.6690  140.8010 C   0  0  2  0  0  3  0  0  0  0  0  0
  180.2990  178.8120  142.1980 N   0  0  0  0  0  2  0  0  0  0  0  0
  179.0930  179.7840  144.3600 Cl  0  0  0  0  0  0  0  0  0  0  0  0
  181.4580  178.4510  144.2760 C   0  0  0  0  0  2  0  0  0  0  0  0
  183.7650  178.3180  142.8900 C   0  0  0  0  0  2  0  0  0  0  0  0
  180.0690  178.4970  143.6080 C   0  0  2  0  0  3  0  0  0  0  0  0
  184.9700  178.7910  140.7280 C   0  0  1  0  0  3  0  0  0  0  0  0
  181.0400  180.0580  137.7970 N   0  0  0  0  0  1  0  0  0  0  0  0
  181.1570  180.2760  139.2280 C   0  0  0  0  0  2  0  0  0  0  0  0
  189.9780  177.4240  143.0780 C   0  0  0  0  0  2  0  0  0  0  0  0
  191.5720  177.8130  145.4040 O   0  0  0  0  0  0  0  0  0  0  0  0
  190.4700  177.2240  145.5440 C   0  0  0  0  0  0  0  0  0  0  0  0
  189.6540  176.9330  144.4080 N   0  0  0  0  0  2  0  0  0  0  0  0
  190.0130  176.8120  146.9100 C   0  0  0  0  0  2  0  0  0  0  0  0
  189.2430  177.8370  147.4930 O   0  0  0  0  0  0  0  0  0  0  0  0
  188.1300  177.8760  146.7810 O   0  0  0  0  0  0  0  0  0  0  0  0
  187.1250  178.2000  147.6920 C   0  0  0  0  0  2  0  0  0  0  0  0
  185.2920  178.2840  146.0750 C   0  0  0  0  0  2  0  0  0  0  0  0
  184.8060  178.6260  147.3480 O   0  0  0  0  0  0  0  0  0  0  0  0
  186.0950  179.0890  147.0190 C   0  0  1  0  0  3  0  0  0  0  0  0
  187.1430  177.8950  139.2260 O   0  0  0  0  0  0  0  0  0  0  0  0
  187.9680  176.0680  137.9170 C   0  0  0  0  0  1  0  0  0  0  0  0
  188.3160  177.2330  138.8310 C   0  0  1  0  0  3  0  0  0  0  0  0
  188.7780  179.2050  137.5870 O   0  0  0  0  0  0  0  0  0  0  0  0
  189.2530  178.1760  138.1280 C   0  0  0  0  0  0  0  0  0  0  0  0
  190.6690  177.9790  138.1060 N   0  0  0  0  0  2  0  0  0  0  0  0
  191.3070  176.7470  138.5290 C   0  0  0  0  0  2  0  0  0  0  0  0
  192.1530  176.2090  137.3960 C   0  0  2  0  0  3  0  0  0  0  0  0
  191.9420  175.4790  134.9060 C   0  0  2  0  0  3  0  0  0  0  0  0
  191.2190  175.7180  136.2580 C   0  0  1  0  0  3  0  0  0  0  0  0
  192.7840  172.1430  135.7060 C   0  0  0  0  0  1  0  0  0  0  0  0
  194.2890  175.8880  138.4490 O   0  0  0  0  0  1  0  0  0  0  0  0
  193.1820  175.2090  137.9470 C   0  0  2  0  0  3  0  0  0  0  0  0
  194.3210  174.7550  135.6970 C   0  0  0  0  0  2  0  0  0  0  0  0
  191.4060  174.2910  135.7300 C   0  0  2  0  0  0  0  0  0  0  0  0
  192.3920  173.3850  136.5000 C   0  0  2  0  0  3  0  0  0  0  0  0
  193.4540  175.7830  134.9610 C   0  0  0  0  0  2  0  0  0  0  0  0
  193.6220  174.1590  136.9280 C   0  0  2  0  0  3  0  0  0  0  0  0
  189.1990  174.7910  134.5960 C   0  0  0  0  0  1  0  0  0  0  0  0
  190.0640  173.7240  135.2480 C   0  0  0  0  0  3  0  0  0  0  0  0
  189.2980  173.0160  136.3610 C   0  0  0  0  0  1  0  0  0  0  0  0
  1  2  1  6  0  0  0
  2  4  1  0  0  0  0
  3 33  1  6  0  0  0
  3  5  1  0  0  0  0
  3  1  1  0  0  0  0
  5  6  1  0  0  0  0
  6 22  1  1  0  0  0
  6  4  1  0  0  0  0
  7 17  1  1  0  0  0
  8 17  1  6  0  0  0
  8 16  1  0  0  0  0
  9 21  1  6  0  0  0
  9 13  1  0  0  0  0
 10 19  1  0  0  0  0
 11 14  1  1  0  0  0
 11  8  1  0  0  0  0
 12 10  2  0  0  0  0
 12  9  1  0  0  0  0
 13  7  1  0  0  0  0
 13 11  1  0  0  0  0
 14 18  1  0  0  0  0
 18 16  1  0  0  0  0
 18 15  1  0  0  0  0
 19  1  1  0  0  0  0
 19  7  1  0  0  0  0
 20 21  1  0  0  0  0
 22 25  1  0  0  0  0
 23 24  2  0  0  0  0
 24 26  1  0  0  0  0
 25 24  1  0  0  0  0
 26 27  1  0  0  0  0
 28 27  1  0  0  0  0
 28 29  1  0  0  0  0
 30 32  1  0  0  0  0
 30 31  1  0  0  0  0
 32 31  1  0  0  0  0
 32 29  1  0  0  0  0
 34 35  1  0  0  0  0
 35 33  1  0  0  0  0
 36 37  2  0  0  0  0
 37 35  1  0  0  0  0
 38 37  1  0  0  0  0
 38 39  1  0  0  0  0
 40 45  1  0  0  0  0
 40 39  1  0  0  0  0
 41 49  1  0  0  0  0
 41 47  1  0  0  0  0
 41 42  1  0  0  0  0
 42 40  1  0  0  0  0
 43 48  1  0  0  0  0
 45 44  1  0  0  0  0
 46 50  1  0  0  0  0
 47 42  1  0  0  0  0
 47 48  1  0  0  0  0
 48 50  1  0  0  0  0
 49 46  1  0  0  0  0
 50 45  1  0  0  0  0
 51 52  1  0  0  0  0
 52 47  1  0  0  0  0
 52 53  1  0  0  0  0
M  END
>  <MODEL>
9

>  <REMARK>
 VINA RESULT:      -7.3      3.275      8.884
  Name = 
  15 active torsions:
  status: ('A' for Active; 'I' for Inactive)
    1  A    between atoms: C_2  and  C_32
    2  A    between atoms: C_3  and  C_53
    3  A    between atoms: C_7  and  C_13
    4  A    between atoms: C_7  and  O_40
    5  A    between atoms: C_12  and  C_23
    6  A    between atoms: C_18  and  O_35
    7  A    between atoms: C_21  and  C_38
    8  A    between atoms: C_32  and  N_44
    9  A    between atoms: C_34  and  N_47
   10  A    between atoms: C_34  and  C_51
   11  A    between atoms: O_35  and  C_37
   12  A    between atoms: C_36  and  C_37
   13  A    between atoms: O_39  and  O_40
   14  A    between atoms: O_39  and  C_41
   15  A    between atoms: C_41  and  C_43
                            x       y       z     vdW  Elec       q    Type
                         _______ _______ _______ _____ _____    ______ ____

>  <TORSDO>
F 15

$$$$
