=
 OpenBabel11042409503D

 33 38  0  0  1  0  0  0  0  0999 V2000
  188.6600  178.8720  140.1060 N   0  0  0  0  0  2  0  0  0  0  0  0
  189.9850  176.4400  144.4980 C   0  0  0  0  0  0  0  0  0  0  0  0
  188.0210  179.2610  136.7220 C   0  0  0  0  0  2  0  0  0  0  0  0
  190.2480  178.9440  144.3930 C   0  0  0  0  0  0  0  0  0  0  0  0
  189.0190  178.3270  138.8330 C   0  0  0  0  0  0  0  0  0  0  0  0
  188.3700  177.9100  143.0490 C   0  0  2  0  0  3  0  0  0  0  0  0
  191.2820  179.6720  143.9860 C   0  0  0  0  0  2  0  0  0  0  0  0
  187.6640  178.4790  135.7080 C   0  0  0  0  0  3  0  0  0  0  0  0
  188.9530  177.1160  141.9190 C   0  0  0  0  0  0  0  0  0  0  0  0
  189.9350  176.1880  137.2960 N   0  0  0  0  0  0  0  0  0  0  0  0
  189.3940  177.1790  139.3760 C   0  0  0  0  0  0  0  0  0  0  0  0
  189.9520  176.0660  138.6030 C   0  0  0  0  0  3  0  0  0  0  0  0
  188.9940  177.6300  140.6940 C   0  0  0  0  0  0  0  0  0  0  0  0
  189.3890  175.7000  142.1650 C   0  0  0  0  0  2  0  0  0  0  0  0
  189.2130  178.6850  137.4020 C   0  0  1  0  0  3  0  0  0  0  0  0
  188.4940  177.2770  135.6880 C   0  0  0  0  0  3  0  0  0  0  0  0
  189.3780  177.3740  136.6640 C   0  0  2  0  0  3  0  0  0  0  0  0
  189.2930  177.7610  144.2600 C   0  0  1  0  0  0  0  0  0  0  0  0
  189.1020  178.6430  145.3680 C   0  0  0  0  0  2  0  0  0  0  0  0
  190.0440  175.5290  143.5130 C   0  0  0  0  0  3  0  0  0  0  0  0
  185.9570  178.5020  143.1460 C   0  0  2  0  0  3  0  0  0  0  0  0
  186.9710  177.3960  143.3740 C   0  0  2  0  0  3  0  0  0  0  0  0
  186.3960  178.1550  144.5520 C   0  0  0  0  0  2  0  0  0  0  0  0
  184.6320  177.8750  142.8660 C   0  0  0  0  0  3  0  0  0  0  0  0
  184.0080  177.9310  141.6870 C   0  0  0  0  0  3  0  0  0  0  0  0
  184.1200  178.1860  139.2920 C   0  0  0  0  0  2  0  0  0  0  0  0
  185.2960  179.7590  140.5630 O   0  0  0  0  0  1  0  0  0  0  0  0
  184.4890  178.6300  140.4830 C   0  0  0  0  0  0  0  0  0  0  0  0
  190.5890  176.1990  145.7390 O   0  0  0  0  0  0  0  0  0  0  0  0
  191.9940  176.0540  145.9040 C   0  0  0  0  0  2  0  0  0  0  0  0
  193.1290  175.3030  147.8580 O   0  0  0  0  0  0  0  0  0  0  0  0
  192.3360  176.1390  147.3490 C   0  0  0  0  0  0  0  0  0  0  0  0
  191.8110  177.1630  148.1280 O   0  0  0  0  0  1  0  0  0  0  0  0
  1 13  1  0  0  0  0
  2 29  1  0  0  0  0
  4 19  1  0  0  0  0
  5 11  2  0  0  0  0
  5  1  1  0  0  0  0
  6  9  1  6  0  0  0
  6 22  1  0  0  0  0
  6 18  1  0  0  0  0
  7  4  2  0  0  0  0
  8  3  1  0  0  0  0
  9 14  1  0  0  0  0
 10 12  2  0  0  0  0
 11 13  1  0  0  0  0
 12 11  1  0  0  0  0
 13  9  2  0  0  0  0
 14 20  1  0  0  0  0
 15  3  1  6  0  0  0
 15  5  1  0  0  0  0
 16  8  2  0  0  0  0
 17 16  1  1  0  0  0
 17 10  1  0  0  0  0
 17 15  1  0  0  0  0
 18  4  1  0  0  0  0
 18  2  1  0  0  0  0
 18 19  1  1  0  0  0
 20  2  2  0  0  0  0
 21 24  1  1  0  0  0
 21 22  1  0  0  0  0
 21 23  1  0  0  0  0
 22 23  1  1  0  0  0
 25 24  2  0  0  0  0
 26 28  2  0  0  0  0
 28 27  1  0  0  0  0
 28 25  1  0  0  0  0
 29 30  1  0  0  0  0
 30 32  1  0  0  0  0
 32 31  2  0  0  0  0
 32 33  1  0  0  0  0
M  END
>  <MODEL>
1

>  <REMARK>
 VINA RESULT:      -7.3      0.000      0.000
  Name = 
  6 active torsions:
  status: ('A' for Active; 'I' for Inactive)
    1  A    between atoms: C_2  and  O_19
    2  A    between atoms: C_4  and  C_7
    3  A    between atoms: C_9  and  C_12
    4  A    between atoms: C_11  and  C_25
    5  A    between atoms: O_19  and  C_25
    6  A    between atoms: C_24  and  C_28
                            x       y       z     vdW  Elec       q    Type
                         _______ _______ _______ _____ _____    ______ ____

>  <TORSDO>
F 6

$$$$
=
 OpenBabel11042409503D

 33 38  0  0  1  0  0  0  0  0999 V2000
  189.0560  178.7130  140.2180 N   0  0  0  0  0  2  0  0  0  0  0  0
  190.9660  176.3910  144.4510 C   0  0  0  0  0  0  0  0  0  0  0  0
  188.0750  179.0500  136.9110 C   0  0  0  0  0  2  0  0  0  0  0  0
  191.0280  178.9070  144.3380 C   0  0  0  0  0  0  0  0  0  0  0  0
  189.3340  178.1960  138.9130 C   0  0  0  0  0  0  0  0  0  0  0  0
  189.1160  177.7340  143.1690 C   0  0  2  0  0  3  0  0  0  0  0  0
  191.9610  179.7120  143.8410 C   0  0  0  0  0  2  0  0  0  0  0  0
  187.6850  178.2420  135.9300 C   0  0  0  0  0  3  0  0  0  0  0  0
  189.6490  176.9850  141.9840 C   0  0  0  0  0  0  0  0  0  0  0  0
  190.2620  176.1320  137.2840 N   0  0  0  0  0  0  0  0  0  0  0  0
  189.8440  177.0800  139.4110 C   0  0  0  0  0  0  0  0  0  0  0  0
  190.4090  176.0120  138.5830 C   0  0  0  0  0  3  0  0  0  0  0  0
  189.5360  177.5000  140.7640 C   0  0  0  0  0  0  0  0  0  0  0  0
  190.2120  175.6060  142.1790 C   0  0  0  0  0  2  0  0  0  0  0  0
  189.3660  178.5670  137.4720 C   0  0  1  0  0  3  0  0  0  0  0  0
  188.5980  177.1070  135.8240 C   0  0  0  0  0  3  0  0  0  0  0  0
  189.5600  177.2710  136.7140 C   0  0  2  0  0  3  0  0  0  0  0  0
  190.1570  177.6550  144.2870 C   0  0  1  0  0  0  0  0  0  0  0  0
  190.0050  178.5210  145.4140 C   0  0  0  0  0  2  0  0  0  0  0  0
  191.0010  175.4860  143.4580 C   0  0  0  0  0  3  0  0  0  0  0  0
  186.7130  178.1780  143.6320 C   0  0  2  0  0  3  0  0  0  0  0  0
  187.7970  177.1140  143.6200 C   0  0  2  0  0  3  0  0  0  0  0  0
  187.3520  177.7310  144.9300 C   0  0  0  0  0  2  0  0  0  0  0  0
  185.3920  177.5060  143.4650 C   0  0  0  0  0  3  0  0  0  0  0  0
  184.2500  177.9520  143.9940 C   0  0  0  0  0  3  0  0  0  0  0  0
  183.8200  180.3090  144.2730 C   0  0  0  0  0  2  0  0  0  0  0  0
  184.2030  179.0810  146.2280 O   0  0  0  0  0  1  0  0  0  0  0  0
  184.0960  179.1460  144.8440 C   0  0  0  0  0  0  0  0  0  0  0  0
  191.7000  176.1970  145.6290 O   0  0  0  0  0  0  0  0  0  0  0  0
  191.1140  176.2280  146.9240 C   0  0  0  0  0  2  0  0  0  0  0  0
  193.0500  175.4370  148.0630 O   0  0  0  0  0  0  0  0  0  0  0  0
  192.1830  176.3440  147.9510 C   0  0  0  0  0  0  0  0  0  0  0  0
  192.2480  177.4720  148.7610 O   0  0  0  0  0  1  0  0  0  0  0  0
  1 13  1  0  0  0  0
  2 29  1  0  0  0  0
  4 19  1  0  0  0  0
  5 11  2  0  0  0  0
  5  1  1  0  0  0  0
  6  9  1  6  0  0  0
  6 22  1  0  0  0  0
  6 18  1  0  0  0  0
  7  4  2  0  0  0  0
  8  3  1  0  0  0  0
  9 14  1  0  0  0  0
 10 12  2  0  0  0  0
 11 13  1  0  0  0  0
 12 11  1  0  0  0  0
 13  9  2  0  0  0  0
 14 20  1  0  0  0  0
 15  3  1  6  0  0  0
 15  5  1  0  0  0  0
 16  8  2  0  0  0  0
 17 16  1  1  0  0  0
 17 10  1  0  0  0  0
 17 15  1  0  0  0  0
 18  4  1  0  0  0  0
 18  2  1  0  0  0  0
 18 19  1  1  0  0  0
 20  2  2  0  0  0  0
 21 24  1  1  0  0  0
 21 23  1  0  0  0  0
 22 21  1  0  0  0  0
 22 23  1  1  0  0  0
 24 25  2  0  0  0  0
 25 28  1  0  0  0  0
 26 28  2  0  0  0  0
 28 27  1  0  0  0  0
 29 30  1  0  0  0  0
 30 32  1  0  0  0  0
 32 31  2  0  0  0  0
 32 33  1  0  0  0  0
M  END
>  <MODEL>
2

>  <REMARK>
 VINA RESULT:      -6.7      1.608      1.777
  Name = 
  6 active torsions:
  status: ('A' for Active; 'I' for Inactive)
    1  A    between atoms: C_2  and  O_19
    2  A    between atoms: C_4  and  C_7
    3  A    between atoms: C_9  and  C_12
    4  A    between atoms: C_11  and  C_25
    5  A    between atoms: O_19  and  C_25
    6  A    between atoms: C_24  and  C_28
                            x       y       z     vdW  Elec       q    Type
                         _______ _______ _______ _____ _____    ______ ____

>  <TORSDO>
F 6

$$$$
=
 OpenBabel11042409503D

 33 38  0  0  1  0  0  0  0  0999 V2000
  185.7700  178.3980  137.5050 N   0  0  0  0  0  2  0  0  0  0  0  0
  181.8840  178.9810  140.9000 C   0  0  0  0  0  0  0  0  0  0  0  0
  188.9730  177.6930  136.3860 C   0  0  0  0  0  2  0  0  0  0  0  0
  181.7580  180.2280  138.7150 C   0  0  0  0  0  0  0  0  0  0  0  0
  187.1310  178.3980  137.9460 C   0  0  0  0  0  0  0  0  0  0  0  0
  182.9340  177.9880  138.7130 C   0  0  2  0  0  3  0  0  0  0  0  0
  182.2240  181.4310  138.3960 C   0  0  0  0  0  2  0  0  0  0  0  0
  190.0060  176.9670  136.8020 C   0  0  0  0  0  3  0  0  0  0  0  0
  184.2110  178.1020  139.4900 C   0  0  0  0  0  0  0  0  0  0  0  0
  188.9970  178.2360  140.0110 N   0  0  0  0  0  0  0  0  0  0  0  0
  186.7690  178.3180  139.2180 C   0  0  0  0  0  0  0  0  0  0  0  0
  187.7250  178.3100  140.3280 C   0  0  0  0  0  3  0  0  0  0  0  0
  185.3690  178.2470  138.8520 C   0  0  0  0  0  0  0  0  0  0  0  0
  184.1790  177.9440  140.9830 C   0  0  0  0  0  2  0  0  0  0  0  0
  188.5290  178.6020  137.4780 C   0  0  1  0  0  3  0  0  0  0  0  0
  190.2670  177.2330  138.2150 C   0  0  0  0  0  3  0  0  0  0  0  0
  189.4170  178.1580  138.6210 C   0  0  2  0  0  3  0  0  0  0  0  0
  181.8840  178.8680  139.3940 C   0  0  1  0  0  0  0  0  0  0  0  0
  180.6720  179.1440  138.6890 C   0  0  0  0  0  2  0  0  0  0  0  0
  182.9600  178.5830  141.6000 C   0  0  0  0  0  3  0  0  0  0  0  0
  182.9820  175.8670  137.4160 C   0  0  2  0  0  3  0  0  0  0  0  0
  182.4760  176.5330  138.6830 C   0  0  2  0  0  3  0  0  0  0  0  0
  181.5370  176.3050  137.5170 C   0  0  0  0  0  2  0  0  0  0  0  0
  183.0790  174.3990  137.6620 C   0  0  0  0  0  3  0  0  0  0  0  0
  184.0960  173.6340  137.2580 C   0  0  0  0  0  3  0  0  0  0  0  0
  186.3100  174.5820  137.1330 C   0  0  0  0  0  2  0  0  0  0  0  0
  185.3190  173.9790  135.1010 O   0  0  0  0  0  1  0  0  0  0  0  0
  185.2670  174.0860  136.4860 C   0  0  0  0  0  0  0  0  0  0  0  0
  180.7710  179.5360  141.5450 O   0  0  0  0  0  0  0  0  0  0  0  0
  180.6130  179.5410  142.9580 C   0  0  0  0  0  2  0  0  0  0  0  0
  179.2570  178.3890  144.5400 O   0  0  0  0  0  1  0  0  0  0  0  0
  179.6940  178.4440  143.3600 C   0  0  0  0  0  0  0  0  0  0  0  0
  179.2860  177.5010  142.4230 O   0  0  0  0  0  0  0  0  0  0  0  0
  1  5  1  0  0  0  0
  1 13  1  0  0  0  0
  2 29  1  0  0  0  0
  2 20  2  0  0  0  0
  3  8  1  0  0  0  0
  4 18  1  0  0  0  0
  5 11  2  0  0  0  0
  6 18  1  0  0  0  0
  6  9  1  1  0  0  0
  7  4  2  0  0  0  0
  8 16  2  0  0  0  0
  9 14  1  0  0  0  0
 10 12  2  0  0  0  0
 11 12  1  0  0  0  0
 13 11  1  0  0  0  0
 13  9  2  0  0  0  0
 14 20  1  0  0  0  0
 15  3  1  6  0  0  0
 15  5  1  0  0  0  0
 15 17  1  0  0  0  0
 17 16  1  6  0  0  0
 17 10  1  0  0  0  0
 18 19  1  6  0  0  0
 18  2  1  0  0  0  0
 19  4  1  0  0  0  0
 21 23  1  0  0  0  0
 21 24  1  1  0  0  0
 21 22  1  0  0  0  0
 22 23  1  6  0  0  0
 22  6  1  0  0  0  0
 25 24  2  0  0  0  0
 27 28  1  0  0  0  0
 28 26  2  0  0  0  0
 28 25  1  0  0  0  0
 29 30  1  0  0  0  0
 30 32  1  0  0  0  0
 32 31  1  0  0  0  0
 33 32  2  0  0  0  0
M  END
>  <MODEL>
3

>  <REMARK>
 VINA RESULT:      -6.5      5.211      7.794
  Name = 
  6 active torsions:
  status: ('A' for Active; 'I' for Inactive)
    1  A    between atoms: C_2  and  O_19
    2  A    between atoms: C_4  and  C_7
    3  A    between atoms: C_9  and  C_12
    4  A    between atoms: C_11  and  C_25
    5  A    between atoms: O_19  and  C_25
    6  A    between atoms: C_24  and  C_28
                            x       y       z     vdW  Elec       q    Type
                         _______ _______ _______ _____ _____    ______ ____

>  <TORSDO>
F 6

$$$$
=
 OpenBabel11042409503D

 33 38  0  0  1  0  0  0  0  0999 V2000
  184.8330  178.6700  141.6490 N   0  0  0  0  0  2  0  0  0  0  0  0
  180.1410  179.7660  139.7130 C   0  0  0  0  0  0  0  0  0  0  0  0
  187.1970  177.7960  144.0280 C   0  0  0  0  0  2  0  0  0  0  0  0
  182.1670  180.6710  138.5200 C   0  0  0  0  0  0  0  0  0  0  0  0
  185.0730  178.7320  143.0580 C   0  0  0  0  0  0  0  0  0  0  0  0
  182.4090  178.4530  139.7120 C   0  0  2  0  0  3  0  0  0  0  0  0
  182.8230  181.8110  138.7070 C   0  0  0  0  0  2  0  0  0  0  0  0
  187.2110  177.1370  145.1830 C   0  0  0  0  0  3  0  0  0  0  0  0
  182.3330  178.6790  141.1920 C   0  0  0  0  0  0  0  0  0  0  0  0
  184.1020  178.8770  145.6680 N   0  0  0  0  0  0  0  0  0  0  0  0
  183.7810  178.8450  143.3240 C   0  0  0  0  0  0  0  0  0  0  0  0
  183.2470  179.0010  144.6790 C   0  0  0  0  0  3  0  0  0  0  0  0
  183.4460  178.7230  141.9190 C   0  0  0  0  0  0  0  0  0  0  0  0
  180.9880  178.7470  141.8560 C   0  0  0  0  0  2  0  0  0  0  0  0
  186.1560  178.8590  144.0720 C   0  0  1  0  0  3  0  0  0  0  0  0
  186.1280  177.6120  146.0420 C   0  0  0  0  0  3  0  0  0  0  0  0
  185.5040  178.5900  145.4110 C   0  0  2  0  0  3  0  0  0  0  0  0
  181.4460  179.4280  139.0330 C   0  0  1  0  0  0  0  0  0  0  0  0
  181.5430  179.5980  137.6170 C   0  0  0  0  0  2  0  0  0  0  0  0
  179.9700  179.4750  141.0140 C   0  0  0  0  0  3  0  0  0  0  0  0
  182.9630  176.4650  138.3250 C   0  0  2  0  0  3  0  0  0  0  0  0
  182.0290  177.0110  139.3900 C   0  0  2  0  0  3  0  0  0  0  0  0
  181.5620  176.9030  137.9530 C   0  0  0  0  0  2  0  0  0  0  0  0
  183.0060  174.9790  138.4530 C   0  0  0  0  0  3  0  0  0  0  0  0
  183.8310  174.1890  137.7640 C   0  0  0  0  0  3  0  0  0  0  0  0
  186.0690  174.8080  137.1120 C   0  0  0  0  0  2  0  0  0  0  0  0
  184.4500  174.8290  135.4240 O   0  0  0  0  0  1  0  0  0  0  0  0
  184.8080  174.6270  136.7510 C   0  0  0  0  0  0  0  0  0  0  0  0
  179.1370  180.4140  138.9820 O   0  0  0  0  0  0  0  0  0  0  0  0
  178.9340  181.8210  139.0190 C   0  0  0  0  0  2  0  0  0  0  0  0
  179.0520  183.6080  137.4490 O   0  0  0  0  0  1  0  0  0  0  0  0
  178.9630  182.3650  137.6360 C   0  0  0  0  0  0  0  0  0  0  0  0
  178.9310  181.4990  136.5490 O   0  0  0  0  0  0  0  0  0  0  0  0
  1 13  1  0  0  0  0
  1  5  1  0  0  0  0
  2 20  2  0  0  0  0
  3  8  1  0  0  0  0
  4  7  2  0  0  0  0
  4 18  1  0  0  0  0
  5 11  2  0  0  0  0
  5 15  1  0  0  0  0
  6  9  1  1  0  0  0
  8 16  2  0  0  0  0
  9 14  1  0  0  0  0
  9 13  2  0  0  0  0
 11 12  1  0  0  0  0
 12 10  2  0  0  0  0
 13 11  1  0  0  0  0
 15  3  1  6  0  0  0
 15 17  1  0  0  0  0
 17 10  1  0  0  0  0
 17 16  1  6  0  0  0
 18 19  1  6  0  0  0
 18  6  1  0  0  0  0
 18  2  1  0  0  0  0
 19  4  1  0  0  0  0
 20 14  1  0  0  0  0
 21 24  1  1  0  0  0
 21 22  1  0  0  0  0
 22 23  1  6  0  0  0
 22  6  1  0  0  0  0
 23 21  1  0  0  0  0
 25 24  2  0  0  0  0
 27 28  1  0  0  0  0
 28 26  2  0  0  0  0
 28 25  1  0  0  0  0
 29 30  1  0  0  0  0
 29  2  1  0  0  0  0
 31 32  1  0  0  0  0
 32 30  1  0  0  0  0
 33 32  2  0  0  0  0
M  END
>  <MODEL>
4

>  <REMARK>
 VINA RESULT:      -6.2      5.607     10.071
  Name = 
  6 active torsions:
  status: ('A' for Active; 'I' for Inactive)
    1  A    between atoms: C_2  and  O_19
    2  A    between atoms: C_4  and  C_7
    3  A    between atoms: C_9  and  C_12
    4  A    between atoms: C_11  and  C_25
    5  A    between atoms: O_19  and  C_25
    6  A    between atoms: C_24  and  C_28
                            x       y       z     vdW  Elec       q    Type
                         _______ _______ _______ _____ _____    ______ ____

>  <TORSDO>
F 6

$$$$
=
 OpenBabel11042409503D

 33 38  0  0  1  0  0  0  0  0999 V2000
  182.9990  175.5110  139.2080 N   0  0  0  0  0  2  0  0  0  0  0  0
  180.8280  180.2160  139.5420 C   0  0  0  0  0  0  0  0  0  0  0  0
  184.7900  172.8960  137.8030 C   0  0  0  0  0  2  0  0  0  0  0  0
  179.8880  178.3620  140.9660 C   0  0  0  0  0  0  0  0  0  0  0  0
  183.3630  174.9630  137.9370 C   0  0  0  0  0  0  0  0  0  0  0  0
  182.3630  178.2920  140.4450 C   0  0  2  0  0  3  0  0  0  0  0  0
  178.9360  177.4770  140.6880 C   0  0  0  0  0  2  0  0  0  0  0  0
  185.7400  172.7580  136.8850 C   0  0  0  0  0  3  0  0  0  0  0  0
  182.5500  178.0020  138.9860 C   0  0  0  0  0  0  0  0  0  0  0  0
  183.8290  175.3010  135.2090 N   0  0  0  0  0  0  0  0  0  0  0  0
  183.1670  176.1220  137.3270 C   0  0  0  0  0  0  0  0  0  0  0  0
  183.3290  176.3110  135.8830 C   0  0  0  0  0  3  0  0  0  0  0  0
  182.8500  176.7710  138.5840 C   0  0  0  0  0  0  0  0  0  0  0  0
  182.5010  179.1340  137.9990 C   0  0  0  0  0  2  0  0  0  0  0  0
  183.6590  173.6830  137.2390 C   0  0  1  0  0  3  0  0  0  0  0  0
  185.3920  173.5190  135.6870 C   0  0  0  0  0  3  0  0  0  0  0  0
  184.2070  174.0680  135.8810 C   0  0  2  0  0  3  0  0  0  0  0  0
  181.1240  179.1770  140.5970 C   0  0  1  0  0  0  0  0  0  0  0  0
  180.5800  179.3580  141.9060 C   0  0  0  0  0  2  0  0  0  0  0  0
  181.4460  180.1530  138.3500 C   0  0  0  0  0  3  0  0  0  0  0  0
  184.6480  177.9690  141.3700 C   0  0  2  0  0  3  0  0  0  0  0  0
  183.5980  178.9990  140.9930 C   0  0  2  0  0  3  0  0  0  0  0  0
  183.8100  178.6280  142.4460 C   0  0  0  0  0  2  0  0  0  0  0  0
  185.9890  178.6200  141.3110 C   0  0  0  0  0  3  0  0  0  0  0  0
  186.9620  178.4190  142.2020 C   0  0  0  0  0  3  0  0  0  0  0  0
  187.7550  176.5760  143.5400 C   0  0  0  0  0  2  0  0  0  0  0  0
  185.9320  177.7720  144.3900 O   0  0  0  0  0  1  0  0  0  0  0  0
  186.8810  177.5600  143.3970 C   0  0  0  0  0  0  0  0  0  0  0  0
  179.8820  181.2130  139.8100 O   0  0  0  0  0  0  0  0  0  0  0  0
  178.9380  181.6680  138.8490 C   0  0  0  0  0  2  0  0  0  0  0  0
  178.9760  184.0470  138.9510 O   0  0  0  0  0  1  0  0  0  0  0  0
  179.3470  183.0060  138.3450 C   0  0  0  0  0  0  0  0  0  0  0  0
  180.1690  183.1060  137.2290 O   0  0  0  0  0  0  0  0  0  0  0  0
  2 29  1  0  0  0  0
  2 18  1  0  0  0  0
  4 19  1  0  0  0  0
  5  1  1  0  0  0  0
  6  9  1  6  0  0  0
  6 18  1  0  0  0  0
  6 22  1  0  0  0  0
  7  4  2  0  0  0  0
  8  3  1  0  0  0  0
 10 17  1  0  0  0  0
 10 12  2  0  0  0  0
 11  5  2  0  0  0  0
 11 13  1  0  0  0  0
 12 11  1  0  0  0  0
 13  9  2  0  0  0  0
 13  1  1  0  0  0  0
 14 20  1  0  0  0  0
 14  9  1  0  0  0  0
 15  3  1  1  0  0  0
 15  5  1  0  0  0  0
 16  8  2  0  0  0  0
 17 16  1  1  0  0  0
 17 15  1  0  0  0  0
 18  4  1  0  0  0  0
 18 19  1  1  0  0  0
 20  2  2  0  0  0  0
 21 24  1  1  0  0  0
 21 23  1  0  0  0  0
 22 21  1  0  0  0  0
 22 23  1  1  0  0  0
 24 25  2  0  0  0  0
 25 28  1  0  0  0  0
 28 26  2  0  0  0  0
 28 27  1  0  0  0  0
 30 29  1  0  0  0  0
 32 30  1  0  0  0  0
 32 31  1  0  0  0  0
 33 32  2  0  0  0  0
M  END
>  <MODEL>
5

>  <REMARK>
 VINA RESULT:      -6.0      4.368      9.267
  Name = 
  6 active torsions:
  status: ('A' for Active; 'I' for Inactive)
    1  A    between atoms: C_2  and  O_19
    2  A    between atoms: C_4  and  C_7
    3  A    between atoms: C_9  and  C_12
    4  A    between atoms: C_11  and  C_25
    5  A    between atoms: O_19  and  C_25
    6  A    between atoms: C_24  and  C_28
                            x       y       z     vdW  Elec       q    Type
                         _______ _______ _______ _____ _____    ______ ____

>  <TORSDO>
F 6

$$$$
=
 OpenBabel11042409503D

 33 38  0  0  1  0  0  0  0  0999 V2000
  193.1320  174.0850  137.5930 N   0  0  0  0  0  2  0  0  0  0  0  0
  188.8980  176.3200  135.5820 C   0  0  0  0  0  0  0  0  0  0  0  0
  196.5030  173.4020  138.0200 C   0  0  0  0  0  2  0  0  0  0  0  0
  188.6460  174.0800  136.7080 C   0  0  0  0  0  0  0  0  0  0  0  0
  194.3710  174.0940  136.8790 C   0  0  0  0  0  0  0  0  0  0  0  0
  190.4360  175.6360  137.5910 C   0  0  2  0  0  3  0  0  0  0  0  0
  188.7590  172.8570  136.2010 C   0  0  0  0  0  2  0  0  0  0  0  0
  197.6530  174.0300  137.8000 C   0  0  0  0  0  3  0  0  0  0  0  0
  191.5240  175.7640  136.5680 C   0  0  0  0  0  0  0  0  0  0  0  0
  195.9560  175.0850  134.8100 N   0  0  0  0  0  0  0  0  0  0  0  0
  193.9110  174.9650  135.9940 C   0  0  0  0  0  0  0  0  0  0  0  0
  194.6940  175.4450  134.8530 C   0  0  0  0  0  3  0  0  0  0  0  0
  192.6470  175.0650  136.6970 C   0  0  0  0  0  0  0  0  0  0  0  0
  191.3750  176.7670  135.4590 C   0  0  0  0  0  2  0  0  0  0  0  0
  195.6850  173.4030  136.7760 C   0  0  1  0  0  3  0  0  0  0  0  0
  197.6620  174.5960  136.4530 C   0  0  0  0  0  3  0  0  0  0  0  0
  196.5330  174.2580  135.8590 C   0  0  2  0  0  3  0  0  0  0  0  0
  189.1000  175.5300  136.8530 C   0  0  1  0  0  0  0  0  0  0  0  0
  187.9480  175.1220  137.5940 C   0  0  0  0  0  2  0  0  0  0  0  0
  189.9590  176.8460  134.9460 C   0  0  0  0  0  3  0  0  0  0  0  0
  190.5560  176.3980  139.9550 C   0  0  2  0  0  3  0  0  0  0  0  0
  190.4450  176.8530  138.5110 C   0  0  2  0  0  3  0  0  0  0  0  0
  189.2200  176.8440  139.4010 C   0  0  0  0  0  2  0  0  0  0  0  0
  191.1630  177.5030  140.7520 C   0  0  0  0  0  3  0  0  0  0  0  0
  191.2380  177.5160  142.0840 C   0  0  0  0  0  3  0  0  0  0  0  0
  189.4160  176.4150  143.2190 C   0  0  0  0  0  2  0  0  0  0  0  0
  191.5550  175.5440  143.5940 O   0  0  0  0  0  1  0  0  0  0  0  0
  190.7190  176.4770  142.9920 C   0  0  0  0  0  0  0  0  0  0  0  0
  187.6050  176.4620  135.0630 O   0  0  0  0  0  0  0  0  0  0  0  0
  186.9290  177.7110  134.9890 C   0  0  0  0  0  2  0  0  0  0  0  0
  185.8200  177.7920  137.0940 O   0  0  0  0  0  1  0  0  0  0  0  0
  186.7340  178.2530  136.3590 C   0  0  0  0  0  0  0  0  0  0  0  0
  187.5840  179.2400  136.8430 O   0  0  0  0  0  0  0  0  0  0  0  0
  2 18  1  0  0  0  0
  4 18  1  0  0  0  0
  4 19  1  0  0  0  0
  5  1  1  0  0  0  0
  6  9  1  6  0  0  0
  6 22  1  0  0  0  0
  7  4  2  0  0  0  0
  8  3  1  0  0  0  0
  9 13  2  0  0  0  0
 10 12  2  0  0  0  0
 10 17  1  0  0  0  0
 11 13  1  0  0  0  0
 11  5  2  0  0  0  0
 12 11  1  0  0  0  0
 13  1  1  0  0  0  0
 14  9  1  0  0  0  0
 15  5  1  0  0  0  0
 15  3  1  1  0  0  0
 16  8  2  0  0  0  0
 17 16  1  1  0  0  0
 17 15  1  0  0  0  0
 18  6  1  0  0  0  0
 18 19  1  1  0  0  0
 20 14  1  0  0  0  0
 20  2  2  0  0  0  0
 21 24  1  1  0  0  0
 22 23  1  1  0  0  0
 22 21  1  0  0  0  0
 23 21  1  0  0  0  0
 24 25  2  0  0  0  0
 25 28  1  0  0  0  0
 28 26  2  0  0  0  0
 28 27  1  0  0  0  0
 29  2  1  0  0  0  0
 30 29  1  0  0  0  0
 30 32  1  0  0  0  0
 32 33  2  0  0  0  0
 32 31  1  0  0  0  0
M  END
>  <MODEL>
6

>  <REMARK>
 VINA RESULT:      -5.5      4.247      8.609
  Name = 
  6 active torsions:
  status: ('A' for Active; 'I' for Inactive)
    1  A    between atoms: C_2  and  O_19
    2  A    between atoms: C_4  and  C_7
    3  A    between atoms: C_9  and  C_12
    4  A    between atoms: C_11  and  C_25
    5  A    between atoms: O_19  and  C_25
    6  A    between atoms: C_24  and  C_28
                            x       y       z     vdW  Elec       q    Type
                         _______ _______ _______ _____ _____    ______ ____

>  <TORSDO>
F 6

$$$$
=
 OpenBabel11042409503D

 33 38  0  0  1  0  0  0  0  0999 V2000
  180.6310  177.4360  139.5030 N   0  0  0  0  0  2  0  0  0  0  0  0
  184.6210  176.6620  136.2710 C   0  0  0  0  0  0  0  0  0  0  0  0
  178.9310  178.6570  142.2660 C   0  0  0  0  0  2  0  0  0  0  0  0
  182.7510  174.9730  136.2870 C   0  0  0  0  0  0  0  0  0  0  0  0
  180.8550  177.8740  140.8470 C   0  0  0  0  0  0  0  0  0  0  0  0
  182.1550  177.3790  136.7920 C   0  0  2  0  0  3  0  0  0  0  0  0
  182.5950  173.8850  137.0340 C   0  0  0  0  0  2  0  0  0  0  0  0
  179.0440  179.6920  143.0920 C   0  0  0  0  0  3  0  0  0  0  0  0
  182.7370  177.7620  138.1200 C   0  0  0  0  0  0  0  0  0  0  0  0
  182.5480  178.9480  142.7830 N   0  0  0  0  0  0  0  0  0  0  0  0
  182.1290  178.1390  140.6000 C   0  0  0  0  0  0  0  0  0  0  0  0
  183.0610  178.6300  141.6170 C   0  0  0  0  0  3  0  0  0  0  0  0
  181.9710  177.7750  139.2060 C   0  0  0  0  0  0  0  0  0  0  0  0
  184.1630  178.2320  138.1880 C   0  0  0  0  0  2  0  0  0  0  0  0
  180.2280  177.9290  142.1950 C   0  0  1  0  0  3  0  0  0  0  0  0
  180.4260  179.8170  143.5500 C   0  0  0  0  0  3  0  0  0  0  0  0
  181.1210  178.8210  143.0310 C   0  0  2  0  0  3  0  0  0  0  0  0
  183.1380  176.4370  136.0960 C   0  0  1  0  0  0  0  0  0  0  0  0
  182.6870  175.7180  134.9470 C   0  0  0  0  0  2  0  0  0  0  0  0
  185.0640  177.4600  137.2570 C   0  0  0  0  0  3  0  0  0  0  0  0
  180.5600  179.2160  136.2740 C   0  0  2  0  0  3  0  0  0  0  0  0
  181.9230  178.6300  135.9500 C   0  0  2  0  0  3  0  0  0  0  0  0
  180.7590  178.4150  135.0050 C   0  0  0  0  0  2  0  0  0  0  0  0
  180.5860  180.6730  135.9560 C   0  0  0  0  0  3  0  0  0  0  0  0
  180.8770  181.6300  136.8400 C   0  0  0  0  0  3  0  0  0  0  0  0
  180.1950  181.2850  139.1270 C   0  0  0  0  0  2  0  0  0  0  0  0
  182.4990  181.3560  138.7270 O   0  0  0  0  0  1  0  0  0  0  0  0
  181.1900  181.4280  138.2660 C   0  0  0  0  0  0  0  0  0  0  0  0
  185.5180  176.0020  135.4210 O   0  0  0  0  0  0  0  0  0  0  0  0
  186.6510  175.2840  135.8930 C   0  0  0  0  0  2  0  0  0  0  0  0
  186.0260  173.0450  135.3770 O   0  0  0  0  0  0  0  0  0  0  0  0
  186.2450  173.9050  136.2710 C   0  0  0  0  0  0  0  0  0  0  0  0
  186.1440  173.5550  137.6130 O   0  0  0  0  0  1  0  0  0  0  0  0
  1  5  1  0  0  0  0
  2 20  2  0  0  0  0
  3  8  1  0  0  0  0
  4  7  2  0  0  0  0
  5 15  1  0  0  0  0
  6  9  1  1  0  0  0
  8 16  2  0  0  0  0
  9 14  1  0  0  0  0
  9 13  2  0  0  0  0
 10 17  1  0  0  0  0
 11  5  2  0  0  0  0
 11 12  1  0  0  0  0
 12 10  2  0  0  0  0
 13  1  1  0  0  0  0
 13 11  1  0  0  0  0
 15  3  1  6  0  0  0
 15 17  1  0  0  0  0
 17 16  1  6  0  0  0
 18 19  1  6  0  0  0
 18  2  1  0  0  0  0
 18  4  1  0  0  0  0
 18  6  1  0  0  0  0
 19  4  1  0  0  0  0
 20 14  1  0  0  0  0
 21 24  1  6  0  0  0
 22 23  1  6  0  0  0
 22 21  1  0  0  0  0
 22  6  1  0  0  0  0
 23 21  1  0  0  0  0
 24 25  2  0  0  0  0
 25 28  1  0  0  0  0
 28 27  1  0  0  0  0
 28 26  2  0  0  0  0
 29 30  1  0  0  0  0
 29  2  1  0  0  0  0
 30 32  1  0  0  0  0
 31 32  2  0  0  0  0
 32 33  1  0  0  0  0
M  END
>  <MODEL>
7

>  <REMARK>
 VINA RESULT:      -5.5      6.660      9.776
  Name = 
  6 active torsions:
  status: ('A' for Active; 'I' for Inactive)
    1  A    between atoms: C_2  and  O_19
    2  A    between atoms: C_4  and  C_7
    3  A    between atoms: C_9  and  C_12
    4  A    between atoms: C_11  and  C_25
    5  A    between atoms: O_19  and  C_25
    6  A    between atoms: C_24  and  C_28
                            x       y       z     vdW  Elec       q    Type
                         _______ _______ _______ _____ _____    ______ ____

>  <TORSDO>
F 6

$$$$
=
 OpenBabel11042409503D

 33 38  0  0  1  0  0  0  0  0999 V2000
  184.3340  178.3790  138.4140 N   0  0  0  0  0  2  0  0  0  0  0  0
  188.2460  175.8170  136.1560 C   0  0  0  0  0  0  0  0  0  0  0  0
  181.3030  178.8240  140.0350 C   0  0  0  0  0  2  0  0  0  0  0  0
  187.8910  178.2360  135.5450 C   0  0  0  0  0  0  0  0  0  0  0  0
  183.0540  177.7610  138.5740 C   0  0  0  0  0  0  0  0  0  0  0  0
  187.2790  177.5240  137.8940 C   0  0  2  0  0  3  0  0  0  0  0  0
  187.1310  178.7680  134.5940 C   0  0  0  0  0  2  0  0  0  0  0  0
  180.5090  178.1010  140.8180 C   0  0  0  0  0  3  0  0  0  0  0  0
  186.0810  176.6250  137.8390 C   0  0  0  0  0  0  0  0  0  0  0  0
  181.4590  175.4750  138.5530 N   0  0  0  0  0  0  0  0  0  0  0  0
  183.5300  176.5740  138.2330 C   0  0  0  0  0  0  0  0  0  0  0  0
  182.7000  175.3700  138.1380 C   0  0  0  0  0  3  0  0  0  0  0  0
  184.8720  177.1070  138.1120 C   0  0  0  0  0  0  0  0  0  0  0  0
  186.2740  175.1580  137.5790 C   0  0  0  0  0  2  0  0  0  0  0  0
  181.6130  178.0600  138.7950 C   0  0  1  0  0  3  0  0  0  0  0  0
  180.3130  176.7730  140.2410 C   0  0  0  0  0  3  0  0  0  0  0  0
  180.9530  176.7290  139.0870 C   0  0  2  0  0  3  0  0  0  0  0  0
  188.1460  177.2350  136.6680 C   0  0  1  0  0  0  0  0  0  0  0  0
  189.1950  178.1520  136.3490 C   0  0  0  0  0  2  0  0  0  0  0  0
  187.3570  174.8960  136.5620 C   0  0  0  0  0  3  0  0  0  0  0  0
  187.7170  178.3250  140.2070 C   0  0  2  0  0  3  0  0  0  0  0  0
  188.0610  177.2640  139.1780 C   0  0  2  0  0  3  0  0  0  0  0  0
  189.0220  178.4050  139.4440 C   0  0  0  0  0  2  0  0  0  0  0  0
  187.9640  177.7610  141.5660 C   0  0  0  0  0  3  0  0  0  0  0  0
  187.1220  177.8820  142.5950 C   0  0  0  0  0  3  0  0  0  0  0  0
  184.8780  178.2190  143.4110 C   0  0  0  0  0  2  0  0  0  0  0  0
  185.6150  179.6950  141.7510 O   0  0  0  0  0  1  0  0  0  0  0  0
  185.8370  178.6040  142.5840 C   0  0  0  0  0  0  0  0  0  0  0  0
  189.2480  175.4930  135.2320 O   0  0  0  0  0  0  0  0  0  0  0  0
  190.3010  174.5800  135.5160 C   0  0  0  0  0  2  0  0  0  0  0  0
  191.9390  175.9970  136.5050 O   0  0  0  0  0  0  0  0  0  0  0  0
  191.0940  175.0770  136.6710 C   0  0  0  0  0  0  0  0  0  0  0  0
  190.8750  174.5550  137.9400 O   0  0  0  0  0  1  0  0  0  0  0  0
  1  5  1  0  0  0  0
  2 20  2  0  0  0  0
  2 18  1  0  0  0  0
  3  8  1  0  0  0  0
  4 19  1  0  0  0  0
  4 18  1  0  0  0  0
  5 15  1  0  0  0  0
  6  9  1  1  0  0  0
  6 22  1  0  0  0  0
  7  4  2  0  0  0  0
  9 13  2  0  0  0  0
 10 17  1  0  0  0  0
 11  5  2  0  0  0  0
 12 11  1  0  0  0  0
 12 10  2  0  0  0  0
 13 11  1  0  0  0  0
 13  1  1  0  0  0  0
 14  9  1  0  0  0  0
 15 17  1  0  0  0  0
 15  3  1  1  0  0  0
 16  8  2  0  0  0  0
 17 16  1  1  0  0  0
 18 19  1  1  0  0  0
 18  6  1  0  0  0  0
 20 14  1  0  0  0  0
 21 24  1  1  0  0  0
 22 23  1  6  0  0  0
 22 21  1  0  0  0  0
 23 21  1  0  0  0  0
 24 25  2  0  0  0  0
 27 28  1  0  0  0  0
 28 25  1  0  0  0  0
 28 26  2  0  0  0  0
 29 30  1  0  0  0  0
 29  2  1  0  0  0  0
 30 32  1  0  0  0  0
 31 32  2  0  0  0  0
 32 33  1  0  0  0  0
M  END
>  <MODEL>
8

>  <REMARK>
 VINA RESULT:      -5.4      3.959      7.478
  Name = 
  6 active torsions:
  status: ('A' for Active; 'I' for Inactive)
    1  A    between atoms: C_2  and  O_19
    2  A    between atoms: C_4  and  C_7
    3  A    between atoms: C_9  and  C_12
    4  A    between atoms: C_11  and  C_25
    5  A    between atoms: O_19  and  C_25
    6  A    between atoms: C_24  and  C_28
                            x       y       z     vdW  Elec       q    Type
                         _______ _______ _______ _____ _____    ______ ____

>  <TORSDO>
F 6

$$$$
=
 OpenBabel11042409503D

 33 38  0  0  1  0  0  0  0  0999 V2000
  183.3890  174.4790  137.9500 N   0  0  0  0  0  2  0  0  0  0  0  0
  182.1990  179.5330  137.9770 C   0  0  0  0  0  0  0  0  0  0  0  0
  183.4260  171.1980  136.8320 C   0  0  0  0  0  2  0  0  0  0  0  0
  182.8350  178.4430  140.1590 C   0  0  0  0  0  0  0  0  0  0  0  0
  182.6090  173.5490  137.1920 C   0  0  0  0  0  0  0  0  0  0  0  0
  183.9040  177.5440  138.0490 C   0  0  2  0  0  3  0  0  0  0  0  0
  182.0720  177.8250  141.0530 C   0  0  0  0  0  2  0  0  0  0  0  0
  183.2660  170.5690  135.6730 C   0  0  0  0  0  3  0  0  0  0  0  0
  182.8600  176.8550  137.2230 C   0  0  0  0  0  0  0  0  0  0  0  0
  180.6960  173.0440  135.2270 N   0  0  0  0  0  0  0  0  0  0  0  0
  181.9650  174.5240  136.5670 C   0  0  0  0  0  0  0  0  0  0  0  0
  180.9020  174.2890  135.5870 C   0  0  0  0  0  3  0  0  0  0  0  0
  182.7590  175.5300  137.2450 C   0  0  0  0  0  0  0  0  0  0  0  0
  182.0050  177.6690  136.2940 C   0  0  0  0  0  2  0  0  0  0  0  0
  182.2700  172.1050  137.0730 C   0  0  1  0  0  3  0  0  0  0  0  0
  182.0740  171.0710  134.9920 C   0  0  0  0  0  3  0  0  0  0  0  0
  181.5010  171.9640  135.7770 C   0  0  2  0  0  3  0  0  0  0  0  0
  183.2550  178.7530  138.7240 C   0  0  1  0  0  0  0  0  0  0  0  0
  183.9690  179.4050  139.7770 C   0  0  0  0  0  2  0  0  0  0  0  0
  181.6190  179.0000  136.8890 C   0  0  0  0  0  3  0  0  0  0  0  0
  186.1690  176.9500  137.2120 C   0  0  2  0  0  3  0  0  0  0  0  0
  185.0600  177.9850  137.1570 C   0  0  2  0  0  3  0  0  0  0  0  0
  186.2970  178.2400  137.9930 C   0  0  0  0  0  2  0  0  0  0  0  0
  186.9650  177.0430  135.9540 C   0  0  0  0  0  3  0  0  0  0  0  0
  188.2430  176.6730  135.8430 C   0  0  0  0  0  3  0  0  0  0  0  0
  189.8600  176.9790  137.6060 C   0  0  0  0  0  2  0  0  0  0  0  0
  189.0800  174.7980  137.2750 O   0  0  0  0  0  1  0  0  0  0  0  0
  189.0900  176.1430  136.9270 C   0  0  0  0  0  0  0  0  0  0  0  0
  181.8130  180.7920  138.4550 O   0  0  0  0  0  0  0  0  0  0  0  0
  180.4550  181.1990  138.5670 C   0  0  0  0  0  2  0  0  0  0  0  0
  180.0090  181.2060  140.9060 O   0  0  0  0  0  1  0  0  0  0  0  0
  179.8620  180.6190  139.8010 C   0  0  0  0  0  0  0  0  0  0  0  0
  179.1140  179.4500  139.7290 O   0  0  0  0  0  0  0  0  0  0  0  0
  2 29  1  0  0  0  0
  2 18  1  0  0  0  0
  4  7  2  0  0  0  0
  5  1  1  0  0  0  0
  6  9  1  6  0  0  0
  6 18  1  0  0  0  0
  8  3  1  0  0  0  0
  9 13  2  0  0  0  0
 10 12  2  0  0  0  0
 10 17  1  0  0  0  0
 11  5  2  0  0  0  0
 11 13  1  0  0  0  0
 12 11  1  0  0  0  0
 13  1  1  0  0  0  0
 14 20  1  0  0  0  0
 14  9  1  0  0  0  0
 15  3  1  6  0  0  0
 15  5  1  0  0  0  0
 16  8  2  0  0  0  0
 17 16  1  6  0  0  0
 17 15  1  0  0  0  0
 18 19  1  1  0  0  0
 18  4  1  0  0  0  0
 19  4  1  0  0  0  0
 20  2  2  0  0  0  0
 21 24  1  6  0  0  0
 21 23  1  0  0  0  0
 22 21  1  0  0  0  0
 22 23  1  1  0  0  0
 22  6  1  0  0  0  0
 25 24  2  0  0  0  0
 25 28  1  0  0  0  0
 28 27  1  0  0  0  0
 28 26  2  0  0  0  0
 29 30  1  0  0  0  0
 30 32  1  0  0  0  0
 32 31  1  0  0  0  0
 33 32  2  0  0  0  0
M  END
>  <MODEL>
9

>  <REMARK>
 VINA RESULT:      -5.3      5.799      9.614
  Name = 
  6 active torsions:
  status: ('A' for Active; 'I' for Inactive)
    1  A    between atoms: C_2  and  O_19
    2  A    between atoms: C_4  and  C_7
    3  A    between atoms: C_9  and  C_12
    4  A    between atoms: C_11  and  C_25
    5  A    between atoms: O_19  and  C_25
    6  A    between atoms: C_24  and  C_28
                            x       y       z     vdW  Elec       q    Type
                         _______ _______ _______ _____ _____    ______ ____

>  <TORSDO>
F 6

$$$$
