=
 OpenBabel11042413343D

 41 44  0  0  1  0  0  0  0  0999 V2000
  188.3010  177.7880  139.6900 C   0  0  0  0  0  0  0  0  0  0  0  0
  189.5630  177.3950  140.1570 C   0  0  0  0  0  0  0  0  0  0  0  0
  186.4100  178.1570  138.0750 S   0  0  0  0  0  0  0  0  0  0  0  0
  187.9630  177.5950  138.3570 C   0  0  0  0  0  0  0  0  0  0  0  0
  188.8420  177.0220  137.4430 C   0  0  0  0  0  3  0  0  0  0  0  0
  187.2850  178.3860  140.4490 C   0  0  0  0  0  3  0  0  0  0  0  0
  190.4660  176.8170  139.2490 C   0  0  0  0  0  3  0  0  0  0  0  0
  186.1590  178.6520  139.6750 C   0  0  0  0  0  0  0  0  0  0  0  0
  190.1100  176.6260  137.8970 C   0  0  0  0  0  0  0  0  0  0  0  0
  190.9330  174.5300  136.8700 C   0  0  0  0  0  0  0  0  0  0  0  0
  194.2620  174.1960  138.1190 C   0  0  0  0  0  0  0  0  0  0  0  0
  191.0710  176.0180  136.9220 C   0  0  2  0  0  3  0  0  0  0  0  0
  192.0600  173.7790  137.2810 N   0  0  0  0  0  2  0  0  0  0  0  0
  193.1180  174.6510  137.6300 C   0  0  0  0  0  0  0  0  0  0  0  0
  189.8770  173.9660  136.4820 O   0  0  0  0  0  0  0  0  0  0  0  0
  195.6690  174.4030  138.6690 C   0  0  0  0  0  2  0  0  0  0  0  0
  192.8030  176.3960  137.4030 S   0  0  0  0  0  0  0  0  0  0  0  0
  195.1820  173.0660  138.5660 C   0  0  0  0  0  2  0  0  0  0  0  0
  182.7760  179.2760  140.9370 O   0  0  0  0  0  0  0  0  0  0  0  0
  183.7300  178.5990  140.4660 C   0  0  0  0  0  0  0  0  0  0  0  0
  184.9720  179.2570  140.2030 N   0  0  0  0  0  2  0  0  0  0  0  0
  183.5770  177.2300  140.2050 O   0  0  0  0  0  0  0  0  0  0  0  0
  182.8100  176.6920  139.1650 C   0  0  0  0  0  0  0  0  0  0  0  0
  181.9110  175.6260  139.4450 N   0  0  0  0  0  1  0  0  0  0  0  0
  182.9030  177.1260  137.9870 O   0  0  0  0  0  0  0  0  0  0  0  0
  189.9750  177.6110  141.5750 C   0  0  0  0  0  2  0  0  0  0  0  0
  190.0930  176.2760  142.2890 C   0  0  0  0  0  2  0  0  0  0  0  0
  188.7660  175.8810  142.8280 C   0  0  0  0  0  3  0  0  0  0  0  0
  188.0240  176.7620  143.4360 C   0  0  0  0  0  0  0  0  0  0  0  0
  187.2840  177.6440  144.0470 C   0  0  0  0  0  3  0  0  0  0  0  0
  186.5020  177.2620  145.1730 N   0  0  0  0  0  2  0  0  0  0  0  0
  186.8550  177.7000  146.5120 C   0  0  2  0  0  3  0  0  0  0  0  0
  184.6020  178.6120  146.3470 N   0  0  0  0  0  1  0  0  0  0  0  0
  185.9160  178.8180  146.9300 C   0  0  0  0  0  2  0  0  0  0  0  0
  188.2960  178.2030  146.5290 C   0  0  0  0  0  2  0  0  0  0  0  0
  189.7220  178.1850  148.4410 O   0  0  0  0  0  1  0  0  0  0  0  0
  189.1940  177.3640  147.4410 C   0  0  0  0  0  0  0  0  0  0  0  0
  188.4480  176.3400  148.0340 O   0  0  0  0  0  1  0  0  0  0  0  0
  191.5300  176.3700  147.4870 C   0  0  0  0  0  1  0  0  0  0  0  0
  190.3460  176.7660  146.6170 C   0  0  0  0  0  3  0  0  0  0  0  0
  190.8230  177.7270  145.5400 C   0  0  0  0  0  1  0  0  0  0  0  0
  1  2  1  0  0  0  0
  1  6  1  0  0  0  0
  2 26  1  0  0  0  0
  3  4  1  0  0  0  0
  3  8  1  0  0  0  0
  4  1  2  0  0  0  0
  5  9  2  0  0  0  0
  5  4  1  0  0  0  0
  7  2  2  0  0  0  0
  8 21  1  0  0  0  0
  8  6  2  0  0  0  0
  9  7  1  0  0  0  0
 10 12  1  0  0  0  0
 10 13  1  0  0  0  0
 11 18  1  0  0  0  0
 11 16  1  0  0  0  0
 12 17  1  0  0  0  0
 12  9  1  1  0  0  0
 13 14  1  0  0  0  0
 14 11  2  0  0  0  0
 15 10  2  0  0  0  0
 17 14  1  0  0  0  0
 18 16  1  0  0  0  0
 20 19  2  0  0  0  0
 21 20  1  0  0  0  0
 22 20  1  0  0  0  0
 23 24  1  0  0  0  0
 23 22  1  0  0  0  0
 25 23  2  0  0  0  0
 26 27  1  0  0  0  0
 27 28  1  0  0  0  0
 28 29  2  0  0  0  0
 29 30  2  0  0  0  0
 30 31  1  0  0  0  0
 31 32  1  0  0  0  0
 32 35  1  6  0  0  0
 32 34  1  0  0  0  0
 33 34  1  0  0  0  0
 35 37  1  0  0  0  0
 37 38  1  0  0  0  0
 37 36  1  0  0  0  0
 40 37  1  0  0  0  0
 40 39  1  0  0  0  0
 41 40  1  0  0  0  0
M  END
>  <MODEL>
1

>  <REMARK>
 VINA RESULT:      -7.9      0.000      0.000
  Name = 
  13 active torsions:
  status: ('A' for Active; 'I' for Inactive)
    1  A    between atoms: C_2  and  C_4
    2  A    between atoms: C_2  and  C_33
    3  A    between atoms: O_8  and  C_13
    4  A    between atoms: O_8  and  C_34
    5  A    between atoms: C_9  and  C_32
    6  A    between atoms: C_11  and  C_33
    7  A    between atoms: C_14  and  C_40
    8  A    between atoms: N_15  and  C_37
    9  A    between atoms: N_19  and  C_32
   10  A    between atoms: N_19  and  C_39
   11  A    between atoms: C_20  and  C_29
   12  A    between atoms: C_20  and  C_32
   13  A    between atoms: C_26  and  C_29
                            x       y       z     vdW  Elec       q    Type
                         _______ _______ _______ _____ _____    ______ ____

>  <TORSDO>
F 13

$$$$
=
 OpenBabel11042413343D

 41 44  0  0  1  0  0  0  0  0999 V2000
  188.6100  177.6730  139.0050 C   0  0  0  0  0  0  0  0  0  0  0  0
  189.8380  177.3210  139.5820 C   0  0  0  0  0  0  0  0  0  0  0  0
  186.8500  177.9630  137.2330 S   0  0  0  0  0  0  0  0  0  0  0  0
  188.3870  177.4460  137.6530 C   0  0  0  0  0  0  0  0  0  0  0  0
  189.3510  176.8770  136.8260 C   0  0  0  0  0  3  0  0  0  0  0  0
  187.5210  178.2600  139.6660 C   0  0  0  0  0  3  0  0  0  0  0  0
  190.8260  176.7490  138.7640 C   0  0  0  0  0  3  0  0  0  0  0  0
  186.4560  178.4830  138.7970 C   0  0  0  0  0  0  0  0  0  0  0  0
  190.5860  176.5230  137.3910 C   0  0  0  0  0  0  0  0  0  0  0  0
  191.4550  174.4420  136.3690 C   0  0  0  0  0  0  0  0  0  0  0  0
  194.5890  173.9140  137.9960 C   0  0  0  0  0  0  0  0  0  0  0  0
  191.6380  175.9200  136.5110 C   0  0  2  0  0  3  0  0  0  0  0  0
  192.4950  173.6280  136.8760 N   0  0  0  0  0  2  0  0  0  0  0  0
  193.5320  174.4380  137.3940 C   0  0  0  0  0  0  0  0  0  0  0  0
  190.4350  173.9410  135.8270 O   0  0  0  0  0  0  0  0  0  0  0  0
  195.9240  174.0370  138.7230 C   0  0  0  0  0  2  0  0  0  0  0  0
  193.3100  176.2020  137.2190 S   0  0  0  0  0  0  0  0  0  0  0  0
  195.4070  172.7270  138.4940 C   0  0  0  0  0  2  0  0  0  0  0  0
  182.9090  179.2400  139.3180 O   0  0  0  0  0  0  0  0  0  0  0  0
  183.9050  178.6140  138.8650 C   0  0  0  0  0  0  0  0  0  0  0  0
  185.2160  179.0680  139.2130 N   0  0  0  0  0  2  0  0  0  0  0  0
  183.7330  177.4950  138.0380 O   0  0  0  0  0  0  0  0  0  0  0  0
  183.3760  176.2160  138.4810 C   0  0  0  0  0  0  0  0  0  0  0  0
  182.5930  176.0820  139.6600 N   0  0  0  0  0  1  0  0  0  0  0  0
  183.7400  175.1810  137.8610 O   0  0  0  0  0  0  0  0  0  0  0  0
  190.1270  177.5750  141.0240 C   0  0  0  0  0  2  0  0  0  0  0  0
  190.1930  176.2590  141.7780 C   0  0  0  0  0  2  0  0  0  0  0  0
  189.1370  176.2300  142.8230 C   0  0  0  0  0  3  0  0  0  0  0  0
  189.2130  177.0330  143.8460 C   0  0  0  0  0  0  0  0  0  0  0  0
  189.2930  177.8350  144.8690 C   0  0  0  0  0  3  0  0  0  0  0  0
  188.8780  177.3910  146.1570 N   0  0  0  0  0  2  0  0  0  0  0  0
  187.7870  178.0470  146.8580 C   0  0  2  0  0  3  0  0  0  0  0  0
  189.1410  178.1460  148.8800 N   0  0  0  0  0  1  0  0  0  0  0  0
  187.8700  177.7030  148.3340 C   0  0  0  0  0  2  0  0  0  0  0  0
  186.4500  177.5750  146.2920 C   0  0  0  0  0  2  0  0  0  0  0  0
  184.2400  178.2080  146.9240 O   0  0  0  0  0  1  0  0  0  0  0  0
  185.3930  178.6820  146.2950 C   0  0  0  0  0  0  0  0  0  0  0  0
  185.8720  179.7960  146.9930 O   0  0  0  0  0  1  0  0  0  0  0  0
  183.5560  179.1530  144.6080 C   0  0  0  0  0  1  0  0  0  0  0  0
  185.0570  179.0740  144.8470 C   0  0  0  0  0  3  0  0  0  0  0  0
  185.6670  178.1040  143.8470 C   0  0  0  0  0  1  0  0  0  0  0  0
  1  2  1  0  0  0  0
  1  6  1  0  0  0  0
  2 26  1  0  0  0  0
  3  4  1  0  0  0  0
  3  8  1  0  0  0  0
  4  1  2  0  0  0  0
  5  9  2  0  0  0  0
  5  4  1  0  0  0  0
  7  2  2  0  0  0  0
  8 21  1  0  0  0  0
  8  6  2  0  0  0  0
  9  7  1  0  0  0  0
 10 12  1  0  0  0  0
 10 13  1  0  0  0  0
 11 18  1  0  0  0  0
 11 16  1  0  0  0  0
 12 17  1  0  0  0  0
 12  9  1  1  0  0  0
 13 14  1  0  0  0  0
 14 11  2  0  0  0  0
 15 10  2  0  0  0  0
 17 14  1  0  0  0  0
 18 16  1  0  0  0  0
 20 21  1  0  0  0  0
 20 19  2  0  0  0  0
 22 23  1  0  0  0  0
 22 20  1  0  0  0  0
 23 24  1  0  0  0  0
 25 23  2  0  0  0  0
 26 27  1  0  0  0  0
 27 28  1  0  0  0  0
 28 29  2  0  0  0  0
 29 30  2  0  0  0  0
 30 31  1  0  0  0  0
 31 32  1  0  0  0  0
 32 35  1  6  0  0  0
 32 34  1  0  0  0  0
 34 33  1  0  0  0  0
 35 37  1  0  0  0  0
 37 36  1  0  0  0  0
 37 38  1  0  0  0  0
 39 40  1  0  0  0  0
 40 37  1  0  0  0  0
 41 40  1  0  0  0  0
M  END
>  <MODEL>
2

>  <REMARK>
 VINA RESULT:      -7.7      1.715      2.681
  Name = 
  13 active torsions:
  status: ('A' for Active; 'I' for Inactive)
    1  A    between atoms: C_2  and  C_4
    2  A    between atoms: C_2  and  C_33
    3  A    between atoms: O_8  and  C_13
    4  A    between atoms: O_8  and  C_34
    5  A    between atoms: C_9  and  C_32
    6  A    between atoms: C_11  and  C_33
    7  A    between atoms: C_14  and  C_40
    8  A    between atoms: N_15  and  C_37
    9  A    between atoms: N_19  and  C_32
   10  A    between atoms: N_19  and  C_39
   11  A    between atoms: C_20  and  C_29
   12  A    between atoms: C_20  and  C_32
   13  A    between atoms: C_26  and  C_29
                            x       y       z     vdW  Elec       q    Type
                         _______ _______ _______ _____ _____    ______ ____

>  <TORSDO>
F 13

$$$$
=
 OpenBabel11042413343D

 41 44  0  0  1  0  0  0  0  0999 V2000
  189.3850  177.9200  142.3180 C   0  0  0  0  0  0  0  0  0  0  0  0
  188.1970  178.3630  141.7200 C   0  0  0  0  0  0  0  0  0  0  0  0
  191.6790  176.9100  142.5090 S   0  0  0  0  0  0  0  0  0  0  0  0
  190.3840  177.3500  141.5410 C   0  0  0  0  0  0  0  0  0  0  0  0
  190.2550  177.1890  140.1650 C   0  0  0  0  0  3  0  0  0  0  0  0
  189.6990  177.9860  143.6840 C   0  0  0  0  0  3  0  0  0  0  0  0
  188.0460  178.2070  140.3320 C   0  0  0  0  0  3  0  0  0  0  0  0
  190.9600  177.4550  143.9430 C   0  0  0  0  0  0  0  0  0  0  0  0
  189.0700  177.6260  139.5530 C   0  0  0  0  0  0  0  0  0  0  0  0
  188.3440  178.6760  137.4320 C   0  0  0  0  0  0  0  0  0  0  0  0
  185.4450  176.8170  136.4860 C   0  0  0  0  0  0  0  0  0  0  0  0
  188.9110  177.4500  138.0730 C   0  0  2  0  0  3  0  0  0  0  0  0
  187.0790  178.5340  136.8140 N   0  0  0  0  0  2  0  0  0  0  0  0
  186.6380  177.1940  136.9210 C   0  0  0  0  0  0  0  0  0  0  0  0
  188.9510  179.7790  137.4340 O   0  0  0  0  0  0  0  0  0  0  0  0
  184.3640  175.7660  136.2610 C   0  0  0  0  0  2  0  0  0  0  0  0
  187.7700  176.0570  137.7080 S   0  0  0  0  0  0  0  0  0  0  0  0
  184.0990  177.0990  135.8290 C   0  0  0  0  0  2  0  0  0  0  0  0
  191.4980  177.0650  147.5460 O   0  0  0  0  0  0  0  0  0  0  0  0
  190.8480  177.0690  146.4660 C   0  0  0  0  0  0  0  0  0  0  0  0
  191.5320  177.4030  145.2560 N   0  0  0  0  0  2  0  0  0  0  0  0
  189.4820  176.7520  146.4510 O   0  0  0  0  0  0  0  0  0  0  0  0
  188.4700  177.5340  147.0200 C   0  0  0  0  0  0  0  0  0  0  0  0
  187.1890  177.5690  146.4040 N   0  0  0  0  0  1  0  0  0  0  0  0
  188.6710  178.2110  148.0630 O   0  0  0  0  0  0  0  0  0  0  0  0
  187.0880  178.9550  142.5230 C   0  0  0  0  0  2  0  0  0  0  0  0
  186.0670  177.8840  142.8640 C   0  0  0  0  0  2  0  0  0  0  0  0
  184.7420  178.2650  142.3080 C   0  0  0  0  0  3  0  0  0  0  0  0
  183.7940  178.6670  143.1050 C   0  0  0  0  0  0  0  0  0  0  0  0
  182.8460  179.0660  143.9050 C   0  0  0  0  0  3  0  0  0  0  0  0
  181.4950  178.7030  143.6450 N   0  0  0  0  0  2  0  0  0  0  0  0
  180.8470  179.0740  142.3990 C   0  0  2  0  0  3  0  0  0  0  0  0
  179.7350  181.0080  141.4210 N   0  0  0  0  0  1  0  0  0  0  0  0
  179.9330  180.2600  142.6500 C   0  0  0  0  0  2  0  0  0  0  0  0
  180.0320  177.8970  141.8680 C   0  0  0  0  0  2  0  0  0  0  0  0
  180.1910  176.2060  140.1950 O   0  0  0  0  0  1  0  0  0  0  0  0
  180.3550  177.5770  140.4070 C   0  0  0  0  0  0  0  0  0  0  0  0
  179.4880  178.2790  139.5630 O   0  0  0  0  0  1  0  0  0  0  0  0
  181.9120  178.9890  138.9830 C   0  0  0  0  0  1  0  0  0  0  0  0
  181.8110  177.9660  140.1060 C   0  0  0  0  0  3  0  0  0  0  0  0
  182.6530  176.7520  139.7460 C   0  0  0  0  0  1  0  0  0  0  0  0
  1  6  1  0  0  0  0
  2  1  1  0  0  0  0
  2 26  1  0  0  0  0
  3  8  1  0  0  0  0
  4  1  2  0  0  0  0
  4  3  1  0  0  0  0
  5  4  1  0  0  0  0
  6  8  2  0  0  0  0
  7  2  2  0  0  0  0
  8 21  1  0  0  0  0
  9  5  2  0  0  0  0
  9  7  1  0  0  0  0
 10 15  2  0  0  0  0
 10 12  1  0  0  0  0
 11 14  2  0  0  0  0
 12  9  1  1  0  0  0
 13 14  1  0  0  0  0
 13 10  1  0  0  0  0
 14 17  1  0  0  0  0
 16 11  1  0  0  0  0
 17 12  1  0  0  0  0
 18 16  1  0  0  0  0
 18 11  1  0  0  0  0
 20 19  2  0  0  0  0
 21 20  1  0  0  0  0
 22 20  1  0  0  0  0
 22 23  1  0  0  0  0
 23 25  2  0  0  0  0
 24 23  1  0  0  0  0
 26 27  1  0  0  0  0
 28 27  1  0  0  0  0
 28 29  2  0  0  0  0
 29 30  2  0  0  0  0
 31 30  1  0  0  0  0
 32 35  1  1  0  0  0
 32 34  1  0  0  0  0
 32 31  1  0  0  0  0
 33 34  1  0  0  0  0
 36 37  1  0  0  0  0
 37 35  1  0  0  0  0
 38 37  1  0  0  0  0
 39 40  1  0  0  0  0
 40 37  1  0  0  0  0
 41 40  1  0  0  0  0
M  END
>  <MODEL>
3

>  <REMARK>
 VINA RESULT:      -7.7      3.177      7.973
  Name = 
  13 active torsions:
  status: ('A' for Active; 'I' for Inactive)
    1  A    between atoms: C_2  and  C_4
    2  A    between atoms: C_2  and  C_33
    3  A    between atoms: O_8  and  C_13
    4  A    between atoms: O_8  and  C_34
    5  A    between atoms: C_9  and  C_32
    6  A    between atoms: C_11  and  C_33
    7  A    between atoms: C_14  and  C_40
    8  A    between atoms: N_15  and  C_37
    9  A    between atoms: N_19  and  C_32
   10  A    between atoms: N_19  and  C_39
   11  A    between atoms: C_20  and  C_29
   12  A    between atoms: C_20  and  C_32
   13  A    between atoms: C_26  and  C_29
                            x       y       z     vdW  Elec       q    Type
                         _______ _______ _______ _____ _____    ______ ____

>  <TORSDO>
F 13

$$$$
=
 OpenBabel11042413343D

 41 44  0  0  1  0  0  0  0  0999 V2000
  188.3140  177.4410  138.1880 C   0  0  0  0  0  0  0  0  0  0  0  0
  189.5610  177.3540  138.8240 C   0  0  0  0  0  0  0  0  0  0  0  0
  186.5810  177.1970  136.3840 S   0  0  0  0  0  0  0  0  0  0  0  0
  188.1590  176.9620  136.8940 C   0  0  0  0  0  0  0  0  0  0  0  0
  189.2090  176.3910  136.1830 C   0  0  0  0  0  3  0  0  0  0  0  0
  187.1430  177.9870  138.7330 C   0  0  0  0  0  3  0  0  0  0  0  0
  190.6350  176.7830  138.1210 C   0  0  0  0  0  3  0  0  0  0  0  0
  186.0820  177.9200  137.8330 C   0  0  0  0  0  0  0  0  0  0  0  0
  190.4630  176.2990  136.8060 C   0  0  0  0  0  0  0  0  0  0  0  0
  191.4810  174.2090  135.9560 C   0  0  0  0  0  0  0  0  0  0  0  0
  194.4750  173.8550  137.8700 C   0  0  0  0  0  0  0  0  0  0  0  0
  191.6070  175.6960  136.0480 C   0  0  2  0  0  3  0  0  0  0  0  0
  192.4970  173.4520  136.5860 N   0  0  0  0  0  2  0  0  0  0  0  0
  193.4600  174.3180  137.1560 C   0  0  0  0  0  0  0  0  0  0  0  0
  190.5290  173.6510  135.3500 O   0  0  0  0  0  0  0  0  0  0  0  0
  195.7360  174.0540  138.7040 C   0  0  0  0  0  2  0  0  0  0  0  0
  193.2000  176.0650  136.8850 S   0  0  0  0  0  0  0  0  0  0  0  0
  195.2810  172.7190  138.4890 C   0  0  0  0  0  2  0  0  0  0  0  0
  183.1780  179.4940  139.4180 O   0  0  0  0  0  0  0  0  0  0  0  0
  184.3810  179.1380  139.3000 C   0  0  0  0  0  0  0  0  0  0  0  0
  184.7670  178.4020  138.1360 N   0  0  0  0  0  2  0  0  0  0  0  0
  185.3230  179.4550  140.2900 O   0  0  0  0  0  0  0  0  0  0  0  0
  185.3950  178.8530  141.5520 C   0  0  0  0  0  0  0  0  0  0  0  0
  184.1960  178.4320  142.1910 N   0  0  0  0  0  1  0  0  0  0  0  0
  186.4980  178.6830  142.1360 O   0  0  0  0  0  0  0  0  0  0  0  0
  189.7760  177.8830  140.2030 C   0  0  0  0  0  2  0  0  0  0  0  0
  190.4340  176.8230  141.0670 C   0  0  0  0  0  2  0  0  0  0  0  0
  191.3210  177.4750  142.0650 C   0  0  0  0  0  3  0  0  0  0  0  0
  191.4400  176.9670  143.2580 C   0  0  0  0  0  0  0  0  0  0  0  0
  191.5550  176.4580  144.4520 C   0  0  0  0  0  3  0  0  0  0  0  0
  191.6800  177.3140  145.5830 N   0  0  0  0  0  2  0  0  0  0  0  0
  191.2440  176.8810  146.8990 C   0  0  2  0  0  3  0  0  0  0  0  0
  192.9040  176.1610  148.5300 N   0  0  0  0  0  1  0  0  0  0  0  0
  192.1370  175.7460  147.3680 C   0  0  0  0  0  2  0  0  0  0  0  0
  189.7940  176.4060  146.8350 C   0  0  0  0  0  2  0  0  0  0  0  0
  187.9670  176.7240  148.3330 O   0  0  0  0  0  1  0  0  0  0  0  0
  188.8240  177.4060  147.4670 C   0  0  0  0  0  0  0  0  0  0  0  0
  189.5360  178.3690  148.1900 O   0  0  0  0  0  1  0  0  0  0  0  0
  186.5420  178.2760  146.7740 C   0  0  0  0  0  1  0  0  0  0  0  0
  187.9950  178.0830  146.3630 C   0  0  0  0  0  3  0  0  0  0  0  0
  188.0410  177.2950  145.0640 C   0  0  0  0  0  1  0  0  0  0  0  0
  1  6  1  0  0  0  0
  1  2  1  0  0  0  0
  2 26  1  0  0  0  0
  3  4  1  0  0  0  0
  3  8  1  0  0  0  0
  4  1  2  0  0  0  0
  5  9  2  0  0  0  0
  5  4  1  0  0  0  0
  7  2  2  0  0  0  0
  8 21  1  0  0  0  0
  8  6  2  0  0  0  0
  9  7  1  0  0  0  0
 10 12  1  0  0  0  0
 10 13  1  0  0  0  0
 11 18  1  0  0  0  0
 11 16  1  0  0  0  0
 12  9  1  1  0  0  0
 12 17  1  0  0  0  0
 13 14  1  0  0  0  0
 14 11  2  0  0  0  0
 15 10  2  0  0  0  0
 17 14  1  0  0  0  0
 18 16  1  0  0  0  0
 20 19  2  0  0  0  0
 20 22  1  0  0  0  0
 21 20  1  0  0  0  0
 22 23  1  0  0  0  0
 23 25  2  0  0  0  0
 23 24  1  0  0  0  0
 26 27  1  0  0  0  0
 27 28  1  0  0  0  0
 28 29  2  0  0  0  0
 29 30  2  0  0  0  0
 30 31  1  0  0  0  0
 31 32  1  0  0  0  0
 32 35  1  6  0  0  0
 32 34  1  0  0  0  0
 34 33  1  0  0  0  0
 35 37  1  0  0  0  0
 37 38  1  0  0  0  0
 37 36  1  0  0  0  0
 40 39  1  0  0  0  0
 40 37  1  0  0  0  0
 41 40  1  0  0  0  0
M  END
>  <MODEL>
4

>  <REMARK>
 VINA RESULT:      -7.5      1.951      3.115
  Name = 
  13 active torsions:
  status: ('A' for Active; 'I' for Inactive)
    1  A    between atoms: C_2  and  C_4
    2  A    between atoms: C_2  and  C_33
    3  A    between atoms: O_8  and  C_13
    4  A    between atoms: O_8  and  C_34
    5  A    between atoms: C_9  and  C_32
    6  A    between atoms: C_11  and  C_33
    7  A    between atoms: C_14  and  C_40
    8  A    between atoms: N_15  and  C_37
    9  A    between atoms: N_19  and  C_32
   10  A    between atoms: N_19  and  C_39
   11  A    between atoms: C_20  and  C_29
   12  A    between atoms: C_20  and  C_32
   13  A    between atoms: C_26  and  C_29
                            x       y       z     vdW  Elec       q    Type
                         _______ _______ _______ _____ _____    ______ ____

>  <TORSDO>
F 13

$$$$
=
 OpenBabel11042413343D

 41 44  0  0  1  0  0  0  0  0999 V2000
  186.6540  178.4280  140.3360 C   0  0  0  0  0  0  0  0  0  0  0  0
  185.8140  178.6070  141.4440 C   0  0  0  0  0  0  0  0  0  0  0  0
  187.3380  178.1540  137.9330 S   0  0  0  0  0  0  0  0  0  0  0  0
  186.1170  178.3790  139.0570 C   0  0  0  0  0  0  0  0  0  0  0  0
  184.7500  178.4960  138.8200 C   0  0  0  0  0  3  0  0  0  0  0  0
  188.0490  178.2830  140.3690 C   0  0  0  0  0  3  0  0  0  0  0  0
  184.4310  178.7240  141.2260 C   0  0  0  0  0  3  0  0  0  0  0  0
  188.5750  178.1200  139.0900 C   0  0  0  0  0  0  0  0  0  0  0  0
  183.8970  178.6730  139.9200 C   0  0  0  0  0  0  0  0  0  0  0  0
  181.8680  177.5520  139.0520 C   0  0  0  0  0  0  0  0  0  0  0  0
  181.0060  179.4390  136.1450 C   0  0  0  0  0  0  0  0  0  0  0  0
  182.4230  178.7900  139.6820 C   0  0  2  0  0  3  0  0  0  0  0  0
  181.3170  177.6990  137.7570 N   0  0  0  0  0  2  0  0  0  0  0  0
  181.3890  179.0520  137.3530 C   0  0  0  0  0  0  0  0  0  0  0  0
  181.8840  176.4360  139.6340 O   0  0  0  0  0  0  0  0  0  0  0  0
  180.7950  180.5060  135.0770 C   0  0  0  0  0  2  0  0  0  0  0  0
  182.0610  180.1930  138.5530 S   0  0  0  0  0  0  0  0  0  0  0  0
  180.4370  179.1620  134.7580 C   0  0  0  0  0  2  0  0  0  0  0  0
  191.8860  176.7550  138.3160 O   0  0  0  0  0  0  0  0  0  0  0  0
  190.6410  176.7310  138.5160 C   0  0  0  0  0  0  0  0  0  0  0  0
  189.9750  177.9560  138.8350 N   0  0  0  0  0  2  0  0  0  0  0  0
  189.9240  175.5300  138.4290 O   0  0  0  0  0  0  0  0  0  0  0  0
  189.7000  174.8120  137.2480 C   0  0  0  0  0  0  0  0  0  0  0  0
  190.0740  173.4410  137.1860 N   0  0  0  0  0  1  0  0  0  0  0  0
  189.1810  175.3560  136.2380 O   0  0  0  0  0  0  0  0  0  0  0  0
  186.3490  178.6370  142.8370 C   0  0  0  0  0  2  0  0  0  0  0  0
  185.2100  178.5050  143.8320 C   0  0  0  0  0  2  0  0  0  0  0  0
  185.6010  177.5640  144.9140 C   0  0  0  0  0  3  0  0  0  0  0  0
  186.5900  177.8620  145.7070 C   0  0  0  0  0  0  0  0  0  0  0  0
  187.5820  178.1620  146.4980 C   0  0  0  0  0  3  0  0  0  0  0  0
  188.4640  177.1410  146.9530 N   0  0  0  0  0  2  0  0  0  0  0  0
  189.8280  177.0570  146.4600 C   0  0  2  0  0  3  0  0  0  0  0  0
  192.0340  176.4120  147.2650 N   0  0  0  0  0  1  0  0  0  0  0  0
  190.7810  177.0420  147.6410 C   0  0  0  0  0  2  0  0  0  0  0  0
  190.1300  178.2590  145.5670 C   0  0  0  0  0  2  0  0  0  0  0  0
  189.7990  178.5100  143.2190 O   0  0  0  0  0  1  0  0  0  0  0  0
  190.5820  177.8430  144.1650 C   0  0  0  0  0  0  0  0  0  0  0  0
  191.9240  178.1880  143.9750 O   0  0  0  0  0  1  0  0  0  0  0  0
  191.7050  175.6270  143.6450 C   0  0  0  0  0  1  0  0  0  0  0  0
  190.3990  176.3270  143.9960 C   0  0  0  0  0  3  0  0  0  0  0  0
  189.3630  176.0020  142.9310 C   0  0  0  0  0  1  0  0  0  0  0  0
  1  6  1  0  0  0  0
  1  2  1  0  0  0  0
  2 26  1  0  0  0  0
  3  4  1  0  0  0  0
  3  8  1  0  0  0  0
  4  1  2  0  0  0  0
  5  4  1  0  0  0  0
  5  9  2  0  0  0  0
  7  2  2  0  0  0  0
  8  6  2  0  0  0  0
  9  7  1  0  0  0  0
 10 15  2  0  0  0  0
 10 12  1  0  0  0  0
 11 14  2  0  0  0  0
 12  9  1  6  0  0  0
 13 10  1  0  0  0  0
 14 13  1  0  0  0  0
 14 17  1  0  0  0  0
 16 11  1  0  0  0  0
 17 12  1  0  0  0  0
 18 16  1  0  0  0  0
 18 11  1  0  0  0  0
 19 20  2  0  0  0  0
 20 21  1  0  0  0  0
 21  8  1  0  0  0  0
 22 20  1  0  0  0  0
 23 22  1  0  0  0  0
 24 23  1  0  0  0  0
 25 23  2  0  0  0  0
 26 27  1  0  0  0  0
 27 28  1  0  0  0  0
 28 29  2  0  0  0  0
 29 30  2  0  0  0  0
 30 31  1  0  0  0  0
 32 35  1  6  0  0  0
 32 31  1  0  0  0  0
 32 34  1  0  0  0  0
 33 34  1  0  0  0  0
 36 37  1  0  0  0  0
 37 35  1  0  0  0  0
 38 37  1  0  0  0  0
 39 40  1  0  0  0  0
 40 37  1  0  0  0  0
 41 40  1  0  0  0  0
M  END
>  <MODEL>
5

>  <REMARK>
 VINA RESULT:      -7.5      2.799      7.449
  Name = 
  13 active torsions:
  status: ('A' for Active; 'I' for Inactive)
    1  A    between atoms: C_2  and  C_4
    2  A    between atoms: C_2  and  C_33
    3  A    between atoms: O_8  and  C_13
    4  A    between atoms: O_8  and  C_34
    5  A    between atoms: C_9  and  C_32
    6  A    between atoms: C_11  and  C_33
    7  A    between atoms: C_14  and  C_40
    8  A    between atoms: N_15  and  C_37
    9  A    between atoms: N_19  and  C_32
   10  A    between atoms: N_19  and  C_39
   11  A    between atoms: C_20  and  C_29
   12  A    between atoms: C_20  and  C_32
   13  A    between atoms: C_26  and  C_29
                            x       y       z     vdW  Elec       q    Type
                         _______ _______ _______ _____ _____    ______ ____

>  <TORSDO>
F 13

$$$$
=
 OpenBabel11042413343D

 41 44  0  0  1  0  0  0  0  0999 V2000
  189.0400  177.4630  140.7390 C   0  0  0  0  0  0  0  0  0  0  0  0
  188.5880  177.7140  139.4360 C   0  0  0  0  0  0  0  0  0  0  0  0
  190.5580  176.6780  142.5830 S   0  0  0  0  0  0  0  0  0  0  0  0
  190.2750  176.8620  140.9420 C   0  0  0  0  0  0  0  0  0  0  0  0
  191.1000  176.4840  139.8870 C   0  0  0  0  0  3  0  0  0  0  0  0
  188.3550  177.7610  141.9260 C   0  0  0  0  0  3  0  0  0  0  0  0
  189.4050  177.3380  138.3570 C   0  0  0  0  0  3  0  0  0  0  0  0
  189.0860  177.3770  143.0470 C   0  0  0  0  0  0  0  0  0  0  0  0
  190.6590  176.7280  138.5770 C   0  0  0  0  0  0  0  0  0  0  0  0
  191.2350  174.9190  136.9880 C   0  0  0  0  0  0  0  0  0  0  0  0
  194.5330  173.9380  137.9440 C   0  0  0  0  0  0  0  0  0  0  0  0
  191.5310  176.3170  137.4310 C   0  0  2  0  0  3  0  0  0  0  0  0
  192.2840  173.9800  137.1300 N   0  0  0  0  0  2  0  0  0  0  0  0
  193.4350  174.6170  137.6490 C   0  0  0  0  0  0  0  0  0  0  0  0
  190.1180  174.5870  136.5130 O   0  0  0  0  0  0  0  0  0  0  0  0
  195.9640  173.8500  138.4630 C   0  0  0  0  0  2  0  0  0  0  0  0
  193.3030  176.3800  137.9140 S   0  0  0  0  0  0  0  0  0  0  0  0
  195.3370  172.6450  138.0280 C   0  0  0  0  0  2  0  0  0  0  0  0
  188.8650  177.8180  146.6780 O   0  0  0  0  0  0  0  0  0  0  0  0
  189.4300  177.6390  145.5650 C   0  0  0  0  0  0  0  0  0  0  0  0
  188.6210  177.5700  144.3890 N   0  0  0  0  0  2  0  0  0  0  0  0
  190.8240  177.5110  145.4830 O   0  0  0  0  0  0  0  0  0  0  0  0
  191.5880  176.5760  146.1920 C   0  0  0  0  0  0  0  0  0  0  0  0
  191.8480  176.7960  147.5730 N   0  0  0  0  0  1  0  0  0  0  0  0
  192.0550  175.5490  145.6320 O   0  0  0  0  0  0  0  0  0  0  0  0
  187.2550  178.3330  139.1750 C   0  0  0  0  0  2  0  0  0  0  0  0
  186.7140  177.8520  137.8410 C   0  0  0  0  0  2  0  0  0  0  0  0
  185.2340  177.7370  137.9160 C   0  0  0  0  0  3  0  0  0  0  0  0
  184.5390  178.6690  138.5020 C   0  0  0  0  0  0  0  0  0  0  0  0
  183.8470  179.6020  139.0920 C   0  0  0  0  0  3  0  0  0  0  0  0
  182.6980  179.2590  139.8600 N   0  0  0  0  0  2  0  0  0  0  0  0
  182.7840  178.2950  140.9430 C   0  0  2  0  0  3  0  0  0  0  0  0
  180.4650  178.3260  141.6870 N   0  0  0  0  0  1  0  0  0  0  0  0
  181.4780  177.5240  141.0240 C   0  0  0  0  0  2  0  0  0  0  0  0
  183.0390  179.0180  142.2630 C   0  0  0  0  0  2  0  0  0  0  0  0
  184.9050  177.5510  142.4860 O   0  0  0  0  0  1  0  0  0  0  0  0
  184.4830  178.8570  142.7450 C   0  0  0  0  0  0  0  0  0  0  0  0
  185.3150  179.7520  142.0650 O   0  0  0  0  0  1  0  0  0  0  0  0
  185.5360  178.1970  144.9580 C   0  0  0  0  0  1  0  0  0  0  0  0
  184.5500  179.1210  144.2580 C   0  0  0  0  0  3  0  0  0  0  0  0
  183.1860  178.9770  144.9140 C   0  0  0  0  0  1  0  0  0  0  0  0
  1  4  1  0  0  0  0
  1  6  1  0  0  0  0
  2  1  2  0  0  0  0
  3  8  1  0  0  0  0
  4  3  1  0  0  0  0
  5  4  2  0  0  0  0
  6  8  2  0  0  0  0
  7  9  2  0  0  0  0
  7  2  1  0  0  0  0
  8 21  1  0  0  0  0
  9  5  1  0  0  0  0
 10 13  1  0  0  0  0
 10 12  1  0  0  0  0
 11 18  1  0  0  0  0
 11 16  1  0  0  0  0
 12 17  1  0  0  0  0
 12  9  1  1  0  0  0
 13 14  1  0  0  0  0
 14 17  1  0  0  0  0
 14 11  2  0  0  0  0
 15 10  2  0  0  0  0
 18 16  1  0  0  0  0
 20 19  2  0  0  0  0
 21 20  1  0  0  0  0
 22 20  1  0  0  0  0
 22 23  1  0  0  0  0
 23 24  1  0  0  0  0
 25 23  2  0  0  0  0
 26  2  1  0  0  0  0
 27 28  1  0  0  0  0
 27 26  1  0  0  0  0
 28 29  2  0  0  0  0
 29 30  2  0  0  0  0
 30 31  1  0  0  0  0
 31 32  1  0  0  0  0
 32 34  1  1  0  0  0
 32 35  1  0  0  0  0
 34 33  1  0  0  0  0
 35 37  1  0  0  0  0
 36 37  1  0  0  0  0
 37 40  1  0  0  0  0
 38 37  1  0  0  0  0
 40 41  1  0  0  0  0
 40 39  1  0  0  0  0
M  END
>  <MODEL>
6

>  <REMARK>
 VINA RESULT:      -7.3      2.278      6.046
  Name = 
  13 active torsions:
  status: ('A' for Active; 'I' for Inactive)
    1  A    between atoms: C_2  and  C_4
    2  A    between atoms: C_2  and  C_33
    3  A    between atoms: O_8  and  C_13
    4  A    between atoms: O_8  and  C_34
    5  A    between atoms: C_9  and  C_32
    6  A    between atoms: C_11  and  C_33
    7  A    between atoms: C_14  and  C_40
    8  A    between atoms: N_15  and  C_37
    9  A    between atoms: N_19  and  C_32
   10  A    between atoms: N_19  and  C_39
   11  A    between atoms: C_20  and  C_29
   12  A    between atoms: C_20  and  C_32
   13  A    between atoms: C_26  and  C_29
                            x       y       z     vdW  Elec       q    Type
                         _______ _______ _______ _____ _____    ______ ____

>  <TORSDO>
F 13

$$$$
=
 OpenBabel11042413343D

 41 44  0  0  1  0  0  0  0  0999 V2000
  185.6570  178.4830  143.9080 C   0  0  0  0  0  0  0  0  0  0  0  0
  185.9280  178.4880  142.5320 C   0  0  0  0  0  0  0  0  0  0  0  0
  184.3190  178.5810  146.0340 S   0  0  0  0  0  0  0  0  0  0  0  0
  184.3510  178.6150  144.3590 C   0  0  0  0  0  0  0  0  0  0  0  0
  183.2750  178.7620  143.4890 C   0  0  0  0  0  3  0  0  0  0  0  0
  186.6000  178.3540  144.9370 C   0  0  0  0  0  3  0  0  0  0  0  0
  184.8560  178.6380  141.6370 C   0  0  0  0  0  3  0  0  0  0  0  0
  185.9950  178.3920  146.1910 C   0  0  0  0  0  0  0  0  0  0  0  0
  183.5320  178.7720  142.1090 C   0  0  0  0  0  0  0  0  0  0  0  0
  181.0760  178.9750  141.8810 C   0  0  0  0  0  0  0  0  0  0  0  0
  180.1020  175.9660  140.2220 C   0  0  0  0  0  0  0  0  0  0  0  0
  182.3850  178.9400  141.1600 C   0  0  2  0  0  3  0  0  0  0  0  0
  180.1700  177.9280  141.5900 N   0  0  0  0  0  2  0  0  0  0  0  0
  180.7240  177.0680  140.6130 C   0  0  0  0  0  0  0  0  0  0  0  0
  180.7840  179.8830  142.7020 O   0  0  0  0  0  0  0  0  0  0  0  0
  180.0100  174.6970  139.3810 C   0  0  0  0  0  2  0  0  0  0  0  0
  182.3230  177.5410  139.9700 S   0  0  0  0  0  0  0  0  0  0  0  0
  178.9310  174.9910  140.2670 C   0  0  0  0  0  2  0  0  0  0  0  0
  188.5160  177.6300  148.7380 O   0  0  0  0  0  0  0  0  0  0  0  0
  188.0000  177.6440  147.5890 C   0  0  0  0  0  0  0  0  0  0  0  0
  186.7280  178.2760  147.4170 N   0  0  0  0  0  2  0  0  0  0  0  0
  188.6570  177.0530  146.5000 O   0  0  0  0  0  0  0  0  0  0  0  0
  189.9910  177.2860  146.1450 C   0  0  0  0  0  0  0  0  0  0  0  0
  190.2770  178.1300  145.0360 N   0  0  0  0  0  1  0  0  0  0  0  0
  190.9410  176.7580  146.7810 O   0  0  0  0  0  0  0  0  0  0  0  0
  187.3200  178.3770  142.0070 C   0  0  0  0  0  2  0  0  0  0  0  0
  187.9680  177.1050  142.5220 C   0  0  0  0  0  2  0  0  0  0  0  0
  189.1550  176.7780  141.6900 C   0  0  0  0  0  3  0  0  0  0  0  0
  189.3620  177.4180  140.5750 C   0  0  0  0  0  0  0  0  0  0  0  0
  189.5650  178.0570  139.4580 C   0  0  0  0  0  3  0  0  0  0  0  0
  190.1000  177.3710  138.3310 N   0  0  0  0  0  2  0  0  0  0  0  0
  189.2300  176.6930  137.3860 C   0  0  2  0  0  3  0  0  0  0  0  0
  190.6380  174.7900  137.9570 N   0  0  0  0  0  1  0  0  0  0  0  0
  189.9310  175.4480  136.8730 C   0  0  0  0  0  2  0  0  0  0  0  0
  188.9070  177.6230  136.2190 C   0  0  0  0  0  2  0  0  0  0  0  0
  187.5600  179.4910  136.8350 O   0  0  0  0  0  1  0  0  0  0  0  0
  187.4920  178.1990  136.3070 C   0  0  0  0  0  0  0  0  0  0  0  0
  186.9190  178.2540  135.0320 O   0  0  0  0  0  1  0  0  0  0  0  0
  185.6770  176.4310  136.4520 C   0  0  0  0  0  1  0  0  0  0  0  0
  186.6360  177.3190  137.2320 C   0  0  0  0  0  3  0  0  0  0  0  0
  185.8420  178.1530  138.2240 C   0  0  0  0  0  1  0  0  0  0  0  0
  1  4  1  0  0  0  0
  1  6  1  0  0  0  0
  2  1  2  0  0  0  0
  3  8  1  0  0  0  0
  4  3  1  0  0  0  0
  5  4  2  0  0  0  0
  6  8  2  0  0  0  0
  7  9  2  0  0  0  0
  7  2  1  0  0  0  0
  8 21  1  0  0  0  0
  9  5  1  0  0  0  0
 10 15  2  0  0  0  0
 11 18  1  0  0  0  0
 11 14  2  0  0  0  0
 12 10  1  0  0  0  0
 12  9  1  1  0  0  0
 13 10  1  0  0  0  0
 14 13  1  0  0  0  0
 16 11  1  0  0  0  0
 16 18  1  0  0  0  0
 17 14  1  0  0  0  0
 17 12  1  0  0  0  0
 20 19  2  0  0  0  0
 21 20  1  0  0  0  0
 22 20  1  0  0  0  0
 23 22  1  0  0  0  0
 23 25  2  0  0  0  0
 24 23  1  0  0  0  0
 26 27  1  0  0  0  0
 26  2  1  0  0  0  0
 28 27  1  0  0  0  0
 29 28  2  0  0  0  0
 30 29  2  0  0  0  0
 31 30  1  0  0  0  0
 32 35  1  6  0  0  0
 32 31  1  0  0  0  0
 34 32  1  0  0  0  0
 34 33  1  0  0  0  0
 35 37  1  0  0  0  0
 37 36  1  0  0  0  0
 37 40  1  0  0  0  0
 38 37  1  0  0  0  0
 39 40  1  0  0  0  0
 40 41  1  0  0  0  0
M  END
>  <MODEL>
7

>  <REMARK>
 VINA RESULT:      -7.3      3.253      9.839
  Name = 
  13 active torsions:
  status: ('A' for Active; 'I' for Inactive)
    1  A    between atoms: C_2  and  C_4
    2  A    between atoms: C_2  and  C_33
    3  A    between atoms: O_8  and  C_13
    4  A    between atoms: O_8  and  C_34
    5  A    between atoms: C_9  and  C_32
    6  A    between atoms: C_11  and  C_33
    7  A    between atoms: C_14  and  C_40
    8  A    between atoms: N_15  and  C_37
    9  A    between atoms: N_19  and  C_32
   10  A    between atoms: N_19  and  C_39
   11  A    between atoms: C_20  and  C_29
   12  A    between atoms: C_20  and  C_32
   13  A    between atoms: C_26  and  C_29
                            x       y       z     vdW  Elec       q    Type
                         _______ _______ _______ _____ _____    ______ ____

>  <TORSDO>
F 13

$$$$
=
 OpenBabel11042413343D

 41 44  0  0  1  0  0  0  0  0999 V2000
  186.2900  178.5950  140.3470 C   0  0  0  0  0  0  0  0  0  0  0  0
  185.2400  178.9370  141.2100 C   0  0  0  0  0  0  0  0  0  0  0  0
  187.4490  177.8720  138.2360 S   0  0  0  0  0  0  0  0  0  0  0  0
  186.0200  178.2310  139.0340 C   0  0  0  0  0  0  0  0  0  0  0  0
  184.7250  178.1830  138.5280 C   0  0  0  0  0  3  0  0  0  0  0  0
  187.6550  178.5750  140.6690 C   0  0  0  0  0  3  0  0  0  0  0  0
  183.9250  178.8920  140.7190 C   0  0  0  0  0  3  0  0  0  0  0  0
  188.4310  178.1860  139.5800 C   0  0  0  0  0  0  0  0  0  0  0  0
  183.6640  178.5210  139.3820 C   0  0  0  0  0  0  0  0  0  0  0  0
  181.2570  178.5050  139.9600 C   0  0  0  0  0  0  0  0  0  0  0  0
  180.1670  175.2230  139.0690 C   0  0  0  0  0  0  0  0  0  0  0  0
  182.2630  178.4640  138.8540 C   0  0  2  0  0  3  0  0  0  0  0  0
  180.4350  177.3630  140.1060 N   0  0  0  0  0  2  0  0  0  0  0  0
  180.7470  176.4140  139.1040 C   0  0  0  0  0  0  0  0  0  0  0  0
  181.1380  179.4990  140.7230 O   0  0  0  0  0  0  0  0  0  0  0  0
  179.9620  173.8430  138.4550 C   0  0  0  0  0  2  0  0  0  0  0  0
  181.9900  176.9060  137.9180 S   0  0  0  0  0  0  0  0  0  0  0  0
  179.1940  174.1810  139.6090 C   0  0  0  0  0  2  0  0  0  0  0  0
  191.9030  177.0500  139.3000 O   0  0  0  0  0  0  0  0  0  0  0  0
  190.6490  176.9810  139.1860 C   0  0  0  0  0  0  0  0  0  0  0  0
  189.8590  178.0860  139.6330 N   0  0  0  0  0  2  0  0  0  0  0  0
  190.0410  175.8460  138.6320 O   0  0  0  0  0  0  0  0  0  0  0  0
  190.2810  175.3540  137.3430 C   0  0  0  0  0  0  0  0  0  0  0  0
  190.4300  176.2700  136.2660 N   0  0  0  0  0  1  0  0  0  0  0  0
  190.3620  174.1170  137.1170 O   0  0  0  0  0  0  0  0  0  0  0  0
  185.4860  179.3060  142.6350 C   0  0  0  0  0  2  0  0  0  0  0  0
  184.1810  179.2730  143.4110 C   0  0  0  0  0  2  0  0  0  0  0  0
  184.3450  178.4320  144.6250 C   0  0  0  0  0  3  0  0  0  0  0  0
  185.4240  178.5380  145.3480 C   0  0  0  0  0  0  0  0  0  0  0  0
  186.5050  178.6440  146.0670 C   0  0  0  0  0  3  0  0  0  0  0  0
  187.0770  177.4870  146.6690 N   0  0  0  0  0  2  0  0  0  0  0  0
  188.4920  177.1920  146.5250 C   0  0  2  0  0  3  0  0  0  0  0  0
  188.2320  177.9100  148.8380 N   0  0  0  0  0  1  0  0  0  0  0  0
  189.1990  177.5110  147.8300 C   0  0  0  0  0  2  0  0  0  0  0  0
  189.0850  178.0340  145.3970 C   0  0  0  0  0  2  0  0  0  0  0  0
  190.5410  176.2310  144.8380 O   0  0  0  0  0  1  0  0  0  0  0  0
  189.6760  177.1740  144.2780 C   0  0  0  0  0  0  0  0  0  0  0  0
  188.6520  176.5090  143.5960 O   0  0  0  0  0  1  0  0  0  0  0  0
  191.6890  177.3640  142.7430 C   0  0  0  0  0  1  0  0  0  0  0  0
  190.4620  178.0680  143.3060 C   0  0  0  0  0  3  0  0  0  0  0  0
  190.8960  179.3680  143.9650 C   0  0  0  0  0  1  0  0  0  0  0  0
  1  6  1  0  0  0  0
  1  2  1  0  0  0  0
  2 26  1  0  0  0  0
  3  4  1  0  0  0  0
  3  8  1  0  0  0  0
  4  1  2  0  0  0  0
  5  4  1  0  0  0  0
  5  9  2  0  0  0  0
  7  2  2  0  0  0  0
  8 21  1  0  0  0  0
  8  6  2  0  0  0  0
  9  7  1  0  0  0  0
 10 13  1  0  0  0  0
 10 15  2  0  0  0  0
 11 14  2  0  0  0  0
 11 18  1  0  0  0  0
 12  9  1  1  0  0  0
 12 10  1  0  0  0  0
 14 13  1  0  0  0  0
 16 11  1  0  0  0  0
 16 18  1  0  0  0  0
 17 12  1  0  0  0  0
 17 14  1  0  0  0  0
 20 19  2  0  0  0  0
 20 21  1  0  0  0  0
 22 20  1  0  0  0  0
 23 22  1  0  0  0  0
 24 23  1  0  0  0  0
 25 23  2  0  0  0  0
 26 27  1  0  0  0  0
 27 28  1  0  0  0  0
 28 29  2  0  0  0  0
 29 30  2  0  0  0  0
 30 31  1  0  0  0  0
 32 35  1  6  0  0  0
 32 31  1  0  0  0  0
 32 34  1  0  0  0  0
 34 33  1  0  0  0  0
 37 36  1  0  0  0  0
 37 35  1  0  0  0  0
 38 37  1  0  0  0  0
 39 40  1  0  0  0  0
 40 41  1  0  0  0  0
 40 37  1  0  0  0  0
M  END
>  <MODEL>
8

>  <REMARK>
 VINA RESULT:      -7.2      2.662      7.482
  Name = 
  13 active torsions:
  status: ('A' for Active; 'I' for Inactive)
    1  A    between atoms: C_2  and  C_4
    2  A    between atoms: C_2  and  C_33
    3  A    between atoms: O_8  and  C_13
    4  A    between atoms: O_8  and  C_34
    5  A    between atoms: C_9  and  C_32
    6  A    between atoms: C_11  and  C_33
    7  A    between atoms: C_14  and  C_40
    8  A    between atoms: N_15  and  C_37
    9  A    between atoms: N_19  and  C_32
   10  A    between atoms: N_19  and  C_39
   11  A    between atoms: C_20  and  C_29
   12  A    between atoms: C_20  and  C_32
   13  A    between atoms: C_26  and  C_29
                            x       y       z     vdW  Elec       q    Type
                         _______ _______ _______ _____ _____    ______ ____

>  <TORSDO>
F 13

$$$$
=
 OpenBabel11042413343D

 41 44  0  0  1  0  0  0  0  0999 V2000
  188.9630  177.8910  142.1970 C   0  0  0  0  0  0  0  0  0  0  0  0
  187.8730  178.3730  141.4590 C   0  0  0  0  0  0  0  0  0  0  0  0
  191.1750  176.7910  142.6640 S   0  0  0  0  0  0  0  0  0  0  0  0
  190.0210  177.2690  141.5470 C   0  0  0  0  0  0  0  0  0  0  0  0
  190.0460  177.0950  140.1670 C   0  0  0  0  0  3  0  0  0  0  0  0
  189.1200  177.9650  143.5890 C   0  0  0  0  0  3  0  0  0  0  0  0
  187.8780  178.2040  140.0650 C   0  0  0  0  0  3  0  0  0  0  0  0
  190.3180  177.3860  143.9990 C   0  0  0  0  0  0  0  0  0  0  0  0
  188.9600  177.5710  139.4160 C   0  0  0  0  0  0  0  0  0  0  0  0
  188.4690  178.5970  137.2180 C   0  0  0  0  0  0  0  0  0  0  0  0
  185.7010  176.7130  135.9760 C   0  0  0  0  0  0  0  0  0  0  0  0
  188.9670  177.3800  137.9310 C   0  0  2  0  0  3  0  0  0  0  0  0
  187.2800  178.4420  136.4650 N   0  0  0  0  0  2  0  0  0  0  0  0
  186.8370  177.1000  136.5360 C   0  0  0  0  0  0  0  0  0  0  0  0
  189.0670  179.7020  137.2760 O   0  0  0  0  0  0  0  0  0  0  0  0
  184.6560  175.6530  135.6420 C   0  0  0  0  0  2  0  0  0  0  0  0
  187.8800  175.9770  137.4550 S   0  0  0  0  0  0  0  0  0  0  0  0
  184.4350  176.9810  135.1700 C   0  0  0  0  0  2  0  0  0  0  0  0
  190.4020  177.1100  147.6510 O   0  0  0  0  0  0  0  0  0  0  0  0
  189.8810  177.1400  146.5040 C   0  0  0  0  0  0  0  0  0  0  0  0
  190.7310  177.3290  145.3700 N   0  0  0  0  0  2  0  0  0  0  0  0
  188.4960  176.9900  146.3420 O   0  0  0  0  0  0  0  0  0  0  0  0
  187.5260  177.8160  146.9210 C   0  0  0  0  0  0  0  0  0  0  0  0
  186.4140  178.2350  146.1400 N   0  0  0  0  0  1  0  0  0  0  0  0
  187.6200  178.2010  148.1170 O   0  0  0  0  0  0  0  0  0  0  0  0
  186.7040  179.0220  142.1230 C   0  0  0  0  0  2  0  0  0  0  0  0
  185.6750  177.9720  142.5010 C   0  0  0  0  0  2  0  0  0  0  0  0
  184.3530  178.3420  141.9330 C   0  0  0  0  0  3  0  0  0  0  0  0
  184.2740  178.7910  140.7130 C   0  0  0  0  0  0  0  0  0  0  0  0
  184.1980  179.2420  139.4930 C   0  0  0  0  0  3  0  0  0  0  0  0
  183.2650  180.2680  139.1700 N   0  0  0  0  0  2  0  0  0  0  0  0
  181.9620  179.9450  138.6150 C   0  0  2  0  0  3  0  0  0  0  0  0
  181.1390  181.8070  137.2780 N   0  0  0  0  0  1  0  0  0  0  0  0
  181.1070  181.2000  138.5970 C   0  0  0  0  0  2  0  0  0  0  0  0
  181.2870  178.8730  139.4680 C   0  0  0  0  0  2  0  0  0  0  0  0
  179.7560  177.3410  138.4700 O   0  0  0  0  0  1  0  0  0  0  0  0
  181.1160  177.5520  138.7140 C   0  0  0  0  0  0  0  0  0  0  0  0
  181.7980  177.6070  137.4940 O   0  0  0  0  0  1  0  0  0  0  0  0
  182.8570  175.7160  138.9200 C   0  0  0  0  0  1  0  0  0  0  0  0
  181.6620  176.3990  139.5710 C   0  0  0  0  0  3  0  0  0  0  0  0
  180.5920  175.3560  139.8560 C   0  0  0  0  0  1  0  0  0  0  0  0
  1  6  1  0  0  0  0
  2 26  1  0  0  0  0
  2  1  2  0  0  0  0
  3  8  1  0  0  0  0
  4  1  1  0  0  0  0
  4  3  1  0  0  0  0
  5  4  2  0  0  0  0
  6  8  2  0  0  0  0
  7  2  1  0  0  0  0
  8 21  1  0  0  0  0
  9  7  2  0  0  0  0
  9  5  1  0  0  0  0
 10 15  2  0  0  0  0
 10 12  1  0  0  0  0
 11 14  2  0  0  0  0
 12  9  1  1  0  0  0
 13 14  1  0  0  0  0
 13 10  1  0  0  0  0
 14 17  1  0  0  0  0
 16 11  1  0  0  0  0
 17 12  1  0  0  0  0
 18 16  1  0  0  0  0
 18 11  1  0  0  0  0
 20 19  2  0  0  0  0
 21 20  1  0  0  0  0
 22 20  1  0  0  0  0
 22 23  1  0  0  0  0
 23 25  2  0  0  0  0
 24 23  1  0  0  0  0
 26 27  1  0  0  0  0
 28 27  1  0  0  0  0
 29 28  2  0  0  0  0
 30 29  2  0  0  0  0
 31 30  1  0  0  0  0
 32 34  1  1  0  0  0
 32 31  1  0  0  0  0
 32 35  1  0  0  0  0
 33 34  1  0  0  0  0
 36 37  1  0  0  0  0
 37 35  1  0  0  0  0
 37 40  1  0  0  0  0
 38 37  1  0  0  0  0
 39 40  1  0  0  0  0
 40 41  1  0  0  0  0
M  END
>  <MODEL>
9

>  <REMARK>
 VINA RESULT:      -7.2      3.020      8.206
  Name = 
  13 active torsions:
  status: ('A' for Active; 'I' for Inactive)
    1  A    between atoms: C_2  and  C_4
    2  A    between atoms: C_2  and  C_33
    3  A    between atoms: O_8  and  C_13
    4  A    between atoms: O_8  and  C_34
    5  A    between atoms: C_9  and  C_32
    6  A    between atoms: C_11  and  C_33
    7  A    between atoms: C_14  and  C_40
    8  A    between atoms: N_15  and  C_37
    9  A    between atoms: N_19  and  C_32
   10  A    between atoms: N_19  and  C_39
   11  A    between atoms: C_20  and  C_29
   12  A    between atoms: C_20  and  C_32
   13  A    between atoms: C_26  and  C_29
                            x       y       z     vdW  Elec       q    Type
                         _______ _______ _______ _____ _____    ______ ____

>  <TORSDO>
F 13

$$$$
