=
 OpenBabel11042412013D

 28 33  0  0  1  0  0  0  0  0999 V2000
  190.3810  176.7960  144.1820 C   0  0  0  0  0  0  0  0  0  0  0  0
  187.9430  177.8140  142.6520 N   0  0  0  0  0  0  0  0  0  0  0  0
  191.4400  176.3930  145.0020 C   0  0  0  0  0  3  0  0  0  0  0  0
  188.8110  177.5230  141.5740 C   0  0  0  0  0  0  0  0  0  0  0  0
  191.3350  176.3630  146.3790 C   0  0  0  0  0  0  0  0  0  0  0  0
  190.0280  177.0330  141.6630 C   0  0  0  0  0  3  0  0  0  0  0  0
  192.6920  175.8510  147.3570 Cl  0  0  0  0  0  0  0  0  0  0  0  0
  184.6060  178.5410  145.0600 C   0  0  0  0  0  1  0  0  0  0  0  0
  190.7300  176.7240  142.8960 C   0  0  0  0  0  3  0  0  0  0  0  0
  189.1130  177.1670  144.7680 C   0  0  0  0  0  0  0  0  0  0  0  0
  188.3430  176.3190  138.0740 C   0  0  0  0  0  3  0  0  0  0  0  0
  187.9820  177.4600  144.0450 C   0  0  0  0  0  0  0  0  0  0  0  0
  188.1000  177.8790  140.3260 C   0  0  1  0  0  0  0  0  0  0  0  0
  189.0720  177.1850  146.2140 C   0  0  0  0  0  0  0  0  0  0  0  0
  185.8540  178.6230  144.3170 N   0  0  0  0  0  0  0  0  0  0  0  0
  189.0410  177.0130  137.0180 C   0  0  0  0  0  0  0  0  0  0  0  0
  189.2440  176.3300  135.7870 N   0  0  0  0  0  1  0  0  0  0  0  0
  188.7660  178.4920  139.2650 C   0  0  0  0  0  0  0  0  0  0  0  0
  189.4190  179.1380  138.2720 C   0  0  0  0  0  3  0  0  0  0  0  0
  187.7920  177.8810  147.2130 Cl  0  0  0  0  0  0  0  0  0  0  0  0
  189.5290  178.3300  137.1480 N   0  0  0  0  0  0  0  0  0  0  0  0
  185.5190  178.6120  142.8840 C   0  0  1  0  0  3  0  0  0  0  0  0
  184.9660  179.9050  142.5030 N   0  0  0  0  0  1  0  0  0  0  0  0
  186.6070  177.4170  144.6660 C   0  0  0  0  0  2  0  0  0  0  0  0
  188.2470  177.1260  139.1620 C   0  0  0  0  0  0  0  0  0  0  0  0
  186.7580  178.3660  140.7180 C   0  0  0  0  0  3  0  0  0  0  0  0
  186.7390  178.3230  142.0540 C   0  0  0  0  0  0  0  0  0  0  0  0
  190.1650  176.7790  146.9770 C   0  0  0  0  0  3  0  0  0  0  0  0
  1 10  1  0  0  0  0
  1  3  1  0  0  0  0
  2 12  1  0  0  0  0
  3  5  2  0  0  0  0
  4  6  2  0  0  0  0
  4  2  1  0  0  0  0
  5 28  1  0  0  0  0
  5  7  1  0  0  0  0
  6  9  1  0  0  0  0
  9  1  2  0  0  0  0
 10 14  1  0  0  0  0
 11 25  1  0  0  0  0
 12 24  1  0  0  0  0
 12 10  2  0  0  0  0
 13 26  1  1  0  0  0
 13  4  1  0  0  0  0
 14 28  2  0  0  0  0
 14 20  1  0  0  0  0
 15 24  1  0  0  0  0
 15  8  1  0  0  0  0
 16 21  1  0  0  0  0
 16 11  2  0  0  0  0
 17 16  1  0  0  0  0
 18 13  1  0  0  0  0
 19 18  1  0  0  0  0
 21 19  2  0  0  0  0
 22 23  1  6  0  0  0
 22 15  1  0  0  0  0
 25 18  2  0  0  0  0
 25 13  1  0  0  0  0
 26 27  2  0  0  0  0
 27  2  1  0  0  0  0
 27 22  1  0  0  0  0
M  END
>  <MODEL>
1

>  <REMARK>
 VINA RESULT:      -9.8      0.000      0.000
  Name = 
  0 active torsions:
  status: ('A' for Active; 'I' for Inactive)
                            x       y       z     vdW  Elec       q    Type
                         _______ _______ _______ _____ _____    ______ ____

>  <TORSDO>
F 0

$$$$
=
 OpenBabel11042412013D

 28 33  0  0  1  0  0  0  0  0999 V2000
  184.4910  178.5300  142.5670 C   0  0  0  0  0  0  0  0  0  0  0  0
  187.0550  178.2970  140.9250 N   0  0  0  0  0  0  0  0  0  0  0  0
  183.2570  178.7040  143.2030 C   0  0  0  0  0  3  0  0  0  0  0  0
  187.5680  178.0710  142.2230 C   0  0  0  0  0  0  0  0  0  0  0  0
  182.0960  178.9590  142.4990 C   0  0  0  0  0  0  0  0  0  0  0  0
  186.8780  178.0480  143.3420 C   0  0  0  0  0  3  0  0  0  0  0  0
  180.5800  179.1680  143.3450 Cl  0  0  0  0  0  0  0  0  0  0  0  0
  186.4440  178.4100  136.7930 C   0  0  0  0  0  1  0  0  0  0  0  0
  185.4500  178.2840  143.4620 C   0  0  0  0  0  3  0  0  0  0  0  0
  184.5760  178.5830  141.1250 C   0  0  0  0  0  0  0  0  0  0  0  0
  190.3380  176.0050  143.6310 C   0  0  0  0  0  3  0  0  0  0  0  0
  185.7140  178.3090  140.4060 C   0  0  0  0  0  0  0  0  0  0  0  0
  189.0280  177.8710  142.0920 C   0  0  1  0  0  0  0  0  0  0  0  0
  183.3490  178.9200  140.4370 C   0  0  0  0  0  0  0  0  0  0  0  0
  186.6600  178.7270  138.1960 N   0  0  0  0  0  0  0  0  0  0  0  0
  191.2390  176.6280  144.5710 C   0  0  0  0  0  0  0  0  0  0  0  0
  191.9880  175.7860  145.4400 N   0  0  0  0  0  1  0  0  0  0  0  0
  189.9170  178.4080  143.0240 C   0  0  0  0  0  0  0  0  0  0  0  0
  190.7630  178.9860  143.9070 C   0  0  0  0  0  3  0  0  0  0  0  0
  183.1960  179.3630  138.7330 Cl  0  0  0  0  0  0  0  0  0  0  0  0
  191.4100  178.0240  144.6710 N   0  0  0  0  0  0  0  0  0  0  0  0
  188.0150  178.2750  138.5500 C   0  0  1  0  0  3  0  0  0  0  0  0
  188.9980  179.1850  137.9770 N   0  0  0  0  0  1  0  0  0  0  0  0
  185.6620  177.9560  138.9400 C   0  0  0  0  0  2  0  0  0  0  0  0
  189.7160  176.9630  142.8960 C   0  0  0  0  0  0  0  0  0  0  0  0
  189.3480  177.9610  140.6490 C   0  0  0  0  0  3  0  0  0  0  0  0
  188.1870  178.2250  140.0420 C   0  0  0  0  0  0  0  0  0  0  0  0
  182.1510  179.0900  141.1280 C   0  0  0  0  0  3  0  0  0  0  0  0
  1  3  1  0  0  0  0
  1  9  2  0  0  0  0
  2  4  1  0  0  0  0
  4  6  2  0  0  0  0
  5  3  2  0  0  0  0
  5  7  1  0  0  0  0
  6  9  1  0  0  0  0
  8 15  1  0  0  0  0
 10  1  1  0  0  0  0
 11 16  1  0  0  0  0
 12  2  1  0  0  0  0
 12 10  2  0  0  0  0
 13 26  1  6  0  0  0
 13  4  1  0  0  0  0
 13 25  1  0  0  0  0
 13 18  1  0  0  0  0
 14 10  1  0  0  0  0
 14 28  2  0  0  0  0
 15 22  1  0  0  0  0
 15 24  1  0  0  0  0
 16 21  2  0  0  0  0
 16 17  1  0  0  0  0
 18 19  2  0  0  0  0
 19 21  1  0  0  0  0
 20 14  1  0  0  0  0
 22 23  1  6  0  0  0
 22 27  1  0  0  0  0
 24 12  1  0  0  0  0
 25 18  1  0  0  0  0
 25 11  2  0  0  0  0
 27 26  2  0  0  0  0
 27  2  1  0  0  0  0
 28  5  1  0  0  0  0
M  END
>  <MODEL>
2

>  <REMARK>
 VINA RESULT:      -9.4      3.458      6.859
  Name = 
  0 active torsions:
  status: ('A' for Active; 'I' for Inactive)
                            x       y       z     vdW  Elec       q    Type
                         _______ _______ _______ _____ _____    ______ ____

>  <TORSDO>
F 0

$$$$
=
 OpenBabel11042412013D

 28 33  0  0  1  0  0  0  0  0999 V2000
  186.1080  178.3120  143.6590 C   0  0  0  0  0  0  0  0  0  0  0  0
  186.3100  178.2540  140.6130 N   0  0  0  0  0  0  0  0  0  0  0  0
  186.1380  178.2570  145.0570 C   0  0  0  0  0  3  0  0  0  0  0  0
  184.9620  178.6500  140.7670 C   0  0  0  0  0  0  0  0  0  0  0  0
  187.2830  177.9300  145.7560 C   0  0  0  0  0  0  0  0  0  0  0  0
  184.3310  178.8470  141.9030 C   0  0  0  0  0  3  0  0  0  0  0  0
  187.2640  177.8760  147.5050 Cl  0  0  0  0  0  0  0  0  0  0  0  0
  190.1750  177.5700  139.1780 C   0  0  0  0  0  1  0  0  0  0  0  0
  184.8940  178.6610  143.2290 C   0  0  0  0  0  3  0  0  0  0  0  0
  187.3100  178.0530  142.9000 C   0  0  0  0  0  0  0  0  0  0  0  0
  182.6290  180.8330  138.8400 C   0  0  0  0  0  3  0  0  0  0  0  0
  187.4110  178.1980  141.5370 C   0  0  0  0  0  0  0  0  0  0  0  0
  184.3880  178.7980  139.4110 C   0  0  1  0  0  0  0  0  0  0  0  0
  188.4650  177.6490  143.6710 C   0  0  0  0  0  0  0  0  0  0  0  0
  188.8180  177.4500  139.6900 N   0  0  0  0  0  0  0  0  0  0  0  0
  181.3060  180.3310  138.5580 C   0  0  0  0  0  0  0  0  0  0  0  0
  180.2840  181.2710  138.2450 N   0  0  0  0  0  1  0  0  0  0  0  0
  183.0870  178.3790  139.1280 C   0  0  0  0  0  0  0  0  0  0  0  0
  181.8460  177.9130  138.8620 C   0  0  0  0  0  3  0  0  0  0  0  0
  189.9650  176.9730  143.0280 Cl  0  0  0  0  0  0  0  0  0  0  0  0
  180.9780  178.9590  138.5790 N   0  0  0  0  0  0  0  0  0  0  0  0
  187.9040  177.9180  138.6360 C   0  0  1  0  0  3  0  0  0  0  0  0
  187.8190  176.9150  137.5820 N   0  0  0  0  0  1  0  0  0  0  0  0
  188.7460  178.3410  140.8490 C   0  0  0  0  0  2  0  0  0  0  0  0
  183.4600  179.7950  139.1160 C   0  0  0  0  0  0  0  0  0  0  0  0
  185.4720  178.4970  138.4490 C   0  0  0  0  0  3  0  0  0  0  0  0
  186.5330  178.1760  139.1950 C   0  0  0  0  0  0  0  0  0  0  0  0
  188.4290  177.6050  145.0630 C   0  0  0  0  0  3  0  0  0  0  0  0
  1  3  1  0  0  0  0
  2  4  1  0  0  0  0
  2 12  1  0  0  0  0
  3  5  2  0  0  0  0
  4  6  2  0  0  0  0
  5  7  1  0  0  0  0
  6  9  1  0  0  0  0
  8 15  1  0  0  0  0
  9  1  2  0  0  0  0
 10  1  1  0  0  0  0
 10 14  1  0  0  0  0
 11 25  1  0  0  0  0
 12 10  2  0  0  0  0
 13 26  1  6  0  0  0
 13  4  1  0  0  0  0
 14 28  2  0  0  0  0
 15 24  1  0  0  0  0
 16 21  1  0  0  0  0
 16 11  2  0  0  0  0
 17 16  1  0  0  0  0
 18 13  1  0  0  0  0
 19 18  1  0  0  0  0
 20 14  1  0  0  0  0
 21 19  2  0  0  0  0
 22 23  1  6  0  0  0
 22 27  1  0  0  0  0
 22 15  1  0  0  0  0
 24 12  1  0  0  0  0
 25 18  2  0  0  0  0
 25 13  1  0  0  0  0
 26 27  2  0  0  0  0
 27  2  1  0  0  0  0
 28  5  1  0  0  0  0
M  END
>  <MODEL>
3

>  <REMARK>
 VINA RESULT:      -9.1      3.142      5.681
  Name = 
  0 active torsions:
  status: ('A' for Active; 'I' for Inactive)
                            x       y       z     vdW  Elec       q    Type
                         _______ _______ _______ _____ _____    ______ ____

>  <TORSDO>
F 0

$$$$
=
 OpenBabel11042412013D

 28 33  0  0  1  0  0  0  0  0999 V2000
  187.9460  177.7380  143.3770 C   0  0  0  0  0  0  0  0  0  0  0  0
  186.2070  178.2820  140.9270 N   0  0  0  0  0  0  0  0  0  0  0  0
  188.6430  177.5620  144.5770 C   0  0  0  0  0  3  0  0  0  0  0  0
  187.4240  177.9360  140.2970 C   0  0  0  0  0  0  0  0  0  0  0  0
  188.0360  177.7110  145.8090 C   0  0  0  0  0  0  0  0  0  0  0  0
  188.5420  177.5890  140.8960 C   0  0  0  0  0  3  0  0  0  0  0  0
  188.9550  177.4790  147.2790 Cl  0  0  0  0  0  0  0  0  0  0  0  0
  182.1870  178.9930  141.8200 C   0  0  0  0  0  1  0  0  0  0  0  0
  188.7500  177.5260  142.3320 C   0  0  0  0  0  3  0  0  0  0  0  0
  186.5360  178.0560  143.3990 C   0  0  0  0  0  0  0  0  0  0  0  0
  188.3390  176.2190  137.1130 C   0  0  0  0  0  3  0  0  0  0  0  0
  185.7420  178.1300  142.2790 C   0  0  0  0  0  0  0  0  0  0  0  0
  187.2110  178.0410  138.8370 C   0  0  1  0  0  0  0  0  0  0  0  0
  185.9620  178.2680  144.7090 C   0  0  0  0  0  0  0  0  0  0  0  0
  183.6160  179.0970  141.5730 N   0  0  0  0  0  0  0  0  0  0  0  0
  189.3480  176.8280  136.2790 C   0  0  0  0  0  0  0  0  0  0  0  0
  190.0230  176.0050  135.3350 N   0  0  0  0  0  1  0  0  0  0  0  0
  188.1960  178.5670  138.0000 C   0  0  0  0  0  0  0  0  0  0  0  0
  189.1410  179.1330  137.2150 C   0  0  0  0  0  3  0  0  0  0  0  0
  184.3730  178.9630  145.0510 Cl  0  0  0  0  0  0  0  0  0  0  0  0
  189.6950  178.1930  136.3560 N   0  0  0  0  0  0  0  0  0  0  0  0
  183.8370  178.8550  140.1380 C   0  0  1  0  0  3  0  0  0  0  0  0
  183.4080  180.0190  139.3750 N   0  0  0  0  0  1  0  0  0  0  0  0
  184.2390  178.0330  142.3640 C   0  0  0  0  0  2  0  0  0  0  0  0
  187.8120  177.1540  137.9450 C   0  0  0  0  0  0  0  0  0  0  0  0
  185.7990  178.4390  138.6340 C   0  0  0  0  0  3  0  0  0  0  0  0
  185.2890  178.5800  139.8620 C   0  0  0  0  0  0  0  0  0  0  0  0
  186.7110  178.0850  145.8690 C   0  0  0  0  0  3  0  0  0  0  0  0
  1 10  1  0  0  0  0
  1  3  1  0  0  0  0
  2 12  1  0  0  0  0
  3  5  2  0  0  0  0
  4  6  2  0  0  0  0
  4  2  1  0  0  0  0
  5 28  1  0  0  0  0
  5  7  1  0  0  0  0
  6  9  1  0  0  0  0
  9  1  2  0  0  0  0
 10 14  1  0  0  0  0
 11 25  1  0  0  0  0
 12 24  1  0  0  0  0
 12 10  2  0  0  0  0
 13 26  1  6  0  0  0
 13  4  1  0  0  0  0
 14 20  1  0  0  0  0
 14 28  2  0  0  0  0
 15  8  1  0  0  0  0
 15 24  1  0  0  0  0
 16 21  1  0  0  0  0
 16 11  2  0  0  0  0
 17 16  1  0  0  0  0
 18 13  1  0  0  0  0
 19 18  1  0  0  0  0
 21 19  2  0  0  0  0
 22 23  1  6  0  0  0
 22 15  1  0  0  0  0
 25 18  2  0  0  0  0
 25 13  1  0  0  0  0
 26 27  2  0  0  0  0
 27 22  1  0  0  0  0
 27  2  1  0  0  0  0
M  END
>  <MODEL>
4

>  <REMARK>
 VINA RESULT:      -8.9      1.848      2.767
  Name = 
  0 active torsions:
  status: ('A' for Active; 'I' for Inactive)
                            x       y       z     vdW  Elec       q    Type
                         _______ _______ _______ _____ _____    ______ ____

>  <TORSDO>
F 0

$$$$
=
 OpenBabel11042412013D

 28 33  0  0  1  0  0  0  0  0999 V2000
  189.1530  177.8050  140.6150 C   0  0  0  0  0  0  0  0  0  0  0  0
  186.5340  178.1910  142.1360 N   0  0  0  0  0  0  0  0  0  0  0  0
  190.4220  177.6630  140.0420 C   0  0  0  0  0  3  0  0  0  0  0  0
  186.0610  178.2480  140.8060 C   0  0  0  0  0  0  0  0  0  0  0  0
  191.5600  177.4960  140.8070 C   0  0  0  0  0  0  0  0  0  0  0  0
  186.7840  178.1260  139.7140 C   0  0  0  0  0  3  0  0  0  0  0  0
  193.1220  177.3240  140.0390 Cl  0  0  0  0  0  0  0  0  0  0  0  0
  186.8890  177.7330  146.2740 C   0  0  0  0  0  1  0  0  0  0  0  0
  188.2230  177.9380  139.6670 C   0  0  0  0  0  3  0  0  0  0  0  0
  188.9970  177.7470  142.0500 C   0  0  0  0  0  0  0  0  0  0  0  0
  182.9040  177.2370  139.0930 C   0  0  0  0  0  3  0  0  0  0  0  0
  187.7850  177.7560  142.6980 C   0  0  0  0  0  0  0  0  0  0  0  0
  184.6010  178.4790  140.8650 C   0  0  1  0  0  0  0  0  0  0  0  0
  190.2220  177.6390  142.8110 C   0  0  0  0  0  0  0  0  0  0  0  0
  186.8650  178.2290  144.9070 N   0  0  0  0  0  0  0  0  0  0  0  0
  182.2850  178.1830  138.1960 C   0  0  0  0  0  0  0  0  0  0  0  0
  181.3790  177.6860  137.2170 N   0  0  0  0  0  1  0  0  0  0  0  0
  183.9680  179.3390  139.9680 C   0  0  0  0  0  0  0  0  0  0  0  0
  183.3850  180.2220  139.1250 C   0  0  0  0  0  3  0  0  0  0  0  0
  190.3900  177.8560  144.5560 Cl  0  0  0  0  0  0  0  0  0  0  0  0
  182.5350  179.5700  138.2410 N   0  0  0  0  0  0  0  0  0  0  0  0
  185.4620  178.2340  144.4620 C   0  0  1  0  0  3  0  0  0  0  0  0
  184.7520  179.3370  145.0970 N   0  0  0  0  0  1  0  0  0  0  0  0
  187.6390  177.2690  144.1180 C   0  0  0  0  0  2  0  0  0  0  0  0
  183.7310  177.8940  139.9470 C   0  0  0  0  0  0  0  0  0  0  0  0
  184.2300  178.5250  142.2980 C   0  0  0  0  0  3  0  0  0  0  0  0
  185.3770  178.3750  142.9680 C   0  0  0  0  0  0  0  0  0  0  0  0
  191.4590  177.5090  142.1820 C   0  0  0  0  0  3  0  0  0  0  0  0
  1 10  1  0  0  0  0
  2 12  1  0  0  0  0
  2 27  1  0  0  0  0
  3  1  1  0  0  0  0
  3  5  2  0  0  0  0
  4 13  1  0  0  0  0
  4  2  1  0  0  0  0
  5 28  1  0  0  0  0
  6  4  2  0  0  0  0
  7  5  1  0  0  0  0
  9  6  1  0  0  0  0
  9  1  2  0  0  0  0
 10 12  2  0  0  0  0
 10 14  1  0  0  0  0
 11 25  1  0  0  0  0
 12 24  1  0  0  0  0
 13 26  1  1  0  0  0
 14 20  1  0  0  0  0
 15  8  1  0  0  0  0
 16 21  1  0  0  0  0
 16 11  2  0  0  0  0
 17 16  1  0  0  0  0
 18 13  1  0  0  0  0
 19 18  1  0  0  0  0
 21 19  2  0  0  0  0
 22 15  1  0  0  0  0
 22 23  1  1  0  0  0
 24 15  1  0  0  0  0
 25 18  2  0  0  0  0
 25 13  1  0  0  0  0
 26 27  2  0  0  0  0
 27 22  1  0  0  0  0
 28 14  2  0  0  0  0
M  END
>  <MODEL>
5

>  <REMARK>
 VINA RESULT:      -8.5      3.006      4.485
  Name = 
  0 active torsions:
  status: ('A' for Active; 'I' for Inactive)
                            x       y       z     vdW  Elec       q    Type
                         _______ _______ _______ _____ _____    ______ ____

>  <TORSDO>
F 0

$$$$
=
 OpenBabel11042412013D

 28 33  0  0  1  0  0  0  0  0999 V2000
  186.3940  178.5250  140.3850 C   0  0  0  0  0  0  0  0  0  0  0  0
  189.2410  177.4620  140.0830 N   0  0  0  0  0  0  0  0  0  0  0  0
  185.0900  179.0300  140.3780 C   0  0  0  0  0  3  0  0  0  0  0  0
  189.2240  177.7410  141.4680 C   0  0  0  0  0  0  0  0  0  0  0  0
  184.3210  179.0650  139.2320 C   0  0  0  0  0  0  0  0  0  0  0  0
  188.2120  178.2210  142.1560 C   0  0  0  0  0  3  0  0  0  0  0  0
  182.6950  179.7080  139.2800 Cl  0  0  0  0  0  0  0  0  0  0  0  0
  190.0950  175.9450  136.2840 C   0  0  0  0  0  1  0  0  0  0  0  0
  186.9160  178.5900  141.6120 C   0  0  0  0  0  3  0  0  0  0  0  0
  186.9680  177.9860  139.1730 C   0  0  0  0  0  0  0  0  0  0  0  0
  190.8280  176.2190  144.4750 C   0  0  0  0  0  3  0  0  0  0  0  0
  188.1910  177.3620  139.1060 C   0  0  0  0  0  0  0  0  0  0  0  0
  190.5600  177.3980  142.0040 C   0  0  1  0  0  0  0  0  0  0  0  0
  186.1510  178.1070  137.9850 C   0  0  0  0  0  0  0  0  0  0  0  0
  189.8910  176.7840  137.4550 N   0  0  0  0  0  0  0  0  0  0  0  0
  191.4750  177.1000  145.4180 C   0  0  0  0  0  0  0  0  0  0  0  0
  191.6820  176.6260  146.7440 N   0  0  0  0  0  1  0  0  0  0  0  0
  191.1800  178.1980  142.9650 C   0  0  0  0  0  0  0  0  0  0  0  0
  191.7860  179.0190  143.8520 C   0  0  0  0  0  3  0  0  0  0  0  0
  186.6820  177.8350  136.3220 Cl  0  0  0  0  0  0  0  0  0  0  0  0
  191.9080  178.4010  145.0900 N   0  0  0  0  0  0  0  0  0  0  0  0
  190.9120  176.4150  138.4480 C   0  0  1  0  0  3  0  0  0  0  0  0
  192.2070  176.9410  138.0370 N   0  0  0  0  0  1  0  0  0  0  0  0
  188.5570  176.4530  137.9580 C   0  0  0  0  0  2  0  0  0  0  0  0
  190.7180  176.8430  143.2730 C   0  0  0  0  0  0  0  0  0  0  0  0
  191.3580  176.8750  140.8720 C   0  0  0  0  0  3  0  0  0  0  0  0
  190.5570  176.9570  139.8040 C   0  0  0  0  0  0  0  0  0  0  0  0
  184.8610  178.6280  138.0410 C   0  0  0  0  0  3  0  0  0  0  0  0
  1  9  2  0  0  0  0
  2  4  1  0  0  0  0
  3  1  1  0  0  0  0
  4 13  1  0  0  0  0
  4  6  2  0  0  0  0
  5  7  1  0  0  0  0
  5  3  2  0  0  0  0
  8 15  1  0  0  0  0
  9  6  1  0  0  0  0
 10  1  1  0  0  0  0
 11 16  1  0  0  0  0
 12 10  2  0  0  0  0
 12  2  1  0  0  0  0
 13 26  1  6  0  0  0
 13 18  1  0  0  0  0
 13 25  1  0  0  0  0
 14 28  2  0  0  0  0
 14 10  1  0  0  0  0
 15 24  1  0  0  0  0
 15 22  1  0  0  0  0
 16 17  1  0  0  0  0
 18 25  1  0  0  0  0
 18 19  2  0  0  0  0
 19 21  1  0  0  0  0
 20 14  1  0  0  0  0
 21 16  2  0  0  0  0
 22 23  1  6  0  0  0
 22 27  1  0  0  0  0
 24 12  1  0  0  0  0
 25 11  2  0  0  0  0
 27  2  1  0  0  0  0
 27 26  2  0  0  0  0
 28  5  1  0  0  0  0
M  END
>  <MODEL>
6

>  <REMARK>
 VINA RESULT:      -8.3      3.747      7.581
  Name = 
  0 active torsions:
  status: ('A' for Active; 'I' for Inactive)
                            x       y       z     vdW  Elec       q    Type
                         _______ _______ _______ _____ _____    ______ ____

>  <TORSDO>
F 0

$$$$
=
 OpenBabel11042412013D

 28 33  0  0  1  0  0  0  0  0999 V2000
  185.9690  178.2710  143.1610 C   0  0  0  0  0  0  0  0  0  0  0  0
  188.8220  177.4360  142.4640 N   0  0  0  0  0  0  0  0  0  0  0  0
  184.6880  178.6020  143.6150 C   0  0  0  0  0  3  0  0  0  0  0  0
  188.2810  177.5810  141.1670 C   0  0  0  0  0  0  0  0  0  0  0  0
  184.3890  178.7120  144.9590 C   0  0  0  0  0  0  0  0  0  0  0  0
  187.0530  177.9460  140.8700 C   0  0  0  0  0  3  0  0  0  0  0  0
  182.7700  179.1290  145.4710 Cl  0  0  0  0  0  0  0  0  0  0  0  0
  191.3720  177.1770  145.7650 C   0  0  0  0  0  1  0  0  0  0  0  0
  186.0010  178.2420  141.8270 C   0  0  0  0  0  3  0  0  0  0  0  0
  187.0410  178.0630  144.1080 C   0  0  0  0  0  0  0  0  0  0  0  0
  189.6350  178.6520  137.8590 C   0  0  0  0  0  3  0  0  0  0  0  0
  188.3530  177.8520  143.7580 C   0  0  0  0  0  0  0  0  0  0  0  0
  189.3480  177.2390  140.2010 C   0  0  1  0  0  0  0  0  0  0  0  0
  186.6650  178.1210  145.5030 C   0  0  0  0  0  0  0  0  0  0  0  0
  190.4020  176.9310  144.7090 N   0  0  0  0  0  0  0  0  0  0  0  0
  189.3320  177.8370  136.7060 C   0  0  0  0  0  0  0  0  0  0  0  0
  189.4350  178.4340  135.4180 N   0  0  0  0  0  1  0  0  0  0  0  0
  189.0710  176.5090  139.0450 C   0  0  0  0  0  0  0  0  0  0  0  0
  188.7900  175.7500  137.9620 C   0  0  0  0  0  3  0  0  0  0  0  0
  187.6570  177.6110  146.8740 Cl  0  0  0  0  0  0  0  0  0  0  0  0
  188.9400  176.4860  136.7940 N   0  0  0  0  0  0  0  0  0  0  0  0
  191.1340  176.9050  143.4320 C   0  0  1  0  0  3  0  0  0  0  0  0
  191.8820  175.6590  143.3240 N   0  0  0  0  0  1  0  0  0  0  0  0
  189.4810  178.0680  144.7370 C   0  0  0  0  0  2  0  0  0  0  0  0
  189.4800  177.9140  138.9880 C   0  0  0  0  0  0  0  0  0  0  0  0
  190.5570  176.9140  140.9930 C   0  0  0  0  0  3  0  0  0  0  0  0
  190.1860  177.0240  142.2720 C   0  0  0  0  0  0  0  0  0  0  0  0
  185.3680  178.4490  145.8930 C   0  0  0  0  0  3  0  0  0  0  0  0
  1  3  1  0  0  0  0
  1 10  1  0  0  0  0
  2 12  1  0  0  0  0
  3  5  2  0  0  0  0
  4  2  1  0  0  0  0
  5  7  1  0  0  0  0
  5 28  1  0  0  0  0
  6  4  2  0  0  0  0
  6  9  1  0  0  0  0
  9  1  2  0  0  0  0
 10 14  1  0  0  0  0
 11 25  1  0  0  0  0
 12 10  2  0  0  0  0
 12 24  1  0  0  0  0
 13 26  1  1  0  0  0
 13  4  1  0  0  0  0
 14 28  2  0  0  0  0
 14 20  1  0  0  0  0
 15 24  1  0  0  0  0
 15  8  1  0  0  0  0
 16 21  1  0  0  0  0
 16 11  2  0  0  0  0
 17 16  1  0  0  0  0
 18 13  1  0  0  0  0
 19 18  1  0  0  0  0
 21 19  2  0  0  0  0
 22 23  1  6  0  0  0
 22 15  1  0  0  0  0
 25 18  2  0  0  0  0
 25 13  1  0  0  0  0
 26 27  2  0  0  0  0
 27  2  1  0  0  0  0
 27 22  1  0  0  0  0
M  END
>  <MODEL>
7

>  <REMARK>
 VINA RESULT:      -8.0      1.771      4.512
  Name = 
  0 active torsions:
  status: ('A' for Active; 'I' for Inactive)
                            x       y       z     vdW  Elec       q    Type
                         _______ _______ _______ _____ _____    ______ ____

>  <TORSDO>
F 0

$$$$
=
 OpenBabel11042412013D

 28 33  0  0  1  0  0  0  0  0999 V2000
  185.6730  178.5200  142.8570 C   0  0  0  0  0  0  0  0  0  0  0  0
  184.5960  178.3970  140.0030 N   0  0  0  0  0  0  0  0  0  0  0  0
  186.0390  178.6400  144.2020 C   0  0  0  0  0  3  0  0  0  0  0  0
  185.9740  178.1960  139.7590 C   0  0  0  0  0  0  0  0  0  0  0  0
  185.1090  178.8430  145.2030 C   0  0  0  0  0  0  0  0  0  0  0  0
  186.9270  178.1440  140.6630 C   0  0  0  0  0  3  0  0  0  0  0  0
  185.6230  178.9870  146.8690 Cl  0  0  0  0  0  0  0  0  0  0  0  0
  180.4260  178.4760  139.7540 C   0  0  0  0  0  1  0  0  0  0  0  0
  186.7490  178.3180  142.0940 C   0  0  0  0  0  3  0  0  0  0  0  0
  184.2790  178.5750  142.4800 C   0  0  0  0  0  0  0  0  0  0  0  0
  187.9440  176.2570  137.2530 C   0  0  0  0  0  3  0  0  0  0  0  0
  183.8120  178.3490  141.2070 C   0  0  0  0  0  0  0  0  0  0  0  0
  186.1490  178.0600  138.2960 C   0  0  1  0  0  0  0  0  0  0  0  0
  183.3500  178.8560  143.5520 C   0  0  0  0  0  0  0  0  0  0  0  0
  181.8400  178.8050  139.8460 N   0  0  0  0  0  0  0  0  0  0  0  0
  189.0420  176.9200  136.5920 C   0  0  0  0  0  0  0  0  0  0  0  0
  190.0550  176.1130  136.0020 N   0  0  0  0  0  1  0  0  0  0  0  0
  187.2380  178.6370  137.6420 C   0  0  0  0  0  0  0  0  0  0  0  0
  188.2690  179.2540  137.0210 C   0  0  0  0  0  3  0  0  0  0  0  0
  181.6460  179.2880  143.3690 Cl  0  0  0  0  0  0  0  0  0  0  0  0
  189.1600  178.3230  136.5050 N   0  0  0  0  0  0  0  0  0  0  0  0
  182.4690  178.4140  138.5740 C   0  0  1  0  0  3  0  0  0  0  0  0
  182.1010  179.3650  137.5340 N   0  0  0  0  0  1  0  0  0  0  0  0
  182.3700  177.9910  140.9410 C   0  0  0  0  0  2  0  0  0  0  0  0
  187.0860  177.1850  137.7500 C   0  0  0  0  0  0  0  0  0  0  0  0
  184.8020  178.1620  137.6900 C   0  0  0  0  0  3  0  0  0  0  0  0
  183.9660  178.3730  138.7110 C   0  0  0  0  0  0  0  0  0  0  0  0
  183.7780  178.9740  144.8720 C   0  0  0  0  0  3  0  0  0  0  0  0
  1  3  1  0  0  0  0
  2 12  1  0  0  0  0
  3  5  2  0  0  0  0
  4  2  1  0  0  0  0
  4  6  2  0  0  0  0
  5  7  1  0  0  0  0
  6  9  1  0  0  0  0
  8 15  1  0  0  0  0
  9  1  2  0  0  0  0
 10  1  1  0  0  0  0
 10 14  1  0  0  0  0
 11 25  1  0  0  0  0
 12 10  2  0  0  0  0
 13 26  1  6  0  0  0
 13  4  1  0  0  0  0
 14 28  2  0  0  0  0
 15 24  1  0  0  0  0
 16 11  2  0  0  0  0
 17 16  1  0  0  0  0
 18 25  2  0  0  0  0
 18 13  1  0  0  0  0
 19 18  1  0  0  0  0
 20 14  1  0  0  0  0
 21 16  1  0  0  0  0
 21 19  2  0  0  0  0
 22 23  1  6  0  0  0
 22 27  1  0  0  0  0
 22 15  1  0  0  0  0
 24 12  1  0  0  0  0
 25 13  1  0  0  0  0
 26 27  2  0  0  0  0
 27  2  1  0  0  0  0
 28  5  1  0  0  0  0
M  END
>  <MODEL>
8

>  <REMARK>
 VINA RESULT:      -7.6      3.378      4.862
  Name = 
  0 active torsions:
  status: ('A' for Active; 'I' for Inactive)
                            x       y       z     vdW  Elec       q    Type
                         _______ _______ _______ _____ _____    ______ ____

>  <TORSDO>
F 0

$$$$
=
 OpenBabel11042412013D

 28 33  0  0  1  0  0  0  0  0999 V2000
  184.6440  178.6590  142.9910 C   0  0  0  0  0  0  0  0  0  0  0  0
  185.0020  178.4950  139.9640 N   0  0  0  0  0  0  0  0  0  0  0  0
  184.6040  178.6550  144.3900 C   0  0  0  0  0  3  0  0  0  0  0  0
  183.6430  178.8780  140.0340 C   0  0  0  0  0  0  0  0  0  0  0  0
  185.7150  178.3690  145.1580 C   0  0  0  0  0  0  0  0  0  0  0  0
  182.9520  179.1070  141.1290 C   0  0  0  0  0  3  0  0  0  0  0  0
  185.6080  178.3780  146.9040 Cl  0  0  0  0  0  0  0  0  0  0  0  0
  188.9420  177.8130  138.7510 C   0  0  0  0  0  1  0  0  0  0  0  0
  183.4500  178.9770  142.4880 C   0  0  0  0  0  3  0  0  0  0  0  0
  185.8870  178.3900  142.3030 C   0  0  0  0  0  0  0  0  0  0  0  0
  181.3850  180.9580  137.9130 C   0  0  0  0  0  3  0  0  0  0  0  0
  186.0550  178.4870  140.9430 C   0  0  0  0  0  0  0  0  0  0  0  0
  183.1370  178.9680  138.6470 C   0  0  1  0  0  0  0  0  0  0  0  0
  187.0050  178.0300  143.1470 C   0  0  0  0  0  0  0  0  0  0  0  0
  187.5630  177.6930  139.1980 N   0  0  0  0  0  0  0  0  0  0  0  0
  180.0840  180.4270  137.5840 C   0  0  0  0  0  0  0  0  0  0  0  0
  179.0690  181.3410  137.1850 N   0  0  0  0  0  1  0  0  0  0  0  0
  181.8570  178.5220  138.3140 C   0  0  0  0  0  0  0  0  0  0  0  0
  180.6370  178.0300  138.0030 C   0  0  0  0  0  3  0  0  0  0  0  0
  188.5440  177.3520  142.6050 Cl  0  0  0  0  0  0  0  0  0  0  0  0
  179.7720  179.0530  137.6380 N   0  0  0  0  0  0  0  0  0  0  0  0
  186.6980  178.1100  138.0830 C   0  0  1  0  0  3  0  0  0  0  0  0
  186.6790  177.0690  137.0630 N   0  0  0  0  0  1  0  0  0  0  0  0
  187.4220  178.6240  140.3190 C   0  0  0  0  0  2  0  0  0  0  0  0
  182.2130  179.9420  138.2680 C   0  0  0  0  0  0  0  0  0  0  0  0
  184.2720  178.6490  137.7520 C   0  0  0  0  0  3  0  0  0  0  0  0
  185.2970  178.3690  138.5630 C   0  0  0  0  0  0  0  0  0  0  0  0
  186.8990  178.0360  144.5360 C   0  0  0  0  0  3  0  0  0  0  0  0
  1  3  1  0  0  0  0
  2  4  1  0  0  0  0
  2 12  1  0  0  0  0
  3  5  2  0  0  0  0
  4  6  2  0  0  0  0
  5  7  1  0  0  0  0
  6  9  1  0  0  0  0
  8 15  1  0  0  0  0
  9  1  2  0  0  0  0
 10  1  1  0  0  0  0
 10 14  1  0  0  0  0
 11 25  1  0  0  0  0
 12 10  2  0  0  0  0
 13 26  1  6  0  0  0
 13  4  1  0  0  0  0
 14 28  2  0  0  0  0
 15 24  1  0  0  0  0
 16 21  1  0  0  0  0
 16 11  2  0  0  0  0
 17 16  1  0  0  0  0
 18 13  1  0  0  0  0
 19 18  1  0  0  0  0
 20 14  1  0  0  0  0
 21 19  2  0  0  0  0
 22 23  1  6  0  0  0
 22 27  1  0  0  0  0
 22 15  1  0  0  0  0
 24 12  1  0  0  0  0
 25 18  2  0  0  0  0
 25 13  1  0  0  0  0
 26 27  2  0  0  0  0
 27  2  1  0  0  0  0
 28  5  1  0  0  0  0
M  END
>  <MODEL>
9

>  <REMARK>
 VINA RESULT:      -7.4      4.014      6.615
  Name = 
  0 active torsions:
  status: ('A' for Active; 'I' for Inactive)
                            x       y       z     vdW  Elec       q    Type
                         _______ _______ _______ _____ _____    ______ ____

>  <TORSDO>
F 0

$$$$
