=
 OpenBabel11042411003D

 29 32  0  0  1  0  0  0  0  0999 V2000
  183.0720  178.9690  139.8680 C   0  0  1  0  0  3  0  0  0  0  0  0
  182.6460  176.4770  139.7570 C   0  0  0  0  0  3  0  0  0  0  0  0
  182.1860  175.3850  139.0890 N   0  0  0  0  0  0  0  0  0  0  0  0
  181.5710  176.7270  137.2140 C   0  0  0  0  0  3  0  0  0  0  0  0
  182.5810  177.7420  139.1630 C   0  0  0  0  0  0  0  0  0  0  0  0
  181.6560  175.4850  137.8410 C   0  0  0  0  0  3  0  0  0  0  0  0
  182.0370  177.8580  137.8830 C   0  0  0  0  0  3  0  0  0  0  0  0
  182.8870  178.8650  141.3530 C   0  0  0  0  0  0  0  0  0  0  0  0
  183.4510  178.7130  143.5940 C   0  0  0  0  0  0  0  0  0  0  0  0
  183.9130  178.7420  142.2680 C   0  0  0  0  0  3  0  0  0  0  0  0
  182.0690  178.8220  143.7390 C   0  0  0  0  0  3  0  0  0  0  0  0
  181.4320  178.9580  142.1890 S   0  0  0  0  0  0  0  0  0  0  0  0
  188.3400  177.3890  145.5030 C   0  0  0  0  0  3  0  0  0  0  0  0
  186.5260  177.6240  143.8280 C   0  0  0  0  0  3  0  0  0  0  0  0
  186.1120  178.2890  146.1310 C   0  0  0  0  0  0  0  0  0  0  0  0
  184.3570  178.6130  144.7490 C   0  0  0  0  0  0  0  0  0  0  0  0
  187.4840  177.9450  146.6290 C   0  0  0  0  0  2  0  0  0  0  0  0
  185.7170  178.1010  144.7660 C   0  0  0  0  0  0  0  0  0  0  0  0
  185.1520  178.8260  146.8070 N   0  0  0  0  0  0  0  0  0  0  0  0
  187.9030  177.2460  144.2330 C   0  0  0  0  0  3  0  0  0  0  0  0
  184.0590  179.0220  145.9440 N   0  0  0  0  0  0  0  0  0  0  0  0
  184.4830  179.2900  139.4850 C   0  0  0  0  0  3  0  0  0  0  0  0
  185.2280  178.4150  138.8160 C   0  0  0  0  0  3  0  0  0  0  0  0
  186.5770  178.7040  138.4370 N   0  0  0  0  0  2  0  0  0  0  0  0
  187.9020  178.4020  140.4630 C   0  0  0  0  0  1  0  0  0  0  0  0
  187.7370  178.0270  139.0010 C   0  0  2  0  0  3  0  0  0  0  0  0
  189.9510  177.6170  138.2280 O   0  0  0  0  0  1  0  0  0  0  0  0
  189.0240  179.6020  137.5460 O   0  0  0  0  0  0  0  0  0  0  0  0
  188.9630  178.3990  138.2410 C   0  0  0  0  0  0  0  0  0  0  0  0
  1 22  1  1  0  0  0
  1  8  1  0  0  0  0
  3  2  2  0  0  0  0
  4  6  2  0  0  0  0
  4  7  1  0  0  0  0
  5  2  1  0  0  0  0
  5  1  1  0  0  0  0
  6  3  1  0  0  0  0
  7  5  2  0  0  0  0
  8 12  1  0  0  0  0
  8 10  2  0  0  0  0
  9 11  2  0  0  0  0
  9 16  1  0  0  0  0
 10  9  1  0  0  0  0
 12 11  1  0  0  0  0
 13 17  1  0  0  0  0
 14 20  1  0  0  0  0
 14 18  2  0  0  0  0
 15 17  1  0  0  0  0
 15 19  2  0  0  0  0
 16 18  1  0  0  0  0
 16 21  2  0  0  0  0
 18 15  1  0  0  0  0
 20 13  2  0  0  0  0
 21 19  1  0  0  0  0
 23 22  2  0  0  0  0
 24 23  1  0  0  0  0
 24 26  1  0  0  0  0
 26 25  1  1  0  0  0
 27 29  1  0  0  0  0
 28 29  2  0  0  0  0
 29 26  1  0  0  0  0
M  END
>  <MODEL>
1

>  <REMARK>
 VINA RESULT:      -8.5      0.000      0.000
  Name = 
  7 active torsions:
  status: ('A' for Active; 'I' for Inactive)
    1  A    between atoms: C_2  and  C_11
    2  A    between atoms: C_4  and  C_11
    3  A    between atoms: C_10  and  C_13
    4  A    between atoms: C_11  and  C_15
    5  A    between atoms: C_16  and  N_26
    6  A    between atoms: CA_18  and  C_25
    7  A    between atoms: CA_18  and  N_26
                            x       y       z     vdW  Elec       q    Type
                         _______ _______ _______ _____ _____    ______ ____

>  <TORSDO>
F 7

$$$$
=
 OpenBabel11042411003D

 29 32  0  0  1  0  0  0  0  0999 V2000
  190.6110  177.2330  138.8530 C   0  0  1  0  0  3  0  0  0  0  0  0
  189.0870  178.8890  137.6960 C   0  0  0  0  0  3  0  0  0  0  0  0
  187.9490  179.1640  137.0050 N   0  0  0  0  0  0  0  0  0  0  0  0
  187.2980  176.8690  137.0620 C   0  0  0  0  0  3  0  0  0  0  0  0
  189.3660  177.5770  138.0950 C   0  0  0  0  0  0  0  0  0  0  0  0
  187.0560  178.1900  136.6840 C   0  0  0  0  0  3  0  0  0  0  0  0
  188.4600  176.5670  137.7700 C   0  0  0  0  0  3  0  0  0  0  0  0
  190.4150  177.3760  140.3330 C   0  0  0  0  0  0  0  0  0  0  0  0
  189.3050  177.5550  142.3580 C   0  0  0  0  0  0  0  0  0  0  0  0
  189.1900  177.4800  140.9590 C   0  0  0  0  0  3  0  0  0  0  0  0
  190.6090  177.5000  142.8450 C   0  0  0  0  0  3  0  0  0  0  0  0
  191.6180  177.3550  141.5080 S   0  0  0  0  0  0  0  0  0  0  0  0
  187.3800  177.8710  147.4070 C   0  0  0  0  0  3  0  0  0  0  0  0
  189.0830  177.6400  145.6200 C   0  0  0  0  0  3  0  0  0  0  0  0
  186.7360  177.8120  145.0090 C   0  0  0  0  0  0  0  0  0  0  0  0
  188.1360  177.6470  143.2460 C   0  0  0  0  0  0  0  0  0  0  0  0
  186.2280  177.9290  146.4150 C   0  0  0  0  0  3  0  0  0  0  0  0
  188.1270  177.6670  144.7000 C   0  0  1  0  0  3  0  0  0  0  0  0
  186.0380  177.8730  143.9240 N   0  0  0  0  0  0  0  0  0  0  0  0
  188.6730  177.7400  147.0430 C   0  0  0  0  0  3  0  0  0  0  0  0
  186.9130  177.7650  142.8280 N   0  0  0  0  0  0  0  0  0  0  0  0
  191.1280  175.8820  138.4690 C   0  0  0  0  0  2  0  0  0  0  0  0
  192.3280  175.7400  137.9140 C   0  0  0  0  0  3  0  0  0  0  0  0
  192.8430  174.4570  137.5440 N   0  0  0  0  0  0  0  0  0  0  0  0
  194.3550  172.9890  136.3140 C   0  0  0  0  0  1  0  0  0  0  0  0
  194.2390  174.2150  137.2020 C   0  0  2  0  0  3  0  0  0  0  0  0
  195.4510  175.0240  139.0840 O   0  0  0  0  0  1  0  0  0  0  0  0
  195.3370  172.7410  138.8970 O   0  0  0  0  0  0  0  0  0  0  0  0
  195.0400  174.0210  138.4430 C   0  0  0  0  0  0  0  0  0  0  0  0
  1 22  1  1  0  0  0
  1  8  1  0  0  0  0
  2  5  1  0  0  0  0
  3  2  2  0  0  0  0
  4  7  1  0  0  0  0
  5  1  1  0  0  0  0
  6  3  1  0  0  0  0
  6  4  2  0  0  0  0
  7  5  2  0  0  0  0
  8 10  2  0  0  0  0
  8 12  1  0  0  0  0
  9 11  2  0  0  0  0
  9 16  1  0  0  0  0
 10  9  1  0  0  0  0
 12 11  1  0  0  0  0
 14 20  2  0  0  0  0
 15 17  1  0  0  0  0
 16 18  1  0  0  0  0
 17 13  2  0  0  0  0
 18 15  1  0  0  0  0
 18 14  1  6  0  0  0
 19 15  2  0  0  0  0
 20 13  1  0  0  0  0
 21 16  2  0  0  0  0
 21 19  1  0  0  0  0
 23 22  1  0  0  0  0
 24 23  2  0  0  0  0
 26 25  1  6  0  0  0
 26 24  1  0  0  0  0
 26 29  1  0  0  0  0
 29 28  2  0  0  0  0
 29 27  1  0  0  0  0
M  END
>  <MODEL>
2

>  <REMARK>
 VINA RESULT:      -8.1      4.454      6.484
  Name = 
  7 active torsions:
  status: ('A' for Active; 'I' for Inactive)
    1  A    between atoms: C_2  and  C_11
    2  A    between atoms: C_4  and  C_11
    3  A    between atoms: C_10  and  C_13
    4  A    between atoms: C_11  and  C_15
    5  A    between atoms: C_16  and  N_26
    6  A    between atoms: CA_18  and  C_25
    7  A    between atoms: CA_18  and  N_26
                            x       y       z     vdW  Elec       q    Type
                         _______ _______ _______ _____ _____    ______ ____

>  <TORSDO>
F 7

$$$$
=
 OpenBabel11042411003D

 29 32  0  0  1  0  0  0  0  0999 V2000
  190.3710  177.6110  139.6090 C   0  0  1  0  0  3  0  0  0  0  0  0
  188.7740  176.4640  138.0160 C   0  0  0  0  0  3  0  0  0  0  0  0
  187.8910  176.5210  136.9840 N   0  0  0  0  0  0  0  0  0  0  0  0
  188.1870  178.8810  136.7920 C   0  0  0  0  0  3  0  0  0  0  0  0
  189.3970  177.6310  138.4720 C   0  0  0  0  0  0  0  0  0  0  0  0
  187.5890  177.6960  136.3680 C   0  0  0  0  0  3  0  0  0  0  0  0
  189.0950  178.8430  137.8500 C   0  0  0  0  0  3  0  0  0  0  0  0
  189.6920  177.3150  140.9130 C   0  0  0  0  0  0  0  0  0  0  0  0
  188.0560  177.3450  142.5520 C   0  0  0  0  0  0  0  0  0  0  0  0
  188.4720  177.8300  141.3010 C   0  0  0  0  0  3  0  0  0  0  0  0
  188.9300  176.4420  143.1540 C   0  0  0  0  0  3  0  0  0  0  0  0
  190.2290  176.2560  142.1030 S   0  0  0  0  0  0  0  0  0  0  0  0
  185.3000  178.5910  147.0420 C   0  0  0  0  0  3  0  0  0  0  0  0
  187.2410  177.8730  145.6760 C   0  0  0  0  0  3  0  0  0  0  0  0
  185.1200  178.3330  144.5780 C   0  0  0  0  0  0  0  0  0  0  0  0
  186.7760  177.7300  143.1670 C   0  0  0  0  0  0  0  0  0  0  0  0
  184.3860  178.7050  145.8320 C   0  0  0  0  0  3  0  0  0  0  0  0
  186.4960  177.9340  144.5790 C   0  0  1  0  0  3  0  0  0  0  0  0
  184.6620  178.3660  143.3710 N   0  0  0  0  0  0  0  0  0  0  0  0
  186.5940  178.2140  146.9670 C   0  0  0  0  0  3  0  0  0  0  0  0
  185.6950  177.9860  142.4950 N   0  0  0  0  0  0  0  0  0  0  0  0
  191.5140  176.6840  139.3330 C   0  0  0  0  0  3  0  0  0  0  0  0
  192.7100  177.1550  138.9890 C   0  0  0  0  0  3  0  0  0  0  0  0
  193.8160  176.2870  138.7260 N   0  0  0  0  0  2  0  0  0  0  0  0
  194.8840  174.2180  137.9960 C   0  0  0  0  0  1  0  0  0  0  0  0
  193.7990  175.2420  137.7110 C   0  0  2  0  0  3  0  0  0  0  0  0
  193.1150  175.7140  135.4800 O   0  0  0  0  0  0  0  0  0  0  0  0
  195.1760  176.5310  136.0690 O   0  0  0  0  0  1  0  0  0  0  0  0
  194.0060  175.8390  136.3620 C   0  0  0  0  0  0  0  0  0  0  0  0
  1 22  1  6  0  0  0
  1  8  1  0  0  0  0
  2  5  1  0  0  0  0
  3  2  2  0  0  0  0
  4  7  1  0  0  0  0
  5  1  1  0  0  0  0
  6  4  2  0  0  0  0
  6  3  1  0  0  0  0
  7  5  2  0  0  0  0
  8 10  2  0  0  0  0
  8 12  1  0  0  0  0
  9 11  2  0  0  0  0
  9 16  1  0  0  0  0
 10  9  1  0  0  0  0
 12 11  1  0  0  0  0
 14 20  2  0  0  0  0
 15 18  1  0  0  0  0
 15 17  1  0  0  0  0
 16 18  1  0  0  0  0
 17 13  2  0  0  0  0
 18 14  1  6  0  0  0
 19 15  2  0  0  0  0
 20 13  1  0  0  0  0
 21 16  2  0  0  0  0
 21 19  1  0  0  0  0
 23 22  2  0  0  0  0
 24 23  1  0  0  0  0
 26 25  1  1  0  0  0
 26 24  1  0  0  0  0
 27 29  2  0  0  0  0
 28 29  1  0  0  0  0
 29 26  1  0  0  0  0
M  END
>  <MODEL>
3

>  <REMARK>
 VINA RESULT:      -8.1      4.092      5.965
  Name = 
  7 active torsions:
  status: ('A' for Active; 'I' for Inactive)
    1  A    between atoms: C_2  and  C_11
    2  A    between atoms: C_4  and  C_11
    3  A    between atoms: C_10  and  C_13
    4  A    between atoms: C_11  and  C_15
    5  A    between atoms: C_16  and  N_26
    6  A    between atoms: CA_18  and  C_25
    7  A    between atoms: CA_18  and  N_26
                            x       y       z     vdW  Elec       q    Type
                         _______ _______ _______ _____ _____    ______ ____

>  <TORSDO>
F 7

$$$$
=
 OpenBabel11042411003D

 29 32  0  0  1  0  0  0  0  0999 V2000
  183.9420  179.2590  139.5870 C   0  0  1  0  0  3  0  0  0  0  0  0
  182.3220  180.9540  138.6350 C   0  0  0  0  0  3  0  0  0  0  0  0
  181.2550  181.2550  137.8470 N   0  0  0  0  0  0  0  0  0  0  0  0
  181.0090  178.9680  137.2150 C   0  0  0  0  0  3  0  0  0  0  0  0
  182.7680  179.6310  138.7350 C   0  0  0  0  0  0  0  0  0  0  0  0
  180.5950  180.2970  137.1430 C   0  0  0  0  0  3  0  0  0  0  0  0
  182.1010  178.6390  138.0160 C   0  0  0  0  0  3  0  0  0  0  0  0
  183.5350  179.0030  141.0080 C   0  0  0  0  0  0  0  0  0  0  0  0
  183.7440  178.7200  143.2980 C   0  0  0  0  0  0  0  0  0  0  0  0
  184.4070  178.9210  142.0750 C   0  0  0  0  0  3  0  0  0  0  0  0
  182.3550  178.6530  143.2110 C   0  0  0  0  0  3  0  0  0  0  0  0
  181.9640  178.8490  141.5870 S   0  0  0  0  0  0  0  0  0  0  0  0
  188.2760  177.4180  145.9560 C   0  0  0  0  0  3  0  0  0  0  0  0
  186.7480  177.6430  144.0160 C   0  0  0  0  0  3  0  0  0  0  0  0
  185.9740  178.3110  146.2230 C   0  0  0  0  0  0  0  0  0  0  0  0
  184.4570  178.6250  144.5810 C   0  0  0  0  0  0  0  0  0  0  0  0
  187.2510  177.9720  146.9320 C   0  0  0  0  0  2  0  0  0  0  0  0
  185.8000  178.1180  144.8130 C   0  0  0  0  0  0  0  0  0  0  0  0
  184.9170  178.8460  146.7380 N   0  0  0  0  0  0  0  0  0  0  0  0
  188.0450  177.2710  144.6330 C   0  0  0  0  0  3  0  0  0  0  0  0
  183.9730  179.0360  145.7130 N   0  0  0  0  0  0  0  0  0  0  0  0
  184.7080  178.1180  138.9940 C   0  0  0  0  0  3  0  0  0  0  0  0
  185.6980  178.3330  138.1320 C   0  0  0  0  0  3  0  0  0  0  0  0
  186.4460  177.2570  137.5570 N   0  0  0  0  0  2  0  0  0  0  0  0
  188.4170  175.8450  137.2860 C   0  0  0  0  0  1  0  0  0  0  0  0
  187.8960  177.2650  137.4200 C   0  0  2  0  0  3  0  0  0  0  0  0
  188.5980  177.2950  139.6950 O   0  0  0  0  0  1  0  0  0  0  0  0
  189.0010  179.2220  138.5180 O   0  0  0  0  0  0  0  0  0  0  0  0
  188.5150  177.9220  138.6060 C   0  0  0  0  0  0  0  0  0  0  0  0
  1 22  1  6  0  0  0
  1  8  1  0  0  0  0
  2  5  1  0  0  0  0
  3  2  2  0  0  0  0
  4  7  1  0  0  0  0
  5  1  1  0  0  0  0
  6  4  2  0  0  0  0
  6  3  1  0  0  0  0
  7  5  2  0  0  0  0
  8 12  1  0  0  0  0
  8 10  2  0  0  0  0
  9 16  1  0  0  0  0
 10  9  1  0  0  0  0
 11  9  2  0  0  0  0
 12 11  1  0  0  0  0
 13 17  1  0  0  0  0
 14 20  1  0  0  0  0
 14 18  2  0  0  0  0
 15 19  2  0  0  0  0
 15 17  1  0  0  0  0
 16 18  1  0  0  0  0
 16 21  2  0  0  0  0
 18 15  1  0  0  0  0
 20 13  2  0  0  0  0
 21 19  1  0  0  0  0
 23 22  2  0  0  0  0
 24 23  1  0  0  0  0
 26 25  1  1  0  0  0
 26 24  1  0  0  0  0
 26 29  1  0  0  0  0
 28 29  2  0  0  0  0
 29 27  1  0  0  0  0
M  END
>  <MODEL>
4

>  <REMARK>
 VINA RESULT:      -8.1      1.647      2.098
  Name = 
  7 active torsions:
  status: ('A' for Active; 'I' for Inactive)
    1  A    between atoms: C_2  and  C_11
    2  A    between atoms: C_4  and  C_11
    3  A    between atoms: C_10  and  C_13
    4  A    between atoms: C_11  and  C_15
    5  A    between atoms: C_16  and  N_26
    6  A    between atoms: CA_18  and  C_25
    7  A    between atoms: CA_18  and  N_26
                            x       y       z     vdW  Elec       q    Type
                         _______ _______ _______ _____ _____    ______ ____

>  <TORSDO>
F 7

$$$$
=
 OpenBabel11042411003D

 29 32  0  0  1  0  0  0  0  0999 V2000
  190.4270  177.0880  138.5020 C   0  0  1  0  0  3  0  0  0  0  0  0
  188.5350  175.7940  137.4280 C   0  0  0  0  0  3  0  0  0  0  0  0
  187.5480  175.6990  136.4980 N   0  0  0  0  0  0  0  0  0  0  0  0
  188.0790  177.8600  135.6360 C   0  0  0  0  0  3  0  0  0  0  0  0
  189.3330  176.9420  137.4890 C   0  0  0  0  0  0  0  0  0  0  0  0
  187.3070  176.6990  135.6080 C   0  0  0  0  0  3  0  0  0  0  0  0
  189.0950  177.9770  136.5840 C   0  0  0  0  0  3  0  0  0  0  0  0
  189.8810  177.4060  139.8620 C   0  0  0  0  0  0  0  0  0  0  0  0
  189.7830  177.5440  142.1730 C   0  0  0  0  0  0  0  0  0  0  0  0
  190.4970  177.0820  141.0540 C   0  0  0  0  0  3  0  0  0  0  0  0
  188.6140  178.2420  141.8770 C   0  0  0  0  0  3  0  0  0  0  0  0
  188.4820  178.2750  140.2010 S   0  0  0  0  0  0  0  0  0  0  0  0
  188.5810  177.2570  147.4420 C   0  0  0  0  0  3  0  0  0  0  0  0
  188.1790  177.6180  145.0220 C   0  0  0  0  0  3  0  0  0  0  0  0
  190.4260  177.0880  145.7880 C   0  0  0  0  0  0  0  0  0  0  0  0
  190.2520  177.3440  143.5520 C   0  0  0  0  0  0  0  0  0  0  0  0
  190.0630  176.9820  147.2390 C   0  0  0  0  0  2  0  0  0  0  0  0
  189.4660  177.4060  144.7730 C   0  0  0  0  0  0  0  0  0  0  0  0
  191.5840  176.8680  145.2590 N   0  0  0  0  0  0  0  0  0  0  0  0
  187.7300  177.5440  146.4340 C   0  0  0  0  0  3  0  0  0  0  0  0
  191.4730  177.0330  143.8670 N   0  0  0  0  0  0  0  0  0  0  0  0
  191.3280  175.8920  138.5090 C   0  0  0  0  0  3  0  0  0  0  0  0
  192.3740  175.8180  137.6910 C   0  0  0  0  0  3  0  0  0  0  0  0
  193.2500  174.6870  137.6850 N   0  0  0  0  0  2  0  0  0  0  0  0
  195.1930  173.9970  136.3800 C   0  0  0  0  0  1  0  0  0  0  0  0
  194.6990  174.7900  137.5780 C   0  0  2  0  0  3  0  0  0  0  0  0
  195.4630  173.0360  138.9950 O   0  0  0  0  0  0  0  0  0  0  0  0
  195.7980  175.1610  139.7940 O   0  0  0  0  0  1  0  0  0  0  0  0
  195.3390  174.2780  138.8220 C   0  0  0  0  0  0  0  0  0  0  0  0
  1 22  1  1  0  0  0
  1  8  1  0  0  0  0
  2  5  1  0  0  0  0
  3  2  2  0  0  0  0
  4  7  1  0  0  0  0
  5  1  1  0  0  0  0
  6  4  2  0  0  0  0
  6  3  1  0  0  0  0
  7  5  2  0  0  0  0
  8 12  1  0  0  0  0
  8 10  2  0  0  0  0
  9 16  1  0  0  0  0
 10  9  1  0  0  0  0
 11  9  2  0  0  0  0
 12 11  1  0  0  0  0
 14 20  1  0  0  0  0
 15 17  1  0  0  0  0
 16 21  2  0  0  0  0
 16 18  1  0  0  0  0
 17 13  1  0  0  0  0
 18 14  2  0  0  0  0
 18 15  1  0  0  0  0
 19 15  2  0  0  0  0
 20 13  2  0  0  0  0
 21 19  1  0  0  0  0
 23 22  2  0  0  0  0
 24 23  1  0  0  0  0
 26 25  1  6  0  0  0
 26 24  1  0  0  0  0
 26 29  1  0  0  0  0
 29 27  2  0  0  0  0
 29 28  1  0  0  0  0
M  END
>  <MODEL>
5

>  <REMARK>
 VINA RESULT:      -8.0      5.084      6.645
  Name = 
  7 active torsions:
  status: ('A' for Active; 'I' for Inactive)
    1  A    between atoms: C_2  and  C_11
    2  A    between atoms: C_4  and  C_11
    3  A    between atoms: C_10  and  C_13
    4  A    between atoms: C_11  and  C_15
    5  A    between atoms: C_16  and  N_26
    6  A    between atoms: CA_18  and  C_25
    7  A    between atoms: CA_18  and  N_26
                            x       y       z     vdW  Elec       q    Type
                         _______ _______ _______ _____ _____    ______ ____

>  <TORSDO>
F 7

$$$$
=
 OpenBabel11042411003D

 29 32  0  0  1  0  0  0  0  0999 V2000
  187.3370  177.0650  144.5900 C   0  0  1  0  0  3  0  0  0  0  0  0
  186.8040  178.1370  146.8190 C   0  0  0  0  0  3  0  0  0  0  0  0
  187.1790  178.5020  148.0740 N   0  0  0  0  0  0  0  0  0  0  0  0
  189.3650  177.6060  147.7380 C   0  0  0  0  0  3  0  0  0  0  0  0
  187.7130  177.4880  145.9760 C   0  0  0  0  0  0  0  0  0  0  0  0
  188.4300  178.2530  148.5460 C   0  0  0  0  0  3  0  0  0  0  0  0
  188.9990  177.2230  146.4480 C   0  0  0  0  0  3  0  0  0  0  0  0
  186.1940  177.8780  144.0550 C   0  0  0  0  0  0  0  0  0  0  0  0
  184.7660  178.8380  142.5050 C   0  0  0  0  0  0  0  0  0  0  0  0
  185.9260  178.0740  142.7150 C   0  0  0  0  0  3  0  0  0  0  0  0
  184.1070  179.2400  143.6650 C   0  0  0  0  0  3  0  0  0  0  0  0
  184.9900  178.6270  144.9580 S   0  0  0  0  0  0  0  0  0  0  0  0
  180.5980  178.8980  139.0520 C   0  0  0  0  0  3  0  0  0  0  0  0
  181.8130  178.4240  141.1610 C   0  0  0  0  0  3  0  0  0  0  0  0
  182.9990  179.4760  139.3170 C   0  0  0  0  0  0  0  0  0  0  0  0
  184.2610  179.1600  141.1620 C   0  0  0  0  0  0  0  0  0  0  0  0
  181.8210  179.5110  138.3890 C   0  0  0  0  0  3  0  0  0  0  0  0
  182.9240  178.9290  140.6390 C   0  0  1  0  0  3  0  0  0  0  0  0
  184.1780  179.9550  139.0940 N   0  0  0  0  0  0  0  0  0  0  0  0
  180.5980  178.4070  140.3100 C   0  0  0  0  0  3  0  0  0  0  0  0
  184.9620  179.7530  140.2440 N   0  0  0  0  0  0  0  0  0  0  0  0
  188.5230  177.0700  143.6770 C   0  0  0  0  0  3  0  0  0  0  0  0
  188.8460  175.9920  142.9680 C   0  0  0  0  0  3  0  0  0  0  0  0
  189.9720  175.9770  142.0860 N   0  0  0  0  0  2  0  0  0  0  0  0
  190.2580  176.7530  139.7910 C   0  0  0  0  0  1  0  0  0  0  0  0
  190.3680  177.1110  141.2620 C   0  0  2  0  0  3  0  0  0  0  0  0
  192.0630  177.8570  142.7580 O   0  0  0  0  0  1  0  0  0  0  0  0
  192.7470  177.5030  140.5970 O   0  0  0  0  0  0  0  0  0  0  0  0
  191.7670  177.5100  141.5840 C   0  0  0  0  0  0  0  0  0  0  0  0
  1 22  1  6  0  0  0
  1  5  1  0  0  0  0
  2  3  1  0  0  0  0
  3  6  2  0  0  0  0
  4  6  1  0  0  0  0
  5  7  1  0  0  0  0
  5  2  2  0  0  0  0
  7  4  2  0  0  0  0
  8  1  1  0  0  0  0
  8 12  1  0  0  0  0
  9 10  1  0  0  0  0
  9 11  2  0  0  0  0
 10  8  2  0  0  0  0
 11 12  1  0  0  0  0
 13 20  1  0  0  0  0
 15 18  1  0  0  0  0
 16  9  1  0  0  0  0
 17 13  2  0  0  0  0
 17 15  1  0  0  0  0
 18 14  1  1  0  0  0
 18 16  1  0  0  0  0
 19 15  2  0  0  0  0
 19 21  1  0  0  0  0
 20 14  2  0  0  0  0
 21 16  2  0  0  0  0
 23 22  2  0  0  0  0
 24 23  1  0  0  0  0
 26 25  1  6  0  0  0
 26 29  1  0  0  0  0
 26 24  1  0  0  0  0
 28 29  2  0  0  0  0
 29 27  1  0  0  0  0
M  END
>  <MODEL>
6

>  <REMARK>
 VINA RESULT:      -8.0      2.588      7.230
  Name = 
  7 active torsions:
  status: ('A' for Active; 'I' for Inactive)
    1  A    between atoms: C_2  and  C_11
    2  A    between atoms: C_4  and  C_11
    3  A    between atoms: C_10  and  C_13
    4  A    between atoms: C_11  and  C_15
    5  A    between atoms: C_16  and  N_26
    6  A    between atoms: CA_18  and  C_25
    7  A    between atoms: CA_18  and  N_26
                            x       y       z     vdW  Elec       q    Type
                         _______ _______ _______ _____ _____    ______ ____

>  <TORSDO>
F 7

$$$$
=
 OpenBabel11042411003D

 29 32  0  0  1  0  0  0  0  0999 V2000
  181.8420  178.9910  140.3830 C   0  0  1  0  0  3  0  0  0  0  0  0
  182.2010  176.6010  139.6330 C   0  0  0  0  0  3  0  0  0  0  0  0
  181.7130  175.3590  139.3710 N   0  0  0  0  0  0  0  0  0  0  0  0
  179.5080  176.0410  139.9770 C   0  0  0  0  0  3  0  0  0  0  0  0
  181.3430  177.6120  140.0790 C   0  0  0  0  0  0  0  0  0  0  0  0
  180.3950  175.0620  139.5320 C   0  0  0  0  0  3  0  0  0  0  0  0
  179.9890  177.3210  140.2510 C   0  0  0  0  0  3  0  0  0  0  0  0
  183.1240  178.9560  141.1620 C   0  0  0  0  0  0  0  0  0  0  0  0
  184.5360  178.8010  142.9920 C   0  0  0  0  0  0  0  0  0  0  0  0
  183.2080  178.8610  142.5370 C   0  0  0  0  0  3  0  0  0  0  0  0
  185.5040  178.8350  141.9900 C   0  0  0  0  0  3  0  0  0  0  0  0
  184.6810  178.9410  140.5280 S   0  0  0  0  0  0  0  0  0  0  0  0
  188.2100  177.4420  146.7280 C   0  0  0  0  0  3  0  0  0  0  0  0
  187.2520  177.7180  144.4570 C   0  0  0  0  0  3  0  0  0  0  0  0
  185.9090  178.3150  146.3940 C   0  0  0  0  0  0  0  0  0  0  0  0
  184.8810  178.6710  144.4160 C   0  0  0  0  0  0  0  0  0  0  0  0
  186.9540  177.9620  147.4100 C   0  0  0  0  0  2  0  0  0  0  0  0
  186.1190  178.1640  144.9850 C   0  0  0  0  0  0  0  0  0  0  0  0
  184.7460  178.8290  146.6230 N   0  0  0  0  0  0  0  0  0  0  0  0
  188.3420  177.3340  145.3880 C   0  0  0  0  0  3  0  0  0  0  0  0
  184.1070  179.0460  145.3890 N   0  0  0  0  0  0  0  0  0  0  0  0
  181.9480  179.8200  139.1410 C   0  0  0  0  0  2  0  0  0  0  0  0
  181.3900  181.0260  139.0730 C   0  0  0  0  0  3  0  0  0  0  0  0
  181.4830  181.8360  137.8970 N   0  0  0  0  0  0  0  0  0  0  0  0
  179.4730  182.5170  136.6930 C   0  0  0  0  0  1  0  0  0  0  0  0
  180.5950  182.9560  137.6170 C   0  0  2  0  0  3  0  0  0  0  0  0
  182.3310  184.5850  137.6070 O   0  0  0  0  0  1  0  0  0  0  0  0
  181.0150  184.5410  135.7280 O   0  0  0  0  0  0  0  0  0  0  0  0
  181.3620  184.0680  136.9890 C   0  0  0  0  0  0  0  0  0  0  0  0
  1 22  1  6  0  0  0
  1  8  1  0  0  0  0
  2  5  1  0  0  0  0
  3  6  1  0  0  0  0
  3  2  2  0  0  0  0
  4  7  1  0  0  0  0
  5  7  2  0  0  0  0
  5  1  1  0  0  0  0
  6  4  2  0  0  0  0
  8 10  2  0  0  0  0
  9 16  1  0  0  0  0
 10  9  1  0  0  0  0
 11  9  2  0  0  0  0
 12  8  1  0  0  0  0
 12 11  1  0  0  0  0
 13 17  1  0  0  0  0
 14 18  2  0  0  0  0
 14 20  1  0  0  0  0
 15 19  2  0  0  0  0
 15 17  1  0  0  0  0
 16 18  1  0  0  0  0
 16 21  2  0  0  0  0
 18 15  1  0  0  0  0
 20 13  2  0  0  0  0
 21 19  1  0  0  0  0
 23 22  1  0  0  0  0
 24 23  2  0  0  0  0
 26 25  1  6  0  0  0
 26 24  1  0  0  0  0
 28 29  2  0  0  0  0
 29 27  1  0  0  0  0
 29 26  1  0  0  0  0
M  END
>  <MODEL>
7

>  <REMARK>
 VINA RESULT:      -8.0      3.473      4.558
  Name = 
  7 active torsions:
  status: ('A' for Active; 'I' for Inactive)
    1  A    between atoms: C_2  and  C_11
    2  A    between atoms: C_4  and  C_11
    3  A    between atoms: C_10  and  C_13
    4  A    between atoms: C_11  and  C_15
    5  A    between atoms: C_16  and  N_26
    6  A    between atoms: CA_18  and  C_25
    7  A    between atoms: CA_18  and  N_26
                            x       y       z     vdW  Elec       q    Type
                         _______ _______ _______ _____ _____    ______ ____

>  <TORSDO>
F 7

$$$$
=
 OpenBabel11042411003D

 29 32  0  0  1  0  0  0  0  0999 V2000
  184.7340  178.1390  142.1850 C   0  0  1  0  0  3  0  0  0  0  0  0
  185.7490  178.4860  139.8940 C   0  0  0  0  0  3  0  0  0  0  0  0
  186.8400  178.6280  139.0940 N   0  0  0  0  0  0  0  0  0  0  0  0
  188.3060  178.3990  140.9620 C   0  0  0  0  0  3  0  0  0  0  0  0
  185.9100  178.2930  141.2700 C   0  0  0  0  0  0  0  0  0  0  0  0
  188.1030  178.5870  139.5960 C   0  0  0  0  0  3  0  0  0  0  0  0
  187.2000  178.2530  141.7990 C   0  0  0  0  0  3  0  0  0  0  0  0
  185.1160  178.3650  143.6190 C   0  0  0  0  0  0  0  0  0  0  0  0
  186.3580  178.2380  145.5690 C   0  0  0  0  0  0  0  0  0  0  0  0
  186.2220  177.8170  144.2360 C   0  0  0  0  0  3  0  0  0  0  0  0
  185.3770  179.1230  146.0110 C   0  0  0  0  0  3  0  0  0  0  0  0
  184.3370  179.3750  144.7140 S   0  0  0  0  0  0  0  0  0  0  0  0
  191.5310  176.6910  145.9570 C   0  0  0  0  0  3  0  0  0  0  0  0
  189.4230  177.3610  144.8360 C   0  0  0  0  0  3  0  0  0  0  0  0
  189.4670  177.1530  147.2590 C   0  0  0  0  0  0  0  0  0  0  0  0
  187.4730  177.8090  146.4270 C   0  0  0  0  0  0  0  0  0  0  0  0
  190.9110  176.7570  147.3430 C   0  0  0  0  0  2  0  0  0  0  0  0
  188.8120  177.4220  146.0130 C   0  0  0  0  0  0  0  0  0  0  0  0
  188.6560  177.3510  148.2450 N   0  0  0  0  0  0  0  0  0  0  0  0
  190.8530  176.9670  144.8220 C   0  0  0  0  0  3  0  0  0  0  0  0
  187.4150  177.7550  147.7230 N   0  0  0  0  0  0  0  0  0  0  0  0
  183.5880  178.9990  141.7530 C   0  0  0  0  0  3  0  0  0  0  0  0
  182.4100  178.4650  141.4420 C   0  0  0  0  0  3  0  0  0  0  0  0
  181.3010  179.2690  141.0310 N   0  0  0  0  0  2  0  0  0  0  0  0
  180.0440  180.2030  142.9020 C   0  0  0  0  0  1  0  0  0  0  0  0
  180.0090  179.2680  141.7060 C   0  0  2  0  0  3  0  0  0  0  0  0
  179.3660  177.0140  141.2950 O   0  0  0  0  0  0  0  0  0  0  0  0
  179.6810  177.5590  143.5010 O   0  0  0  0  0  1  0  0  0  0  0  0
  179.6690  177.8880  142.1500 C   0  0  0  0  0  0  0  0  0  0  0  0
  1 22  1  6  0  0  0
  1  8  1  0  0  0  0
  2  5  1  0  0  0  0
  3  6  1  0  0  0  0
  3  2  2  0  0  0  0
  4  7  1  0  0  0  0
  5  7  2  0  0  0  0
  5  1  1  0  0  0  0
  6  4  2  0  0  0  0
  8 10  2  0  0  0  0
  8 12  1  0  0  0  0
  9 11  2  0  0  0  0
  9 16  1  0  0  0  0
 10  9  1  0  0  0  0
 12 11  1  0  0  0  0
 13 17  1  0  0  0  0
 14 18  2  0  0  0  0
 15 17  1  0  0  0  0
 15 19  2  0  0  0  0
 16 21  2  0  0  0  0
 18 16  1  0  0  0  0
 18 15  1  0  0  0  0
 20 14  1  0  0  0  0
 20 13  2  0  0  0  0
 21 19  1  0  0  0  0
 23 22  2  0  0  0  0
 24 23  1  0  0  0  0
 24 26  1  0  0  0  0
 26 29  1  0  0  0  0
 26 25  1  1  0  0  0
 27 29  2  0  0  0  0
 29 28  1  0  0  0  0
M  END
>  <MODEL>
8

>  <REMARK>
 VINA RESULT:      -8.0      3.669      5.734
  Name = 
  7 active torsions:
  status: ('A' for Active; 'I' for Inactive)
    1  A    between atoms: C_2  and  C_11
    2  A    between atoms: C_4  and  C_11
    3  A    between atoms: C_10  and  C_13
    4  A    between atoms: C_11  and  C_15
    5  A    between atoms: C_16  and  N_26
    6  A    between atoms: CA_18  and  C_25
    7  A    between atoms: CA_18  and  N_26
                            x       y       z     vdW  Elec       q    Type
                         _______ _______ _______ _____ _____    ______ ____

>  <TORSDO>
F 7

$$$$
=
 OpenBabel11042411003D

 29 32  0  0  1  0  0  0  0  0999 V2000
  190.4220  176.8700  141.2960 C   0  0  1  0  0  3  0  0  0  0  0  0
  191.0280  175.9270  143.5650 C   0  0  0  0  0  3  0  0  0  0  0  0
  191.4380  176.1080  144.8490 N   0  0  0  0  0  0  0  0  0  0  0  0
  191.5520  178.4710  144.5340 C   0  0  0  0  0  3  0  0  0  0  0  0
  190.8660  177.0290  142.7180 C   0  0  0  0  0  0  0  0  0  0  0  0
  191.6990  177.3470  145.3450 C   0  0  0  0  0  3  0  0  0  0  0  0
  191.1340  178.3050  143.2140 C   0  0  0  0  0  3  0  0  0  0  0  0
  189.0650  177.4690  141.0710 C   0  0  0  0  0  0  0  0  0  0  0  0
  186.9220  178.2050  141.5500 C   0  0  0  0  0  0  0  0  0  0  0  0
  188.0720  177.5520  142.0250 C   0  0  0  0  0  3  0  0  0  0  0  0
  187.0000  178.6490  140.2310 C   0  0  0  0  0  3  0  0  0  0  0  0
  188.5230  178.2180  139.6670 S   0  0  0  0  0  0  0  0  0  0  0  0
  184.7680  178.4020  146.5120 C   0  0  0  0  0  3  0  0  0  0  0  0
  186.5090  178.0150  144.7890 C   0  0  0  0  0  3  0  0  0  0  0  0
  184.2820  178.7030  144.0950 C   0  0  0  0  0  0  0  0  0  0  0  0
  185.7370  178.4370  142.3890 C   0  0  0  0  0  0  0  0  0  0  0  0
  183.7160  178.7810  145.4820 C   0  0  0  0  0  3  0  0  0  0  0  0
  185.6380  178.3180  143.8350 C   0  0  1  0  0  3  0  0  0  0  0  0
  183.6810  179.0040  142.9920 N   0  0  0  0  0  0  0  0  0  0  0  0
  186.0340  178.0550  146.1940 C   0  0  0  0  0  3  0  0  0  0  0  0
  184.5880  178.8340  141.9320 N   0  0  0  0  0  0  0  0  0  0  0  0
  191.4480  177.3950  140.3410 C   0  0  0  0  0  2  0  0  0  0  0  0
  192.0280  176.5950  139.4510 C   0  0  0  0  0  3  0  0  0  0  0  0
  193.0080  177.0770  138.5260 N   0  0  0  0  0  0  0  0  0  0  0  0
  192.3080  175.9130  136.4990 C   0  0  0  0  0  1  0  0  0  0  0  0
  193.4790  176.3130  137.3790 C   0  0  2  0  0  3  0  0  0  0  0  0
  195.1960  175.2160  138.6090 O   0  0  0  0  0  1  0  0  0  0  0  0
  193.7980  173.8330  137.4290 O   0  0  0  0  0  0  0  0  0  0  0  0
  194.2050  175.0970  137.8410 C   0  0  0  0  0  0  0  0  0  0  0  0
  1 22  1  6  0  0  0
  1  5  1  0  0  0  0
  2  3  1  0  0  0  0
  3  6  2  0  0  0  0
  4  6  1  0  0  0  0
  5  7  1  0  0  0  0
  5  2  2  0  0  0  0
  7  4  2  0  0  0  0
  8  1  1  0  0  0  0
  8 10  2  0  0  0  0
  9 10  1  0  0  0  0
  9 16  1  0  0  0  0
 11  9  2  0  0  0  0
 12 11  1  0  0  0  0
 12  8  1  0  0  0  0
 14 20  2  0  0  0  0
 15 17  1  0  0  0  0
 16 18  1  0  0  0  0
 17 13  2  0  0  0  0
 18 15  1  0  0  0  0
 18 14  1  1  0  0  0
 19 15  2  0  0  0  0
 20 13  1  0  0  0  0
 21 16  2  0  0  0  0
 21 19  1  0  0  0  0
 23 22  1  0  0  0  0
 24 23  2  0  0  0  0
 26 25  1  6  0  0  0
 26 29  1  0  0  0  0
 26 24  1  0  0  0  0
 28 29  2  0  0  0  0
 29 27  1  0  0  0  0
M  END
>  <MODEL>
9

>  <REMARK>
 VINA RESULT:      -8.0      3.882      6.919
  Name = 
  7 active torsions:
  status: ('A' for Active; 'I' for Inactive)
    1  A    between atoms: C_2  and  C_11
    2  A    between atoms: C_4  and  C_11
    3  A    between atoms: C_10  and  C_13
    4  A    between atoms: C_11  and  C_15
    5  A    between atoms: C_16  and  N_26
    6  A    between atoms: CA_18  and  C_25
    7  A    between atoms: CA_18  and  N_26
                            x       y       z     vdW  Elec       q    Type
                         _______ _______ _______ _____ _____    ______ ____

>  <TORSDO>
F 7

$$$$
