=
 OpenBabel11032421263D

 34 36  0  0  0  0  0  0  0  0999 V2000
  188.8460  178.8840  142.1060 O   0  0  0  0  0  0  0  0  0  0  0  0
  188.8540  177.1370  148.0700 C   0  0  0  0  0  3  0  0  0  0  0  0
  187.7960  177.4370  145.8750 C   0  0  0  0  0  0  0  0  0  0  0  0
  190.1300  177.2970  147.5040 C   0  0  0  0  0  3  0  0  0  0  0  0
  189.0910  177.5630  145.3340 C   0  0  0  0  0  0  0  0  0  0  0  0
  191.3210  177.7120  145.4100 N   0  0  0  0  0  0  0  0  0  0  0  0
  190.2050  177.5110  146.1310 C   0  0  0  0  0  0  0  0  0  0  0  0
  189.4930  177.7970  144.0650 N   0  0  0  0  0  0  0  0  0  0  0  0
  187.8480  176.7550  142.4320 C   0  0  0  0  0  1  0  0  0  0  0  0
  190.8450  177.8840  144.1520 C   0  0  0  0  0  0  0  0  0  0  0  0
  188.7190  177.8850  142.8610 C   0  0  0  0  0  0  0  0  0  0  0  0
  187.7000  177.2100  147.2660 C   0  0  0  0  0  3  0  0  0  0  0  0
  186.5850  177.5500  145.0470 C   0  0  0  0  0  3  0  0  0  0  0  0
  185.8350  178.6500  145.0020 C   0  0  0  0  0  3  0  0  0  0  0  0
  182.1960  178.9020  144.1000 C   0  0  0  0  0  3  0  0  0  0  0  0
  184.6140  178.7410  144.1910 C   0  0  0  0  0  0  0  0  0  0  0  0
  183.4750  178.7670  142.0410 C   0  0  0  0  0  0  0  0  0  0  0  0
  183.3790  178.8340  144.8400 C   0  0  0  0  0  3  0  0  0  0  0  0
  184.6560  178.7080  142.7880 C   0  0  0  0  0  3  0  0  0  0  0  0
  182.2430  178.8640  142.7040 C   0  0  0  0  0  3  0  0  0  0  0  0
  183.5460  178.7270  140.6460 O   0  0  0  0  0  0  0  0  0  0  0  0
  184.3400  179.6050  139.9400 N   0  0  0  0  0  2  0  0  0  0  0  0
  183.5520  180.0660  138.8120 C   0  0  0  0  0  1  0  0  0  0  0  0
  191.7380  178.1430  142.9850 C   0  0  0  0  0  2  0  0  0  0  0  0
  191.7440  176.9860  142.1050 N   0  0  0  0  0  2  0  0  0  0  0  0
  191.9480  177.4890  140.7590 C   0  0  0  0  0  2  0  0  0  0  0  0
  190.7860  177.1200  139.9070 C   0  0  0  0  0  0  0  0  0  0  0  0
  190.4350  175.9120  139.8290 O   0  0  0  0  0  0  0  0  0  0  0  0
  190.1140  178.1190  139.1870 O   0  0  0  0  0  0  0  0  0  0  0  0
  190.0800  176.9120  137.0720 C   0  0  0  0  0  1  0  0  0  0  0  0
  189.3570  177.8850  137.9930 C   0  0  0  0  0  0  0  0  0  0  0  0
  189.1180  179.1920  137.2560 C   0  0  0  0  0  1  0  0  0  0  0  0
  187.0410  178.3190  138.4730 O   0  0  0  0  0  1  0  0  0  0  0  0
  187.9990  177.3070  138.3690 C   0  0  0  0  0  2  0  0  0  0  0  0
  1 11  2  0  0  0  0
  3 12  1  0  0  0  0
  4  2  1  0  0  0  0
  5  3  2  0  0  0  0
  5  7  1  0  0  0  0
  6  7  1  0  0  0  0
  7  4  2  0  0  0  0
  8 10  1  0  0  0  0
  8  5  1  0  0  0  0
  9 11  1  0  0  0  0
 10  6  2  0  0  0  0
 11  8  1  0  0  0  0
 12  2  2  0  0  0  0
 13  3  1  0  0  0  0
 14 13  2  0  0  0  0
 15 18  1  0  0  0  0
 16 18  2  0  0  0  0
 16 14  1  0  0  0  0
 17 20  1  0  0  0  0
 17 19  2  0  0  0  0
 19 16  1  0  0  0  0
 20 15  2  0  0  0  0
 21 17  1  0  0  0  0
 22 21  1  0  0  0  0
 23 22  1  0  0  0  0
 24 10  1  0  0  0  0
 25 24  1  0  0  0  0
 26 25  1  0  0  0  0
 27 26  1  0  0  0  0
 28 27  2  0  0  0  0
 29 27  1  0  0  0  0
 30 31  1  0  0  0  0
 31 34  1  0  0  0  0
 31 29  1  0  0  0  0
 32 31  1  0  0  0  0
 34 33  1  0  0  0  0
M  END
>  <MODEL>
1

>  <REMARK>
 VINA RESULT:      -8.6      0.000      0.000
  Name = 
  11 active torsions:
  status: ('A' for Active; 'I' for Inactive)
    1  A    between atoms: O_1  and  C_9
    2  A    between atoms: O_1  and  N_22
    3  A    between atoms: C_4  and  C_6
    4  A    between atoms: C_4  and  O_24
    5  A    between atoms: C_6  and  N_18
    6  A    between atoms: C_7  and  C_28
    7  A    between atoms: C_8  and  C_29
    8  A    between atoms: C_11  and  N_18
    9  A    between atoms: C_11  and  C_30
   10  A    between atoms: C_14  and  C_17
   11  A    between atoms: O_24  and  C_28
                            x       y       z     vdW  Elec       q    Type
                         _______ _______ _______ _____ _____    ______ ____

>  <TORSDO>
F 11

$$$$
=
 OpenBabel11032421263D

 34 36  0  0  0  0  0  0  0  0999 V2000
  189.8110  176.8310  141.1680 O   0  0  0  0  0  0  0  0  0  0  0  0
  183.9050  178.7460  141.4660 C   0  0  0  0  0  3  0  0  0  0  0  0
  186.0840  178.1950  142.4550 C   0  0  0  0  0  0  0  0  0  0  0  0
  184.4730  178.7930  140.1820 C   0  0  0  0  0  3  0  0  0  0  0  0
  186.6280  178.2790  141.1580 C   0  0  0  0  0  0  0  0  0  0  0  0
  186.5590  178.5250  138.9360 N   0  0  0  0  0  0  0  0  0  0  0  0
  185.8380  178.5510  140.0700 C   0  0  0  0  0  0  0  0  0  0  0  0
  187.8910  178.0780  140.7210 N   0  0  0  0  0  0  0  0  0  0  0  0
  189.5470  178.7640  142.5220 C   0  0  0  0  0  1  0  0  0  0  0  0
  187.8090  178.2320  139.3740 C   0  0  0  0  0  0  0  0  0  0  0  0
  189.0870  177.8170  141.4680 C   0  0  0  0  0  0  0  0  0  0  0  0
  184.7010  178.4460  142.5900 C   0  0  0  0  0  3  0  0  0  0  0  0
  186.9020  177.8450  143.6280 C   0  0  0  0  0  3  0  0  0  0  0  0
  186.6170  178.2590  144.8610 C   0  0  0  0  0  3  0  0  0  0  0  0
  187.7310  177.8670  148.4290 C   0  0  0  0  0  3  0  0  0  0  0  0
  187.4560  177.9250  146.0200 C   0  0  0  0  0  0  0  0  0  0  0  0
  189.5430  177.1320  146.9880 C   0  0  0  0  0  0  0  0  0  0  0  0
  186.9530  178.1530  147.3050 C   0  0  0  0  0  3  0  0  0  0  0  0
  188.7550  177.4130  145.8670 C   0  0  0  0  0  3  0  0  0  0  0  0
  189.0250  177.3610  148.2720 C   0  0  0  0  0  3  0  0  0  0  0  0
  190.8330  176.6280  146.8070 O   0  0  0  0  0  0  0  0  0  0  0  0
  191.8300  176.8530  147.7300 N   0  0  0  0  0  2  0  0  0  0  0  0
  192.5430  175.5990  147.8900 C   0  0  0  0  0  1  0  0  0  0  0  0
  188.9720  178.0950  138.4500 C   0  0  0  0  0  2  0  0  0  0  0  0
  188.9460  176.7870  137.8190 N   0  0  0  0  0  2  0  0  0  0  0  0
  190.0900  176.7340  136.9260 C   0  0  0  0  0  2  0  0  0  0  0  0
  191.2200  176.0450  137.6050 C   0  0  0  0  0  0  0  0  0  0  0  0
  190.9770  175.1390  138.4470 O   0  0  0  0  0  0  0  0  0  0  0  0
  192.5370  176.4320  137.3160 O   0  0  0  0  0  0  0  0  0  0  0  0
  194.3390  176.5710  135.6840 C   0  0  0  0  0  1  0  0  0  0  0  0
  193.4510  175.6630  136.5240 C   0  0  0  0  0  0  0  0  0  0  0  0
  192.6900  174.7170  135.6100 C   0  0  0  0  0  1  0  0  0  0  0  0
  194.6150  175.5150  138.6230 O   0  0  0  0  0  1  0  0  0  0  0  0
  194.3220  174.8210  137.4460 C   0  0  0  0  0  2  0  0  0  0  0  0
  1 11  2  0  0  0  0
  2 12  1  0  0  0  0
  3 12  2  0  0  0  0
  3 13  1  0  0  0  0
  4  2  2  0  0  0  0
  5  3  1  0  0  0  0
  6 10  2  0  0  0  0
  6  7  1  0  0  0  0
  7  4  1  0  0  0  0
  7  5  2  0  0  0  0
  8  5  1  0  0  0  0
  8 11  1  0  0  0  0
 10  8  1  0  0  0  0
 11  9  1  0  0  0  0
 13 14  2  0  0  0  0
 14 16  1  0  0  0  0
 16 18  1  0  0  0  0
 17 20  2  0  0  0  0
 18 15  2  0  0  0  0
 19 16  2  0  0  0  0
 19 17  1  0  0  0  0
 20 15  1  0  0  0  0
 21 17  1  0  0  0  0
 21 22  1  0  0  0  0
 22 23  1  0  0  0  0
 24 10  1  0  0  0  0
 25 24  1  0  0  0  0
 26 27  1  0  0  0  0
 26 25  1  0  0  0  0
 27 28  2  0  0  0  0
 29 27  1  0  0  0  0
 30 31  1  0  0  0  0
 31 29  1  0  0  0  0
 31 34  1  0  0  0  0
 32 31  1  0  0  0  0
 34 33  1  0  0  0  0
M  END
>  <MODEL>
2

>  <REMARK>
 VINA RESULT:      -8.1      2.638      6.322
  Name = 
  11 active torsions:
  status: ('A' for Active; 'I' for Inactive)
    1  A    between atoms: O_1  and  C_9
    2  A    between atoms: O_1  and  N_22
    3  A    between atoms: C_4  and  C_6
    4  A    between atoms: C_4  and  O_24
    5  A    between atoms: C_6  and  N_18
    6  A    between atoms: C_7  and  C_28
    7  A    between atoms: C_8  and  C_29
    8  A    between atoms: C_11  and  N_18
    9  A    between atoms: C_11  and  C_30
   10  A    between atoms: C_14  and  C_17
   11  A    between atoms: O_24  and  C_28
                            x       y       z     vdW  Elec       q    Type
                         _______ _______ _______ _____ _____    ______ ____

>  <TORSDO>
F 11

$$$$
=
 OpenBabel11032421263D

 34 36  0  0  0  0  0  0  0  0999 V2000
  185.3640  179.8550  142.2600 O   0  0  0  0  0  0  0  0  0  0  0  0
  190.2850  177.2780  139.4730 C   0  0  0  0  0  3  0  0  0  0  0  0
  188.9200  177.8350  141.4360 C   0  0  0  0  0  0  0  0  0  0  0  0
  189.2150  177.5800  138.6130 C   0  0  0  0  0  3  0  0  0  0  0  0
  187.8580  178.1010  140.5480 C   0  0  0  0  0  0  0  0  0  0  0  0
  186.8960  178.3480  138.5450 N   0  0  0  0  0  0  0  0  0  0  0  0
  188.0190  177.9910  139.1910 C   0  0  0  0  0  0  0  0  0  0  0  0
  186.6000  178.5330  140.7890 N   0  0  0  0  0  0  0  0  0  0  0  0
  185.8000  177.6540  143.0350 C   0  0  0  0  0  1  0  0  0  0  0  0
  186.0520  178.6740  139.5550 C   0  0  0  0  0  0  0  0  0  0  0  0
  185.9310  178.7540  142.0390 C   0  0  0  0  0  0  0  0  0  0  0  0
  190.1400  177.4070  140.8680 C   0  0  0  0  0  3  0  0  0  0  0  0
  188.7870  178.0040  142.8920 C   0  0  0  0  0  3  0  0  0  0  0  0
  189.3690  177.1940  143.7740 C   0  0  0  0  0  3  0  0  0  0  0  0
  190.1570  177.1680  147.4480 C   0  0  0  0  0  3  0  0  0  0  0  0
  189.2080  177.3580  145.2240 C   0  0  0  0  0  0  0  0  0  0  0  0
  187.8610  177.9100  147.1750 C   0  0  0  0  0  0  0  0  0  0  0  0
  190.2820  177.0440  146.0620 C   0  0  0  0  0  3  0  0  0  0  0  0
  187.9960  177.7910  145.7870 C   0  0  0  0  0  3  0  0  0  0  0  0
  188.9480  177.5960  148.0040 C   0  0  0  0  0  3  0  0  0  0  0  0
  186.6430  178.3390  147.7070 O   0  0  0  0  0  0  0  0  0  0  0  0
  185.8110  179.1880  147.0100 N   0  0  0  0  0  2  0  0  0  0  0  0
  184.6700  178.3990  146.5840 C   0  0  0  0  0  1  0  0  0  0  0  0
  184.6550  179.1410  139.3150 C   0  0  0  0  0  2  0  0  0  0  0  0
  183.8270  178.0200  138.9040 N   0  0  0  0  0  2  0  0  0  0  0  0
  183.0390  177.6390  140.0610 C   0  0  0  0  0  2  0  0  0  0  0  0
  181.9550  178.6340  140.2750 C   0  0  0  0  0  0  0  0  0  0  0  0
  181.2370  178.9870  139.3010 O   0  0  0  0  0  0  0  0  0  0  0  0
  181.7630  179.1810  141.5520 O   0  0  0  0  0  0  0  0  0  0  0  0
  179.7990  177.7770  141.8660 C   0  0  0  0  0  1  0  0  0  0  0  0
  180.5880  178.9860  142.3490 C   0  0  0  0  0  0  0  0  0  0  0  0
  179.7020  180.2200  142.2930 C   0  0  0  0  0  1  0  0  0  0  0  0
  182.3910  178.7710  143.9250 O   0  0  0  0  0  1  0  0  0  0  0  0
  180.9990  178.7730  143.7990 C   0  0  0  0  0  2  0  0  0  0  0  0
  2 12  1  0  0  0  0
  3 13  1  0  0  0  0
  4  7  1  0  0  0  0
  4  2  2  0  0  0  0
  5  8  1  0  0  0  0
  5  3  1  0  0  0  0
  6  7  1  0  0  0  0
  6 10  2  0  0  0  0
  7  5  2  0  0  0  0
  8 11  1  0  0  0  0
 10  8  1  0  0  0  0
 11  1  2  0  0  0  0
 11  9  1  0  0  0  0
 12  3  2  0  0  0  0
 13 14  2  0  0  0  0
 14 16  1  0  0  0  0
 15 20  1  0  0  0  0
 16 19  2  0  0  0  0
 16 18  1  0  0  0  0
 17 21  1  0  0  0  0
 17 20  2  0  0  0  0
 18 15  2  0  0  0  0
 19 17  1  0  0  0  0
 22 21  1  0  0  0  0
 23 22  1  0  0  0  0
 24 10  1  0  0  0  0
 25 24  1  0  0  0  0
 25 26  1  0  0  0  0
 26 27  1  0  0  0  0
 27 29  1  0  0  0  0
 28 27  2  0  0  0  0
 29 31  1  0  0  0  0
 30 31  1  0  0  0  0
 31 34  1  0  0  0  0
 32 31  1  0  0  0  0
 34 33  1  0  0  0  0
M  END
>  <MODEL>
3

>  <REMARK>
 VINA RESULT:      -8.1      2.792      7.481
  Name = 
  11 active torsions:
  status: ('A' for Active; 'I' for Inactive)
    1  A    between atoms: O_1  and  C_9
    2  A    between atoms: O_1  and  N_22
    3  A    between atoms: C_4  and  C_6
    4  A    between atoms: C_4  and  O_24
    5  A    between atoms: C_6  and  N_18
    6  A    between atoms: C_7  and  C_28
    7  A    between atoms: C_8  and  C_29
    8  A    between atoms: C_11  and  N_18
    9  A    between atoms: C_11  and  C_30
   10  A    between atoms: C_14  and  C_17
   11  A    between atoms: O_24  and  C_28
                            x       y       z     vdW  Elec       q    Type
                         _______ _______ _______ _____ _____    ______ ____

>  <TORSDO>
F 11

$$$$
=
 OpenBabel11032421263D

 34 36  0  0  0  0  0  0  0  0999 V2000
  191.1610  176.2260  142.3580 O   0  0  0  0  0  0  0  0  0  0  0  0
  185.9280  178.6870  140.0800 C   0  0  0  0  0  3  0  0  0  0  0  0
  187.5980  178.3350  141.8450 C   0  0  0  0  0  0  0  0  0  0  0  0
  186.8150  178.1920  139.1100 C   0  0  0  0  0  3  0  0  0  0  0  0
  188.4730  177.8720  140.8430 C   0  0  0  0  0  0  0  0  0  0  0  0
  189.0530  177.2700  138.7680 N   0  0  0  0  0  0  0  0  0  0  0  0
  188.0780  177.7920  139.5330 C   0  0  0  0  0  0  0  0  0  0  0  0
  189.7360  177.3980  140.9310 N   0  0  0  0  0  0  0  0  0  0  0  0
  190.9570  178.5420  142.8430 C   0  0  0  0  0  1  0  0  0  0  0  0
  190.0500  177.0410  139.6590 C   0  0  0  0  0  0  0  0  0  0  0  0
  190.6070  177.3190  142.0670 C   0  0  0  0  0  0  0  0  0  0  0  0
  186.3140  178.7550  141.4340 C   0  0  0  0  0  3  0  0  0  0  0  0
  187.9810  178.3730  143.2660 C   0  0  0  0  0  3  0  0  0  0  0  0
  187.5380  177.4920  144.1610 C   0  0  0  0  0  3  0  0  0  0  0  0
  187.2510  177.9990  147.8740 C   0  0  0  0  0  3  0  0  0  0  0  0
  187.9070  177.5550  145.5820 C   0  0  0  0  0  0  0  0  0  0  0  0
  189.5490  177.3960  147.3710 C   0  0  0  0  0  0  0  0  0  0  0  0
  186.9300  177.9080  146.5170 C   0  0  0  0  0  3  0  0  0  0  0  0
  189.2180  177.3000  146.0150 C   0  0  0  0  0  3  0  0  0  0  0  0
  188.5580  177.7470  148.3000 C   0  0  0  0  0  3  0  0  0  0  0  0
  190.8620  177.1420  147.7730 O   0  0  0  0  0  0  0  0  0  0  0  0
  191.7860  176.5930  146.9100 N   0  0  0  0  0  2  0  0  0  0  0  0
  192.5790  175.6580  147.6860 C   0  0  0  0  0  1  0  0  0  0  0  0
  191.3620  176.4530  139.2600 C   0  0  0  0  0  2  0  0  0  0  0  0
  191.3620  176.1720  137.8350 N   0  0  0  0  0  2  0  0  0  0  0  0
  192.3930  175.1760  137.6080 C   0  0  0  0  0  2  0  0  0  0  0  0
  193.7320  175.8140  137.7090 C   0  0  0  0  0  0  0  0  0  0  0  0
  194.0010  176.8080  136.9810 O   0  0  0  0  0  0  0  0  0  0  0  0
  194.6830  175.2850  138.5930 O   0  0  0  0  0  0  0  0  0  0  0  0
  196.0770  174.5180  136.7490 C   0  0  0  0  0  1  0  0  0  0  0  0
  195.7110  174.3590  138.2190 C   0  0  0  0  0  0  0  0  0  0  0  0
  195.2530  172.9330  138.4720 C   0  0  0  0  0  1  0  0  0  0  0  0
  197.9080  175.3280  138.3580 O   0  0  0  0  0  1  0  0  0  0  0  0
  196.9450  174.6110  139.0750 C   0  0  0  0  0  2  0  0  0  0  0  0
  2 12  1  0  0  0  0
  3 13  1  0  0  0  0
  4  7  1  0  0  0  0
  4  2  2  0  0  0  0
  5  8  1  0  0  0  0
  5  3  1  0  0  0  0
  6  7  1  0  0  0  0
  6 10  2  0  0  0  0
  7  5  2  0  0  0  0
  8 11  1  0  0  0  0
 10  8  1  0  0  0  0
 11  1  2  0  0  0  0
 11  9  1  0  0  0  0
 12  3  2  0  0  0  0
 13 14  2  0  0  0  0
 14 16  1  0  0  0  0
 15 20  1  0  0  0  0
 16 19  2  0  0  0  0
 16 18  1  0  0  0  0
 17 21  1  0  0  0  0
 17 20  2  0  0  0  0
 18 15  2  0  0  0  0
 19 17  1  0  0  0  0
 22 23  1  0  0  0  0
 22 21  1  0  0  0  0
 24 10  1  0  0  0  0
 25 24  1  0  0  0  0
 26 27  1  0  0  0  0
 26 25  1  0  0  0  0
 27 29  1  0  0  0  0
 28 27  2  0  0  0  0
 30 31  1  0  0  0  0
 31 32  1  0  0  0  0
 31 29  1  0  0  0  0
 31 34  1  0  0  0  0
 33 34  1  0  0  0  0
M  END
>  <MODEL>
4

>  <REMARK>
 VINA RESULT:      -8.0      3.460      6.756
  Name = 
  11 active torsions:
  status: ('A' for Active; 'I' for Inactive)
    1  A    between atoms: O_1  and  C_9
    2  A    between atoms: O_1  and  N_22
    3  A    between atoms: C_4  and  C_6
    4  A    between atoms: C_4  and  O_24
    5  A    between atoms: C_6  and  N_18
    6  A    between atoms: C_7  and  C_28
    7  A    between atoms: C_8  and  C_29
    8  A    between atoms: C_11  and  N_18
    9  A    between atoms: C_11  and  C_30
   10  A    between atoms: C_14  and  C_17
   11  A    between atoms: O_24  and  C_28
                            x       y       z     vdW  Elec       q    Type
                         _______ _______ _______ _____ _____    ______ ____

>  <TORSDO>
F 11

$$$$
=
 OpenBabel11032421263D

 34 36  0  0  0  0  0  0  0  0999 V2000
  189.9450  176.8010  141.3890 O   0  0  0  0  0  0  0  0  0  0  0  0
  184.0410  178.7410  141.5040 C   0  0  0  0  0  3  0  0  0  0  0  0
  186.1840  178.1750  142.5610 C   0  0  0  0  0  0  0  0  0  0  0  0
  184.6510  178.7910  140.2400 C   0  0  0  0  0  3  0  0  0  0  0  0
  186.7700  178.2630  141.2820 C   0  0  0  0  0  0  0  0  0  0  0  0
  186.7750  178.5190  139.0600 N   0  0  0  0  0  0  0  0  0  0  0  0
  186.0180  178.5430  140.1710 C   0  0  0  0  0  0  0  0  0  0  0  0
  188.0460  178.0580  140.8860 N   0  0  0  0  0  0  0  0  0  0  0  0
  189.6460  178.7280  142.7430 C   0  0  0  0  0  1  0  0  0  0  0  0
  188.0080  178.2180  139.5370 C   0  0  0  0  0  0  0  0  0  0  0  0
  189.2170  177.7880  141.6690 C   0  0  0  0  0  0  0  0  0  0  0  0
  184.7990  178.4330  142.6520 C   0  0  0  0  0  3  0  0  0  0  0  0
  186.9620  177.8170  143.7570 C   0  0  0  0  0  3  0  0  0  0  0  0
  186.6640  178.2600  144.9770 C   0  0  0  0  0  3  0  0  0  0  0  0
  187.7230  177.9690  148.5710 C   0  0  0  0  0  3  0  0  0  0  0  0
  187.4640  177.9170  146.1610 C   0  0  0  0  0  0  0  0  0  0  0  0
  189.4650  176.9910  147.1910 C   0  0  0  0  0  0  0  0  0  0  0  0
  186.9780  178.2610  147.4260 C   0  0  0  0  0  3  0  0  0  0  0  0
  188.7110  177.2800  146.0490 C   0  0  0  0  0  3  0  0  0  0  0  0
  188.9650  177.3390  148.4540 C   0  0  0  0  0  3  0  0  0  0  0  0
  190.7040  176.3620  147.0490 O   0  0  0  0  0  0  0  0  0  0  0  0
  191.8310  176.8410  147.6810 N   0  0  0  0  0  2  0  0  0  0  0  0
  192.6610  175.6900  147.9840 C   0  0  0  0  0  1  0  0  0  0  0  0
  189.2000  178.0810  138.6510 C   0  0  0  0  0  2  0  0  0  0  0  0
  189.0070  178.8650  137.4440 N   0  0  0  0  0  2  0  0  0  0  0  0
  189.3200  177.9930  136.3260 C   0  0  0  0  0  2  0  0  0  0  0  0
  188.0610  177.5630  135.6630 C   0  0  0  0  0  0  0  0  0  0  0  0
  187.0660  178.3370  135.6620 O   0  0  0  0  0  0  0  0  0  0  0  0
  187.9920  176.2940  135.0690 O   0  0  0  0  0  0  0  0  0  0  0  0
  186.6350  174.2760  134.9510 C   0  0  0  0  0  1  0  0  0  0  0  0
  187.6290  175.0940  135.7630 C   0  0  0  0  0  0  0  0  0  0  0  0
  187.0190  175.4300  137.1140 C   0  0  0  0  0  1  0  0  0  0  0  0
  189.4580  174.5900  137.2420 O   0  0  0  0  0  1  0  0  0  0  0  0
  188.8810  174.2630  136.0110 C   0  0  0  0  0  2  0  0  0  0  0  0
  1 11  2  0  0  0  0
  2 12  1  0  0  0  0
  3 12  2  0  0  0  0
  3 13  1  0  0  0  0
  4  2  2  0  0  0  0
  5  3  1  0  0  0  0
  6 10  2  0  0  0  0
  6  7  1  0  0  0  0
  7  4  1  0  0  0  0
  7  5  2  0  0  0  0
  8  5  1  0  0  0  0
  8 11  1  0  0  0  0
 10  8  1  0  0  0  0
 11  9  1  0  0  0  0
 13 14  2  0  0  0  0
 14 16  1  0  0  0  0
 16 18  1  0  0  0  0
 17 20  2  0  0  0  0
 18 15  2  0  0  0  0
 19 16  2  0  0  0  0
 19 17  1  0  0  0  0
 20 15  1  0  0  0  0
 21 17  1  0  0  0  0
 21 22  1  0  0  0  0
 22 23  1  0  0  0  0
 24 10  1  0  0  0  0
 25 24  1  0  0  0  0
 26 25  1  0  0  0  0
 27 26  1  0  0  0  0
 28 27  2  0  0  0  0
 29 27  1  0  0  0  0
 29 31  1  0  0  0  0
 30 31  1  0  0  0  0
 31 34  1  0  0  0  0
 31 32  1  0  0  0  0
 34 33  1  0  0  0  0
M  END
>  <MODEL>
5

>  <REMARK>
 VINA RESULT:      -8.0      2.598      6.250
  Name = 
  11 active torsions:
  status: ('A' for Active; 'I' for Inactive)
    1  A    between atoms: O_1  and  C_9
    2  A    between atoms: O_1  and  N_22
    3  A    between atoms: C_4  and  C_6
    4  A    between atoms: C_4  and  O_24
    5  A    between atoms: C_6  and  N_18
    6  A    between atoms: C_7  and  C_28
    7  A    between atoms: C_8  and  C_29
    8  A    between atoms: C_11  and  N_18
    9  A    between atoms: C_11  and  C_30
   10  A    between atoms: C_14  and  C_17
   11  A    between atoms: O_24  and  C_28
                            x       y       z     vdW  Elec       q    Type
                         _______ _______ _______ _____ _____    ______ ____

>  <TORSDO>
F 11

$$$$
=
 OpenBabel11032421263D

 34 36  0  0  0  0  0  0  0  0999 V2000
  187.4150  177.5320  140.7550 O   0  0  0  0  0  0  0  0  0  0  0  0
  182.0950  178.8660  143.6780 C   0  0  0  0  0  3  0  0  0  0  0  0
  184.5260  178.5330  143.5930 C   0  0  0  0  0  0  0  0  0  0  0  0
  182.0350  178.9620  142.2780 C   0  0  0  0  0  3  0  0  0  0  0  0
  184.4350  178.6640  142.1940 C   0  0  0  0  0  0  0  0  0  0  0  0
  183.3770  178.8910  140.2360 N   0  0  0  0  0  0  0  0  0  0  0  0
  183.2280  178.8520  141.5720 C   0  0  0  0  0  0  0  0  0  0  0  0
  185.3910  178.5840  141.2410 N   0  0  0  0  0  0  0  0  0  0  0  0
  187.6010  179.4360  142.1610 C   0  0  0  0  0  1  0  0  0  0  0  0
  184.7130  178.7220  140.0720 C   0  0  0  0  0  0  0  0  0  0  0  0
  186.8120  178.4440  141.3790 C   0  0  0  0  0  0  0  0  0  0  0  0
  183.3260  178.6500  144.3290 C   0  0  0  0  0  3  0  0  0  0  0  0
  185.8030  178.2710  144.2760 C   0  0  0  0  0  3  0  0  0  0  0  0
  185.9010  178.0940  145.5930 C   0  0  0  0  0  3  0  0  0  0  0  0
  188.5000  177.9360  148.3010 C   0  0  0  0  0  3  0  0  0  0  0  0
  187.1840  177.8580  146.2660 C   0  0  0  0  0  0  0  0  0  0  0  0
  189.5300  177.2110  146.2250 C   0  0  0  0  0  0  0  0  0  0  0  0
  187.2880  178.1280  147.6340 C   0  0  0  0  0  3  0  0  0  0  0  0
  188.3120  177.3990  145.5650 C   0  0  0  0  0  3  0  0  0  0  0  0
  189.6200  177.4820  147.5990 C   0  0  0  0  0  3  0  0  0  0  0  0
  190.6360  176.7590  145.5020 O   0  0  0  0  0  0  0  0  0  0  0  0
  191.7150  177.5770  145.2490 N   0  0  0  0  0  2  0  0  0  0  0  0
  191.6920  177.8720  143.8280 C   0  0  0  0  0  1  0  0  0  0  0  0
  185.3590  178.6950  138.7280 C   0  0  0  0  0  2  0  0  0  0  0  0
  184.9990  177.4700  138.0350 N   0  0  0  0  0  2  0  0  0  0  0  0
  185.8350  177.4020  136.8500 C   0  0  0  0  0  2  0  0  0  0  0  0
  186.9050  176.3890  137.0540 C   0  0  0  0  0  0  0  0  0  0  0  0
  186.6940  175.1910  136.7230 O   0  0  0  0  0  0  0  0  0  0  0  0
  188.1220  176.7780  137.6310 O   0  0  0  0  0  0  0  0  0  0  0  0
  189.1010  177.1460  135.4320 C   0  0  0  0  0  1  0  0  0  0  0  0
  189.1790  177.4380  136.9240 C   0  0  0  0  0  0  0  0  0  0  0  0
  190.5300  176.9880  137.4540 C   0  0  0  0  0  1  0  0  0  0  0  0
  189.0210  179.2360  138.5140 O   0  0  0  0  0  1  0  0  0  0  0  0
  189.0670  178.9400  137.1480 C   0  0  0  0  0  2  0  0  0  0  0  0
  1 11  2  0  0  0  0
  2 12  1  0  0  0  0
  3 13  1  0  0  0  0
  3 12  2  0  0  0  0
  4  2  2  0  0  0  0
  5  3  1  0  0  0  0
  6  7  1  0  0  0  0
  7  5  2  0  0  0  0
  7  4  1  0  0  0  0
  8 11  1  0  0  0  0
  8  5  1  0  0  0  0
 10  6  2  0  0  0  0
 10  8  1  0  0  0  0
 11  9  1  0  0  0  0
 13 14  2  0  0  0  0
 14 16  1  0  0  0  0
 16 18  2  0  0  0  0
 17 20  1  0  0  0  0
 18 15  1  0  0  0  0
 19 17  2  0  0  0  0
 19 16  1  0  0  0  0
 20 15  2  0  0  0  0
 21 17  1  0  0  0  0
 22 21  1  0  0  0  0
 23 22  1  0  0  0  0
 24 10  1  0  0  0  0
 25 24  1  0  0  0  0
 26 27  1  0  0  0  0
 26 25  1  0  0  0  0
 27 29  1  0  0  0  0
 28 27  2  0  0  0  0
 30 31  1  0  0  0  0
 31 34  1  0  0  0  0
 31 32  1  0  0  0  0
 31 29  1  0  0  0  0
 34 33  1  0  0  0  0
M  END
>  <MODEL>
6

>  <REMARK>
 VINA RESULT:      -7.7      1.736      6.121
  Name = 
  11 active torsions:
  status: ('A' for Active; 'I' for Inactive)
    1  A    between atoms: O_1  and  C_9
    2  A    between atoms: O_1  and  N_22
    3  A    between atoms: C_4  and  C_6
    4  A    between atoms: C_4  and  O_24
    5  A    between atoms: C_6  and  N_18
    6  A    between atoms: C_7  and  C_28
    7  A    between atoms: C_8  and  C_29
    8  A    between atoms: C_11  and  N_18
    9  A    between atoms: C_11  and  C_30
   10  A    between atoms: C_14  and  C_17
   11  A    between atoms: O_24  and  C_28
                            x       y       z     vdW  Elec       q    Type
                         _______ _______ _______ _____ _____    ______ ____

>  <TORSDO>
F 11

$$$$
=
 OpenBabel11032421263D

 34 36  0  0  0  0  0  0  0  0999 V2000
  183.9110  177.8640  141.4870 O   0  0  0  0  0  0  0  0  0  0  0  0
  186.9620  178.0040  146.9000 C   0  0  0  0  0  3  0  0  0  0  0  0
  186.8480  177.8850  144.4500 C   0  0  0  0  0  0  0  0  0  0  0  0
  185.6330  178.4520  146.9640 C   0  0  0  0  0  3  0  0  0  0  0  0
  185.5260  178.3640  144.5480 C   0  0  0  0  0  0  0  0  0  0  0  0
  183.6700  179.0080  145.6170 N   0  0  0  0  0  0  0  0  0  0  0  0
  184.9470  178.6160  145.7650 C   0  0  0  0  0  0  0  0  0  0  0  0
  184.6060  178.6030  143.5870 N   0  0  0  0  0  0  0  0  0  0  0  0
  185.7610  179.3510  141.4510 C   0  0  0  0  0  1  0  0  0  0  0  0
  183.4970  178.9870  144.2720 C   0  0  0  0  0  0  0  0  0  0  0  0
  184.7340  178.5380  142.1600 C   0  0  0  0  0  0  0  0  0  0  0  0
  187.5620  177.7200  145.6570 C   0  0  0  0  0  3  0  0  0  0  0  0
  187.4680  177.5510  143.1580 C   0  0  0  0  0  3  0  0  0  0  0  0
  188.7240  177.8680  142.8510 C   0  0  0  0  0  3  0  0  0  0  0  0
  191.2620  176.8350  140.2800 C   0  0  0  0  0  3  0  0  0  0  0  0
  189.3240  177.5520  141.5480 C   0  0  0  0  0  0  0  0  0  0  0  0
  189.2100  177.4200  139.1210 C   0  0  0  0  0  0  0  0  0  0  0  0
  190.6540  177.1230  141.5040 C   0  0  0  0  0  3  0  0  0  0  0  0
  188.6050  177.6990  140.3500 C   0  0  0  0  0  3  0  0  0  0  0  0
  190.5440  176.9860  139.0910 C   0  0  0  0  0  3  0  0  0  0  0  0
  188.4730  177.5790  137.9450 O   0  0  0  0  0  0  0  0  0  0  0  0
  187.5970  178.6300  137.7820 N   0  0  0  0  0  2  0  0  0  0  0  0
  186.2710  178.0530  137.6600 C   0  0  0  0  0  1  0  0  0  0  0  0
  182.2050  179.3530  143.6230 C   0  0  0  0  0  2  0  0  0  0  0  0
  181.1810  178.3900  143.9890 N   0  0  0  0  0  2  0  0  0  0  0  0
  179.9020  179.0270  143.7350 C   0  0  0  0  0  2  0  0  0  0  0  0
  179.3910  178.6060  142.4030 C   0  0  0  0  0  0  0  0  0  0  0  0
  179.3180  177.3780  142.1280 O   0  0  0  0  0  0  0  0  0  0  0  0
  179.0210  179.5810  141.4660 O   0  0  0  0  0  0  0  0  0  0  0  0
  181.1180  179.3480  140.2510 C   0  0  0  0  0  1  0  0  0  0  0  0
  179.6540  179.7630  140.1940 C   0  0  0  0  0  0  0  0  0  0  0  0
  179.5600  181.2170  139.7610 C   0  0  0  0  0  1  0  0  0  0  0  0
  179.7020  177.8100  138.7920 O   0  0  0  0  0  1  0  0  0  0  0  0
  178.9320  178.9200  139.1520 C   0  0  0  0  0  2  0  0  0  0  0  0
  1 11  2  0  0  0  0
  2  4  1  0  0  0  0
  3  5  2  0  0  0  0
  3 12  1  0  0  0  0
  5  7  1  0  0  0  0
  6  7  1  0  0  0  0
  7  4  2  0  0  0  0
  8 10  1  0  0  0  0
  8  5  1  0  0  0  0
  9 11  1  0  0  0  0
 10  6  2  0  0  0  0
 11  8  1  0  0  0  0
 12  2  2  0  0  0  0
 13  3  1  0  0  0  0
 14 13  2  0  0  0  0
 15 18  1  0  0  0  0
 16 14  1  0  0  0  0
 17 19  2  0  0  0  0
 18 16  2  0  0  0  0
 19 16  1  0  0  0  0
 20 17  1  0  0  0  0
 20 15  2  0  0  0  0
 21 17  1  0  0  0  0
 22 21  1  0  0  0  0
 23 22  1  0  0  0  0
 24 25  1  0  0  0  0
 24 10  1  0  0  0  0
 26 25  1  0  0  0  0
 27 26  1  0  0  0  0
 28 27  2  0  0  0  0
 29 27  1  0  0  0  0
 31 30  1  0  0  0  0
 31 29  1  0  0  0  0
 32 31  1  0  0  0  0
 33 34  1  0  0  0  0
 34 31  1  0  0  0  0
M  END
>  <MODEL>
7

>  <REMARK>
 VINA RESULT:      -7.7      2.787      7.490
  Name = 
  11 active torsions:
  status: ('A' for Active; 'I' for Inactive)
    1  A    between atoms: O_1  and  C_9
    2  A    between atoms: O_1  and  N_22
    3  A    between atoms: C_4  and  C_6
    4  A    between atoms: C_4  and  O_24
    5  A    between atoms: C_6  and  N_18
    6  A    between atoms: C_7  and  C_28
    7  A    between atoms: C_8  and  C_29
    8  A    between atoms: C_11  and  N_18
    9  A    between atoms: C_11  and  C_30
   10  A    between atoms: C_14  and  C_17
   11  A    between atoms: O_24  and  C_28
                            x       y       z     vdW  Elec       q    Type
                         _______ _______ _______ _____ _____    ______ ____

>  <TORSDO>
F 11

$$$$
=
 OpenBabel11032421263D

 34 36  0  0  0  0  0  0  0  0999 V2000
  189.6640  176.9360  141.3460 O   0  0  0  0  0  0  0  0  0  0  0  0
  183.7510  178.7490  141.9620 C   0  0  0  0  0  3  0  0  0  0  0  0
  185.9850  178.2210  142.8340 C   0  0  0  0  0  0  0  0  0  0  0  0
  184.2540  178.8230  140.6520 C   0  0  0  0  0  3  0  0  0  0  0  0
  186.4620  178.3310  141.5130 C   0  0  0  0  0  0  0  0  0  0  0  0
  186.2800  178.6050  139.3010 N   0  0  0  0  0  0  0  0  0  0  0  0
  185.6160  178.6040  140.4700 C   0  0  0  0  0  0  0  0  0  0  0  0
  187.7050  178.1570  141.0120 N   0  0  0  0  0  0  0  0  0  0  0  0
  189.4380  178.8450  142.7380 C   0  0  0  0  0  1  0  0  0  0  0  0
  187.5540  178.3270  139.6730 C   0  0  0  0  0  0  0  0  0  0  0  0
  188.9410  177.9050  141.6950 C   0  0  0  0  0  0  0  0  0  0  0  0
  184.6060  178.4480  143.0410 C   0  0  0  0  0  3  0  0  0  0  0  0
  186.8650  177.8690  143.9600 C   0  0  0  0  0  3  0  0  0  0  0  0
  186.6780  178.3230  145.1980 C   0  0  0  0  0  3  0  0  0  0  0  0
  188.0020  177.9580  148.6960 C   0  0  0  0  0  3  0  0  0  0  0  0
  187.5790  177.9860  146.3080 C   0  0  0  0  0  0  0  0  0  0  0  0
  189.7020  177.1560  147.1590 C   0  0  0  0  0  0  0  0  0  0  0  0
  187.1620  178.2460  147.6170 C   0  0  0  0  0  3  0  0  0  0  0  0
  188.8530  177.4400  146.0840 C   0  0  0  0  0  3  0  0  0  0  0  0
  189.2700  177.4180  148.4680 C   0  0  0  0  0  3  0  0  0  0  0  0
  190.9650  176.6170  146.9070 O   0  0  0  0  0  0  0  0  0  0  0  0
  192.0050  176.7690  147.7990 N   0  0  0  0  0  2  0  0  0  0  0  0
  192.6690  175.4830  147.8900 C   0  0  0  0  0  1  0  0  0  0  0  0
  188.6720  178.2210  138.6900 C   0  0  0  0  0  2  0  0  0  0  0  0
  188.3690  179.0200  137.5150 N   0  0  0  0  0  2  0  0  0  0  0  0
  189.2310  178.5370  136.4520 C   0  0  0  0  0  2  0  0  0  0  0  0
  188.5410  177.4510  135.7050 C   0  0  0  0  0  0  0  0  0  0  0  0
  189.2190  176.5060  135.2200 O   0  0  0  0  0  0  0  0  0  0  0  0
  187.1500  177.5090  135.5330 O   0  0  0  0  0  0  0  0  0  0  0  0
  186.8180  175.6260  137.0410 C   0  0  0  0  0  1  0  0  0  0  0  0
  186.2440  176.4640  135.9070 C   0  0  0  0  0  0  0  0  0  0  0  0
  185.9540  175.5660  134.7150 C   0  0  0  0  0  1  0  0  0  0  0  0
  183.8720  176.1820  136.1860 O   0  0  0  0  0  1  0  0  0  0  0  0
  184.9270  177.0830  136.3550 C   0  0  0  0  0  2  0  0  0  0  0  0
  1 11  2  0  0  0  0
  2 12  1  0  0  0  0
  3 12  2  0  0  0  0
  3 13  1  0  0  0  0
  4  2  2  0  0  0  0
  5  3  1  0  0  0  0
  6 10  2  0  0  0  0
  6  7  1  0  0  0  0
  7  4  1  0  0  0  0
  7  5  2  0  0  0  0
  8  5  1  0  0  0  0
  8 11  1  0  0  0  0
 10  8  1  0  0  0  0
 11  9  1  0  0  0  0
 13 14  2  0  0  0  0
 14 16  1  0  0  0  0
 16 18  1  0  0  0  0
 17 20  2  0  0  0  0
 18 15  2  0  0  0  0
 19 16  2  0  0  0  0
 19 17  1  0  0  0  0
 20 15  1  0  0  0  0
 21 17  1  0  0  0  0
 21 22  1  0  0  0  0
 22 23  1  0  0  0  0
 24 10  1  0  0  0  0
 25 24  1  0  0  0  0
 26 25  1  0  0  0  0
 27 26  1  0  0  0  0
 28 27  2  0  0  0  0
 29 27  1  0  0  0  0
 29 31  1  0  0  0  0
 31 34  1  0  0  0  0
 31 30  1  0  0  0  0
 32 31  1  0  0  0  0
 33 34  1  0  0  0  0
M  END
>  <MODEL>
8

>  <REMARK>
 VINA RESULT:      -7.7      2.586      6.255
  Name = 
  11 active torsions:
  status: ('A' for Active; 'I' for Inactive)
    1  A    between atoms: O_1  and  C_9
    2  A    between atoms: O_1  and  N_22
    3  A    between atoms: C_4  and  C_6
    4  A    between atoms: C_4  and  O_24
    5  A    between atoms: C_6  and  N_18
    6  A    between atoms: C_7  and  C_28
    7  A    between atoms: C_8  and  C_29
    8  A    between atoms: C_11  and  N_18
    9  A    between atoms: C_11  and  C_30
   10  A    between atoms: C_14  and  C_17
   11  A    between atoms: O_24  and  C_28
                            x       y       z     vdW  Elec       q    Type
                         _______ _______ _______ _____ _____    ______ ____

>  <TORSDO>
F 11

$$$$
=
 OpenBabel11032421263D

 34 36  0  0  0  0  0  0  0  0999 V2000
  190.6070  176.1800  142.0620 O   0  0  0  0  0  0  0  0  0  0  0  0
  185.7370  178.6250  139.0730 C   0  0  0  0  0  3  0  0  0  0  0  0
  187.1270  178.2540  141.0620 C   0  0  0  0  0  0  0  0  0  0  0  0
  186.7670  178.1650  138.2370 C   0  0  0  0  0  3  0  0  0  0  0  0
  188.1510  177.8260  140.1930 C   0  0  0  0  0  0  0  0  0  0  0  0
  189.0460  177.2810  138.2180 N   0  0  0  0  0  0  0  0  0  0  0  0
  187.9590  177.7710  138.8370 C   0  0  0  0  0  0  0  0  0  0  0  0
  189.3930  177.3660  140.4610 N   0  0  0  0  0  0  0  0  0  0  0  0
  190.2950  178.4810  142.5590 C   0  0  0  0  0  1  0  0  0  0  0  0
  189.9010  177.0430  139.2430 C   0  0  0  0  0  0  0  0  0  0  0  0
  190.0850  177.2720  141.7140 C   0  0  0  0  0  0  0  0  0  0  0  0
  185.9130  178.6660  140.4700 C   0  0  0  0  0  3  0  0  0  0  0  0
  187.2920  178.2630  142.5240 C   0  0  0  0  0  3  0  0  0  0  0  0
  186.3380  177.8670  143.3650 C   0  0  0  0  0  3  0  0  0  0  0  0
  185.7000  178.6680  146.9810 C   0  0  0  0  0  3  0  0  0  0  0  0
  186.5040  177.9050  144.8240 C   0  0  0  0  0  0  0  0  0  0  0  0
  187.7480  177.3720  146.8460 C   0  0  0  0  0  0  0  0  0  0  0  0
  185.5610  178.5940  145.5930 C   0  0  0  0  0  3  0  0  0  0  0  0
  187.5990  177.2950  145.4580 C   0  0  0  0  0  3  0  0  0  0  0  0
  186.7920  178.0620  147.6060 C   0  0  0  0  0  3  0  0  0  0  0  0
  188.8490  176.7590  147.4490 O   0  0  0  0  0  0  0  0  0  0  0  0
  189.9840  177.4720  147.7690 N   0  0  0  0  0  2  0  0  0  0  0  0
  191.1060  176.7510  147.1970 C   0  0  0  0  0  1  0  0  0  0  0  0
  191.2680  176.4820  139.0350 C   0  0  0  0  0  2  0  0  0  0  0  0
  191.1790  175.2370  138.2920 N   0  0  0  0  0  2  0  0  0  0  0  0
  191.8640  175.4560  137.0310 C   0  0  0  0  0  2  0  0  0  0  0  0
  193.3230  175.6110  137.2770 C   0  0  0  0  0  0  0  0  0  0  0  0
  193.8810  176.7120  137.0170 O   0  0  0  0  0  0  0  0  0  0  0  0
  194.0580  174.5240  137.7710 O   0  0  0  0  0  0  0  0  0  0  0  0
  196.3430  174.6680  136.9400 C   0  0  0  0  0  1  0  0  0  0  0  0
  195.0740  173.8320  137.0340 C   0  0  0  0  0  0  0  0  0  0  0  0
  194.5810  173.5070  135.6340 C   0  0  0  0  0  1  0  0  0  0  0  0
  195.0720  172.5910  139.0940 O   0  0  0  0  0  1  0  0  0  0  0  0
  195.3890  172.5170  137.7340 C   0  0  0  0  0  2  0  0  0  0  0  0
  2 12  1  0  0  0  0
  3 13  1  0  0  0  0
  4  7  1  0  0  0  0
  4  2  2  0  0  0  0
  5  8  1  0  0  0  0
  5  3  1  0  0  0  0
  6  7  1  0  0  0  0
  6 10  2  0  0  0  0
  7  5  2  0  0  0  0
  8 11  1  0  0  0  0
 10  8  1  0  0  0  0
 11  1  2  0  0  0  0
 11  9  1  0  0  0  0
 12  3  2  0  0  0  0
 13 14  2  0  0  0  0
 14 16  1  0  0  0  0
 15 20  1  0  0  0  0
 16 19  2  0  0  0  0
 16 18  1  0  0  0  0
 17 21  1  0  0  0  0
 17 20  2  0  0  0  0
 18 15  2  0  0  0  0
 19 17  1  0  0  0  0
 21 22  1  0  0  0  0
 23 22  1  0  0  0  0
 24 10  1  0  0  0  0
 25 24  1  0  0  0  0
 26 27  1  0  0  0  0
 26 25  1  0  0  0  0
 27 29  1  0  0  0  0
 28 27  2  0  0  0  0
 30 31  1  0  0  0  0
 31 34  1  0  0  0  0
 31 29  1  0  0  0  0
 32 31  1  0  0  0  0
 34 33  1  0  0  0  0
M  END
>  <MODEL>
9

>  <REMARK>
 VINA RESULT:      -7.4      3.375      6.393
  Name = 
  11 active torsions:
  status: ('A' for Active; 'I' for Inactive)
    1  A    between atoms: O_1  and  C_9
    2  A    between atoms: O_1  and  N_22
    3  A    between atoms: C_4  and  C_6
    4  A    between atoms: C_4  and  O_24
    5  A    between atoms: C_6  and  N_18
    6  A    between atoms: C_7  and  C_28
    7  A    between atoms: C_8  and  C_29
    8  A    between atoms: C_11  and  N_18
    9  A    between atoms: C_11  and  C_30
   10  A    between atoms: C_14  and  C_17
   11  A    between atoms: O_24  and  C_28
                            x       y       z     vdW  Elec       q    Type
                         _______ _______ _______ _____ _____    ______ ____

>  <TORSDO>
F 11

$$$$
