=
 OpenBabel11032419553D

 41 46  0  0  1  0  0  0  0  0999 V2000
  183.4740  178.2660  140.0720 C   0  0  0  0  0  0  0  0  0  0  0  0
  182.0230  178.4390  141.9920 N   0  0  0  0  0  0  0  0  0  0  0  0
  183.0930  177.5340  137.7440 N   0  0  0  0  0  0  0  0  0  0  0  0
  181.6560  178.6630  143.2820 C   0  0  0  0  0  0  0  0  0  0  0  0
  184.2640  178.3560  137.3840 C   0  0  0  0  0  2  0  0  0  0  0  0
  184.8130  178.4520  139.8110 C   0  0  0  0  0  0  0  0  0  0  0  0
  184.5230  178.8750  142.0040 C   0  0  0  0  0  0  0  0  0  0  0  0
  182.4620  177.9830  138.9990 C   0  0  0  0  0  2  0  0  0  0  0  0
  182.5120  179.0710  144.3150 C   0  0  0  0  0  3  0  0  0  0  0  0
  185.4620  178.7900  140.9920 C   0  0  0  0  0  0  0  0  0  0  0  0
  183.2400  178.5210  141.4070 C   0  0  0  0  0  0  0  0  0  0  0  0
  185.3870  178.3140  138.4380 C   0  0  0  0  0  2  0  0  0  0  0  0
  184.7990  179.2400  143.3060 C   0  0  0  0  0  3  0  0  0  0  0  0
  183.8800  179.3280  144.3370 C   0  0  0  0  0  3  0  0  0  0  0  0
  179.4730  177.8120  142.8530 O   0  0  0  0  0  0  0  0  0  0  0  0
  180.2340  178.4680  143.6150 C   0  0  0  0  0  0  0  0  0  0  0  0
  179.7280  178.9990  144.7580 F   0  0  0  0  0  0  0  0  0  0  0  0
  183.4750  176.1280  137.8720 C   0  0  0  0  0  2  0  0  0  0  0  0
  183.9040  175.5840  136.5210 C   0  0  0  0  0  2  0  0  0  0  0  0
  184.6850  174.4410  136.6960 O   0  0  0  0  0  0  0  0  0  0  0  0
  185.9190  174.7420  136.1160 C   0  0  1  0  0  3  0  0  0  0  0  0
  185.7550  175.9460  135.1740 C   0  0  0  0  0  2  0  0  0  0  0  0
  186.7960  178.0000  134.5940 O   0  0  0  0  0  0  0  0  0  0  0  0
  188.2840  175.2930  136.5550 C   0  0  0  0  0  2  0  0  0  0  0  0
  188.1860  176.5260  135.7690 N   0  0  0  0  0  0  0  0  0  0  0  0
  186.9500  174.9850  137.2110 C   0  0  0  0  0  2  0  0  0  0  0  0
  186.9370  176.8780  135.1420 C   0  0  0  0  0  0  0  0  0  0  0  0
  189.0660  178.4120  137.0700 C   0  0  0  0  0  2  0  0  0  0  0  0
  190.0650  177.2820  137.1450 C   0  0  0  0  0  2  0  0  0  0  0  0
  189.2720  177.5050  135.8620 C   0  0  0  0  0  3  0  0  0  0  0  0
  186.8470  179.1310  141.1350 N   0  0  0  0  0  2  0  0  0  0  0  0
  188.9650  177.0270  143.3110 N   0  0  0  0  0  0  0  0  0  0  0  0
  189.6220  176.6850  141.0710 N   0  0  0  0  0  0  0  0  0  0  0  0
  188.0290  177.9260  142.9040 C   0  0  0  0  0  3  0  0  0  0  0  0
  189.7640  176.4070  142.3940 C   0  0  0  0  0  0  0  0  0  0  0  0
  188.6960  177.5760  140.6370 C   0  0  0  0  0  3  0  0  0  0  0  0
  190.6320  175.5700  142.7620 O   0  0  0  0  0  0  0  0  0  0  0  0
  187.8820  178.2340  141.5540 C   0  0  0  0  0  0  0  0  0  0  0  0
  189.0920  176.7370  144.7360 C   0  0  0  0  0  2  0  0  0  0  0  0
  188.0210  177.4540  145.5400 C   0  0  0  0  0  2  0  0  0  0  0  0
  188.5110  177.7590  146.9360 C   0  0  0  0  0  1  0  0  0  0  0  0
  1 11  1  0  0  0  0
  2  4  1  0  0  0  0
  3 18  1  0  0  0  0
  3  8  1  0  0  0  0
  4 16  1  0  0  0  0
  4  9  2  0  0  0  0
  5  3  1  0  0  0  0
  5 12  1  0  0  0  0
  6  1  2  0  0  0  0
  6 10  1  0  0  0  0
  7 13  1  0  0  0  0
  8  1  1  0  0  0  0
  9 14  1  0  0  0  0
 10 31  1  0  0  0  0
 10  7  2  0  0  0  0
 11  2  2  0  0  0  0
 11  7  1  0  0  0  0
 12  6  1  0  0  0  0
 13 14  2  0  0  0  0
 15 16  2  0  0  0  0
 16 17  1  0  0  0  0
 19 20  1  0  0  0  0
 19 18  1  0  0  0  0
 21 20  1  1  0  0  0
 21 26  1  0  0  0  0
 22 21  1  0  0  0  0
 23 27  2  0  0  0  0
 24 26  1  0  0  0  0
 25 30  1  0  0  0  0
 25 24  1  0  0  0  0
 27 22  1  0  0  0  0
 27 25  1  0  0  0  0
 28 29  1  0  0  0  0
 30 28  1  0  0  0  0
 30 29  1  0  0  0  0
 31 38  1  0  0  0  0
 32 39  1  0  0  0  0
 33 35  1  0  0  0  0
 34 32  1  0  0  0  0
 35 37  2  0  0  0  0
 35 32  1  0  0  0  0
 36 33  2  0  0  0  0
 36 38  1  0  0  0  0
 38 34  2  0  0  0  0
 39 40  1  0  0  0  0
 40 41  1  0  0  0  0
M  END
>  <MODEL>
1

>  <REMARK>
 VINA RESULT:      -7.8      0.000      0.000
  Name = 
  10 active torsions:
  status: ('A' for Active; 'I' for Inactive)
    1  A    between atoms: C_1  and  O_13
    2  A    between atoms: N_2  and  C_32
    3  A    between atoms: C_3  and  N_15
    4  A    between atoms: C_3  and  C_37
    5  A    between atoms: C_10  and  C_32
    6  A    between atoms: O_13  and  C_37
    7  A    between atoms: N_17  and  C_29
    8  A    between atoms: N_17  and  C_40
    9  A    between atoms: C_18  and  C_22
   10  A    between atoms: N_23  and  C_39
                            x       y       z     vdW  Elec       q    Type
                         _______ _______ _______ _____ _____    ______ ____

>  <TORSDO>
F 10

$$$$
=
 OpenBabel11032419553D

 41 46  0  0  1  0  0  0  0  0999 V2000
  184.5750  178.8610  141.8510 C   0  0  0  0  0  0  0  0  0  0  0  0
  186.4190  178.6490  140.3100 N   0  0  0  0  0  0  0  0  0  0  0  0
  184.4420  179.5410  144.2220 N   0  0  0  0  0  0  0  0  0  0  0  0
  187.0710  178.3540  139.1530 C   0  0  0  0  0  0  0  0  0  0  0  0
  183.0380  179.9040  143.9510 C   0  0  0  0  0  2  0  0  0  0  0  0
  183.2210  178.6110  141.8300 C   0  0  0  0  0  0  0  0  0  0  0  0
  184.0130  178.0140  139.8090 C   0  0  0  0  0  0  0  0  0  0  0  0
  185.2640  179.5430  142.9970 C   0  0  0  0  0  2  0  0  0  0  0  0
  186.4780  177.8510  137.9860 C   0  0  0  0  0  3  0  0  0  0  0  0
  182.8790  178.0630  140.6000 C   0  0  0  0  0  0  0  0  0  0  0  0
  185.1100  178.5190  140.6270 C   0  0  0  0  0  0  0  0  0  0  0  0
  182.3310  178.9320  142.9870 C   0  0  0  0  0  2  0  0  0  0  0  0
  184.0420  177.5750  138.5000 C   0  0  0  0  0  3  0  0  0  0  0  0
  185.1620  177.5120  137.6900 C   0  0  0  0  0  3  0  0  0  0  0  0
  189.0550  179.2650  138.2000 O   0  0  0  0  0  0  0  0  0  0  0  0
  188.5250  178.5960  139.1280 C   0  0  0  0  0  0  0  0  0  0  0  0
  189.3110  178.0950  140.1150 F   0  0  0  0  0  0  0  0  0  0  0  0
  184.5160  178.2220  144.8500 C   0  0  0  0  0  2  0  0  0  0  0  0
  185.3720  178.2930  146.1030 C   0  0  0  0  0  2  0  0  0  0  0  0
  186.2900  177.2430  146.1110 O   0  0  0  0  0  0  0  0  0  0  0  0
  187.5170  177.8190  145.7770 C   0  0  1  0  0  3  0  0  0  0  0  0
  188.5410  177.5050  146.8810 C   0  0  0  0  0  2  0  0  0  0  0  0
  190.7850  176.7860  147.1770 O   0  0  0  0  0  0  0  0  0  0  0  0
  189.2830  177.9730  144.0590 C   0  0  0  0  0  2  0  0  0  0  0  0
  190.3100  177.5660  145.0200 N   0  0  0  0  0  0  0  0  0  0  0  0
  187.9560  177.3200  144.4060 C   0  0  0  0  0  2  0  0  0  0  0  0
  189.9440  177.2790  146.3840 C   0  0  0  0  0  0  0  0  0  0  0  0
  191.6010  175.7930  143.9160 C   0  0  0  0  0  2  0  0  0  0  0  0
  191.5780  176.9970  143.0040 C   0  0  0  0  0  2  0  0  0  0  0  0
  191.6350  177.1950  144.5140 C   0  0  0  0  0  3  0  0  0  0  0  0
  181.5600  177.7250  140.1550 N   0  0  0  0  0  2  0  0  0  0  0  0
  180.1130  180.5000  138.1910 N   0  0  0  0  0  0  0  0  0  0  0  0
  179.5920  178.4670  137.1110 N   0  0  0  0  0  0  0  0  0  0  0  0
  180.7580  179.8170  139.1750 C   0  0  0  0  0  3  0  0  0  0  0  0
  179.5280  179.8250  137.1590 C   0  0  0  0  0  0  0  0  0  0  0  0
  180.2300  177.7620  138.0780 C   0  0  0  0  0  3  0  0  0  0  0  0
  178.9310  180.4500  136.2410 O   0  0  0  0  0  0  0  0  0  0  0  0
  180.8200  178.4260  139.1490 C   0  0  0  0  0  0  0  0  0  0  0  0
  180.0660  181.9570  138.2590 C   0  0  0  0  0  2  0  0  0  0  0  0
  181.4060  182.5680  137.8890 C   0  0  0  0  0  2  0  0  0  0  0  0
  181.2290  183.9650  137.3430 C   0  0  0  0  0  1  0  0  0  0  0  0
  1  8  1  0  0  0  0
  2 11  1  0  0  0  0
  3 18  1  0  0  0  0
  4  2  2  0  0  0  0
  5  3  1  0  0  0  0
  6  1  1  0  0  0  0
  6 12  1  0  0  0  0
  7 10  1  0  0  0  0
  7 11  1  0  0  0  0
  8  3  1  0  0  0  0
  9  4  1  0  0  0  0
 10  6  2  0  0  0  0
 11  1  2  0  0  0  0
 12  5  1  0  0  0  0
 13  7  2  0  0  0  0
 14  9  2  0  0  0  0
 14 13  1  0  0  0  0
 15 16  2  0  0  0  0
 16  4  1  0  0  0  0
 16 17  1  0  0  0  0
 18 19  1  0  0  0  0
 19 20  1  0  0  0  0
 21 20  1  1  0  0  0
 21 22  1  0  0  0  0
 24 26  1  0  0  0  0
 24 25  1  0  0  0  0
 25 27  1  0  0  0  0
 26 21  1  0  0  0  0
 27 22  1  0  0  0  0
 27 23  2  0  0  0  0
 28 30  1  0  0  0  0
 29 28  1  0  0  0  0
 29 30  1  0  0  0  0
 30 25  1  0  0  0  0
 31 10  1  0  0  0  0
 32 39  1  0  0  0  0
 32 34  1  0  0  0  0
 33 35  1  0  0  0  0
 33 36  2  0  0  0  0
 35 32  1  0  0  0  0
 36 38  1  0  0  0  0
 37 35  2  0  0  0  0
 38 34  2  0  0  0  0
 38 31  1  0  0  0  0
 40 39  1  0  0  0  0
 41 40  1  0  0  0  0
M  END
>  <MODEL>
2

>  <REMARK>
 VINA RESULT:      -7.7      3.332      8.822
  Name = 
  10 active torsions:
  status: ('A' for Active; 'I' for Inactive)
    1  A    between atoms: C_1  and  O_13
    2  A    between atoms: N_2  and  C_32
    3  A    between atoms: C_3  and  N_15
    4  A    between atoms: C_3  and  C_37
    5  A    between atoms: C_10  and  C_32
    6  A    between atoms: O_13  and  C_37
    7  A    between atoms: N_17  and  C_29
    8  A    between atoms: N_17  and  C_40
    9  A    between atoms: C_18  and  C_22
   10  A    between atoms: N_23  and  C_39
                            x       y       z     vdW  Elec       q    Type
                         _______ _______ _______ _____ _____    ______ ____

>  <TORSDO>
F 10

$$$$
=
 OpenBabel11032419553D

 41 46  0  0  1  0  0  0  0  0999 V2000
  185.5550  178.4270  141.9210 C   0  0  0  0  0  0  0  0  0  0  0  0
  186.2870  178.1210  144.1990 N   0  0  0  0  0  0  0  0  0  0  0  0
  183.3190  178.6440  140.8950 N   0  0  0  0  0  0  0  0  0  0  0  0
  187.1470  177.9220  145.2340 C   0  0  0  0  0  0  0  0  0  0  0  0
  183.9900  179.3510  139.7870 C   0  0  0  0  0  2  0  0  0  0  0  0
  186.1480  178.4880  140.6800 C   0  0  0  0  0  0  0  0  0  0  0  0
  187.8050  178.1380  142.1650 C   0  0  0  0  0  0  0  0  0  0  0  0
  184.0970  178.7050  142.1460 C   0  0  0  0  0  2  0  0  0  0  0  0
  188.5400  177.7970  145.1260 C   0  0  0  0  0  3  0  0  0  0  0  0
  187.5150  178.2790  140.8200 C   0  0  0  0  0  0  0  0  0  0  0  0
  186.5310  178.2210  142.8720 C   0  0  0  0  0  0  0  0  0  0  0  0
  185.3700  178.7640  139.4340 C   0  0  0  0  0  2  0  0  0  0  0  0
  189.0730  177.9660  142.6840 C   0  0  0  0  0  3  0  0  0  0  0  0
  189.3880  177.8190  144.0230 C   0  0  0  0  0  3  0  0  0  0  0  0
  185.3930  178.2600  146.8100 O   0  0  0  0  0  0  0  0  0  0  0  0
  186.5600  177.8400  146.5830 C   0  0  0  0  0  0  0  0  0  0  0  0
  187.2790  177.3030  147.6020 F   0  0  0  0  0  0  0  0  0  0  0  0
  183.0850  177.2450  140.5390 C   0  0  0  0  0  2  0  0  0  0  0  0
  182.0500  177.1580  139.4310 C   0  0  0  0  0  2  0  0  0  0  0  0
  180.7860  176.9330  139.9780 O   0  0  0  0  0  0  0  0  0  0  0  0
  179.9810  177.9630  139.4880 C   0  0  1  0  0  3  0  0  0  0  0  0
  179.7570  179.0020  140.5990 C   0  0  0  0  0  2  0  0  0  0  0  0
  179.7510  181.3480  140.9680 O   0  0  0  0  0  0  0  0  0  0  0  0
  179.7220  179.6650  137.7190 C   0  0  0  0  0  2  0  0  0  0  0  0
  179.6150  180.7380  138.7110 N   0  0  0  0  0  0  0  0  0  0  0  0
  180.6240  178.5610  138.2410 C   0  0  0  0  0  2  0  0  0  0  0  0
  179.6910  180.4270  140.1160 C   0  0  0  0  0  0  0  0  0  0  0  0
  181.1510  182.4760  137.9050 C   0  0  0  0  0  2  0  0  0  0  0  0
  180.1680  182.1660  136.8000 C   0  0  0  0  0  2  0  0  0  0  0  0
  179.7080  182.1270  138.2530 C   0  0  0  0  0  3  0  0  0  0  0  0
  188.4950  178.3300  139.7760 N   0  0  0  0  0  2  0  0  0  0  0  0
  188.7870  175.6000  137.3040 N   0  0  0  0  0  0  0  0  0  0  0  0
  190.7630  175.6560  138.5940 N   0  0  0  0  0  0  0  0  0  0  0  0
  188.2800  176.6350  138.0260 C   0  0  0  0  0  3  0  0  0  0  0  0
  190.0280  175.1090  137.5890 C   0  0  0  0  0  0  0  0  0  0  0  0
  190.2820  176.6900  139.3290 C   0  0  0  0  0  3  0  0  0  0  0  0
  190.5070  174.1510  136.9220 O   0  0  0  0  0  0  0  0  0  0  0  0
  189.0130  177.1970  139.0690 C   0  0  0  0  0  0  0  0  0  0  0  0
  187.9850  175.0350  136.2240 C   0  0  0  0  0  2  0  0  0  0  0  0
  186.5570  174.7820  136.6740 C   0  0  0  0  0  2  0  0  0  0  0  0
  186.4140  173.3970  137.2580 C   0  0  0  0  0  1  0  0  0  0  0  0
  1  8  1  0  0  0  0
  1 11  1  0  0  0  0
  2  4  1  0  0  0  0
  3  8  1  0  0  0  0
  4 16  1  0  0  0  0
  5  3  1  0  0  0  0
  6 10  1  0  0  0  0
  6  1  2  0  0  0  0
  7 13  1  0  0  0  0
  7 11  1  0  0  0  0
  9  4  2  0  0  0  0
 10  7  2  0  0  0  0
 11  2  2  0  0  0  0
 12  5  1  0  0  0  0
 12  6  1  0  0  0  0
 13 14  2  0  0  0  0
 14  9  1  0  0  0  0
 16 15  2  0  0  0  0
 16 17  1  0  0  0  0
 18  3  1  0  0  0  0
 19 20  1  0  0  0  0
 19 18  1  0  0  0  0
 21 20  1  1  0  0  0
 21 22  1  0  0  0  0
 24 26  1  0  0  0  0
 24 25  1  0  0  0  0
 25 27  1  0  0  0  0
 26 21  1  0  0  0  0
 27 22  1  0  0  0  0
 27 23  2  0  0  0  0
 28 30  1  0  0  0  0
 29 28  1  0  0  0  0
 29 30  1  0  0  0  0
 30 25  1  0  0  0  0
 31 10  1  0  0  0  0
 32 35  1  0  0  0  0
 32 34  1  0  0  0  0
 33 36  2  0  0  0  0
 34 38  2  0  0  0  0
 35 33  1  0  0  0  0
 37 35  2  0  0  0  0
 38 36  1  0  0  0  0
 38 31  1  0  0  0  0
 39 40  1  0  0  0  0
 39 32  1  0  0  0  0
 40 41  1  0  0  0  0
M  END
>  <MODEL>
3

>  <REMARK>
 VINA RESULT:      -7.4      3.089      6.567
  Name = 
  10 active torsions:
  status: ('A' for Active; 'I' for Inactive)
    1  A    between atoms: C_1  and  O_13
    2  A    between atoms: N_2  and  C_32
    3  A    between atoms: C_3  and  N_15
    4  A    between atoms: C_3  and  C_37
    5  A    between atoms: C_10  and  C_32
    6  A    between atoms: O_13  and  C_37
    7  A    between atoms: N_17  and  C_29
    8  A    between atoms: N_17  and  C_40
    9  A    between atoms: C_18  and  C_22
   10  A    between atoms: N_23  and  C_39
                            x       y       z     vdW  Elec       q    Type
                         _______ _______ _______ _____ _____    ______ ____

>  <TORSDO>
F 10

$$$$
=
 OpenBabel11032419553D

 41 46  0  0  1  0  0  0  0  0999 V2000
  184.6720  178.9830  141.8100 C   0  0  0  0  0  0  0  0  0  0  0  0
  186.4420  178.6550  140.2040 N   0  0  0  0  0  0  0  0  0  0  0  0
  184.6750  179.5420  144.2150 N   0  0  0  0  0  0  0  0  0  0  0  0
  187.0290  178.3550  139.0140 C   0  0  0  0  0  0  0  0  0  0  0  0
  183.3130  180.0720  144.0070 C   0  0  0  0  0  2  0  0  0  0  0  0
  183.2990  178.8850  141.8170 C   0  0  0  0  0  0  0  0  0  0  0  0
  183.9700  178.3170  139.7440 C   0  0  0  0  0  0  0  0  0  0  0  0
  185.4610  179.5210  142.9680 C   0  0  0  0  0  2  0  0  0  0  0  0
  186.3560  177.9850  137.8410 C   0  0  0  0  0  3  0  0  0  0  0  0
  182.8680  178.4460  140.5720 C   0  0  0  0  0  0  0  0  0  0  0  0
  185.1360  178.6520  140.5540 C   0  0  0  0  0  0  0  0  0  0  0  0
  182.4790  179.2370  143.0160 C   0  0  0  0  0  2  0  0  0  0  0  0
  183.9170  177.9500  138.4140 C   0  0  0  0  0  3  0  0  0  0  0  0
  185.0020  177.8090  137.5680 C   0  0  0  0  0  3  0  0  0  0  0  0
  189.0750  179.2360  138.1690 O   0  0  0  0  0  0  0  0  0  0  0  0
  188.4990  178.4370  138.9560 C   0  0  0  0  0  0  0  0  0  0  0  0
  189.2530  177.6430  139.7610 F   0  0  0  0  0  0  0  0  0  0  0  0
  184.6180  178.1910  144.7720 C   0  0  0  0  0  2  0  0  0  0  0  0
  185.3650  178.1420  146.0930 C   0  0  0  0  0  2  0  0  0  0  0  0
  186.2760  177.0850  146.0850 O   0  0  0  0  0  0  0  0  0  0  0  0
  187.5160  177.6650  145.8150 C   0  0  1  0  0  3  0  0  0  0  0  0
  188.5040  177.2920  146.9340 C   0  0  0  0  0  2  0  0  0  0  0  0
  190.7320  176.5410  147.2630 O   0  0  0  0  0  0  0  0  0  0  0  0
  189.3350  177.8830  144.1600 C   0  0  0  0  0  2  0  0  0  0  0  0
  190.3300  177.4230  145.1310 N   0  0  0  0  0  0  0  0  0  0  0  0
  187.9940  177.2260  144.4360 C   0  0  0  0  0  2  0  0  0  0  0  0
  189.9200  177.0770  146.4690 C   0  0  0  0  0  0  0  0  0  0  0  0
  191.6280  175.7190  143.9320 C   0  0  0  0  0  2  0  0  0  0  0  0
  191.6690  176.9960  143.1260 C   0  0  0  0  0  2  0  0  0  0  0  0
  191.6660  177.0640  144.6490 C   0  0  0  0  0  3  0  0  0  0  0  0
  181.5090  178.2800  140.1500 N   0  0  0  0  0  2  0  0  0  0  0  0
  180.4130  174.8760  139.2190 N   0  0  0  0  0  0  0  0  0  0  0  0
  179.2660  175.5220  141.1770 N   0  0  0  0  0  0  0  0  0  0  0  0
  181.0460  176.0800  139.1870 C   0  0  0  0  0  3  0  0  0  0  0  0
  179.5210  174.5980  140.2130 C   0  0  0  0  0  0  0  0  0  0  0  0
  179.8840  176.7300  141.1710 C   0  0  0  0  0  3  0  0  0  0  0  0
  178.9310  173.4830  140.2530 O   0  0  0  0  0  0  0  0  0  0  0  0
  180.7850  177.0440  140.1580 C   0  0  0  0  0  0  0  0  0  0  0  0
  180.7100  173.8960  138.1800 C   0  0  0  0  0  2  0  0  0  0  0  0
  180.0200  174.2530  136.8740 C   0  0  0  0  0  2  0  0  0  0  0  0
  181.0040  174.2490  135.7280 C   0  0  0  0  0  1  0  0  0  0  0  0
  1  6  1  0  0  0  0
  1  8  1  0  0  0  0
  2 11  1  0  0  0  0
  3 18  1  0  0  0  0
  4  2  2  0  0  0  0
  5  3  1  0  0  0  0
  6 12  1  0  0  0  0
  7 11  1  0  0  0  0
  7 10  1  0  0  0  0
  8  3  1  0  0  0  0
  9  4  1  0  0  0  0
 10  6  2  0  0  0  0
 11  1  2  0  0  0  0
 12  5  1  0  0  0  0
 13  7  2  0  0  0  0
 14  9  2  0  0  0  0
 14 13  1  0  0  0  0
 15 16  2  0  0  0  0
 16  4  1  0  0  0  0
 16 17  1  0  0  0  0
 18 19  1  0  0  0  0
 20 19  1  0  0  0  0
 21 20  1  1  0  0  0
 21 22  1  0  0  0  0
 24 26  1  0  0  0  0
 24 25  1  0  0  0  0
 25 27  1  0  0  0  0
 26 21  1  0  0  0  0
 27 22  1  0  0  0  0
 27 23  2  0  0  0  0
 28 30  1  0  0  0  0
 29 28  1  0  0  0  0
 29 30  1  0  0  0  0
 30 25  1  0  0  0  0
 31 38  1  0  0  0  0
 31 10  1  0  0  0  0
 32 35  1  0  0  0  0
 34 32  1  0  0  0  0
 34 38  2  0  0  0  0
 35 37  2  0  0  0  0
 35 33  1  0  0  0  0
 36 33  2  0  0  0  0
 38 36  1  0  0  0  0
 39 32  1  0  0  0  0
 40 39  1  0  0  0  0
 41 40  1  0  0  0  0
M  END
>  <MODEL>
4

>  <REMARK>
 VINA RESULT:      -7.3      3.173      8.675
  Name = 
  10 active torsions:
  status: ('A' for Active; 'I' for Inactive)
    1  A    between atoms: C_1  and  O_13
    2  A    between atoms: N_2  and  C_32
    3  A    between atoms: C_3  and  N_15
    4  A    between atoms: C_3  and  C_37
    5  A    between atoms: C_10  and  C_32
    6  A    between atoms: O_13  and  C_37
    7  A    between atoms: N_17  and  C_29
    8  A    between atoms: N_17  and  C_40
    9  A    between atoms: C_18  and  C_22
   10  A    between atoms: N_23  and  C_39
                            x       y       z     vdW  Elec       q    Type
                         _______ _______ _______ _____ _____    ______ ____

>  <TORSDO>
F 10

$$$$
=
 OpenBabel11032419553D

 41 46  0  0  1  0  0  0  0  0999 V2000
  185.4920  178.4540  141.9120 C   0  0  0  0  0  0  0  0  0  0  0  0
  186.2770  178.0910  144.1640 N   0  0  0  0  0  0  0  0  0  0  0  0
  183.2310  178.6140  140.9310 N   0  0  0  0  0  0  0  0  0  0  0  0
  187.1630  177.8890  145.1760 C   0  0  0  0  0  0  0  0  0  0  0  0
  183.8510  179.3930  139.8410 C   0  0  0  0  0  2  0  0  0  0  0  0
  186.0600  178.5890  140.6650 C   0  0  0  0  0  0  0  0  0  0  0  0
  187.7560  178.2520  142.1080 C   0  0  0  0  0  0  0  0  0  0  0  0
  184.0280  178.6600  142.1710 C   0  0  0  0  0  2  0  0  0  0  0  0
  188.5580  177.8290  145.0410 C   0  0  0  0  0  3  0  0  0  0  0  0
  187.4360  178.4330  140.7740 C   0  0  0  0  0  0  0  0  0  0  0  0
  186.4930  178.2530  142.8390 C   0  0  0  0  0  0  0  0  0  0  0  0
  185.2480  178.8790  139.4440 C   0  0  0  0  0  2  0  0  0  0  0  0
  189.0390  178.1150  142.5990 C   0  0  0  0  0  3  0  0  0  0  0  0
  189.3840  177.9300  143.9260 C   0  0  0  0  0  3  0  0  0  0  0  0
  187.3520  177.5030  147.5190 O   0  0  0  0  0  0  0  0  0  0  0  0
  186.6040  177.7300  146.5300 C   0  0  0  0  0  0  0  0  0  0  0  0
  185.2640  177.8300  146.7240 F   0  0  0  0  0  0  0  0  0  0  0  0
  183.0500  177.2210  140.5250 C   0  0  0  0  0  2  0  0  0  0  0  0
  181.8130  177.0930  139.6530 C   0  0  0  0  0  2  0  0  0  0  0  0
  182.1860  176.8190  138.3370 O   0  0  0  0  0  0  0  0  0  0  0  0
  182.5970  175.4850  138.3380 C   0  0  1  0  0  3  0  0  0  0  0  0
  181.4710  174.6080  137.7640 C   0  0  0  0  0  2  0  0  0  0  0  0
  181.1080  172.8170  136.2480 O   0  0  0  0  0  0  0  0  0  0  0  0
  184.3350  173.8990  137.5900 C   0  0  0  0  0  2  0  0  0  0  0  0
  183.3390  173.0630  136.9140 N   0  0  0  0  0  0  0  0  0  0  0  0
  183.9020  175.3540  137.5600 C   0  0  0  0  0  2  0  0  0  0  0  0
  181.9480  173.4370  136.9460 C   0  0  0  0  0  0  0  0  0  0  0  0
  184.6150  172.6410  134.8580 C   0  0  0  0  0  2  0  0  0  0  0  0
  185.3300  171.9650  136.0040 C   0  0  0  0  0  2  0  0  0  0  0  0
  183.8070  172.0220  135.9940 C   0  0  0  0  0  3  0  0  0  0  0  0
  188.3950  178.5670  139.7170 N   0  0  0  0  0  2  0  0  0  0  0  0
  189.2020  176.2040  136.9940 N   0  0  0  0  0  0  0  0  0  0  0  0
  190.6490  175.7770  138.8080 N   0  0  0  0  0  0  0  0  0  0  0  0
  188.5930  177.1910  137.7060 C   0  0  0  0  0  3  0  0  0  0  0  0
  190.2300  175.4960  137.5460 C   0  0  0  0  0  0  0  0  0  0  0  0
  190.0610  176.7560  139.5400 C   0  0  0  0  0  3  0  0  0  0  0  0
  190.8030  174.5820  136.8920 O   0  0  0  0  0  0  0  0  0  0  0  0
  189.0000  177.4810  139.0050 C   0  0  0  0  0  0  0  0  0  0  0  0
  188.7420  175.9260  135.6370 C   0  0  0  0  0  2  0  0  0  0  0  0
  187.4020  175.2110  135.6480 C   0  0  0  0  0  2  0  0  0  0  0  0
  186.3720  175.9850  134.8590 C   0  0  0  0  0  1  0  0  0  0  0  0
  1  8  1  0  0  0  0
  1 11  1  0  0  0  0
  2  4  1  0  0  0  0
  3  8  1  0  0  0  0
  4 16  1  0  0  0  0
  5  3  1  0  0  0  0
  6 10  1  0  0  0  0
  6  1  2  0  0  0  0
  7 13  1  0  0  0  0
  7 11  1  0  0  0  0
  9  4  2  0  0  0  0
 10  7  2  0  0  0  0
 11  2  2  0  0  0  0
 12  5  1  0  0  0  0
 12  6  1  0  0  0  0
 13 14  2  0  0  0  0
 14  9  1  0  0  0  0
 16 17  1  0  0  0  0
 16 15  2  0  0  0  0
 18  3  1  0  0  0  0
 19 18  1  0  0  0  0
 20 19  1  0  0  0  0
 21 20  1  6  0  0  0
 22 21  1  0  0  0  0
 23 27  2  0  0  0  0
 25 27  1  0  0  0  0
 25 24  1  0  0  0  0
 26 24  1  0  0  0  0
 26 21  1  0  0  0  0
 27 22  1  0  0  0  0
 28 30  1  0  0  0  0
 28 29  1  0  0  0  0
 30 29  1  0  0  0  0
 30 25  1  0  0  0  0
 31 10  1  0  0  0  0
 32 35  1  0  0  0  0
 32 34  1  0  0  0  0
 33 36  2  0  0  0  0
 34 38  2  0  0  0  0
 35 33  1  0  0  0  0
 37 35  2  0  0  0  0
 38 36  1  0  0  0  0
 38 31  1  0  0  0  0
 39 40  1  0  0  0  0
 39 32  1  0  0  0  0
 41 40  1  0  0  0  0
M  END
>  <MODEL>
5

>  <REMARK>
 VINA RESULT:      -7.3      2.548      5.632
  Name = 
  10 active torsions:
  status: ('A' for Active; 'I' for Inactive)
    1  A    between atoms: C_1  and  O_13
    2  A    between atoms: N_2  and  C_32
    3  A    between atoms: C_3  and  N_15
    4  A    between atoms: C_3  and  C_37
    5  A    between atoms: C_10  and  C_32
    6  A    between atoms: O_13  and  C_37
    7  A    between atoms: N_17  and  C_29
    8  A    between atoms: N_17  and  C_40
    9  A    between atoms: C_18  and  C_22
   10  A    between atoms: N_23  and  C_39
                            x       y       z     vdW  Elec       q    Type
                         _______ _______ _______ _____ _____    ______ ____

>  <TORSDO>
F 10

$$$$
=
 OpenBabel11032419553D

 41 46  0  0  1  0  0  0  0  0999 V2000
  184.2400  178.3730  138.6120 C   0  0  0  0  0  0  0  0  0  0  0  0
  186.5220  178.3670  137.8290 N   0  0  0  0  0  0  0  0  0  0  0  0
  183.1620  179.3160  140.6230 N   0  0  0  0  0  0  0  0  0  0  0  0
  187.5840  178.0710  137.0310 C   0  0  0  0  0  0  0  0  0  0  0  0
  181.9090  179.3240  139.8440 C   0  0  0  0  0  2  0  0  0  0  0  0
  183.0420  177.8330  138.2030 C   0  0  0  0  0  0  0  0  0  0  0  0
  184.5900  177.1600  136.7120 C   0  0  0  0  0  0  0  0  0  0  0  0
  184.3560  179.3360  139.7580 C   0  0  0  0  0  2  0  0  0  0  0  0
  187.5360  177.3000  135.8610 C   0  0  0  0  0  3  0  0  0  0  0  0
  183.2550  177.0640  137.0650 C   0  0  0  0  0  0  0  0  0  0  0  0
  185.2260  177.9970  137.7230 C   0  0  0  0  0  0  0  0  0  0  0  0
  181.7580  178.1020  138.9190 C   0  0  0  0  0  2  0  0  0  0  0  0
  185.1540  176.5670  135.6000 C   0  0  0  0  0  3  0  0  0  0  0  0
  186.4850  176.6440  135.2270 C   0  0  0  0  0  3  0  0  0  0  0  0
  189.0580  179.8610  137.5760 O   0  0  0  0  0  0  0  0  0  0  0  0
  188.8920  178.6200  137.4310 C   0  0  0  0  0  0  0  0  0  0  0  0
  189.9380  177.7820  137.6500 F   0  0  0  0  0  0  0  0  0  0  0  0
  183.2150  178.1420  141.4930 C   0  0  0  0  0  2  0  0  0  0  0  0
  183.9980  178.4660  142.7530 C   0  0  0  0  0  2  0  0  0  0  0  0
  185.1540  177.6860  142.8080 O   0  0  0  0  0  0  0  0  0  0  0  0
  185.9430  178.2630  143.8050 C   0  0  1  0  0  3  0  0  0  0  0  0
  185.0410  178.7170  144.9650 C   0  0  0  0  0  2  0  0  0  0  0  0
  184.9130  178.6790  147.3360 O   0  0  0  0  0  0  0  0  0  0  0  0
  187.8680  177.9270  145.3140 C   0  0  0  0  0  2  0  0  0  0  0  0
  187.0510  178.2340  146.4910 N   0  0  0  0  0  0  0  0  0  0  0  0
  187.0140  177.2710  144.2430 C   0  0  0  0  0  2  0  0  0  0  0  0
  185.6570  178.5620  146.3310 C   0  0  0  0  0  0  0  0  0  0  0  0
  188.3370  176.6030  147.8000 C   0  0  0  0  0  2  0  0  0  0  0  0
  189.1180  177.8950  147.7590 C   0  0  0  0  0  2  0  0  0  0  0  0
  187.5950  177.9350  147.8180 C   0  0  0  0  0  3  0  0  0  0  0  0
  182.2550  176.3890  136.2930 N   0  0  0  0  0  2  0  0  0  0  0  0
  181.9810  172.7580  136.9170 N   0  0  0  0  0  0  0  0  0  0  0  0
  179.8990  173.7590  137.4000 N   0  0  0  0  0  0  0  0  0  0  0  0
  182.4860  173.9690  136.5600 C   0  0  0  0  0  3  0  0  0  0  0  0
  180.6860  172.6520  137.3350 C   0  0  0  0  0  0  0  0  0  0  0  0
  180.3780  174.9790  137.0520 C   0  0  0  0  0  3  0  0  0  0  0  0
  180.2100  171.5330  137.6710 O   0  0  0  0  0  0  0  0  0  0  0  0
  181.6900  175.1100  136.6060 C   0  0  0  0  0  0  0  0  0  0  0  0
  182.8460  171.5850  136.8490 C   0  0  0  0  0  2  0  0  0  0  0  0
  184.3110  171.9850  136.8010 C   0  0  0  0  0  2  0  0  0  0  0  0
  185.0030  171.3550  135.6150 C   0  0  0  0  0  1  0  0  0  0  0  0
  1  8  1  0  0  0  0
  3 18  1  0  0  0  0
  4 16  1  0  0  0  0
  4  2  2  0  0  0  0
  5  3  1  0  0  0  0
  6  1  1  0  0  0  0
  6 12  1  0  0  0  0
  7 10  1  0  0  0  0
  7 11  1  0  0  0  0
  8  3  1  0  0  0  0
  9  4  1  0  0  0  0
 10  6  2  0  0  0  0
 11  2  1  0  0  0  0
 11  1  2  0  0  0  0
 12  5  1  0  0  0  0
 13  7  2  0  0  0  0
 14 13  1  0  0  0  0
 14  9  2  0  0  0  0
 16 15  2  0  0  0  0
 16 17  1  0  0  0  0
 18 19  1  0  0  0  0
 19 20  1  0  0  0  0
 21 20  1  6  0  0  0
 21 26  1  0  0  0  0
 21 22  1  0  0  0  0
 22 27  1  0  0  0  0
 24 25  1  0  0  0  0
 25 30  1  0  0  0  0
 26 24  1  0  0  0  0
 27 25  1  0  0  0  0
 27 23  2  0  0  0  0
 28 30  1  0  0  0  0
 29 28  1  0  0  0  0
 29 30  1  0  0  0  0
 31 38  1  0  0  0  0
 31 10  1  0  0  0  0
 32 35  1  0  0  0  0
 34 38  2  0  0  0  0
 34 32  1  0  0  0  0
 35 33  1  0  0  0  0
 35 37  2  0  0  0  0
 36 33  2  0  0  0  0
 38 36  1  0  0  0  0
 39 32  1  0  0  0  0
 40 39  1  0  0  0  0
 41 40  1  0  0  0  0
M  END
>  <MODEL>
6

>  <REMARK>
 VINA RESULT:      -7.3      3.446      9.027
  Name = 
  10 active torsions:
  status: ('A' for Active; 'I' for Inactive)
    1  A    between atoms: C_1  and  O_13
    2  A    between atoms: N_2  and  C_32
    3  A    between atoms: C_3  and  N_15
    4  A    between atoms: C_3  and  C_37
    5  A    between atoms: C_10  and  C_32
    6  A    between atoms: O_13  and  C_37
    7  A    between atoms: N_17  and  C_29
    8  A    between atoms: N_17  and  C_40
    9  A    between atoms: C_18  and  C_22
   10  A    between atoms: N_23  and  C_39
                            x       y       z     vdW  Elec       q    Type
                         _______ _______ _______ _____ _____    ______ ____

>  <TORSDO>
F 10

$$$$
=
 OpenBabel11032419553D

 41 46  0  0  1  0  0  0  0  0999 V2000
  188.2350  176.3240  137.8210 C   0  0  0  0  0  0  0  0  0  0  0  0
  188.0290  174.2150  136.6670 N   0  0  0  0  0  0  0  0  0  0  0  0
  190.0760  177.3600  139.1000 N   0  0  0  0  0  0  0  0  0  0  0  0
  187.4380  173.2130  135.9620 C   0  0  0  0  0  0  0  0  0  0  0  0
  189.4470  178.6590  138.7890 C   0  0  0  0  0  2  0  0  0  0  0  0
  187.4150  177.3930  138.1030 C   0  0  0  0  0  0  0  0  0  0  0  0
  186.1630  175.9100  136.9600 C   0  0  0  0  0  0  0  0  0  0  0  0
  189.7050  176.3150  138.1290 C   0  0  0  0  0  2  0  0  0  0  0  0
  186.1110  173.2050  135.5090 C   0  0  0  0  0  3  0  0  0  0  0  0
  186.1430  177.1310  137.6110 C   0  0  0  0  0  0  0  0  0  0  0  0
  187.5160  175.3860  137.1110 C   0  0  0  0  0  0  0  0  0  0  0  0
  187.9070  178.6120  138.8130 C   0  0  0  0  0  2  0  0  0  0  0  0
  185.0870  175.3500  136.3010 C   0  0  0  0  0  3  0  0  0  0  0  0
  185.0810  174.1300  135.6480 C   0  0  0  0  0  3  0  0  0  0  0  0
  187.7540  170.9070  135.4560 O   0  0  0  0  0  0  0  0  0  0  0  0
  188.2720  172.0410  135.6420 C   0  0  0  0  0  0  0  0  0  0  0  0
  189.6200  172.1770  135.5430 F   0  0  0  0  0  0  0  0  0  0  0  0
  189.7050  176.9230  140.4450 C   0  0  0  0  0  2  0  0  0  0  0  0
  190.8970  177.0460  141.3770 C   0  0  0  0  0  2  0  0  0  0  0  0
  190.6110  177.9530  142.3980 O   0  0  0  0  0  0  0  0  0  0  0  0
  190.1470  177.1800  143.4630 C   0  0  1  0  0  3  0  0  0  0  0  0
  191.3290  176.8150  144.3770 C   0  0  0  0  0  2  0  0  0  0  0  0
  191.9350  176.7150  146.6710 O   0  0  0  0  0  0  0  0  0  0  0  0
  188.5460  177.0650  145.3380 C   0  0  0  0  0  2  0  0  0  0  0  0
  189.6260  176.8300  146.3000 N   0  0  0  0  0  0  0  0  0  0  0  0
  189.0440  177.9340  144.1970 C   0  0  0  0  0  2  0  0  0  0  0  0
  190.9920  176.7660  145.8430 C   0  0  0  0  0  0  0  0  0  0  0  0
  189.1250  178.3960  148.1230 C   0  0  0  0  0  2  0  0  0  0  0  0
  187.9240  177.5010  147.9270 C   0  0  0  0  0  2  0  0  0  0  0  0
  189.3260  176.9370  147.7300 C   0  0  0  0  0  3  0  0  0  0  0  0
  185.0180  178.0190  137.6410 N   0  0  0  0  0  2  0  0  0  0  0  0
  183.2590  178.4150  140.8650 N   0  0  0  0  0  0  0  0  0  0  0  0
  181.6850  177.7770  139.2270 N   0  0  0  0  0  0  0  0  0  0  0  0
  184.2520  178.3650  139.9370 C   0  0  0  0  0  3  0  0  0  0  0  0
  181.9750  178.1190  140.5110 C   0  0  0  0  0  0  0  0  0  0  0  0
  182.6550  177.7210  138.2810 C   0  0  0  0  0  3  0  0  0  0  0  0
  181.0470  178.1660  141.3640 O   0  0  0  0  0  0  0  0  0  0  0  0
  183.9750  178.0020  138.6220 C   0  0  0  0  0  0  0  0  0  0  0  0
  183.5920  178.7940  142.2350 C   0  0  0  0  0  2  0  0  0  0  0  0
  184.8850  178.1380  142.6870 C   0  0  0  0  0  2  0  0  0  0  0  0
  185.3150  178.6690  144.0340 C   0  0  0  0  0  1  0  0  0  0  0  0
  1  6  1  0  0  0  0
  1  8  1  0  0  0  0
  2 11  1  0  0  0  0
  3 18  1  0  0  0  0
  4  2  2  0  0  0  0
  5 12  1  0  0  0  0
  5  3  1  0  0  0  0
  6 12  1  0  0  0  0
  7 11  1  0  0  0  0
  7 10  1  0  0  0  0
  8  3  1  0  0  0  0
  9 14  2  0  0  0  0
  9  4  1  0  0  0  0
 10 31  1  0  0  0  0
 10  6  2  0  0  0  0
 11  1  2  0  0  0  0
 13  7  2  0  0  0  0
 14 13  1  0  0  0  0
 15 16  2  0  0  0  0
 16  4  1  0  0  0  0
 17 16  1  0  0  0  0
 18 19  1  0  0  0  0
 19 20  1  0  0  0  0
 21 20  1  6  0  0  0
 21 26  1  0  0  0  0
 21 22  1  0  0  0  0
 22 27  1  0  0  0  0
 24 25  1  0  0  0  0
 25 30  1  0  0  0  0
 26 24  1  0  0  0  0
 27 25  1  0  0  0  0
 27 23  2  0  0  0  0
 29 28  1  0  0  0  0
 30 29  1  0  0  0  0
 30 28  1  0  0  0  0
 31 38  1  0  0  0  0
 32 39  1  0  0  0  0
 33 35  1  0  0  0  0
 34 32  1  0  0  0  0
 35 32  1  0  0  0  0
 35 37  2  0  0  0  0
 36 38  1  0  0  0  0
 36 33  2  0  0  0  0
 38 34  2  0  0  0  0
 39 40  1  0  0  0  0
 40 41  1  0  0  0  0
M  END
>  <MODEL>
7

>  <REMARK>
 VINA RESULT:      -7.1      3.251      8.757
  Name = 
  10 active torsions:
  status: ('A' for Active; 'I' for Inactive)
    1  A    between atoms: C_1  and  O_13
    2  A    between atoms: N_2  and  C_32
    3  A    between atoms: C_3  and  N_15
    4  A    between atoms: C_3  and  C_37
    5  A    between atoms: C_10  and  C_32
    6  A    between atoms: O_13  and  C_37
    7  A    between atoms: N_17  and  C_29
    8  A    between atoms: N_17  and  C_40
    9  A    between atoms: C_18  and  C_22
   10  A    between atoms: N_23  and  C_39
                            x       y       z     vdW  Elec       q    Type
                         _______ _______ _______ _____ _____    ______ ____

>  <TORSDO>
F 10

$$$$
=
 OpenBabel11032419553D

 41 46  0  0  1  0  0  0  0  0999 V2000
  188.4310  177.4560  141.2540 C   0  0  0  0  0  0  0  0  0  0  0  0
  186.8540  177.7840  143.0500 N   0  0  0  0  0  0  0  0  0  0  0  0
  190.7420  176.5890  141.1910 N   0  0  0  0  0  0  0  0  0  0  0  0
  185.7040  178.1680  143.6680 C   0  0  0  0  0  0  0  0  0  0  0  0
  190.4880  176.2530  139.7770 C   0  0  0  0  0  2  0  0  0  0  0  0
  188.4720  177.7110  139.9020 C   0  0  0  0  0  0  0  0  0  0  0  0
  186.4810  178.4650  140.6340 C   0  0  0  0  0  0  0  0  0  0  0  0
  189.4960  176.6820  141.9750 C   0  0  0  0  0  2  0  0  0  0  0  0
  184.6000  178.7650  143.0420 C   0  0  0  0  0  3  0  0  0  0  0  0
  187.3010  178.3570  139.5250 C   0  0  0  0  0  0  0  0  0  0  0  0
  187.2220  177.8930  141.7530 C   0  0  0  0  0  0  0  0  0  0  0  0
  189.6270  177.3020  139.0460 C   0  0  0  0  0  2  0  0  0  0  0  0
  185.2110  179.0080  140.6240 C   0  0  0  0  0  3  0  0  0  0  0  0
  184.3730  179.1310  141.7190 C   0  0  0  0  0  3  0  0  0  0  0  0
  185.1200  178.7880  145.8930 O   0  0  0  0  0  0  0  0  0  0  0  0
  185.6130  177.9240  145.1180 C   0  0  0  0  0  0  0  0  0  0  0  0
  186.0640  176.7520  145.6370 F   0  0  0  0  0  0  0  0  0  0  0  0
  191.4710  177.8530  141.2930 C   0  0  0  0  0  2  0  0  0  0  0  0
  191.4940  178.3240  142.7360 C   0  0  0  0  0  2  0  0  0  0  0  0
  192.0600  177.3410  143.5480 O   0  0  0  0  0  0  0  0  0  0  0  0
  191.0750  177.0190  144.4830 C   0  0  1  0  0  3  0  0  0  0  0  0
  191.7380  176.3960  145.7230 C   0  0  0  0  0  2  0  0  0  0  0  0
  191.6850  176.4900  148.0960 O   0  0  0  0  0  0  0  0  0  0  0  0
  189.1860  177.8830  145.8170 C   0  0  0  0  0  2  0  0  0  0  0  0
  189.8030  177.4260  147.0640 N   0  0  0  0  0  0  0  0  0  0  0  0
  190.2590  178.2640  144.8120 C   0  0  0  0  0  2  0  0  0  0  0  0
  191.0770  176.7520  147.0290 C   0  0  0  0  0  0  0  0  0  0  0  0
  187.9290  178.6260  148.1010 C   0  0  0  0  0  2  0  0  0  0  0  0
  187.9240  177.2060  148.6180 C   0  0  0  0  0  2  0  0  0  0  0  0
  189.2500  177.9020  148.3350 C   0  0  0  0  0  3  0  0  0  0  0  0
  186.9260  178.7340  138.1950 N   0  0  0  0  0  2  0  0  0  0  0  0
  184.2860  176.6140  136.7170 N   0  0  0  0  0  0  0  0  0  0  0  0
  185.9680  176.9520  135.0970 N   0  0  0  0  0  0  0  0  0  0  0  0
  184.9940  177.3540  137.6130 C   0  0  0  0  0  3  0  0  0  0  0  0
  184.7740  176.4110  135.4590 C   0  0  0  0  0  0  0  0  0  0  0  0
  186.6940  177.6940  135.9700 C   0  0  0  0  0  3  0  0  0  0  0  0
  184.1240  175.7290  134.6210 O   0  0  0  0  0  0  0  0  0  0  0  0
  186.2250  177.9010  137.2640 C   0  0  0  0  0  0  0  0  0  0  0  0
  183.0030  176.0510  137.1240 C   0  0  0  0  0  2  0  0  0  0  0  0
  182.5340  176.6480  138.4410 C   0  0  0  0  0  2  0  0  0  0  0  0
  181.7710  175.6280  139.2520 C   0  0  0  0  0  1  0  0  0  0  0  0
  1 11  1  0  0  0  0
  1  8  1  0  0  0  0
  2  4  1  0  0  0  0
  3 18  1  0  0  0  0
  3  8  1  0  0  0  0
  4 16  1  0  0  0  0
  5  3  1  0  0  0  0
  6  1  2  0  0  0  0
  7 11  1  0  0  0  0
  9  4  2  0  0  0  0
 10  6  1  0  0  0  0
 10  7  2  0  0  0  0
 11  2  2  0  0  0  0
 12  5  1  0  0  0  0
 12  6  1  0  0  0  0
 13  7  1  0  0  0  0
 13 14  2  0  0  0  0
 14  9  1  0  0  0  0
 16 17  1  0  0  0  0
 16 15  2  0  0  0  0
 18 19  1  0  0  0  0
 19 20  1  0  0  0  0
 21 20  1  6  0  0  0
 21 26  1  0  0  0  0
 21 22  1  0  0  0  0
 22 27  1  0  0  0  0
 24 25  1  0  0  0  0
 25 30  1  0  0  0  0
 26 24  1  0  0  0  0
 27 25  1  0  0  0  0
 27 23  2  0  0  0  0
 28 30  1  0  0  0  0
 28 29  1  0  0  0  0
 30 29  1  0  0  0  0
 31 10  1  0  0  0  0
 32 39  1  0  0  0  0
 32 34  1  0  0  0  0
 33 35  1  0  0  0  0
 33 36  2  0  0  0  0
 35 32  1  0  0  0  0
 36 38  1  0  0  0  0
 37 35  2  0  0  0  0
 38 34  2  0  0  0  0
 38 31  1  0  0  0  0
 39 40  1  0  0  0  0
 40 41  1  0  0  0  0
M  END
>  <MODEL>
8

>  <REMARK>
 VINA RESULT:      -7.1      2.518      8.193
  Name = 
  10 active torsions:
  status: ('A' for Active; 'I' for Inactive)
    1  A    between atoms: C_1  and  O_13
    2  A    between atoms: N_2  and  C_32
    3  A    between atoms: C_3  and  N_15
    4  A    between atoms: C_3  and  C_37
    5  A    between atoms: C_10  and  C_32
    6  A    between atoms: O_13  and  C_37
    7  A    between atoms: N_17  and  C_29
    8  A    between atoms: N_17  and  C_40
    9  A    between atoms: C_18  and  C_22
   10  A    between atoms: N_23  and  C_39
                            x       y       z     vdW  Elec       q    Type
                         _______ _______ _______ _____ _____    ______ ____

>  <TORSDO>
F 10

$$$$
=
 OpenBabel11032419553D

 41 46  0  0  1  0  0  0  0  0999 V2000
  190.7050  176.1330  138.1420 C   0  0  0  0  0  0  0  0  0  0  0  0
  192.7350  174.8480  137.9150 N   0  0  0  0  0  0  0  0  0  0  0  0
  190.0550  177.9890  139.6350 N   0  0  0  0  0  0  0  0  0  0  0  0
  193.5740  173.8840  137.4520 C   0  0  0  0  0  0  0  0  0  0  0  0
  189.0660  178.3600  138.6040 C   0  0  0  0  0  2  0  0  0  0  0  0
  189.4470  176.1200  137.5830 C   0  0  0  0  0  0  0  0  0  0  0  0
  190.5820  174.4180  136.6410 C   0  0  0  0  0  0  0  0  0  0  0  0
  191.1750  177.2090  139.0770 C   0  0  0  0  0  2  0  0  0  0  0  0
  193.2620  172.9300  136.4730 C   0  0  0  0  0  3  0  0  0  0  0  0
  189.3560  175.0570  136.6930 C   0  0  0  0  0  0  0  0  0  0  0  0
  191.4480  175.1100  137.5900 C   0  0  0  0  0  0  0  0  0  0  0  0
  188.4110  177.1430  137.9220 C   0  0  0  0  0  2  0  0  0  0  0  0
  190.8780  173.3470  135.8220 C   0  0  0  0  0  3  0  0  0  0  0  0
  192.0940  172.6890  135.7550 C   0  0  0  0  0  3  0  0  0  0  0  0
  195.3170  172.8720  138.7230 O   0  0  0  0  0  0  0  0  0  0  0  0
  194.9310  173.8490  138.0250 C   0  0  0  0  0  0  0  0  0  0  0  0
  195.7860  174.8800  137.8020 F   0  0  0  0  0  0  0  0  0  0  0  0
  189.4170  177.2220  140.7030 C   0  0  0  0  0  2  0  0  0  0  0  0
  190.4570  176.7840  141.7200 C   0  0  0  0  0  2  0  0  0  0  0  0
  190.5090  177.7000  142.7710 O   0  0  0  0  0  0  0  0  0  0  0  0
  189.9860  177.0270  143.8760 C   0  0  1  0  0  3  0  0  0  0  0  0
  191.1270  176.6900  144.8510 C   0  0  0  0  0  2  0  0  0  0  0  0
  191.6640  176.7430  147.1630 O   0  0  0  0  0  0  0  0  0  0  0  0
  188.3290  177.1130  145.7040 C   0  0  0  0  0  2  0  0  0  0  0  0
  189.3720  176.9130  146.7140 N   0  0  0  0  0  0  0  0  0  0  0  0
  188.8920  177.8740  144.5170 C   0  0  0  0  0  2  0  0  0  0  0  0
  190.7460  176.7650  146.3060 C   0  0  0  0  0  0  0  0  0  0  0  0
  189.0770  178.6280  148.4450 C   0  0  0  0  0  2  0  0  0  0  0  0
  187.7470  177.9460  148.2270 C   0  0  0  0  0  2  0  0  0  0  0  0
  189.0360  177.1390  148.1220 C   0  0  0  0  0  3  0  0  0  0  0  0
  188.2350  174.7380  135.8590 N   0  0  0  0  0  2  0  0  0  0  0  0
  184.8600  173.9050  137.1090 N   0  0  0  0  0  0  0  0  0  0  0  0
  185.9060  171.9130  136.3950 N   0  0  0  0  0  0  0  0  0  0  0  0
  185.9740  174.6130  136.7820 C   0  0  0  0  0  3  0  0  0  0  0  0
  184.8260  172.5540  136.9170 C   0  0  0  0  0  0  0  0  0  0  0  0
  187.0300  172.5950  136.0600 C   0  0  0  0  0  3  0  0  0  0  0  0
  183.7960  171.8890  137.2140 O   0  0  0  0  0  0  0  0  0  0  0  0
  187.0950  173.9710  136.2610 C   0  0  0  0  0  0  0  0  0  0  0  0
  183.7090  174.6140  137.6580 C   0  0  0  0  0  2  0  0  0  0  0  0
  183.8980  176.1190  137.5700 C   0  0  0  0  0  2  0  0  0  0  0  0
  182.5840  176.8380  137.7610 C   0  0  0  0  0  1  0  0  0  0  0  0
  1  8  1  0  0  0  0
  3 18  1  0  0  0  0
  4  2  1  0  0  0  0
  4 16  1  0  0  0  0
  5  3  1  0  0  0  0
  6 12  1  0  0  0  0
  6  1  2  0  0  0  0
  7 10  2  0  0  0  0
  7 11  1  0  0  0  0
  8  3  1  0  0  0  0
  9  4  2  0  0  0  0
 10  6  1  0  0  0  0
 11  2  2  0  0  0  0
 11  1  1  0  0  0  0
 12  5  1  0  0  0  0
 13  7  1  0  0  0  0
 14 13  2  0  0  0  0
 14  9  1  0  0  0  0
 16 15  2  0  0  0  0
 17 16  1  0  0  0  0
 18 19  1  0  0  0  0
 19 20  1  0  0  0  0
 21 20  1  6  0  0  0
 21 26  1  0  0  0  0
 21 22  1  0  0  0  0
 22 27  1  0  0  0  0
 24 25  1  0  0  0  0
 25 30  1  0  0  0  0
 26 24  1  0  0  0  0
 27 25  1  0  0  0  0
 27 23  2  0  0  0  0
 29 28  1  0  0  0  0
 30 29  1  0  0  0  0
 30 28  1  0  0  0  0
 31 38  1  0  0  0  0
 31 10  1  0  0  0  0
 32 39  1  0  0  0  0
 33 35  1  0  0  0  0
 34 32  1  0  0  0  0
 35 32  1  0  0  0  0
 35 37  2  0  0  0  0
 36 38  1  0  0  0  0
 36 33  2  0  0  0  0
 38 34  2  0  0  0  0
 40 39  1  0  0  0  0
 40 41  1  0  0  0  0
M  END
>  <MODEL>
9

>  <REMARK>
 VINA RESULT:      -7.1      4.620     10.374
  Name = 
  10 active torsions:
  status: ('A' for Active; 'I' for Inactive)
    1  A    between atoms: C_1  and  O_13
    2  A    between atoms: N_2  and  C_32
    3  A    between atoms: C_3  and  N_15
    4  A    between atoms: C_3  and  C_37
    5  A    between atoms: C_10  and  C_32
    6  A    between atoms: O_13  and  C_37
    7  A    between atoms: N_17  and  C_29
    8  A    between atoms: N_17  and  C_40
    9  A    between atoms: C_18  and  C_22
   10  A    between atoms: N_23  and  C_39
                            x       y       z     vdW  Elec       q    Type
                         _______ _______ _______ _____ _____    ______ ____

>  <TORSDO>
F 10

$$$$
