=
 OpenBabel11032419313D

 31 34  0  0  1  0  0  0  0  0999 V2000
  184.2520  178.0010  140.4160 C   0  0  0  0  0  2  0  0  0  0  0  0
  184.0630  178.5040  142.8600 C   0  0  0  0  0  0  0  0  0  0  0  0
  185.6810  178.9180  146.7850 C   0  0  0  0  0  1  0  0  0  0  0  0
  181.4970  178.0320  139.0130 N   0  0  0  0  0  2  0  0  0  0  0  0
  181.9680  178.2520  141.5450 C   0  0  0  0  0  0  0  0  0  0  0  0
  182.3220  179.2470  137.2180 O   0  0  0  0  0  0  0  0  0  0  0  0
  180.3960  176.7710  140.6060 O   0  0  0  0  0  0  0  0  0  0  0  0
  183.7350  179.0030  145.2380 C   0  0  0  0  0  2  0  0  0  0  0  0
  186.0090  178.5330  144.3490 C   0  0  0  0  0  3  0  0  0  0  0  0
  183.4610  178.2550  141.6640 C   0  0  1  0  0  3  0  0  0  0  0  0
  183.3610  181.2100  138.7190 O   0  0  0  0  0  1  0  0  0  0  0  0
  183.2040  178.8620  144.0240 C   0  0  0  0  0  0  0  0  0  0  0  0
  185.5440  178.4000  143.0990 C   0  0  0  0  0  0  0  0  0  0  0  0
  182.2900  179.0970  138.4700 C   0  0  0  0  0  0  0  0  0  0  0  0
  181.7660  179.2190  143.8340 C   0  0  0  0  0  2  0  0  0  0  0  0
  181.2670  177.6520  140.3810 C   0  0  0  0  0  0  0  0  0  0  0  0
  183.1310  179.9790  139.3370 C   0  0  1  0  0  3  0  0  0  0  0  0
  185.1320  178.7920  145.4480 N   0  0  0  0  0  0  0  0  0  0  0  0
  184.4610  179.3050  139.6490 C   0  0  0  0  0  2  0  0  0  0  0  0
  181.2070  178.6300  142.5780 C   0  0  0  0  0  3  0  0  0  0  0  0
  188.4560  177.8690  143.2120 O   0  0  0  0  0  0  0  0  0  0  0  0
  186.4560  178.1460  142.0180 N   0  0  0  0  0  2  0  0  0  0  0  0
  187.8690  177.8930  142.0930 C   0  0  0  0  0  0  0  0  0  0  0  0
  190.6470  176.8890  138.4780 C   0  0  0  0  0  0  0  0  0  0  0  0
  191.7180  176.3780  137.6930 N   0  0  0  0  0  1  0  0  0  0  0  0
  189.7550  176.9440  140.9320 C   0  0  0  0  0  3  0  0  0  0  0  0
  188.0960  178.2530  139.6180 C   0  0  0  0  0  3  0  0  0  0  0  0
  189.7310  177.5850  137.8790 N   0  0  0  0  0  0  0  0  0  0  0  0
  188.5500  178.2220  138.3700 C   0  0  0  0  0  3  0  0  0  0  0  0
  190.6500  176.5980  139.8760 N   0  0  0  0  0  2  0  0  0  0  0  0
  188.6370  177.6630  140.8490 C   0  0  0  0  0  0  0  0  0  0  0  0
  2 13  1  0  0  0  0
  2 12  2  0  0  0  0
  4 16  1  0  0  0  0
  5 10  1  0  0  0  0
  5 20  2  0  0  0  0
  6 14  2  0  0  0  0
  8 18  1  0  0  0  0
  9 18  1  0  0  0  0
 10  1  1  6  0  0  0
 10  2  1  0  0  0  0
 12  8  1  0  0  0  0
 13  9  2  0  0  0  0
 14  4  1  0  0  0  0
 14 17  1  0  0  0  0
 15 12  1  0  0  0  0
 16  7  2  0  0  0  0
 16  5  1  0  0  0  0
 17 11  1  6  0  0  0
 17 19  1  0  0  0  0
 18  3  1  0  0  0  0
 19  1  1  0  0  0  0
 20 15  1  0  0  0  0
 22 23  1  0  0  0  0
 22 13  1  0  0  0  0
 23 21  2  0  0  0  0
 24 30  1  0  0  0  0
 25 24  1  0  0  0  0
 27 31  1  0  0  0  0
 28 29  1  0  0  0  0
 28 24  2  0  0  0  0
 29 27  2  0  0  0  0
 30 26  1  0  0  0  0
 31 26  2  0  0  0  0
 31 23  1  0  0  0  0
M  END
>  <MODEL>
1

>  <REMARK>
 VINA RESULT:      -8.7      0.000      0.000
  Name = 
  2 active torsions:
  status: ('A' for Active; 'I' for Inactive)
    1  A    between atoms: C_19  and  N_26
    2  A    between atoms: C_27  and  C_31
                            x       y       z     vdW  Elec       q    Type
                         _______ _______ _______ _____ _____    ______ ____

>  <TORSDO>
F 2

$$$$
=
 OpenBabel11032419313D

 31 34  0  0  1  0  0  0  0  0999 V2000
  184.1930  177.4830  138.8750 C   0  0  0  0  0  2  0  0  0  0  0  0
  182.2920  178.6990  137.7930 C   0  0  0  0  0  0  0  0  0  0  0  0
  178.9310  181.3230  137.8720 C   0  0  0  0  0  1  0  0  0  0  0  0
  185.6200  175.5780  136.9020 N   0  0  0  0  0  2  0  0  0  0  0  0
  183.4660  176.9440  136.4810 C   0  0  0  0  0  0  0  0  0  0  0  0
  187.7180  176.2610  137.6170 O   0  0  0  0  0  0  0  0  0  0  0  0
  183.6950  174.6440  136.0270 O   0  0  0  0  0  0  0  0  0  0  0  0
  180.4580  179.8160  136.6130 C   0  0  0  0  0  2  0  0  0  0  0  0
  180.8710  180.2720  139.0230 C   0  0  0  0  0  3  0  0  0  0  0  0
  183.2660  177.7490  137.7280 C   0  0  1  0  0  3  0  0  0  0  0  0
  187.2560  178.8740  137.2460 O   0  0  0  0  0  1  0  0  0  0  0  0
  181.4930  178.9790  136.5680 C   0  0  0  0  0  0  0  0  0  0  0  0
  181.9370  179.4610  139.0400 C   0  0  0  0  0  0  0  0  0  0  0  0
  186.5490  176.6000  137.2910 C   0  0  0  0  0  0  0  0  0  0  0  0
  181.9210  178.4540  135.2370 C   0  0  0  0  0  2  0  0  0  0  0  0
  184.2520  175.6840  136.4690 C   0  0  0  0  0  0  0  0  0  0  0  0
  186.1470  178.0380  137.3900 C   0  0  1  0  0  3  0  0  0  0  0  0
  180.0830  180.4420  137.8410 N   0  0  0  0  0  0  0  0  0  0  0  0
  185.4680  178.3090  138.7260 C   0  0  0  0  0  2  0  0  0  0  0  0
  182.7850  177.2400  135.3680 C   0  0  0  0  0  3  0  0  0  0  0  0
  181.1130  178.3380  141.6540 O   0  0  0  0  0  0  0  0  0  0  0  0
  182.7100  179.3190  140.2440 N   0  0  0  0  0  2  0  0  0  0  0  0
  182.2890  178.7740  141.5060 C   0  0  0  0  0  0  0  0  0  0  0  0
  184.8900  178.8000  145.3840 C   0  0  0  0  0  0  0  0  0  0  0  0
  185.3020  178.9420  146.7380 N   0  0  0  0  0  1  0  0  0  0  0  0
  182.7980  179.0680  143.8430 C   0  0  0  0  0  3  0  0  0  0  0  0
  184.6160  178.3020  142.3260 C   0  0  0  0  0  3  0  0  0  0  0  0
  185.7700  178.4030  144.5170 N   0  0  0  0  0  0  0  0  0  0  0  0
  185.6790  178.1650  143.1120 C   0  0  0  0  0  3  0  0  0  0  0  0
  183.5300  179.1000  145.0660 N   0  0  0  0  0  2  0  0  0  0  0  0
  183.2440  178.7260  142.6350 C   0  0  0  0  0  0  0  0  0  0  0  0
  2 13  1  0  0  0  0
  4 14  1  0  0  0  0
  5 10  1  0  0  0  0
  7 16  2  0  0  0  0
  8 18  1  0  0  0  0
  9 13  2  0  0  0  0
 10  2  1  0  0  0  0
 10  1  1  6  0  0  0
 12  8  1  0  0  0  0
 12  2  2  0  0  0  0
 13 22  1  0  0  0  0
 14 17  1  0  0  0  0
 14  6  2  0  0  0  0
 15 20  1  0  0  0  0
 15 12  1  0  0  0  0
 16  5  1  0  0  0  0
 16  4  1  0  0  0  0
 17 11  1  1  0  0  0
 17 19  1  0  0  0  0
 18  3  1  0  0  0  0
 18  9  1  0  0  0  0
 19  1  1  0  0  0  0
 20  5  2  0  0  0  0
 22 23  1  0  0  0  0
 23 21  2  0  0  0  0
 23 31  1  0  0  0  0
 24 25  1  0  0  0  0
 26 30  1  0  0  0  0
 27 31  1  0  0  0  0
 27 29  2  0  0  0  0
 28 24  2  0  0  0  0
 29 28  1  0  0  0  0
 30 24  1  0  0  0  0
 31 26  2  0  0  0  0
M  END
>  <MODEL>
2

>  <REMARK>
 VINA RESULT:      -7.8      3.056      6.878
  Name = 
  2 active torsions:
  status: ('A' for Active; 'I' for Inactive)
    1  A    between atoms: C_19  and  N_26
    2  A    between atoms: C_27  and  C_31
                            x       y       z     vdW  Elec       q    Type
                         _______ _______ _______ _____ _____    ______ ____

>  <TORSDO>
F 2

$$$$
=
 OpenBabel11032419313D

 31 34  0  0  1  0  0  0  0  0999 V2000
  183.6670  177.5390  140.7630 C   0  0  0  0  0  2  0  0  0  0  0  0
  181.4930  178.4230  141.6320 C   0  0  0  0  0  0  0  0  0  0  0  0
  178.9320  179.7930  144.7560 C   0  0  0  0  0  1  0  0  0  0  0  0
  183.5120  176.8470  137.7520 N   0  0  0  0  0  2  0  0  0  0  0  0
  181.5710  177.5870  139.2920 C   0  0  0  0  0  0  0  0  0  0  0  0
  185.5570  177.8510  137.3230 O   0  0  0  0  0  0  0  0  0  0  0  0
  181.4990  175.7150  137.8640 O   0  0  0  0  0  0  0  0  0  0  0  0
  179.3080  179.2680  142.3540 C   0  0  0  0  0  2  0  0  0  0  0  0
  181.1760  179.0480  143.9810 C   0  0  0  0  0  3  0  0  0  0  0  0
  182.2110  177.8680  140.6170 C   0  0  1  0  0  3  0  0  0  0  0  0
  184.9110  180.1960  138.4470 O   0  0  0  0  0  1  0  0  0  0  0  0
  180.0840  178.8260  141.3650 C   0  0  0  0  0  0  0  0  0  0  0  0
  182.0160  178.6200  143.0290 C   0  0  0  0  0  0  0  0  0  0  0  0
  184.4490  177.9200  137.9200 C   0  0  0  0  0  0  0  0  0  0  0  0
  179.5570  178.8910  139.9690 C   0  0  0  0  0  2  0  0  0  0  0  0
  182.1880  176.6790  138.2910 C   0  0  0  0  0  0  0  0  0  0  0  0
  184.1770  179.0730  138.8340 C   0  0  1  0  0  3  0  0  0  0  0  0
  179.8070  179.3420  143.6910 N   0  0  0  0  0  0  0  0  0  0  0  0
  184.5230  178.7030  140.2710 C   0  0  0  0  0  2  0  0  0  0  0  0
  180.3250  178.0040  139.0420 C   0  0  0  0  0  3  0  0  0  0  0  0
  183.5220  179.3260  145.4800 O   0  0  0  0  0  0  0  0  0  0  0  0
  183.3880  178.3410  143.3560 N   0  0  0  0  0  2  0  0  0  0  0  0
  184.1020  178.6960  144.5510 C   0  0  0  0  0  0  0  0  0  0  0  0
  188.5350  177.5980  145.5240 C   0  0  0  0  0  0  0  0  0  0  0  0
  189.7470  177.3530  146.2260 N   0  0  0  0  0  1  0  0  0  0  0  0
  186.0560  178.3230  145.9120 C   0  0  0  0  0  3  0  0  0  0  0  0
  186.2430  177.9710  143.4550 C   0  0  0  0  0  3  0  0  0  0  0  0
  188.5340  177.4400  144.2360 N   0  0  0  0  0  0  0  0  0  0  0  0
  187.5040  177.6010  143.2600 C   0  0  0  0  0  3  0  0  0  0  0  0
  187.3950  178.0010  146.2840 N   0  0  0  0  0  2  0  0  0  0  0  0
  185.5260  178.3200  144.6890 C   0  0  0  0  0  0  0  0  0  0  0  0
  2 13  1  0  0  0  0
  4 14  1  0  0  0  0
  4 16  1  0  0  0  0
  5 10  1  0  0  0  0
  6 14  2  0  0  0  0
  7 16  2  0  0  0  0
  8 18  1  0  0  0  0
 10  1  1  6  0  0  0
 10  2  1  0  0  0  0
 12  2  2  0  0  0  0
 12  8  1  0  0  0  0
 13 22  1  0  0  0  0
 13  9  2  0  0  0  0
 14 17  1  0  0  0  0
 15 12  1  0  0  0  0
 16  5  1  0  0  0  0
 17 11  1  6  0  0  0
 17 19  1  0  0  0  0
 18  9  1  0  0  0  0
 18  3  1  0  0  0  0
 19  1  1  0  0  0  0
 20  5  2  0  0  0  0
 20 15  1  0  0  0  0
 22 23  1  0  0  0  0
 23 31  1  0  0  0  0
 23 21  2  0  0  0  0
 24 25  1  0  0  0  0
 24 30  1  0  0  0  0
 26 30  1  0  0  0  0
 27 31  1  0  0  0  0
 28 24  2  0  0  0  0
 29 27  2  0  0  0  0
 29 28  1  0  0  0  0
 31 26  2  0  0  0  0
M  END
>  <MODEL>
3

>  <REMARK>
 VINA RESULT:      -7.8      3.091      4.624
  Name = 
  2 active torsions:
  status: ('A' for Active; 'I' for Inactive)
    1  A    between atoms: C_19  and  N_26
    2  A    between atoms: C_27  and  C_31
                            x       y       z     vdW  Elec       q    Type
                         _______ _______ _______ _____ _____    ______ ____

>  <TORSDO>
F 2

$$$$
=
 OpenBabel11032419313D

 31 34  0  0  1  0  0  0  0  0999 V2000
  186.8060  177.8710  137.6850 C   0  0  0  0  0  2  0  0  0  0  0  0
  188.5880  177.6630  139.4290 C   0  0  0  0  0  0  0  0  0  0  0  0
  190.1570  178.2960  143.3450 C   0  0  0  0  0  1  0  0  0  0  0  0
  187.7440  176.8000  134.9400 N   0  0  0  0  0  2  0  0  0  0  0  0
  189.1630  177.0750  137.0830 C   0  0  0  0  0  0  0  0  0  0  0  0
  185.7460  175.6750  134.5940 O   0  0  0  0  0  0  0  0  0  0  0  0
  189.8010  177.8560  134.9550 O   0  0  0  0  0  0  0  0  0  0  0  0
  190.4210  177.4060  141.0370 C   0  0  0  0  0  2  0  0  0  0  0  0
  188.2670  178.4380  141.7320 C   0  0  0  0  0  3  0  0  0  0  0  0
  188.2020  177.5520  138.1280 C   0  0  1  0  0  3  0  0  0  0  0  0
  185.8130  174.3490  136.9210 O   0  0  0  0  0  1  0  0  0  0  0  0
  189.9590  177.2130  139.8020 C   0  0  0  0  0  0  0  0  0  0  0  0
  187.7330  178.2530  140.5170 C   0  0  0  0  0  0  0  0  0  0  0  0
  186.6670  175.9720  135.4020 C   0  0  0  0  0  0  0  0  0  0  0  0
  190.7840  176.4050  138.8550 C   0  0  0  0  0  2  0  0  0  0  0  0
  188.9160  177.2680  135.6320 C   0  0  0  0  0  0  0  0  0  0  0  0
  186.5710  175.5180  136.8240 C   0  0  1  0  0  3  0  0  0  0  0  0
  189.6190  178.0670  142.0180 N   0  0  0  0  0  0  0  0  0  0  0  0
  185.9490  176.6080  137.6880 C   0  0  0  0  0  2  0  0  0  0  0  0
  190.3710  176.6190  137.4340 C   0  0  0  0  0  3  0  0  0  0  0  0
  185.3600  177.8960  142.2540 O   0  0  0  0  0  0  0  0  0  0  0  0
  186.3690  178.6320  140.2680 N   0  0  0  0  0  2  0  0  0  0  0  0
  185.2300  178.4470  141.1240 C   0  0  0  0  0  0  0  0  0  0  0  0
  180.8270  179.6680  140.1630 C   0  0  0  0  0  0  0  0  0  0  0  0
  179.4190  179.8450  140.2570 N   0  0  0  0  0  1  0  0  0  0  0  0
  182.8530  178.6540  141.4630 C   0  0  0  0  0  3  0  0  0  0  0  0
  183.8360  179.6010  139.3820 C   0  0  0  0  0  3  0  0  0  0  0  0
  181.4300  180.1300  139.1120 N   0  0  0  0  0  0  0  0  0  0  0  0
  182.8050  180.1170  138.7230 C   0  0  0  0  0  3  0  0  0  0  0  0
  181.4870  178.9950  141.2360 N   0  0  0  0  0  2  0  0  0  0  0  0
  183.8970  178.9040  140.6730 C   0  0  0  0  0  0  0  0  0  0  0  0
  1 19  1  0  0  0  0
  2 12  2  0  0  0  0
  2 13  1  0  0  0  0
  4 14  1  0  0  0  0
  4 16  1  0  0  0  0
  5 20  2  0  0  0  0
  5 10  1  0  0  0  0
  6 14  2  0  0  0  0
  7 16  2  0  0  0  0
  8 18  1  0  0  0  0
  9 18  1  0  0  0  0
 10  1  1  1  0  0  0
 10  2  1  0  0  0  0
 12  8  1  0  0  0  0
 13  9  2  0  0  0  0
 14 17  1  0  0  0  0
 15 12  1  0  0  0  0
 16  5  1  0  0  0  0
 17 11  1  6  0  0  0
 17 19  1  0  0  0  0
 18  3  1  0  0  0  0
 20 15  1  0  0  0  0
 22 13  1  0  0  0  0
 22 23  1  0  0  0  0
 23 21  2  0  0  0  0
 24 25  1  0  0  0  0
 24 30  1  0  0  0  0
 27 31  1  0  0  0  0
 28 24  2  0  0  0  0
 29 28  1  0  0  0  0
 29 27  2  0  0  0  0
 30 26  1  0  0  0  0
 31 23  1  0  0  0  0
 31 26  2  0  0  0  0
M  END
>  <MODEL>
4

>  <REMARK>
 VINA RESULT:      -7.4      2.982      7.272
  Name = 
  2 active torsions:
  status: ('A' for Active; 'I' for Inactive)
    1  A    between atoms: C_19  and  N_26
    2  A    between atoms: C_27  and  C_31
                            x       y       z     vdW  Elec       q    Type
                         _______ _______ _______ _____ _____    ______ ____

>  <TORSDO>
F 2

$$$$
=
 OpenBabel11032419313D

 31 34  0  0  1  0  0  0  0  0999 V2000
  182.0450  179.4280  140.8060 C   0  0  0  0  0  2  0  0  0  0  0  0
  182.3130  178.4540  138.5170 C   0  0  0  0  0  0  0  0  0  0  0  0
  184.4150  176.1840  135.5810 C   0  0  0  0  0  1  0  0  0  0  0  0
  179.5570  181.2540  141.0030 N   0  0  0  0  0  2  0  0  0  0  0  0
  180.5130  180.1310  138.8800 C   0  0  0  0  0  0  0  0  0  0  0  0
  178.9310  180.3350  143.0380 O   0  0  0  0  0  0  0  0  0  0  0  0
  179.9470  182.4120  139.0410 O   0  0  0  0  0  0  0  0  0  0  0  0
  182.4590  177.5760  136.2330 C   0  0  0  0  0  2  0  0  0  0  0  0
  184.1840  176.9870  137.9250 C   0  0  0  0  0  3  0  0  0  0  0  0
  181.6640  179.3020  139.3620 C   0  0  1  0  0  3  0  0  0  0  0  0
  178.9730  177.7980  142.1750 O   0  0  0  0  0  1  0  0  0  0  0  0
  181.7940  178.3050  137.1280 C   0  0  0  0  0  0  0  0  0  0  0  0
  183.5530  177.6840  138.8790 C   0  0  0  0  0  0  0  0  0  0  0  0
  179.3590  180.1280  141.8700 C   0  0  0  0  0  0  0  0  0  0  0  0
  180.4490  178.8350  136.7510 C   0  0  0  0  0  2  0  0  0  0  0  0
  180.0090  181.3050  139.6380 C   0  0  0  0  0  0  0  0  0  0  0  0
  179.7140  178.7360  141.4540 C   0  0  1  0  0  3  0  0  0  0  0  0
  183.6920  176.9440  136.5830 N   0  0  0  0  0  0  0  0  0  0  0  0
  181.2020  178.4840  141.6590 C   0  0  0  0  0  2  0  0  0  0  0  0
  180.0180  179.9490  137.6510 C   0  0  0  0  0  3  0  0  0  0  0  0
  185.6230  179.4530  140.0450 O   0  0  0  0  0  0  0  0  0  0  0  0
  184.0730  177.7000  140.2190 N   0  0  0  0  0  2  0  0  0  0  0  0
  185.0830  178.5660  140.7650 C   0  0  0  0  0  0  0  0  0  0  0  0
  186.8470  177.9040  145.0370 C   0  0  0  0  0  0  0  0  0  0  0  0
  187.7330  177.5820  146.1020 N   0  0  0  0  0  1  0  0  0  0  0  0
  186.7230  177.9780  142.4290 C   0  0  0  0  0  3  0  0  0  0  0  0
  184.4870  178.7530  143.1980 C   0  0  0  0  0  3  0  0  0  0  0  0
  185.6550  178.3190  145.3400 N   0  0  0  0  0  0  0  0  0  0  0  0
  184.5520  178.7160  144.5240 C   0  0  0  0  0  3  0  0  0  0  0  0
  187.3280  177.7520  143.7010 N   0  0  0  0  0  2  0  0  0  0  0  0
  185.4880  178.4110  142.1790 C   0  0  0  0  0  0  0  0  0  0  0  0
  1 19  1  0  0  0  0
  2 13  1  0  0  0  0
  2 10  1  0  0  0  0
  3 18  1  0  0  0  0
  4 14  1  0  0  0  0
  5 10  1  0  0  0  0
  5 16  1  0  0  0  0
  7 16  2  0  0  0  0
  8 18  1  0  0  0  0
  8 12  1  0  0  0  0
  9 13  2  0  0  0  0
 10  1  1  1  0  0  0
 12  2  2  0  0  0  0
 13 22  1  0  0  0  0
 14  6  2  0  0  0  0
 15 12  1  0  0  0  0
 15 20  1  0  0  0  0
 16  4  1  0  0  0  0
 17 19  1  0  0  0  0
 17 14  1  0  0  0  0
 17 11  1  1  0  0  0
 18  9  1  0  0  0  0
 20  5  2  0  0  0  0
 21 23  2  0  0  0  0
 22 23  1  0  0  0  0
 23 31  1  0  0  0  0
 24 28  2  0  0  0  0
 24 25  1  0  0  0  0
 26 30  1  0  0  0  0
 27 29  2  0  0  0  0
 29 28  1  0  0  0  0
 30 24  1  0  0  0  0
 31 26  2  0  0  0  0
 31 27  1  0  0  0  0
M  END
>  <MODEL>
5

>  <REMARK>
 VINA RESULT:      -7.4      3.112      6.107
  Name = 
  2 active torsions:
  status: ('A' for Active; 'I' for Inactive)
    1  A    between atoms: C_19  and  N_26
    2  A    between atoms: C_27  and  C_31
                            x       y       z     vdW  Elec       q    Type
                         _______ _______ _______ _____ _____    ______ ____

>  <TORSDO>
F 2

$$$$
=
 OpenBabel11032419313D

 31 34  0  0  1  0  0  0  0  0999 V2000
  190.6890  175.8990  139.6550 C   0  0  0  0  0  2  0  0  0  0  0  0
  188.6850  177.0350  138.6770 C   0  0  0  0  0  0  0  0  0  0  0  0
  185.0540  179.2520  138.9830 C   0  0  0  0  0  1  0  0  0  0  0  0
  192.3520  174.4300  137.5010 N   0  0  0  0  0  2  0  0  0  0  0  0
  190.0680  175.6010  137.1900 C   0  0  0  0  0  0  0  0  0  0  0  0
  194.3490  175.2340  138.3650 O   0  0  0  0  0  0  0  0  0  0  0  0
  190.5570  173.4180  136.4540 O   0  0  0  0  0  0  0  0  0  0  0  0
  186.7600  178.0940  137.5910 C   0  0  0  0  0  2  0  0  0  0  0  0
  187.0780  178.2740  140.0510 C   0  0  0  0  0  3  0  0  0  0  0  0
  189.7580  176.2120  138.5220 C   0  0  1  0  0  3  0  0  0  0  0  0
  193.6090  177.8090  138.3150 O   0  0  0  0  0  1  0  0  0  0  0  0
  187.8820  177.3850  137.4720 C   0  0  0  0  0  0  0  0  0  0  0  0
  188.2260  177.5860  139.9990 C   0  0  0  0  0  0  0  0  0  0  0  0
  193.1550  175.4870  138.0470 C   0  0  0  0  0  0  0  0  0  0  0  0
  188.3890  177.0860  136.0990 C   0  0  0  0  0  2  0  0  0  0  0  0
  190.9880  174.4450  137.0430 C   0  0  0  0  0  0  0  0  0  0  0  0
  192.5960  176.8480  138.3150 C   0  0  1  0  0  3  0  0  0  0  0  0
  186.2970  178.5110  138.8760 N   0  0  0  0  0  0  0  0  0  0  0  0
  191.8680  176.8690  139.6530 C   0  0  0  0  0  2  0  0  0  0  0  0
  189.3780  175.9650  136.1030 C   0  0  0  0  0  3  0  0  0  0  0  0
  187.2540  177.1170  142.7570 O   0  0  0  0  0  0  0  0  0  0  0  0
  188.9890  177.3720  141.1990 N   0  0  0  0  0  2  0  0  0  0  0  0
  188.4970  177.1500  142.5310 C   0  0  0  0  0  0  0  0  0  0  0  0
  191.1750  176.8360  146.3430 C   0  0  0  0  0  0  0  0  0  0  0  0
  191.6570  176.9690  147.6740 N   0  0  0  0  0  1  0  0  0  0  0  0
  189.1440  177.4740  144.8300 C   0  0  0  0  0  3  0  0  0  0  0  0
  190.6840  176.2130  143.3360 C   0  0  0  0  0  3  0  0  0  0  0  0
  191.9100  176.1920  145.4900 N   0  0  0  0  0  0  0  0  0  0  0  0
  191.7150  175.8880  144.1070 C   0  0  0  0  0  3  0  0  0  0  0  0
  189.9080  177.4180  146.0330 N   0  0  0  0  0  2  0  0  0  0  0  0
  189.4560  176.9600  143.6410 C   0  0  0  0  0  0  0  0  0  0  0  0
  2 13  1  0  0  0  0
  4 14  1  0  0  0  0
  5 10  1  0  0  0  0
  7 16  2  0  0  0  0
  8 18  1  0  0  0  0
 10  2  1  0  0  0  0
 10  1  1  6  0  0  0
 12  8  1  0  0  0  0
 12  2  2  0  0  0  0
 13  9  2  0  0  0  0
 13 22  1  0  0  0  0
 14 17  1  0  0  0  0
 14  6  2  0  0  0  0
 15 20  1  0  0  0  0
 15 12  1  0  0  0  0
 16  5  1  0  0  0  0
 16  4  1  0  0  0  0
 17 11  1  1  0  0  0
 17 19  1  0  0  0  0
 18  3  1  0  0  0  0
 18  9  1  0  0  0  0
 19  1  1  0  0  0  0
 20  5  2  0  0  0  0
 22 23  1  0  0  0  0
 23 21  2  0  0  0  0
 23 31  1  0  0  0  0
 24 25  1  0  0  0  0
 26 30  1  0  0  0  0
 27 31  1  0  0  0  0
 27 29  2  0  0  0  0
 28 24  2  0  0  0  0
 29 28  1  0  0  0  0
 30 24  1  0  0  0  0
 31 26  2  0  0  0  0
M  END
>  <MODEL>
6

>  <REMARK>
 VINA RESULT:      -7.2      3.981      8.156
  Name = 
  2 active torsions:
  status: ('A' for Active; 'I' for Inactive)
    1  A    between atoms: C_19  and  N_26
    2  A    between atoms: C_27  and  C_31
                            x       y       z     vdW  Elec       q    Type
                         _______ _______ _______ _____ _____    ______ ____

>  <TORSDO>
F 2

$$$$
=
 OpenBabel11032419313D

 31 34  0  0  1  0  0  0  0  0999 V2000
  191.0520  175.3830  138.6850 C   0  0  0  0  0  2  0  0  0  0  0  0
  189.2040  176.0910  137.1520 C   0  0  0  0  0  0  0  0  0  0  0  0
  185.3770  177.8000  136.3590 C   0  0  0  0  0  1  0  0  0  0  0  0
  193.3000  173.8920  137.1740 N   0  0  0  0  0  2  0  0  0  0  0  0
  191.0290  174.6810  136.2230 C   0  0  0  0  0  0  0  0  0  0  0  0
  194.9560  175.0720  138.2870 O   0  0  0  0  0  0  0  0  0  0  0  0
  191.9020  172.5100  135.9560 O   0  0  0  0  0  0  0  0  0  0  0  0
  187.4640  176.7190  135.5440 C   0  0  0  0  0  2  0  0  0  0  0  0
  187.2070  177.2620  137.9580 C   0  0  0  0  0  3  0  0  0  0  0  0
  190.3670  175.4120  137.3510 C   0  0  1  0  0  3  0  0  0  0  0  0
  193.9720  177.4900  137.6820 O   0  0  0  0  0  1  0  0  0  0  0  0
  188.6540  176.1650  135.7700 C   0  0  0  0  0  0  0  0  0  0  0  0
  188.4060  176.7410  138.2500 C   0  0  0  0  0  0  0  0  0  0  0  0
  193.8430  175.1120  137.6980 C   0  0  0  0  0  0  0  0  0  0  0  0
  189.4830  175.7620  134.5940 C   0  0  0  0  0  2  0  0  0  0  0  0
  192.0780  173.6550  136.4510 C   0  0  0  0  0  0  0  0  0  0  0  0
  193.0940  176.4060  137.6280 C   0  0  1  0  0  3  0  0  0  0  0  0
  186.6850  177.2320  136.6260 N   0  0  0  0  0  0  0  0  0  0  0  0
  192.0900  176.4990  138.7700 C   0  0  0  0  0  2  0  0  0  0  0  0
  190.5620  174.8000  134.9750 C   0  0  0  0  0  3  0  0  0  0  0  0
  188.2140  178.9510  140.2130 O   0  0  0  0  0  0  0  0  0  0  0  0
  188.9020  176.7940  139.5980 N   0  0  0  0  0  2  0  0  0  0  0  0
  188.8020  177.8790  140.5350 C   0  0  0  0  0  0  0  0  0  0  0  0
  190.1610  177.5050  144.9860 C   0  0  0  0  0  0  0  0  0  0  0  0
  190.1470  177.4560  146.4070 N   0  0  0  0  0  1  0  0  0  0  0  0
  188.5770  177.8230  142.9340 C   0  0  0  0  0  3  0  0  0  0  0  0
  190.8420  177.5080  141.9520 C   0  0  0  0  0  3  0  0  0  0  0  0
  191.2990  177.3500  144.3820 N   0  0  0  0  0  0  0  0  0  0  0  0
  191.6460  177.3450  142.9970 C   0  0  0  0  0  3  0  0  0  0  0  0
  188.9190  177.7190  144.3140 N   0  0  0  0  0  2  0  0  0  0  0  0
  189.3930  177.7360  141.8840 C   0  0  0  0  0  0  0  0  0  0  0  0
  1 19  1  0  0  0  0
  2 10  1  0  0  0  0
  2 13  1  0  0  0  0
  3 18  1  0  0  0  0
  4 14  1  0  0  0  0
  5 16  1  0  0  0  0
  5 10  1  0  0  0  0
  7 16  2  0  0  0  0
  8 12  1  0  0  0  0
  8 18  1  0  0  0  0
  9 13  2  0  0  0  0
 10  1  1  6  0  0  0
 12  2  2  0  0  0  0
 13 22  1  0  0  0  0
 14  6  2  0  0  0  0
 15 20  1  0  0  0  0
 15 12  1  0  0  0  0
 16  4  1  0  0  0  0
 17 11  1  1  0  0  0
 17 14  1  0  0  0  0
 17 19  1  0  0  0  0
 18  9  1  0  0  0  0
 20  5  2  0  0  0  0
 21 23  2  0  0  0  0
 22 23  1  0  0  0  0
 23 31  1  0  0  0  0
 24 25  1  0  0  0  0
 26 30  1  0  0  0  0
 27 29  2  0  0  0  0
 28 24  2  0  0  0  0
 29 28  1  0  0  0  0
 30 24  1  0  0  0  0
 31 27  1  0  0  0  0
 31 26  2  0  0  0  0
M  END
>  <MODEL>
7

>  <REMARK>
 VINA RESULT:      -6.9      4.511      9.005
  Name = 
  2 active torsions:
  status: ('A' for Active; 'I' for Inactive)
    1  A    between atoms: C_19  and  N_26
    2  A    between atoms: C_27  and  C_31
                            x       y       z     vdW  Elec       q    Type
                         _______ _______ _______ _____ _____    ______ ____

>  <TORSDO>
F 2

$$$$
=
 OpenBabel11032419313D

 31 34  0  0  1  0  0  0  0  0999 V2000
  188.8480  177.9250  142.1890 C   0  0  0  0  0  2  0  0  0  0  0  0
  186.8740  178.1720  143.7080 C   0  0  0  0  0  0  0  0  0  0  0  0
  182.7060  178.6790  144.4610 C   0  0  0  0  0  1  0  0  0  0  0  0
  191.5130  177.8720  143.7570 N   0  0  0  0  0  2  0  0  0  0  0  0
  189.1490  178.3220  144.7000 C   0  0  0  0  0  0  0  0  0  0  0  0
  192.3190  176.0940  142.5050 O   0  0  0  0  0  0  0  0  0  0  0  0
  191.0300  179.6740  145.1210 O   0  0  0  0  0  0  0  0  0  0  0  0
  185.0320  178.4230  145.3060 C   0  0  0  0  0  2  0  0  0  0  0  0
  184.5770  178.3030  142.8630 C   0  0  0  0  0  3  0  0  0  0  0  0
  188.2240  178.1490  143.5340 C   0  0  1  0  0  3  0  0  0  0  0  0
  190.1950  174.5190  142.9340 O   0  0  0  0  0  1  0  0  0  0  0  0
  186.3400  178.2830  145.0940 C   0  0  0  0  0  0  0  0  0  0  0  0
  185.8760  178.1360  142.5830 C   0  0  0  0  0  0  0  0  0  0  0  0
  191.3410  176.5990  143.1190 C   0  0  0  0  0  0  0  0  0  0  0  0
  187.2320  178.0860  146.2760 C   0  0  0  0  0  2  0  0  0  0  0  0
  190.5860  178.6550  144.5300 C   0  0  0  0  0  0  0  0  0  0  0  0
  190.0210  175.8940  143.1020 C   0  0  1  0  0  3  0  0  0  0  0  0
  184.1220  178.4920  144.2060 N   0  0  0  0  0  0  0  0  0  0  0  0
  189.1420  176.4410  141.9840 C   0  0  0  0  0  2  0  0  0  0  0  0
  188.6630  178.3620  145.9460 C   0  0  0  0  0  3  0  0  0  0  0  0
  185.0100  179.5860  140.1490 O   0  0  0  0  0  0  0  0  0  0  0  0
  186.2970  177.9440  141.2210 N   0  0  0  0  0  2  0  0  0  0  0  0
  185.8610  178.6570  140.0520 C   0  0  0  0  0  0  0  0  0  0  0  0
  188.0990  177.6360  136.0830 C   0  0  0  0  0  0  0  0  0  0  0  0
  189.1260  177.4390  135.1190 N   0  0  0  0  0  1  0  0  0  0  0  0
  187.7340  178.3760  138.5620 C   0  0  0  0  0  3  0  0  0  0  0  0
  185.4530  177.8710  137.7010 C   0  0  0  0  0  3  0  0  0  0  0  0
  186.8750  177.3980  135.7270 N   0  0  0  0  0  0  0  0  0  0  0  0
  185.6410  177.4940  136.4410 C   0  0  0  0  0  3  0  0  0  0  0  0
  188.4840  178.0820  137.3850 N   0  0  0  0  0  2  0  0  0  0  0  0
  186.4140  178.2940  138.7280 C   0  0  0  0  0  0  0  0  0  0  0  0
  2 12  2  0  0  0  0
  4 16  1  0  0  0  0
  5 20  2  0  0  0  0
  6 14  2  0  0  0  0
  9 18  1  0  0  0  0
 10  1  1  1  0  0  0
 10  2  1  0  0  0  0
 10  5  1  0  0  0  0
 12  8  1  0  0  0  0
 12 15  1  0  0  0  0
 13  9  2  0  0  0  0
 13  2  1  0  0  0  0
 14  4  1  0  0  0  0
 16  5  1  0  0  0  0
 16  7  2  0  0  0  0
 17 11  1  6  0  0  0
 17 14  1  0  0  0  0
 18  3  1  0  0  0  0
 18  8  1  0  0  0  0
 19  1  1  0  0  0  0
 19 17  1  0  0  0  0
 20 15  1  0  0  0  0
 22 13  1  0  0  0  0
 23 21  2  0  0  0  0
 23 22  1  0  0  0  0
 24 30  1  0  0  0  0
 25 24  1  0  0  0  0
 26 31  2  0  0  0  0
 27 31  1  0  0  0  0
 28 24  2  0  0  0  0
 28 29  1  0  0  0  0
 29 27  2  0  0  0  0
 30 26  1  0  0  0  0
 31 23  1  0  0  0  0
M  END
>  <MODEL>
8

>  <REMARK>
 VINA RESULT:      -6.8      2.626      6.305
  Name = 
  2 active torsions:
  status: ('A' for Active; 'I' for Inactive)
    1  A    between atoms: C_19  and  N_26
    2  A    between atoms: C_27  and  C_31
                            x       y       z     vdW  Elec       q    Type
                         _______ _______ _______ _____ _____    ______ ____

>  <TORSDO>
F 2

$$$$
=
 OpenBabel11032419313D

 31 34  0  0  1  0  0  0  0  0999 V2000
  190.2680  177.4840  141.9550 C   0  0  0  0  0  2  0  0  0  0  0  0
  187.8390  178.0510  141.7510 C   0  0  0  0  0  0  0  0  0  0  0  0
  184.3710  179.1370  139.5180 C   0  0  0  0  0  1  0  0  0  0  0  0
  191.1310  177.1390  144.9050 N   0  0  0  0  0  2  0  0  0  0  0  0
  188.8330  177.9360  144.0270 C   0  0  0  0  0  0  0  0  0  0  0  0
  192.3420  175.2220  144.4210 O   0  0  0  0  0  0  0  0  0  0  0  0
  190.0800  179.0410  145.6920 O   0  0  0  0  0  0  0  0  0  0  0  0
  185.4520  178.6070  141.6950 C   0  0  0  0  0  2  0  0  0  0  0  0
  186.7620  178.4540  139.5860 C   0  0  0  0  0  3  0  0  0  0  0  0
  188.9320  177.8420  142.5350 C   0  0  1  0  0  3  0  0  0  0  0  0
  190.3150  173.9610  143.2030 O   0  0  0  0  0  1  0  0  0  0  0  0
  186.5260  178.2860  142.4150 C   0  0  0  0  0  0  0  0  0  0  0  0
  187.8740  178.1040  140.2480 C   0  0  0  0  0  0  0  0  0  0  0  0
  191.2790  175.8750  144.2410 C   0  0  0  0  0  0  0  0  0  0  0  0
  186.3460  178.0200  143.8740 C   0  0  0  0  0  2  0  0  0  0  0  0
  190.0320  178.0680  144.8940 C   0  0  0  0  0  0  0  0  0  0  0  0
  190.2470  175.3530  143.2930 C   0  0  1  0  0  3  0  0  0  0  0  0
  185.5460  178.7530  140.2760 N   0  0  0  0  0  0  0  0  0  0  0  0
  190.4350  175.9670  141.9120 C   0  0  0  0  0  2  0  0  0  0  0  0
  187.6420  178.0900  144.6160 C   0  0  0  0  0  3  0  0  0  0  0  0
  188.2810  176.1520  138.0580 O   0  0  0  0  0  0  0  0  0  0  0  0
  189.0770  177.8040  139.5210 N   0  0  0  0  0  2  0  0  0  0  0  0
  189.2550  176.8480  138.4620 C   0  0  0  0  0  0  0  0  0  0  0  0
  193.2030  176.2300  136.0470 C   0  0  0  0  0  0  0  0  0  0  0  0
  194.1170  175.9830  134.9860 N   0  0  0  0  0  1  0  0  0  0  0  0
  190.6450  176.4140  136.5420 C   0  0  0  0  0  3  0  0  0  0  0  0
  191.7520  176.8300  138.7320 C   0  0  0  0  0  3  0  0  0  0  0  0
  193.6870  176.4590  137.2280 N   0  0  0  0  0  0  0  0  0  0  0  0
  193.0530  176.7380  138.4770 C   0  0  0  0  0  3  0  0  0  0  0  0
  191.8070  176.2130  135.7410 N   0  0  0  0  0  2  0  0  0  0  0  0
  190.5900  176.6830  137.8460 C   0  0  0  0  0  0  0  0  0  0  0  0
  2 12  2  0  0  0  0
  2 10  1  0  0  0  0
  3 18  1  0  0  0  0
  5 20  2  0  0  0  0
  5 16  1  0  0  0  0
  8 12  1  0  0  0  0
  9 13  2  0  0  0  0
  9 18  1  0  0  0  0
 10  1  1  1  0  0  0
 10  5  1  0  0  0  0
 12 15  1  0  0  0  0
 13  2  1  0  0  0  0
 14  6  2  0  0  0  0
 14  4  1  0  0  0  0
 15 20  1  0  0  0  0
 16  4  1  0  0  0  0
 16  7  2  0  0  0  0
 17 11  1  6  0  0  0
 17 14  1  0  0  0  0
 18  8  1  0  0  0  0
 19  1  1  0  0  0  0
 19 17  1  0  0  0  0
 21 23  2  0  0  0  0
 22 13  1  0  0  0  0
 23 22  1  0  0  0  0
 24 28  2  0  0  0  0
 25 24  1  0  0  0  0
 26 31  2  0  0  0  0
 28 29  1  0  0  0  0
 29 27  2  0  0  0  0
 30 24  1  0  0  0  0
 30 26  1  0  0  0  0
 31 23  1  0  0  0  0
 31 27  1  0  0  0  0
M  END
>  <MODEL>
9

>  <REMARK>
 VINA RESULT:      -6.8      3.367      6.846
  Name = 
  2 active torsions:
  status: ('A' for Active; 'I' for Inactive)
    1  A    between atoms: C_19  and  N_26
    2  A    between atoms: C_27  and  C_31
                            x       y       z     vdW  Elec       q    Type
                         _______ _______ _______ _____ _____    ______ ____

>  <TORSDO>
F 2

$$$$
