=
 OpenBabel11042411143D

 54 56  0  0  1  0  0  0  0  0999 V2000
  189.9600  177.3370  138.5000 C   0  0  0  0  0  3  0  0  0  0  0  0
  187.3620  177.9760  142.1290 N   0  0  0  0  0  0  0  0  0  0  0  0
  188.7340  177.8380  138.6220 C   0  0  0  0  0  0  0  0  0  0  0  0
  187.5200  177.8400  143.4710 C   0  0  0  0  0  0  0  0  0  0  0  0
  190.6750  176.7010  140.8260 C   0  0  0  0  0  3  0  0  0  0  0  0
  189.7470  177.0050  143.0790 C   0  0  0  0  0  0  0  0  0  0  0  0
  188.0050  177.9090  139.8510 N   0  0  0  0  0  2  0  0  0  0  0  0
  188.3290  177.6620  141.2230 C   0  0  0  0  0  0  0  0  0  0  0  0
  188.7300  177.3540  143.9620 C   0  0  0  0  0  3  0  0  0  0  0  0
  189.5650  177.1470  141.6840 C   0  0  0  0  0  0  0  0  0  0  0  0
  190.8430  176.7740  139.5150 C   0  0  0  0  0  3  0  0  0  0  0  0
  188.1800  179.5760  137.1190 O   0  0  0  0  0  0  0  0  0  0  0  0
  188.0740  178.3540  137.4110 C   0  0  0  0  0  0  0  0  0  0  0  0
  187.3190  177.4800  136.5650 N   0  0  0  0  0  2  0  0  0  0  0  0
  186.7660  177.9040  135.2860 C   0  0  0  0  0  2  0  0  0  0  0  0
  185.6980  176.9280  134.8210 C   0  0  0  0  0  2  0  0  0  0  0  0
  186.4100  175.2630  134.6480 S   0  0  0  0  0  0  0  0  0  0  0  0
  185.5830  173.8340  136.7510 N   0  0  0  0  0  2  0  0  0  0  0  0
  183.8080  174.6530  135.4160 N   0  0  0  0  0  2  0  0  0  0  0  0
  185.1960  174.5360  135.7370 C   0  0  0  0  0  0  0  0  0  0  0  0
  182.1190  173.1160  136.3870 C   0  0  0  0  0  0  0  0  0  0  0  0
  182.5930  172.0480  135.6340 O   0  0  0  0  0  0  0  0  0  0  0  0
  181.1260  172.9440  137.1420 O   0  0  0  0  0  1  0  0  0  0  0  0
  182.7710  174.3960  136.3300 N   0  0  0  0  0  0  0  0  0  0  0  0
  182.4620  175.4220  137.3180 C   0  0  0  0  0  2  0  0  0  0  0  0
  180.2160  176.2100  137.3430 O   0  0  0  0  0  1  0  0  0  0  0  0
  181.4630  176.4140  136.7510 C   0  0  1  0  0  3  0  0  0  0  0  0
  181.9230  177.8420  137.0090 C   0  0  0  0  0  2  0  0  0  0  0  0
  181.8160  178.1910  138.4910 C   0  0  0  0  0  2  0  0  0  0  0  0
  183.4570  179.9120  138.9730 C   0  0  0  0  0  0  0  0  0  0  0  0
  184.6450  180.1980  139.1650 O   0  0  0  0  0  0  0  0  0  0  0  0
  182.2030  179.6120  138.7680 C   0  0  0  0  0  0  0  0  0  0  0  0
  181.1990  180.7200  138.7100 C   0  0  0  0  0  2  0  0  0  0  0  0
  181.7980  181.9280  138.3450 O   0  0  0  0  0  1  0  0  0  0  0  0
  186.4230  178.2130  144.3960 C   0  0  0  0  0  0  0  0  0  0  0  0
  186.6790  178.2380  145.7160 C   0  0  0  0  0  3  0  0  0  0  0  0
  182.6120  179.2650  142.7420 C   0  0  0  0  0  0  0  0  0  0  0  0
  185.0970  178.5590  143.8450 C   0  0  0  0  0  0  0  0  0  0  0  0
  184.6480  177.9440  142.6690 C   0  0  0  0  0  3  0  0  0  0  0  0
  183.0660  179.8850  143.9110 C   0  0  0  0  0  3  0  0  0  0  0  0
  184.3040  179.5380  144.4590 C   0  0  0  0  0  3  0  0  0  0  0  0
  183.4100  178.2910  142.1220 C   0  0  0  0  0  3  0  0  0  0  0  0
  181.3400  179.6360  142.2010 N   0  0  0  0  0  2  0  0  0  0  0  0
  180.0900  179.5450  142.9450 C   0  0  0  0  0  2  0  0  0  0  0  0
  179.6910  178.1170  143.1070 C   0  0  0  0  0  0  0  0  0  0  0  0
  179.4170  177.4210  142.0960 O   0  0  0  0  0  0  0  0  0  0  0  0
  179.5970  177.5630  144.3770 O   0  0  0  0  0  1  0  0  0  0  0  0
  185.7300  178.5180  146.8090 C   0  0  0  0  0  0  0  0  0  0  0  0
  184.8130  177.7110  147.1140 O   0  0  0  0  0  0  0  0  0  0  0  0
  185.8710  179.7230  147.5510 N   0  0  0  0  0  1  0  0  0  0  0  0
  191.0360  176.5180  143.6680 C   0  0  0  0  0  2  0  0  0  0  0  0
  191.7780  177.2390  145.8180 O   0  0  0  0  0  1  0  0  0  0  0  0
  191.8720  178.8140  144.1540 O   0  0  0  0  0  0  0  0  0  0  0  0
  191.5940  177.5320  144.6070 C   0  0  0  0  0  0  0  0  0  0  0  0
  1  3  2  0  0  0  0
  1 11  1  0  0  0  0
  2  4  1  0  0  0  0
  3  7  1  0  0  0  0
  4  9  2  0  0  0  0
  4 35  1  0  0  0  0
  5 10  1  0  0  0  0
  6 51  1  0  0  0  0
  6  9  1  0  0  0  0
  7  8  1  0  0  0  0
  8 10  1  0  0  0  0
  8  2  2  0  0  0  0
 10  6  2  0  0  0  0
 11  5  2  0  0  0  0
 12 13  2  0  0  0  0
 13  3  1  0  0  0  0
 14 13  1  0  0  0  0
 15 14  1  0  0  0  0
 16 15  1  0  0  0  0
 17 16  1  0  0  0  0
 17 20  1  0  0  0  0
 19 20  1  0  0  0  0
 19 24  1  0  0  0  0
 20 18  2  0  0  0  0
 21 23  1  0  0  0  0
 22 21  2  0  0  0  0
 24 21  1  0  0  0  0
 24 25  1  0  0  0  0
 27 28  1  0  0  0  0
 27 25  1  0  0  0  0
 27 26  1  1  0  0  0
 28 29  1  0  0  0  0
 29 32  1  0  0  0  0
 30 31  2  0  0  0  0
 32 30  2  0  0  0  0
 33 32  1  0  0  0  0
 34 33  1  0  0  0  0
 35 36  2  0  0  0  0
 36 48  1  0  0  0  0
 37 40  1  0  0  0  0
 38 35  1  0  0  0  0
 38 41  1  0  0  0  0
 39 38  2  0  0  0  0
 40 41  2  0  0  0  0
 42 39  1  0  0  0  0
 42 37  2  0  0  0  0
 43 37  1  0  0  0  0
 43 44  1  0  0  0  0
 44 45  1  0  0  0  0
 45 47  1  0  0  0  0
 46 45  2  0  0  0  0
 48 49  2  0  0  0  0
 48 50  1  0  0  0  0
 51 54  1  0  0  0  0
 53 54  2  0  0  0  0
 54 52  1  0  0  0  0
M  END
>  <MODEL>
1

>  <REMARK>
 VINA RESULT:      -7.6      0.000      0.000
  Name = 
  20 active torsions:
  status: ('A' for Active; 'I' for Inactive)
    1  A    between atoms: C_2  and  C_27
    2  A    between atoms: C_2  and  C_54
    3  A    between atoms: C_4  and  C_48
    4  A    between atoms: C_5  and  C_52
    5  A    between atoms: C_6  and  C_50
    6  A    between atoms: C_8  and  N_13
    7  A    between atoms: C_9  and  C_25
    8  A    between atoms: C_12  and  C_25
    9  A    between atoms: N_13  and  C_52
   10  A    between atoms: C_16  and  C_19
   11  A    between atoms: C_16  and  C_37
   12  A    between atoms: N_17  and  N_51
   13  A    between atoms: C_18  and  C_46
   14  A    between atoms: C_18  and  N_51
   15  A    between atoms: C_19  and  C_46
   16  A    between atoms: S_20  and  C_35
   17  A    between atoms: S_20  and  C_41
   18  A    between atoms: C_26  and  C_37
   19  A    between atoms: C_41  and  C_49
   20  A    between atoms: C_49  and  N_53
                            x       y       z     vdW  Elec       q    Type
                         _______ _______ _______ _____ _____    ______ ____

>  <TORSDO>
F 20

$$$$
=
 OpenBabel11042411143D

 54 56  0  0  1  0  0  0  0  0999 V2000
  185.9550  177.9250  145.9770 C   0  0  0  0  0  2  0  0  0  0  0  0
  187.8780  177.8380  141.9000 N   0  0  0  0  0  0  0  0  0  0  0  0
  185.4820  178.2540  144.7780 C   0  0  0  0  0  0  0  0  0  0  0  0
  189.0640  177.4080  141.3960 C   0  0  0  0  0  0  0  0  0  0  0  0
  188.3360  177.2060  145.6000 C   0  0  0  0  0  3  0  0  0  0  0  0
  189.7460  176.8100  143.6290 C   0  0  0  0  0  0  0  0  0  0  0  0
  186.2490  178.2410  143.5710 N   0  0  0  0  0  0  0  0  0  0  0  0
  187.5590  177.7820  143.2230 C   0  0  0  0  0  0  0  0  0  0  0  0
  190.0140  176.8790  142.2650 C   0  0  0  0  0  3  0  0  0  0  0  0
  188.5080  177.2680  144.1390 C   0  0  0  0  0  0  0  0  0  0  0  0
  187.2880  177.4770  146.3630 C   0  0  0  0  0  3  0  0  0  0  0  0
  183.4860  179.1230  145.7010 O   0  0  0  0  0  0  0  0  0  0  0  0
  184.0710  178.6660  144.6810 C   0  0  0  0  0  0  0  0  0  0  0  0
  183.3640  178.5550  143.4410 N   0  0  0  0  0  2  0  0  0  0  0  0
  182.0170  179.0760  143.2520 C   0  0  0  0  0  2  0  0  0  0  0  0
  181.5700  178.8780  141.8130 C   0  0  0  0  0  2  0  0  0  0  0  0
  182.9650  178.2880  140.8050 S   0  0  0  0  0  0  0  0  0  0  0  0
  180.7730  177.8550  139.3360 N   0  0  0  0  0  2  0  0  0  0  0  0
  182.2560  176.0110  139.3760 N   0  0  0  0  0  2  0  0  0  0  0  0
  181.8990  177.3510  139.7220 C   0  0  0  0  0  0  0  0  0  0  0  0
  180.5240  174.4550  138.5150 C   0  0  0  0  0  0  0  0  0  0  0  0
  179.8690  174.4350  139.7420 O   0  0  0  0  0  1  0  0  0  0  0  0
  180.0840  173.7480  137.5710 O   0  0  0  0  0  0  0  0  0  0  0  0
  181.6730  175.2970  138.3150 N   0  0  0  0  0  0  0  0  0  0  0  0
  182.1790  175.5370  136.9700 C   0  0  0  0  0  2  0  0  0  0  0  0
  183.9960  174.3430  137.9390 O   0  0  0  0  0  1  0  0  0  0  0  0
  183.4220  174.7020  136.7190 C   0  0  1  0  0  3  0  0  0  0  0  0
  183.0730  173.4470  135.9300 C   0  0  0  0  0  2  0  0  0  0  0  0
  183.3720  172.1900  136.7440 C   0  0  0  0  0  2  0  0  0  0  0  0
  185.4520  171.4310  135.7520 C   0  0  0  0  0  0  0  0  0  0  0  0
  186.6520  171.6510  135.5440 O   0  0  0  0  0  0  0  0  0  0  0  0
  184.1870  171.1970  135.9720 C   0  0  0  0  0  0  0  0  0  0  0  0
  183.6130  169.8850  135.5380 C   0  0  0  0  0  2  0  0  0  0  0  0
  182.2170  169.9110  135.5550 O   0  0  0  0  0  1  0  0  0  0  0  0
  189.3330  177.4930  139.9400 C   0  0  0  0  0  0  0  0  0  0  0  0
  188.4130  178.0740  139.1520 C   0  0  0  0  0  3  0  0  0  0  0  0
  193.0090  175.9870  138.3330 C   0  0  0  0  0  0  0  0  0  0  0  0
  190.6010  176.9540  139.4060 C   0  0  0  0  0  0  0  0  0  0  0  0
  191.8150  177.5680  139.7360 C   0  0  0  0  0  3  0  0  0  0  0  0
  191.7950  175.3800  137.9960 C   0  0  0  0  0  3  0  0  0  0  0  0
  190.5940  175.8630  138.5260 C   0  0  0  0  0  3  0  0  0  0  0  0
  193.0150  177.0850  139.2070 C   0  0  0  0  0  3  0  0  0  0  0  0
  194.2260  175.4740  137.7790 N   0  0  0  0  0  2  0  0  0  0  0  0
  194.2760  174.3660  136.8330 C   0  0  0  0  0  2  0  0  0  0  0  0
  194.7840  173.1370  137.5070 C   0  0  0  0  0  0  0  0  0  0  0  0
  195.0340  173.1520  138.7400 O   0  0  0  0  0  1  0  0  0  0  0  0
  195.0040  171.9810  136.7700 O   0  0  0  0  0  0  0  0  0  0  0  0
  188.4460  178.2110  137.6840 C   0  0  0  0  0  0  0  0  0  0  0  0
  187.9730  177.3240  136.9250 O   0  0  0  0  0  0  0  0  0  0  0  0
  189.0080  179.3860  137.1140 N   0  0  0  0  0  1  0  0  0  0  0  0
  190.7940  176.2020  144.5100 C   0  0  0  0  0  2  0  0  0  0  0  0
  191.8360  177.1260  146.4470 O   0  0  0  0  0  1  0  0  0  0  0  0
  191.8980  178.4350  144.5660 O   0  0  0  0  0  0  0  0  0  0  0  0
  191.5490  177.2670  145.2290 C   0  0  0  0  0  0  0  0  0  0  0  0
  1 11  1  0  0  0  0
  2  8  2  0  0  0  0
  3  1  1  0  0  0  0
  4  2  1  0  0  0  0
  4  9  2  0  0  0  0
  5 11  2  0  0  0  0
  6 10  2  0  0  0  0
  6 51  1  0  0  0  0
  7  3  2  0  0  0  0
  8  7  1  0  0  0  0
  8 10  1  0  0  0  0
  9  6  1  0  0  0  0
 10  5  1  0  0  0  0
 13  3  1  0  0  0  0
 13 12  2  0  0  0  0
 14 13  1  0  0  0  0
 15 14  1  0  0  0  0
 16 15  1  0  0  0  0
 17 16  1  0  0  0  0
 18 20  2  0  0  0  0
 19 20  1  0  0  0  0
 20 17  1  0  0  0  0
 21 22  1  0  0  0  0
 23 21  2  0  0  0  0
 24 21  1  0  0  0  0
 24 19  1  0  0  0  0
 25 24  1  0  0  0  0
 27 25  1  0  0  0  0
 27 26  1  1  0  0  0
 28 27  1  0  0  0  0
 28 29  1  0  0  0  0
 30 32  2  0  0  0  0
 31 30  2  0  0  0  0
 32 29  1  0  0  0  0
 33 34  1  0  0  0  0
 33 32  1  0  0  0  0
 35  4  1  0  0  0  0
 36 35  2  0  0  0  0
 37 42  1  0  0  0  0
 38 39  1  0  0  0  0
 38 35  1  0  0  0  0
 40 37  2  0  0  0  0
 40 41  1  0  0  0  0
 41 38  2  0  0  0  0
 42 39  2  0  0  0  0
 43 37  1  0  0  0  0
 44 45  1  0  0  0  0
 44 43  1  0  0  0  0
 45 46  1  0  0  0  0
 47 45  2  0  0  0  0
 48 36  1  0  0  0  0
 49 48  2  0  0  0  0
 50 48  1  0  0  0  0
 51 54  1  0  0  0  0
 53 54  2  0  0  0  0
 54 52  1  0  0  0  0
M  END
>  <MODEL>
2

>  <REMARK>
 VINA RESULT:      -7.6      3.115      8.390
  Name = 
  20 active torsions:
  status: ('A' for Active; 'I' for Inactive)
    1  A    between atoms: C_2  and  C_27
    2  A    between atoms: C_2  and  C_54
    3  A    between atoms: C_4  and  C_48
    4  A    between atoms: C_5  and  C_52
    5  A    between atoms: C_6  and  C_50
    6  A    between atoms: C_8  and  N_13
    7  A    between atoms: C_9  and  C_25
    8  A    between atoms: C_12  and  C_25
    9  A    between atoms: N_13  and  C_52
   10  A    between atoms: C_16  and  C_19
   11  A    between atoms: C_16  and  C_37
   12  A    between atoms: N_17  and  N_51
   13  A    between atoms: C_18  and  C_46
   14  A    between atoms: C_18  and  N_51
   15  A    between atoms: C_19  and  C_46
   16  A    between atoms: S_20  and  C_35
   17  A    between atoms: S_20  and  C_41
   18  A    between atoms: C_26  and  C_37
   19  A    between atoms: C_41  and  C_49
   20  A    between atoms: C_49  and  N_53
                            x       y       z     vdW  Elec       q    Type
                         _______ _______ _______ _____ _____    ______ ____

>  <TORSDO>
F 20

$$$$
=
 OpenBabel11042411143D

 54 56  0  0  1  0  0  0  0  0999 V2000
  186.1370  177.9150  145.7200 C   0  0  0  0  0  2  0  0  0  0  0  0
  187.9630  177.8170  141.5990 N   0  0  0  0  0  0  0  0  0  0  0  0
  185.6340  178.2360  144.5310 C   0  0  0  0  0  0  0  0  0  0  0  0
  189.1380  177.3900  141.0680 C   0  0  0  0  0  0  0  0  0  0  0  0
  188.5120  177.2050  145.2900 C   0  0  0  0  0  3  0  0  0  0  0  0
  189.8760  176.8050  143.2870 C   0  0  0  0  0  0  0  0  0  0  0  0
  186.3730  178.2210  143.3060 N   0  0  0  0  0  0  0  0  0  0  0  0
  187.6760  177.7660  142.9290 C   0  0  0  0  0  0  0  0  0  0  0  0
  190.1120  176.8690  141.9170 C   0  0  0  0  0  3  0  0  0  0  0  0
  188.6490  177.2610  143.8250 C   0  0  0  0  0  0  0  0  0  0  0  0
  187.4810  177.4750  146.0760 C   0  0  0  0  0  3  0  0  0  0  0  0
  183.6360  179.0300  145.5140 O   0  0  0  0  0  0  0  0  0  0  0  0
  184.2190  178.6410  144.4650 C   0  0  0  0  0  0  0  0  0  0  0  0
  183.5070  178.6000  143.2240 N   0  0  0  0  0  2  0  0  0  0  0  0
  182.1550  179.1200  143.0740 C   0  0  0  0  0  2  0  0  0  0  0  0
  181.6760  178.9420  141.6430 C   0  0  0  0  0  2  0  0  0  0  0  0
  182.8930  177.9770  140.6960 S   0  0  0  0  0  0  0  0  0  0  0  0
  180.6680  177.8020  139.2230 N   0  0  0  0  0  2  0  0  0  0  0  0
  181.6320  175.6990  139.7220 N   0  0  0  0  0  2  0  0  0  0  0  0
  181.6270  177.1270  139.7670 C   0  0  0  0  0  0  0  0  0  0  0  0
  179.5830  174.4340  139.1180 C   0  0  0  0  0  0  0  0  0  0  0  0
  178.9570  174.7930  140.3060 O   0  0  0  0  0  1  0  0  0  0  0  0
  178.9830  173.6760  138.3110 O   0  0  0  0  0  0  0  0  0  0  0  0
  180.8890  174.9440  138.7970 N   0  0  0  0  0  0  0  0  0  0  0  0
  181.4190  174.8050  137.4470 C   0  0  0  0  0  2  0  0  0  0  0  0
  181.1800  172.8710  136.0800 O   0  0  0  0  0  1  0  0  0  0  0  0
  181.8500  173.3720  137.1970 C   0  0  1  0  0  3  0  0  0  0  0  0
  183.3530  173.2980  136.9650 C   0  0  0  0  0  2  0  0  0  0  0  0
  184.0690  174.4580  137.6510 C   0  0  0  0  0  2  0  0  0  0  0  0
  185.4150  176.1320  136.5240 C   0  0  0  0  0  0  0  0  0  0  0  0
  185.5320  177.3110  136.1650 O   0  0  0  0  0  0  0  0  0  0  0  0
  185.2950  174.8890  136.9040 C   0  0  0  0  0  0  0  0  0  0  0  0
  186.4390  173.9540  136.6750 C   0  0  0  0  0  2  0  0  0  0  0  0
  186.3910  173.3970  135.3950 O   0  0  0  0  0  1  0  0  0  0  0  0
  189.3730  177.4690  139.6070 C   0  0  0  0  0  0  0  0  0  0  0  0
  188.5400  178.2190  138.8650 C   0  0  0  0  0  3  0  0  0  0  0  0
  192.6750  175.3980  137.8250 C   0  0  0  0  0  0  0  0  0  0  0  0
  190.5130  176.7390  139.0160 C   0  0  0  0  0  0  0  0  0  0  0  0
  191.7950  177.3040  139.0460 C   0  0  0  0  0  3  0  0  0  0  0  0
  191.3930  174.8400  137.7860 C   0  0  0  0  0  3  0  0  0  0  0  0
  190.3150  175.5080  138.3750 C   0  0  0  0  0  3  0  0  0  0  0  0
  192.8720  176.6350  138.4580 C   0  0  0  0  0  3  0  0  0  0  0  0
  193.7630  174.6950  137.2170 N   0  0  0  0  0  2  0  0  0  0  0  0
  194.5580  173.6870  137.9070 C   0  0  0  0  0  2  0  0  0  0  0  0
  195.7590  174.3140  138.5280 C   0  0  0  0  0  0  0  0  0  0  0  0
  196.9010  174.1060  138.0410 O   0  0  0  0  0  0  0  0  0  0  0  0
  195.6220  175.1100  139.6580 O   0  0  0  0  0  1  0  0  0  0  0  0
  188.5500  178.3890  137.4000 C   0  0  0  0  0  0  0  0  0  0  0  0
  189.0280  177.5110  136.6340 O   0  0  0  0  0  0  0  0  0  0  0  0
  187.9840  179.5670  136.8390 N   0  0  0  0  0  1  0  0  0  0  0  0
  190.9490  176.2070  144.1460 C   0  0  0  0  0  2  0  0  0  0  0  0
  191.9130  178.3680  144.4400 O   0  0  0  0  0  0  0  0  0  0  0  0
  191.9300  177.0140  146.2890 O   0  0  0  0  0  1  0  0  0  0  0  0
  191.6100  177.2640  144.9620 C   0  0  0  0  0  0  0  0  0  0  0  0
  1 11  1  0  0  0  0
  2  8  2  0  0  0  0
  3  1  1  0  0  0  0
  4  2  1  0  0  0  0
  4  9  2  0  0  0  0
  5 11  2  0  0  0  0
  6 10  2  0  0  0  0
  6 51  1  0  0  0  0
  7  3  2  0  0  0  0
  8  7  1  0  0  0  0
  8 10  1  0  0  0  0
  9  6  1  0  0  0  0
 10  5  1  0  0  0  0
 13  3  1  0  0  0  0
 13 12  2  0  0  0  0
 14 13  1  0  0  0  0
 15 14  1  0  0  0  0
 16 15  1  0  0  0  0
 17 16  1  0  0  0  0
 18 20  2  0  0  0  0
 19 20  1  0  0  0  0
 20 17  1  0  0  0  0
 21 22  1  0  0  0  0
 23 21  2  0  0  0  0
 24 21  1  0  0  0  0
 24 19  1  0  0  0  0
 25 24  1  0  0  0  0
 27 26  1  6  0  0  0
 27 25  1  0  0  0  0
 28 27  1  0  0  0  0
 28 29  1  0  0  0  0
 30 32  2  0  0  0  0
 31 30  2  0  0  0  0
 32 29  1  0  0  0  0
 33 32  1  0  0  0  0
 34 33  1  0  0  0  0
 35  4  1  0  0  0  0
 36 35  2  0  0  0  0
 37 42  1  0  0  0  0
 38 39  1  0  0  0  0
 38 35  1  0  0  0  0
 40 37  2  0  0  0  0
 40 41  1  0  0  0  0
 41 38  2  0  0  0  0
 42 39  2  0  0  0  0
 43 37  1  0  0  0  0
 43 44  1  0  0  0  0
 44 45  1  0  0  0  0
 45 47  1  0  0  0  0
 46 45  2  0  0  0  0
 48 36  1  0  0  0  0
 49 48  2  0  0  0  0
 50 48  1  0  0  0  0
 51 54  1  0  0  0  0
 52 54  2  0  0  0  0
 54 53  1  0  0  0  0
M  END
>  <MODEL>
3

>  <REMARK>
 VINA RESULT:      -7.4      2.963      8.130
  Name = 
  20 active torsions:
  status: ('A' for Active; 'I' for Inactive)
    1  A    between atoms: C_2  and  C_27
    2  A    between atoms: C_2  and  C_54
    3  A    between atoms: C_4  and  C_48
    4  A    between atoms: C_5  and  C_52
    5  A    between atoms: C_6  and  C_50
    6  A    between atoms: C_8  and  N_13
    7  A    between atoms: C_9  and  C_25
    8  A    between atoms: C_12  and  C_25
    9  A    between atoms: N_13  and  C_52
   10  A    between atoms: C_16  and  C_19
   11  A    between atoms: C_16  and  C_37
   12  A    between atoms: N_17  and  N_51
   13  A    between atoms: C_18  and  C_46
   14  A    between atoms: C_18  and  N_51
   15  A    between atoms: C_19  and  C_46
   16  A    between atoms: S_20  and  C_35
   17  A    between atoms: S_20  and  C_41
   18  A    between atoms: C_26  and  C_37
   19  A    between atoms: C_41  and  C_49
   20  A    between atoms: C_49  and  N_53
                            x       y       z     vdW  Elec       q    Type
                         _______ _______ _______ _____ _____    ______ ____

>  <TORSDO>
F 20

$$$$
=
 OpenBabel11042411143D

 54 56  0  0  1  0  0  0  0  0999 V2000
  186.1460  177.9490  145.9340 C   0  0  0  0  0  2  0  0  0  0  0  0
  187.7710  177.8930  141.7290 N   0  0  0  0  0  0  0  0  0  0  0  0
  185.5850  178.2780  144.7740 C   0  0  0  0  0  0  0  0  0  0  0  0
  188.9200  177.4750  141.1380 C   0  0  0  0  0  0  0  0  0  0  0  0
  188.4990  177.2510  145.3830 C   0  0  0  0  0  3  0  0  0  0  0  0
  189.7670  176.8740  143.3140 C   0  0  0  0  0  0  0  0  0  0  0  0
  186.2630  178.2760  143.5140 N   0  0  0  0  0  0  0  0  0  0  0  0
  187.5490  177.8300  143.0700 C   0  0  0  0  0  0  0  0  0  0  0  0
  189.9350  176.9500  141.9350 C   0  0  0  0  0  3  0  0  0  0  0  0
  188.5660  177.3200  143.9140 C   0  0  0  0  0  0  0  0  0  0  0  0
  187.5070  177.5110  146.2210 C   0  0  0  0  0  3  0  0  0  0  0  0
  183.6340  179.0550  145.8590 O   0  0  0  0  0  0  0  0  0  0  0  0
  184.1670  178.6780  144.7800 C   0  0  0  0  0  0  0  0  0  0  0  0
  183.3960  178.6460  143.5740 N   0  0  0  0  0  2  0  0  0  0  0  0
  182.0370  179.1620  143.4940 C   0  0  0  0  0  2  0  0  0  0  0  0
  181.5330  179.1050  142.0610 C   0  0  0  0  0  2  0  0  0  0  0  0
  179.9140  178.2780  142.0060 S   0  0  0  0  0  0  0  0  0  0  0  0
  178.9310  178.6950  139.5540 N   0  0  0  0  0  2  0  0  0  0  0  0
  180.9680  177.4890  139.5570 N   0  0  0  0  0  2  0  0  0  0  0  0
  179.9190  178.1960  140.2220 C   0  0  0  0  0  0  0  0  0  0  0  0
  181.7360  178.8410  137.6210 C   0  0  0  0  0  0  0  0  0  0  0  0
  182.0870  179.9030  138.4460 O   0  0  0  0  0  1  0  0  0  0  0  0
  181.8770  178.9560  136.3760 O   0  0  0  0  0  0  0  0  0  0  0  0
  181.2440  177.6120  138.1840 N   0  0  0  0  0  0  0  0  0  0  0  0
  181.1500  176.4140  137.3590 C   0  0  0  0  0  2  0  0  0  0  0  0
  181.2670  174.0370  137.4070 O   0  0  0  0  0  1  0  0  0  0  0  0
  181.4490  175.1790  138.1880 C   0  0  1  0  0  3  0  0  0  0  0  0
  182.8780  175.2180  138.7110 C   0  0  0  0  0  2  0  0  0  0  0  0
  183.8510  175.6310  137.6100 C   0  0  0  0  0  2  0  0  0  0  0  0
  185.0870  174.5600  135.8180 C   0  0  0  0  0  0  0  0  0  0  0  0
  185.5940  174.6590  134.6930 O   0  0  0  0  0  0  0  0  0  0  0  0
  184.5540  174.4540  137.0050 C   0  0  0  0  0  0  0  0  0  0  0  0
  184.7580  173.1860  137.7730 C   0  0  0  0  0  2  0  0  0  0  0  0
  184.6720  172.0690  136.9410 O   0  0  0  0  0  1  0  0  0  0  0  0
  189.0840  177.5670  139.6680 C   0  0  0  0  0  0  0  0  0  0  0  0
  188.2550  178.3730  138.9810 C   0  0  0  0  0  3  0  0  0  0  0  0
  192.1870  175.3680  137.6940 C   0  0  0  0  0  0  0  0  0  0  0  0
  190.1520  176.7890  139.0080 C   0  0  0  0  0  0  0  0  0  0  0  0
  191.4930  177.1510  139.1880 C   0  0  0  0  0  3  0  0  0  0  0  0
  190.8470  175.0130  137.5060 C   0  0  0  0  0  3  0  0  0  0  0  0
  189.8320  175.7220  138.1560 C   0  0  0  0  0  3  0  0  0  0  0  0
  192.5070  176.4420  138.5390 C   0  0  0  0  0  3  0  0  0  0  0  0
  193.2090  174.6260  137.0190 N   0  0  0  0  0  2  0  0  0  0  0  0
  193.4910  174.7540  135.5950 C   0  0  0  0  0  2  0  0  0  0  0  0
  194.2930  173.5900  135.1220 C   0  0  0  0  0  0  0  0  0  0  0  0
  195.5280  173.7170  134.9170 O   0  0  0  0  0  1  0  0  0  0  0  0
  193.6730  172.3710  134.8830 O   0  0  0  0  0  0  0  0  0  0  0  0
  188.1990  178.5680  137.5200 C   0  0  0  0  0  0  0  0  0  0  0  0
  188.8030  179.5170  136.9550 O   0  0  0  0  0  0  0  0  0  0  0  0
  187.4600  177.6450  136.7300 N   0  0  0  0  0  1  0  0  0  0  0  0
  190.8810  176.2720  144.1150 C   0  0  0  0  0  2  0  0  0  0  0  0
  191.9290  177.0360  146.1170 O   0  0  0  0  0  1  0  0  0  0  0  0
  191.6870  178.6040  144.4620 O   0  0  0  0  0  0  0  0  0  0  0  0
  191.5400  177.3140  144.9520 C   0  0  0  0  0  0  0  0  0  0  0  0
  1 11  1  0  0  0  0
  2  8  2  0  0  0  0
  3 13  1  0  0  0  0
  3  1  1  0  0  0  0
  4  2  1  0  0  0  0
  4  9  2  0  0  0  0
  5 11  2  0  0  0  0
  6 10  2  0  0  0  0
  6 51  1  0  0  0  0
  7  3  2  0  0  0  0
  8  7  1  0  0  0  0
  8 10  1  0  0  0  0
  9  6  1  0  0  0  0
 10  5  1  0  0  0  0
 13 12  2  0  0  0  0
 14 13  1  0  0  0  0
 15 14  1  0  0  0  0
 16 15  1  0  0  0  0
 17 16  1  0  0  0  0
 18 20  2  0  0  0  0
 19 20  1  0  0  0  0
 20 17  1  0  0  0  0
 21 24  1  0  0  0  0
 21 22  1  0  0  0  0
 23 21  2  0  0  0  0
 24 19  1  0  0  0  0
 25 24  1  0  0  0  0
 25 27  1  0  0  0  0
 27 26  1  6  0  0  0
 27 28  1  0  0  0  0
 29 28  1  0  0  0  0
 30 32  2  0  0  0  0
 31 30  2  0  0  0  0
 32 29  1  0  0  0  0
 32 33  1  0  0  0  0
 34 33  1  0  0  0  0
 35  4  1  0  0  0  0
 36 35  2  0  0  0  0
 37 42  1  0  0  0  0
 38 39  1  0  0  0  0
 38 35  1  0  0  0  0
 40 37  2  0  0  0  0
 40 41  1  0  0  0  0
 41 38  2  0  0  0  0
 42 39  2  0  0  0  0
 43 37  1  0  0  0  0
 44 43  1  0  0  0  0
 45 44  1  0  0  0  0
 46 45  1  0  0  0  0
 47 45  2  0  0  0  0
 48 36  1  0  0  0  0
 49 48  2  0  0  0  0
 50 48  1  0  0  0  0
 51 54  1  0  0  0  0
 53 54  2  0  0  0  0
 54 52  1  0  0  0  0
M  END
>  <MODEL>
4

>  <REMARK>
 VINA RESULT:      -7.0      3.191      8.356
  Name = 
  20 active torsions:
  status: ('A' for Active; 'I' for Inactive)
    1  A    between atoms: C_2  and  C_27
    2  A    between atoms: C_2  and  C_54
    3  A    between atoms: C_4  and  C_48
    4  A    between atoms: C_5  and  C_52
    5  A    between atoms: C_6  and  C_50
    6  A    between atoms: C_8  and  N_13
    7  A    between atoms: C_9  and  C_25
    8  A    between atoms: C_12  and  C_25
    9  A    between atoms: N_13  and  C_52
   10  A    between atoms: C_16  and  C_19
   11  A    between atoms: C_16  and  C_37
   12  A    between atoms: N_17  and  N_51
   13  A    between atoms: C_18  and  C_46
   14  A    between atoms: C_18  and  N_51
   15  A    between atoms: C_19  and  C_46
   16  A    between atoms: S_20  and  C_35
   17  A    between atoms: S_20  and  C_41
   18  A    between atoms: C_26  and  C_37
   19  A    between atoms: C_41  and  C_49
   20  A    between atoms: C_49  and  N_53
                            x       y       z     vdW  Elec       q    Type
                         _______ _______ _______ _____ _____    ______ ____

>  <TORSDO>
F 20

$$$$
=
 OpenBabel11042411143D

 54 56  0  0  1  0  0  0  0  0999 V2000
  182.4340  179.3450  143.4630 C   0  0  0  0  0  2  0  0  0  0  0  0
  183.0360  176.8800  139.7360 N   0  0  0  0  0  0  0  0  0  0  0  0
  183.4860  178.6570  143.0270 C   0  0  0  0  0  0  0  0  0  0  0  0
  182.3110  176.6200  138.6170 C   0  0  0  0  0  0  0  0  0  0  0  0
  180.6330  179.0030  141.7390 C   0  0  0  0  0  3  0  0  0  0  0  0
  180.5180  177.9510  139.5240 C   0  0  0  0  0  0  0  0  0  0  0  0
  183.4990  177.8540  141.8440 N   0  0  0  0  0  0  0  0  0  0  0  0
  182.5840  177.6520  140.7620 C   0  0  0  0  0  0  0  0  0  0  0  0
  181.0350  177.1650  138.4980 C   0  0  0  0  0  3  0  0  0  0  0  0
  181.2830  178.2070  140.6850 C   0  0  0  0  0  0  0  0  0  0  0  0
  181.1010  179.4730  142.8860 C   0  0  0  0  0  3  0  0  0  0  0  0
  185.8390  178.7770  143.2240 O   0  0  0  0  0  0  0  0  0  0  0  0
  184.7280  178.7200  143.8180 C   0  0  0  0  0  0  0  0  0  0  0  0
  184.6810  178.7200  145.2490 N   0  0  0  0  0  2  0  0  0  0  0  0
  185.8620  178.9220  146.0760 C   0  0  0  0  0  2  0  0  0  0  0  0
  186.7760  177.7100  145.9980 C   0  0  0  0  0  2  0  0  0  0  0  0
  187.8390  177.6390  147.4730 S   0  0  0  0  0  0  0  0  0  0  0  0
  190.3820  176.9380  147.0290 N   0  0  0  0  0  2  0  0  0  0  0  0
  189.3620  178.0010  145.1750 N   0  0  0  0  0  2  0  0  0  0  0  0
  189.3260  177.4640  146.4990 C   0  0  0  0  0  0  0  0  0  0  0  0
  191.3000  178.6320  143.7570 C   0  0  0  0  0  0  0  0  0  0  0  0
  191.3740  179.8910  144.3420 O   0  0  0  0  0  1  0  0  0  0  0  0
  192.1000  178.3350  142.8310 O   0  0  0  0  0  0  0  0  0  0  0  0
  190.3420  177.6660  144.2240 N   0  0  0  0  0  0  0  0  0  0  0  0
  190.4510  176.2700  143.8180 C   0  0  0  0  0  2  0  0  0  0  0  0
  188.1410  176.0720  143.2780 O   0  0  0  0  0  1  0  0  0  0  0  0
  189.4260  175.9520  142.7460 C   0  0  1  0  0  3  0  0  0  0  0  0
  189.5780  176.8990  141.5630 C   0  0  0  0  0  2  0  0  0  0  0  0
  188.4070  177.8760  141.4920 C   0  0  0  0  0  2  0  0  0  0  0  0
  186.8310  178.6080  139.7990 C   0  0  0  0  0  0  0  0  0  0  0  0
  185.6790  178.9690  139.5300 O   0  0  0  0  0  0  0  0  0  0  0  0
  188.0490  178.2290  140.0800 C   0  0  0  0  0  0  0  0  0  0  0  0
  189.0800  178.2630  138.9970 C   0  0  0  0  0  2  0  0  0  0  0  0
  188.7610  179.2090  138.0220 O   0  0  0  0  0  1  0  0  0  0  0  0
  182.8770  175.7770  137.5360 C   0  0  0  0  0  0  0  0  0  0  0  0
  182.0340  175.0390  136.7930 C   0  0  0  0  0  3  0  0  0  0  0  0
  187.0940  175.7890  136.7750 C   0  0  0  0  0  0  0  0  0  0  0  0
  184.3350  175.7840  137.3020 C   0  0  0  0  0  0  0  0  0  0  0  0
  184.9720  176.9620  136.8920 C   0  0  0  0  0  3  0  0  0  0  0  0
  186.4560  174.6100  137.1740 C   0  0  0  0  0  3  0  0  0  0  0  0
  185.0820  174.6040  137.4330 C   0  0  0  0  0  3  0  0  0  0  0  0
  186.3450  176.9680  136.6340 C   0  0  0  0  0  3  0  0  0  0  0  0
  188.5020  175.7700  136.5170 N   0  0  0  0  0  2  0  0  0  0  0  0
  189.4140  174.7920  137.0960 C   0  0  0  0  0  2  0  0  0  0  0  0
  190.8250  175.1450  136.7660 C   0  0  0  0  0  0  0  0  0  0  0  0
  191.0760  176.1900  136.1130 O   0  0  0  0  0  0  0  0  0  0  0  0
  191.8600  174.3080  137.1590 O   0  0  0  0  0  1  0  0  0  0  0  0
  182.3820  174.0910  135.7170 C   0  0  0  0  0  0  0  0  0  0  0  0
  182.7900  174.4860  134.5940 O   0  0  0  0  0  0  0  0  0  0  0  0
  182.2710  172.6960  135.9670 N   0  0  0  0  0  1  0  0  0  0  0  0
  179.1520  178.5350  139.3250 C   0  0  0  0  0  2  0  0  0  0  0  0
  179.4630  180.8940  139.1590 O   0  0  0  0  0  1  0  0  0  0  0  0
  179.0320  179.8080  137.1870 O   0  0  0  0  0  0  0  0  0  0  0  0
  179.2390  179.8100  138.5590 C   0  0  0  0  0  0  0  0  0  0  0  0
  2  8  2  0  0  0  0
  3  1  1  0  0  0  0
  3 13  1  0  0  0  0
  4  2  1  0  0  0  0
  5 11  2  0  0  0  0
  6 10  2  0  0  0  0
  7  3  2  0  0  0  0
  8  7  1  0  0  0  0
  9  4  2  0  0  0  0
  9  6  1  0  0  0  0
 10  8  1  0  0  0  0
 10  5  1  0  0  0  0
 11  1  1  0  0  0  0
 12 13  2  0  0  0  0
 13 14  1  0  0  0  0
 14 15  1  0  0  0  0
 16 15  1  0  0  0  0
 16 17  1  0  0  0  0
 19 20  1  0  0  0  0
 20 18  2  0  0  0  0
 20 17  1  0  0  0  0
 21 24  1  0  0  0  0
 21 22  1  0  0  0  0
 23 21  2  0  0  0  0
 24 19  1  0  0  0  0
 25 24  1  0  0  0  0
 27 26  1  1  0  0  0
 27 25  1  0  0  0  0
 28 27  1  0  0  0  0
 29 28  1  0  0  0  0
 30 32  2  0  0  0  0
 31 30  2  0  0  0  0
 32 29  1  0  0  0  0
 33 32  1  0  0  0  0
 34 33  1  0  0  0  0
 35  4  1  0  0  0  0
 36 35  2  0  0  0  0
 37 40  1  0  0  0  0
 38 41  1  0  0  0  0
 38 35  1  0  0  0  0
 39 38  2  0  0  0  0
 40 41  2  0  0  0  0
 42 37  2  0  0  0  0
 42 39  1  0  0  0  0
 43 37  1  0  0  0  0
 43 44  1  0  0  0  0
 45 44  1  0  0  0  0
 45 47  1  0  0  0  0
 46 45  2  0  0  0  0
 48 50  1  0  0  0  0
 48 36  1  0  0  0  0
 49 48  2  0  0  0  0
 51  6  1  0  0  0  0
 53 54  2  0  0  0  0
 54 52  1  0  0  0  0
 54 51  1  0  0  0  0
M  END
>  <MODEL>
5

>  <REMARK>
 VINA RESULT:      -6.8      3.038     10.281
  Name = 
  20 active torsions:
  status: ('A' for Active; 'I' for Inactive)
    1  A    between atoms: C_2  and  C_27
    2  A    between atoms: C_2  and  C_54
    3  A    between atoms: C_4  and  C_48
    4  A    between atoms: C_5  and  C_52
    5  A    between atoms: C_6  and  C_50
    6  A    between atoms: C_8  and  N_13
    7  A    between atoms: C_9  and  C_25
    8  A    between atoms: C_12  and  C_25
    9  A    between atoms: N_13  and  C_52
   10  A    between atoms: C_16  and  C_19
   11  A    between atoms: C_16  and  C_37
   12  A    between atoms: N_17  and  N_51
   13  A    between atoms: C_18  and  C_46
   14  A    between atoms: C_18  and  N_51
   15  A    between atoms: C_19  and  C_46
   16  A    between atoms: S_20  and  C_35
   17  A    between atoms: S_20  and  C_41
   18  A    between atoms: C_26  and  C_37
   19  A    between atoms: C_41  and  C_49
   20  A    between atoms: C_49  and  N_53
                            x       y       z     vdW  Elec       q    Type
                         _______ _______ _______ _____ _____    ______ ____

>  <TORSDO>
F 20

$$$$
=
 OpenBabel11042411143D

 54 56  0  0  1  0  0  0  0  0999 V2000
  186.9190  178.1420  147.2090 C   0  0  0  0  0  2  0  0  0  0  0  0
  189.1210  177.8390  143.2870 N   0  0  0  0  0  0  0  0  0  0  0  0
  186.4960  178.2700  145.9550 C   0  0  0  0  0  0  0  0  0  0  0  0
  190.3820  177.5080  142.9050 C   0  0  0  0  0  0  0  0  0  0  0  0
  189.3900  177.6940  147.0560 C   0  0  0  0  0  3  0  0  0  0  0  0
  190.9720  177.2590  145.2290 C   0  0  0  0  0  0  0  0  0  0  0  0
  187.3420  178.2180  144.8030 N   0  0  0  0  0  0  0  0  0  0  0  0
  188.7190  177.8930  144.5860 C   0  0  0  0  0  0  0  0  0  0  0  0
  191.3250  177.2060  143.8840 C   0  0  0  0  0  3  0  0  0  0  0  0
  189.6560  177.6110  145.6100 C   0  0  0  0  0  0  0  0  0  0  0  0
  188.2660  177.9140  147.7200 C   0  0  0  0  0  3  0  0  0  0  0  0
  184.2850  178.6110  146.7200 O   0  0  0  0  0  0  0  0  0  0  0  0
  185.0560  178.4850  145.7300 C   0  0  0  0  0  0  0  0  0  0  0  0
  184.5290  178.5560  144.4010 N   0  0  0  0  0  2  0  0  0  0  0  0
  183.1440  178.9070  144.1190 C   0  0  0  0  0  2  0  0  0  0  0  0
  182.9410  179.1040  142.6260 C   0  0  0  0  0  2  0  0  0  0  0  0
  184.2780  178.2840  141.7040 S   0  0  0  0  0  0  0  0  0  0  0  0
  184.4150  179.8050  139.5090 N   0  0  0  0  0  2  0  0  0  0  0  0
  182.4250  178.5320  139.6460 N   0  0  0  0  0  2  0  0  0  0  0  0
  183.7080  178.9250  140.1380 C   0  0  0  0  0  0  0  0  0  0  0  0
  181.8200  177.6110  137.4210 C   0  0  0  0  0  0  0  0  0  0  0  0
  181.9130  176.3050  137.8880 O   0  0  0  0  0  1  0  0  0  0  0  0
  181.5450  177.8140  136.2100 O   0  0  0  0  0  0  0  0  0  0  0  0
  182.0060  178.7210  138.3170 N   0  0  0  0  0  0  0  0  0  0  0  0
  181.6310  180.0670  137.9040 C   0  0  0  0  0  2  0  0  0  0  0  0
  180.3480  180.9230  139.7180 O   0  0  0  0  0  1  0  0  0  0  0  0
  180.2470  180.4090  138.4240 C   0  0  1  0  0  3  0  0  0  0  0  0
  179.5730  181.4330  137.5200 C   0  0  0  0  0  2  0  0  0  0  0  0
  179.8820  182.8540  137.9800 C   0  0  0  0  0  2  0  0  0  0  0  0
  181.7700  184.3070  137.5170 C   0  0  0  0  0  0  0  0  0  0  0  0
  182.6840  185.0080  137.9680 O   0  0  0  0  0  0  0  0  0  0  0  0
  180.8070  183.5660  137.0390 C   0  0  0  0  0  0  0  0  0  0  0  0
  180.7230  183.3640  135.5590 C   0  0  0  0  0  2  0  0  0  0  0  0
  180.7310  184.5830  134.8790 O   0  0  0  0  0  1  0  0  0  0  0  0
  190.7410  177.4610  141.4670 C   0  0  0  0  0  0  0  0  0  0  0  0
  191.9940  177.1060  141.1320 C   0  0  0  0  0  3  0  0  0  0  0  0
  187.7660  178.3320  138.5090 C   0  0  0  0  0  0  0  0  0  0  0  0
  189.7170  177.7890  140.4540 C   0  0  0  0  0  0  0  0  0  0  0  0
  188.3600  177.6080  140.7490 C   0  0  0  0  0  3  0  0  0  0  0  0
  189.1220  178.5030  138.2120 C   0  0  0  0  0  3  0  0  0  0  0  0
  190.0950  178.2290  139.1780 C   0  0  0  0  0  3  0  0  0  0  0  0
  187.3880  177.8830  139.7840 C   0  0  0  0  0  3  0  0  0  0  0  0
  186.7870  178.6210  137.5040 N   0  0  0  0  0  2  0  0  0  0  0  0
  186.5490  177.7710  136.3440 C   0  0  0  0  0  2  0  0  0  0  0  0
  186.4680  176.3420  136.7610 C   0  0  0  0  0  0  0  0  0  0  0  0
  187.4850  175.6060  136.6860 O   0  0  0  0  0  0  0  0  0  0  0  0
  185.2620  175.8160  137.2080 O   0  0  0  0  0  1  0  0  0  0  0  0
  192.5800  177.0530  139.7800 C   0  0  0  0  0  0  0  0  0  0  0  0
  193.5470  177.7880  139.4470 O   0  0  0  0  0  0  0  0  0  0  0  0
  192.0500  176.1310  138.8360 N   0  0  0  0  0  1  0  0  0  0  0  0
  192.0210  176.8940  146.2340 C   0  0  0  0  0  2  0  0  0  0  0  0
  192.4540  174.6480  145.5570 O   0  0  0  0  0  0  0  0  0  0  0  0
  191.5440  174.8970  147.6460 O   0  0  0  0  0  1  0  0  0  0  0  0
  192.0340  175.4200  146.4580 C   0  0  0  0  0  0  0  0  0  0  0  0
  1 11  1  0  0  0  0
  2  8  2  0  0  0  0
  3  1  1  0  0  0  0
  4  2  1  0  0  0  0
  4  9  2  0  0  0  0
  5 11  2  0  0  0  0
  6 10  2  0  0  0  0
  6 51  1  0  0  0  0
  7  3  2  0  0  0  0
  8  7  1  0  0  0  0
  8 10  1  0  0  0  0
  9  6  1  0  0  0  0
 10  5  1  0  0  0  0
 13  3  1  0  0  0  0
 13 12  2  0  0  0  0
 14 13  1  0  0  0  0
 15 14  1  0  0  0  0
 16 15  1  0  0  0  0
 17 16  1  0  0  0  0
 18 20  2  0  0  0  0
 19 20  1  0  0  0  0
 20 17  1  0  0  0  0
 21 22  1  0  0  0  0
 21 24  1  0  0  0  0
 23 21  2  0  0  0  0
 24 19  1  0  0  0  0
 25 24  1  0  0  0  0
 25 27  1  0  0  0  0
 27 26  1  1  0  0  0
 28 29  1  0  0  0  0
 28 27  1  0  0  0  0
 30 31  2  0  0  0  0
 32 30  2  0  0  0  0
 32 29  1  0  0  0  0
 33 32  1  0  0  0  0
 34 33  1  0  0  0  0
 35  4  1  0  0  0  0
 36 35  2  0  0  0  0
 37 42  1  0  0  0  0
 38 39  1  0  0  0  0
 38 35  1  0  0  0  0
 40 37  2  0  0  0  0
 40 41  1  0  0  0  0
 41 38  2  0  0  0  0
 42 39  2  0  0  0  0
 43 37  1  0  0  0  0
 44 45  1  0  0  0  0
 44 43  1  0  0  0  0
 45 47  1  0  0  0  0
 46 45  2  0  0  0  0
 48 36  1  0  0  0  0
 49 48  2  0  0  0  0
 50 48  1  0  0  0  0
 51 54  1  0  0  0  0
 52 54  2  0  0  0  0
 54 53  1  0  0  0  0
M  END
>  <MODEL>
6

>  <REMARK>
 VINA RESULT:      -6.8      2.812      6.696
  Name = 
  20 active torsions:
  status: ('A' for Active; 'I' for Inactive)
    1  A    between atoms: C_2  and  C_27
    2  A    between atoms: C_2  and  C_54
    3  A    between atoms: C_4  and  C_48
    4  A    between atoms: C_5  and  C_52
    5  A    between atoms: C_6  and  C_50
    6  A    between atoms: C_8  and  N_13
    7  A    between atoms: C_9  and  C_25
    8  A    between atoms: C_12  and  C_25
    9  A    between atoms: N_13  and  C_52
   10  A    between atoms: C_16  and  C_19
   11  A    between atoms: C_16  and  C_37
   12  A    between atoms: N_17  and  N_51
   13  A    between atoms: C_18  and  C_46
   14  A    between atoms: C_18  and  N_51
   15  A    between atoms: C_19  and  C_46
   16  A    between atoms: S_20  and  C_35
   17  A    between atoms: S_20  and  C_41
   18  A    between atoms: C_26  and  C_37
   19  A    between atoms: C_41  and  C_49
   20  A    between atoms: C_49  and  N_53
                            x       y       z     vdW  Elec       q    Type
                         _______ _______ _______ _____ _____    ______ ____

>  <TORSDO>
F 20

$$$$
=
 OpenBabel11042411143D

 54 56  0  0  1  0  0  0  0  0999 V2000
  186.0640  177.8910  145.7470 C   0  0  0  0  0  2  0  0  0  0  0  0
  187.7810  177.8250  141.5780 N   0  0  0  0  0  0  0  0  0  0  0  0
  185.5310  178.2230  144.5740 C   0  0  0  0  0  0  0  0  0  0  0  0
  188.9420  177.4000  141.0130 C   0  0  0  0  0  0  0  0  0  0  0  0
  188.4260  177.1800  145.2480 C   0  0  0  0  0  3  0  0  0  0  0  0
  189.7360  176.7950  143.2070 C   0  0  0  0  0  0  0  0  0  0  0  0
  186.2370  178.2170  143.3300 N   0  0  0  0  0  0  0  0  0  0  0  0
  187.5290  177.7630  142.9150 C   0  0  0  0  0  0  0  0  0  0  0  0
  189.9350  176.8700  141.8320 C   0  0  0  0  0  3  0  0  0  0  0  0
  188.5250  177.2480  143.7810 C   0  0  0  0  0  0  0  0  0  0  0  0
  187.4160  177.4450  146.0630 C   0  0  0  0  0  3  0  0  0  0  0  0
  183.5570  178.9960  145.6190 O   0  0  0  0  0  0  0  0  0  0  0  0
  184.1160  178.6310  144.5490 C   0  0  0  0  0  0  0  0  0  0  0  0
  183.3760  178.6190  143.3230 N   0  0  0  0  0  2  0  0  0  0  0  0
  182.0230  179.1440  143.2150 C   0  0  0  0  0  2  0  0  0  0  0  0
  181.5460  179.0850  141.7730 C   0  0  0  0  0  2  0  0  0  0  0  0
  180.0600  178.0430  141.6520 S   0  0  0  0  0  0  0  0  0  0  0  0
  179.4980  179.2760  139.3470 N   0  0  0  0  0  2  0  0  0  0  0  0
  180.3740  177.0950  139.0580 N   0  0  0  0  0  2  0  0  0  0  0  0
  179.9860  178.2020  139.8750 C   0  0  0  0  0  0  0  0  0  0  0  0
  181.9380  177.6020  137.1980 C   0  0  0  0  0  0  0  0  0  0  0  0
  183.0020  177.7650  138.0780 O   0  0  0  0  0  1  0  0  0  0  0  0
  182.1250  177.7860  135.9660 O   0  0  0  0  0  0  0  0  0  0  0  0
  180.6450  177.1990  137.6820 N   0  0  0  0  0  0  0  0  0  0  0  0
  179.6190  176.7540  136.7480 C   0  0  0  0  0  2  0  0  0  0  0  0
  179.0530  174.7460  135.6010 O   0  0  0  0  0  1  0  0  0  0  0  0
  179.4380  175.2500  136.8440 C   0  0  1  0  0  3  0  0  0  0  0  0
  180.7320  174.5820  137.2870 C   0  0  0  0  0  2  0  0  0  0  0  0
  180.4460  173.3070  138.0770 C   0  0  0  0  0  2  0  0  0  0  0  0
  179.8500  171.3230  136.8140 C   0  0  0  0  0  0  0  0  0  0  0  0
  178.9510  170.6130  136.3460 O   0  0  0  0  0  0  0  0  0  0  0  0
  180.8000  172.0720  137.3050 C   0  0  0  0  0  0  0  0  0  0  0  0
  182.2210  171.7290  136.9880 C   0  0  0  0  0  2  0  0  0  0  0  0
  182.3720  171.3850  135.6440 O   0  0  0  0  0  1  0  0  0  0  0  0
  189.1380  177.4910  139.5470 C   0  0  0  0  0  0  0  0  0  0  0  0
  188.2640  178.2160  138.8280 C   0  0  0  0  0  3  0  0  0  0  0  0
  192.4610  175.5340  137.6790 C   0  0  0  0  0  0  0  0  0  0  0  0
  190.2860  176.7990  138.9260 C   0  0  0  0  0  0  0  0  0  0  0  0
  191.5600  177.3780  138.9750 C   0  0  0  0  0  3  0  0  0  0  0  0
  191.1870  174.9610  137.6210 C   0  0  0  0  0  3  0  0  0  0  0  0
  190.1010  175.5910  138.2380 C   0  0  0  0  0  3  0  0  0  0  0  0
  192.6440  176.7480  138.3600 C   0  0  0  0  0  3  0  0  0  0  0  0
  193.5570  174.8680  137.0420 N   0  0  0  0  0  2  0  0  0  0  0  0
  194.9150  174.8640  137.5710 C   0  0  0  0  0  2  0  0  0  0  0  0
  195.2970  173.4870  137.9970 C   0  0  0  0  0  0  0  0  0  0  0  0
  195.5550  172.6090  137.1340 O   0  0  0  0  0  0  0  0  0  0  0  0
  195.3440  173.1660  139.3480 O   0  0  0  0  0  1  0  0  0  0  0  0
  188.2320  178.3910  137.3640 C   0  0  0  0  0  0  0  0  0  0  0  0
  187.5820  177.6130  136.6180 O   0  0  0  0  0  0  0  0  0  0  0  0
  188.9390  179.4810  136.7850 N   0  0  0  0  0  1  0  0  0  0  0  0
  190.8290  176.1870  144.0330 C   0  0  0  0  0  2  0  0  0  0  0  0
  191.9280  178.2920  144.2650 O   0  0  0  0  0  0  0  0  0  0  0  0
  191.7690  177.0380  146.1780 O   0  0  0  0  0  1  0  0  0  0  0  0
  191.5260  177.2390  144.8260 C   0  0  0  0  0  0  0  0  0  0  0  0
  1 11  1  0  0  0  0
  2  8  2  0  0  0  0
  3  1  1  0  0  0  0
  4  2  1  0  0  0  0
  4  9  2  0  0  0  0
  5 11  2  0  0  0  0
  6 10  2  0  0  0  0
  6 51  1  0  0  0  0
  7  3  2  0  0  0  0
  8  7  1  0  0  0  0
  8 10  1  0  0  0  0
  9  6  1  0  0  0  0
 10  5  1  0  0  0  0
 13  3  1  0  0  0  0
 13 12  2  0  0  0  0
 14 13  1  0  0  0  0
 15 14  1  0  0  0  0
 16 15  1  0  0  0  0
 17 16  1  0  0  0  0
 18 20  2  0  0  0  0
 19 20  1  0  0  0  0
 20 17  1  0  0  0  0
 21 24  1  0  0  0  0
 21 22  1  0  0  0  0
 23 21  2  0  0  0  0
 24 19  1  0  0  0  0
 25 27  1  0  0  0  0
 25 24  1  0  0  0  0
 27 26  1  6  0  0  0
 27 28  1  0  0  0  0
 28 29  1  0  0  0  0
 30 32  2  0  0  0  0
 31 30  2  0  0  0  0
 32 29  1  0  0  0  0
 33 32  1  0  0  0  0
 34 33  1  0  0  0  0
 35  4  1  0  0  0  0
 36 35  2  0  0  0  0
 37 42  1  0  0  0  0
 38 39  1  0  0  0  0
 38 35  1  0  0  0  0
 40 37  2  0  0  0  0
 40 41  1  0  0  0  0
 41 38  2  0  0  0  0
 42 39  2  0  0  0  0
 43 44  1  0  0  0  0
 43 37  1  0  0  0  0
 44 45  1  0  0  0  0
 45 47  1  0  0  0  0
 46 45  2  0  0  0  0
 48 36  1  0  0  0  0
 49 48  2  0  0  0  0
 50 48  1  0  0  0  0
 51 54  1  0  0  0  0
 52 54  2  0  0  0  0
 54 53  1  0  0  0  0
M  END
>  <MODEL>
7

>  <REMARK>
 VINA RESULT:      -6.8      3.184      8.482
  Name = 
  20 active torsions:
  status: ('A' for Active; 'I' for Inactive)
    1  A    between atoms: C_2  and  C_27
    2  A    between atoms: C_2  and  C_54
    3  A    between atoms: C_4  and  C_48
    4  A    between atoms: C_5  and  C_52
    5  A    between atoms: C_6  and  C_50
    6  A    between atoms: C_8  and  N_13
    7  A    between atoms: C_9  and  C_25
    8  A    between atoms: C_12  and  C_25
    9  A    between atoms: N_13  and  C_52
   10  A    between atoms: C_16  and  C_19
   11  A    between atoms: C_16  and  C_37
   12  A    between atoms: N_17  and  N_51
   13  A    between atoms: C_18  and  C_46
   14  A    between atoms: C_18  and  N_51
   15  A    between atoms: C_19  and  C_46
   16  A    between atoms: S_20  and  C_35
   17  A    between atoms: S_20  and  C_41
   18  A    between atoms: C_26  and  C_37
   19  A    between atoms: C_41  and  C_49
   20  A    between atoms: C_49  and  N_53
                            x       y       z     vdW  Elec       q    Type
                         _______ _______ _______ _____ _____    ______ ____

>  <TORSDO>
F 20

$$$$
=
 OpenBabel11042411143D

 54 56  0  0  1  0  0  0  0  0999 V2000
  189.1470  178.2270  142.0610 C   0  0  0  0  0  2  0  0  0  0  0  0
  191.0170  175.7420  138.7970 N   0  0  0  0  0  0  0  0  0  0  0  0
  190.2300  177.4550  142.0590 C   0  0  0  0  0  0  0  0  0  0  0  0
  190.7880  175.5500  137.4720 C   0  0  0  0  0  0  0  0  0  0  0  0
  188.1760  178.0490  139.7470 C   0  0  0  0  0  3  0  0  0  0  0  0
  188.8870  177.0230  137.6320 C   0  0  0  0  0  0  0  0  0  0  0  0
  190.6600  176.6610  140.9500 N   0  0  0  0  0  0  0  0  0  0  0  0
  190.2480  176.5430  139.5840 C   0  0  0  0  0  0  0  0  0  0  0  0
  189.7140  176.2020  136.8720 C   0  0  0  0  0  3  0  0  0  0  0  0
  189.1350  177.2070  139.0130 C   0  0  0  0  0  0  0  0  0  0  0  0
  188.1740  178.4710  141.0030 C   0  0  0  0  0  3  0  0  0  0  0  0
  191.9380  178.2810  143.4700 O   0  0  0  0  0  0  0  0  0  0  0  0
  191.0470  177.4080  143.2840 C   0  0  0  0  0  0  0  0  0  0  0  0
  190.8340  176.3850  144.2620 N   0  0  0  0  0  2  0  0  0  0  0  0
  191.5120  176.3720  145.5510 C   0  0  0  0  0  2  0  0  0  0  0  0
  190.5060  176.5190  146.6800 C   0  0  0  0  0  2  0  0  0  0  0  0
  189.9100  178.2360  146.7610 S   0  0  0  0  0  0  0  0  0  0  0  0
  187.7180  176.7130  146.9300 N   0  0  0  0  0  2  0  0  0  0  0  0
  187.5080  178.4930  145.3830 N   0  0  0  0  0  2  0  0  0  0  0  0
  188.2310  177.7630  146.3770 C   0  0  0  0  0  0  0  0  0  0  0  0
  185.2070  178.7940  146.2660 C   0  0  0  0  0  0  0  0  0  0  0  0
  185.6840  179.3870  147.4300 O   0  0  0  0  0  1  0  0  0  0  0  0
  183.9690  178.6170  146.1290 O   0  0  0  0  0  0  0  0  0  0  0  0
  186.1140  178.4130  145.2170 N   0  0  0  0  0  0  0  0  0  0  0  0
  185.6030  178.0630  143.8980 C   0  0  0  0  0  2  0  0  0  0  0  0
  185.6620  180.0050  142.5220 O   0  0  0  0  0  1  0  0  0  0  0  0
  184.8190  179.2230  143.3130 C   0  0  1  0  0  3  0  0  0  0  0  0
  183.6570  178.7140  142.4700 C   0  0  0  0  0  2  0  0  0  0  0  0
  184.1620  177.9220  141.2670 C   0  0  0  0  0  2  0  0  0  0  0  0
  182.3190  177.2510  139.8390 C   0  0  0  0  0  0  0  0  0  0  0  0
  181.4010  176.4490  139.6240 O   0  0  0  0  0  0  0  0  0  0  0  0
  183.2850  178.1000  140.0650 C   0  0  0  0  0  0  0  0  0  0  0  0
  183.4190  179.2910  139.1690 C   0  0  0  0  0  2  0  0  0  0  0  0
  184.7240  179.4210  138.6900 O   0  0  0  0  0  1  0  0  0  0  0  0
  191.6770  174.6690  136.6780 C   0  0  0  0  0  0  0  0  0  0  0  0
  191.1240  173.6610  135.9820 C   0  0  0  0  0  3  0  0  0  0  0  0
  195.9030  175.3740  136.5750 C   0  0  0  0  0  0  0  0  0  0  0  0
  193.1310  174.9300  136.6640 C   0  0  0  0  0  0  0  0  0  0  0  0
  193.6720  175.8210  135.7280 C   0  0  0  0  0  3  0  0  0  0  0  0
  195.3640  174.4770  137.5030 C   0  0  0  0  0  3  0  0  0  0  0  0
  193.9840  174.2510  137.5460 C   0  0  0  0  0  3  0  0  0  0  0  0
  195.0500  176.0470  135.6860 C   0  0  0  0  0  3  0  0  0  0  0  0
  197.3180  175.5900  136.5520 N   0  0  0  0  0  2  0  0  0  0  0  0
  198.2230  174.9040  135.6370 C   0  0  0  0  0  2  0  0  0  0  0  0
  198.6710  173.6110  136.2290 C   0  0  0  0  0  0  0  0  0  0  0  0
  198.8820  172.6180  135.4860 O   0  0  0  0  0  0  0  0  0  0  0  0
  198.8320  173.4960  137.6030 O   0  0  0  0  0  1  0  0  0  0  0  0
  191.8180  172.6350  135.1820 C   0  0  0  0  0  0  0  0  0  0  0  0
  192.9930  172.8040  134.7630 O   0  0  0  0  0  0  0  0  0  0  0  0
  191.1470  171.4140  134.8950 N   0  0  0  0  0  1  0  0  0  0  0  0
  187.7660  177.7220  136.9250 C   0  0  0  0  0  2  0  0  0  0  0  0
  186.0990  176.9100  135.4240 O   0  0  0  0  0  0  0  0  0  0  0  0
  186.4250  175.6580  137.3160 O   0  0  0  0  0  1  0  0  0  0  0  0
  186.7280  176.7400  136.5010 C   0  0  0  0  0  0  0  0  0  0  0  0
  2  8  2  0  0  0  0
  3  1  1  0  0  0  0
  3 13  1  0  0  0  0
  4  2  1  0  0  0  0
  5 11  2  0  0  0  0
  6 10  2  0  0  0  0
  7  3  2  0  0  0  0
  8  7  1  0  0  0  0
  9  4  2  0  0  0  0
  9  6  1  0  0  0  0
 10  8  1  0  0  0  0
 10  5  1  0  0  0  0
 11  1  1  0  0  0  0
 13 12  2  0  0  0  0
 13 14  1  0  0  0  0
 14 15  1  0  0  0  0
 15 16  1  0  0  0  0
 16 17  1  0  0  0  0
 19 20  1  0  0  0  0
 20 17  1  0  0  0  0
 20 18  2  0  0  0  0
 21 22  1  0  0  0  0
 23 21  2  0  0  0  0
 24 19  1  0  0  0  0
 24 21  1  0  0  0  0
 25 24  1  0  0  0  0
 27 26  1  6  0  0  0
 27 25  1  0  0  0  0
 28 27  1  0  0  0  0
 29 28  1  0  0  0  0
 30 32  2  0  0  0  0
 31 30  2  0  0  0  0
 32 29  1  0  0  0  0
 33 32  1  0  0  0  0
 34 33  1  0  0  0  0
 35  4  1  0  0  0  0
 36 35  2  0  0  0  0
 37 40  1  0  0  0  0
 38 35  1  0  0  0  0
 38 41  1  0  0  0  0
 39 38  2  0  0  0  0
 40 41  2  0  0  0  0
 42 39  1  0  0  0  0
 42 37  2  0  0  0  0
 43 37  1  0  0  0  0
 44 45  1  0  0  0  0
 44 43  1  0  0  0  0
 45 47  1  0  0  0  0
 46 45  2  0  0  0  0
 48 36  1  0  0  0  0
 49 48  2  0  0  0  0
 50 48  1  0  0  0  0
 51  6  1  0  0  0  0
 52 54  2  0  0  0  0
 54 51  1  0  0  0  0
 54 53  1  0  0  0  0
M  END
>  <MODEL>
8

>  <REMARK>
 VINA RESULT:      -6.6      4.771     10.987
  Name = 
  20 active torsions:
  status: ('A' for Active; 'I' for Inactive)
    1  A    between atoms: C_2  and  C_27
    2  A    between atoms: C_2  and  C_54
    3  A    between atoms: C_4  and  C_48
    4  A    between atoms: C_5  and  C_52
    5  A    between atoms: C_6  and  C_50
    6  A    between atoms: C_8  and  N_13
    7  A    between atoms: C_9  and  C_25
    8  A    between atoms: C_12  and  C_25
    9  A    between atoms: N_13  and  C_52
   10  A    between atoms: C_16  and  C_19
   11  A    between atoms: C_16  and  C_37
   12  A    between atoms: N_17  and  N_51
   13  A    between atoms: C_18  and  C_46
   14  A    between atoms: C_18  and  N_51
   15  A    between atoms: C_19  and  C_46
   16  A    between atoms: S_20  and  C_35
   17  A    between atoms: S_20  and  C_41
   18  A    between atoms: C_26  and  C_37
   19  A    between atoms: C_41  and  C_49
   20  A    between atoms: C_49  and  N_53
                            x       y       z     vdW  Elec       q    Type
                         _______ _______ _______ _____ _____    ______ ____

>  <TORSDO>
F 20

$$$$
=
 OpenBabel11042411143D

 54 56  0  0  1  0  0  0  0  0999 V2000
  182.2540  178.8100  141.1600 C   0  0  0  0  0  2  0  0  0  0  0  0
  186.6500  178.3400  142.0430 N   0  0  0  0  0  0  0  0  0  0  0  0
  183.3090  178.7550  140.3520 C   0  0  0  0  0  0  0  0  0  0  0  0
  187.3980  178.1160  143.1540 C   0  0  0  0  0  0  0  0  0  0  0  0
  183.1720  178.6300  143.4960 C   0  0  0  0  0  3  0  0  0  0  0  0
  185.3810  178.1840  144.4710 C   0  0  0  0  0  0  0  0  0  0  0  0
  184.6670  178.6760  140.7930 N   0  0  0  0  0  0  0  0  0  0  0  0
  185.2970  178.4870  142.0640 C   0  0  0  0  0  0  0  0  0  0  0  0
  186.7610  178.0290  144.3890 C   0  0  0  0  0  3  0  0  0  0  0  0
  184.6170  178.4240  143.3050 C   0  0  0  0  0  0  0  0  0  0  0  0
  182.1940  178.7920  142.6170 C   0  0  0  0  0  3  0  0  0  0  0  0
  182.4750  179.7680  138.3860 O   0  0  0  0  0  0  0  0  0  0  0  0
  183.0680  178.7800  138.8990 C   0  0  0  0  0  0  0  0  0  0  0  0
  183.5050  177.6990  138.0690 N   0  0  0  0  0  2  0  0  0  0  0  0
  183.4200  177.7360  136.6160 C   0  0  0  0  0  2  0  0  0  0  0  0
  184.5380  176.9110  135.9990 C   0  0  0  0  0  2  0  0  0  0  0  0
  185.6160  176.2510  137.3070 S   0  0  0  0  0  0  0  0  0  0  0  0
  185.6540  173.5960  137.6240 N   0  0  0  0  0  2  0  0  0  0  0  0
  183.9320  174.3460  136.1830 N   0  0  0  0  0  2  0  0  0  0  0  0
  185.0280  174.5820  137.0690 C   0  0  0  0  0  0  0  0  0  0  0  0
  183.5910  172.0480  135.3060 C   0  0  0  0  0  0  0  0  0  0  0  0
  184.7890  172.0910  134.6030 O   0  0  0  0  0  0  0  0  0  0  0  0
  182.8610  171.0260  135.2180 O   0  0  0  0  0  1  0  0  0  0  0  0
  183.2000  173.1460  136.1490 N   0  0  0  0  0  0  0  0  0  0  0  0
  182.1050  172.9880  137.0980 C   0  0  0  0  0  2  0  0  0  0  0  0
  180.5860  174.5220  136.0940 O   0  0  0  0  0  1  0  0  0  0  0  0
  181.3430  174.2920  137.2440 C   0  0  1  0  0  3  0  0  0  0  0  0
  180.4250  174.2430  138.4580 C   0  0  0  0  0  2  0  0  0  0  0  0
  180.8440  175.2760  139.5000 C   0  0  0  0  0  2  0  0  0  0  0  0
  179.8010  177.2210  138.4930 C   0  0  0  0  0  0  0  0  0  0  0  0
  179.6910  177.9520  137.5000 O   0  0  0  0  0  0  0  0  0  0  0  0
  179.9120  176.4500  139.5400 C   0  0  0  0  0  0  0  0  0  0  0  0
  179.0220  176.7010  140.7160 C   0  0  0  0  0  2  0  0  0  0  0  0
  179.4610  176.0040  141.8430 O   0  0  0  0  0  1  0  0  0  0  0  0
  188.8680  177.9560  143.0480 C   0  0  0  0  0  0  0  0  0  0  0  0
  189.6060  178.0680  144.1660 C   0  0  0  0  0  3  0  0  0  0  0  0
  190.5590  177.0640  139.2130 C   0  0  0  0  0  0  0  0  0  0  0  0
  189.4720  177.6670  141.7320 C   0  0  0  0  0  0  0  0  0  0  0  0
  188.9570  178.2740  140.5790 C   0  0  0  0  0  3  0  0  0  0  0  0
  191.0670  176.4510  140.3630 C   0  0  0  0  0  3  0  0  0  0  0  0
  190.5240  176.7470  141.6180 C   0  0  0  0  0  3  0  0  0  0  0  0
  189.5000  177.9790  139.3260 C   0  0  0  0  0  3  0  0  0  0  0  0
  191.1330  176.7470  137.9400 N   0  0  0  0  0  2  0  0  0  0  0  0
  192.3800  176.0100  137.7790 C   0  0  0  0  0  2  0  0  0  0  0  0
  192.1220  174.7020  137.1120 C   0  0  0  0  0  0  0  0  0  0  0  0
  192.9330  174.2600  136.2570 O   0  0  0  0  0  0  0  0  0  0  0  0
  190.9740  173.9820  137.4150 O   0  0  0  0  0  1  0  0  0  0  0  0
  191.0760  178.0080  144.2820 C   0  0  0  0  0  0  0  0  0  0  0  0
  191.7900  179.0400  144.1930 O   0  0  0  0  0  0  0  0  0  0  0  0
  191.6960  176.7510  144.5220 N   0  0  0  0  0  1  0  0  0  0  0  0
  184.7480  178.0490  145.8230 C   0  0  0  0  0  2  0  0  0  0  0  0
  186.2920  177.8350  147.6290 O   0  0  0  0  0  1  0  0  0  0  0  0
  185.7390  179.9810  147.0460 O   0  0  0  0  0  0  0  0  0  0  0  0
  185.6460  178.6080  146.8740 C   0  0  0  0  0  0  0  0  0  0  0  0
  1 11  1  0  0  0  0
  2  8  2  0  0  0  0
  2  4  1  0  0  0  0
  3  7  2  0  0  0  0
  3  1  1  0  0  0  0
  4  9  2  0  0  0  0
  6 51  1  0  0  0  0
  7  8  1  0  0  0  0
  8 10  1  0  0  0  0
  9  6  1  0  0  0  0
 10  5  1  0  0  0  0
 10  6  2  0  0  0  0
 11  5  2  0  0  0  0
 12 13  2  0  0  0  0
 13  3  1  0  0  0  0
 14 13  1  0  0  0  0
 15 14  1  0  0  0  0
 16 15  1  0  0  0  0
 16 17  1  0  0  0  0
 19 20  1  0  0  0  0
 20 17  1  0  0  0  0
 20 18  2  0  0  0  0
 21 24  1  0  0  0  0
 22 21  2  0  0  0  0
 23 21  1  0  0  0  0
 24 19  1  0  0  0  0
 24 25  1  0  0  0  0
 25 27  1  0  0  0  0
 27 26  1  6  0  0  0
 27 28  1  0  0  0  0
 28 29  1  0  0  0  0
 29 32  1  0  0  0  0
 30 32  2  0  0  0  0
 31 30  2  0  0  0  0
 32 33  1  0  0  0  0
 33 34  1  0  0  0  0
 35  4  1  0  0  0  0
 35 36  2  0  0  0  0
 36 48  1  0  0  0  0
 37 42  2  0  0  0  0
 37 40  1  0  0  0  0
 38 35  1  0  0  0  0
 39 38  2  0  0  0  0
 40 41  2  0  0  0  0
 41 38  1  0  0  0  0
 42 39  1  0  0  0  0
 43 37  1  0  0  0  0
 44 43  1  0  0  0  0
 45 47  1  0  0  0  0
 45 44  1  0  0  0  0
 46 45  2  0  0  0  0
 48 50  1  0  0  0  0
 49 48  2  0  0  0  0
 51 54  1  0  0  0  0
 54 53  2  0  0  0  0
 54 52  1  0  0  0  0
M  END
>  <MODEL>
9

>  <REMARK>
 VINA RESULT:      -6.5      2.303      6.438
  Name = 
  20 active torsions:
  status: ('A' for Active; 'I' for Inactive)
    1  A    between atoms: C_2  and  C_27
    2  A    between atoms: C_2  and  C_54
    3  A    between atoms: C_4  and  C_48
    4  A    between atoms: C_5  and  C_52
    5  A    between atoms: C_6  and  C_50
    6  A    between atoms: C_8  and  N_13
    7  A    between atoms: C_9  and  C_25
    8  A    between atoms: C_12  and  C_25
    9  A    between atoms: N_13  and  C_52
   10  A    between atoms: C_16  and  C_19
   11  A    between atoms: C_16  and  C_37
   12  A    between atoms: N_17  and  N_51
   13  A    between atoms: C_18  and  C_46
   14  A    between atoms: C_18  and  N_51
   15  A    between atoms: C_19  and  C_46
   16  A    between atoms: S_20  and  C_35
   17  A    between atoms: S_20  and  C_41
   18  A    between atoms: C_26  and  C_37
   19  A    between atoms: C_41  and  C_49
   20  A    between atoms: C_49  and  N_53
                            x       y       z     vdW  Elec       q    Type
                         _______ _______ _______ _____ _____    ______ ____

>  <TORSDO>
F 20

$$$$
