=
 OpenBabel11032420403D

 45 49  0  0  1  0  0  0  0  0999 V2000
  188.7630  176.8240  138.1940 C   0  0  0  0  0  0  0  0  0  0  0  0
  189.8920  177.1880  141.6780 C   0  0  0  0  0  0  0  0  0  0  0  0
  187.6960  176.9120  137.2980 C   0  0  0  0  0  3  0  0  0  0  0  0
  189.7680  177.3650  143.1180 C   0  0  2  0  0  3  0  0  0  0  0  0
  186.3210  178.0530  138.8850 C   0  0  0  0  0  0  0  0  0  0  0  0
  188.5820  177.3740  139.4820 C   0  0  0  0  0  0  0  0  0  0  0  0
  186.5290  177.5070  137.6550 N   0  0  0  0  0  0  0  0  0  0  0  0
  187.2730  177.7950  142.4380 C   0  0  0  0  0  2  0  0  0  0  0  0
  187.3610  178.0030  139.8460 C   0  0  0  0  0  0  0  0  0  0  0  0
  189.5160  177.1940  140.5470 C   0  0  0  0  0  0  0  0  0  0  0  0
  188.4580  178.1560  143.3760 C   0  0  0  0  0  2  0  0  0  0  0  0
  187.2290  178.7140  141.1970 C   0  0  0  0  0  2  0  0  0  0  0  0
  190.0140  176.1570  137.7440 C   0  0  0  0  0  0  0  0  0  0  0  0
  192.0620  174.7330  135.9750 C   0  0  0  0  0  2  0  0  0  0  0  0
  192.5500  176.2700  137.9800 C   0  0  0  0  0  2  0  0  0  0  0  0
  191.1260  174.0050  136.9280 C   0  0  0  0  0  2  0  0  0  0  0  0
  193.0990  175.5730  136.7320 C   0  0  1  0  0  3  0  0  0  0  0  0
  191.2600  177.0120  137.6580 C   0  0  0  0  0  2  0  0  0  0  0  0
  189.9750  174.8640  137.3690 C   0  0  0  0  0  3  0  0  0  0  0  0
  194.3820  174.7910  137.0250 C   0  0  0  0  0  2  0  0  0  0  0  0
  196.7860  174.6450  136.3650 C   0  0  0  0  0  2  0  0  0  0  0  0
  195.3470  176.1110  135.1810 C   0  0  0  0  0  2  0  0  0  0  0  0
  195.3650  174.7750  135.8580 C   0  0  2  0  0  3  0  0  0  0  0  0
  197.3960  175.9080  136.3300 O   0  0  0  0  0  0  0  0  0  0  0  0
  196.7780  176.5810  135.2670 C   0  0  0  0  0  2  0  0  0  0  0  0
  184.7200  179.9520  138.8300 N   0  0  0  0  0  0  0  0  0  0  0  0
  183.8710  178.0540  139.6670 C   0  0  0  0  0  3  0  0  0  0  0  0
  182.9360  179.0680  139.6470 C   0  0  0  0  0  0  0  0  0  0  0  0
  184.9940  178.6680  139.1350 C   0  0  0  0  0  0  0  0  0  0  0  0
  183.4620  180.1990  139.1490 N   0  0  0  0  0  2  0  0  0  0  0  0
  181.5400  178.9590  140.1530 C   0  0  0  0  0  2  0  0  0  0  0  0
  181.5500  178.7350  141.6540 C   0  0  0  0  0  1  0  0  0  0  0  0
  192.1610  177.7810  143.0750 O   0  0  0  0  0  1  0  0  0  0  0  0
  190.9630  178.1050  143.7220 C   0  0  2  0  0  3  0  0  0  0  0  0
  191.0280  177.9460  145.2510 C   0  0  0  0  0  2  0  0  0  0  0  0
  190.8660  176.5280  145.8210 C   0  0  1  0  0  3  0  0  0  0  0  0
  192.0500  176.1090  146.6710 C   0  0  0  0  0  1  0  0  0  0  0  0
  189.6290  176.3930  146.5760 N   0  0  0  0  0  2  0  0  0  0  0  0
  189.1660  177.7350  146.9000 C   0  0  0  0  0  2  0  0  0  0  0  0
  187.8910  178.5560  148.7590 O   0  0  0  0  0  1  0  0  0  0  0  0
  187.8520  177.6780  147.6720 C   0  0  1  0  0  3  0  0  0  0  0  0
  186.4080  177.1800  145.8750 O   0  0  0  0  0  0  0  0  0  0  0  0
  186.6780  177.9610  146.7740 C   0  0  0  0  0  0  0  0  0  0  0  0
  184.6490  179.0490  146.2240 O   0  0  0  0  0  1  0  0  0  0  0  0
  185.8170  179.1680  146.9780 C   0  0  0  0  0  2  0  0  0  0  0  0
  1  6  1  0  0  0  0
  2  4  1  0  0  0  0
  3  7  1  0  0  0  0
  3  1  2  0  0  0  0
  4 11  1  0  0  0  0
  4 34  1  6  0  0  0
  5 29  1  0  0  0  0
  5  9  1  0  0  0  0
  6  9  2  0  0  0  0
  6 10  1  0  0  0  0
  7  5  2  0  0  0  0
  8 11  1  0  0  0  0
  9 12  1  0  0  0  0
 10  2  3  0  0  0  0
 12  8  1  0  0  0  0
 13  1  1  0  0  0  0
 14 17  1  0  0  0  0
 14 16  1  0  0  0  0
 16 19  1  0  0  0  0
 17 20  1  1  0  0  0
 17 15  1  0  0  0  0
 18 13  1  0  0  0  0
 18 15  1  0  0  0  0
 19 13  2  0  0  0  0
 22 25  1  0  0  0  0
 22 23  1  0  0  0  0
 23 21  1  0  0  0  0
 23 20  1  1  0  0  0
 24 21  1  0  0  0  0
 25 24  1  0  0  0  0
 26 29  2  0  0  0  0
 26 30  1  0  0  0  0
 28 27  2  0  0  0  0
 28 31  1  0  0  0  0
 29 27  1  0  0  0  0
 30 28  1  0  0  0  0
 31 32  1  0  0  0  0
 34 33  1  6  0  0  0
 34 35  1  0  0  0  0
 35 36  1  0  0  0  0
 36 38  1  0  0  0  0
 36 37  1  1  0  0  0
 38 39  1  0  0  0  0
 39 41  1  0  0  0  0
 41 40  1  1  0  0  0
 42 43  2  0  0  0  0
 43 45  1  0  0  0  0
 43 41  1  0  0  0  0
 44 45  1  0  0  0  0
M  END
>  <MODEL>
1

>  <REMARK>
 VINA RESULT:      -8.1      0.000      0.000
  Name = 
  13 active torsions:
  status: ('A' for Active; 'I' for Inactive)
    1  A    between atoms: C_1  and  C_14
    2  A    between atoms: C_4  and  C_21
    3  A    between atoms: C_4  and  N_33
    4  A    between atoms: C_8  and  C_28
    5  A    between atoms: C_8  and  C_45
    6  A    between atoms: C_9  and  C_18
    7  A    between atoms: C_12  and  C_38
    8  A    between atoms: C_13  and  C_26
    9  A    between atoms: C_17  and  C_34
   10  A    between atoms: C_17  and  C_35
   11  A    between atoms: C_21  and  C_38
   12  A    between atoms: C_28  and  C_41
   13  A    between atoms: N_33  and  C_41
                            x       y       z     vdW  Elec       q    Type
                         _______ _______ _______ _____ _____    ______ ____

>  <TORSDO>
F 13

$$$$
=
 OpenBabel11032420403D

 45 49  0  0  1  0  0  0  0  0999 V2000
  187.4020  177.7270  145.3170 C   0  0  0  0  0  0  0  0  0  0  0  0
  188.8630  177.3810  141.9570 C   0  0  0  0  0  0  0  0  0  0  0  0
  187.5510  177.4910  146.6850 C   0  0  0  0  0  3  0  0  0  0  0  0
  189.7920  176.9100  140.9390 C   0  0  2  0  0  3  0  0  0  0  0  0
  189.8600  176.9270  146.4410 C   0  0  0  0  0  0  0  0  0  0  0  0
  188.5340  177.5470  144.4950 C   0  0  0  0  0  0  0  0  0  0  0  0
  188.7450  177.1050  147.2010 N   0  0  0  0  0  0  0  0  0  0  0  0
  191.0250  176.0020  143.0670 C   0  0  0  0  0  2  0  0  0  0  0  0
  189.7840  177.1510  145.0430 C   0  0  0  0  0  0  0  0  0  0  0  0
  188.4780  177.5770  143.0680 C   0  0  0  0  0  0  0  0  0  0  0  0
  191.1420  176.6170  141.6440 C   0  0  0  0  0  2  0  0  0  0  0  0
  191.0350  177.0930  144.1600 C   0  0  0  0  0  2  0  0  0  0  0  0
  186.0660  178.1450  144.8110 C   0  0  0  0  0  0  0  0  0  0  0  0
  183.5820  179.8380  144.2450 C   0  0  0  0  0  2  0  0  0  0  0  0
  184.5290  177.9400  142.7880 C   0  0  0  0  0  2  0  0  0  0  0  0
  183.6710  178.8300  145.3830 C   0  0  0  0  0  2  0  0  0  0  0  0
  183.5880  179.1450  142.8760 C   0  0  1  0  0  3  0  0  0  0  0  0
  185.9120  178.2970  143.3130 C   0  0  0  0  0  2  0  0  0  0  0  0
  185.0880  178.4360  145.6900 C   0  0  0  0  0  3  0  0  0  0  0  0
  182.1770  178.8150  142.3840 C   0  0  0  0  0  2  0  0  0  0  0  0
  182.6030  179.1820  139.9510 C   0  0  0  0  0  2  0  0  0  0  0  0
  180.7280  177.8930  140.6180 C   0  0  0  0  0  2  0  0  0  0  0  0
  182.1480  178.1840  140.9950 C   0  0  2  0  0  3  0  0  0  0  0  0
  181.4750  179.6970  139.2950 O   0  0  0  0  0  0  0  0  0  0  0  0
  180.5280  178.6640  139.3360 C   0  0  0  0  0  2  0  0  0  0  0  0
  191.9030  175.5310  146.6680 N   0  0  0  0  0  0  0  0  0  0  0  0
  191.6130  177.0150  148.3210 C   0  0  0  0  0  3  0  0  0  0  0  0
  192.7670  176.2790  148.4910 C   0  0  0  0  0  0  0  0  0  0  0  0
  191.0960  176.5000  147.1430 C   0  0  0  0  0  0  0  0  0  0  0  0
  192.9220  175.3900  147.4960 N   0  0  0  0  0  2  0  0  0  0  0  0
  193.7020  176.4010  149.6430 C   0  0  0  0  0  2  0  0  0  0  0  0
  193.5140  177.7460  150.3200 C   0  0  0  0  0  1  0  0  0  0  0  0
  188.7910  178.5540  139.4570 O   0  0  0  0  0  1  0  0  0  0  0  0
  189.9900  177.9260  139.8130 C   0  0  2  0  0  3  0  0  0  0  0  0
  190.7450  177.3210  138.6160 C   0  0  0  0  0  2  0  0  0  0  0  0
  190.0840  176.1420  137.8870 C   0  0  1  0  0  3  0  0  0  0  0  0
  189.6520  176.5020  136.4780 C   0  0  0  0  0  1  0  0  0  0  0  0
  190.9500  174.9720  137.8660 N   0  0  0  0  0  2  0  0  0  0  0  0
  192.2850  175.4100  138.2490 C   0  0  0  0  0  2  0  0  0  0  0  0
  193.9620  176.4220  136.8660 O   0  0  0  0  0  1  0  0  0  0  0  0
  193.2610  175.2350  137.0900 C   0  0  1  0  0  3  0  0  0  0  0  0
  194.0270  173.0360  136.7160 O   0  0  0  0  0  0  0  0  0  0  0  0
  194.1920  174.0780  137.3310 C   0  0  0  0  0  0  0  0  0  0  0  0
  195.4670  173.0000  139.0090 O   0  0  0  0  0  1  0  0  0  0  0  0
  195.3370  174.1870  138.2890 C   0  0  0  0  0  2  0  0  0  0  0  0
  1  3  1  0  0  0  0
  2 10  3  0  0  0  0
  3  7  2  0  0  0  0
  4 34  1  6  0  0  0
  4 11  1  0  0  0  0
  4  2  1  0  0  0  0
  5 29  1  0  0  0  0
  5  7  1  0  0  0  0
  6  9  1  0  0  0  0
  6  1  2  0  0  0  0
  8 12  1  0  0  0  0
  9  5  2  0  0  0  0
 10  6  1  0  0  0  0
 11  8  1  0  0  0  0
 12  9  1  0  0  0  0
 13  1  1  0  0  0  0
 13 19  2  0  0  0  0
 14 16  1  0  0  0  0
 15 17  1  0  0  0  0
 15 18  1  0  0  0  0
 16 19  1  0  0  0  0
 17 20  1  1  0  0  0
 17 14  1  0  0  0  0
 18 13  1  0  0  0  0
 21 23  1  0  0  0  0
 22 23  1  0  0  0  0
 23 20  1  1  0  0  0
 24 25  1  0  0  0  0
 24 21  1  0  0  0  0
 25 22  1  0  0  0  0
 26 29  2  0  0  0  0
 26 30  1  0  0  0  0
 27 28  2  0  0  0  0
 28 31  1  0  0  0  0
 29 27  1  0  0  0  0
 30 28  1  0  0  0  0
 31 32  1  0  0  0  0
 34 33  1  6  0  0  0
 35 34  1  0  0  0  0
 36 37  1  6  0  0  0
 36 35  1  0  0  0  0
 38 36  1  0  0  0  0
 38 39  1  0  0  0  0
 41 40  1  1  0  0  0
 41 43  1  0  0  0  0
 41 39  1  0  0  0  0
 42 43  2  0  0  0  0
 43 45  1  0  0  0  0
 45 44  1  0  0  0  0
M  END
>  <MODEL>
2

>  <REMARK>
 VINA RESULT:      -8.1      3.408     10.905
  Name = 
  13 active torsions:
  status: ('A' for Active; 'I' for Inactive)
    1  A    between atoms: C_1  and  C_14
    2  A    between atoms: C_4  and  C_21
    3  A    between atoms: C_4  and  N_33
    4  A    between atoms: C_8  and  C_28
    5  A    between atoms: C_8  and  C_45
    6  A    between atoms: C_9  and  C_18
    7  A    between atoms: C_12  and  C_38
    8  A    between atoms: C_13  and  C_26
    9  A    between atoms: C_17  and  C_34
   10  A    between atoms: C_17  and  C_35
   11  A    between atoms: C_21  and  C_38
   12  A    between atoms: C_28  and  C_41
   13  A    between atoms: N_33  and  C_41
                            x       y       z     vdW  Elec       q    Type
                         _______ _______ _______ _____ _____    ______ ____

>  <TORSDO>
F 13

$$$$
=
 OpenBabel11032420403D

 45 49  0  0  1  0  0  0  0  0999 V2000
  185.3890  178.2890  142.5020 C   0  0  0  0  0  0  0  0  0  0  0  0
  188.0080  177.6990  139.9840 C   0  0  0  0  0  0  0  0  0  0  0  0
  185.0330  178.2310  143.8510 C   0  0  0  0  0  3  0  0  0  0  0  0
  189.2700  177.2080  139.4490 C   0  0  2  0  0  3  0  0  0  0  0  0
  187.2930  177.8780  144.5400 C   0  0  0  0  0  0  0  0  0  0  0  0
  186.7540  178.1290  142.1790 C   0  0  0  0  0  0  0  0  0  0  0  0
  185.9680  178.0300  144.8130 N   0  0  0  0  0  0  0  0  0  0  0  0
  189.6710  176.6850  141.9870 C   0  0  0  0  0  2  0  0  0  0  0  0
  187.7290  177.9270  143.1930 C   0  0  0  0  0  0  0  0  0  0  0  0
  187.2290  177.9850  140.8400 C   0  0  0  0  0  0  0  0  0  0  0  0
  190.2750  177.1370  140.6280 C   0  0  0  0  0  2  0  0  0  0  0  0
  189.2200  177.8920  142.8380 C   0  0  0  0  0  2  0  0  0  0  0  0
  184.3170  178.5080  141.4930 C   0  0  0  0  0  0  0  0  0  0  0  0
  181.6490  179.3050  140.2290 C   0  0  0  0  0  2  0  0  0  0  0  0
  183.9470  179.2280  139.0760 C   0  0  0  0  0  2  0  0  0  0  0  0
  181.9740  177.8890  140.6810 C   0  0  0  0  0  2  0  0  0  0  0  0
  182.4990  179.7230  139.0230 C   0  0  1  0  0  3  0  0  0  0  0  0
  184.5770  179.5480  140.4250 C   0  0  0  0  0  2  0  0  0  0  0  0
  183.1530  177.8400  141.6110 C   0  0  0  0  0  3  0  0  0  0  0  0
  181.8240  179.3910  137.6900 C   0  0  0  0  0  2  0  0  0  0  0  0
  180.3230  180.2680  135.8970 C   0  0  0  0  0  2  0  0  0  0  0  0
  180.9650  181.7010  137.6740 C   0  0  0  0  0  2  0  0  0  0  0  0
  180.6170  180.2730  137.3820 C   0  0  2  0  0  3  0  0  0  0  0  0
  180.8180  181.4520  135.3330 O   0  0  0  0  0  0  0  0  0  0  0  0
  180.7370  182.4050  136.3590 C   0  0  0  0  0  2  0  0  0  0  0  0
  187.8100  177.8530  146.9700 N   0  0  0  0  0  0  0  0  0  0  0  0
  189.5160  177.2280  145.6590 C   0  0  0  0  0  3  0  0  0  0  0  0
  189.8540  177.1820  146.9960 C   0  0  0  0  0  0  0  0  0  0  0  0
  188.2000  177.6630  145.6940 C   0  0  0  0  0  0  0  0  0  0  0  0
  188.8240  177.5660  147.7660 N   0  0  0  0  0  2  0  0  0  0  0  0
  191.1930  176.8100  147.5300 C   0  0  0  0  0  2  0  0  0  0  0  0
  191.9590  176.0110  146.4930 C   0  0  0  0  0  1  0  0  0  0  0  0
  189.0930  179.2880  138.2070 O   0  0  0  0  0  1  0  0  0  0  0  0
  189.8200  178.0990  138.3340 C   0  0  2  0  0  3  0  0  0  0  0  0
  189.9810  177.3330  137.0100 C   0  0  0  0  0  2  0  0  0  0  0  0
  190.8240  176.0480  137.0350 C   0  0  1  0  0  3  0  0  0  0  0  0
  190.8730  175.3620  135.6830 C   0  0  0  0  0  1  0  0  0  0  0  0
  192.1720  176.3020  137.5220 N   0  0  0  0  0  2  0  0  0  0  0  0
  192.8110  175.0110  137.7320 C   0  0  0  0  0  2  0  0  0  0  0  0
  194.5770  176.3130  136.7620 O   0  0  0  0  0  1  0  0  0  0  0  0
  194.2610  175.0460  137.2610 C   0  0  1  0  0  3  0  0  0  0  0  0
  195.3430  175.3560  139.3340 O   0  0  0  0  0  0  0  0  0  0  0  0
  195.2030  174.6340  138.3600 C   0  0  0  0  0  0  0  0  0  0  0  0
  195.1520  172.3040  138.7750 O   0  0  0  0  0  1  0  0  0  0  0  0
  195.9530  173.3400  138.2960 C   0  0  0  0  0  2  0  0  0  0  0  0
  1  3  1  0  0  0  0
  2 10  3  0  0  0  0
  3  7  2  0  0  0  0
  4 34  1  6  0  0  0
  4  2  1  0  0  0  0
  4 11  1  0  0  0  0
  5  7  1  0  0  0  0
  5 29  1  0  0  0  0
  6  1  2  0  0  0  0
  6  9  1  0  0  0  0
  8 12  1  0  0  0  0
  9  5  2  0  0  0  0
 10  6  1  0  0  0  0
 11  8  1  0  0  0  0
 12  9  1  0  0  0  0
 13 19  2  0  0  0  0
 13  1  1  0  0  0  0
 14 16  1  0  0  0  0
 15 18  1  0  0  0  0
 16 19  1  0  0  0  0
 17 20  1  6  0  0  0
 17 15  1  0  0  0  0
 17 14  1  0  0  0  0
 18 13  1  0  0  0  0
 21 23  1  0  0  0  0
 23 22  1  0  0  0  0
 23 20  1  6  0  0  0
 24 21  1  0  0  0  0
 24 25  1  0  0  0  0
 25 22  1  0  0  0  0
 26 30  1  0  0  0  0
 27 29  1  0  0  0  0
 27 28  2  0  0  0  0
 28 31  1  0  0  0  0
 28 30  1  0  0  0  0
 29 26  2  0  0  0  0
 32 31  1  0  0  0  0
 34 33  1  6  0  0  0
 35 36  1  0  0  0  0
 35 34  1  0  0  0  0
 36 37  1  6  0  0  0
 36 38  1  0  0  0  0
 38 39  1  0  0  0  0
 41 40  1  1  0  0  0
 41 39  1  0  0  0  0
 41 43  1  0  0  0  0
 43 42  2  0  0  0  0
 45 43  1  0  0  0  0
 45 44  1  0  0  0  0
M  END
>  <MODEL>
3

>  <REMARK>
 VINA RESULT:      -7.9      3.393     10.301
  Name = 
  13 active torsions:
  status: ('A' for Active; 'I' for Inactive)
    1  A    between atoms: C_1  and  C_14
    2  A    between atoms: C_4  and  C_21
    3  A    between atoms: C_4  and  N_33
    4  A    between atoms: C_8  and  C_28
    5  A    between atoms: C_8  and  C_45
    6  A    between atoms: C_9  and  C_18
    7  A    between atoms: C_12  and  C_38
    8  A    between atoms: C_13  and  C_26
    9  A    between atoms: C_17  and  C_34
   10  A    between atoms: C_17  and  C_35
   11  A    between atoms: C_21  and  C_38
   12  A    between atoms: C_28  and  C_41
   13  A    between atoms: N_33  and  C_41
                            x       y       z     vdW  Elec       q    Type
                         _______ _______ _______ _____ _____    ______ ____

>  <TORSDO>
F 13

$$$$
=
 OpenBabel11032420403D

 45 49  0  0  1  0  0  0  0  0999 V2000
  191.1740  176.9610  139.8250 C   0  0  0  0  0  0  0  0  0  0  0  0
  188.5840  175.5790  137.6050 C   0  0  0  0  0  0  0  0  0  0  0  0
  192.5390  177.1520  140.0480 C   0  0  0  0  0  3  0  0  0  0  0  0
  188.0370  174.8040  136.5010 C   0  0  2  0  0  3  0  0  0  0  0  0
  193.1020  176.5030  137.8190 C   0  0  0  0  0  0  0  0  0  0  0  0
  190.7770  176.5200  138.5450 C   0  0  0  0  0  0  0  0  0  0  0  0
  193.4480  176.9230  139.0670 N   0  0  0  0  0  0  0  0  0  0  0  0
  190.5860  174.5710  135.9380 C   0  0  0  0  0  2  0  0  0  0  0  0
  191.7330  176.2890  137.5180 C   0  0  0  0  0  0  0  0  0  0  0  0
  189.4430  176.1120  138.2370 C   0  0  0  0  0  0  0  0  0  0  0  0
  189.1330  174.7190  135.4070 C   0  0  0  0  0  2  0  0  0  0  0  0
  191.2770  175.9440  136.0970 C   0  0  0  0  0  2  0  0  0  0  0  0
  190.2290  177.2260  140.9430 C   0  0  0  0  0  0  0  0  0  0  0  0
  187.7060  177.1950  142.6720 C   0  0  0  0  0  2  0  0  0  0  0  0
  190.1330  177.4810  143.4770 C   0  0  0  0  0  2  0  0  0  0  0  0
  188.0390  178.3110  141.6920 C   0  0  0  0  0  2  0  0  0  0  0  0
  188.6820  177.1740  143.8560 C   0  0  1  0  0  3  0  0  0  0  0  0
  190.5710  176.6320  142.2920 C   0  0  0  0  0  2  0  0  0  0  0  0
  189.0920  177.9070  140.7000 C   0  0  0  0  0  3  0  0  0  0  0  0
  188.1970  178.0320  145.0270 C   0  0  0  0  0  2  0  0  0  0  0  0
  187.0470  177.9130  147.2410 C   0  0  0  0  0  2  0  0  0  0  0  0
  189.3530  177.3810  147.1030 C   0  0  0  0  0  2  0  0  0  0  0  0
  188.0710  177.2600  146.3370 C   0  0  2  0  0  3  0  0  0  0  0  0
  187.7180  178.6620  148.2190 O   0  0  0  0  0  0  0  0  0  0  0  0
  188.9340  177.9940  148.4170 C   0  0  0  0  0  2  0  0  0  0  0  0
  194.7210  177.2900  136.1080 N   0  0  0  0  0  0  0  0  0  0  0  0
  194.8650  175.1030  136.5750 C   0  0  0  0  0  3  0  0  0  0  0  0
  195.7950  175.4870  135.6310 C   0  0  0  0  0  0  0  0  0  0  0  0
  194.2030  176.2900  136.8480 C   0  0  1  0  0  3  0  0  0  0  0  0
  195.6910  176.7980  135.3580 N   0  0  0  0  0  0  0  0  0  0  0  0
  196.7590  174.5760  134.9550 C   0  0  0  0  0  2  0  0  0  0  0  0
  198.1360  175.2110  134.9240 C   0  0  0  0  0  1  0  0  0  0  0  0
  187.0250  176.5910  135.2030 O   0  0  0  0  0  1  0  0  0  0  0  0
  186.7610  175.4230  135.9280 C   0  0  2  0  0  3  0  0  0  0  0  0
  185.6720  175.5980  137.0000 C   0  0  0  0  0  2  0  0  0  0  0  0
  184.5420  174.5560  137.0350 C   0  0  1  0  0  3  0  0  0  0  0  0
  184.9720  173.2590  137.6950 C   0  0  0  0  0  1  0  0  0  0  0  0
  183.3500  175.0820  137.6840 N   0  0  0  0  0  2  0  0  0  0  0  0
  183.5910  176.4900  137.9650 C   0  0  0  0  0  2  0  0  0  0  0  0
  182.2740  175.9250  139.8890 O   0  0  0  0  0  1  0  0  0  0  0  0
  182.6560  176.9860  139.0640 C   0  0  1  0  0  3  0  0  0  0  0  0
  183.0400  178.2070  141.0450 O   0  0  0  0  0  0  0  0  0  0  0  0
  183.2840  178.1030  139.8530 C   0  0  0  0  0  0  0  0  0  0  0  0
  185.0900  179.5990  140.1710 O   0  0  0  0  0  1  0  0  0  0  0  0
  184.2240  179.0740  139.2120 C   0  0  0  0  0  2  0  0  0  0  0  0
  1  3  1  0  0  0  0
  1 13  1  0  0  0  0
  2 10  3  0  0  0  0
  4 34  1  6  0  0  0
  4  2  1  0  0  0  0
  5  7  1  0  0  0  0
  6  1  2  0  0  0  0
  7  3  2  0  0  0  0
  8 12  1  0  0  0  0
  9  5  2  0  0  0  0
  9  6  1  0  0  0  0
 10  6  1  0  0  0  0
 11  8  1  0  0  0  0
 11  4  1  0  0  0  0
 12  9  1  0  0  0  0
 13 18  1  0  0  0  0
 14 17  1  0  0  0  0
 15 17  1  0  0  0  0
 16 14  1  0  0  0  0
 17 20  1  1  0  0  0
 18 15  1  0  0  0  0
 19 13  2  0  0  0  0
 19 16  1  0  0  0  0
 21 24  1  0  0  0  0
 22 25  1  0  0  0  0
 23 20  1  6  0  0  0
 23 22  1  0  0  0  0
 23 21  1  0  0  0  0
 24 25  1  0  0  0  0
 26 29  1  0  0  0  0
 27 29  1  0  0  0  0
 28 27  2  0  0  0  0
 29  5  1  1  0  0  0
 30 28  1  0  0  0  0
 30 26  2  0  0  0  0
 31 28  1  0  0  0  0
 32 31  1  0  0  0  0
 34 33  1  1  0  0  0
 34 35  1  0  0  0  0
 35 36  1  0  0  0  0
 36 38  1  0  0  0  0
 36 37  1  1  0  0  0
 38 39  1  0  0  0  0
 39 41  1  0  0  0  0
 41 43  1  0  0  0  0
 41 40  1  1  0  0  0
 43 42  2  0  0  0  0
 45 43  1  0  0  0  0
 45 44  1  0  0  0  0
M  END
>  <MODEL>
4

>  <REMARK>
 VINA RESULT:      -7.9      3.470      9.897
  Name = 
  13 active torsions:
  status: ('A' for Active; 'I' for Inactive)
    1  A    between atoms: C_1  and  C_14
    2  A    between atoms: C_4  and  C_21
    3  A    between atoms: C_4  and  N_33
    4  A    between atoms: C_8  and  C_28
    5  A    between atoms: C_8  and  C_45
    6  A    between atoms: C_9  and  C_18
    7  A    between atoms: C_12  and  C_38
    8  A    between atoms: C_13  and  C_26
    9  A    between atoms: C_17  and  C_34
   10  A    between atoms: C_17  and  C_35
   11  A    between atoms: C_21  and  C_38
   12  A    between atoms: C_28  and  C_41
   13  A    between atoms: N_33  and  C_41
                            x       y       z     vdW  Elec       q    Type
                         _______ _______ _______ _____ _____    ______ ____

>  <TORSDO>
F 13

$$$$
=
 OpenBabel11032420403D

 45 49  0  0  1  0  0  0  0  0999 V2000
  187.4370  177.7050  145.3640 C   0  0  0  0  0  0  0  0  0  0  0  0
  188.9240  177.3320  142.0190 C   0  0  0  0  0  0  0  0  0  0  0  0
  187.5810  177.4880  146.7360 C   0  0  0  0  0  3  0  0  0  0  0  0
  189.8640  176.8590  141.0120 C   0  0  2  0  0  3  0  0  0  0  0  0
  189.8980  176.9460  146.5140 C   0  0  0  0  0  0  0  0  0  0  0  0
  188.5770  177.5270  144.5520 C   0  0  0  0  0  0  0  0  0  0  0  0
  188.7760  177.1210  147.2650 N   0  0  0  0  0  0  0  0  0  0  0  0
  191.0940  175.9920  143.1590 C   0  0  0  0  0  2  0  0  0  0  0  0
  189.8280  177.1510  145.1130 C   0  0  0  0  0  0  0  0  0  0  0  0
  188.5300  177.5380  143.1240 C   0  0  0  0  0  0  0  0  0  0  0  0
  191.2130  176.5890  141.7300 C   0  0  0  0  0  2  0  0  0  0  0  0
  191.0850  177.0960  144.2390 C   0  0  0  0  0  2  0  0  0  0  0  0
  186.1000  178.1010  144.8450 C   0  0  0  0  0  0  0  0  0  0  0  0
  183.5940  179.7530  144.2580 C   0  0  0  0  0  2  0  0  0  0  0  0
  184.5900  177.8780  142.8050 C   0  0  0  0  0  2  0  0  0  0  0  0
  183.6880  178.7430  145.3930 C   0  0  0  0  0  2  0  0  0  0  0  0
  183.6280  179.0660  142.8860 C   0  0  1  0  0  3  0  0  0  0  0  0
  185.9610  178.2570  143.3460 C   0  0  0  0  0  2  0  0  0  0  0  0
  185.1080  178.3720  145.7140 C   0  0  0  0  0  3  0  0  0  0  0  0
  182.2280  178.7130  142.3770 C   0  0  0  0  0  2  0  0  0  0  0  0
  180.8310  179.5740  140.4950 C   0  0  0  0  0  2  0  0  0  0  0  0
  181.8550  177.4440  140.2980 C   0  0  0  0  0  2  0  0  0  0  0  0
  182.0880  178.8130  140.8610 C   0  0  2  0  0  3  0  0  0  0  0  0
  179.8400  178.6560  140.1170 O   0  0  0  0  0  0  0  0  0  0  0  0
  180.5390  177.5700  139.5700 C   0  0  0  0  0  2  0  0  0  0  0  0
  191.9650  175.5920  146.7590 N   0  0  0  0  0  0  0  0  0  0  0  0
  191.6260  177.0630  148.4160 C   0  0  0  0  0  3  0  0  0  0  0  0
  192.7930  176.3500  148.5960 C   0  0  0  0  0  0  0  0  0  0  0  0
  191.1330  176.5420  147.2290 C   0  0  0  0  0  0  0  0  0  0  0  0
  192.9780  175.4690  147.5990 N   0  0  0  0  0  2  0  0  0  0  0  0
  193.7110  176.4860  149.7600 C   0  0  0  0  0  2  0  0  0  0  0  0
  193.6130  177.8870  150.3330 C   0  0  0  0  0  1  0  0  0  0  0  0
  188.9350  178.6780  139.6990 O   0  0  0  0  0  1  0  0  0  0  0  0
  190.0580  177.8620  139.8740 C   0  0  2  0  0  3  0  0  0  0  0  0
  190.5310  177.1810  138.5780 C   0  0  0  0  0  2  0  0  0  0  0  0
  189.5560  177.1690  137.3910 C   0  0  1  0  0  3  0  0  0  0  0  0
  190.2090  176.6770  136.1120 C   0  0  0  0  0  1  0  0  0  0  0  0
  188.3650  176.3850  137.6840 N   0  0  0  0  0  2  0  0  0  0  0  0
  187.5660  176.3330  136.4680 C   0  0  0  0  0  2  0  0  0  0  0  0
  186.6520  178.0330  135.0440 O   0  0  0  0  0  1  0  0  0  0  0  0
  186.6710  177.5620  136.3600 C   0  0  1  0  0  3  0  0  0  0  0  0
  184.5820  176.4700  136.2690 O   0  0  0  0  0  0  0  0  0  0  0  0
  185.2830  177.2740  136.8640 C   0  0  0  0  0  0  0  0  0  0  0  0
  185.7310  178.7560  138.6550 O   0  0  0  0  0  1  0  0  0  0  0  0
  184.7520  177.9330  138.0980 C   0  0  0  0  0  2  0  0  0  0  0  0
  1  3  1  0  0  0  0
  2 10  3  0  0  0  0
  3  7  2  0  0  0  0
  4 34  1  6  0  0  0
  4 11  1  0  0  0  0
  4  2  1  0  0  0  0
  5 29  1  0  0  0  0
  5  7  1  0  0  0  0
  6  9  1  0  0  0  0
  6  1  2  0  0  0  0
  8 12  1  0  0  0  0
  9  5  2  0  0  0  0
 10  6  1  0  0  0  0
 11  8  1  0  0  0  0
 12  9  1  0  0  0  0
 13  1  1  0  0  0  0
 13 19  2  0  0  0  0
 14 16  1  0  0  0  0
 15 17  1  0  0  0  0
 15 18  1  0  0  0  0
 16 19  1  0  0  0  0
 17 20  1  1  0  0  0
 17 14  1  0  0  0  0
 18 13  1  0  0  0  0
 21 23  1  0  0  0  0
 22 23  1  0  0  0  0
 23 20  1  1  0  0  0
 24 21  1  0  0  0  0
 25 24  1  0  0  0  0
 25 22  1  0  0  0  0
 26 29  2  0  0  0  0
 26 30  1  0  0  0  0
 27 28  2  0  0  0  0
 28 31  1  0  0  0  0
 29 27  1  0  0  0  0
 30 28  1  0  0  0  0
 31 32  1  0  0  0  0
 34 33  1  6  0  0  0
 35 34  1  0  0  0  0
 36 37  1  6  0  0  0
 36 38  1  0  0  0  0
 36 35  1  0  0  0  0
 39 38  1  0  0  0  0
 41 40  1  6  0  0  0
 41 39  1  0  0  0  0
 41 43  1  0  0  0  0
 42 43  2  0  0  0  0
 43 45  1  0  0  0  0
 45 44  1  0  0  0  0
M  END
>  <MODEL>
5

>  <REMARK>
 VINA RESULT:      -7.8      3.750     10.639
  Name = 
  13 active torsions:
  status: ('A' for Active; 'I' for Inactive)
    1  A    between atoms: C_1  and  C_14
    2  A    between atoms: C_4  and  C_21
    3  A    between atoms: C_4  and  N_33
    4  A    between atoms: C_8  and  C_28
    5  A    between atoms: C_8  and  C_45
    6  A    between atoms: C_9  and  C_18
    7  A    between atoms: C_12  and  C_38
    8  A    between atoms: C_13  and  C_26
    9  A    between atoms: C_17  and  C_34
   10  A    between atoms: C_17  and  C_35
   11  A    between atoms: C_21  and  C_38
   12  A    between atoms: C_28  and  C_41
   13  A    between atoms: N_33  and  C_41
                            x       y       z     vdW  Elec       q    Type
                         _______ _______ _______ _____ _____    ______ ____

>  <TORSDO>
F 13

$$$$
=
 OpenBabel11032420403D

 45 49  0  0  1  0  0  0  0  0999 V2000
  187.2380  178.3560  141.4650 C   0  0  0  0  0  0  0  0  0  0  0  0
  189.1500  177.6930  138.3910 C   0  0  0  0  0  0  0  0  0  0  0  0
  186.0440  178.8210  142.0190 C   0  0  0  0  0  3  0  0  0  0  0  0
  189.4620  177.7320  136.9690 C   0  0  2  0  0  3  0  0  0  0  0  0
  184.9320  178.7970  139.9050 C   0  0  0  0  0  0  0  0  0  0  0  0
  187.2620  178.1120  140.0750 C   0  0  0  0  0  0  0  0  0  0  0  0
  184.9480  179.0270  141.2470 N   0  0  0  0  0  0  0  0  0  0  0  0
  187.0470  178.7480  136.8850 C   0  0  0  0  0  2  0  0  0  0  0  0
  186.1080  178.3220  139.2730 C   0  0  0  0  0  0  0  0  0  0  0  0
  188.4580  177.8120  139.3540 C   0  0  0  0  0  0  0  0  0  0  0  0
  188.1180  177.8520  136.2040 C   0  0  0  0  0  2  0  0  0  0  0  0
  186.1090  177.9230  137.7940 C   0  0  0  0  0  2  0  0  0  0  0  0
  188.4070  178.1540  142.3640 C   0  0  0  0  0  0  0  0  0  0  0  0
  190.7960  178.7330  144.1830 C   0  0  0  0  0  2  0  0  0  0  0  0
  189.2470  176.6810  144.2670 C   0  0  0  0  0  2  0  0  0  0  0  0
  190.9270  178.4090  142.7020 C   0  0  0  0  0  2  0  0  0  0  0  0
  190.3070  177.5200  144.9850 C   0  0  1  0  0  3  0  0  0  0  0  0
  188.1310  177.5660  143.7320 C   0  0  0  0  0  2  0  0  0  0  0  0
  189.6270  178.5610  141.9650 C   0  0  0  0  0  3  0  0  0  0  0  0
  191.4620  176.6650  145.5110 C   0  0  0  0  0  2  0  0  0  0  0  0
  191.1960  177.2000  147.9360 C   0  0  0  0  0  2  0  0  0  0  0  0
  192.3820  175.2460  147.3040 C   0  0  0  0  0  2  0  0  0  0  0  0
  191.2130  176.0930  146.9030 C   0  0  2  0  0  3  0  0  0  0  0  0
  192.4280  177.2110  148.6070 O   0  0  0  0  0  0  0  0  0  0  0  0
  192.8660  175.8790  148.5850 C   0  0  0  0  0  2  0  0  0  0  0  0
  182.7720  178.1010  138.8940 N   0  0  0  0  0  0  0  0  0  0  0  0
  183.1910  180.2980  138.7510 C   0  0  0  0  0  3  0  0  0  0  0  0
  181.9750  179.9710  138.1870 C   0  0  0  0  0  0  0  0  0  0  0  0
  183.6620  179.0690  139.1880 C   0  0  1  0  0  3  0  0  0  0  0  0
  181.7420  178.6510  138.2750 N   0  0  0  0  0  0  0  0  0  0  0  0
  181.0530  180.9300  137.5190 C   0  0  0  0  0  2  0  0  0  0  0  0
  180.7940  180.4880  136.0910 C   0  0  0  0  0  1  0  0  0  0  0  0
  189.3840  175.5320  135.9420 O   0  0  0  0  0  1  0  0  0  0  0  0
  190.2310  176.4950  136.5040 C   0  0  2  0  0  3  0  0  0  0  0  0
  191.1490  175.9370  137.6050 C   0  0  0  0  0  2  0  0  0  0  0  0
  192.2950  176.8380  138.0920 C   0  0  1  0  0  3  0  0  0  0  0  0
  192.4300  176.8360  139.6030 C   0  0  0  0  0  1  0  0  0  0  0  0
  193.5600  176.4760  137.4710 N   0  0  0  0  0  2  0  0  0  0  0  0
  193.8280  175.0840  137.8030 C   0  0  0  0  0  2  0  0  0  0  0  0
  195.6400  175.6080  136.3230 O   0  0  0  0  0  1  0  0  0  0  0  0
  195.1470  174.6280  137.1890 C   0  0  1  0  0  3  0  0  0  0  0  0
  195.7600  173.8900  139.3430 O   0  0  0  0  0  0  0  0  0  0  0  0
  196.1510  174.2710  138.2510 C   0  0  0  0  0  0  0  0  0  0  0  0
  198.1600  175.4650  138.6200 O   0  0  0  0  0  1  0  0  0  0  0  0
  197.6220  174.3460  137.9860 C   0  0  0  0  0  2  0  0  0  0  0  0
  1  3  1  0  0  0  0
  1 13  1  0  0  0  0
  2 10  3  0  0  0  0
  4 34  1  6  0  0  0
  4  2  1  0  0  0  0
  5  7  1  0  0  0  0
  6  1  2  0  0  0  0
  7  3  2  0  0  0  0
  8 12  1  0  0  0  0
  9  5  2  0  0  0  0
  9  6  1  0  0  0  0
 10  6  1  0  0  0  0
 11  8  1  0  0  0  0
 11  4  1  0  0  0  0
 12  9  1  0  0  0  0
 13 18  1  0  0  0  0
 14 17  1  0  0  0  0
 15 17  1  0  0  0  0
 16 14  1  0  0  0  0
 17 20  1  6  0  0  0
 18 15  1  0  0  0  0
 19 13  2  0  0  0  0
 19 16  1  0  0  0  0
 21 24  1  0  0  0  0
 22 25  1  0  0  0  0
 23 20  1  6  0  0  0
 23 22  1  0  0  0  0
 23 21  1  0  0  0  0
 25 24  1  0  0  0  0
 26 29  1  0  0  0  0
 27 29  1  0  0  0  0
 28 30  1  0  0  0  0
 28 27  2  0  0  0  0
 29  5  1  1  0  0  0
 30 26  2  0  0  0  0
 31 28  1  0  0  0  0
 32 31  1  0  0  0  0
 34 33  1  1  0  0  0
 34 35  1  0  0  0  0
 35 36  1  0  0  0  0
 36 37  1  1  0  0  0
 38 39  1  0  0  0  0
 38 36  1  0  0  0  0
 41 40  1  1  0  0  0
 41 39  1  0  0  0  0
 41 43  1  0  0  0  0
 43 42  2  0  0  0  0
 45 43  1  0  0  0  0
 45 44  1  0  0  0  0
M  END
>  <MODEL>
6

>  <REMARK>
 VINA RESULT:      -7.7      2.883      8.570
  Name = 
  13 active torsions:
  status: ('A' for Active; 'I' for Inactive)
    1  A    between atoms: C_1  and  C_14
    2  A    between atoms: C_4  and  C_21
    3  A    between atoms: C_4  and  N_33
    4  A    between atoms: C_8  and  C_28
    5  A    between atoms: C_8  and  C_45
    6  A    between atoms: C_9  and  C_18
    7  A    between atoms: C_12  and  C_38
    8  A    between atoms: C_13  and  C_26
    9  A    between atoms: C_17  and  C_34
   10  A    between atoms: C_17  and  C_35
   11  A    between atoms: C_21  and  C_38
   12  A    between atoms: C_28  and  C_41
   13  A    between atoms: N_33  and  C_41
                            x       y       z     vdW  Elec       q    Type
                         _______ _______ _______ _____ _____    ______ ____

>  <TORSDO>
F 13

$$$$
=
 OpenBabel11032420403D

 45 49  0  0  1  0  0  0  0  0999 V2000
  186.5030  178.1110  144.0770 C   0  0  0  0  0  0  0  0  0  0  0  0
  188.5140  177.5200  141.0520 C   0  0  0  0  0  0  0  0  0  0  0  0
  186.4330  178.0170  145.4690 C   0  0  0  0  0  3  0  0  0  0  0  0
  189.6160  177.0040  140.2520 C   0  0  2  0  0  3  0  0  0  0  0  0
  188.7690  177.5570  145.6610 C   0  0  0  0  0  0  0  0  0  0  0  0
  187.7630  177.9140  143.4720 C   0  0  0  0  0  0  0  0  0  0  0  0
  187.5370  177.7470  146.2090 N   0  0  0  0  0  0  0  0  0  0  0  0
  190.5110  176.3740  142.6340 C   0  0  0  0  0  2  0  0  0  0  0  0
  188.9180  177.6400  144.2540 C   0  0  0  0  0  0  0  0  0  0  0  0
  187.9430  177.8020  142.0600 C   0  0  0  0  0  0  0  0  0  0  0  0
  190.8400  176.8530  141.1930 C   0  0  0  0  0  2  0  0  0  0  0  0
  190.2990  177.5650  143.5950 C   0  0  0  0  0  2  0  0  0  0  0  0
  185.2550  178.4060  143.3220 C   0  0  0  0  0  0  0  0  0  0  0  0
  182.9530  178.1610  141.3240 C   0  0  0  0  0  2  0  0  0  0  0  0
  182.8960  179.3250  143.6180 C   0  0  0  0  0  2  0  0  0  0  0  0
  184.1960  179.0040  141.0740 C   0  0  0  0  0  2  0  0  0  0  0  0
  182.0910  178.7450  142.4510 C   0  0  1  0  0  3  0  0  0  0  0  0
  183.9520  178.3340  144.0880 C   0  0  0  0  0  2  0  0  0  0  0  0
  185.3250  178.6470  141.9990 C   0  0  0  0  0  3  0  0  0  0  0  0
  181.0390  179.7260  141.9310 C   0  0  0  0  0  2  0  0  0  0  0  0
  179.5690  177.8680  142.7230 C   0  0  0  0  0  2  0  0  0  0  0  0
  179.2610  178.7400  140.5390 C   0  0  0  0  0  2  0  0  0  0  0  0
  179.6230  179.1580  141.9320 C   0  0  2  0  0  3  0  0  0  0  0  0
  179.5650  176.7890  141.8280 O   0  0  0  0  0  0  0  0  0  0  0  0
  178.9310  177.2740  140.6750 C   0  0  0  0  0  2  0  0  0  0  0  0
  190.0970  177.9800  147.7170 N   0  0  0  0  0  0  0  0  0  0  0  0
  190.8280  176.2560  146.4870 C   0  0  0  0  0  3  0  0  0  0  0  0
  191.5930  176.4360  147.6210 C   0  0  0  0  0  0  0  0  0  0  0  0
  189.8860  177.2670  146.5930 C   0  0  0  0  0  0  0  0  0  0  0  0
  191.1450  177.4760  148.3430 N   0  0  0  0  0  2  0  0  0  0  0  0
  192.7880  175.6280  147.9880 C   0  0  0  0  0  2  0  0  0  0  0  0
  193.2450  175.9880  149.3890 C   0  0  0  0  0  1  0  0  0  0  0  0
  188.9000  178.7660  138.7410 O   0  0  0  0  0  1  0  0  0  0  0  0
  189.9600  177.9150  139.0730 C   0  0  2  0  0  3  0  0  0  0  0  0
  190.5100  177.1230  137.8730 C   0  0  0  0  0  2  0  0  0  0  0  0
  189.8270  175.7890  137.5340 C   0  0  1  0  0  3  0  0  0  0  0  0
  189.3010  175.7550  136.1120 C   0  0  0  0  0  1  0  0  0  0  0  0
  190.7110  174.6590  137.7740 N   0  0  0  0  0  2  0  0  0  0  0  0
  192.0570  175.1870  137.9470 C   0  0  0  0  0  2  0  0  0  0  0  0
  192.7550  174.8970  135.6700 O   0  0  0  0  0  1  0  0  0  0  0  0
  193.0280  174.5100  136.9850 C   0  0  1  0  0  3  0  0  0  0  0  0
  195.0630  175.6860  136.7880 O   0  0  0  0  0  0  0  0  0  0  0  0
  194.4570  174.7940  137.3610 C   0  0  0  0  0  0  0  0  0  0  0  0
  195.9330  174.8810  139.2100 O   0  0  0  0  0  1  0  0  0  0  0  0
  195.1450  174.0220  138.4430 C   0  0  0  0  0  2  0  0  0  0  0  0
  1  3  1  0  0  0  0
  2 10  3  0  0  0  0
  3  7  2  0  0  0  0
  4 34  1  6  0  0  0
  4  2  1  0  0  0  0
  4 11  1  0  0  0  0
  5  7  1  0  0  0  0
  5 29  1  0  0  0  0
  6  1  2  0  0  0  0
  6  9  1  0  0  0  0
  8 12  1  0  0  0  0
  9  5  2  0  0  0  0
 10  6  1  0  0  0  0
 11  8  1  0  0  0  0
 12  9  1  0  0  0  0
 13  1  1  0  0  0  0
 13 18  1  0  0  0  0
 14 17  1  0  0  0  0
 15 18  1  0  0  0  0
 16 14  1  0  0  0  0
 16 19  1  0  0  0  0
 17 20  1  6  0  0  0
 17 15  1  0  0  0  0
 19 13  2  0  0  0  0
 22 25  1  0  0  0  0
 22 23  1  0  0  0  0
 23 20  1  6  0  0  0
 23 21  1  0  0  0  0
 24 21  1  0  0  0  0
 25 24  1  0  0  0  0
 26 30  1  0  0  0  0
 27 29  1  0  0  0  0
 27 28  2  0  0  0  0
 28 31  1  0  0  0  0
 28 30  1  0  0  0  0
 29 26  2  0  0  0  0
 31 32  1  0  0  0  0
 34 33  1  6  0  0  0
 35 34  1  0  0  0  0
 36 37  1  6  0  0  0
 36 38  1  0  0  0  0
 36 35  1  0  0  0  0
 38 39  1  0  0  0  0
 41 40  1  6  0  0  0
 41 43  1  0  0  0  0
 41 39  1  0  0  0  0
 42 43  2  0  0  0  0
 43 45  1  0  0  0  0
 45 44  1  0  0  0  0
M  END
>  <MODEL>
7

>  <REMARK>
 VINA RESULT:      -7.6      3.384     11.006
  Name = 
  13 active torsions:
  status: ('A' for Active; 'I' for Inactive)
    1  A    between atoms: C_1  and  C_14
    2  A    between atoms: C_4  and  C_21
    3  A    between atoms: C_4  and  N_33
    4  A    between atoms: C_8  and  C_28
    5  A    between atoms: C_8  and  C_45
    6  A    between atoms: C_9  and  C_18
    7  A    between atoms: C_12  and  C_38
    8  A    between atoms: C_13  and  C_26
    9  A    between atoms: C_17  and  C_34
   10  A    between atoms: C_17  and  C_35
   11  A    between atoms: C_21  and  C_38
   12  A    between atoms: C_28  and  C_41
   13  A    between atoms: N_33  and  C_41
                            x       y       z     vdW  Elec       q    Type
                         _______ _______ _______ _____ _____    ______ ____

>  <TORSDO>
F 13

$$$$
=
 OpenBabel11032420403D

 45 49  0  0  1  0  0  0  0  0999 V2000
  185.3080  178.2980  144.9130 C   0  0  0  0  0  0  0  0  0  0  0  0
  187.3180  178.1640  141.8330 C   0  0  0  0  0  0  0  0  0  0  0  0
  184.0720  178.6020  145.4880 C   0  0  0  0  0  3  0  0  0  0  0  0
  187.6510  178.4040  140.4360 C   0  0  2  0  0  3  0  0  0  0  0  0
  183.0020  178.7590  143.3580 C   0  0  0  0  0  0  0  0  0  0  0  0
  185.3750  178.2320  143.5050 C   0  0  0  0  0  0  0  0  0  0  0  0
  182.9770  178.8210  144.7180 N   0  0  0  0  0  0  0  0  0  0  0  0
  185.1670  179.2420  140.4120 C   0  0  0  0  0  2  0  0  0  0  0  0
  184.2220  178.4540  142.7040 C   0  0  0  0  0  0  0  0  0  0  0  0
  186.6030  178.1120  142.7850 C   0  0  0  0  0  0  0  0  0  0  0  0
  186.3160  178.5190  139.6550 C   0  0  0  0  0  2  0  0  0  0  0  0
  184.2800  178.2430  141.1870 C   0  0  0  0  0  2  0  0  0  0  0  0
  186.4720  178.0720  145.8120 C   0  0  0  0  0  0  0  0  0  0  0  0
  188.2120  176.9860  148.0800 C   0  0  0  0  0  2  0  0  0  0  0  0
  189.0120  177.8590  145.7960 C   0  0  0  0  0  2  0  0  0  0  0  0
  187.4450  178.2970  148.1650 C   0  0  0  0  0  2  0  0  0  0  0  0
  189.3550  177.0650  147.0600 C   0  0  1  0  0  3  0  0  0  0  0  0
  187.6850  177.3940  145.2120 C   0  0  0  0  0  2  0  0  0  0  0  0
  186.3770  178.4050  147.1140 C   0  0  0  0  0  3  0  0  0  0  0  0
  190.6700  177.5260  147.6920 C   0  0  0  0  0  2  0  0  0  0  0  0
  191.7090  177.1330  145.4550 C   0  0  0  0  0  2  0  0  0  0  0  0
  192.0690  175.5600  147.1920 C   0  0  0  0  0  2  0  0  0  0  0  0
  191.9090  177.0300  146.9520 C   0  0  2  0  0  3  0  0  0  0  0  0
  191.4000  175.8610  144.9510 O   0  0  0  0  0  0  0  0  0  0  0  0
  192.0530  174.9620  145.8060 C   0  0  0  0  0  2  0  0  0  0  0  0
  180.5270  178.9470  143.2530 N   0  0  0  0  0  0  0  0  0  0  0  0
  181.5690  179.4030  141.3220 C   0  0  0  0  0  3  0  0  0  0  0  0
  180.2000  179.5370  141.2090 C   0  0  0  0  0  0  0  0  0  0  0  0
  181.7280  179.0250  142.6460 C   0  0  1  0  0  3  0  0  0  0  0  0
  179.5920  179.2540  142.3720 N   0  0  0  0  0  0  0  0  0  0  0  0
  179.4730  179.8950  139.9610 C   0  0  0  0  0  2  0  0  0  0  0  0
  180.1400  181.0850  139.2970 C   0  0  0  0  0  1  0  0  0  0  0  0
  189.5990  176.9720  140.6740 O   0  0  0  0  0  1  0  0  0  0  0  0
  188.5200  177.2930  139.8430 C   0  0  2  0  0  3  0  0  0  0  0  0
  188.9310  177.5950  138.3910 C   0  0  0  0  0  2  0  0  0  0  0  0
  188.5140  176.5820  137.3140 C   0  0  1  0  0  3  0  0  0  0  0  0
  187.6090  177.1960  136.2630 C   0  0  0  0  0  1  0  0  0  0  0  0
  189.6710  175.9620  136.6850 N   0  0  0  0  0  2  0  0  0  0  0  0
  190.8600  176.5860  137.2470 C   0  0  0  0  0  2  0  0  0  0  0  0
  191.3270  174.2690  137.6550 O   0  0  0  0  0  1  0  0  0  0  0  0
  191.6850  175.5680  138.0280 C   0  0  1  0  0  3  0  0  0  0  0  0
  193.5770  176.9530  137.7760 O   0  0  0  0  0  0  0  0  0  0  0  0
  193.1600  175.8080  137.8520 C   0  0  0  0  0  0  0  0  0  0  0  0
  195.3550  175.1170  137.2990 O   0  0  0  0  0  1  0  0  0  0  0  0
  194.1310  174.6710  137.7970 C   0  0  0  0  0  2  0  0  0  0  0  0
  1  3  1  0  0  0  0
  1 13  1  0  0  0  0
  2 10  3  0  0  0  0
  4 34  1  6  0  0  0
  4  2  1  0  0  0  0
  5  7  1  0  0  0  0
  6  1  2  0  0  0  0
  7  3  2  0  0  0  0
  8 12  1  0  0  0  0
  9  5  2  0  0  0  0
  9  6  1  0  0  0  0
 10  6  1  0  0  0  0
 11  8  1  0  0  0  0
 11  4  1  0  0  0  0
 12  9  1  0  0  0  0
 13 19  2  0  0  0  0
 14 16  1  0  0  0  0
 15 17  1  0  0  0  0
 17 20  1  1  0  0  0
 17 14  1  0  0  0  0
 18 15  1  0  0  0  0
 18 13  1  0  0  0  0
 19 16  1  0  0  0  0
 21 23  1  0  0  0  0
 23 22  1  0  0  0  0
 23 20  1  1  0  0  0
 24 21  1  0  0  0  0
 24 25  1  0  0  0  0
 25 22  1  0  0  0  0
 27 29  1  0  0  0  0
 28 27  2  0  0  0  0
 28 30  1  0  0  0  0
 29 26  1  0  0  0  0
 29  5  1  1  0  0  0
 30 26  2  0  0  0  0
 31 28  1  0  0  0  0
 32 31  1  0  0  0  0
 34 33  1  1  0  0  0
 35 34  1  0  0  0  0
 36 37  1  6  0  0  0
 36 35  1  0  0  0  0
 38 39  1  0  0  0  0
 38 36  1  0  0  0  0
 39 41  1  0  0  0  0
 41 40  1  6  0  0  0
 42 43  2  0  0  0  0
 43 41  1  0  0  0  0
 44 45  1  0  0  0  0
 45 43  1  0  0  0  0
M  END
>  <MODEL>
8

>  <REMARK>
 VINA RESULT:      -7.6      2.854      8.756
  Name = 
  13 active torsions:
  status: ('A' for Active; 'I' for Inactive)
    1  A    between atoms: C_1  and  C_14
    2  A    between atoms: C_4  and  C_21
    3  A    between atoms: C_4  and  N_33
    4  A    between atoms: C_8  and  C_28
    5  A    between atoms: C_8  and  C_45
    6  A    between atoms: C_9  and  C_18
    7  A    between atoms: C_12  and  C_38
    8  A    between atoms: C_13  and  C_26
    9  A    between atoms: C_17  and  C_34
   10  A    between atoms: C_17  and  C_35
   11  A    between atoms: C_21  and  C_38
   12  A    between atoms: C_28  and  C_41
   13  A    between atoms: N_33  and  C_41
                            x       y       z     vdW  Elec       q    Type
                         _______ _______ _______ _____ _____    ______ ____

>  <TORSDO>
F 13

$$$$
=
 OpenBabel11032420403D

 45 49  0  0  1  0  0  0  0  0999 V2000
  185.7490  178.2420  142.7130 C   0  0  0  0  0  0  0  0  0  0  0  0
  188.3760  177.5010  140.2430 C   0  0  0  0  0  0  0  0  0  0  0  0
  185.3780  178.2350  144.0590 C   0  0  0  0  0  3  0  0  0  0  0  0
  189.6290  176.9590  139.7380 C   0  0  2  0  0  3  0  0  0  0  0  0
  187.6190  177.8390  144.7840 C   0  0  0  0  0  0  0  0  0  0  0  0
  187.1120  178.0330  142.4100 C   0  0  0  0  0  0  0  0  0  0  0  0
  186.2970  178.0370  145.0370 N   0  0  0  0  0  0  0  0  0  0  0  0
  189.9880  176.5030  142.2940 C   0  0  0  0  0  2  0  0  0  0  0  0
  188.0710  177.8350  143.4400 C   0  0  0  0  0  0  0  0  0  0  0  0
  187.5960  177.8350  141.0810 C   0  0  0  0  0  0  0  0  0  0  0  0
  190.6190  176.8960  140.9290 C   0  0  0  0  0  2  0  0  0  0  0  0
  189.5630  177.7480  143.1040 C   0  0  0  0  0  2  0  0  0  0  0  0
  184.6940  178.4600  141.6860 C   0  0  0  0  0  0  0  0  0  0  0  0
  183.1240  178.3000  139.0670 C   0  0  0  0  0  2  0  0  0  0  0  0
  182.1720  178.7180  141.4200 C   0  0  0  0  0  2  0  0  0  0  0  0
  184.0890  179.4280  139.4000 C   0  0  0  0  0  2  0  0  0  0  0  0
  181.8820  178.3350  139.9670 C   0  0  1  0  0  3  0  0  0  0  0  0
  183.3220  177.8900  141.9760 C   0  0  0  0  0  2  0  0  0  0  0  0
  185.0120  179.0780  140.5320 C   0  0  0  0  0  3  0  0  0  0  0  0
  180.7490  179.1700  139.3640 C   0  0  0  0  0  2  0  0  0  0  0  0
  180.0130  181.5390  139.6490 C   0  0  0  0  0  2  0  0  0  0  0  0
  181.1770  180.9160  137.6790 C   0  0  0  0  0  2  0  0  0  0  0  0
  181.1190  180.6340  139.1500 C   0  0  2  0  0  3  0  0  0  0  0  0
  179.2670  181.9900  138.5500 O   0  0  0  0  0  0  0  0  0  0  0  0
  180.1760  182.0280  137.4830 C   0  0  0  0  0  2  0  0  0  0  0  0
  188.1070  177.8660  147.2200 N   0  0  0  0  0  0  0  0  0  0  0  0
  189.8150  177.1700  145.9450 C   0  0  0  0  0  3  0  0  0  0  0  0
  190.1370  177.1510  147.2870 C   0  0  0  0  0  0  0  0  0  0  0  0
  188.5080  177.6340  145.9540 C   0  0  0  0  0  0  0  0  0  0  0  0
  189.1050  177.5770  148.0350 N   0  0  0  0  0  2  0  0  0  0  0  0
  191.4600  176.7630  147.8470 C   0  0  0  0  0  2  0  0  0  0  0  0
  192.0570  175.6350  147.0270 C   0  0  0  0  0  1  0  0  0  0  0  0
  189.3510  178.8280  138.2120 O   0  0  0  0  0  1  0  0  0  0  0  0
  190.2150  177.7990  138.6020 C   0  0  2  0  0  3  0  0  0  0  0  0
  190.7020  176.9280  137.4310 C   0  0  0  0  0  2  0  0  0  0  0  0
  189.8120  176.8680  136.1790 C   0  0  1  0  0  3  0  0  0  0  0  0
  190.5580  176.3450  134.9660 C   0  0  0  0  0  1  0  0  0  0  0  0
  188.6120  176.0790  136.4140 N   0  0  0  0  0  2  0  0  0  0  0  0
  187.4820  176.8410  135.9020 C   0  0  0  0  0  2  0  0  0  0  0  0
  186.3950  178.4050  137.3600 O   0  0  0  0  0  1  0  0  0  0  0  0
  186.4390  177.0560  136.9940 C   0  0  1  0  0  3  0  0  0  0  0  0
  184.4960  177.1170  135.6590 O   0  0  0  0  0  0  0  0  0  0  0  0
  185.0870  176.5540  136.5660 C   0  0  0  0  0  0  0  0  0  0  0  0
  185.2650  174.2350  137.0090 O   0  0  0  0  0  1  0  0  0  0  0  0
  184.4630  175.3580  137.2140 C   0  0  0  0  0  2  0  0  0  0  0  0
  1  3  1  0  0  0  0
  2 10  3  0  0  0  0
  3  7  2  0  0  0  0
  4 34  1  6  0  0  0
  4  2  1  0  0  0  0
  4 11  1  0  0  0  0
  5  7  1  0  0  0  0
  5 29  1  0  0  0  0
  6  1  2  0  0  0  0
  6  9  1  0  0  0  0
  8 12  1  0  0  0  0
  9  5  2  0  0  0  0
 10  6  1  0  0  0  0
 11  8  1  0  0  0  0
 12  9  1  0  0  0  0
 13 18  1  0  0  0  0
 13  1  1  0  0  0  0
 14 16  1  0  0  0  0
 14 17  1  0  0  0  0
 15 18  1  0  0  0  0
 16 19  1  0  0  0  0
 17 20  1  6  0  0  0
 17 15  1  0  0  0  0
 19 13  2  0  0  0  0
 22 23  1  0  0  0  0
 23 20  1  6  0  0  0
 23 21  1  0  0  0  0
 24 21  1  0  0  0  0
 25 22  1  0  0  0  0
 25 24  1  0  0  0  0
 26 30  1  0  0  0  0
 27 29  1  0  0  0  0
 27 28  2  0  0  0  0
 28 31  1  0  0  0  0
 28 30  1  0  0  0  0
 29 26  2  0  0  0  0
 32 31  1  0  0  0  0
 34 33  1  6  0  0  0
 35 34  1  0  0  0  0
 36 37  1  6  0  0  0
 36 38  1  0  0  0  0
 36 35  1  0  0  0  0
 39 38  1  0  0  0  0
 39 41  1  0  0  0  0
 41 40  1  6  0  0  0
 42 43  2  0  0  0  0
 43 41  1  0  0  0  0
 43 45  1  0  0  0  0
 44 45  1  0  0  0  0
M  END
>  <MODEL>
9

>  <REMARK>
 VINA RESULT:      -7.5      3.937     10.150
  Name = 
  13 active torsions:
  status: ('A' for Active; 'I' for Inactive)
    1  A    between atoms: C_1  and  C_14
    2  A    between atoms: C_4  and  C_21
    3  A    between atoms: C_4  and  N_33
    4  A    between atoms: C_8  and  C_28
    5  A    between atoms: C_8  and  C_45
    6  A    between atoms: C_9  and  C_18
    7  A    between atoms: C_12  and  C_38
    8  A    between atoms: C_13  and  C_26
    9  A    between atoms: C_17  and  C_34
   10  A    between atoms: C_17  and  C_35
   11  A    between atoms: C_21  and  C_38
   12  A    between atoms: C_28  and  C_41
   13  A    between atoms: N_33  and  C_41
                            x       y       z     vdW  Elec       q    Type
                         _______ _______ _______ _____ _____    ______ ____

>  <TORSDO>
F 13

$$$$
