=
 OpenBabel11032419183D

 25 27  0  0  1  0  0  0  0  0999 V2000
  188.3670  178.5580  141.0640 C   0  0  0  0  0  2  0  0  0  0  0  0
  189.5260  178.1520  137.6950 N   0  0  0  0  0  2  0  0  0  0  0  0
  189.6920  176.8670  139.7680 C   0  0  0  0  0  2  0  0  0  0  0  0
  190.0200  176.8860  138.2680 C   0  0  2  0  0  0  0  0  0  0  0  0
  188.9700  178.1320  139.9540 C   0  0  0  0  0  0  0  0  0  0  0  0
  188.8780  178.8260  138.7380 N   0  0  0  0  0  0  0  0  0  0  0  0
  190.7930  178.2510  143.2270 C   0  0  0  0  0  3  0  0  0  0  0  0
  187.6550  176.9030  144.1750 N   0  0  0  0  0  0  0  0  0  0  0  0
  189.4760  177.7970  143.2620 C   0  0  0  0  0  0  0  0  0  0  0  0
  187.3230  177.3630  142.9720 N   0  0  0  0  0  0  0  0  0  0  0  0
  188.4160  177.9020  142.3820 C   0  0  0  0  0  0  0  0  0  0  0  0
  189.7260  176.9010  145.4890 C   0  0  0  0  0  3  0  0  0  0  0  0
  191.5960  177.9970  144.3530 C   0  0  0  0  0  2  0  0  0  0  0  0
  191.0710  177.3180  145.4830 C   0  0  0  0  0  0  0  0  0  0  0  0
  188.9600  177.1630  144.3570 C   0  0  0  0  0  0  0  0  0  0  0  0
  192.1400  175.7360  147.0560 C   0  0  0  0  0  1  0  0  0  0  0  0
  191.8610  177.0550  146.6060 O   0  0  0  0  0  0  0  0  0  0  0  0
  191.5380  176.8090  138.0520 C   0  0  0  0  0  2  0  0  0  0  0  0
  192.0450  175.4050  137.7360 C   0  0  0  0  0  2  0  0  0  0  0  0
  193.5600  175.3880  137.6880 C   0  0  0  0  0  1  0  0  0  0  0  0
  189.3010  175.7140  137.5970 C   0  0  0  0  0  2  0  0  0  0  0  0
  188.5730  176.1540  136.4160 N   0  0  0  0  0  2  0  0  0  0  0  0
  187.2130  175.6680  136.5610 C   0  0  0  0  0  2  0  0  0  0  0  0
  186.5060  176.5170  137.4110 O   0  0  0  0  0  0  0  0  0  0  0  0
  186.0800  177.5590  136.5890 C   0  0  0  0  0  1  0  0  0  0  0  0
  1 11  1  0  0  0  0
  2  4  1  0  0  0  0
  2  6  1  0  0  0  0
  3  5  1  0  0  0  0
  4 21  1  6  0  0  0
  4  3  1  0  0  0  0
  5  1  1  0  0  0  0
  6  5  2  0  0  0  0
  7  9  2  0  0  0  0
  7 13  1  0  0  0  0
  8 15  2  0  0  0  0
  9 15  1  0  0  0  0
 10  8  1  0  0  0  0
 11 10  2  0  0  0  0
 11  9  1  0  0  0  0
 13 14  1  0  0  0  0
 14 12  2  0  0  0  0
 14 17  1  0  0  0  0
 15 12  1  0  0  0  0
 17 16  1  0  0  0  0
 18  4  1  0  0  0  0
 19 18  1  0  0  0  0
 20 19  1  0  0  0  0
 22 23  1  0  0  0  0
 22 21  1  0  0  0  0
 23 24  1  0  0  0  0
 25 24  1  0  0  0  0
M  END
>  <MODEL>
1

>  <REMARK>
 VINA RESULT:      -6.5      0.000      0.000
  Name = 
  8 active torsions:
  status: ('A' for Active; 'I' for Inactive)
    1  A    between atoms: N_2  and  C_15
    2  A    between atoms: N_2  and  C_21
    3  A    between atoms: O_5  and  C_23
    4  A    between atoms: C_6  and  C_13
    5  A    between atoms: C_7  and  C_10
    6  A    between atoms: O_8  and  C_21
    7  A    between atoms: C_10  and  C_19
    8  A    between atoms: C_15  and  C_19
                            x       y       z     vdW  Elec       q    Type
                         _______ _______ _______ _____ _____    ______ ____

>  <TORSDO>
F 8

$$$$
=
 OpenBabel11032419183D

 25 27  0  0  1  0  0  0  0  0999 V2000
  185.3190  179.2640  141.9050 C   0  0  0  0  0  2  0  0  0  0  0  0
  183.7670  178.4930  138.7650 N   0  0  0  0  0  2  0  0  0  0  0  0
  183.2450  178.0900  141.1190 C   0  0  0  0  0  2  0  0  0  0  0  0
  182.7490  177.9340  139.6750 C   0  0  2  0  0  0  0  0  0  0  0  0
  184.5240  178.7890  140.9450 C   0  0  0  0  0  0  0  0  0  0  0  0
  184.7750  179.0210  139.5840 N   0  0  0  0  0  0  0  0  0  0  0  0
  187.2570  177.8880  144.1450 C   0  0  0  0  0  3  0  0  0  0  0  0
  184.2180  179.2770  145.3270 N   0  0  0  0  0  0  0  0  0  0  0  0
  185.9950  178.4680  144.2610 C   0  0  0  0  0  0  0  0  0  0  0  0
  184.0790  179.5560  144.0350 N   0  0  0  0  0  0  0  0  0  0  0  0
  185.1400  179.0630  143.3540 C   0  0  0  0  0  0  0  0  0  0  0  0
  185.9550  178.1670  146.6560 C   0  0  0  0  0  3  0  0  0  0  0  0
  187.8650  177.4170  145.3220 C   0  0  0  0  0  2  0  0  0  0  0  0
  187.2180  177.5470  146.5770 C   0  0  0  0  0  0  0  0  0  0  0  0
  185.3790  178.6170  145.4720 C   0  0  0  0  0  0  0  0  0  0  0  0
  188.2890  177.9500  148.7700 C   0  0  0  0  0  1  0  0  0  0  0  0
  187.8100  177.0790  147.7540 O   0  0  0  0  0  0  0  0  0  0  0  0
  182.5500  176.4500  139.3350 C   0  0  0  0  0  2  0  0  0  0  0  0
  181.1270  176.1010  138.9080 C   0  0  0  0  0  2  0  0  0  0  0  0
  180.4790  175.1860  139.9270 C   0  0  0  0  0  1  0  0  0  0  0  0
  181.4470  178.7220  139.5180 C   0  0  0  0  0  2  0  0  0  0  0  0
  180.9850  179.2300  140.8020 N   0  0  0  0  0  2  0  0  0  0  0  0
  180.1480  180.3800  140.5160 C   0  0  0  0  0  2  0  0  0  0  0  0
  179.7480  180.9720  141.7140 O   0  0  0  0  0  0  0  0  0  0  0  0
  180.0450  180.0200  142.6890 C   0  0  0  0  0  1  0  0  0  0  0  0
  1 11  1  0  0  0  0
  2  6  1  0  0  0  0
  2  4  1  0  0  0  0
  4 18  1  6  0  0  0
  4  3  1  0  0  0  0
  5  3  1  0  0  0  0
  5  1  1  0  0  0  0
  6  5  2  0  0  0  0
  7  9  2  0  0  0  0
  7 13  1  0  0  0  0
  8 15  2  0  0  0  0
  9 15  1  0  0  0  0
 10  8  1  0  0  0  0
 11 10  2  0  0  0  0
 11  9  1  0  0  0  0
 13 14  1  0  0  0  0
 14 12  2  0  0  0  0
 14 17  1  0  0  0  0
 15 12  1  0  0  0  0
 17 16  1  0  0  0  0
 19 18  1  0  0  0  0
 19 20  1  0  0  0  0
 21  4  1  0  0  0  0
 21 22  1  0  0  0  0
 23 22  1  0  0  0  0
 23 24  1  0  0  0  0
 24 25  1  0  0  0  0
M  END
>  <MODEL>
2

>  <REMARK>
 VINA RESULT:      -6.3      5.279      6.802
  Name = 
  8 active torsions:
  status: ('A' for Active; 'I' for Inactive)
    1  A    between atoms: N_2  and  C_15
    2  A    between atoms: N_2  and  C_21
    3  A    between atoms: O_5  and  C_23
    4  A    between atoms: C_6  and  C_13
    5  A    between atoms: C_7  and  C_10
    6  A    between atoms: O_8  and  C_21
    7  A    between atoms: C_10  and  C_19
    8  A    between atoms: C_15  and  C_19
                            x       y       z     vdW  Elec       q    Type
                         _______ _______ _______ _____ _____    ______ ____

>  <TORSDO>
F 8

$$$$
=
 OpenBabel11032419183D

 25 27  0  0  1  0  0  0  0  0999 V2000
  189.3470  177.0760  138.6760 C   0  0  0  0  0  3  0  0  0  0  0  0
  188.2520  178.5230  141.7680 N   0  0  0  0  0  0  0  0  0  0  0  0
  189.6880  176.6520  141.1250 C   0  0  0  0  0  2  0  0  0  0  0  0
  189.1410  177.4740  142.3010 C   0  0  2  0  0  0  0  0  0  0  0  0
  189.1020  177.3300  139.9620 C   0  0  0  0  0  0  0  0  0  0  0  0
  188.3050  178.4090  140.3730 N   0  0  0  0  0  0  0  0  0  0  0  0
  192.5830  176.6570  138.5350 C   0  0  0  0  0  3  0  0  0  0  0  0
  190.5920  173.9720  137.3560 N   0  0  0  0  0  0  0  0  0  0  0  0
  191.5370  175.8380  138.1150 C   0  0  0  0  0  0  0  0  0  0  0  0
  189.6190  174.8100  137.7000 N   0  0  0  0  0  0  0  0  0  0  0  0
  190.1620  175.9640  138.1530 C   0  0  0  0  0  0  0  0  0  0  0  0
  193.0410  174.0740  137.4410 C   0  0  0  0  0  3  0  0  0  0  0  0
  193.8920  176.1680  138.3770 C   0  0  0  0  0  2  0  0  0  0  0  0
  194.1270  174.8830  137.8260 C   0  0  0  0  0  0  0  0  0  0  0  0
  191.7580  174.5890  137.6050 C   0  0  0  0  0  0  0  0  0  0  0  0
  196.2120  173.9220  138.7480 C   0  0  0  0  0  1  0  0  0  0  0  0
  195.4240  174.3870  137.6600 O   0  0  0  0  0  0  0  0  0  0  0  0
  188.3290  176.5780  143.2480 C   0  0  0  0  0  2  0  0  0  0  0  0
  187.2730  177.3290  144.0530 C   0  0  0  0  0  2  0  0  0  0  0  0
  187.7050  177.4580  145.5000 C   0  0  0  0  0  1  0  0  0  0  0  0
  190.3170  178.1300  143.0270 C   0  0  0  0  0  2  0  0  0  0  0  0
  191.2180  177.1280  143.5760 N   0  0  0  0  0  2  0  0  0  0  0  0
  191.4510  177.4930  144.9610 C   0  0  0  0  0  2  0  0  0  0  0  0
  191.7860  176.3540  145.6910 O   0  0  0  0  0  0  0  0  0  0  0  0
  191.3890  176.6460  146.9950 C   0  0  0  0  0  1  0  0  0  0  0  0
  1  5  2  0  0  0  0
  2  4  1  0  0  0  0
  3  4  1  0  0  0  0
  4 21  1  1  0  0  0
  4 18  1  0  0  0  0
  5  6  1  0  0  0  0
  5  3  1  0  0  0  0
  6  2  2  0  0  0  0
  8 15  2  0  0  0  0
  8 10  1  0  0  0  0
  9 11  1  0  0  0  0
  9  7  2  0  0  0  0
 10 11  2  0  0  0  0
 11  1  1  0  0  0  0
 12 15  1  0  0  0  0
 12 14  2  0  0  0  0
 13  7  1  0  0  0  0
 14 13  1  0  0  0  0
 15  9  1  0  0  0  0
 17 14  1  0  0  0  0
 17 16  1  0  0  0  0
 18 19  1  0  0  0  0
 19 20  1  0  0  0  0
 21 22  1  0  0  0  0
 22 23  1  0  0  0  0
 23 24  1  0  0  0  0
 24 25  1  0  0  0  0
M  END
>  <MODEL>
3

>  <REMARK>
 VINA RESULT:      -6.2      2.522      7.255
  Name = 
  8 active torsions:
  status: ('A' for Active; 'I' for Inactive)
    1  A    between atoms: N_2  and  C_15
    2  A    between atoms: N_2  and  C_21
    3  A    between atoms: O_5  and  C_23
    4  A    between atoms: C_6  and  C_13
    5  A    between atoms: C_7  and  C_10
    6  A    between atoms: O_8  and  C_21
    7  A    between atoms: C_10  and  C_19
    8  A    between atoms: C_15  and  C_19
                            x       y       z     vdW  Elec       q    Type
                         _______ _______ _______ _____ _____    ______ ____

>  <TORSDO>
F 8

$$$$
=
 OpenBabel11032419183D

 25 27  0  0  1  0  0  0  0  0999 V2000
  184.1800  178.6490  142.3680 C   0  0  0  0  0  2  0  0  0  0  0  0
  181.4230  178.7210  140.0760 N   0  0  0  0  0  2  0  0  0  0  0  0
  181.6760  178.7370  142.5080 C   0  0  0  0  0  2  0  0  0  0  0  0
  180.6770  178.8210  141.3450 C   0  0  2  0  0  0  0  0  0  0  0  0
  182.9670  178.6400  141.8150 C   0  0  0  0  0  0  0  0  0  0  0  0
  182.7790  178.6570  140.4240 N   0  0  0  0  0  0  0  0  0  0  0  0
  186.8280  177.6780  144.0130 C   0  0  0  0  0  3  0  0  0  0  0  0
  184.1820  179.0320  145.9430 N   0  0  0  0  0  0  0  0  0  0  0  0
  185.6150  178.1960  144.4610 C   0  0  0  0  0  0  0  0  0  0  0  0
  183.6290  179.1380  144.7380 N   0  0  0  0  0  0  0  0  0  0  0  0
  184.4720  178.6230  143.8130 C   0  0  0  0  0  0  0  0  0  0  0  0
  186.3370  178.1970  146.7640 C   0  0  0  0  0  3  0  0  0  0  0  0
  187.8080  177.3940  144.9820 C   0  0  0  0  0  2  0  0  0  0  0  0
  187.5670  177.6450  146.3570 C   0  0  0  0  0  0  0  0  0  0  0  0
  185.3870  178.4620  145.7820 C   0  0  0  0  0  0  0  0  0  0  0  0
  188.6340  178.0970  148.5410 C   0  0  0  0  0  1  0  0  0  0  0  0
  188.5310  177.3630  147.3290 O   0  0  0  0  0  0  0  0  0  0  0  0
  179.6740  177.6620  141.4170 C   0  0  0  0  0  2  0  0  0  0  0  0
  179.7510  176.7050  140.2310 C   0  0  0  0  0  2  0  0  0  0  0  0
  179.3630  175.3030  140.6560 C   0  0  0  0  0  1  0  0  0  0  0  0
  179.9700  180.1760  141.4080 C   0  0  0  0  0  2  0  0  0  0  0  0
  180.1090  180.8980  140.1510 N   0  0  0  0  0  2  0  0  0  0  0  0
  179.0010  181.8320  140.0840 C   0  0  0  0  0  2  0  0  0  0  0  0
  179.2400  182.7630  139.0730 O   0  0  0  0  0  0  0  0  0  0  0  0
  180.2460  182.1870  138.2990 C   0  0  0  0  0  1  0  0  0  0  0  0
  1 11  1  0  0  0  0
  2  6  1  0  0  0  0
  2  4  1  0  0  0  0
  4 21  1  1  0  0  0
  4 18  1  0  0  0  0
  4  3  1  0  0  0  0
  5  1  1  0  0  0  0
  5  3  1  0  0  0  0
  6  5  2  0  0  0  0
  7  9  2  0  0  0  0
  7 13  1  0  0  0  0
  9 15  1  0  0  0  0
 10  8  1  0  0  0  0
 11  9  1  0  0  0  0
 11 10  2  0  0  0  0
 13 14  1  0  0  0  0
 14 12  2  0  0  0  0
 14 17  1  0  0  0  0
 15  8  2  0  0  0  0
 15 12  1  0  0  0  0
 17 16  1  0  0  0  0
 19 20  1  0  0  0  0
 19 18  1  0  0  0  0
 22 21  1  0  0  0  0
 23 22  1  0  0  0  0
 24 23  1  0  0  0  0
 25 24  1  0  0  0  0
M  END
>  <MODEL>
4

>  <REMARK>
 VINA RESULT:      -6.2      6.056      7.877
  Name = 
  8 active torsions:
  status: ('A' for Active; 'I' for Inactive)
    1  A    between atoms: N_2  and  C_15
    2  A    between atoms: N_2  and  C_21
    3  A    between atoms: O_5  and  C_23
    4  A    between atoms: C_6  and  C_13
    5  A    between atoms: C_7  and  C_10
    6  A    between atoms: O_8  and  C_21
    7  A    between atoms: C_10  and  C_19
    8  A    between atoms: C_15  and  C_19
                            x       y       z     vdW  Elec       q    Type
                         _______ _______ _______ _____ _____    ______ ____

>  <TORSDO>
F 8

$$$$
=
 OpenBabel11032419183D

 25 27  0  0  1  0  0  0  0  0999 V2000
  182.6820  179.2570  143.8700 C   0  0  0  0  0  2  0  0  0  0  0  0
  179.5740  179.3660  142.0840 N   0  0  0  0  0  2  0  0  0  0  0  0
  181.7870  178.4050  141.6870 C   0  0  0  0  0  2  0  0  0  0  0  0
  180.3550  178.5330  141.1490 C   0  0  2  0  0  0  0  0  0  0  0  0
  181.7220  179.1490  142.9500 C   0  0  0  0  0  0  0  0  0  0  0  0
  180.4330  179.6640  143.1510 N   0  0  0  0  0  0  0  0  0  0  0  0
  184.9740  178.6650  146.1190 C   0  0  0  0  0  3  0  0  0  0  0  0
  185.8180  177.8910  142.7660 N   0  0  0  0  0  0  0  0  0  0  0  0
  184.9970  178.5260  144.7330 C   0  0  0  0  0  0  0  0  0  0  0  0
  184.5860  178.3480  142.5640 N   0  0  0  0  0  0  0  0  0  0  0  0
  184.0620  178.7570  143.7430 C   0  0  0  0  0  0  0  0  0  0  0  0
  187.2250  177.5970  144.7530 C   0  0  0  0  0  3  0  0  0  0  0  0
  186.1230  178.2760  146.8300 C   0  0  0  0  0  2  0  0  0  0  0  0
  187.2530  177.7480  146.1530 C   0  0  0  0  0  0  0  0  0  0  0  0
  186.0740  177.9960  144.0800 C   0  0  0  0  0  0  0  0  0  0  0  0
  188.7760  177.9350  148.0930 C   0  0  0  0  0  1  0  0  0  0  0  0
  188.4030  177.3620  146.8470 O   0  0  0  0  0  0  0  0  0  0  0  0
  180.3590  179.2130  139.7720 C   0  0  0  0  0  2  0  0  0  0  0  0
  181.7420  179.6600  139.3100 C   0  0  0  0  0  2  0  0  0  0  0  0
  182.0940  179.0090  137.9880 C   0  0  0  0  0  1  0  0  0  0  0  0
  179.7330  177.1370  141.0790 C   0  0  0  0  0  2  0  0  0  0  0  0
  180.4300  176.3010  140.1120 N   0  0  0  0  0  2  0  0  0  0  0  0
  179.9990  174.9370  140.3550 C   0  0  0  0  0  2  0  0  0  0  0  0
  179.1410  174.9100  141.4540 O   0  0  0  0  0  0  0  0  0  0  0  0
  179.1700  173.5850  141.8870 C   0  0  0  0  0  1  0  0  0  0  0  0
  2  6  1  0  0  0  0
  3  5  1  0  0  0  0
  4 18  1  6  0  0  0
  4  3  1  0  0  0  0
  4  2  1  0  0  0  0
  5  6  2  0  0  0  0
  5  1  1  0  0  0  0
  7 13  1  0  0  0  0
  8 15  2  0  0  0  0
  9  7  2  0  0  0  0
 10  8  1  0  0  0  0
 10 11  2  0  0  0  0
 11  1  1  0  0  0  0
 11  9  1  0  0  0  0
 12 14  2  0  0  0  0
 14 13  1  0  0  0  0
 14 17  1  0  0  0  0
 15  9  1  0  0  0  0
 15 12  1  0  0  0  0
 17 16  1  0  0  0  0
 19 18  1  0  0  0  0
 20 19  1  0  0  0  0
 21  4  1  0  0  0  0
 22 23  1  0  0  0  0
 22 21  1  0  0  0  0
 23 24  1  0  0  0  0
 24 25  1  0  0  0  0
M  END
>  <MODEL>
5

>  <REMARK>
 VINA RESULT:      -6.0      5.872      7.769
  Name = 
  8 active torsions:
  status: ('A' for Active; 'I' for Inactive)
    1  A    between atoms: N_2  and  C_15
    2  A    between atoms: N_2  and  C_21
    3  A    between atoms: O_5  and  C_23
    4  A    between atoms: C_6  and  C_13
    5  A    between atoms: C_7  and  C_10
    6  A    between atoms: O_8  and  C_21
    7  A    between atoms: C_10  and  C_19
    8  A    between atoms: C_15  and  C_19
                            x       y       z     vdW  Elec       q    Type
                         _______ _______ _______ _____ _____    ______ ____

>  <TORSDO>
F 8

$$$$
=
 OpenBabel11032419183D

 25 27  0  0  1  0  0  0  0  0999 V2000
  184.3960  178.5230  143.8380 C   0  0  0  0  0  2  0  0  0  0  0  0
  181.7920  178.9240  141.4050 N   0  0  0  0  0  2  0  0  0  0  0  0
  184.1390  178.2410  141.3580 C   0  0  0  0  0  2  0  0  0  0  0  0
  182.8630  178.4240  140.5230 C   0  0  2  0  0  0  0  0  0  0  0  0
  183.6940  178.6110  142.7070 C   0  0  0  0  0  0  0  0  0  0  0  0
  182.3390  178.9730  142.6950 N   0  0  0  0  0  0  0  0  0  0  0  0
  186.3380  178.1670  146.4390 C   0  0  0  0  0  3  0  0  0  0  0  0
  187.7870  177.4650  143.2820 N   0  0  0  0  0  0  0  0  0  0  0  0
  186.6000  178.0260  145.0780 C   0  0  0  0  0  0  0  0  0  0  0  0
  186.5660  177.7980  142.8750 N   0  0  0  0  0  0  0  0  0  0  0  0
  185.8210  178.1600  143.9450 C   0  0  0  0  0  0  0  0  0  0  0  0
  188.8730  177.3190  145.4760 C   0  0  0  0  0  3  0  0  0  0  0  0
  187.3890  177.8960  147.3330 C   0  0  0  0  0  2  0  0  0  0  0  0
  188.6590  177.4780  146.8590 C   0  0  0  0  0  0  0  0  0  0  0  0
  187.8150  177.6010  144.6180 C   0  0  0  0  0  0  0  0  0  0  0  0
  190.9630  176.6940  147.3000 C   0  0  0  0  0  1  0  0  0  0  0  0
  189.7120  177.2100  147.7370 O   0  0  0  0  0  0  0  0  0  0  0  0
  183.0980  179.4500  139.4060 C   0  0  0  0  0  2  0  0  0  0  0  0
  181.8350  180.1880  138.9720 C   0  0  0  0  0  2  0  0  0  0  0  0
  181.4210  179.7540  137.5800 C   0  0  0  0  0  1  0  0  0  0  0  0
  182.4530  177.0640  139.9550 C   0  0  0  0  0  2  0  0  0  0  0  0
  183.3190  176.6760  138.8500 N   0  0  0  0  0  2  0  0  0  0  0  0
  182.8760  175.3640  138.4170 C   0  0  0  0  0  2  0  0  0  0  0  0
  181.7250  175.4950  137.6420 O   0  0  0  0  0  0  0  0  0  0  0  0
  181.2120  174.2020  137.5560 C   0  0  0  0  0  1  0  0  0  0  0  0
  1 11  1  0  0  0  0
  2  6  1  0  0  0  0
  3  5  1  0  0  0  0
  4 18  1  6  0  0  0
  4  3  1  0  0  0  0
  4  2  1  0  0  0  0
  5  1  1  0  0  0  0
  6  5  2  0  0  0  0
  7 13  1  0  0  0  0
  8 15  2  0  0  0  0
  9  7  2  0  0  0  0
 10  8  1  0  0  0  0
 10 11  2  0  0  0  0
 11  9  1  0  0  0  0
 12 14  2  0  0  0  0
 14 13  1  0  0  0  0
 14 17  1  0  0  0  0
 15  9  1  0  0  0  0
 15 12  1  0  0  0  0
 16 17  1  0  0  0  0
 19 18  1  0  0  0  0
 20 19  1  0  0  0  0
 21  4  1  0  0  0  0
 22 21  1  0  0  0  0
 23 22  1  0  0  0  0
 24 23  1  0  0  0  0
 25 24  1  0  0  0  0
M  END
>  <MODEL>
6

>  <REMARK>
 VINA RESULT:      -5.9      4.764      6.096
  Name = 
  8 active torsions:
  status: ('A' for Active; 'I' for Inactive)
    1  A    between atoms: N_2  and  C_15
    2  A    between atoms: N_2  and  C_21
    3  A    between atoms: O_5  and  C_23
    4  A    between atoms: C_6  and  C_13
    5  A    between atoms: C_7  and  C_10
    6  A    between atoms: O_8  and  C_21
    7  A    between atoms: C_10  and  C_19
    8  A    between atoms: C_15  and  C_19
                            x       y       z     vdW  Elec       q    Type
                         _______ _______ _______ _____ _____    ______ ____

>  <TORSDO>
F 8

$$$$
=
 OpenBabel11032419183D

 25 27  0  0  1  0  0  0  0  0999 V2000
  190.7040  177.5280  141.5880 C   0  0  0  0  0  2  0  0  0  0  0  0
  191.9670  176.7220  138.3300 N   0  0  0  0  0  2  0  0  0  0  0  0
  189.7650  176.7580  139.3920 C   0  0  0  0  0  2  0  0  0  0  0  0
  190.5260  176.5300  138.0780 C   0  0  2  0  0  0  0  0  0  0  0  0
  190.8390  177.1220  140.3240 C   0  0  0  0  0  0  0  0  0  0  0  0
  192.0810  177.1120  139.6710 N   0  0  0  0  0  0  0  0  0  0  0  0
  190.1340  177.3630  144.7990 C   0  0  0  0  0  3  0  0  0  0  0  0
  187.3040  177.8290  142.7170 N   0  0  0  0  0  0  0  0  0  0  0  0
  189.2590  177.4870  143.7220 C   0  0  0  0  0  0  0  0  0  0  0  0
  188.2430  177.7860  141.7760 N   0  0  0  0  0  0  0  0  0  0  0  0
  189.4460  177.5640  142.3550 C   0  0  0  0  0  0  0  0  0  0  0  0
  187.3320  177.6620  145.1640 C   0  0  0  0  0  3  0  0  0  0  0  0
  189.5770  177.3670  146.0900 C   0  0  0  0  0  2  0  0  0  0  0  0
  188.1780  177.5100  146.2790 C   0  0  0  0  0  0  0  0  0  0  0  0
  187.9140  177.6480  143.9000 C   0  0  0  0  0  0  0  0  0  0  0  0
  188.3000  178.0020  148.7000 C   0  0  0  0  0  1  0  0  0  0  0  0
  187.6120  177.5110  147.5570 O   0  0  0  0  0  0  0  0  0  0  0  0
  190.3030  175.0970  137.5730 C   0  0  0  0  0  2  0  0  0  0  0  0
  189.3520  175.0040  136.3840 C   0  0  0  0  0  2  0  0  0  0  0  0
  187.9590  174.6320  136.8480 C   0  0  0  0  0  1  0  0  0  0  0  0
  190.0520  177.5620  137.0540 C   0  0  0  0  0  2  0  0  0  0  0  0
  189.0410  178.4400  137.6260 N   0  0  0  0  0  2  0  0  0  0  0  0
  187.9560  178.5050  136.6650 C   0  0  0  0  0  2  0  0  0  0  0  0
  186.8100  178.9930  137.2910 O   0  0  0  0  0  0  0  0  0  0  0  0
  186.2870  177.8920  137.9690 C   0  0  0  0  0  1  0  0  0  0  0  0
  1 11  1  0  0  0  0
  2  6  1  0  0  0  0
  3  5  1  0  0  0  0
  4 21  1  6  0  0  0
  4  2  1  0  0  0  0
  4  3  1  0  0  0  0
  5  1  1  0  0  0  0
  6  5  2  0  0  0  0
  7 13  1  0  0  0  0
  8 15  2  0  0  0  0
  9 15  1  0  0  0  0
  9  7  2  0  0  0  0
 10 11  2  0  0  0  0
 10  8  1  0  0  0  0
 11  9  1  0  0  0  0
 12 14  2  0  0  0  0
 13 14  1  0  0  0  0
 14 17  1  0  0  0  0
 15 12  1  0  0  0  0
 17 16  1  0  0  0  0
 18  4  1  0  0  0  0
 19 20  1  0  0  0  0
 19 18  1  0  0  0  0
 21 22  1  0  0  0  0
 23 24  1  0  0  0  0
 23 22  1  0  0  0  0
 24 25  1  0  0  0  0
M  END
>  <MODEL>
7

>  <REMARK>
 VINA RESULT:      -5.9      1.919      2.729
  Name = 
  8 active torsions:
  status: ('A' for Active; 'I' for Inactive)
    1  A    between atoms: N_2  and  C_15
    2  A    between atoms: N_2  and  C_21
    3  A    between atoms: O_5  and  C_23
    4  A    between atoms: C_6  and  C_13
    5  A    between atoms: C_7  and  C_10
    6  A    between atoms: O_8  and  C_21
    7  A    between atoms: C_10  and  C_19
    8  A    between atoms: C_15  and  C_19
                            x       y       z     vdW  Elec       q    Type
                         _______ _______ _______ _____ _____    ______ ____

>  <TORSDO>
F 8

$$$$
=
 OpenBabel11032419183D

 25 27  0  0  1  0  0  0  0  0999 V2000
  189.9570  177.8850  139.4470 C   0  0  0  0  0  2  0  0  0  0  0  0
  188.4380  177.8380  136.1990 N   0  0  0  0  0  2  0  0  0  0  0  0
  187.9520  176.8280  138.3710 C   0  0  0  0  0  2  0  0  0  0  0  0
  187.4590  177.0110  136.9290 C   0  0  2  0  0  0  0  0  0  0  0  0
  189.1870  177.6210  138.3910 C   0  0  0  0  0  0  0  0  0  0  0  0
  189.4170  178.2010  137.1340 N   0  0  0  0  0  0  0  0  0  0  0  0
  187.6430  178.3250  141.7080 C   0  0  0  0  0  3  0  0  0  0  0  0
  190.2010  176.0030  142.5010 N   0  0  0  0  0  0  0  0  0  0  0  0
  188.7940  177.5410  141.7210 C   0  0  0  0  0  0  0  0  0  0  0  0
  190.6250  176.3690  141.2950 N   0  0  0  0  0  0  0  0  0  0  0  0
  189.7970  177.3170  140.7980 C   0  0  0  0  0  0  0  0  0  0  0  0
  188.2790  176.6240  143.8940 C   0  0  0  0  0  3  0  0  0  0  0  0
  186.8050  178.2660  142.8360 C   0  0  0  0  0  2  0  0  0  0  0  0
  187.1210  177.4230  143.9330 C   0  0  0  0  0  0  0  0  0  0  0  0
  189.0900  176.7100  142.7660 C   0  0  0  0  0  0  0  0  0  0  0  0
  186.7360  177.7600  146.3540 C   0  0  0  0  0  1  0  0  0  0  0  0
  186.2990  177.3590  145.0620 O   0  0  0  0  0  0  0  0  0  0  0  0
  187.3460  175.6510  136.2260 C   0  0  0  0  0  2  0  0  0  0  0  0
  188.3000  174.5930  136.7720 C   0  0  0  0  0  2  0  0  0  0  0  0
  187.7650  173.2030  136.4920 C   0  0  0  0  0  1  0  0  0  0  0  0
  186.1130  177.7350  136.9620 C   0  0  0  0  0  2  0  0  0  0  0  0
  186.1120  178.7940  137.9610 N   0  0  0  0  0  2  0  0  0  0  0  0
  184.8710  178.6660  138.7020 C   0  0  0  0  0  2  0  0  0  0  0  0
  184.8810  179.5490  139.7800 O   0  0  0  0  0  0  0  0  0  0  0  0
  183.9110  179.0490  140.6490 C   0  0  0  0  0  1  0  0  0  0  0  0
  1 11  1  0  0  0  0
  2  4  1  0  0  0  0
  2  6  1  0  0  0  0
  3  5  1  0  0  0  0
  4 18  1  6  0  0  0
  4 21  1  0  0  0  0
  4  3  1  0  0  0  0
  5  1  1  0  0  0  0
  6  5  2  0  0  0  0
  7  9  2  0  0  0  0
  7 13  1  0  0  0  0
  8 15  2  0  0  0  0
  9 15  1  0  0  0  0
 10  8  1  0  0  0  0
 11 10  2  0  0  0  0
 11  9  1  0  0  0  0
 12 14  2  0  0  0  0
 13 14  1  0  0  0  0
 14 17  1  0  0  0  0
 15 12  1  0  0  0  0
 17 16  1  0  0  0  0
 18 19  1  0  0  0  0
 20 19  1  0  0  0  0
 21 22  1  0  0  0  0
 22 23  1  0  0  0  0
 23 24  1  0  0  0  0
 24 25  1  0  0  0  0
M  END
>  <MODEL>
8

>  <REMARK>
 VINA RESULT:      -5.9      2.739      3.788
  Name = 
  8 active torsions:
  status: ('A' for Active; 'I' for Inactive)
    1  A    between atoms: N_2  and  C_15
    2  A    between atoms: N_2  and  C_21
    3  A    between atoms: O_5  and  C_23
    4  A    between atoms: C_6  and  C_13
    5  A    between atoms: C_7  and  C_10
    6  A    between atoms: O_8  and  C_21
    7  A    between atoms: C_10  and  C_19
    8  A    between atoms: C_15  and  C_19
                            x       y       z     vdW  Elec       q    Type
                         _______ _______ _______ _____ _____    ______ ____

>  <TORSDO>
F 8

$$$$
=
 OpenBabel11032419183D

 25 27  0  0  1  0  0  0  0  0999 V2000
  186.2550  179.0030  141.0490 C   0  0  0  0  0  2  0  0  0  0  0  0
  183.0370  179.1500  139.4720 N   0  0  0  0  0  2  0  0  0  0  0  0
  184.0110  177.9200  141.3470 C   0  0  0  0  0  2  0  0  0  0  0  0
  182.7250  178.2000  140.5560 C   0  0  2  0  0  0  0  0  0  0  0  0
  184.9910  178.7860  140.6810 C   0  0  0  0  0  0  0  0  0  0  0  0
  184.3880  179.4900  139.6270 N   0  0  0  0  0  0  0  0  0  0  0  0
  185.7870  178.9950  144.2810 C   0  0  0  0  0  3  0  0  0  0  0  0
  188.3740  176.9030  143.0560 N   0  0  0  0  0  0  0  0  0  0  0  0
  186.7330  178.3410  143.4940 C   0  0  0  0  0  0  0  0  0  0  0  0
  187.9620  177.4150  141.9000 N   0  0  0  0  0  0  0  0  0  0  0  0
  186.9710  178.3070  142.1330 C   0  0  0  0  0  0  0  0  0  0  0  0
  187.6820  177.1910  145.3920 C   0  0  0  0  0  3  0  0  0  0  0  0
  185.8150  178.7490  145.6650 C   0  0  0  0  0  2  0  0  0  0  0  0
  186.7620  177.8540  146.2270 C   0  0  0  0  0  0  0  0  0  0  0  0
  187.6320  177.4610  144.0270 C   0  0  0  0  0  0  0  0  0  0  0  0
  187.9510  177.8700  148.3960 C   0  0  0  0  0  1  0  0  0  0  0  0
  186.8030  177.6050  147.6020 O   0  0  0  0  0  0  0  0  0  0  0  0
  182.1880  176.9040  139.9320 C   0  0  0  0  0  2  0  0  0  0  0  0
  182.3270  176.8470  138.4140 C   0  0  0  0  0  2  0  0  0  0  0  0
  183.3310  175.7850  138.0140 C   0  0  0  0  0  1  0  0  0  0  0  0
  181.7000  178.8310  141.4990 C   0  0  0  0  0  2  0  0  0  0  0  0
  180.4420  179.0860  140.8110 N   0  0  0  0  0  2  0  0  0  0  0  0
  179.4950  179.5160  141.8220 C   0  0  0  0  0  2  0  0  0  0  0  0
  179.6290  180.8880  142.0300 O   0  0  0  0  0  0  0  0  0  0  0  0
  178.9400  181.4710  140.9670 C   0  0  0  0  0  1  0  0  0  0  0  0
  1 11  1  0  0  0  0
  2  6  1  0  0  0  0
  2  4  1  0  0  0  0
  4 18  1  6  0  0  0
  4  3  1  0  0  0  0
  4 21  1  0  0  0  0
  5  1  1  0  0  0  0
  5  3  1  0  0  0  0
  6  5  2  0  0  0  0
  7 13  1  0  0  0  0
  8 15  2  0  0  0  0
  9 15  1  0  0  0  0
  9  7  2  0  0  0  0
 10 11  2  0  0  0  0
 10  8  1  0  0  0  0
 11  9  1  0  0  0  0
 12 14  2  0  0  0  0
 13 14  1  0  0  0  0
 14 17  1  0  0  0  0
 15 12  1  0  0  0  0
 17 16  1  0  0  0  0
 19 18  1  0  0  0  0
 20 19  1  0  0  0  0
 22 21  1  0  0  0  0
 22 23  1  0  0  0  0
 23 24  1  0  0  0  0
 25 24  1  0  0  0  0
M  END
>  <MODEL>
9

>  <REMARK>
 VINA RESULT:      -5.6      4.945      6.580
  Name = 
  8 active torsions:
  status: ('A' for Active; 'I' for Inactive)
    1  A    between atoms: N_2  and  C_15
    2  A    between atoms: N_2  and  C_21
    3  A    between atoms: O_5  and  C_23
    4  A    between atoms: C_6  and  C_13
    5  A    between atoms: C_7  and  C_10
    6  A    between atoms: O_8  and  C_21
    7  A    between atoms: C_10  and  C_19
    8  A    between atoms: C_15  and  C_19
                            x       y       z     vdW  Elec       q    Type
                         _______ _______ _______ _____ _____    ______ ____

>  <TORSDO>
F 8

$$$$
