=
 OpenBabel11042410193D

 48 52  0  0  1  0  0  0  0  0999 V2000
  183.2720  176.3080  134.9970 S   0  0  0  0  0  0  0  0  0  0  0  0
  186.1230  173.7320  135.7720 O   0  0  0  0  0  0  0  0  0  0  0  0
  183.9890  174.7240  135.4070 C   0  0  0  0  0  0  0  0  0  0  0  0
  184.9740  176.9530  137.0870 C   0  0  0  0  0  0  0  0  0  0  0  0
  183.5010  176.9110  136.7040 C   0  0  1  0  0  3  0  0  0  0  0  0
  183.2380  173.6310  135.2480 C   0  0  0  0  0  3  0  0  0  0  0  0
  187.6920  177.0070  137.8750 C   0  0  0  0  0  0  0  0  0  0  0  0
  185.4710  177.9950  137.8840 C   0  0  0  0  0  3  0  0  0  0  0  0
  186.8120  178.0230  138.2740 C   0  0  0  0  0  3  0  0  0  0  0  0
  185.8430  175.8890  136.7310 C   0  0  0  0  0  0  0  0  0  0  0  0
  187.1850  175.9310  137.1350 C   0  0  0  0  0  3  0  0  0  0  0  0
  185.3610  174.7200  135.9600 C   0  0  0  0  0  0  0  0  0  0  0  0
  184.0190  171.2220  135.8340 N   0  0  0  0  0  0  0  0  0  0  0  0
  183.6700  172.2930  135.5690 C   0  0  0  0  0  0  0  0  0  0  0  0
  182.7310  178.2210  136.9160 C   0  0  0  0  0  2  0  0  0  0  0  0
  181.6310  178.0890  137.9650 C   0  0  0  0  0  2  0  0  0  0  0  0
  182.0380  178.8190  139.2330 C   0  0  2  0  0  3  0  0  0  0  0  0
  182.7110  180.1260  138.8330 C   0  0  0  0  0  1  0  0  0  0  0  0
  182.4790  176.5090  140.1200 C   0  0  0  0  0  1  0  0  0  0  0  0
  182.9720  177.9490  140.0890 C   0  0  2  0  0  3  0  0  0  0  0  0
  183.0870  178.4570  141.4960 C   0  0  0  0  0  0  0  0  0  0  0  0
  184.6940  178.9180  145.8170 C   0  0  0  0  0  1  0  0  0  0  0  0
  186.4960  177.2550  144.1960 O   0  0  0  0  0  0  0  0  0  0  0  0
  183.8390  179.4880  143.4730 C   0  0  1  0  0  3  0  0  0  0  0  0
  182.5060  179.0010  143.5160 O   0  0  0  0  0  0  0  0  0  0  0  0
  184.6700  178.7220  144.3780 N   0  0  0  0  0  0  0  0  0  0  0  0
  184.3100  179.1110  142.0470 C   0  0  1  0  0  3  0  0  0  0  0  0
  185.6050  177.9590  143.6500 C   0  0  0  0  0  0  0  0  0  0  0  0
  182.1150  178.4180  142.3400 N   0  0  0  0  0  0  0  0  0  0  0  0
  185.4460  178.0880  142.1920 C   0  0  0  0  0  2  0  0  0  0  0  0
  189.1330  176.9930  138.3500 C   0  0  1  0  0  3  0  0  0  0  0  0
  191.0080  176.0130  137.0380 C   0  0  0  0  0  2  0  0  0  0  0  0
  190.1330  177.0010  137.2180 C   0  0  0  0  0  3  0  0  0  0  0  0
  189.4400  178.0960  139.3730 C   0  0  0  0  0  2  0  0  0  0  0  0
  191.6020  177.1410  142.6390 C   0  0  1  0  0  3  0  0  0  0  0  0
  190.7580  177.4440  141.4430 N   0  0  0  0  0  0  0  0  0  0  0  0
  188.4530  177.1800  141.3340 O   0  0  0  0  0  0  0  0  0  0  0  0
  192.2410  177.5830  141.4980 C   0  0  0  0  0  2  0  0  0  0  0  0
  189.5080  177.5690  140.7710 C   0  0  0  0  0  0  0  0  0  0  0  0
  191.4190  178.2610  143.6540 C   0  0  0  0  0  2  0  0  0  0  0  0
  191.1910  177.7400  144.9300 O   0  0  0  0  0  0  0  0  0  0  0  0
  189.8680  178.0660  145.2260 C   0  0  0  0  0  2  0  0  0  0  0  0
  188.1390  177.8210  146.9970 C   0  0  0  0  0  1  0  0  0  0  0  0
  189.3690  177.1940  146.3690 C   0  0  2  0  0  3  0  0  0  0  0  0
  190.4450  177.0370  147.4290 C   0  0  0  0  0  2  0  0  0  0  0  0
  190.9910  175.6190  147.4350 C   0  0  0  0  0  2  0  0  0  0  0  0
  193.1040  176.0570  148.5410 N   0  0  0  0  0  1  0  0  0  0  0  0
  192.4980  175.6580  147.2840 C   0  0  0  0  0  2  0  0  0  0  0  0
  1  3  1  0  0  0  0
  1  5  1  0  0  0  0
  2 12  2  0  0  0  0
  3 12  1  0  0  0  0
  4  8  1  0  0  0  0
  5 15  1  6  0  0  0
  5  4  1  0  0  0  0
  6  3  2  0  0  0  0
  6 14  1  0  0  0  0
  7  9  1  0  0  0  0
  7 31  1  0  0  0  0
  8  9  2  0  0  0  0
 10  4  2  0  0  0  0
 10 11  1  0  0  0  0
 11  7  2  0  0  0  0
 12 10  1  0  0  0  0
 14 13  3  0  0  0  0
 15 16  1  0  0  0  0
 16 17  1  0  0  0  0
 17 18  1  6  0  0  0
 17 20  1  0  0  0  0
 20 19  1  1  0  0  0
 20 21  1  0  0  0  0
 21 27  1  0  0  0  0
 21 29  2  0  0  0  0
 24 25  1  6  0  0  0
 24 26  1  0  0  0  0
 26 22  1  0  0  0  0
 27 30  1  1  0  0  0
 27 24  1  0  0  0  0
 28 23  2  0  0  0  0
 28 26  1  0  0  0  0
 29 25  1  0  0  0  0
 30 28  1  0  0  0  0
 31 33  1  6  0  0  0
 31 34  1  0  0  0  0
 32 33  2  0  0  0  0
 34 39  1  0  0  0  0
 35 40  1  1  0  0  0
 36 38  1  0  0  0  0
 36 35  1  0  0  0  0
 38 35  1  0  0  0  0
 39 37  2  0  0  0  0
 39 36  1  0  0  0  0
 40 41  1  0  0  0  0
 41 42  1  0  0  0  0
 42 44  1  0  0  0  0
 44 43  1  1  0  0  0
 44 45  1  0  0  0  0
 45 46  1  0  0  0  0
 48 46  1  0  0  0  0
 48 47  1  0  0  0  0
M  END
>  <MODEL>
1

>  <REMARK>
 VINA RESULT:      -7.2      0.000      0.000
  Name = 
  17 active torsions:
  status: ('A' for Active; 'I' for Inactive)
    1  A    between atoms: C_1  and  C_11
    2  A    between atoms: C_5  and  C_8
    3  A    between atoms: C_5  and  O_37
    4  A    between atoms: C_11  and  C_24
    5  A    between atoms: C_19  and  C_44
    6  A    between atoms: C_20  and  C_25
    7  A    between atoms: C_21  and  C_24
    8  A    between atoms: C_21  and  C_44
    9  A    between atoms: C_26  and  C_36
   10  A    between atoms: C_26  and  C_47
   11  A    between atoms: C_27  and  C_33
   12  A    between atoms: C_32  and  C_33
   13  A    between atoms: C_32  and  C_48
   14  A    between atoms: C_33  and  C_42
   15  A    between atoms: C_36  and  C_46
   16  A    between atoms: O_37  and  C_43
   17  A    between atoms: C_43  and  C_47
                            x       y       z     vdW  Elec       q    Type
                         _______ _______ _______ _____ _____    ______ ____

>  <TORSDO>
F 17

$$$$
=
 OpenBabel11042410193D

 48 52  0  0  1  0  0  0  0  0999 V2000
  187.1850  177.1670  143.4460 S   0  0  0  0  0  0  0  0  0  0  0  0
  190.8990  175.9760  143.0420 O   0  0  0  0  0  0  0  0  0  0  0  0
  188.9140  176.9990  143.8690 C   0  0  0  0  0  0  0  0  0  0  0  0
  188.4440  177.8560  141.0750 C   0  0  0  0  0  0  0  0  0  0  0  0
  187.5650  178.4250  142.1800 C   0  0  1  0  0  3  0  0  0  0  0  0
  189.2870  177.2730  145.1220 C   0  0  0  0  0  3  0  0  0  0  0  0
  190.1170  176.8690  139.0160 C   0  0  0  0  0  0  0  0  0  0  0  0
  188.2470  178.2430  139.7410 C   0  0  0  0  0  3  0  0  0  0  0  0
  189.0730  177.7580  138.7240 C   0  0  0  0  0  3  0  0  0  0  0  0
  189.5370  177.0060  141.3870 C   0  0  0  0  0  0  0  0  0  0  0  0
  190.3580  176.5320  140.3540 C   0  0  0  0  0  3  0  0  0  0  0  0
  189.8470  176.6250  142.7840 C   0  0  0  0  0  0  0  0  0  0  0  0
  191.7370  177.1730  145.9840 N   0  0  0  0  0  0  0  0  0  0  0  0
  190.6460  177.2150  145.5970 C   0  0  0  0  0  0  0  0  0  0  0  0
  186.2770  179.1110  141.7060 C   0  0  0  0  0  2  0  0  0  0  0  0
  185.0650  178.1880  141.7710 C   0  0  0  0  0  2  0  0  0  0  0  0
  183.8500  178.9660  142.2450 C   0  0  2  0  0  3  0  0  0  0  0  0
  183.9860  179.1940  143.7450 C   0  0  0  0  0  1  0  0  0  0  0  0
  182.7780  177.2560  140.7470 C   0  0  0  0  0  1  0  0  0  0  0  0
  182.5530  178.2120  141.9090 C   0  0  2  0  0  3  0  0  0  0  0  0
  181.4290  179.1450  141.5650 C   0  0  0  0  0  0  0  0  0  0  0  0
  179.1240  182.5450  139.4220 C   0  0  0  0  0  1  0  0  0  0  0  0
  181.6620  181.9710  138.0550 O   0  0  0  0  0  0  0  0  0  0  0  0
  179.6860  180.2740  140.4600 C   0  0  1  0  0  3  0  0  0  0  0  0
  179.8440  180.6040  141.8320 O   0  0  0  0  0  0  0  0  0  0  0  0
  180.0160  181.4190  139.6380 N   0  0  0  0  0  0  0  0  0  0  0  0
  180.8090  179.2380  140.2110 C   0  0  1  0  0  3  0  0  0  0  0  0
  181.1920  181.1660  138.9030 C   0  0  0  0  0  0  0  0  0  0  0  0
  180.8650  179.9160  142.4300 N   0  0  0  0  0  0  0  0  0  0  0  0
  181.7960  179.8590  139.2120 C   0  0  0  0  0  2  0  0  0  0  0  0
  191.0600  176.3910  137.9280 C   0  0  1  0  0  3  0  0  0  0  0  0
  193.4990  175.9920  137.6240 C   0  0  0  0  0  2  0  0  0  0  0  0
  192.5150  176.6330  138.2540 C   0  0  0  0  0  3  0  0  0  0  0  0
  190.8170  174.9320  137.5180 C   0  0  0  0  0  2  0  0  0  0  0  0
  187.2180  174.8100  135.7050 C   0  0  1  0  0  3  0  0  0  0  0  0
  188.5770  174.8140  136.3290 N   0  0  0  0  0  0  0  0  0  0  0  0
  190.5810  174.6790  135.1640 O   0  0  0  0  0  0  0  0  0  0  0  0
  187.2910  174.8670  137.0820 C   0  0  0  0  0  2  0  0  0  0  0  0
  189.9990  174.8230  136.2700 C   0  0  0  0  0  0  0  0  0  0  0  0
  186.9640  176.1820  135.0960 C   0  0  0  0  0  2  0  0  0  0  0  0
  186.3850  177.0410  136.0330 O   0  0  0  0  0  0  0  0  0  0  0  0
  185.0580  177.1830  135.6260 C   0  0  0  0  0  2  0  0  0  0  0  0
  184.9710  177.9550  137.9890 C   0  0  0  0  0  1  0  0  0  0  0  0
  184.1660  177.3700  136.8440 C   0  0  2  0  0  3  0  0  0  0  0  0
  183.5720  176.0410  137.2800 C   0  0  0  0  0  2  0  0  0  0  0  0
  182.0570  176.1230  137.3400 C   0  0  0  0  0  2  0  0  0  0  0  0
  180.7120  174.3000  138.2040 N   0  0  0  0  0  1  0  0  0  0  0  0
  181.4670  174.7580  137.0520 C   0  0  0  0  0  2  0  0  0  0  0  0
  1  3  1  0  0  0  0
  3  6  2  0  0  0  0
  4 10  1  0  0  0  0
  4  5  1  0  0  0  0
  5 15  1  6  0  0  0
  5  1  1  0  0  0  0
  6 14  1  0  0  0  0
  7 11  1  0  0  0  0
  8  4  2  0  0  0  0
  9  7  2  0  0  0  0
  9  8  1  0  0  0  0
 10 12  1  0  0  0  0
 11 10  2  0  0  0  0
 12  2  2  0  0  0  0
 12  3  1  0  0  0  0
 14 13  3  0  0  0  0
 15 16  1  0  0  0  0
 16 17  1  0  0  0  0
 17 18  1  1  0  0  0
 20 19  1  6  0  0  0
 20 17  1  0  0  0  0
 21 20  1  0  0  0  0
 21 29  2  0  0  0  0
 22 26  1  0  0  0  0
 23 28  2  0  0  0  0
 24 25  1  1  0  0  0
 25 29  1  0  0  0  0
 26 24  1  0  0  0  0
 27 30  1  6  0  0  0
 27 24  1  0  0  0  0
 27 21  1  0  0  0  0
 28 30  1  0  0  0  0
 28 26  1  0  0  0  0
 31 34  1  1  0  0  0
 31 33  1  0  0  0  0
 31  7  1  0  0  0  0
 32 33  2  0  0  0  0
 35 40  1  6  0  0  0
 35 36  1  0  0  0  0
 35 38  1  0  0  0  0
 36 38  1  0  0  0  0
 37 39  2  0  0  0  0
 39 36  1  0  0  0  0
 39 34  1  0  0  0  0
 40 41  1  0  0  0  0
 42 41  1  0  0  0  0
 42 44  1  0  0  0  0
 44 45  1  0  0  0  0
 44 43  1  1  0  0  0
 45 46  1  0  0  0  0
 48 46  1  0  0  0  0
 48 47  1  0  0  0  0
M  END
>  <MODEL>
2

>  <REMARK>
 VINA RESULT:      -6.9      2.801      8.041
  Name = 
  17 active torsions:
  status: ('A' for Active; 'I' for Inactive)
    1  A    between atoms: C_1  and  C_11
    2  A    between atoms: C_5  and  C_8
    3  A    between atoms: C_5  and  O_37
    4  A    between atoms: C_11  and  C_24
    5  A    between atoms: C_19  and  C_44
    6  A    between atoms: C_20  and  C_25
    7  A    between atoms: C_21  and  C_24
    8  A    between atoms: C_21  and  C_44
    9  A    between atoms: C_26  and  C_36
   10  A    between atoms: C_26  and  C_47
   11  A    between atoms: C_27  and  C_33
   12  A    between atoms: C_32  and  C_33
   13  A    between atoms: C_32  and  C_48
   14  A    between atoms: C_33  and  C_42
   15  A    between atoms: C_36  and  C_46
   16  A    between atoms: O_37  and  C_43
   17  A    between atoms: C_43  and  C_47
                            x       y       z     vdW  Elec       q    Type
                         _______ _______ _______ _____ _____    ______ ____

>  <TORSDO>
F 17

$$$$
=
 OpenBabel11042410193D

 48 52  0  0  1  0  0  0  0  0999 V2000
  191.3830  177.5900  143.2710 S   0  0  0  0  0  0  0  0  0  0  0  0
  189.6440  177.4690  146.7830 O   0  0  0  0  0  0  0  0  0  0  0  0
  191.1030  177.0440  144.9490 C   0  0  0  0  0  0  0  0  0  0  0  0
  188.6620  177.0640  143.2750 C   0  0  0  0  0  0  0  0  0  0  0  0
  189.9760  176.6020  142.6600 C   0  0  1  0  0  3  0  0  0  0  0  0
  192.0830  176.3810  145.5690 C   0  0  0  0  0  3  0  0  0  0  0  0
  186.1950  177.8450  144.4210 C   0  0  0  0  0  0  0  0  0  0  0  0
  187.4880  177.0830  142.5090 C   0  0  0  0  0  3  0  0  0  0  0  0
  186.2690  177.4670  143.0730 C   0  0  0  0  0  3  0  0  0  0  0  0
  188.5840  177.3840  144.6560 C   0  0  0  0  0  0  0  0  0  0  0  0
  187.3510  177.7630  145.2070 C   0  0  0  0  0  3  0  0  0  0  0  0
  189.7710  177.3050  145.5370 C   0  0  0  0  0  0  0  0  0  0  0  0
  191.9060  175.4210  147.9780 N   0  0  0  0  0  0  0  0  0  0  0  0
  191.9880  175.8510  146.9060 C   0  0  0  0  0  0  0  0  0  0  0  0
  189.9950  176.5350  141.1280 C   0  0  0  0  0  2  0  0  0  0  0  0
  190.1010  177.9130  140.4840 C   0  0  0  0  0  2  0  0  0  0  0  0
  189.1430  178.0080  139.3090 C   0  0  2  0  0  3  0  0  0  0  0  0
  188.3580  176.7050  139.2290 C   0  0  0  0  0  1  0  0  0  0  0  0
  189.0550  179.1170  137.0550 C   0  0  0  0  0  1  0  0  0  0  0  0
  189.9050  178.2830  138.0030 C   0  0  2  0  0  3  0  0  0  0  0  0
  190.3140  177.0170  137.3090 C   0  0  0  0  0  0  0  0  0  0  0  0
  193.0610  173.8580  135.3260 C   0  0  0  0  0  1  0  0  0  0  0  0
  194.6470  175.9500  136.6450 O   0  0  0  0  0  0  0  0  0  0  0  0
  191.2570  174.9240  136.7950 C   0  0  1  0  0  3  0  0  0  0  0  0
  190.3470  175.4290  135.8300 O   0  0  0  0  0  0  0  0  0  0  0  0
  192.5920  174.8860  136.2370 N   0  0  0  0  0  0  0  0  0  0  0  0
  191.2820  176.0330  137.8750 C   0  0  1  0  0  3  0  0  0  0  0  0
  193.4170  175.8260  136.8890 C   0  0  0  0  0  0  0  0  0  0  0  0
  189.8210  176.6440  136.1790 N   0  0  0  0  0  0  0  0  0  0  0  0
  192.6990  176.6260  137.8950 C   0  0  0  0  0  2  0  0  0  0  0  0
  184.8640  178.1980  145.0600 C   0  0  1  0  0  3  0  0  0  0  0  0
  185.7020  179.3620  147.0950 C   0  0  0  0  0  2  0  0  0  0  0  0
  184.9560  178.3990  146.5540 C   0  0  0  0  0  3  0  0  0  0  0  0
  184.1650  179.3830  144.3800 C   0  0  0  0  0  2  0  0  0  0  0  0
  182.6350  178.7550  140.7040 C   0  0  1  0  0  3  0  0  0  0  0  0
  183.1400  179.0040  142.0890 N   0  0  0  0  0  0  0  0  0  0  0  0
  181.9490  178.5870  144.0390 O   0  0  0  0  0  0  0  0  0  0  0  0
  183.8940  179.3040  140.8380 C   0  0  0  0  0  2  0  0  0  0  0  0
  183.0310  178.9490  143.5080 C   0  0  0  0  0  0  0  0  0  0  0  0
  182.6980  177.2590  140.4300 C   0  0  0  0  0  2  0  0  0  0  0  0
  182.7890  177.0100  139.0580 O   0  0  0  0  0  0  0  0  0  0  0  0
  183.0670  175.6470  138.9530 C   0  0  0  0  0  2  0  0  0  0  0  0
  184.4080  173.9980  137.6600 C   0  0  0  0  0  1  0  0  0  0  0  0
  183.7510  175.3650  137.6240 C   0  0  2  0  0  3  0  0  0  0  0  0
  184.8080  176.4180  137.3340 C   0  0  0  0  0  2  0  0  0  0  0  0
  185.9290  175.8360  136.4900 C   0  0  0  0  0  2  0  0  0  0  0  0
  186.4620  177.6310  134.9490 N   0  0  0  0  0  1  0  0  0  0  0  0
  185.8040  176.3430  135.0670 C   0  0  0  0  0  2  0  0  0  0  0  0
  1  3  1  0  0  0  0
  3 12  1  0  0  0  0
  3  6  2  0  0  0  0
  4 10  1  0  0  0  0
  5 15  1  6  0  0  0
  5  1  1  0  0  0  0
  5  4  1  0  0  0  0
  6 14  1  0  0  0  0
  7 31  1  0  0  0  0
  7 11  1  0  0  0  0
  8  9  1  0  0  0  0
  8  4  2  0  0  0  0
  9  7  2  0  0  0  0
 10 11  2  0  0  0  0
 10 12  1  0  0  0  0
 12  2  2  0  0  0  0
 14 13  3  0  0  0  0
 16 15  1  0  0  0  0
 17 18  1  6  0  0  0
 17 16  1  0  0  0  0
 20 19  1  6  0  0  0
 20 17  1  0  0  0  0
 21 27  1  0  0  0  0
 21 20  1  0  0  0  0
 22 26  1  0  0  0  0
 23 28  2  0  0  0  0
 24 25  1  6  0  0  0
 24 27  1  0  0  0  0
 25 29  1  0  0  0  0
 26 24  1  0  0  0  0
 26 28  1  0  0  0  0
 27 30  1  6  0  0  0
 28 30  1  0  0  0  0
 29 21  2  0  0  0  0
 31 34  1  6  0  0  0
 31 33  1  0  0  0  0
 33 32  2  0  0  0  0
 35 40  1  1  0  0  0
 35 38  1  0  0  0  0
 35 36  1  0  0  0  0
 36 39  1  0  0  0  0
 38 36  1  0  0  0  0
 39 37  2  0  0  0  0
 39 34  1  0  0  0  0
 41 40  1  0  0  0  0
 42 41  1  0  0  0  0
 44 43  1  1  0  0  0
 44 42  1  0  0  0  0
 45 44  1  0  0  0  0
 46 45  1  0  0  0  0
 47 48  1  0  0  0  0
 48 46  1  0  0  0  0
M  END
>  <MODEL>
3

>  <REMARK>
 VINA RESULT:      -6.8      3.080     10.186
  Name = 
  17 active torsions:
  status: ('A' for Active; 'I' for Inactive)
    1  A    between atoms: C_1  and  C_11
    2  A    between atoms: C_5  and  C_8
    3  A    between atoms: C_5  and  O_37
    4  A    between atoms: C_11  and  C_24
    5  A    between atoms: C_19  and  C_44
    6  A    between atoms: C_20  and  C_25
    7  A    between atoms: C_21  and  C_24
    8  A    between atoms: C_21  and  C_44
    9  A    between atoms: C_26  and  C_36
   10  A    between atoms: C_26  and  C_47
   11  A    between atoms: C_27  and  C_33
   12  A    between atoms: C_32  and  C_33
   13  A    between atoms: C_32  and  C_48
   14  A    between atoms: C_33  and  C_42
   15  A    between atoms: C_36  and  C_46
   16  A    between atoms: O_37  and  C_43
   17  A    between atoms: C_43  and  C_47
                            x       y       z     vdW  Elec       q    Type
                         _______ _______ _______ _____ _____    ______ ____

>  <TORSDO>
F 17

$$$$
=
 OpenBabel11042410193D

 48 52  0  0  1  0  0  0  0  0999 V2000
  184.6760  177.7820  145.7880 S   0  0  0  0  0  0  0  0  0  0  0  0
  188.4430  177.0080  145.0210 O   0  0  0  0  0  0  0  0  0  0  0  0
  186.4410  177.7680  146.0660 C   0  0  0  0  0  0  0  0  0  0  0  0
  185.6620  178.7420  143.3820 C   0  0  0  0  0  0  0  0  0  0  0  0
  184.8250  179.1480  144.5870 C   0  0  1  0  0  3  0  0  0  0  0  0
  186.8870  178.0000  147.3030 C   0  0  0  0  0  3  0  0  0  0  0  0
  187.2480  178.0610  141.1390 C   0  0  0  0  0  0  0  0  0  0  0  0
  185.3190  179.1880  142.0970 C   0  0  0  0  0  3  0  0  0  0  0  0
  186.1020  178.8540  140.9890 C   0  0  0  0  0  3  0  0  0  0  0  0
  186.8550  177.9920  143.5500 C   0  0  0  0  0  0  0  0  0  0  0  0
  187.6310  177.6690  142.4280 C   0  0  0  0  0  3  0  0  0  0  0  0
  187.3150  177.5590  144.8900 C   0  0  0  0  0  0  0  0  0  0  0  0
  189.3990  178.0910  147.9670 N   0  0  0  0  0  0  0  0  0  0  0  0
  188.2810  178.0540  147.6690 C   0  0  0  0  0  0  0  0  0  0  0  0
  183.4420  179.7260  144.2600 C   0  0  0  0  0  2  0  0  0  0  0  0
  182.4710  178.6660  143.7490 C   0  0  0  0  0  2  0  0  0  0  0  0
  181.1130  179.2930  143.4910 C   0  0  2  0  0  3  0  0  0  0  0  0
  180.0460  178.3640  144.0570 C   0  0  0  0  0  1  0  0  0  0  0  0
  179.5500  180.1960  141.7430 C   0  0  0  0  0  1  0  0  0  0  0  0
  180.9000  179.5390  141.9890 C   0  0  2  0  0  3  0  0  0  0  0  0
  180.9810  178.2710  141.1910 C   0  0  0  0  0  0  0  0  0  0  0  0
  181.6590  175.4750  137.5600 C   0  0  0  0  0  1  0  0  0  0  0  0
  182.5670  178.2060  136.9670 O   0  0  0  0  0  0  0  0  0  0  0  0
  181.7460  176.4390  139.9290 C   0  0  1  0  0  3  0  0  0  0  0  0
  180.3860  176.3690  140.3290 O   0  0  0  0  0  0  0  0  0  0  0  0
  181.8280  176.5760  138.4900 N   0  0  0  0  0  0  0  0  0  0  0  0
  182.2200  177.7930  140.5100 C   0  0  1  0  0  3  0  0  0  0  0  0
  182.3290  177.8500  138.1530 C   0  0  0  0  0  0  0  0  0  0  0  0
  179.9930  177.4540  141.0660 N   0  0  0  0  0  0  0  0  0  0  0  0
  182.5670  178.7070  139.3260 C   0  0  0  0  0  2  0  0  0  0  0  0
  188.1410  177.7510  139.9520 C   0  0  1  0  0  3  0  0  0  0  0  0
  187.2490  177.1020  137.7200 C   0  0  0  0  0  2  0  0  0  0  0  0
  187.4890  178.0520  138.6230 C   0  0  0  0  0  3  0  0  0  0  0  0
  189.5270  178.4030  140.0530 C   0  0  0  0  0  2  0  0  0  0  0  0
  191.8660  175.8310  138.0120 C   0  0  1  0  0  3  0  0  0  0  0  0
  191.0020  176.7440  138.8230 N   0  0  0  0  0  0  0  0  0  0  0  0
  191.1970  177.0810  141.1120 O   0  0  0  0  0  0  0  0  0  0  0  0
  190.8530  176.5030  137.3590 C   0  0  0  0  0  2  0  0  0  0  0  0
  190.6310  177.3950  140.0340 C   0  0  0  0  0  0  0  0  0  0  0  0
  193.2160  176.5030  137.8050 C   0  0  0  0  0  2  0  0  0  0  0  0
  194.2200  175.5500  137.6200 O   0  0  0  0  0  0  0  0  0  0  0  0
  194.0100  175.0440  136.3370 C   0  0  0  0  0  2  0  0  0  0  0  0
  193.2620  172.6750  136.2120 C   0  0  0  0  0  1  0  0  0  0  0  0
  194.4670  173.5940  136.2770 C   0  0  2  0  0  3  0  0  0  0  0  0
  195.2950  173.2440  137.5020 C   0  0  0  0  0  2  0  0  0  0  0  0
  196.7770  173.4170  137.2170 C   0  0  0  0  0  2  0  0  0  0  0  0
  198.0950  175.3850  137.7350 N   0  0  0  0  0  1  0  0  0  0  0  0
  197.4080  174.2470  138.3160 C   0  0  0  0  0  2  0  0  0  0  0  0
  1  3  1  0  0  0  0
  3  6  2  0  0  0  0
  4 10  1  0  0  0  0
  4  5  1  0  0  0  0
  5 15  1  6  0  0  0
  5  1  1  0  0  0  0
  6 14  1  0  0  0  0
  7 11  1  0  0  0  0
  8  4  2  0  0  0  0
  9  7  2  0  0  0  0
  9  8  1  0  0  0  0
 10 12  1  0  0  0  0
 11 10  2  0  0  0  0
 12  2  2  0  0  0  0
 12  3  1  0  0  0  0
 14 13  3  0  0  0  0
 16 15  1  0  0  0  0
 17 16  1  0  0  0  0
 17 18  1  6  0  0  0
 20 19  1  1  0  0  0
 20 17  1  0  0  0  0
 21 20  1  0  0  0  0
 22 26  1  0  0  0  0
 23 28  2  0  0  0  0
 24 25  1  6  0  0  0
 24 27  1  0  0  0  0
 25 29  1  0  0  0  0
 26 24  1  0  0  0  0
 27 30  1  6  0  0  0
 27 21  1  0  0  0  0
 28 26  1  0  0  0  0
 28 30  1  0  0  0  0
 29 21  2  0  0  0  0
 31 33  1  6  0  0  0
 31 34  1  0  0  0  0
 31  7  1  0  0  0  0
 32 33  2  0  0  0  0
 35 40  1  6  0  0  0
 35 36  1  0  0  0  0
 36 39  1  0  0  0  0
 38 35  1  0  0  0  0
 38 36  1  0  0  0  0
 39 34  1  0  0  0  0
 39 37  2  0  0  0  0
 41 40  1  0  0  0  0
 42 41  1  0  0  0  0
 44 43  1  1  0  0  0
 44 42  1  0  0  0  0
 44 45  1  0  0  0  0
 46 45  1  0  0  0  0
 46 48  1  0  0  0  0
 47 48  1  0  0  0  0
M  END
>  <MODEL>
4

>  <REMARK>
 VINA RESULT:      -6.7      3.592      7.820
  Name = 
  17 active torsions:
  status: ('A' for Active; 'I' for Inactive)
    1  A    between atoms: C_1  and  C_11
    2  A    between atoms: C_5  and  C_8
    3  A    between atoms: C_5  and  O_37
    4  A    between atoms: C_11  and  C_24
    5  A    between atoms: C_19  and  C_44
    6  A    between atoms: C_20  and  C_25
    7  A    between atoms: C_21  and  C_24
    8  A    between atoms: C_21  and  C_44
    9  A    between atoms: C_26  and  C_36
   10  A    between atoms: C_26  and  C_47
   11  A    between atoms: C_27  and  C_33
   12  A    between atoms: C_32  and  C_33
   13  A    between atoms: C_32  and  C_48
   14  A    between atoms: C_33  and  C_42
   15  A    between atoms: C_36  and  C_46
   16  A    between atoms: O_37  and  C_43
   17  A    between atoms: C_43  and  C_47
                            x       y       z     vdW  Elec       q    Type
                         _______ _______ _______ _____ _____    ______ ____

>  <TORSDO>
F 17

$$$$
=
 OpenBabel11042410193D

 48 52  0  0  1  0  0  0  0  0999 V2000
  191.6520  177.1540  143.6550 S   0  0  0  0  0  0  0  0  0  0  0  0
  189.9520  177.3560  147.1820 O   0  0  0  0  0  0  0  0  0  0  0  0
  191.3640  176.7350  145.3680 C   0  0  0  0  0  0  0  0  0  0  0  0
  188.9080  176.7750  143.7180 C   0  0  0  0  0  0  0  0  0  0  0  0
  190.1880  176.2050  143.1230 C   0  0  1  0  0  3  0  0  0  0  0  0
  192.3150  176.0620  146.0220 C   0  0  0  0  0  3  0  0  0  0  0  0
  186.4990  177.7600  144.8310 C   0  0  0  0  0  0  0  0  0  0  0  0
  187.7270  176.8070  142.9620 C   0  0  0  0  0  3  0  0  0  0  0  0
  186.5370  177.2920  143.5100 C   0  0  0  0  0  3  0  0  0  0  0  0
  188.8630  177.1890  145.0740 C   0  0  0  0  0  0  0  0  0  0  0  0
  187.6590  177.6680  145.6100 C   0  0  0  0  0  3  0  0  0  0  0  0
  190.0550  177.1040  145.9490 C   0  0  0  0  0  0  0  0  0  0  0  0
  192.1160  175.2740  148.4910 N   0  0  0  0  0  0  0  0  0  0  0  0
  192.2080  175.6270  147.3920 C   0  0  0  0  0  0  0  0  0  0  0  0
  190.1850  176.0360  141.5980 C   0  0  0  0  0  2  0  0  0  0  0  0
  190.8590  177.2010  140.8800 C   0  0  0  0  0  2  0  0  0  0  0  0
  191.1220  176.8300  139.4320 C   0  0  2  0  0  3  0  0  0  0  0  0
  192.5850  177.1270  139.1240 C   0  0  0  0  0  1  0  0  0  0  0  0
  189.0910  178.3030  139.2840 C   0  0  0  0  0  1  0  0  0  0  0  0
  190.1850  177.6030  138.4900 C   0  0  2  0  0  3  0  0  0  0  0  0
  189.5510  176.7100  137.4650 C   0  0  0  0  0  0  0  0  0  0  0  0
  186.3110  174.9640  134.6510 C   0  0  0  0  0  1  0  0  0  0  0  0
  185.4110  177.4930  135.8490 O   0  0  0  0  0  0  0  0  0  0  0  0
  188.5450  175.8690  135.5110 C   0  0  1  0  0  3  0  0  0  0  0  0
  188.9140  174.8890  136.4700 O   0  0  0  0  0  0  0  0  0  0  0  0
  187.1030  175.9250  135.3980 N   0  0  0  0  0  0  0  0  0  0  0  0
  188.9680  177.1990  136.1810 C   0  0  1  0  0  3  0  0  0  0  0  0
  186.6250  177.1550  135.8950 C   0  0  0  0  0  0  0  0  0  0  0  0
  189.5010  175.4280  137.5830 N   0  0  0  0  0  0  0  0  0  0  0  0
  187.6900  178.0080  136.4480 C   0  0  0  0  0  2  0  0  0  0  0  0
  185.1960  178.2240  145.4560 C   0  0  1  0  0  3  0  0  0  0  0  0
  185.9610  179.5450  147.4230 C   0  0  0  0  0  2  0  0  0  0  0  0
  185.3100  178.4880  146.9390 C   0  0  0  0  0  3  0  0  0  0  0  0
  184.5690  179.4190  144.7240 C   0  0  0  0  0  2  0  0  0  0  0  0
  183.2460  178.7280  140.9790 C   0  0  1  0  0  3  0  0  0  0  0  0
  183.6740  179.0030  142.3850 N   0  0  0  0  0  0  0  0  0  0  0  0
  182.3460  178.7060  144.2670 O   0  0  0  0  0  0  0  0  0  0  0  0
  184.5180  179.2280  141.1760 C   0  0  0  0  0  2  0  0  0  0  0  0
  183.4730  179.0030  143.7950 C   0  0  0  0  0  0  0  0  0  0  0  0
  183.2590  177.2220  140.7580 C   0  0  0  0  0  2  0  0  0  0  0  0
  182.5470  176.8850  139.6040 O   0  0  0  0  0  0  0  0  0  0  0  0
  181.4180  177.7050  139.6200 C   0  0  0  0  0  2  0  0  0  0  0  0
  182.1510  177.7510  137.2440 C   0  0  0  0  0  1  0  0  0  0  0  0
  181.0020  178.0300  138.1940 C   0  0  2  0  0  3  0  0  0  0  0  0
  180.5990  179.4900  138.0750 C   0  0  0  0  0  2  0  0  0  0  0  0
  180.2300  179.8320  136.6420 C   0  0  0  0  0  2  0  0  0  0  0  0
  180.8020  181.5290  135.0080 N   0  0  0  0  0  1  0  0  0  0  0  0
  180.4570  181.3100  136.4000 C   0  0  0  0  0  2  0  0  0  0  0  0
  1  3  1  0  0  0  0
  3 12  1  0  0  0  0
  3  6  2  0  0  0  0
  4 10  1  0  0  0  0
  5 15  1  6  0  0  0
  5  1  1  0  0  0  0
  5  4  1  0  0  0  0
  6 14  1  0  0  0  0
  7 31  1  0  0  0  0
  7 11  1  0  0  0  0
  8  9  1  0  0  0  0
  8  4  2  0  0  0  0
  9  7  2  0  0  0  0
 10 11  2  0  0  0  0
 10 12  1  0  0  0  0
 12  2  2  0  0  0  0
 14 13  3  0  0  0  0
 16 15  1  0  0  0  0
 17 18  1  6  0  0  0
 17 16  1  0  0  0  0
 20 19  1  1  0  0  0
 20 17  1  0  0  0  0
 21 29  2  0  0  0  0
 21 20  1  0  0  0  0
 22 26  1  0  0  0  0
 23 28  2  0  0  0  0
 24 27  1  0  0  0  0
 24 25  1  1  0  0  0
 25 29  1  0  0  0  0
 26 24  1  0  0  0  0
 26 28  1  0  0  0  0
 27 30  1  1  0  0  0
 27 21  1  0  0  0  0
 28 30  1  0  0  0  0
 31 34  1  6  0  0  0
 31 33  1  0  0  0  0
 33 32  2  0  0  0  0
 35 40  1  1  0  0  0
 35 38  1  0  0  0  0
 35 36  1  0  0  0  0
 36 39  1  0  0  0  0
 38 36  1  0  0  0  0
 39 37  2  0  0  0  0
 39 34  1  0  0  0  0
 41 42  1  0  0  0  0
 41 40  1  0  0  0  0
 44 43  1  6  0  0  0
 44 42  1  0  0  0  0
 45 44  1  0  0  0  0
 46 45  1  0  0  0  0
 47 48  1  0  0  0  0
 48 46  1  0  0  0  0
M  END
>  <MODEL>
5

>  <REMARK>
 VINA RESULT:      -6.6      2.950     10.499
  Name = 
  17 active torsions:
  status: ('A' for Active; 'I' for Inactive)
    1  A    between atoms: C_1  and  C_11
    2  A    between atoms: C_5  and  C_8
    3  A    between atoms: C_5  and  O_37
    4  A    between atoms: C_11  and  C_24
    5  A    between atoms: C_19  and  C_44
    6  A    between atoms: C_20  and  C_25
    7  A    between atoms: C_21  and  C_24
    8  A    between atoms: C_21  and  C_44
    9  A    between atoms: C_26  and  C_36
   10  A    between atoms: C_26  and  C_47
   11  A    between atoms: C_27  and  C_33
   12  A    between atoms: C_32  and  C_33
   13  A    between atoms: C_32  and  C_48
   14  A    between atoms: C_33  and  C_42
   15  A    between atoms: C_36  and  C_46
   16  A    between atoms: O_37  and  C_43
   17  A    between atoms: C_43  and  C_47
                            x       y       z     vdW  Elec       q    Type
                         _______ _______ _______ _____ _____    ______ ____

>  <TORSDO>
F 17

$$$$
=
 OpenBabel11042410193D

 48 52  0  0  1  0  0  0  0  0999 V2000
  191.3630  178.3960  143.5940 S   0  0  0  0  0  0  0  0  0  0  0  0
  189.3370  177.3780  146.7920 O   0  0  0  0  0  0  0  0  0  0  0  0
  190.9780  177.4630  145.0690 C   0  0  0  0  0  0  0  0  0  0  0  0
  188.6980  177.7440  143.2030 C   0  0  0  0  0  0  0  0  0  0  0  0
  190.0910  177.5050  142.6370 C   0  0  1  0  0  3  0  0  0  0  0  0
  191.9460  176.7250  145.6190 C   0  0  0  0  0  3  0  0  0  0  0  0
  186.0900  178.1120  144.2380 C   0  0  0  0  0  0  0  0  0  0  0  0
  187.5970  177.8800  142.3450 C   0  0  0  0  0  3  0  0  0  0  0  0
  186.3090  178.0610  142.8540 C   0  0  0  0  0  3  0  0  0  0  0  0
  188.4760  177.7320  144.6040 C   0  0  0  0  0  0  0  0  0  0  0  0
  187.1760  177.9110  145.0980 C   0  0  0  0  0  3  0  0  0  0  0  0
  189.5840  177.5120  145.5620 C   0  0  0  0  0  0  0  0  0  0  0  0
  191.6350  175.2250  147.7190 N   0  0  0  0  0  0  0  0  0  0  0  0
  191.7730  175.8960  146.7860 C   0  0  0  0  0  0  0  0  0  0  0  0
  190.2490  177.7950  141.1380 C   0  0  0  0  0  2  0  0  0  0  0  0
  190.2380  176.5260  140.2930 C   0  0  0  0  0  2  0  0  0  0  0  0
  191.4920  176.4650  139.4390 C   0  0  2  0  0  3  0  0  0  0  0  0
  192.4830  177.4900  139.9760 C   0  0  0  0  0  1  0  0  0  0  0  0
  189.6530  176.7490  137.7490 C   0  0  0  0  0  1  0  0  0  0  0  0
  191.1600  176.7280  137.9610 C   0  0  2  0  0  3  0  0  0  0  0  0
  191.7690  175.7000  137.0530 C   0  0  0  0  0  0  0  0  0  0  0  0
  195.0270  173.2890  134.8100 C   0  0  0  0  0  1  0  0  0  0  0  0
  196.2300  175.0620  136.8220 O   0  0  0  0  0  0  0  0  0  0  0  0
  192.9540  173.8560  136.2000 C   0  0  1  0  0  3  0  0  0  0  0  0
  192.1410  174.5400  135.2570 O   0  0  0  0  0  0  0  0  0  0  0  0
  194.3510  174.0300  135.8600 N   0  0  0  0  0  0  0  0  0  0  0  0
  192.7350  174.6570  137.5060 C   0  0  1  0  0  3  0  0  0  0  0  0
  194.9930  174.8160  136.8370 C   0  0  0  0  0  0  0  0  0  0  0  0
  191.4680  175.5980  135.8050 N   0  0  0  0  0  0  0  0  0  0  0  0
  194.0780  175.2990  137.8840 C   0  0  0  0  0  2  0  0  0  0  0  0
  184.6860  178.2400  144.8000 C   0  0  1  0  0  3  0  0  0  0  0  0
  185.4150  179.1280  147.0090 C   0  0  0  0  0  2  0  0  0  0  0  0
  184.6530  178.2880  146.3100 C   0  0  0  0  0  3  0  0  0  0  0  0
  183.8950  179.4030  144.1880 C   0  0  0  0  0  2  0  0  0  0  0  0
  182.4840  178.4620  140.5310 C   0  0  1  0  0  3  0  0  0  0  0  0
  182.9450  178.8320  141.9040 N   0  0  0  0  0  0  0  0  0  0  0  0
  181.6580  178.6760  143.8310 O   0  0  0  0  0  0  0  0  0  0  0  0
  183.7620  178.9650  140.6640 C   0  0  0  0  0  2  0  0  0  0  0  0
  182.7760  178.9310  143.3150 C   0  0  0  0  0  0  0  0  0  0  0  0
  182.4830  176.9440  140.4150 C   0  0  0  0  0  2  0  0  0  0  0  0
  183.1340  176.5360  139.2490 O   0  0  0  0  0  0  0  0  0  0  0  0
  182.1330  176.4630  138.2790 C   0  0  0  0  0  2  0  0  0  0  0  0
  184.1410  177.3150  137.0830 C   0  0  0  0  0  1  0  0  0  0  0  0
  182.6650  176.9880  136.9540 C   0  0  2  0  0  3  0  0  0  0  0  0
  181.9120  178.2390  136.5350 C   0  0  0  0  0  2  0  0  0  0  0  0
  180.5090  178.2420  137.1170 C   0  0  0  0  0  2  0  0  0  0  0  0
  181.4190  180.4090  137.7150 N   0  0  0  0  0  1  0  0  0  0  0  0
  180.2100  179.6060  137.7050 C   0  0  0  0  0  2  0  0  0  0  0  0
  1  3  1  0  0  0  0
  3 12  1  0  0  0  0
  3  6  2  0  0  0  0
  4 10  1  0  0  0  0
  5 15  1  6  0  0  0
  5  4  1  0  0  0  0
  5  1  1  0  0  0  0
  6 14  1  0  0  0  0
  7 31  1  0  0  0  0
  7 11  1  0  0  0  0
  8  9  1  0  0  0  0
  8  4  2  0  0  0  0
  9  7  2  0  0  0  0
 10 11  2  0  0  0  0
 10 12  1  0  0  0  0
 12  2  2  0  0  0  0
 14 13  3  0  0  0  0
 16 15  1  0  0  0  0
 17 18  1  1  0  0  0
 17 16  1  0  0  0  0
 20 19  1  1  0  0  0
 20 17  1  0  0  0  0
 21 27  1  0  0  0  0
 21 20  1  0  0  0  0
 22 26  1  0  0  0  0
 23 28  2  0  0  0  0
 24 25  1  6  0  0  0
 24 27  1  0  0  0  0
 25 29  1  0  0  0  0
 26 24  1  0  0  0  0
 26 28  1  0  0  0  0
 27 30  1  6  0  0  0
 28 30  1  0  0  0  0
 29 21  2  0  0  0  0
 31 34  1  6  0  0  0
 31 33  1  0  0  0  0
 33 32  2  0  0  0  0
 35 40  1  1  0  0  0
 35 38  1  0  0  0  0
 35 36  1  0  0  0  0
 36 39  1  0  0  0  0
 38 36  1  0  0  0  0
 39 37  2  0  0  0  0
 39 34  1  0  0  0  0
 41 40  1  0  0  0  0
 42 41  1  0  0  0  0
 44 43  1  1  0  0  0
 44 42  1  0  0  0  0
 45 44  1  0  0  0  0
 45 46  1  0  0  0  0
 46 48  1  0  0  0  0
 48 47  1  0  0  0  0
M  END
>  <MODEL>
6

>  <REMARK>
 VINA RESULT:      -6.6      3.397     10.962
  Name = 
  17 active torsions:
  status: ('A' for Active; 'I' for Inactive)
    1  A    between atoms: C_1  and  C_11
    2  A    between atoms: C_5  and  C_8
    3  A    between atoms: C_5  and  O_37
    4  A    between atoms: C_11  and  C_24
    5  A    between atoms: C_19  and  C_44
    6  A    between atoms: C_20  and  C_25
    7  A    between atoms: C_21  and  C_24
    8  A    between atoms: C_21  and  C_44
    9  A    between atoms: C_26  and  C_36
   10  A    between atoms: C_26  and  C_47
   11  A    between atoms: C_27  and  C_33
   12  A    between atoms: C_32  and  C_33
   13  A    between atoms: C_32  and  C_48
   14  A    between atoms: C_33  and  C_42
   15  A    between atoms: C_36  and  C_46
   16  A    between atoms: O_37  and  C_43
   17  A    between atoms: C_43  and  C_47
                            x       y       z     vdW  Elec       q    Type
                         _______ _______ _______ _____ _____    ______ ____

>  <TORSDO>
F 17

$$$$
=
 OpenBabel11042410193D

 48 52  0  0  1  0  0  0  0  0999 V2000
  187.2120  177.1260  143.4910 S   0  0  0  0  0  0  0  0  0  0  0  0
  190.9400  175.9700  143.1190 O   0  0  0  0  0  0  0  0  0  0  0  0
  188.9310  176.9470  143.9450 C   0  0  0  0  0  0  0  0  0  0  0  0
  188.5200  177.9250  141.1820 C   0  0  0  0  0  0  0  0  0  0  0  0
  187.6140  178.4410  142.2910 C   0  0  1  0  0  3  0  0  0  0  0  0
  189.2740  177.1660  145.2170 C   0  0  0  0  0  3  0  0  0  0  0  0
  190.2450  177.0380  139.1200 C   0  0  0  0  0  0  0  0  0  0  0  0
  188.3530  178.3710  139.8630 C   0  0  0  0  0  3  0  0  0  0  0  0
  189.2030  177.9350  138.8440 C   0  0  0  0  0  3  0  0  0  0  0  0
  189.6100  177.0670  141.4810 C   0  0  0  0  0  0  0  0  0  0  0  0
  190.4580  176.6430  140.4470 C   0  0  0  0  0  3  0  0  0  0  0  0
  189.8910  176.6250  142.8660 C   0  0  0  0  0  0  0  0  0  0  0  0
  191.7040  177.0270  146.1290 N   0  0  0  0  0  0  0  0  0  0  0  0
  190.6230  177.0920  145.7200 C   0  0  0  0  0  0  0  0  0  0  0  0
  186.3340  179.1430  141.8180 C   0  0  0  0  0  2  0  0  0  0  0  0
  185.2080  178.1600  141.5120 C   0  0  0  0  0  2  0  0  0  0  0  0
  183.9820  178.9160  141.0310 C   0  0  2  0  0  3  0  0  0  0  0  0
  182.8220  178.5830  141.9610 C   0  0  0  0  0  1  0  0  0  0  0  0
  184.9270  178.4400  138.7510 C   0  0  0  0  0  1  0  0  0  0  0  0
  183.6520  178.5520  139.5740 C   0  0  2  0  0  3  0  0  0  0  0  0
  182.7410  179.5560  138.9320 C   0  0  0  0  0  0  0  0  0  0  0  0
  180.1680  181.6080  135.6710 C   0  0  0  0  0  1  0  0  0  0  0  0
  181.0700  178.9550  134.7840 O   0  0  0  0  0  0  0  0  0  0  0  0
  180.9040  180.6150  137.9120 C   0  0  1  0  0  3  0  0  0  0  0  0
  181.9680  181.4790  138.2850 O   0  0  0  0  0  0  0  0  0  0  0  0
  180.7930  180.5690  136.4700 N   0  0  0  0  0  0  0  0  0  0  0  0
  181.4130  179.2180  138.3420 C   0  0  1  0  0  3  0  0  0  0  0  0
  181.1470  179.2880  135.9970 C   0  0  0  0  0  0  0  0  0  0  0  0
  183.0070  180.8150  138.8810 N   0  0  0  0  0  0  0  0  0  0  0  0
  181.5910  178.3800  137.0680 C   0  0  0  0  0  2  0  0  0  0  0  0
  191.2160  176.6130  138.0340 C   0  0  1  0  0  3  0  0  0  0  0  0
  193.5820  175.8660  137.8290 C   0  0  0  0  0  2  0  0  0  0  0  0
  192.6440  176.5160  138.5170 C   0  0  0  0  0  3  0  0  0  0  0  0
  190.7840  175.3300  137.3090 C   0  0  0  0  0  2  0  0  0  0  0  0
  187.5900  174.1940  135.1290 C   0  0  1  0  0  3  0  0  0  0  0  0
  188.7990  174.6480  135.8820 N   0  0  0  0  0  0  0  0  0  0  0  0
  189.9080  176.6590  135.5410 O   0  0  0  0  0  0  0  0  0  0  0  0
  188.1090  173.3400  136.0810 C   0  0  0  0  0  2  0  0  0  0  0  0
  189.8030  175.6010  136.2130 C   0  0  0  0  0  0  0  0  0  0  0  0
  186.3810  174.9570  135.6530 C   0  0  0  0  0  2  0  0  0  0  0  0
  185.2780  174.7710  134.8160 O   0  0  0  0  0  0  0  0  0  0  0  0
  184.3360  174.1020  135.5990 C   0  0  0  0  0  2  0  0  0  0  0  0
  184.7780  172.9670  137.7680 C   0  0  0  0  0  1  0  0  0  0  0  0
  184.6540  174.3090  137.0720 C   0  0  2  0  0  3  0  0  0  0  0  0
  183.5600  175.1210  137.7450 C   0  0  0  0  0  2  0  0  0  0  0  0
  182.1990  174.7680  137.1710 C   0  0  0  0  0  2  0  0  0  0  0  0
  181.6790  175.5340  139.4120 N   0  0  0  0  0  1  0  0  0  0  0  0
  181.1640  174.7900  138.2770 C   0  0  0  0  0  2  0  0  0  0  0  0
  1  3  1  0  0  0  0
  3  6  2  0  0  0  0
  4 10  1  0  0  0  0
  4  5  1  0  0  0  0
  5 15  1  6  0  0  0
  5  1  1  0  0  0  0
  6 14  1  0  0  0  0
  7 11  1  0  0  0  0
  8  4  2  0  0  0  0
  9  7  2  0  0  0  0
  9  8  1  0  0  0  0
 10 12  1  0  0  0  0
 11 10  2  0  0  0  0
 12  2  2  0  0  0  0
 12  3  1  0  0  0  0
 14 13  3  0  0  0  0
 16 15  1  0  0  0  0
 17 16  1  0  0  0  0
 17 18  1  1  0  0  0
 20 19  1  6  0  0  0
 20 17  1  0  0  0  0
 21 20  1  0  0  0  0
 22 26  1  0  0  0  0
 23 28  2  0  0  0  0
 24 25  1  6  0  0  0
 24 27  1  0  0  0  0
 25 29  1  0  0  0  0
 26 24  1  0  0  0  0
 27 30  1  6  0  0  0
 27 21  1  0  0  0  0
 28 26  1  0  0  0  0
 28 30  1  0  0  0  0
 29 21  2  0  0  0  0
 31 34  1  1  0  0  0
 31 33  1  0  0  0  0
 31  7  1  0  0  0  0
 32 33  2  0  0  0  0
 35 40  1  1  0  0  0
 35 36  1  0  0  0  0
 35 38  1  0  0  0  0
 36 38  1  0  0  0  0
 36 39  1  0  0  0  0
 37 39  2  0  0  0  0
 39 34  1  0  0  0  0
 41 42  1  0  0  0  0
 41 40  1  0  0  0  0
 42 44  1  0  0  0  0
 44 45  1  0  0  0  0
 44 43  1  1  0  0  0
 46 45  1  0  0  0  0
 46 48  1  0  0  0  0
 48 47  1  0  0  0  0
M  END
>  <MODEL>
7

>  <REMARK>
 VINA RESULT:      -6.6      3.050      8.371
  Name = 
  17 active torsions:
  status: ('A' for Active; 'I' for Inactive)
    1  A    between atoms: C_1  and  C_11
    2  A    between atoms: C_5  and  C_8
    3  A    between atoms: C_5  and  O_37
    4  A    between atoms: C_11  and  C_24
    5  A    between atoms: C_19  and  C_44
    6  A    between atoms: C_20  and  C_25
    7  A    between atoms: C_21  and  C_24
    8  A    between atoms: C_21  and  C_44
    9  A    between atoms: C_26  and  C_36
   10  A    between atoms: C_26  and  C_47
   11  A    between atoms: C_27  and  C_33
   12  A    between atoms: C_32  and  C_33
   13  A    between atoms: C_32  and  C_48
   14  A    between atoms: C_33  and  C_42
   15  A    between atoms: C_36  and  C_46
   16  A    between atoms: O_37  and  C_43
   17  A    between atoms: C_43  and  C_47
                            x       y       z     vdW  Elec       q    Type
                         _______ _______ _______ _____ _____    ______ ____

>  <TORSDO>
F 17

$$$$
=
 OpenBabel11042410193D

 48 52  0  0  1  0  0  0  0  0999 V2000
  191.5240  177.4870  143.3180 S   0  0  0  0  0  0  0  0  0  0  0  0
  189.7470  177.3820  146.8110 O   0  0  0  0  0  0  0  0  0  0  0  0
  191.2130  176.9340  144.9880 C   0  0  0  0  0  0  0  0  0  0  0  0
  188.7910  177.0320  143.2910 C   0  0  0  0  0  0  0  0  0  0  0  0
  190.0980  176.5410  142.6850 C   0  0  1  0  0  3  0  0  0  0  0  0
  192.1690  176.2390  145.6120 C   0  0  0  0  0  3  0  0  0  0  0  0
  186.3330  177.8680  144.4200 C   0  0  0  0  0  0  0  0  0  0  0  0
  187.6250  177.0890  142.5130 C   0  0  0  0  0  3  0  0  0  0  0  0
  186.4110  177.5010  143.0690 C   0  0  0  0  0  3  0  0  0  0  0  0
  188.7070  177.3430  144.6730 C   0  0  0  0  0  0  0  0  0  0  0  0
  187.4790  177.7500  145.2160 C   0  0  0  0  0  3  0  0  0  0  0  0
  189.8830  177.2250  145.5660 C   0  0  0  0  0  0  0  0  0  0  0  0
  191.9410  175.2660  148.0110 N   0  0  0  0  0  0  0  0  0  0  0  0
  192.0470  175.7010  146.9430 C   0  0  0  0  0  0  0  0  0  0  0  0
  190.1310  176.4870  141.1520 C   0  0  0  0  0  2  0  0  0  0  0  0
  191.0960  177.5030  140.5510 C   0  0  0  0  0  2  0  0  0  0  0  0
  191.6060  177.0010  139.2120 C   0  0  2  0  0  3  0  0  0  0  0  0
  190.5790  176.0280  138.6470 C   0  0  0  0  0  1  0  0  0  0  0  0
  193.9070  177.2070  140.2040 C   0  0  0  0  0  1  0  0  0  0  0  0
  192.9820  176.3340  139.3670 C   0  0  2  0  0  3  0  0  0  0  0  0
  193.6310  176.0630  138.0410 C   0  0  0  0  0  0  0  0  0  0  0  0
  196.7540  174.5300  134.9810 C   0  0  0  0  0  1  0  0  0  0  0  0
  197.3330  173.5090  137.6750 O   0  0  0  0  0  0  0  0  0  0  0  0
  194.5200  175.0150  136.1310 C   0  0  1  0  0  3  0  0  0  0  0  0
  194.4520  176.4320  136.0660 O   0  0  0  0  0  0  0  0  0  0  0  0
  195.9030  174.5910  136.1560 N   0  0  0  0  0  0  0  0  0  0  0  0
  193.9550  174.6960  137.5370 C   0  0  1  0  0  3  0  0  0  0  0  0
  196.2140  174.0240  137.4090 C   0  0  0  0  0  0  0  0  0  0  0  0
  193.9220  176.9910  137.1970 N   0  0  0  0  0  0  0  0  0  0  0  0
  195.0920  174.0760  138.3610 C   0  0  0  0  0  2  0  0  0  0  0  0
  185.0060  178.2510  145.0480 C   0  0  1  0  0  3  0  0  0  0  0  0
  185.6820  179.2630  147.2200 C   0  0  0  0  0  2  0  0  0  0  0  0
  185.0530  178.2930  146.5570 C   0  0  0  0  0  3  0  0  0  0  0  0
  184.4180  179.5460  144.4730 C   0  0  0  0  0  2  0  0  0  0  0  0
  180.9360  178.6310  142.6600 C   0  0  1  0  0  3  0  0  0  0  0  0
  182.2600  178.9390  143.2820 N   0  0  0  0  0  0  0  0  0  0  0  0
  184.2160  179.3770  142.1080 O   0  0  0  0  0  0  0  0  0  0  0  0
  181.0140  178.6250  144.0380 C   0  0  0  0  0  2  0  0  0  0  0  0
  183.6340  179.3070  143.2210 C   0  0  0  0  0  0  0  0  0  0  0  0
  180.3370  179.9280  142.1330 C   0  0  0  0  0  2  0  0  0  0  0  0
  179.9090  179.7750  140.8130 O   0  0  0  0  0  0  0  0  0  0  0  0
  180.8480  178.9290  140.2210 C   0  0  0  0  0  2  0  0  0  0  0  0
  182.7650  179.9310  138.9940 C   0  0  0  0  0  1  0  0  0  0  0  0
  181.3080  179.5220  138.8970 C   0  0  2  0  0  3  0  0  0  0  0  0
  180.4710  180.7390  138.5380 C   0  0  0  0  0  2  0  0  0  0  0  0
  180.5950  181.0590  137.0590 C   0  0  0  0  0  2  0  0  0  0  0  0
  180.8060  182.8880  135.4800 N   0  0  0  0  0  1  0  0  0  0  0  0
  180.4800  182.5560  136.8550 C   0  0  0  0  0  2  0  0  0  0  0  0
  1  3  1  0  0  0  0
  3 12  1  0  0  0  0
  3  6  2  0  0  0  0
  4 10  1  0  0  0  0
  5 15  1  6  0  0  0
  5  4  1  0  0  0  0
  5  1  1  0  0  0  0
  6 14  1  0  0  0  0
  7 31  1  0  0  0  0
  7 11  1  0  0  0  0
  8  9  1  0  0  0  0
  8  4  2  0  0  0  0
  9  7  2  0  0  0  0
 10 11  2  0  0  0  0
 10 12  1  0  0  0  0
 12  2  2  0  0  0  0
 14 13  3  0  0  0  0
 16 15  1  0  0  0  0
 17 18  1  1  0  0  0
 17 20  1  0  0  0  0
 17 16  1  0  0  0  0
 20 19  1  1  0  0  0
 21 20  1  0  0  0  0
 22 26  1  0  0  0  0
 24 25  1  1  0  0  0
 24 26  1  0  0  0  0
 24 27  1  0  0  0  0
 25 29  1  0  0  0  0
 26 28  1  0  0  0  0
 27 21  1  0  0  0  0
 27 30  1  1  0  0  0
 28 23  2  0  0  0  0
 28 30  1  0  0  0  0
 29 21  2  0  0  0  0
 31 34  1  6  0  0  0
 31 33  1  0  0  0  0
 33 32  2  0  0  0  0
 35 40  1  1  0  0  0
 35 36  1  0  0  0  0
 35 38  1  0  0  0  0
 36 38  1  0  0  0  0
 37 39  2  0  0  0  0
 39 36  1  0  0  0  0
 39 34  1  0  0  0  0
 41 40  1  0  0  0  0
 42 41  1  0  0  0  0
 44 43  1  1  0  0  0
 44 42  1  0  0  0  0
 45 44  1  0  0  0  0
 46 45  1  0  0  0  0
 47 48  1  0  0  0  0
 48 46  1  0  0  0  0
M  END
>  <MODEL>
8

>  <REMARK>
 VINA RESULT:      -6.5      4.084     11.548
  Name = 
  17 active torsions:
  status: ('A' for Active; 'I' for Inactive)
    1  A    between atoms: C_1  and  C_11
    2  A    between atoms: C_5  and  C_8
    3  A    between atoms: C_5  and  O_37
    4  A    between atoms: C_11  and  C_24
    5  A    between atoms: C_19  and  C_44
    6  A    between atoms: C_20  and  C_25
    7  A    between atoms: C_21  and  C_24
    8  A    between atoms: C_21  and  C_44
    9  A    between atoms: C_26  and  C_36
   10  A    between atoms: C_26  and  C_47
   11  A    between atoms: C_27  and  C_33
   12  A    between atoms: C_32  and  C_33
   13  A    between atoms: C_32  and  C_48
   14  A    between atoms: C_33  and  C_42
   15  A    between atoms: C_36  and  C_46
   16  A    between atoms: O_37  and  C_43
   17  A    between atoms: C_43  and  C_47
                            x       y       z     vdW  Elec       q    Type
                         _______ _______ _______ _____ _____    ______ ____

>  <TORSDO>
F 17

$$$$
=
 OpenBabel11042410193D

 48 52  0  0  1  0  0  0  0  0999 V2000
  182.1360  175.5810  135.6950 S   0  0  0  0  0  0  0  0  0  0  0  0
  185.3640  173.3570  135.7720 O   0  0  0  0  0  0  0  0  0  0  0  0
  183.1080  174.1020  135.9410 C   0  0  0  0  0  0  0  0  0  0  0  0
  184.2220  176.4990  137.2730 C   0  0  0  0  0  0  0  0  0  0  0  0
  182.7140  176.2850  137.2760 C   0  0  1  0  0  3  0  0  0  0  0  0
  182.4700  172.9300  135.9990 C   0  0  0  0  0  3  0  0  0  0  0  0
  187.0260  176.8750  137.3450 C   0  0  0  0  0  0  0  0  0  0  0  0
  184.7800  177.6240  137.8970 C   0  0  0  0  0  3  0  0  0  0  0  0
  186.1650  177.8110  137.9340 C   0  0  0  0  0  3  0  0  0  0  0  0
  185.0890  175.5160  136.7290 C   0  0  0  0  0  0  0  0  0  0  0  0
  186.4760  175.7180  136.7790 C   0  0  0  0  0  3  0  0  0  0  0  0
  184.5660  174.2680  136.1290 C   0  0  0  0  0  0  0  0  0  0  0  0
  183.6300  170.6410  136.4130 N   0  0  0  0  0  0  0  0  0  0  0  0
  183.1170  171.6620  136.2270 C   0  0  0  0  0  0  0  0  0  0  0  0
  181.8780  177.5160  137.6510 C   0  0  0  0  0  2  0  0  0  0  0  0
  180.4580  177.1510  138.0710 C   0  0  0  0  0  2  0  0  0  0  0  0
  180.4400  176.7500  139.5350 C   0  0  2  0  0  3  0  0  0  0  0  0
  180.0300  175.2860  139.6220 C   0  0  0  0  0  1  0  0  0  0  0  0
  179.0810  178.8640  139.5150 C   0  0  0  0  0  1  0  0  0  0  0  0
  179.4830  177.6470  140.3360 C   0  0  2  0  0  3  0  0  0  0  0  0
  180.0870  178.1070  141.6300 C   0  0  0  0  0  0  0  0  0  0  0  0
  183.3280  179.0290  144.8100 C   0  0  0  0  0  1  0  0  0  0  0  0
  184.5540  178.3130  142.2360 O   0  0  0  0  0  0  0  0  0  0  0  0
  181.3030  179.2830  143.2660 C   0  0  1  0  0  3  0  0  0  0  0  0
  180.4200  178.2900  143.7670 O   0  0  0  0  0  0  0  0  0  0  0  0
  182.6740  178.8940  143.5210 N   0  0  0  0  0  0  0  0  0  0  0  0
  181.1140  179.1840  141.7320 C   0  0  1  0  0  3  0  0  0  0  0  0
  183.3300  178.6080  142.3060 C   0  0  0  0  0  0  0  0  0  0  0  0
  179.7320  177.6410  142.7770 N   0  0  0  0  0  0  0  0  0  0  0  0
  182.4470  178.7130  141.1330 C   0  0  0  0  0  2  0  0  0  0  0  0
  188.5320  177.0350  137.4400 C   0  0  1  0  0  3  0  0  0  0  0  0
  189.0600  179.4480  137.1290 C   0  0  0  0  0  2  0  0  0  0  0  0
  188.9550  178.3960  137.9400 C   0  0  0  0  0  3  0  0  0  0  0  0
  189.2080  175.9130  138.2400 C   0  0  0  0  0  2  0  0  0  0  0  0
  190.3730  177.5230  141.7470 C   0  0  1  0  0  3  0  0  0  0  0  0
  189.9920  176.9590  140.4160 N   0  0  0  0  0  0  0  0  0  0  0  0
  191.4800  176.4380  138.7110 O   0  0  0  0  0  0  0  0  0  0  0  0
  189.0310  177.3250  141.4960 C   0  0  0  0  0  2  0  0  0  0  0  0
  190.2940  176.4260  139.1300 C   0  0  0  0  0  0  0  0  0  0  0  0
  190.9610  176.4030  142.5940 C   0  0  0  0  0  2  0  0  0  0  0  0
  191.7680  176.9210  143.6090 O   0  0  0  0  0  0  0  0  0  0  0  0
  191.6640  176.0080  144.6590 C   0  0  0  0  0  2  0  0  0  0  0  0
  192.0450  175.8930  147.1150 C   0  0  0  0  0  1  0  0  0  0  0  0
  191.5340  176.7570  145.9770 C   0  0  2  0  0  3  0  0  0  0  0  0
  190.0830  177.1230  146.2420 C   0  0  0  0  0  2  0  0  0  0  0  0
  189.8070  177.1830  147.7340 C   0  0  0  0  0  2  0  0  0  0  0  0
  187.9620  178.2130  148.9230 N   0  0  0  0  0  1  0  0  0  0  0  0
  188.3110  177.1740  147.9710 C   0  0  0  0  0  2  0  0  0  0  0  0
  1  3  1  0  0  0  0
  1  5  1  0  0  0  0
  2 12  2  0  0  0  0
  3  6  2  0  0  0  0
  3 12  1  0  0  0  0
  4  5  1  0  0  0  0
  4  8  1  0  0  0  0
  5 15  1  6  0  0  0
  6 14  1  0  0  0  0
  7 31  1  0  0  0  0
  7  9  1  0  0  0  0
  8  9  2  0  0  0  0
 10 11  1  0  0  0  0
 10  4  2  0  0  0  0
 11  7  2  0  0  0  0
 12 10  1  0  0  0  0
 14 13  3  0  0  0  0
 15 16  1  0  0  0  0
 16 17  1  0  0  0  0
 17 18  1  6  0  0  0
 17 20  1  0  0  0  0
 20 19  1  6  0  0  0
 20 21  1  0  0  0  0
 21 27  1  0  0  0  0
 21 29  2  0  0  0  0
 23 28  2  0  0  0  0
 24 26  1  0  0  0  0
 24 25  1  1  0  0  0
 26 22  1  0  0  0  0
 27 30  1  6  0  0  0
 27 24  1  0  0  0  0
 28 26  1  0  0  0  0
 29 25  1  0  0  0  0
 30 28  1  0  0  0  0
 31 33  1  1  0  0  0
 31 34  1  0  0  0  0
 32 33  2  0  0  0  0
 34 39  1  0  0  0  0
 35 40  1  1  0  0  0
 36 38  1  0  0  0  0
 36 35  1  0  0  0  0
 37 39  2  0  0  0  0
 38 35  1  0  0  0  0
 39 36  1  0  0  0  0
 40 41  1  0  0  0  0
 41 42  1  0  0  0  0
 42 44  1  0  0  0  0
 44 45  1  0  0  0  0
 44 43  1  1  0  0  0
 45 46  1  0  0  0  0
 46 48  1  0  0  0  0
 48 47  1  0  0  0  0
M  END
>  <MODEL>
9

>  <REMARK>
 VINA RESULT:      -6.4      1.886      2.570
  Name = 
  17 active torsions:
  status: ('A' for Active; 'I' for Inactive)
    1  A    between atoms: C_1  and  C_11
    2  A    between atoms: C_5  and  C_8
    3  A    between atoms: C_5  and  O_37
    4  A    between atoms: C_11  and  C_24
    5  A    between atoms: C_19  and  C_44
    6  A    between atoms: C_20  and  C_25
    7  A    between atoms: C_21  and  C_24
    8  A    between atoms: C_21  and  C_44
    9  A    between atoms: C_26  and  C_36
   10  A    between atoms: C_26  and  C_47
   11  A    between atoms: C_27  and  C_33
   12  A    between atoms: C_32  and  C_33
   13  A    between atoms: C_32  and  C_48
   14  A    between atoms: C_33  and  C_42
   15  A    between atoms: C_36  and  C_46
   16  A    between atoms: O_37  and  C_43
   17  A    between atoms: C_43  and  C_47
                            x       y       z     vdW  Elec       q    Type
                         _______ _______ _______ _____ _____    ______ ____

>  <TORSDO>
F 17

$$$$
